drugbank_target|Q7Z460 CLIP-associating protein 1 (DB12010)
 OpenBabel12092121173D

  0  0  0     0  0            999 V3000
M  V30 BEGIN CTAB
M  V30 COUNTS 23875 24077 0 0 0
M  V30 BEGIN ATOM
M  V30 1 H -0.908 1.98254 -0.117106 0
M  V30 2 N 0 1.576 0 0
M  V30 3 C 0.933 2.03868 1.02534 0
M  V30 4 C 1.911 0.928543 1.3348 0
M  V30 5 O 3.095 1.19667 1.45644 0
M  V30 6 C 0.222 2.43627 2.35294 0
M  V30 7 C -0.732 3.65373 2.2001 0
M  V30 8 S 0.101 5.13292 1.52614 0
M  V30 9 C 1.257 5.56322 2.86805 0
M  V30 10 H 1.49 2.90518 0.631377 0
M  V30 11 H -0.977 1.52953 0.210867 0
M  V30 12 H 0.981 2.67203 3.11629 0
M  V30 13 H -0.358 1.57376 2.7183 0
M  V30 14 H -1.165 3.90944 3.18086 0
M  V30 15 H -1.563 3.418 1.51819 0
M  V30 16 H 0.729 5.58782 3.83104 0
M  V30 17 H 1.672 6.56266 2.65933 0
M  V30 18 H 2.08 4.83886 2.90714 0
M  V30 19 N 1.4781 -0.272755 1.55222 0
M  V30 20 C 2.3881 -1.35918 1.91216 0
M  V30 21 C 3.4041 -1.54026 0.809436 0
M  V30 22 O 4.5801 -1.68148 1.10852 0
M  V30 23 C 1.6451 -2.69834 2.17693 0
M  V30 24 C 0.7061 -2.6047 3.41253 0
M  V30 25 C -0.0609 -3.88 3.66458 0
M  V30 26 O 0.1621 -4.88693 2.94169 0
M  V30 27 O -0.9039 -3.88189 4.59992 0
M  V30 28 H 2.9221 -1.0839 2.83699 0
M  V30 29 H 0.5071 -0.471301 1.41771 0
M  V30 30 H 2.3891 -3.49017 2.36147 0
M  V30 31 H 1.0641 -2.97148 1.28392 0
M  V30 32 H -0.0289 -1.79663 3.28134 0
M  V30 33 H 1.3041 -2.38106 4.30774 0
M  V30 34 N 2.9562 -1.48159 -0.537278 0
M  V30 35 C 4.3672 -1.49429 -1.11928 0
M  V30 36 C 4.7182 -0.26 -1.9447 0
M  V30 37 O 3.8432 0.633489 -2.0692 0
M  V30 38 C 4.4382 -2.70758 -2.03656 0
M  V30 39 C 2.9972 -2.74923 -2.57088 0
M  V30 40 C 2.1442 -2.42835 -1.3389 0
M  V30 41 H 5.0952 -1.55381 -0.322886 0
M  V30 42 H 5.1162 -2.48861 -2.87834 0
M  V30 43 H 4.6282 -3.60575 -1.43553 0
M  V30 44 H 2.7292 -1.89296 -3.20933 0
M  V30 45 H 2.8422 -3.76157 -2.9672 0
M  V30 46 H 1.2062 -1.93836 -1.65226 0
M  V30 47 H 1.9892 -3.34884 -0.755504 0
M  V30 48 N 4.4343 0.785586 -1.36625 0
M  V30 49 C 5.8503 1.08419 -1.17122 0
M  V30 50 C 6.0503 2.015 0.00208491 0
M  V30 51 O 5.1063 2.43551 0.666278 0
M  V30 52 C 6.4193 1.69498 -2.48377 0
M  V30 53 C 7.9673 1.81821 -2.54775 0
M  V30 54 C 8.4423 2.46315 -3.86126 0
M  V30 55 N 9.9333 2.53779 -3.87492 0
M  V30 56 C 10.6683 3.045 -4.85868 0
M  V30 57 N 10.1643 3.55499 -5.94637 0
M  V30 58 N 11.9573 3.03247 -4.73284 0
M  V30 59 H 4.1083 0.167264 -2.1174 0
M  V30 60 H 6.3713 0.13682 -0.938075 0
M  V30 61 H 6.0773 1.08571 -3.34522 0
M  V30 62 H 5.9513 2.6896 -2.64462 0
M  V30 63 H 8.3383 2.41884 -1.69045 0
M  V30 64 H 8.4193 0.811532 -2.42586 0
M  V30 65 H 8.0633 1.86895 -4.72263 0
M  V30 66 H 7.9933 3.47561 -3.95612 0
M  V30 67 H 10.4843 2.17672 -3.08913 0
M  V30 68 H 10.7973 3.92562 -6.65669 0
M  V30 69 H 9.1423 3.5364 -5.98301 0
M  V30 70 H 12.3333 2.62696 -3.87438 0
M  V30 71 H 12.5063 3.42467 -5.50109 0
M  V30 72 N 5.9124 1.20967 1.01018 0
M  V30 73 C 6.8454 0.907578 2.09376 0
M  V30 74 C 7.8234 -0.142868 1.61971 0
M  V30 75 O 9.0074 -0.0150391 1.88494 0
M  V30 76 C 6.1344 0.361791 3.36762 0
M  V30 77 C 5.1804 1.39423 4.03068 0
M  V30 78 S 6.0134 2.96159 4.4615 0
M  V30 79 C 7.1694 2.43173 5.7673 0
M  V30 80 H 7.4024 1.82519 2.34678 0
M  V30 81 H 4.9354 1.03884 1.14225 0
M  V30 82 H 6.8934 0.0534523 4.10465 0
M  V30 83 H 5.5544 -0.53443 3.0952 0
M  V30 84 H 4.7474 0.961853 4.94737 0
M  V30 85 H 4.3494 1.65038 3.35617 0
M  V30 86 H 6.6414 1.83335 6.52223 0
M  V30 87 H 7.5844 3.33264 6.24773 0
M  V30 88 H 7.9924 1.85069 5.33301 0
M  V30 89 N 7.3905 -1.2043 1.01659 0
M  V30 90 C 8.3005 -2.2689 0.596484 0
M  V30 91 C 9.3165 -1.70107 -0.36599 0
M  V30 92 O 10.4925 -2.00117 -0.226942 0
M  V30 93 C 7.5575 -3.4665 -0.0586659 0
M  V30 94 C 6.6185 -4.18662 0.949751 0
M  V30 95 C 5.8515 -5.32705 0.32577 0
M  V30 96 O 6.0745 -5.63656 -0.874509 0
M  V30 97 O 5.0085 -5.92803 1.04249 0
M  V30 98 H 8.8345 -2.65041 1.4828 0
M  V30 99 H 6.4195 -1.27048 0.786082 0
M  V30 100 H 8.3015 -4.19256 -0.424564 0
M  V30 101 H 6.9765 -3.10375 -0.91918 0
M  V30 102 H 5.8835 -3.48229 1.36702 0
M  V30 103 H 7.2165 -4.58878 1.78023 0
M  V30 104 N 8.8686 -0.792821 -1.36206 0
M  V30 105 C 10.0936 -0.377701 -2.03932 0
M  V30 106 C 10.5186 0.998947 -1.59382 0
M  V30 107 O 9.8766 1.64421 -0.763903 0
M  V30 108 C 9.9246 -0.453635 -3.57735 0
M  V30 109 O 9.0286 0.538151 -4.08874 0
M  V30 110 H 8.3696 -0.159855 -0.644471 0
M  V30 111 H 10.8996 -1.07488 -1.7409 0
M  V30 112 H 10.9096 -0.318464 -4.06755 0
M  V30 113 H 9.5846 -1.45784 -3.89512 0
M  V30 114 H 8.1616 0.364359 -3.71116 0
M  V30 115 N 10.3467 1.47872 -0.545128 0
M  V30 116 C 11.5867 2.04391 -0.0187854 0
M  V30 117 C 11.9507 1.41162 1.30144 0
M  V30 118 O 13.1517 1.88656 1.91474 0
M  V30 119 C 11.4227 3.57299 0.0850867 0
M  V30 120 S 12.9817 4.35221 0.559302 0
M  V30 121 H 9.7997 0.710737 -0.0193301 0
M  V30 122 H 12.4017 1.81395 -0.729125 0
M  V30 123 H 11.1057 4.00847 -0.880351 0
M  V30 124 H 10.6367 3.84773 0.819348 0
M  V30 125 H 12.6517 4.61571 1.82118 0
M  V30 126 N 11.8248 0.280983 1.55075 0
M  V30 127 C 12.7548 -0.597469 2.25727 0
M  V30 128 C 13.7358 -1.15417 1.24952 0
M  V30 129 O 14.9208 -1.18722 1.53684 0
M  V30 130 C 12.0508 -1.7789 2.98283 0
M  V30 131 C 11.0048 -1.35347 4.06036 0
M  V30 132 C 10.3308 -2.61846 4.66198 0
M  V30 133 C 11.6308 -0.499354 5.19907 0
M  V30 134 H 13.3248 -0.00824265 2.99399 0
M  V30 135 H 10.8708 -0.0025244 1.44 0
M  V30 136 H 12.8238 -2.39937 3.46422 0
M  V30 137 H 11.5478 -2.39405 2.22155 0
M  V30 138 H 10.2068 -0.756156 3.58717 0
M  V30 139 H 9.8548 -3.21632 3.86732 0
M  V30 140 H 9.5548 -2.3409 5.38958 0
M  V30 141 H 11.0788 -3.24732 5.1709 0
M  V30 142 H 12.4928 -1.02498 5.64063 0
M  V30 143 H 10.8898 -0.316424 5.99265 0
M  V30 144 H 11.9598 0.480459 4.82514 0
M  V30 145 N 13.3029 -1.57598 0.00835791 0
M  V30 146 C 14.2659 -2.07884 -0.965242 0
M  V30 147 C 15.2659 -0.989825 -1.26725 0
M  V30 148 O 16.4559 -1.25218 -1.21104 0
M  V30 149 C 13.5879 -2.52731 -2.28779 0
M  V30 150 H 14.7809 -2.95178 -0.530112 0
M  V30 151 H 12.3339 -1.54458 -0.239283 0
M  V30 152 H 13.0689 -1.68705 -2.76964 0
M  V30 153 H 12.8539 -3.32272 -2.08177 0
M  V30 154 H 14.3439 -2.91933 -2.98605 0
M  V30 155 N 14.781 0.264519 -1.55364 0
M  V30 156 C 15.713 1.34965 -1.85248 0
M  V30 157 C 16.726 1.45136 -0.737525 0
M  V30 158 O 17.915 1.46801 -1.01547 0
M  V30 159 C 15.015 2.73008 -2.00797 0
M  V30 160 C 14.188 2.85324 -3.31525 0
M  V30 161 C 13.247 4.04097 -3.37034 0
M  V30 162 O 12.273 3.94455 -4.10358 0
M  V30 163 N 13.475 5.16458 -2.65049 0
M  V30 164 H 16.24 1.09672 -2.78913 0
M  V30 165 H 13.801 0.454635 -1.55386 0
M  V30 166 H 15.793 3.50772 -2.01844 0
M  V30 167 H 14.363 2.91087 -1.1396 0
M  V30 168 H 13.583 1.94377 -3.42945 0
M  V30 169 H 14.871 2.9049 -4.17724 0
M  V30 170 H 14.269 5.27181 -2.05175 0
M  V30 171 H 12.826 5.92422 -2.71809 0
M  V30 172 N 16.2591 1.48442 0.529413 0
M  V30 173 C 17.5051 1.5672 1.28711 0
M  V30 174 C 17.8381 0.2406 1.92704 0
M  V30 175 O 17.1131 -0.753454 1.79313 0
M  V30 176 C 17.3961 2.70587 2.37603 0
M  V30 177 C 17.2491 4.12953 1.78297 0
M  V30 178 C 18.5681 2.80212 3.39366 0
M  V30 179 H 15.6871 0.570474 0.466613 0
M  V30 180 H 18.3291 1.80617 0.589706 0
M  V30 181 H 16.4791 2.50342 2.97088 0
M  V30 182 H 18.1511 4.44639 1.22858 0
M  V30 183 H 16.3941 4.19927 1.0883 0
M  V30 184 H 17.0651 4.88448 2.57144 0
M  V30 185 H 19.5411 2.98553 2.89836 0
M  V30 186 H 18.4171 3.61611 4.12951 0
M  V30 187 H 18.6781 1.88393 3.99951 0
M  V30 188 N 17.7372 -0.778329 1.37039 0
M  V30 189 C 18.6672 -1.90546 1.34962 0
M  V30 190 C 19.6482 -1.68681 0.219274 0
M  V30 191 O 20.8332 -1.89634 0.418624 0
M  V30 192 C 17.9632 -3.27734 1.14925 0
M  V30 193 C 16.9172 -3.64147 2.24902 0
M  V30 194 C 16.2432 -4.99806 1.89996 0
M  V30 195 C 17.5432 -3.71579 3.67051 0
M  V30 196 H 19.2372 -1.92541 2.29277 0
M  V30 197 H 16.7832 -0.924948 1.10366 0
M  V30 198 H 18.7362 -4.06215 1.12104 0
M  V30 199 H 17.4602 -3.26154 0.170631 0
M  V30 200 H 16.1192 -2.8797 2.26868 0
M  V30 201 H 15.7672 -4.94759 0.906796 0
M  V30 202 H 15.4672 -5.25139 2.63634 0
M  V30 203 H 16.9912 -5.80694 1.88749 0
M  V30 204 H 18.4052 -4.40227 3.67251 0
M  V30 205 H 16.8022 -4.08405 4.39688 0
M  V30 206 H 17.8722 -2.72404 4.01154 0
M  V30 207 N 19.2153 -1.21501 -1.00376 0
M  V30 208 C 20.1473 -0.933174 -2.09343 0
M  V30 209 C 21.1603 0.0840896 -1.62583 0
M  V30 210 O 22.3493 -0.148563 -1.77881 0
M  V30 211 C 19.4493 -0.379869 -3.36764 0
M  V30 212 C 18.6223 -1.45176 -4.12605 0
M  V30 213 C 17.6813 -0.907476 -5.18316 0
M  V30 214 O 16.7073 -1.5912 -5.46507 0
M  V30 215 N 17.9093 0.276649 -5.7984 0
M  V30 216 H 20.6743 -1.87124 -2.34104 0
M  V30 217 H 18.2353 -1.12043 -1.16867 0
M  V30 218 H 20.2273 -0.00131488 -4.047 0
M  V30 219 H 18.7973 0.463048 -3.09151 0
M  V30 220 H 18.0173 -2.00411 -3.39454 0
M  V30 221 H 19.3053 -2.17328 -4.6005 0
M  V30 222 H 18.7033 0.849147 -5.59291 0
M  V30 223 H 17.2603 0.596702 -6.49063 0
M  V30 224 N 20.6934 1.19889 -1.02296 0
M  V30 225 C 21.6404 2.22901 -0.598651 0
M  V30 226 C 22.6104 1.61588 0.384521 0
M  V30 227 O 23.7954 1.88697 0.282522 0
M  V30 228 C 20.9354 3.45063 0.0504476 0
M  V30 229 C 20.0484 4.20783 -0.978053 0
M  V30 230 C 19.1834 5.30356 -0.299338 0
M  V30 231 C 18.2224 5.97826 -1.31416 0
M  V30 232 N 17.3594 6.98975 -0.661667 0
M  V30 233 H 22.1994 2.58554 -1.48169 0
M  V30 234 H 19.7364 1.27039 -0.741584 0
M  V30 235 H 21.6944 4.14831 0.443971 0
M  V30 236 H 20.3244 3.10084 0.897097 0
M  V30 237 H 19.3764 3.50018 -1.48969 0
M  V30 238 H 20.6884 4.67109 -1.74958 0
M  V30 239 H 19.8424 6.06516 0.149347 0
M  V30 240 H 18.5814 4.85084 0.504445 0
M  V30 241 H 17.5864 5.20422 -1.77317 0
M  V30 242 H 18.8114 6.45183 -2.11933 0
M  V30 243 H 16.7574 6.55886 0.122132 0
M  V30 244 H 16.6744 7.43461 -1.37117 0
M  V30 245 H 17.9424 7.7914 -0.236785 0
M  V30 246 N 22.1715 0.800033 1.35784 0
M  V30 247 C 23.4485 0.30088 1.93272 0
M  V30 248 C 23.8285 -1.20857 1.73081 0
M  V30 249 O 23.1765 -2.00502 1.09596 0
M  V30 250 C 23.3865 0.70511 3.41803 0
M  V30 251 C 24.7345 0.690871 4.18942 0
M  V30 252 O 25.7585 0.646244 3.50289 0
M  V30 253 O 24.6175 0.74332 5.41421 0
M  V30 254 H 21.7115 0.0771605 0.823393 0
M  V30 255 H 24.2575 0.88329 1.449 0
M  V30 256 H 23.0295 1.74571 3.50201 0
M  V30 257 H 22.6525 0.0971541 3.97481 0
M  V30 258 N 23.6496 -1.47581 0.552962 0
M  V30 259 C 24.8956 -2.02782 0.0273648 0
M  V30 260 C 25.2286 -1.42687 -1.31734 0
M  V30 261 O 24.5036 -0.580897 -1.85623 0
M  V30 262 C 24.7866 -3.60031 -0.0702371 0
M  V30 263 C 24.6396 -4.30566 1.30126 0
M  V30 264 C 25.9586 -4.33028 -0.785771 0
M  V30 265 H 23.0776 -0.736912 0.0114185 0
M  V30 266 H 25.7196 -1.76056 0.714432 0
M  V30 267 H 23.8696 -3.82932 -0.655382 0
M  V30 268 H 25.5416 -4.19018 1.92929 0
M  V30 269 H 23.7846 -3.91086 1.87709 0
M  V30 270 H 24.4556 -5.39114 1.18573 0
M  V30 271 H 26.9316 -4.15095 -0.288982 0
M  V30 272 H 25.8076 -5.42695 -0.823013 0
M  V30 273 H 26.0686 -4.01945 -1.841 0
M  V30 274 N 25.1277 -0.289203 -1.54924 0
M  V30 275 C 26.3757 0.322879 -1.99504 0
M  V30 276 C 26.6967 1.55313 -1.1791 0
M  V30 277 O 25.9667 1.94001 -0.272097 0
M  V30 278 H 24.5467 0.122291 -0.736922 0
M  V30 279 H 27.2087 -0.397802 -1.90797 0
M  V30 280 H 26.3047 0.603061 -3.06218 0
M  V30 281 N 26.6058 1.57591 -0.0167156 0
M  V30 282 C 27.5528 2.09462 0.969251 0
M  V30 283 C 28.5228 0.99381 1.33089 0
M  V30 284 O 29.7078 1.26726 1.42636 0
M  V30 285 C 26.8478 2.61622 2.25051 0
M  V30 286 C 25.9608 3.85666 1.94642 0
M  V30 287 C 25.0958 4.26266 3.16972 0
M  V30 288 C 24.1348 5.43101 2.82326 0
M  V30 289 N 23.2718 5.78915 3.97243 0
M  V30 290 H 28.1118 2.93428 0.519997 0
M  V30 291 H 25.6488 1.45044 0.245087 0
M  V30 292 H 27.6068 2.89949 2.99976 0
M  V30 293 H 26.2368 1.80505 2.67615 0
M  V30 294 H 25.2888 3.64145 1.10013 0
M  V30 295 H 26.6008 4.70678 1.65117 0
M  V30 296 H 25.7548 4.55963 4.00228 0
M  V30 297 H 24.4938 3.39996 3.49648 0
M  V30 298 H 23.4988 5.1311 1.97479 0
M  V30 299 H 24.7238 6.3106 2.50879 0
M  V30 300 H 22.6698 4.95602 4.29785 0
M  V30 301 H 22.5868 6.58539 3.71299 0
M  V30 302 H 23.8548 6.13212 4.81239 0
M  V30 303 N 28.0839 -0.256276 1.55502 0
M  V30 304 C 29.4999 -0.604325 1.47716 0
M  V30 305 C 29.6999 -1.88763 0.705039 0
M  V30 306 O 28.7559 -2.51445 0.230613 0
M  V30 307 C 30.0689 -0.715756 2.92057 0
M  V30 308 C 31.6169 -0.808706 3.02372 0
M  V30 309 C 32.0919 -0.951777 4.48001 0
M  V30 310 N 33.5829 -1.01688 4.519 0
M  V30 311 C 34.3179 -1.14668 5.61817 0
M  V30 312 N 33.8139 -1.24261 6.81565 0
M  V30 313 N 35.6069 -1.1791 5.49594 0
M  V30 314 H 27.7579 0.586291 2.04148 0
M  V30 315 H 30.0209 0.201015 0.926443 0
M  V30 316 H 29.7269 0.157027 3.51349 0
M  V30 317 H 29.6009 -1.59071 3.42018 0
M  V30 318 H 31.9879 -1.67195 2.43166 0
M  V30 319 H 32.0689 0.0912063 2.55637 0
M  V30 320 H 31.7129 -0.0931291 5.07815 0
M  V30 321 H 31.6429 -1.86659 4.92408 0
M  V30 322 H 34.1339 -0.954468 3.65648 0
M  V30 323 H 34.4469 -1.34046 7.61086 0
M  V30 324 H 32.7919 -1.21236 6.84344 0
M  V30 325 H 35.9829 -1.10057 4.54978 0
M  V30 326 H 36.1559 -1.27681 6.35296 0
M  V30 327 N 29.562 -1.4872 -0.521534 0
M  V30 328 C 30.492 -1.66771 -1.63431 0
M  V30 329 C 31.473 -0.516499 -1.62069 0
M  V30 330 O 32.658 -0.750013 -1.79132 0
M  V30 331 C 29.788 -1.71515 -3.01993 0
M  V30 332 C 28.742 -2.86222 -3.18216 0
M  V30 333 C 28.068 -2.76061 -4.57924 0
M  V30 334 C 29.368 -4.27419 -3.00184 0
M  V30 335 H 31.062 -2.59932 -1.48579 0
M  V30 336 H 28.608 -1.25089 -0.713358 0
M  V30 337 H 30.561 -1.82731 -3.7972 0
M  V30 338 H 29.285 -0.749393 -3.17886 0
M  V30 339 H 27.944 -2.74575 -2.42908 0
M  V30 340 H 27.592 -1.77437 -4.70665 0
M  V30 341 H 27.292 -3.53037 -4.69722 0
M  V30 342 H 28.816 -2.89256 -5.37739 0
M  V30 343 H 30.23 -4.39855 -3.67697 0
M  V30 344 H 28.627 -5.05458 -3.2347 0
M  V30 345 H 29.697 -4.43293 -1.96518 0
M  V30 346 N 31.0401 0.771051 -1.3745 0
M  V30 347 C 31.9721 1.89352 -1.29146 0
M  V30 348 C 32.9851 1.61477 -0.207124 0
M  V30 349 O 34.1741 1.72382 -0.463324 0
M  V30 350 C 31.2741 3.24596 -0.974195 0
M  V30 351 C 30.4471 3.80111 -2.16413 0
M  V30 352 C 29.5061 4.93832 -1.81703 0
M  V30 353 O 28.5321 5.09382 -2.54006 0
M  V30 354 N 29.7341 5.75483 -0.761573 0
M  V30 355 H 32.4991 1.96991 -2.25864 0
M  V30 356 H 30.0601 0.950191 -1.31084 0
M  V30 357 H 32.0521 3.98193 -0.722828 0
M  V30 358 H 30.6221 3.12454 -0.0955527 0
M  V30 359 H 29.8421 2.98284 -2.57721 0
M  V30 360 H 31.1301 4.13932 -2.95867 0
M  V30 361 H 30.5281 5.65469 -0.161609 0
M  V30 362 H 29.0851 6.49302 -0.570064 0
M  V30 363 N 32.5182 1.22032 0.997298 0
M  V30 364 C 33.7642 1.04376 1.73878 0
M  V30 365 C 34.0972 -0.420716 1.89588 0
M  V30 366 O 33.3722 -1.31202 1.43583 0
M  V30 367 C 33.6552 1.75047 3.14691 0
M  V30 368 C 33.5082 3.29062 3.06656 0
M  V30 369 C 34.8272 1.49928 4.13775 0
M  V30 370 H 31.9462 0.380578 0.631133 0
M  V30 371 H 34.5882 1.50312 1.16217 0
M  V30 372 H 32.7382 1.35996 3.63919 0
M  V30 373 H 34.4102 3.7753 2.65083 0
M  V30 374 H 32.6532 3.58967 2.43568 0
M  V30 375 H 33.3242 3.73683 4.06282 0
M  V30 376 H 35.8002 1.83842 3.73285 0
M  V30 377 H 34.6762 2.01878 5.10428 0
M  V30 378 H 34.9372 0.430929 4.39995 0
M  V30 379 N 33.9963 -1.19345 1.0293 0
M  V30 380 C 35.2443 -1.88665 0.724574 0
M  V30 381 C 35.5653 -1.80036 -0.749144 0
M  V30 382 O 34.8353 -1.2111 -1.53978 0
M  V30 383 H 33.4153 -0.698406 0.265025 0
M  V30 384 H 36.0773 -1.44885 1.30362 0
M  V30 385 H 35.1733 -2.94987 1.01926 0
M  V30 386 N 35.4744 -0.807222 -1.35358 0
M  V30 387 C 36.4064 -0.175717 -2.28525 0
M  V30 388 C 37.4194 0.625354 -1.5031 0
M  V30 389 O 38.6084 0.457611 -1.72535 0
M  V30 390 C 35.7084 0.773471 -3.29956 0
M  V30 391 C 34.8814 0.0186296 -4.37396 0
M  V30 392 C 33.9404 0.886395 -5.18681 0
M  V30 393 O 32.9664 0.337106 -5.68201 0
M  V30 394 N 34.1684 2.20839 -5.36852 0
M  V30 395 H 36.9334 -0.976091 -2.83359 0
M  V30 396 H 34.4944 -0.662737 -1.47714 0
M  V30 397 H 36.4864 1.35824 -3.81227 0
M  V30 398 H 35.0564 1.47465 -2.75632 0
M  V30 399 H 34.2764 -0.747349 -3.87051 0
M  V30 400 H 35.5644 -0.501577 -5.06322 0
M  V30 401 H 34.9624 2.67858 -4.98265 0
M  V30 402 H 33.5194 2.74237 -5.91301 0
M  V30 403 N 36.9525 1.47285 -0.560781 0
M  V30 404 C 37.8625 2.33846 0.187954 0
M  V30 405 C 38.8785 1.48412 0.908293 0
M  V30 406 O 40.0545 1.81332 0.876388 0
M  V30 407 C 37.1195 3.25178 1.2025 0
M  V30 408 C 36.1805 4.26504 0.489208 0
M  V30 409 C 35.4135 5.13472 1.45542 0
M  V30 410 O 35.6365 5.02959 2.6905 0
M  V30 411 O 34.5705 5.93902 0.977963 0
M  V30 412 H 38.3965 2.99177 -0.522177 0
M  V30 413 H 35.9815 1.45903 -0.321364 0
M  V30 414 H 37.8635 3.81584 1.78805 0
M  V30 415 H 36.5385 2.6247 1.89449 0
M  V30 416 H 35.4455 3.73847 -0.137627 0
M  V30 417 H 36.7785 4.91935 -0.161399 0
M  V30 418 N 38.4306 0.297415 1.54768 0
M  V30 419 C 39.3606 -0.573494 2.26348 0
M  V30 420 C 40.3416 -1.14085 1.26169 0
M  V30 421 O 41.5266 -1.17086 1.54934 0
M  V30 422 C 38.6566 -1.74716 3.00153 0
M  V30 423 C 37.6106 -1.31032 4.07449 0
M  V30 424 C 36.9366 -2.56887 4.68949 0
M  V30 425 C 38.2366 -0.444183 5.20408 0
M  V30 426 H 39.9306 0.0235131 2.99391 0
M  V30 427 H 37.4766 0.0127488 1.43994 0
M  V30 428 H 39.4296 -2.3625 3.48947 0
M  V30 429 H 38.1536 -2.37035 2.24682 0
M  V30 430 H 36.8126 -0.718066 3.59499 0
M  V30 431 H 36.4606 -3.17512 3.90122 0
M  V30 432 H 36.1606 -2.2836 5.41411 0
M  V30 433 H 37.6846 -3.19229 5.20505 0
M  V30 434 H 39.0986 -0.9651 5.65118 0
M  V30 435 H 37.4956 -0.252846 5.99567 0
M  V30 436 H 38.5656 0.531609 4.81977 0
M  V30 437 N 39.9087 -1.5758 0.0250728 0
M  V30 438 C 41.1577 -1.90811 -0.653767 0
M  V30 439 C 41.4707 -0.90273 -1.73523 0
M  V30 440 O 42.6767 -1.12614 -2.47043 0
M  V30 441 C 41.1327 -3.38804 -1.21409 0
M  V30 442 C 40.7407 -4.47692 -0.166126 0
M  V30 443 C 42.4847 -3.81108 -1.86967 0
M  V30 444 C 40.3917 -5.86779 -0.737856 0
M  V30 445 H 39.3217 -0.712063 -0.247956 0
M  V30 446 H 41.9727 -1.83281 0.0897137 0
M  V30 447 H 40.3547 -3.41252 -2.00905 0
M  V30 448 H 41.5287 -4.56797 0.606079 0
M  V30 449 H 39.8437 -4.14565 0.390466 0
M  V30 450 H 42.4407 -4.82375 -2.30692 0
M  V30 451 H 42.7837 -3.15953 -2.71071 0
M  V30 452 H 43.3167 -3.81065 -1.14167 0
M  V30 453 H 40.0557 -6.55468 0.0649577 0
M  V30 454 H 39.5757 -5.81288 -1.47864 0
M  V30 455 H 41.2547 -6.35223 -1.22884 0
M  V30 456 N 41.3868 0.248026 -1.55636 0
M  V30 457 C 42.6638 0.998988 -1.68165 0
M  V30 458 C 43.0438 2.03409 -0.564621 0
M  V30 459 O 42.3918 2.24378 0.432076 0
M  V30 460 C 42.6018 1.63334 -3.0842 0
M  V30 461 C 43.9498 2.13562 -3.66983 0
M  V30 462 O 44.9738 1.73277 -3.11213 0
M  V30 463 O 43.8328 2.87526 -4.64749 0
M  V30 464 H 40.9268 0.464933 -0.683935 0
M  V30 465 H 43.4728 0.241902 -1.67967 0
M  V30 466 H 42.2448 0.884583 -3.8117 0
M  V30 467 H 41.8678 2.45666 -3.12624 0
M  V30 468 N 42.8649 1.48995 0.513639 0
M  V30 469 C 44.0949 1.61297 1.291 0
M  V30 470 C 44.5029 0.278656 1.87137 0
M  V30 471 O 43.8459 -0.744325 1.67945 0
M  V30 472 C 43.9079 2.61326 2.46879 0
M  V30 473 C 43.5719 4.05993 2.09807 0
M  V30 474 C 44.5689 4.93183 1.64519 0
M  V30 475 C 42.2539 4.51642 2.19829 0
M  V30 476 C 44.2479 6.24056 1.2974 0
M  V30 477 C 41.9349 5.82532 1.84662 0
M  V30 478 C 42.9329 6.68562 1.3969 0
M  V30 479 O 42.6209 7.97014 1.04992 0
M  V30 480 H 42.3529 0.546236 0.39825 0
M  V30 481 H 44.9069 1.95673 0.62459 0
M  V30 482 H 43.1369 2.22104 3.16554 0
M  V30 483 H 44.8259 2.6329 3.08923 0
M  V30 484 H 45.5919 4.59147 1.56233 0
M  V30 485 H 41.4709 3.84855 2.53786 0
M  V30 486 H 45.0149 6.91161 0.945659 0
M  V30 487 H 40.9119 6.16099 1.92594 0
M  V30 488 H 41.6799 8.09913 1.18249 0
M  V30 489 N 44.343 -0.763751 1.37857 0
M  V30 490 C 45.59 -1.52257 1.33506 0
M  V30 491 C 45.918 -1.94343 -0.078022 0
M  V30 492 O 45.173 -1.64958 -1.05297 0
M  V30 493 C 45.472 -2.79499 2.22745 0
M  V30 494 C 45.138 -2.56426 3.70886 0
M  V30 495 C 43.8 -2.49842 4.11257 0
M  V30 496 C 46.152 -2.36008 4.64704 0
M  V30 497 C 43.48 -2.20841 5.43549 0
M  V30 498 C 45.832 -2.0853 5.97242 0
M  V30 499 C 44.496 -2.00396 6.36709 0
M  V30 500 H 43.766 -0.557149 0.488534 0
M  V30 501 H 46.413 -0.879073 1.70131 0
M  V30 502 H 44.718 -3.48447 1.79142 0
M  V30 503 H 46.415 -3.37413 2.16688 0
M  V30 504 H 43.005 -2.62416 3.38874 0
M  V30 505 H 47.189 -2.40079 4.34368 0
M  V30 506 H 42.445 -2.13045 5.73081 0
M  V30 507 H 46.619 -1.91732 6.69486 0
M  V30 508 H 44.246 -1.77688 7.39142 0
M  V30 509 N 45.8211 -1.22559 -0.990812 0
M  V30 510 C 47.0461 -1.07862 -1.77145 0
M  V30 511 C 47.4711 0.366447 -1.84496 0
M  V30 512 O 46.8291 1.26478 -1.29896 0
M  V30 513 C 46.8771 -1.69686 -3.18181 0
M  V30 514 O 45.9811 -0.951946 -4.01263 0
M  V30 515 H 45.3221 -0.378712 -0.545411 0
M  V30 516 H 47.8521 -1.62399 -1.2445 0
M  V30 517 H 47.8621 -1.74496 -3.68802 0
M  V30 518 H 46.5371 -2.74841 -3.12146 0
M  V30 519 H 45.1141 -0.980011 -3.59792 0
M  V30 520 N 47.2992 1.18797 -1.03562 0
M  V30 521 C 48.5762 1.84469 -0.650434 0
M  V30 522 C 48.9562 1.92319 0.870433 0
M  V30 523 O 48.3042 1.44528 1.76986 0
M  V30 524 C 48.5142 3.2306 -1.32036 0
M  V30 525 C 49.8622 3.9915 -1.44792 0
M  V30 526 O 50.8862 3.32481 -1.27806 0
M  V30 527 O 49.7452 5.18587 -1.72423 0
M  V30 528 H 46.8392 0.795251 -0.226946 0
M  V30 529 H 49.3852 1.26231 -1.13419 0
M  V30 530 H 48.1572 3.1222 -2.3587 0
M  V30 531 H 47.7802 3.88949 -0.8249 0
M  V30 532 N 48.7773 0.814389 1.34928 0
M  V30 533 C 49.7243 0.22822 2.29669 0
M  V30 534 C 50.6943 -0.642164 1.53184 0
M  V30 535 O 51.8793 -0.585605 1.81591 0
M  V30 536 C 49.0193 -0.61089 3.3965 0
M  V30 537 C 48.1323 0.280792 4.31086 0
M  V30 538 C 47.2673 -0.567067 5.28165 0
M  V30 539 C 46.3063 0.324531 6.11239 0
M  V30 540 N 45.4433 -0.483756 7.00431 0
M  V30 541 H 50.2833 1.04153 2.79206 0
M  V30 542 H 47.8203 0.525133 1.37407 0
M  V30 543 H 49.7783 -1.11263 4.0209 0
M  V30 544 H 48.4083 -1.38939 2.91369 0
M  V30 545 H 47.4603 0.900688 3.69583 0
M  V30 546 H 48.7723 0.966723 4.89342 0
M  V30 547 H 47.9263 -1.13363 5.96015 0
M  V30 548 H 46.6653 -1.28654 4.70425 0
M  V30 549 H 45.6703 0.903298 5.42329 0
M  V30 550 H 46.8953 1.04198 6.71059 0
M  V30 551 H 44.8413 -1.18706 6.45171 0
M  V30 552 H 44.7583 0.143965 7.55863 0
M  V30 553 H 46.0263 -1.03334 7.7262 0
M  V30 554 N 50.2554 -1.46986 0.568584 0
M  V30 555 C 51.1874 -2.28233 -0.210337 0
M  V30 556 C 52.2004 -1.37682 -0.868767 0
M  V30 557 O 53.3894 -1.62406 -0.740705 0
M  V30 558 C 50.4894 -3.12293 -1.3163 0
M  V30 559 C 49.6624 -4.30878 -0.7525 0
M  V30 560 C 48.7214 -4.96445 -1.74439 0
M  V30 561 O 47.7474 -5.54482 -1.286 0
M  V30 562 N 48.9494 -4.92171 -3.07812 0
M  V30 563 H 51.7144 -2.95723 0.486648 0
M  V30 564 H 49.2754 -1.56742 0.405409 0
M  V30 565 H 51.2674 -3.53022 -1.97883 0
M  V30 566 H 49.8374 -2.46971 -1.91636 0
M  V30 567 H 49.0574 -3.94104 0.0871128 0
M  V30 568 H 50.3454 -5.07558 -0.35536 0
M  V30 569 H 49.7434 -4.46239 -3.47688 0
M  V30 570 H 48.3004 -5.36884 -3.69592 0
M  V30 571 N 51.7335 -0.305618 -1.54608 0
M  V30 572 C 52.6805 0.568421 -2.23691 0
M  V30 573 C 53.6505 1.12592 -1.22116 0
M  V30 574 O 54.8355 1.16959 -1.50749 0
M  V30 575 C 51.9755 1.7322 -2.98477 0
M  V30 576 C 51.0885 1.20566 -4.14835 0
M  V30 577 C 50.2235 2.33368 -4.77193 0
M  V30 578 C 49.2625 1.7787 -5.85686 0
M  V30 579 N 48.3995 2.84263 -6.4198 0
M  V30 580 H 53.2395 -0.0272867 -2.97988 0
M  V30 581 H 50.7765 -0.0252363 -1.47078 0
M  V30 582 H 52.7345 2.41675 -3.40072 0
M  V30 583 H 51.3645 2.29947 -2.26548 0
M  V30 584 H 50.4165 0.413223 -3.78149 0
M  V30 585 H 51.7285 0.759417 -4.92985 0
M  V30 586 H 50.8825 3.09761 -5.21664 0
M  V30 587 H 49.6215 2.8132 -3.98385 0
M  V30 588 H 48.6265 0.99968 -5.40635 0
M  V30 589 H 49.8515 1.30816 -6.66381 0
M  V30 590 H 47.7975 3.31541 -5.66053 0
M  V30 591 H 47.7145 2.44149 -7.15491 0
M  V30 592 H 48.9825 3.6054 -6.91109 0
M  V30 593 N 53.2116 1.57565 -0.0334293 0
M  V30 594 C 54.4366 1.96689 0.657895 0
M  V30 595 C 54.8616 0.910057 1.64619 0
M  V30 596 O 54.2196 -0.128598 1.80843 0
M  V30 597 C 54.2676 3.34905 1.33683 0
M  V30 598 O 53.3716 3.31574 2.45219 0
M  V30 599 H 52.7126 0.641205 0.172489 0
M  V30 600 H 55.2426 2.04372 -0.0965621 0
M  V30 601 H 55.2526 3.71234 1.69262 0
M  V30 602 H 53.9276 4.11366 0.612411 0
M  V30 603 H 52.5046 3.06968 2.11719 0
M  V30 604 N 54.6897 -0.239769 1.55765 0
M  V30 605 C 55.6527 -1.28038 1.90103 0
M  V30 606 C 56.6527 -1.40723 0.778055 0
M  V30 607 O 57.8427 -1.39301 1.04599 0
M  V30 608 C 54.9747 -2.65702 2.13577 0
M  V30 609 H 56.1677 -0.988048 2.83157 0
M  V30 610 H 53.7207 -0.479382 1.48767 0
M  V30 611 H 54.4557 -3.00063 1.23015 0
M  V30 612 H 54.2407 -2.57875 2.95369 0
M  V30 613 H 55.7307 -3.40828 2.41301 0
M  V30 614 N 56.1678 -1.49265 -0.50573 0
M  V30 615 C 57.4448 -1.49012 -1.26707 0
M  V30 616 C 57.8248 -0.215205 -2.1 0
M  V30 617 O 57.1728 0.802547 -2.13943 0
M  V30 618 C 57.3828 -2.7663 -2.12783 0
M  V30 619 C 58.7308 -3.25932 -2.72127 0
M  V30 620 O 59.7548 -2.77715 -2.23054 0
M  V30 621 O 58.6138 -4.09897 -3.61451 0
M  V30 622 H 55.7078 -0.596197 -0.57313 0
M  V30 623 H 58.2538 -1.61524 -0.52039 0
M  V30 624 H 57.0258 -3.60916 -1.5118 0
M  V30 625 H 56.6488 -2.66956 -2.94653 0
M  V30 626 N 57.6459 0.756429 -1.3826 0
M  V30 627 C 58.5759 1.88374 -1.37976 0
M  V30 628 C 59.5569 1.68311 -0.246082 0
M  V30 629 O 60.7419 1.88944 -0.44874 0
M  V30 630 C 57.8719 3.25864 -1.20125 0
M  V30 631 C 56.8259 3.60523 -2.30666 0
M  V30 632 C 56.1519 4.9672 -1.97923 0
M  V30 633 C 57.4519 3.65692 -3.72916 0
M  V30 634 H 59.1459 1.88869 -2.32312 0
M  V30 635 H 56.6919 0.907272 -1.11824 0
M  V30 636 H 58.6449 4.0438 -1.18552 0
M  V30 637 H 57.3689 3.25841 -0.222498 0
M  V30 638 H 56.0279 2.84324 -2.3142 0
M  V30 639 H 55.6759 4.93253 -0.985393 0
M  V30 640 H 55.3759 5.20878 -2.71955 0
M  V30 641 H 56.8999 5.77618 -1.97964 0
M  V30 642 H 58.3139 4.34328 -3.74208 0
M  V30 643 H 56.7109 4.01358 -4.4613 0
M  V30 644 H 57.7809 2.65987 -4.05436 0
M  V30 645 N 59.124 1.23083 0.984299 0
M  V30 646 C 60.034 1.02515 2.11016 0
M  V30 647 C 61.05 -0.0291702 1.73976 0
M  V30 648 O 62.226 0.165434 2.00719 0
M  V30 649 C 59.291 0.614673 3.41208 0
M  V30 650 C 58.352 1.74359 3.92297 0
M  V30 651 C 57.585 1.35261 5.16275 0
M  V30 652 O 57.808 0.235136 5.69915 0
M  V30 653 O 56.742 2.17227 5.61334 0
M  V30 654 H 60.568 1.96862 2.31255 0
M  V30 655 H 58.153 1.01753 1.09392 0
M  V30 656 H 60.035 0.396518 4.1953 0
M  V30 657 H 58.71 -0.299851 3.22308 0
M  V30 658 H 57.617 2.01635 3.1511 0
M  V30 659 H 58.95 2.63629 4.15645 0
M  V30 660 N 60.6021 -1.18246 1.0419 0
M  V30 661 C 61.5521 -2.19843 0.604392 0
M  V30 662 C 62.5361 -1.56962 -0.353814 0
M  V30 663 O 63.7281 -1.76156 -0.17267 0
M  V30 664 C 60.8571 -3.43287 -0.0298975 0
M  V30 665 C 59.9431 -4.13288 0.951531 0
M  V30 666 N 60.3341 -4.59271 2.11906 0
M  V30 667 C 58.6321 -4.39165 0.7778 0
M  V30 668 C 59.3331 -5.13173 2.73912 0
M  V30 669 N 58.3091 -5.04763 2.01779 0
M  V30 670 H 62.1111 -2.53089 1.4941 0
M  V30 671 H 59.6251 -1.34465 0.910658 0
M  V30 672 H 61.6221 -4.15334 -0.361037 0
M  V30 673 H 60.2821 -3.11537 -0.915127 0
M  V30 674 H 61.2931 -4.5368 2.49789 0
M  V30 675 H 57.9701 -4.17461 -0.0572331 0
M  V30 676 H 59.3601 -5.58947 3.72864 0
M  V30 677 N 62.0802 -0.821533 -1.34494 0
M  V30 678 C 63.3572 -0.33159 -1.92769 0
M  V30 679 C 63.7372 1.18088 -1.74981 0
M  V30 680 O 63.0852 1.98733 -1.12772 0
M  V30 681 C 63.2952 -0.759398 -3.40638 0
M  V30 682 C 64.6432 -0.757433 -4.1779 0
M  V30 683 O 65.6672 -0.70189 -3.49216 0
M  V30 684 O 64.5262 -0.829361 -5.4017 0
M  V30 685 H 61.6202 -0.0902502 -0.822061 0
M  V30 686 H 64.1662 -0.906231 -1.43477 0
M  V30 687 H 62.9382 -1.8012 -3.47379 0
M  V30 688 H 62.5612 -0.160378 -3.97276 0
M  V30 689 N 63.5583 1.46682 -0.576371 0
M  V30 690 C 64.4903 2.28341 0.198231 0
M  V30 691 C 65.5033 1.38141 0.861453 0
M  V30 692 O 66.6923 1.62797 0.732082 0
M  V30 693 C 63.7923 3.12986 1.29972 0
M  V30 694 C 62.9653 4.31271 0.729639 0
M  V30 695 C 62.0243 4.97363 1.71803 0
M  V30 696 O 61.0503 5.55156 1.25658 0
M  V30 697 N 62.2523 4.93796 3.05198 0
M  V30 698 H 65.0173 2.9546 -0.502324 0
M  V30 699 H 62.5783 1.56525 -0.413715 0
M  V30 700 H 64.5703 3.54066 1.96008 0
M  V30 701 H 63.1403 2.47984 1.90323 0
M  V30 702 H 62.3603 3.94052 -0.108012 0
M  V30 703 H 63.6483 5.07739 0.328438 0
M  V30 704 H 63.0463 4.48077 3.45317 0
M  V30 705 H 61.6033 5.38837 3.6674 0
M  V30 706 N 65.0364 0.313813 1.54444 0
M  V30 707 C 66.2644 -0.293918 2.04802 0
M  V30 708 C 66.6794 -1.46537 1.19047 0
M  V30 709 O 66.0364 -1.81182 0.218939 0
M  V30 710 C 66.0874 -0.737806 3.53891 0
M  V30 711 O 65.8084 0.387038 4.36387 0
M  V30 712 C 67.3094 -1.40936 4.203 0
M  V30 713 H 64.5294 -0.0620057 0.668129 0
M  V30 714 H 67.0734 0.457169 1.99324 0
M  V30 715 H 65.2284 -1.43889 3.59687 0
M  V30 716 H 65.6424 0.0391274 5.24485 0
M  V30 717 H 67.1164 -1.67099 5.26101 0
M  V30 718 H 67.5934 -2.35355 3.70816 0
M  V30 719 H 68.1994 -0.751117 4.18615 0
M  V30 720 N 66.5145 -1.57545 0.0417849 0
M  V30 721 C 67.4475 -2.06514 -0.970928 0
M  V30 722 C 68.4255 -0.963607 -1.30971 0
M  V30 723 O 69.6095 -1.23486 -1.4242 0
M  V30 724 C 66.7365 -2.4978 -2.28752 0
M  V30 725 C 65.7825 -3.71078 -2.10246 0
M  V30 726 S 66.6155 -5.17158 -1.38952 0
M  V30 727 C 67.7715 -5.6373 -2.71954 0
M  V30 728 H 68.0045 -2.9209 -0.554129 0
M  V30 729 H 65.5375 -1.53459 -0.17024 0
M  V30 730 H 67.4955 -2.75371 -3.04435 0
M  V30 731 H 66.1565 -1.64527 -2.67562 0
M  V30 732 H 65.3495 -3.9924 -3.07609 0
M  V30 733 H 64.9515 -3.45705 -1.42704 0
M  V30 734 H 67.2435 -5.68743 -3.68154 0
M  V30 735 H 68.1865 -6.63086 -2.4844 0
M  V30 736 H 68.5945 -4.91424 -2.77782 0
M  V30 737 N 67.9926 0.231505 -1.5589 0
M  V30 738 C 68.9226 1.29022 -1.94617 0
M  V30 739 C 69.9036 1.4941 -0.813067 0
M  V30 740 O 71.0886 1.6176 -1.07459 0
M  V30 741 C 68.2186 2.64199 -2.25424 0
M  V30 742 C 67.1726 2.58484 -3.41131 0
M  V30 743 C 66.4986 3.97599 -3.57518 0
M  V30 744 C 67.7986 2.1413 -4.76388 0
M  V30 745 H 69.4926 0.968563 -2.83301 0
M  V30 746 H 67.0386 0.464479 -1.36303 0
M  V30 747 H 68.9916 3.38413 -2.51107 0
M  V30 748 H 67.7156 2.98032 -1.33583 0
M  V30 749 H 66.3746 1.86727 -3.15481 0
M  V30 750 H 66.0226 4.28723 -2.6307 0
M  V30 751 H 65.7226 3.94659 -4.35337 0
M  V30 752 H 67.2466 4.7349 -3.85538 0
M  V30 753 H 68.6606 2.78083 -5.01341 0
M  V30 754 H 67.0576 2.2227 -5.57419 0
M  V30 755 H 68.1276 1.09331 -4.72414 0
M  V30 756 N 69.4707 1.49531 0.497807 0
M  V30 757 C 70.7477 1.49682 1.25915 0
M  V30 758 C 71.1277 0.226339 2.09883 0
M  V30 759 O 70.4757 -0.791189 2.14365 0
M  V30 760 C 70.6857 2.77755 2.11313 0
M  V30 761 C 72.0337 3.27371 2.70395 0
M  V30 762 O 73.0577 2.78894 2.21578 0
M  V30 763 O 71.9167 4.11808 3.59272 0
M  V30 764 H 69.0107 0.599228 0.56996 0
M  V30 765 H 71.5567 1.61798 0.511816 0
M  V30 766 H 70.3287 3.61713 1.49264 0
M  V30 767 H 69.9517 2.68515 2.93233 0
M  V30 768 N 70.9488 -0.749086 1.3866 0
M  V30 769 C 71.8958 -1.86291 1.36251 0
M  V30 770 C 72.8658 -1.64578 0.224347 0
M  V30 771 O 74.0508 -1.86181 0.417279 0
M  V30 772 C 71.1908 -3.23644 1.19786 0
M  V30 773 C 70.3038 -3.57158 2.43027 0
M  V30 774 C 69.4388 -4.83838 2.19258 0
M  V30 775 C 68.4778 -5.10152 3.38247 0
M  V30 776 N 67.6148 -6.28029 3.13884 0
M  V30 777 H 72.4548 -1.87685 2.3147 0
M  V30 778 H 69.9918 -0.917287 1.14997 0
M  V30 779 H 71.9498 -4.0291 1.08254 0
M  V30 780 H 70.5798 -3.21566 0.282031 0
M  V30 781 H 69.6318 -2.72701 2.65214 0
M  V30 782 H 70.9438 -3.7253 3.31697 0
M  V30 783 H 70.0978 -5.71057 2.04888 0
M  V30 784 H 68.8368 -4.70614 1.2796 0
M  V30 785 H 67.8418 -4.21401 3.53131 0
M  V30 786 H 69.0668 -5.25271 4.30427 0
M  V30 787 H 67.0128 -6.1612 2.25238 0
M  V30 788 H 66.9298 -6.43922 3.96106 0
M  V30 789 H 68.1978 -7.18124 3.03179 0
M  V30 790 N 72.4269 -1.23603 -0.977757 0
M  V30 791 C 73.3569 -1.04401 -2.0886 0
M  V30 792 C 74.3379 0.0399052 -1.70053 0
M  V30 793 O 75.5229 -0.125246 -1.93796 0
M  V30 794 C 72.6529 -0.637269 -3.41403 0
M  V30 795 C 71.6069 -1.66883 -3.94124 0
M  V30 796 C 70.9329 -1.11745 -5.22893 0
M  V30 797 C 72.2329 -3.06247 -4.23096 0
M  V30 798 H 73.9269 -1.97316 -2.25182 0
M  V30 799 H 71.4729 -0.950096 -1.08209 0
M  V30 800 H 73.4259 -0.48998 -4.18542 0
M  V30 801 H 72.1499 0.327557 -3.24953 0
M  V30 802 H 70.8089 -1.80416 -3.19133 0
M  V30 803 H 70.4569 -0.143527 -5.02795 0
M  V30 804 H 70.1569 -1.80672 -5.59134 0
M  V30 805 H 71.6809 -0.982067 -6.02651 0
M  V30 806 H 73.0949 -2.96001 -4.90975 0
M  V30 807 H 71.4919 -3.72436 -4.70544 0
M  V30 808 H 72.5619 -3.55041 -3.30263 0
M  V30 809 N 73.905 1.17692 -1.04816 0
M  V30 810 C 75.151 1.88137 -0.75711 0
M  V30 811 C 75.484 1.80604 0.713841 0
M  V30 812 O 74.759 1.21146 1.52164 0
M  V30 813 C 75.042 3.38318 -1.2334 0
M  V30 814 C 74.895 3.54622 -2.76701 0
M  V30 815 C 76.214 4.32214 -0.829415 0
M  V30 816 H 73.333 0.683163 -0.27651 0
M  V30 817 H 75.975 1.38424 -1.30149 0
M  V30 818 H 74.125 3.80787 -0.770286 0
M  V30 819 H 75.797 3.21194 -3.31107 0
M  V30 820 H 74.04 2.97026 -3.16161 0
M  V30 821 H 74.711 4.60028 -3.05088 0
M  V30 822 H 77.187 3.97565 -1.22805 0
M  V30 823 H 76.063 5.35838 -1.19033 0
M  V30 824 H 76.324 4.41294 0.266891 0
M  V30 825 N 75.3831 0.828654 1.34056 0
M  V30 826 C 76.6601 0.341809 1.9259 0
M  V30 827 C 77.0401 -1.17158 1.75605 0
M  V30 828 O 76.3881 -1.98132 1.13824 0
M  V30 829 C 76.5981 0.777453 3.4023 0
M  V30 830 C 77.9461 0.779579 4.17382 0
M  V30 831 O 78.9701 0.7204 3.48839 0
M  V30 832 O 77.8291 0.857996 5.39723 0
M  V30 833 H 74.9231 0.0946085 0.821571 0
M  V30 834 H 77.4691 0.913827 1.42994 0
M  V30 835 H 76.2411 1.8196 3.46419 0
M  V30 836 H 75.8641 0.181444 3.97186 0
M  V30 837 N 76.8612 -1.46375 0.584142 0
M  V30 838 C 78.1092 -2.01978 0.0701287 0
M  V30 839 C 78.4302 -1.4579 -1.295 0
M  V30 840 O 77.7002 -0.64314 -1.85042 0
M  V30 841 H 76.2802 -0.746648 0.0229345 0
M  V30 842 H 78.9422 -1.79461 0.760245 0
M  V30 843 H 78.0382 -3.121 0.0022064 0
M  V30 844 N 78.3393 -0.321999 -1.54275 0
M  V30 845 C 79.2693 0.537411 -2.27231 0
M  V30 846 C 80.2503 1.12064 -1.27968 0
M  V30 847 O 81.4353 1.14606 -1.56777 0
M  V30 848 C 78.5653 1.69919 -3.02894 0
M  V30 849 C 77.5193 1.24534 -4.09482 0
M  V30 850 C 76.8453 2.49394 -4.72977 0
M  V30 851 C 78.1453 0.361335 -5.21049 0
M  V30 852 H 79.8393 -0.0711406 -2.99315 0
M  V30 853 H 77.3853 -0.0356555 -1.43956 0
M  V30 854 H 79.3383 2.30668 -3.52662 0
M  V30 855 H 78.0623 2.33431 -2.28424 0
M  V30 856 H 76.7213 0.660782 -3.60596 0
M  V30 857 H 76.3693 3.11265 -3.95124 0
M  V30 858 H 76.0693 2.19718 -5.44975 0
M  V30 859 H 77.5933 3.10908 -5.25517 0
M  V30 860 H 79.0073 0.875072 -5.66582 0
M  V30 861 H 77.4043 0.157428 -5.99893 0
M  V30 862 H 78.4743 -0.60822 -4.8107 0
M  V30 863 N 79.8174 1.5752 -0.0501392 0
M  V30 864 C 80.7804 2.1037 0.909786 0
M  V30 865 C 81.7804 1.02308 1.24056 0
M  V30 866 O 82.9704 1.28385 1.17741 0
M  V30 867 C 80.1024 2.58708 2.21998 0
M  V30 868 H 81.2954 2.96479 0.451665 0
M  V30 869 H 78.8484 1.55038 0.198248 0
M  V30 870 H 79.5834 1.75989 2.72394 0
M  V30 871 H 79.3684 3.37675 1.99295 0
M  V30 872 H 80.8584 2.99747 2.9076 0
M  V30 873 N 81.2955 -0.223234 1.56011 0
M  V30 874 C 82.5235 -0.964812 1.83027 0
M  V30 875 C 82.9385 -1.78013 0.62904 0
M  V30 876 O 82.2955 -1.78008 -0.402414 0
M  V30 877 C 82.3465 -1.88373 3.08542 0
M  V30 878 O 82.0675 -1.10137 4.2403 0
M  V30 879 C 83.5685 -2.73934 3.48533 0
M  V30 880 H 80.7885 -0.282842 0.608475 0
M  V30 881 H 83.3325 -0.238971 2.03099 0
M  V30 882 H 81.4875 -2.56354 2.9045 0
M  V30 883 H 81.9015 -1.72501 4.95322 0
M  V30 884 H 83.3755 -3.34117 4.39397 0
M  V30 885 H 83.8525 -3.46244 2.70207 0
M  V30 886 H 84.4585 -2.11369 3.69057 0
M  V30 887 N 82.7736 -1.49793 -0.48987 0
M  V30 888 C 83.9986 -1.63836 -1.27172 0
M  V30 889 C 84.4236 -0.31402 -1.8546 0
M  V30 890 O 83.7816 0.719803 -1.66399 0
M  V30 891 C 83.8296 -2.71797 -2.36978 0
M  V30 892 O 82.9336 -2.31744 -3.41128 0
M  V30 893 H 82.2746 -0.547997 -0.37496 0
M  V30 894 H 84.8046 -1.96053 -0.585191 0
M  V30 895 H 84.8146 -2.94305 -2.82575 0
M  V30 896 H 83.4896 -3.67923 -1.93921 0
M  V30 897 H 82.0666 -2.1961 -3.01373 0
M  V30 898 N 84.2517 0.741722 -1.39055 0
M  V30 899 C 85.4977 1.50234 -1.37118 0
M  V30 900 C 85.8527 1.92368 0.0350439 0
M  V30 901 O 85.1457 1.63422 1.00019 0
M  V30 902 C 85.3397 2.7592 -2.27163 0
M  V30 903 C 85.1687 2.46074 -3.76401 0
M  V30 904 C 83.9387 2.38704 -4.45364 0
M  V30 905 C 86.1367 2.12062 -4.68545 0
M  V30 906 N 84.1187 2.01258 -5.79973 0
M  V30 907 C 85.4897 1.85005 -5.91754 0
M  V30 908 C 87.5447 1.98473 -4.56632 0
M  V30 909 C 86.2477 1.4573 -7.04383 0
M  V30 910 C 88.2737 1.60599 -5.69176 0
M  V30 911 C 87.6357 1.34423 -6.91455 0
M  V30 912 H 83.7347 0.548858 -0.557027 0
M  V30 913 H 86.3187 0.862642 -1.74547 0
M  V30 914 H 84.4897 3.3768 -1.91904 0
M  V30 915 H 86.2217 3.42068 -2.16267 0
M  V30 916 H 82.9767 2.55574 -3.98721 0
M  V30 917 H 83.4007 1.85147 -6.51191 0
M  V30 918 H 88.0427 2.17381 -3.62637 0
M  V30 919 H 85.7607 1.25562 -7.98286 0
M  V30 920 H 89.3467 1.507 -5.61944 0
M  V30 921 H 88.2267 1.05555 -7.77064 0
M  V30 922 N 85.7298 1.2412 0.971189 0
M  V30 923 C 86.9758 1.08041 1.71625 0
M  V30 924 C 87.3088 -0.380407 1.90438 0
M  V30 925 O 86.5838 -1.28127 1.46334 0
M  V30 926 C 86.8668 1.81682 3.10908 0
M  V30 927 C 86.7198 3.35493 2.99608 0
M  V30 928 C 88.0388 1.58671 4.10501 0
M  V30 929 H 85.1578 0.39388 0.622919 0
M  V30 930 H 87.7998 1.52743 1.13003 0
M  V30 931 H 85.9498 1.43684 3.60953 0
M  V30 932 H 87.6218 3.83068 2.57015 0
M  V30 933 H 85.8648 3.64052 2.35899 0
M  V30 934 H 86.5358 3.82217 3.98264 0
M  V30 935 H 89.0118 1.91719 3.69301 0
M  V30 936 H 87.8878 2.1266 5.06031 0
M  V30 937 H 88.1488 0.524161 4.38982 0
M  V30 938 N 87.2079 -1.17134 1.05439 0
M  V30 939 C 88.1559 -2.23289 0.651511 0
M  V30 940 C 89.1499 -1.66186 -0.328411 0
M  V30 941 O 90.3559 -1.78949 -0.194206 0
M  V30 942 H 86.7309 -0.726938 0.192523 0
M  V30 943 H 88.7019 -2.54565 1.55689 0
M  V30 944 C 87.4509 -3.47671 0.0448436 0
M  V30 945 H 86.7739 -3.91918 0.78996 0
M  V30 946 H 88.2139 -4.2353 -0.19964 0
M  V30 947 C 86.6729 -3.14453 -1.20918 0
M  V30 948 O 87.2029 -3.29459 -2.29825 0
M  V30 949 N 85.4089 -2.68657 -1.10779 0
M  V30 950 H 84.9559 -2.56646 -0.221526 0
M  V30 951 H 84.9139 -2.46804 -1.9477 0
M  V30 952 N 88.686 -0.835752 -1.33615 0
M  V30 953 C 89.911 -0.442389 -2.02627 0
M  V30 954 C 90.336 0.947735 -1.62479 0
M  V30 955 O 89.694 1.61907 -0.815826 0
M  V30 956 C 89.742 -0.567216 -3.56111 0
M  V30 957 O 88.846 0.407799 -4.10379 0
M  V30 958 H 88.187 -0.180278 -0.639059 0
M  V30 959 H 90.717 -1.12972 -1.70583 0
M  V30 960 H 90.727 -0.447708 -4.05536 0
M  V30 961 H 89.402 -1.58103 -3.84677 0
M  V30 962 H 87.979 0.246107 -3.72087 0
M  V30 963 N 90.1641 1.46063 -0.591896 0
M  V30 964 C 91.3891 2.07226 -0.0850314 0
M  V30 965 C 91.8141 1.43625 1.21463 0
M  V30 966 O 91.1721 0.523305 1.73583 0
M  V30 967 C 91.2201 3.60554 0.0576567 0
M  V30 968 O 90.3241 3.97128 1.11188 0
M  V30 969 H 89.6651 0.660615 -0.0669568 0
M  V30 970 H 92.1951 1.8756 -0.81745 0
M  V30 971 H 92.2051 4.07165 0.2609 0
M  V30 972 H 90.8801 4.06235 -0.891416 0
M  V30 973 H 89.4571 3.62213 0.886356 0
M  V30 974 N 91.6422 0.330177 1.54103 0
M  V30 975 C 92.5902 -0.548226 2.26047 0
M  V30 976 C 93.5842 -1.11309 1.27698 0
M  V30 977 O 94.7902 -1.06036 1.45452 0
M  V30 978 H 91.1652 -0.195456 0.726155 0
M  V30 979 H 93.1362 0.0807567 2.98291 0
M  V30 980 C 91.8852 -1.69415 3.03634 0
M  V30 981 H 91.2082 -1.26876 3.79134 0
M  V30 982 H 92.6482 -2.28423 3.5721 0
M  V30 983 C 91.1072 -2.61569 2.12328 0
M  V30 984 O 91.6372 -3.63462 1.7105 0
M  V30 985 N 89.8432 -2.29952 1.77681 0
M  V30 986 H 89.3902 -1.47134 2.11446 0
M  V30 987 H 89.3482 -2.91871 1.16869 0
M  V30 988 N 93.1203 -1.57491 0.0584922 0
M  V30 989 C 94.3503 -1.9701 -0.622134 0
M  V30 990 C 94.7583 -0.935034 -1.6448 0
M  V30 991 O 94.1013 0.0882904 -1.83488 0
M  V30 992 C 94.1633 -3.32794 -1.35972 0
M  V30 993 C 93.8273 -4.54343 -0.492043 0
M  V30 994 C 94.8243 -5.19323 0.244901 0
M  V30 995 C 92.5093 -5.00534 -0.420821 0
M  V30 996 C 94.5033 -6.28835 1.04143 0
M  V30 997 C 92.1903 -6.09921 0.379389 0
M  V30 998 C 93.1883 -6.73933 1.10919 0
M  V30 999 O 92.8763 -7.81216 1.89623 0
M  V30 1000 H 92.6083 -0.653127 -0.174359 0
M  V30 1001 H 95.1623 -2.05029 0.123418 0
M  V30 1002 H 93.3923 -3.21351 -2.15105 0
M  V30 1003 H 95.0813 -3.5701 -1.93129 0
M  V30 1004 H 95.8473 -4.8459 0.19939 0
M  V30 1005 H 91.7263 -4.50496 -0.978474 0
M  V30 1006 H 95.2703 -6.7873 1.61157 0
M  V30 1007 H 91.1673 -6.44089 0.426512 0
M  V30 1008 H 91.9353 -7.98029 1.81913 0
M  V30 1009 N 94.5984 0.214957 -1.56127 0
M  V30 1010 C 95.5454 1.26642 -1.92952 0
M  V30 1011 C 96.5154 1.46244 -0.78753 0
M  V30 1012 O 97.7004 1.59704 -1.04399 0
M  V30 1013 C 94.8404 2.6104 -2.25726 0
M  V30 1014 C 93.9534 2.49183 -3.52891 0
M  V30 1015 C 93.0884 3.76149 -3.7508 0
M  V30 1016 C 92.1274 3.59041 -4.95738 0
M  V30 1017 N 91.2644 4.77972 -5.14283 0
M  V30 1018 H 96.1044 0.945384 -2.82607 0
M  V30 1019 H 93.6414 0.455489 -1.3987 0
M  V30 1020 H 95.5994 3.39313 -2.42739 0
M  V30 1021 H 94.2294 2.91227 -1.39236 0
M  V30 1022 H 93.2814 1.6231 -3.44034 0
M  V30 1023 H 94.5934 2.32466 -4.41318 0
M  V30 1024 H 93.7474 4.62865 -3.92226 0
M  V30 1025 H 92.4864 3.95799 -2.84947 0
M  V30 1026 H 91.4914 2.7071 -4.78535 0
M  V30 1027 H 92.7164 3.40856 -5.87362 0
M  V30 1028 H 90.6624 4.97923 -4.27093 0
M  V30 1029 H 90.5794 4.64006 -5.96853 0
M  V30 1030 H 91.8474 5.66096 -5.35869 0
M  V30 1031 N 96.0765 1.50051 0.48192 0
M  V30 1032 C 97.3225 1.60736 1.2366 0
M  V30 1033 C 97.6555 0.301786 1.91841 0
M  V30 1034 O 96.9305 -0.696025 1.8162 0
M  V30 1035 C 97.2135 2.78009 2.28874 0
M  V30 1036 C 97.0665 4.18416 1.65069 0
M  V30 1037 C 98.3855 2.90867 3.30279 0
M  V30 1038 H 95.5045 0.585031 0.448228 0
M  V30 1039 H 98.1465 1.82402 0.531946 0
M  V30 1040 H 96.2965 2.59667 2.88973 0
M  V30 1041 H 97.9685 4.48322 1.0865 0
M  V30 1042 H 96.2115 4.23177 0.954148 0
M  V30 1043 H 96.8825 4.96381 2.41474 0
M  V30 1044 H 99.3585 3.07623 2.80191 0
M  V30 1045 H 98.2345 3.74566 4.01238 0
M  V30 1046 H 98.4955 2.01021 3.93755 0
M  V30 1047 N 97.5546 -0.734337 1.39446 0
M  V30 1048 C 98.8006 -1.49613 1.36908 0
M  V30 1049 C 99.1336 -1.94169 -0.0347829 0
M  V30 1050 O 98.4086 -1.66833 -0.999847 0
M  V30 1051 C 98.6916 -2.73534 2.34203 0
M  V30 1052 C 98.5446 -2.34993 3.83534 0
M  V30 1053 C 99.8636 -3.75635 2.29317 0
M  V30 1054 H 96.9826 -0.542714 0.498629 0
M  V30 1055 H 99.6246 -0.839597 1.70443 0
M  V30 1056 H 97.7746 -3.29553 2.05736 0
M  V30 1057 H 99.4466 -1.84601 4.22753 0
M  V30 1058 H 97.6896 -1.67213 4.00278 0
M  V30 1059 H 98.3606 -3.23738 4.47099 0
M  V30 1060 H 100.837 -3.29203 2.54489 0
M  V30 1061 H 99.7126 -4.60008 2.99472 0
M  V30 1062 H 99.9736 -4.22603 1.29842 0
M  V30 1063 N 99.0327 -1.24633 -0.964593 0
M  V30 1064 C 99.9627 -1.06611 -2.07741 0
M  V30 1065 C 100.944 0.0218666 -1.70086 0
M  V30 1066 O 102.129 -0.145793 -1.93652 0
M  V30 1067 C 99.2587 -0.673444 -3.40708 0
M  V30 1068 C 98.2127 -1.71054 -3.92332 0
M  V30 1069 C 97.5387 -1.17285 -5.21678 0
M  V30 1070 C 98.8387 -3.10718 -4.19824 0
M  V30 1071 H 100.533 -1.99693 -2.23076 0
M  V30 1072 H 98.0787 -0.96152 -1.07195 0
M  V30 1073 H 100.032 -0.534345 -4.17998 0
M  V30 1074 H 98.7557 0.293073 -3.25282 0
M  V30 1075 H 97.4147 -1.83791 -3.17201 0
M  V30 1076 H 97.0627 -0.196847 -5.02615 0
M  V30 1077 H 96.7627 -1.86592 -5.57187 0
M  V30 1078 H 98.2867 -1.04593 -6.01575 0
M  V30 1079 H 99.7007 -3.01192 -4.87808 0
M  V30 1080 H 98.0977 -3.77406 -4.66567 0
M  V30 1081 H 99.1677 -3.58524 -3.26479 0
M  V30 1082 N 100.511 1.16574 -1.06058 0
M  V30 1083 C 101.441 2.23057 -0.690488 0
M  V30 1084 C 102.422 1.67141 0.315901 0
M  V30 1085 O 103.607 1.93253 0.191556 0
M  V30 1086 C 100.737 3.47222 -0.073625 0
M  V30 1087 C 99.6908 4.16016 -1.00573 0
M  V30 1088 C 99.0168 5.34104 -0.252289 0
M  V30 1089 C 100.317 4.67264 -2.33371 0
M  V30 1090 H 102.011 2.54271 -1.58072 0
M  V30 1091 H 99.5568 1.22218 -0.76149 0
M  V30 1092 H 101.51 4.20939 0.19714 0
M  V30 1093 H 100.234 3.15302 0.85161 0
M  V30 1094 H 98.8928 3.44223 -1.2612 0
M  V30 1095 H 98.5408 4.98437 0.675988 0
M  V30 1096 H 98.2408 5.81072 -0.873455 0
M  V30 1097 H 99.7648 6.10599 0.0109857 0
M  V30 1098 H 101.179 5.32573 -2.12223 0
M  V30 1099 H 99.5758 5.24843 -2.90963 0
M  V30 1100 H 100.646 3.83602 -2.96611 0
M  V30 1101 N 101.989 0.842826 1.3317 0
M  V30 1102 C 103.237 0.439577 1.97262 0
M  V30 1103 C 103.558 -1.00548 1.67078 0
M  V30 1104 O 102.828 -1.70098 0.971779 0
M  V30 1105 H 101.408 0.159558 0.72976 0
M  V30 1106 H 104.07 1.07665 1.62463 0
M  V30 1107 H 103.166 0.574886 3.0676 0
M  V30 1108 N 103.467 -1.45747 0.599634 0
M  V30 1109 C 104.4 -2.27547 -0.172552 0
M  V30 1110 C 105.378 -1.36657 -0.881116 0
M  V30 1111 O 106.562 -1.66081 -0.891595 0
M  V30 1112 C 103.689 -3.14829 -1.24903 0
M  V30 1113 C 102.735 -4.21603 -0.644465 0
M  V30 1114 S 103.568 -5.32754 0.541606 0
M  V30 1115 C 104.724 -6.23604 -0.535656 0
M  V30 1116 H 104.957 -2.92691 0.521468 0
M  V30 1117 H 102.49 -1.49473 0.386947 0
M  V30 1118 H 104.448 -3.65675 -1.86527 0
M  V30 1119 H 103.109 -2.48965 -1.91508 0
M  V30 1120 H 102.302 -4.82566 -1.45417 0
M  V30 1121 H 101.904 -3.73857 -0.103534 0
M  V30 1122 H 104.196 -6.62519 -1.41686 0
M  V30 1123 H 105.139 -7.0809 0.0376246 0
M  V30 1124 H 105.547 -5.58103 -0.84741 0
M  V30 1125 N 104.945 -0.338344 -1.53925 0
M  V30 1126 C 106.222 0.314774 -1.93051 0
M  V30 1127 C 106.602 1.68669 -1.26941 0
M  V30 1128 O 105.95 2.24636 -0.418445 0
M  V30 1129 C 106.16 0.392249 -3.46789 0
M  V30 1130 C 107.508 0.645554 -4.19664 0
M  V30 1131 O 108.532 0.474575 -3.53024 0
M  V30 1132 O 107.391 0.976408 -5.37707 0
M  V30 1133 H 104.485 0.182598 -0.80659 0
M  V30 1134 H 107.031 -0.389141 -1.65178 0
M  V30 1135 H 105.803 -0.570702 -3.87116 0
M  V30 1136 H 105.426 1.14316 -3.80812 0
M  V30 1137 N 106.423 1.57458 -0.0668435 0
M  V30 1138 C 107.672 1.92477 0.602947 0
M  V30 1139 C 107.985 0.948419 1.71068 0
M  V30 1140 O 109.191 1.19124 2.43971 0
M  V30 1141 C 107.647 3.41903 1.12383 0
M  V30 1142 C 107.255 4.47975 0.04737 0
M  V30 1143 C 108.999 3.85931 1.76797 0
M  V30 1144 C 106.906 5.88529 0.582022 0
M  V30 1145 H 105.836 0.718387 0.22899 0
M  V30 1146 H 108.487 1.82978 -0.138276 0
M  V30 1147 H 106.869 3.46459 1.91787 0
M  V30 1148 H 108.043 4.55029 -0.726978 0
M  V30 1149 H 106.358 4.13384 -0.500243 0
M  V30 1150 H 108.955 4.88322 2.17821 0
M  V30 1151 H 109.298 3.23029 2.62599 0
M  V30 1152 H 109.831 3.83958 1.04024 0
M  V30 1153 H 106.57 6.55065 -0.238721 0
M  V30 1154 H 106.09 5.85004 1.324 0
M  V30 1155 H 107.769 6.38258 1.05999 0
M  V30 1156 N 107.901 -0.206675 1.56239 0
M  V30 1157 C 108.831 -1.25909 1.96645 0
M  V30 1158 C 109.812 -1.48097 0.836734 0
M  V30 1159 O 110.997 -1.6003 1.10019 0
M  V30 1160 C 108.127 -2.6058 2.29599 0
M  V30 1161 C 107.081 -2.53024 3.452 0
M  V30 1162 C 106.407 -3.91861 3.63798 0
M  V30 1163 C 107.707 -2.06524 4.79734 0
M  V30 1164 H 109.401 -0.923369 2.84806 0
M  V30 1165 H 106.947 -0.442735 1.37025 0
M  V30 1166 H 108.9 -3.34375 2.56459 0
M  V30 1167 H 107.624 -2.95869 1.38307 0
M  V30 1168 H 106.283 -1.81684 3.18412 0
M  V30 1169 H 105.931 -4.24483 2.69857 0
M  V30 1170 H 105.631 -3.87683 4.4156 0
M  V30 1171 H 107.155 -4.67296 3.93022 0
M  V30 1172 H 108.569 -2.70072 5.05702 0
M  V30 1173 H 106.966 -2.13374 5.60885 0
M  V30 1174 H 108.036 -1.01802 4.74093 0
M  V30 1175 N 109.379 -1.50304 -0.473955 0
M  V30 1176 C 110.604 -1.65175 -1.25427 0
M  V30 1177 C 111.029 -0.333673 -1.85117 0
M  V30 1178 O 110.387 0.702114 -1.67153 0
M  V30 1179 C 110.435 -2.74295 -2.34082 0
M  V30 1180 O 109.539 -2.35349 -3.38651 0
M  V30 1181 H 108.88 -0.551944 -0.369126 0
M  V30 1182 H 111.41 -1.96662 -0.564364 0
M  V30 1183 H 111.42 -2.97285 -2.79438 0
M  V30 1184 H 110.095 -3.69959 -1.90008 0
M  V30 1185 H 108.672 -2.22794 -2.99027 0
M  V30 1186 N 110.857 0.726932 -1.39834 0
M  V30 1187 C 111.82 1.82269 -1.38962 0
M  V30 1188 C 112.82 1.58248 -0.285334 0
M  V30 1189 O 114.01 1.65499 -0.54366 0
M  V30 1190 C 111.142 3.20186 -1.17019 0
M  V30 1191 H 112.335 1.84443 -2.36476 0
M  V30 1192 H 109.888 0.931416 -1.25516 0
M  V30 1193 H 110.623 3.23669 -0.202204 0
M  V30 1194 H 110.408 3.3902 -1.96998 0
M  V30 1195 H 111.898 4.00235 -1.1917 0
M  V30 1196 N 112.336 1.25143 0.95797 0
M  V30 1197 C 113.266 1.07711 2.07173 0
M  V30 1198 C 114.247 -0.0128462 1.70095 0
M  V30 1199 O 115.432 0.156061 1.93572 0
M  V30 1200 C 112.562 0.691503 3.40346 0
M  V30 1201 C 111.516 1.73132 3.9142 0
M  V30 1202 C 110.842 1.20049 5.21049 0
M  V30 1203 C 112.142 3.1294 4.1817 0
M  V30 1204 H 113.836 2.00873 2.22014 0
M  V30 1205 H 111.382 0.967191 1.06684 0
M  V30 1206 H 113.335 0.556505 4.17709 0
M  V30 1207 H 112.059 -0.275819 3.25433 0
M  V30 1208 H 110.718 1.8547 3.16222 0
M  V30 1209 H 110.366 0.223499 5.02503 0
M  V30 1210 H 110.066 1.89545 5.56189 0
M  V30 1211 H 111.59 1.07782 6.01012 0
M  V30 1212 H 113.004 3.03775 4.86203 0
M  V30 1213 H 111.401 3.79875 4.64559 0
M  V30 1214 H 112.471 3.6025 3.24573 0
M  V30 1215 N 113.814 -1.1601 1.06675 0
M  V30 1216 C 115.06 -1.86909 0.786945 0
M  V30 1217 C 115.393 -1.81717 -0.685018 0
M  V30 1218 O 114.668 -1.23551 -1.50218 0
M  V30 1219 C 114.951 -3.36313 1.28707 0
M  V30 1220 C 114.804 -3.50175 2.82308 0
M  V30 1221 C 116.123 -4.3084 0.898071 0
M  V30 1222 H 113.242 -0.678677 0.287343 0
M  V30 1223 H 115.884 -1.36336 1.32334 0
M  V30 1224 H 114.034 -3.79513 0.830768 0
M  V30 1225 H 115.706 -3.15886 3.36175 0
M  V30 1226 H 113.949 -2.91959 3.20847 0
M  V30 1227 H 114.62 -4.55116 3.12368 0
M  V30 1228 H 117.096 -3.95561 1.29114 0
M  V30 1229 H 115.972 -5.33876 1.27543 0
M  V30 1230 H 116.233 -4.41662 -0.196651 0
M  V30 1231 N 115.292 -0.849877 -1.32721 0
M  V30 1232 C 116.52 -0.464754 -2.01613 0
M  V30 1233 C 116.935 0.937191 -1.63897 0
M  V30 1234 O 116.292 1.61081 -0.857856 0
M  V30 1235 C 116.343 -0.588638 -3.56675 0
M  V30 1236 O 116.064 -1.93535 -3.93034 0
M  V30 1237 C 117.565 -0.2019 -4.4284 0
M  V30 1238 H 114.785 -0.183215 -0.645502 0
M  V30 1239 H 117.329 -1.1455 -1.69407 0
M  V30 1240 H 115.484 0.0443159 -3.87375 0
M  V30 1241 H 115.898 -1.92871 -4.87751 0
M  V30 1242 H 117.372 -0.339599 -5.50954 0
M  V30 1243 H 117.849 0.857224 -4.30753 0
M  V30 1244 H 118.455 -0.809733 -4.17521 0
M  V30 1245 N 116.77 1.45427 -0.607355 0
M  V30 1246 C 118.186 1.57283 -0.270985 0
M  V30 1247 C 118.386 1.59875 1.22647 0
M  V30 1248 O 117.442 1.52893 2.00948 0
M  V30 1249 C 118.755 2.85566 -0.941952 0
M  V30 1250 C 120.303 2.9924 -0.917849 0
M  V30 1251 C 120.778 4.30293 -1.56882 0
M  V30 1252 N 122.269 4.37051 -1.5343 0
M  V30 1253 C 123.004 5.37123 -2.00715 0
M  V30 1254 N 122.5 6.43734 -2.56084 0
M  V30 1255 N 124.293 5.28479 -1.91484 0
M  V30 1256 H 116.444 1.41988 -1.57966 0
M  V30 1257 H 118.707 0.67885 -0.661715 0
M  V30 1258 H 118.413 2.8955 -1.99633 0
M  V30 1259 H 118.287 3.74322 -0.465096 0
M  V30 1260 H 120.674 2.94822 0.127984 0
M  V30 1261 H 120.755 2.11895 -1.43297 0
M  V30 1262 H 120.399 4.35469 -2.61398 0
M  V30 1263 H 120.329 5.16454 -1.02873 0
M  V30 1264 H 122.82 3.60615 -1.12982 0
M  V30 1265 H 123.133 7.16341 -2.89958 0
M  V30 1266 H 121.478 6.44485 -2.60122 0
M  V30 1267 H 124.669 4.44098 -1.47967 0
M  V30 1268 H 124.842 6.0632 -2.28648 0
M  V30 1269 N 118.248 0.346503 1.53744 0
M  V30 1270 C 119.178 -0.501193 2.28058 0
M  V30 1271 C 120.159 -1.10014 1.29734 0
M  V30 1272 O 121.344 -1.12097 1.58581 0
M  V30 1273 C 118.474 -1.65078 3.05559 0
M  V30 1274 C 117.428 -1.18003 4.11411 0
M  V30 1275 C 116.754 -2.41837 4.76884 0
M  V30 1276 C 118.054 -0.278394 5.21558 0
M  V30 1277 H 119.748 0.11875 2.99164 0
M  V30 1278 H 117.294 0.0585531 1.43881 0
M  V30 1279 H 119.247 -2.25028 3.56287 0
M  V30 1280 H 117.971 -2.29767 2.32109 0
M  V30 1281 H 116.63 -0.603331 3.61601 0
M  V30 1282 H 116.278 -3.0494 4.00026 0
M  V30 1283 H 115.978 -2.1102 5.48402 0
M  V30 1284 H 117.502 -3.02508 5.30397 0
M  V30 1285 H 118.916 -0.784823 5.67903 0
M  V30 1286 H 117.313 -0.0619707 6.00068 0
M  V30 1287 H 118.383 0.684677 4.80042 0
M  V30 1288 N 119.726 -1.57421 0.075193 0
M  V30 1289 C 120.658 -2.09904 -0.920483 0
M  V30 1290 C 121.671 -1.03191 -1.25918 0
M  V30 1291 O 122.86 -1.30695 -1.21577 0
M  V30 1292 C 119.96 -2.54726 -2.23534 0
M  V30 1293 C 119.133 -3.8505 -2.07498 0
M  V30 1294 C 118.192 -4.15929 -3.22319 0
M  V30 1295 O 117.218 -4.85474 -2.9716 0
M  V30 1296 N 118.42 -3.69745 -4.47514 0
M  V30 1297 H 121.185 -2.95954 -0.472359 0
M  V30 1298 H 118.746 -1.61523 -0.110444 0
M  V30 1299 H 120.738 -2.72443 -2.9926 0
M  V30 1300 H 119.308 -1.73795 -2.59835 0
M  V30 1301 H 118.528 -3.76679 -1.16219 0
M  V30 1302 H 119.816 -4.70348 -1.94038 0
M  V30 1303 H 119.214 -3.13569 -4.7084 0
M  V30 1304 H 117.771 -3.92655 -5.20255 0
M  V30 1305 N 121.204 0.198386 -1.56346 0
M  V30 1306 C 122.481 0.944982 -1.71258 0
M  V30 1307 C 122.861 2.0151 -0.629048 0
M  V30 1308 O 122.209 2.25639 0.360473 0
M  V30 1309 C 122.419 1.5344 -3.1346 0
M  V30 1310 C 123.767 2.01778 -3.73591 0
M  V30 1311 O 124.791 1.63288 -3.16568 0
M  V30 1312 O 123.65 2.72594 -4.73661 0
M  V30 1313 H 120.744 0.442939 -0.69838 0
M  V30 1314 H 123.29 0.188342 -1.68652 0
M  V30 1315 H 122.062 0.762869 -3.83792 0
M  V30 1316 H 121.685 2.35596 -3.20282 0
M  V30 1317 N 122.682 1.50554 0.465978 0
M  V30 1318 C 124.098 1.38093 0.800154 0
M  V30 1319 C 124.298 0.440988 1.96615 0
M  V30 1320 O 123.354 -0.114499 2.5224 0
M  V30 1321 C 124.667 2.79565 1.10742 0
M  V30 1322 C 126.215 2.88516 1.21357 0
M  V30 1323 C 126.69 4.30833 1.55393 0
M  V30 1324 N 128.181 4.33807 1.62375 0
M  V30 1325 C 128.916 5.40927 1.90225 0
M  V30 1326 N 128.412 6.58247 2.16062 0
M  V30 1327 N 130.205 5.28376 1.9177 0
M  V30 1328 H 122.356 2.10237 -0.302366 0
M  V30 1329 H 124.619 0.945203 -0.0727746 0
M  V30 1330 H 124.325 3.50208 0.323661 0
M  V30 1331 H 124.199 3.17125 2.04234 0
M  V30 1332 H 126.586 2.1809 1.98799 0
M  V30 1333 H 126.667 2.54492 0.258321 0
M  V30 1334 H 126.311 5.01799 0.784889 0
M  V30 1335 H 126.241 4.62347 2.52076 0
M  V30 1336 H 128.732 3.49212 1.44427 0
M  V30 1337 H 129.045 7.3569 2.36601 0
M  V30 1338 H 127.39 6.61413 2.13444 0
M  V30 1339 H 130.581 4.35715 1.71085 0
M  V30 1340 H 130.754 6.11944 2.13139 0
M  V30 1341 N 124.16 -0.719506 1.40217 0
M  V30 1342 C 125.407 -1.47933 1.38283 0
M  V30 1343 C 125.735 -1.94493 -0.0161536 0
M  V30 1344 O 124.99 -1.68224 -0.999956 0
M  V30 1345 C 125.289 -2.72271 2.31524 0
M  V30 1346 C 124.955 -2.44496 3.78857 0
M  V30 1347 C 123.617 -2.36631 4.18998 0
M  V30 1348 C 125.969 -2.21104 4.71977 0
M  V30 1349 C 123.297 -2.03437 5.503 0
M  V30 1350 C 125.649 -1.89423 6.03574 0
M  V30 1351 C 124.313 -1.80038 6.42762 0
M  V30 1352 H 123.583 -0.541325 0.506012 0
M  V30 1353 H 126.23 -0.824502 1.72842 0
M  V30 1354 H 124.535 -3.42572 1.90137 0
M  V30 1355 H 126.232 -3.30348 2.27313 0
M  V30 1356 H 122.822 -2.51503 3.47051 0
M  V30 1357 H 127.006 -2.26139 4.41786 0
M  V30 1358 H 122.262 -1.94705 5.79569 0
M  V30 1359 H 126.436 -1.70336 6.75247 0
M  V30 1360 H 124.063 -1.54083 7.44421 0
M  V30 1361 N 125.638 -1.25649 -0.95132 0
M  V30 1362 C 126.585 -1.06323 -2.04851 0
M  V30 1363 C 127.555 0.0286491 -1.66075 0
M  V30 1364 O 128.74 -0.12917 -1.90362 0
M  V30 1365 C 125.88 -0.691529 -3.381 0
M  V30 1366 C 124.993 -1.85861 -3.89974 0
M  V30 1367 C 124.128 -1.43096 -5.11563 0
M  V30 1368 C 123.167 -2.56696 -5.55674 0
M  V30 1369 N 122.304 -2.14684 -6.68472 0
M  V30 1370 H 127.144 -2.00222 -2.20715 0
M  V30 1371 H 124.681 -0.997027 -1.08156 0
M  V30 1372 H 126.639 -0.456963 -4.1469 0
M  V30 1373 H 125.269 0.210474 -3.22113 0
M  V30 1374 H 124.321 -2.20639 -3.09875 0
M  V30 1375 H 125.633 -2.71161 -4.18657 0
M  V30 1376 H 124.787 -1.15624 -5.9558 0
M  V30 1377 H 123.526 -0.548722 -4.84603 0
M  V30 1378 H 122.531 -2.84909 -4.7022 0
M  V30 1379 H 123.756 -3.45503 -5.8464 0
M  V30 1380 H 121.702 -1.28881 -6.43215 0
M  V30 1381 H 121.619 -2.9353 -6.96689 0
M  V30 1382 H 122.887 -1.90397 -7.5589 0
M  V30 1383 N 127.117 1.15442 -1.07289 0
M  V30 1384 C 128.08 2.18358 -0.696591 0
M  V30 1385 C 129.08 1.58637 0.262837 0
M  V30 1386 O 130.27 1.74145 0.0438809 0
M  V30 1387 C 127.402 3.4089 -0.0266151 0
M  V30 1388 H 128.595 2.53162 -1.60776 0
M  V30 1389 H 126.148 1.29893 -0.869342 0
M  V30 1390 H 126.883 3.11653 0.896822 0
M  V30 1391 H 126.668 3.85495 -0.716657 0
M  V30 1392 H 128.158 4.17009 0.222028 0
M  V30 1393 N 128.595 0.856903 1.32268 0
M  V30 1394 C 129.527 0.260412 2.27716 0
M  V30 1395 C 130.54 -0.569137 1.52528 0
M  V30 1396 O 131.729 -0.39326 1.74114 0
M  V30 1397 C 128.829 -0.650477 3.32599 0
M  V30 1398 C 128.002 0.14372 4.37164 0
M  V30 1399 C 127.061 -0.69328 5.21613 0
M  V30 1400 O 126.087 -0.12599 5.69061 0
M  V30 1401 N 127.289 -2.00761 5.44679 0
M  V30 1402 H 130.054 1.08059 2.79541 0
M  V30 1403 H 127.615 0.717103 1.45152 0
M  V30 1404 H 129.607 -1.21581 3.86005 0
M  V30 1405 H 128.177 -1.37133 2.80915 0
M  V30 1406 H 127.397 0.890486 3.8401 0
M  V30 1407 H 128.685 0.68915 5.04111 0
M  V30 1408 H 128.083 -2.49181 5.07863 0
M  V30 1409 H 126.64 -2.52103 6.01072 0
M  V30 1410 N 130.073 -1.45103 0.615059 0
M  V30 1411 C 131.322 -2.01396 0.110718 0
M  V30 1412 C 131.635 -1.48834 -1.26916 0
M  V30 1413 O 132.841 -1.97152 -1.86664 0
M  V30 1414 C 131.297 -3.59599 0.14723 0
M  V30 1415 C 130.905 -4.21158 1.52743 0
M  V30 1416 C 132.649 -4.23428 -0.30148 0
M  V30 1417 C 130.556 -5.71535 1.51992 0
M  V30 1418 H 129.486 -0.753061 0.0376241 0
M  V30 1419 H 132.137 -1.66494 0.77149 0
M  V30 1420 H 130.519 -3.91724 -0.580339 0
M  V30 1421 H 131.693 -4.00594 2.2773 0
M  V30 1422 H 130.008 -3.69552 1.91886 0
M  V30 1423 H 132.605 -5.33703 -0.326392 0
M  V30 1424 H 132.948 -3.94629 -1.32565 0
M  V30 1425 H 133.481 -3.96047 0.373065 0
M  V30 1426 H 130.22 -6.05044 2.52193 0
M  V30 1427 H 129.74 -5.94268 0.81274 0
M  V30 1428 H 131.419 -6.34873 1.24681 0
M  V30 1429 N 131.551 -0.354651 -1.53558 0
M  V30 1430 C 132.799 0.237972 -2.00694 0
M  V30 1431 C 133.12 1.50173 -1.24391 0
M  V30 1432 O 132.39 1.92673 -0.354135 0
M  V30 1433 H 130.97 0.0909256 -0.741446 0
M  V30 1434 H 133.632 -0.478368 -1.88938 0
M  V30 1435 H 132.728 0.47264 -3.085 0
M  V30 1436 N 133.029 1.57378 -0.0835403 0
M  V30 1437 C 134.257 1.98263 0.59157 0
M  V30 1438 C 134.672 0.962302 1.62435 0
M  V30 1439 O 134.029 -0.049581 1.82433 0
M  V30 1440 C 134.08 3.39214 1.24965 0
M  V30 1441 O 133.801 4.37339 0.258186 0
M  V30 1442 C 135.302 3.95038 2.01147 0
M  V30 1443 H 132.522 0.651773 0.159477 0
M  V30 1444 H 135.066 2.03878 -0.159415 0
M  V30 1445 H 133.221 3.34649 1.95164 0
M  V30 1446 H 133.635 5.19371 0.731734 0
M  V30 1447 H 135.109 4.95848 2.42567 0
M  V30 1448 H 135.586 3.32222 2.87272 0
M  V30 1449 H 136.192 4.0304 1.35789 0
M  V30 1450 N 134.507 -0.190092 1.56449 0
M  V30 1451 C 135.753 -0.911052 1.81184 0
M  V30 1452 C 136.086 -1.82699 0.658396 0
M  V30 1453 O 135.361 -1.91491 -0.340775 0
M  V30 1454 C 135.644 -1.72297 3.16205 0
M  V30 1455 C 135.497 -0.831419 4.42049 0
M  V30 1456 C 136.816 -2.69454 3.47969 0
M  V30 1457 H 133.935 -0.32977 0.659106 0
M  V30 1458 H 136.577 -0.178169 1.89163 0
M  V30 1459 H 134.727 -2.34778 3.09534 0
M  V30 1460 H 136.399 -0.220929 4.60771 0
M  V30 1461 H 134.642 -0.138406 4.33579 0
M  V30 1462 H 135.313 -1.43461 5.33032 0
M  V30 1463 H 137.789 -2.17104 3.54972 0
M  V30 1464 H 136.665 -3.23342 4.43555 0
M  V30 1465 H 136.926 -3.48744 2.71717 0
M  V30 1466 N 135.985 -1.50799 -0.457987 0
M  V30 1467 C 136.915 -1.73553 -1.5621 0
M  V30 1468 C 137.896 -0.584774 -1.59732 0
M  V30 1469 O 139.081 -0.825314 -1.7579 0
M  V30 1470 C 136.211 -1.84169 -2.94447 0
M  V30 1471 C 135.165 -2.99461 -3.0579 0
M  V30 1472 C 134.491 -2.95235 -4.45803 0
M  V30 1473 C 135.791 -4.39766 -2.81786 0
M  V30 1474 H 137.485 -2.66 -1.37421 0
M  V30 1475 H 135.031 -1.28002 -0.659662 0
M  V30 1476 H 136.984 -1.98672 -3.71628 0
M  V30 1477 H 135.708 -0.883545 -3.14422 0
M  V30 1478 H 134.367 -2.8463 -2.31044 0
M  V30 1479 H 134.015 -1.97239 -4.62715 0
M  V30 1480 H 133.715 -3.72642 -4.54326 0
M  V30 1481 H 135.239 -3.11803 -5.24987 0
M  V30 1482 H 136.653 -4.55054 -3.4871 0
M  V30 1483 H 135.05 -5.18722 -3.0174 0
M  V30 1484 H 136.12 -4.51229 -1.7754 0
M  V30 1485 N 137.463 0.71206 -1.40597 0
M  V30 1486 C 138.874 1.29135 -1.34837 0
M  V30 1487 C 139.225 1.96186 -0.0235395 0
M  V30 1488 O 138.35 1.97768 0.878444 0
M  V30 1489 C 138.945 2.34827 -2.44217 0
M  V30 1490 C 137.504 2.88371 -2.41907 0
M  V30 1491 C 136.651 1.62202 -2.24913 0
M  V30 1492 H 139.602 0.507944 -1.50352 0
M  V30 1493 H 139.623 3.15749 -2.12327 0
M  V30 1494 H 139.135 1.85996 -3.40627 0
M  V30 1495 H 137.236 3.41422 -1.49204 0
M  V30 1496 H 137.349 3.39925 -3.37621 0
M  V30 1497 H 135.713 1.874 -1.72492 0
M  V30 1498 H 136.496 1.15391 -3.23326 0
M  V30 1499 N 138.941 1.26152 0.944643 0
M  V30 1500 C 140.166 1.14363 1.7302 0
M  V30 1501 C 140.591 -0.29772 1.85729 0
M  V30 1502 O 139.949 -1.2157 1.34501 0
M  V30 1503 C 139.997 1.81378 3.11664 0
M  V30 1504 O 139.101 1.10022 3.97453 0
M  V30 1505 H 138.442 0.398694 0.53098 0
M  V30 1506 H 140.972 1.66906 1.18337 0
M  V30 1507 H 140.982 1.88064 3.62072 0
M  V30 1508 H 139.657 2.86237 3.0173 0
M  V30 1509 H 138.234 1.11287 3.55907 0
M  V30 1510 N 140.419 -1.14872 1.07899 0
M  V30 1511 C 141.349 -2.2193 0.725887 0
M  V30 1512 C 142.33 -1.67622 -0.28927 0
M  V30 1513 O 143.515 -1.93533 -0.160787 0
M  V30 1514 C 140.645 -3.47061 0.128856 0
M  V30 1515 C 139.599 -4.14363 1.07178 0
M  V30 1516 C 138.925 -5.33636 0.337229 0
M  V30 1517 C 140.225 -4.63492 2.40775 0
M  V30 1518 H 141.919 -2.51724 1.62097 0
M  V30 1519 H 139.465 -1.20991 0.780838 0
M  V30 1520 H 141.418 -4.21199 -0.130147 0
M  V30 1521 H 140.142 -3.16617 -0.80134 0
M  V30 1522 H 138.801 -3.42173 1.3158 0
M  V30 1523 H 138.449 -4.99449 -0.596606 0
M  V30 1524 H 138.149 -5.79609 0.965788 0
M  V30 1525 H 139.673 -6.10539 0.0861567 0
M  V30 1526 H 141.087 -5.2913 2.20669 0
M  V30 1527 H 139.484 -5.20148 2.99276 0
M  V30 1528 H 140.554 -3.78834 3.02676 0
M  V30 1529 N 141.898 -0.863906 -1.31812 0
M  V30 1530 C 143.147 -0.46801 -1.96195 0
M  V30 1531 C 143.46 0.983474 -1.69077 0
M  V30 1532 O 144.666 1.48523 -2.27273 0
M  V30 1533 C 143.122 -0.785995 -3.51212 0
M  V30 1534 C 142.73 -2.25383 -3.87178 0
M  V30 1535 C 144.474 -0.458274 -4.22019 0
M  V30 1536 C 142.381 -2.51455 -5.3528 0
M  V30 1537 H 141.311 -0.171283 -0.734287 0
M  V30 1538 H 143.962 -1.05597 -1.50072 0
M  V30 1539 H 142.344 -0.127359 -3.95795 0
M  V30 1540 H 143.518 -2.95502 -3.53575 0
M  V30 1541 H 141.833 -2.54698 -3.2942 0
M  V30 1542 H 144.43 -0.630369 -5.30971 0
M  V30 1543 H 144.773 0.600834 -4.11941 0
M  V30 1544 H 145.306 -1.07319 -3.8305 0
M  V30 1545 H 142.045 -3.56025 -5.50387 0
M  V30 1546 H 141.565 -1.85923 -5.70257 0
M  V30 1547 H 143.244 -2.35874 -6.02472 0
M  V30 1548 N 143.376 1.44774 -0.622745 0
M  V30 1549 C 144.653 1.95522 -0.0551974 0
M  V30 1550 C 145.033 1.5649 1.41683 0
M  V30 1551 O 144.381 0.834848 2.12703 0
M  V30 1552 C 144.591 3.4796 -0.269242 0
M  V30 1553 C 145.939 4.24306 -0.158014 0
M  V30 1554 O 146.963 3.55637 -0.200162 0
M  V30 1555 O 145.822 5.46471 -0.0558693 0
M  V30 1556 H 142.916 0.826556 0.0271015 0
M  V30 1557 H 145.462 1.54866 -0.693864 0
M  V30 1558 H 144.234 3.6939 -1.29099 0
M  V30 1559 H 143.857 3.95543 0.403966 0
M  V30 1560 N 144.854 0.36279 1.53368 0
M  V30 1561 C 146.27 0.0116182 1.59596 0
M  V30 1562 C 146.47 -1.47012 1.37803 0
M  V30 1563 O 145.526 -2.23136 1.18181 0
M  V30 1564 C 146.839 0.465052 2.97082 0
M  V30 1565 C 148.387 0.419033 3.10182 0
M  V30 1566 C 148.862 0.848235 4.50077 0
M  V30 1567 N 150.353 0.803183 4.56183 0
M  V30 1568 C 151.088 1.107 5.62613 0
M  V30 1569 N 150.584 1.47996 6.76808 0
M  V30 1570 N 152.377 1.02998 5.52583 0
M  V30 1571 H 144.528 1.32775 1.65785 0
M  V30 1572 H 146.791 0.542518 0.777417 0
M  V30 1573 H 146.497 1.49892 3.18159 0
M  V30 1574 H 146.371 -0.149786 3.76902 0
M  V30 1575 H 148.758 -0.605696 2.88817 0
M  V30 1576 H 148.839 1.06933 2.32377 0
M  V30 1577 H 148.483 1.87107 4.7218 0
M  V30 1578 H 148.413 0.175218 5.26308 0
M  V30 1579 H 150.904 0.52838 3.74188 0
M  V30 1580 H 151.217 1.69613 7.53957 0
M  V30 1581 H 149.562 1.51859 6.78206 0
M  V30 1582 H 152.753 0.737817 4.62249 0
M  V30 1583 H 152.926 1.2701 6.35431 0
M  V30 1584 N 146.332 -1.57332 0.0918853 0
M  V30 1585 C 147.262 -2.16872 -0.865371 0
M  V30 1586 C 148.243 -1.10118 -1.29646 0
M  V30 1587 O 149.428 -1.38242 -1.36392 0
M  V30 1588 C 146.558 -2.74649 -2.12569 0
M  V30 1589 C 145.512 -3.86747 -1.83333 0
M  V30 1590 C 144.838 -4.31212 -3.16166 0
M  V30 1591 C 146.138 -5.10089 -1.1228 0
M  V30 1592 H 147.832 -2.97114 -0.369307 0
M  V30 1593 H 145.378 -1.42918 -0.176194 0
M  V30 1594 H 147.331 -3.14952 -2.7997 0
M  V30 1595 H 146.055 -1.91657 -2.64452 0
M  V30 1596 H 144.714 -3.46978 -1.18331 0
M  V30 1597 H 144.362 -3.45115 -3.6593 0
M  V30 1598 H 144.062 -5.06788 -2.97388 0
M  V30 1599 H 145.586 -4.74146 -3.84731 0
M  V30 1600 H 147 -5.47582 -1.69785 0
M  V30 1601 H 145.397 -5.91073 -1.03693 0
M  V30 1602 H 146.467 -4.84786 -0.105041 0
M  V30 1603 N 147.81 0.181792 -1.56548 0
M  V30 1604 C 149.058 0.89832 -1.81038 0
M  V30 1605 C 149.379 1.83232 -0.667164 0
M  V30 1606 O 148.649 1.93372 0.313673 0
M  V30 1607 H 147.229 0.33471 -0.667816 0
M  V30 1608 H 149.891 0.184116 -1.94028 0
M  V30 1609 H 148.987 1.4815 -2.74696 0
M  V30 1610 N 149.288 1.51039 0.449983 0
M  V30 1611 C 150.565 1.53612 1.21089 0
M  V30 1612 C 150.945 0.292997 2.09057 0
M  V30 1613 O 150.293 -0.72259 2.16774 0
M  V30 1614 C 150.503 2.84337 2.0237 0
M  V30 1615 C 151.851 3.35807 2.59843 0
M  V30 1616 O 152.875 2.85802 2.12593 0
M  V30 1617 O 151.734 4.23029 3.45989 0
M  V30 1618 H 148.828 0.617057 0.550608 0
M  V30 1619 H 151.374 1.63344 0.460082 0
M  V30 1620 H 150.146 3.66278 1.37681 0
M  V30 1621 H 149.769 2.77708 2.84542 0
M  V30 1622 N 150.766 -0.704594 1.40972 0
M  V30 1623 C 151.729 -1.80035 1.41845 0
M  V30 1624 C 152.729 -1.57774 0.310474 0
M  V30 1625 O 153.919 -1.64613 0.56992 0
M  V30 1626 C 151.051 -3.18284 1.22098 0
M  V30 1627 H 152.244 -1.80658 2.3938 0
M  V30 1628 H 149.797 -0.911329 1.26982 0
M  V30 1629 H 150.532 -3.23306 0.253672 0
M  V30 1630 H 150.317 -3.35843 2.02366 0
M  V30 1631 H 151.807 -3.98289 1.25522 0
M  V30 1632 N 152.244 -1.26651 -0.937939 0
M  V30 1633 C 153.191 -1.0849 -2.03712 0
M  V30 1634 C 154.161 0.011033 -1.66096 0
M  V30 1635 O 155.346 -0.149353 -1.90215 0
M  V30 1636 C 152.486 -0.72735 -3.37348 0
M  V30 1637 C 151.599 -1.89986 -3.87981 0
M  V30 1638 C 150.734 -1.48513 -5.10017 0
M  V30 1639 C 149.773 -2.62575 -5.5292 0
M  V30 1640 N 148.91 -2.21762 -6.66158 0
M  V30 1641 H 153.75 -2.02551 -2.18579 0
M  V30 1642 H 151.287 -1.00844 -1.07093 0
M  V30 1643 H 153.245 -0.50092 -4.14182 0
M  V30 1644 H 151.875 0.176298 -3.22318 0
M  V30 1645 H 150.927 -2.23913 -3.07518 0
M  V30 1646 H 152.239 -2.75586 -4.15757 0
M  V30 1647 H 151.393 -1.21934 -5.94321 0
M  V30 1648 H 150.132 -0.60009 -4.83994 0
M  V30 1649 H 149.137 -2.8988 -4.67172 0
M  V30 1650 H 150.362 -3.51685 -5.80943 0
M  V30 1651 H 148.308 -1.35696 -6.41812 0
M  V30 1652 H 148.225 -3.00903 -6.93537 0
M  V30 1653 H 149.493 -1.98403 -7.53828 0
M  V30 1654 N 153.722 1.14298 -1.08507 0
M  V30 1655 C 154.999 1.81544 -0.728088 0
M  V30 1656 C 155.379 1.95838 0.78808 0
M  V30 1657 O 154.727 1.51904 1.70697 0
M  V30 1658 C 154.937 3.17169 -1.45619 0
M  V30 1659 C 156.285 3.9265 -1.61591 0
M  V30 1660 O 157.309 3.26762 -1.41793 0
M  V30 1661 O 156.168 5.10807 -1.94263 0
M  V30 1662 H 153.262 0.78491 -0.260471 0
M  V30 1663 H 155.808 1.21307 -1.18671 0
M  V30 1664 H 154.58 3.01934 -2.489 0
M  V30 1665 H 154.203 3.851 -0.989124 0
M  V30 1666 N 155.201 0.870884 1.31352 0
M  V30 1667 C 156.426 0.495957 2.01383 0
M  V30 1668 C 156.851 -0.904324 1.64935 0
M  V30 1669 O 156.209 -1.59687 0.858466 0
M  V30 1670 C 156.257 0.661433 3.54482 0
M  V30 1671 O 155.361 -0.298851 4.11316 0
M  V30 1672 H 154.702 0.197158 0.634054 0
M  V30 1673 H 157.232 1.17455 1.67527 0
M  V30 1674 H 157.242 0.555072 4.04207 0
M  V30 1675 H 155.917 1.68246 3.8035 0
M  V30 1676 H 154.494 -0.147368 3.72609 0
M  V30 1677 N 156.679 -1.44442 0.630414 0
M  V30 1678 C 157.925 -2.02351 0.134816 0
M  V30 1679 C 158.258 -1.4947 -1.23986 0
M  V30 1680 O 157.533 -0.678475 -1.82283 0
M  V30 1681 C 157.816 -3.59898 0.120707 0
M  V30 1682 C 157.669 -4.23063 1.52767 0
M  V30 1683 C 158.988 -4.36585 -0.555127 0
M  V30 1684 H 156.107 -0.73527 0.0504646 0
M  V30 1685 H 158.749 -1.72022 0.806751 0
M  V30 1686 H 156.899 -3.85868 -0.451477 0
M  V30 1687 H 158.571 -4.08202 2.14869 0
M  V30 1688 H 156.814 -3.80586 2.08175 0
M  V30 1689 H 157.485 -5.32071 1.46984 0
M  V30 1690 H 159.961 -4.16044 -0.0685429 0
M  V30 1691 H 158.837 -5.46294 -0.534185 0
M  V30 1692 H 159.098 -4.11138 -1.62535 0
M  V30 1693 N 158.157 -0.370918 -1.53173 0
M  V30 1694 C 159.573 -0.0200818 -1.59587 0
M  V30 1695 C 159.773 1.46279 -1.38581 0
M  V30 1696 O 158.829 2.22506 -1.19363 0
M  V30 1697 C 160.142 -0.4808 -2.96831 0
M  V30 1698 C 161.69 -0.435477 -3.09956 0
M  V30 1699 C 162.165 -0.872092 -4.4962 0
M  V30 1700 N 163.656 -0.827364 -4.55751 0
M  V30 1701 C 164.391 -1.13683 -5.62018 0
M  V30 1702 N 163.887 -1.51584 -6.76014 0
M  V30 1703 N 165.68 -1.05927 -5.52029 0
M  V30 1704 H 157.831 -1.33652 -1.65079 0
M  V30 1705 H 160.094 -0.546634 -0.774529 0
M  V30 1706 H 159.8 -1.51577 -3.1736 0
M  V30 1707 H 159.674 0.129796 -3.76977 0
M  V30 1708 H 162.061 0.590371 -2.89134 0
M  V30 1709 H 162.142 -1.08164 -2.31806 0
M  V30 1710 H 161.786 -1.89608 -4.71181 0
M  V30 1711 H 161.716 -0.203127 -5.26208 0
M  V30 1712 H 164.207 -0.548216 -3.73902 0
M  V30 1713 H 164.52 -1.73609 -7.53047 0
M  V30 1714 H 162.865 -1.55454 -6.77391 0
M  V30 1715 H 166.056 -0.762321 -4.61851 0
M  V30 1716 H 166.229 -1.30378 -6.34749 0
M  V30 1717 N 159.635 1.57281 -0.100228 0
M  V30 1718 C 160.545 2.17833 0.870965 0
M  V30 1719 C 161.561 1.14921 1.30649 0
M  V30 1720 O 162.737 1.47313 1.37335 0
M  V30 1721 C 159.802 2.75085 2.1102 0
M  V30 1722 C 158.863 3.9297 1.72838 0
M  V30 1723 C 158.096 4.47482 2.90854 0
M  V30 1724 O 158.319 4.00922 4.05731 0
M  V30 1725 O 157.253 5.38433 2.69023 0
M  V30 1726 H 161.079 3.0124 0.38575 0
M  V30 1727 H 158.664 1.48881 0.124397 0
M  V30 1728 H 160.546 3.11656 2.83634 0
M  V30 1729 H 159.221 1.94721 2.58584 0
M  V30 1730 H 158.128 3.61201 0.973883 0
M  V30 1731 H 159.461 4.74713 1.30033 0
M  V30 1732 N 161.113 -0.173488 1.56642 0
M  V30 1733 C 162.045 -1.23935 1.92802 0
M  V30 1734 C 163.058 -1.40589 0.820889 0
M  V30 1735 O 164.247 -1.40631 1.09933 0
M  V30 1736 C 161.347 -2.60837 2.16373 0
M  V30 1737 C 160.52 -2.6551 3.47596 0
M  V30 1738 C 159.579 -3.8376 3.60021 0
M  V30 1739 O 158.605 -3.69859 4.32658 0
M  V30 1740 N 159.807 -5.00127 2.94709 0
M  V30 1741 H 162.572 -0.932236 2.84832 0
M  V30 1742 H 160.133 -0.363268 1.57772 0
M  V30 1743 H 162.125 -3.38407 2.21952 0
M  V30 1744 H 160.695 -2.83948 1.30738 0
M  V30 1745 H 159.915 -1.74052 3.53694 0
M  V30 1746 H 161.203 -2.65641 4.33949 0
M  V30 1747 H 160.601 -5.14322 2.35563 0
M  V30 1748 H 159.158 -5.75567 3.05886 0
M  V30 1749 N 162.591 -1.51276 -0.441967 0
M  V30 1750 C 163.868 -1.54252 -1.20273 0
M  V30 1751 C 164.248 -0.30408 -2.08898 0
M  V30 1752 O 163.596 0.711084 -2.17154 0
M  V30 1753 C 163.806 -2.85406 -2.00859 0
M  V30 1754 C 165.154 -3.37181 -2.58059 0
M  V30 1755 O 166.178 -2.86925 -2.11074 0
M  V30 1756 O 165.037 -4.24858 -3.43741 0
M  V30 1757 H 162.131 -0.619969 -0.547328 0
M  V30 1758 H 164.677 -1.63586 -0.451413 0
M  V30 1759 H 163.449 -3.67003 -1.35736 0
M  V30 1760 H 163.072 -2.79213 -2.83065 0
M  V30 1761 N 164.069 0.697108 -1.41344 0
M  V30 1762 C 165.001 1.8224 -1.39001 0
M  V30 1763 C 166.014 1.60152 -0.292428 0
M  V30 1764 O 167.203 1.69684 -0.554048 0
M  V30 1765 C 164.303 3.18976 -1.14489 0
M  V30 1766 C 163.476 3.68105 -2.36258 0
M  V30 1767 C 162.535 4.83506 -2.07625 0
M  V30 1768 O 161.561 4.95201 -2.8065 0
M  V30 1769 N 162.763 5.70637 -1.06555 0
M  V30 1770 H 165.528 1.84742 -2.35988 0
M  V30 1771 H 163.089 0.87937 -1.35936 0
M  V30 1772 H 165.081 3.93801 -0.932885 0
M  V30 1773 H 163.651 3.11508 -0.261043 0
M  V30 1774 H 162.871 2.84204 -2.7317 0
M  V30 1775 H 164.159 3.97667 -3.17393 0
M  V30 1776 H 163.557 5.63817 -0.461125 0
M  V30 1777 H 162.114 6.45368 -0.913444 0
M  V30 1778 N 165.547 1.27147 0.931209 0
M  V30 1779 C 166.775 1.16082 1.71267 0
M  V30 1780 C 167.19 -0.282772 1.8667 0
M  V30 1781 O 166.547 -1.19283 1.38122 0
M  V30 1782 C 166.598 1.8358 3.11417 0
M  V30 1783 O 166.319 3.22299 2.96741 0
M  V30 1784 C 167.82 1.78597 4.05732 0
M  V30 1785 H 165.04 0.403758 0.535929 0
M  V30 1786 H 167.584 1.67953 1.16671 0
M  V30 1787 H 165.739 1.35623 3.62885 0
M  V30 1788 H 166.153 3.55851 3.85319 0
M  V30 1789 H 167.627 2.30444 5.01597 0
M  V30 1790 H 168.104 0.754564 4.3267 0
M  V30 1791 H 168.71 2.26152 3.60188 0
M  V30 1792 N 167.025 -1.13721 1.09112 0
M  V30 1793 C 167.955 -2.21148 0.749385 0
M  V30 1794 C 168.936 -1.6792 -0.271475 0
M  V30 1795 O 170.121 -1.93693 -0.140251 0
M  V30 1796 C 167.251 -3.46905 0.165659 0
M  V30 1797 C 166.205 -4.13203 1.11567 0
M  V30 1798 C 165.531 -5.33248 0.393809 0
M  V30 1799 C 166.831 -4.60912 2.45678 0
M  V30 1800 H 168.525 -2.4999 1.64758 0
M  V30 1801 H 166.071 -1.20156 0.793626 0
M  V30 1802 H 168.024 -4.21313 -0.085466 0
M  V30 1803 H 166.748 -3.17449 -0.767714 0
M  V30 1804 H 165.407 -3.40758 1.35202 0
M  V30 1805 H 165.055 -5.00054 -0.543599 0
M  V30 1806 H 164.755 -5.78552 1.02721 0
M  V30 1807 H 166.279 -6.10413 0.150908 0
M  V30 1808 H 167.693 -5.26759 2.26269 0
M  V30 1809 H 166.09 -5.16944 3.04776 0
M  V30 1810 H 167.16 -3.75603 3.06677 0
M  V30 1811 N 168.503 -0.877838 -1.30888 0
M  V30 1812 C 169.433 -0.35534 -2.3078 0
M  V30 1813 C 170.414 0.557994 -1.60687 0
M  V30 1814 O 171.599 0.473355 -1.88343 0
M  V30 1815 C 168.729 0.437221 -3.44537 0
M  V30 1816 C 167.683 -0.383715 -4.26276 0
M  V30 1817 C 167.009 0.535014 -5.32017 0
M  V30 1818 C 168.309 -1.62201 -4.96476 0
M  V30 1819 H 170.003 -1.19007 -2.74732 0
M  V30 1820 H 167.549 -0.573698 -1.32078 0
M  V30 1821 H 169.502 0.813334 -4.13477 0
M  V30 1822 H 168.226 1.30553 -2.99372 0
M  V30 1823 H 166.885 -0.741874 -3.59015 0
M  V30 1824 H 166.533 1.40083 -4.831 0
M  V30 1825 H 166.233 -0.0104211 -5.87599 0
M  V30 1826 H 167.757 0.907799 -6.03814 0
M  V30 1827 H 169.171 -1.31689 -5.5797 0
M  V30 1828 H 167.568 -2.10711 -5.61891 0
M  V30 1829 H 168.638 -2.37044 -4.23011 0
M  V30 1830 N 169.982 1.44106 -0.638065 0
M  V30 1831 C 170.912 2.33448 0.0494287 0
M  V30 1832 C 171.893 1.48606 0.827672 0
M  V30 1833 O 173.078 1.77308 0.792173 0
M  V30 1834 C 170.208 3.31771 1.02691 0
M  V30 1835 C 169.162 4.26485 0.359823 0
M  V30 1836 C 168.488 5.14729 1.44769 0
M  V30 1837 C 169.788 5.17056 -0.738296 0
M  V30 1838 H 171.482 2.91183 -0.696636 0
M  V30 1839 H 169.028 1.40014 -0.336456 0
M  V30 1840 H 170.981 3.93161 1.51666 0
M  V30 1841 H 169.705 2.7226 1.80395 0
M  V30 1842 H 168.364 3.66437 -0.10934 0
M  V30 1843 H 168.012 4.51566 2.21578 0
M  V30 1844 H 167.712 5.78913 1.00668 0
M  V30 1845 H 169.236 5.78991 1.93911 0
M  V30 1846 H 170.65 5.72342 -0.331354 0
M  V30 1847 H 169.047 5.89879 -1.10286 0
M  V30 1848 H 170.117 4.57652 -1.60258 0
M  V30 1849 N 171.46 0.379036 1.52974 0
M  V30 1850 C 172.407 -0.461048 2.26148 0
M  V30 1851 C 173.377 -1.06637 1.27349 0
M  V30 1852 O 174.562 -1.09633 1.56157 0
M  V30 1853 C 171.702 -1.58782 3.06402 0
M  V30 1854 C 170.815 -1.00636 4.20115 0
M  V30 1855 C 169.95 -2.10334 4.87784 0
M  V30 1856 C 168.989 -1.49724 5.93506 0
M  V30 1857 N 168.126 -2.5331 6.54812 0
M  V30 1858 H 172.966 0.169429 2.97518 0
M  V30 1859 H 170.503 0.0953806 1.4679 0
M  V30 1860 H 172.461 -2.25174 3.51215 0
M  V30 1861 H 171.091 -2.18876 2.37261 0
M  V30 1862 H 170.143 -0.232332 3.7969 0
M  V30 1863 H 171.455 -0.523343 4.96047 0
M  V30 1864 H 170.609 -2.84519 5.35849 0
M  V30 1865 H 169.348 -2.61992 4.11353 0
M  V30 1866 H 168.353 -0.740598 5.44789 0
M  V30 1867 H 169.578 -0.988732 6.71864 0
M  V30 1868 H 167.524 -3.04156 5.81227 0
M  V30 1869 H 167.441 -2.09734 7.26325 0
M  V30 1870 H 168.709 -3.27155 7.07524 0
M  V30 1871 N 172.938 -1.57226 0.108567 0
M  V30 1872 C 174.187 -1.94008 -0.551703 0
M  V30 1873 C 174.5 -0.993442 -1.68494 0
M  V30 1874 O 175.706 -1.25551 -2.40726 0
M  V30 1875 C 174.162 -3.44763 -1.03279 0
M  V30 1876 C 173.77 -4.47943 0.0714193 0
M  V30 1877 C 175.514 -3.90483 -1.66503 0
M  V30 1878 C 173.421 -5.89865 -0.425779 0
M  V30 1879 H 172.351 -0.724206 -0.209863 0
M  V30 1880 H 175.002 -1.82547 0.186741 0
M  V30 1881 H 173.384 -3.51422 -1.82533 0
M  V30 1882 H 174.558 -4.52942 0.847365 0
M  V30 1883 H 172.873 -4.11913 0.609669 0
M  V30 1884 H 175.47 -4.93925 -2.04798 0
M  V30 1885 H 175.813 -3.29877 -2.53942 0
M  V30 1886 H 176.346 -3.86581 -0.938074 0
M  V30 1887 H 173.085 -6.54202 0.412316 0
M  V30 1888 H 172.605 -5.88309 -1.16843 0
M  V30 1889 H 174.284 -6.40844 -0.890397 0
M  V30 1890 N 174.416 0.165178 -1.56732 0
M  V30 1891 C 175.349 1.23336 -1.91998 0
M  V30 1892 C 176.327 1.42476 -0.783531 0
M  V30 1893 O 177.511 1.57384 -1.03743 0
M  V30 1894 C 174.638 2.59533 -2.17625 0
M  V30 1895 C 173.684 2.57093 -3.40302 0
M  V30 1896 S 174.517 2.05571 -4.9447 0
M  V30 1897 C 175.673 3.43532 -5.23198 0
M  V30 1898 H 175.906 0.932387 -2.82301 0
M  V30 1899 H 173.439 0.370013 -1.49901 0
M  V30 1900 H 175.397 3.37918 -2.3307 0
M  V30 1901 H 174.058 2.86827 -1.28019 0
M  V30 1902 H 173.251 3.57308 -3.55453 0
M  V30 1903 H 172.853 1.86806 -3.24005 0
M  V30 1904 H 175.145 4.39559 -5.15552 0
M  V30 1905 H 176.088 3.33251 -6.2478 0
M  V30 1906 H 176.496 3.39828 -4.50752 0
M  V30 1907 N 175.894 1.51508 0.433938 0
M  V30 1908 C 177.171 1.54888 1.19453 0
M  V30 1909 C 177.551 0.315154 2.08734 0
M  V30 1910 O 176.899 -0.699558 2.17528 0
M  V30 1911 C 177.109 2.86467 1.99342 0
M  V30 1912 C 178.457 3.38545 2.56267 0
M  V30 1913 O 179.481 2.88041 2.0955 0
M  V30 1914 O 178.34 4.26675 3.41483 0
M  V30 1915 H 175.434 0.622863 0.544032 0
M  V30 1916 H 177.98 1.63823 0.442732 0
M  V30 1917 H 176.752 3.67718 1.33788 0
M  V30 1918 H 176.375 2.8071 2.8158 0
M  V30 1919 N 177.372 -0.689602 1.41712 0
M  V30 1920 C 178.304 -1.815 1.39966 0
M  V30 1921 C 179.317 -1.59995 0.300917 0
M  V30 1922 O 180.506 -1.69387 0.563039 0
M  V30 1923 C 177.606 -3.18364 1.16179 0
M  V30 1924 C 176.779 -3.66847 2.38206 0
M  V30 1925 C 175.838 -4.82398 2.10186 0
M  V30 1926 O 174.864 -4.93706 2.83272 0
M  V30 1927 N 176.066 -5.70064 1.0958 0
M  V30 1928 H 178.831 -1.83488 2.36965 0
M  V30 1929 H 176.392 -0.872149 1.36401 0
M  V30 1930 H 178.384 -3.93301 0.953756 0
M  V30 1931 H 176.954 -3.11365 0.27756 0
M  V30 1932 H 176.174 -2.82751 2.74673 0
M  V30 1933 H 177.462 -3.95978 3.19498 0
M  V30 1934 H 176.86 -5.63565 0.491019 0
M  V30 1935 H 175.417 -6.44874 0.947656 0
M  V30 1936 N 178.85 -1.27639 -0.924453 0
M  V30 1937 C 179.813 -1.10681 -2.00705 0
M  V30 1938 C 180.813 -0.0497823 -1.60723 0
M  V30 1939 O 182.003 -0.294654 -1.7169 0
M  V30 1940 C 179.135 -0.687164 -3.33902 0
M  V30 1941 H 180.328 -2.06817 -2.17179 0
M  V30 1942 H 177.881 -1.10473 -1.10569 0
M  V30 1943 H 178.616 0.275439 -3.23128 0
M  V30 1944 H 178.401 -1.45061 -3.6428 0
M  V30 1945 H 179.891 -0.590853 -4.13399 0
M  V30 1946 N 180.328 1.1314 -1.09713 0
M  V30 1947 C 181.291 2.16831 -0.742751 0
M  V30 1948 C 182.291 1.59159 0.229129 0
M  V30 1949 O 183.481 1.74199 0.00693237 0
M  V30 1950 C 180.613 3.40756 -0.0989168 0
M  V30 1951 H 181.806 2.49695 -1.66109 0
M  V30 1952 H 179.359 1.2802 -0.896699 0
M  V30 1953 H 180.094 3.13485 0.830514 0
M  V30 1954 H 179.879 3.83888 -0.798265 0
M  V30 1955 H 181.369 4.17386 0.133524 0
M  V30 1956 N 181.806 0.884767 1.30421 0
M  V30 1957 C 182.754 0.340869 2.30089 0
M  V30 1958 C 183.748 -0.55201 1.60154 0
M  V30 1959 O 184.954 -0.436467 1.74628 0
M  V30 1960 H 181.329 0.0915739 0.746404 0
M  V30 1961 H 183.3 1.19513 2.73421 0
M  V30 1962 C 182.049 -0.429779 3.45034 0
M  V30 1963 H 181.372 0.248024 3.9903 0
M  V30 1964 H 182.812 -0.775445 4.16849 0
M  V30 1965 C 181.271 -1.62677 2.95022 0
M  V30 1966 O 181.801 -2.72614 2.95033 0
M  V30 1967 N 180.007 -1.46387 2.51036 0
M  V30 1968 H 179.554 -0.569506 2.51226 0
M  V30 1969 H 179.512 -2.26612 2.17932 0
M  V30 1970 N 183.284 -1.43765 0.645699 0
M  V30 1971 C 184.695 -1.85193 0.236719 0
M  V30 1972 C 185.046 -1.54045 -1.21509 0
M  V30 1973 O 184.171 -0.985694 -1.92647 0
M  V30 1974 C 184.766 -3.36151 0.422845 0
M  V30 1975 C 183.325 -3.76338 0.0682492 0
M  V30 1976 C 182.472 -2.67538 0.729306 0
M  V30 1977 H 185.423 -1.34025 0.849883 0
M  V30 1978 H 185.444 -3.79032 -0.333904 0
M  V30 1979 H 184.956 -3.5879 1.47958 0
M  V30 1980 H 183.057 -3.59312 -0.986179 0
M  V30 1981 H 183.17 -4.76603 0.488469 0
M  V30 1982 H 181.534 -2.54176 0.163235 0
M  V30 1983 H 182.317 -2.93006 1.78892 0
M  V30 1984 N 184.763 -0.387143 -1.52771 0
M  V30 1985 C 185.695 0.484089 -2.2403 0
M  V30 1986 C 186.708 1.02849 -1.26198 0
M  V30 1987 O 187.897 0.931186 -1.52286 0
M  V30 1988 C 184.997 1.68337 -2.94136 0
M  V30 1989 C 184.17 1.26672 -4.18656 0
M  V30 1990 C 183.229 2.33045 -4.7178 0
M  V30 1991 O 182.255 1.94541 -5.34923 0
M  V30 1992 N 183.457 3.64929 -4.5145 0
M  V30 1993 H 186.222 -0.126404 -2.99433 0
M  V30 1994 H 183.783 -0.213392 -1.60488 0
M  V30 1995 H 185.775 2.39019 -3.26577 0
M  V30 1996 H 184.345 2.20025 -2.22053 0
M  V30 1997 H 183.565 0.388878 -3.92277 0
M  V30 1998 H 184.853 0.964964 -4.99566 0
M  V30 1999 H 184.251 3.98974 -4.01044 0
M  V30 2000 H 182.808 4.31651 -4.88386 0
M  V30 2001 N 186.241 1.57166 -0.116904 0
M  V30 2002 C 187.471 1.99184 0.548586 0
M  V30 2003 C 187.879 0.995436 1.60897 0
M  V30 2004 O 187.222 -0.0201293 1.83689 0
M  V30 2005 C 187.284 3.37611 1.23526 0
M  V30 2006 C 186.948 4.55857 0.323077 0
M  V30 2007 C 187.945 5.18056 -0.437476 0
M  V30 2008 C 185.63 5.01751 0.234761 0
M  V30 2009 C 187.624 6.24536 -1.2741 0
M  V30 2010 C 185.311 6.08093 -0.605496 0
M  V30 2011 C 186.309 6.69352 -1.35856 0
M  V30 2012 O 185.997 7.7364 -2.18487 0
M  V30 2013 H 185.729 0.659148 0.149999 0
M  V30 2014 H 188.283 2.0443 -0.199428 0
M  V30 2015 H 186.513 3.29113 2.0303 0
M  V30 2016 H 188.202 3.63932 1.79745 0
M  V30 2017 H 188.968 4.83516 -0.379105 0
M  V30 2018 H 184.847 4.53817 0.810601 0
M  V30 2019 H 188.391 6.72281 -1.86237 0
M  V30 2020 H 184.288 6.42063 -0.665268 0
M  V30 2021 H 185.056 7.90727 -2.11406 0
M  V30 2022 N 187.719 -0.156864 1.56817 0
M  V30 2023 C 188.965 -0.872416 1.83076 0
M  V30 2024 C 189.298 -1.81261 0.697001 0
M  V30 2025 O 188.573 -1.92171 -0.30008 0
M  V30 2026 C 188.856 -1.65551 3.19789 0
M  V30 2027 C 188.709 -0.737467 4.43713 0
M  V30 2028 C 190.028 -2.62012 3.53606 0
M  V30 2029 H 187.147 -0.315715 0.665953 0
M  V30 2030 H 189.789 -0.138004 1.89498 0
M  V30 2031 H 187.939 -2.28159 3.14445 0
M  V30 2032 H 189.611 -0.123143 4.61136 0
M  V30 2033 H 187.854 -0.0464067 4.33775 0
M  V30 2034 H 188.525 -1.32122 5.35955 0
M  V30 2035 H 191.001 -2.09525 3.59497 0
M  V30 2036 H 189.877 -3.13861 4.50314 0
M  V30 2037 H 190.138 -3.42902 2.79053 0
M  V30 2038 N 189.197 -1.51736 -0.425897 0
M  V30 2039 C 190.443 -1.66174 -1.17294 0
M  V30 2040 C 190.798 -0.37876 -1.88635 0
M  V30 2041 O 190.091 0.626021 -1.81084 0
M  V30 2042 C 190.285 -2.81103 -2.20717 0
M  V30 2043 C 190.114 -4.20453 -1.59529 0
M  V30 2044 C 188.884 -4.86225 -1.37525 0
M  V30 2045 C 191.082 -5.03146 -1.06528 0
M  V30 2046 N 189.064 -6.09657 -0.720537 0
M  V30 2047 C 190.435 -6.17674 -0.536506 0
M  V30 2048 C 192.49 -4.88594 -0.958127 0
M  V30 2049 C 191.193 -7.19245 0.0888917 0
M  V30 2050 C 193.219 -5.90383 -0.346608 0
M  V30 2051 C 192.581 -7.04191 0.171564 0
M  V30 2052 H 188.68 -0.661871 -0.416475 0
M  V30 2053 H 191.264 -1.88997 -0.467801 0
M  V30 2054 H 189.435 -2.59924 -2.88607 0
M  V30 2055 H 191.167 -2.84662 -2.87663 0
M  V30 2056 H 187.922 -4.44293 -1.64015 0
M  V30 2057 H 188.346 -6.75756 -0.410292 0
M  V30 2058 H 192.988 -4.0085 -1.34459 0
M  V30 2059 H 190.706 -8.06628 0.48746 0
M  V30 2060 H 194.292 -5.81194 -0.265451 0
M  V30 2061 H 193.172 -7.81606 0.637309 0
M  V30 2062 N 190.675 0.682077 -1.42076 0
M  V30 2063 C 191.952 1.43755 -1.32642 0
M  V30 2064 C 192.332 2.11063 0.0396611 0
M  V30 2065 O 191.68 2.02701 1.05474 0
M  V30 2066 C 191.89 2.44596 -2.48946 0
M  V30 2067 C 193.238 3.09454 -2.9073 0
M  V30 2068 O 194.262 2.54922 -2.48783 0
M  V30 2069 O 193.121 4.08253 -3.63307 0
M  V30 2070 H 190.215 0.640857 -0.522715 0
M  V30 2071 H 192.761 0.711415 -1.54068 0
M  V30 2072 H 191.533 1.93609 -3.40046 0
M  V30 2073 H 191.156 3.24701 -2.29467 0
M  V30 2074 N 192.153 1.28127 0.917671 0
M  V30 2075 C 193.569 1.05749 1.19538 0
M  V30 2076 C 193.769 -0.202633 2.00479 0
M  V30 2077 O 192.825 -0.905382 2.3571 0
M  V30 2078 C 194.138 2.30273 1.93378 0
M  V30 2079 C 195.686 2.35412 2.06277 0
M  V30 2080 C 196.161 3.59692 2.83524 0
M  V30 2081 N 197.652 3.60309 2.91087 0
M  V30 2082 C 198.387 4.53147 3.51348 0
M  V30 2083 N 197.883 5.563 4.12919 0
M  V30 2084 N 199.676 4.40751 3.48849 0
M  V30 2085 H 191.827 2.09024 0.377184 0
M  V30 2086 H 194.09 0.919798 0.22951 0
M  V30 2087 H 193.796 3.22055 1.41328 0
M  V30 2088 H 193.67 2.36378 2.93947 0
M  V30 2089 H 196.057 1.4413 2.57508 0
M  V30 2090 H 196.138 2.33304 1.04895 0
M  V30 2091 H 195.782 4.51316 2.32973 0
M  V30 2092 H 195.712 3.59054 3.85211 0
M  V30 2093 H 198.203 2.85714 2.47338 0
M  V30 2094 H 198.516 6.2329 4.56869 0
M  V30 2095 H 196.861 5.60131 4.11435 0
M  V30 2096 H 200.052 3.59367 2.99955 0
M  V30 2097 H 200.225 5.13291 3.9552 0
M  V30 2098 N 193.631 -1.12557 1.10312 0
M  V30 2099 C 194.564 -2.1737 0.694674 0
M  V30 2100 C 195.542 -1.59745 -0.303373 0
M  V30 2101 O 196.726 -1.87408 -0.202578 0
M  V30 2102 C 193.853 -3.38691 0.0248052 0
M  V30 2103 C 192.899 -4.14943 0.986121 0
M  V30 2104 S 193.732 -4.73413 2.50281 0
M  V30 2105 C 194.888 -5.9807 1.84562 0
M  V30 2106 H 195.121 -2.5168 1.58255 0
M  V30 2107 H 192.654 -1.23998 0.919992 0
M  V30 2108 H 194.612 -4.08959 -0.355361 0
M  V30 2109 H 193.273 -3.02664 -0.839851 0
M  V30 2110 H 192.466 -5.01854 0.464651 0
M  V30 2111 H 192.068 -3.50377 1.30813 0
M  V30 2112 H 194.36 -6.67232 1.17507 0
M  V30 2113 H 195.303 -6.54841 2.69423 0
M  V30 2114 H 195.711 -5.49073 1.31069 0
M  V30 2115 N 195.109 -0.891671 -1.2995 0
M  V30 2116 C 196.039 -0.379797 -2.30391 0
M  V30 2117 C 197.02 0.540919 -1.6127 0
M  V30 2118 O 198.205 0.453352 -1.88834 0
M  V30 2119 C 195.335 0.400654 -3.44981 0
M  V30 2120 C 194.289 -0.428905 -4.25846 0
M  V30 2121 C 193.615 0.478557 -5.32554 0
M  V30 2122 C 194.915 -1.67458 -4.94727 0
M  V30 2123 H 196.609 -1.21914 -2.73454 0
M  V30 2124 H 194.155 -0.587675 -1.31462 0
M  V30 2125 H 196.108 0.769434 -4.14316 0
M  V30 2126 H 194.832 1.27371 -3.0074 0
M  V30 2127 H 193.491 -0.779911 -3.58208 0
M  V30 2128 H 193.139 1.34951 -4.84559 0
M  V30 2129 H 192.839 -0.0727433 -5.87555 0
M  V30 2130 H 194.363 0.843705 -6.04743 0
M  V30 2131 H 195.777 -1.376 -5.56542 0
M  V30 2132 H 194.174 -2.16659 -5.59624 0
M  V30 2133 H 195.244 -2.41518 -4.20473 0
M  V30 2134 N 196.587 1.43421 -0.653314 0
M  V30 2135 C 197.835 2.01414 -0.166415 0
M  V30 2136 C 198.156 1.51803 1.22397 0
M  V30 2137 O 197.426 0.730693 1.81763 0
M  V30 2138 H 196.006 0.744703 -0.0585319 0
M  V30 2139 H 198.668 1.75629 -0.845003 0
M  V30 2140 H 197.764 3.11734 -0.151111 0
M  V30 2141 N 198.065 0.39524 1.52563 0
M  V30 2142 C 199.313 -0.184678 2.01254 0
M  V30 2143 C 199.634 -1.46822 1.28329 0
M  V30 2144 O 198.904 -1.91666 0.405094 0
M  V30 2145 H 197.484 -0.0712355 0.743596 0
M  V30 2146 H 200.146 0.528293 1.87603 0
M  V30 2147 H 199.242 -0.390681 3.09645 0
M  V30 2148 N 199.544 -1.57102 0.125237 0
M  V30 2149 C 200.791 -1.95407 -0.531248 0
M  V30 2150 C 201.119 -1.0089 -1.66287 0
M  V30 2151 O 200.374 -0.0339431 -1.95671 0
M  V30 2152 C 200.673 -3.40096 -1.09862 0
M  V30 2153 C 200.339 -4.50815 -0.0876989 0
M  V30 2154 C 199.001 -4.80824 0.19026 0
M  V30 2155 C 201.353 -5.17724 0.600902 0
M  V30 2156 C 198.681 -5.75058 1.163 0
M  V30 2157 C 201.033 -6.13005 1.56231 0
M  V30 2158 C 199.697 -6.41403 1.8482 0
M  V30 2159 H 198.967 -0.715046 -0.194397 0
M  V30 2160 H 201.614 -1.90373 0.207463 0
M  V30 2161 H 199.919 -3.41855 -1.91422 0
M  V30 2162 H 201.616 -3.6705 -1.61478 0
M  V30 2163 H 198.206 -4.27444 -0.314528 0
M  V30 2164 H 202.39 -4.94691 0.399333 0
M  V30 2165 H 197.646 -5.95362 1.39117 0
M  V30 2166 H 201.82 -6.63934 2.10153 0
M  V30 2167 H 199.447 -7.14229 2.60349 0
M  V30 2168 N 201.022 0.148545 -1.56898 0
M  V30 2169 C 201.969 1.18345 -1.98149 0
M  V30 2170 C 202.939 1.42772 -0.848848 0
M  V30 2171 O 204.124 1.55132 -1.11079 0
M  V30 2172 C 201.264 2.51231 -2.36594 0
M  V30 2173 C 200.377 2.33991 -3.63142 0
M  V30 2174 C 199.512 3.59902 -3.90697 0
M  V30 2175 C 198.551 3.37692 -5.1052 0
M  V30 2176 N 197.688 4.5573 -5.34092 0
M  V30 2177 H 202.528 0.82467 -2.86362 0
M  V30 2178 H 200.065 0.395756 -1.41676 0
M  V30 2179 H 202.023 3.28713 -2.56912 0
M  V30 2180 H 200.653 2.85059 -1.51463 0
M  V30 2181 H 199.705 1.47572 -3.50609 0
M  V30 2182 H 201.017 2.13539 -4.5078 0
M  V30 2183 H 200.171 4.45813 -4.11505 0
M  V30 2184 H 198.91 3.83357 -3.01477 0
M  V30 2185 H 197.915 2.5017 -4.89587 0
M  V30 2186 H 199.14 3.15637 -6.0129 0
M  V30 2187 H 197.086 4.79361 -4.47827 0
M  V30 2188 H 197.003 4.38274 -6.15996 0
M  V30 2189 H 198.271 5.42858 -5.59397 0
M  V30 2190 N 202.5 1.5196 0.417844 0
M  V30 2191 C 203.45 1.7106 1.5074 0
M  V30 2192 C 204.434 0.564487 1.50673 0
M  V30 2193 O 205.626 0.821206 1.56797 0
M  V30 2194 C 202.755 1.85677 2.88754 0
M  V30 2195 C 201.841 3.06133 2.93502 0
M  V30 2196 N 202.232 4.28987 2.67962 0
M  V30 2197 C 200.53 3.05787 3.24669 0
M  V30 2198 C 201.231 5.10395 2.79055 0
M  V30 2199 N 200.207 4.45455 3.11561 0
M  V30 2200 H 204.009 2.63696 1.29775 0
M  V30 2201 H 201.523 1.49873 0.625436 0
M  V30 2202 H 203.52 1.97475 3.67164 0
M  V30 2203 H 202.18 0.942348 3.10725 0
M  V30 2204 H 203.191 4.57607 2.4252 0
M  V30 2205 H 199.868 2.2405 3.52289 0
M  V30 2206 H 201.258 6.18247 2.63097 0
M  V30 2207 N 203.978 -0.674533 1.42435 0
M  V30 2208 C 204.925 -1.78807 1.45934 0
M  V30 2209 C 205.895 -1.63157 0.311271 0
M  V30 2210 O 207.08 -1.83707 0.515383 0
M  V30 2211 C 204.22 -3.16839 1.36773 0
M  V30 2212 C 203.333 -3.43774 2.61617 0
M  V30 2213 C 202.468 -4.71536 2.44597 0
M  V30 2214 C 201.507 -4.91505 3.64814 0
M  V30 2215 N 200.644 -6.10508 3.46734 0
M  V30 2216 H 205.484 -1.75151 2.41093 0
M  V30 2217 H 203.021 -0.85504 1.19697 0
M  V30 2218 H 204.979 -3.96606 1.29459 0
M  V30 2219 H 203.609 -3.19619 0.452089 0
M  V30 2220 H 202.661 -2.58259 2.79297 0
M  V30 2221 H 203.973 -3.54423 3.50978 0
M  V30 2222 H 203.127 -5.59393 2.3487 0
M  V30 2223 H 201.866 -4.6317 1.52726 0
M  V30 2224 H 200.871 -4.0209 3.74972 0
M  V30 2225 H 202.096 -5.01716 4.57665 0
M  V30 2226 H 200.042 -6.03315 2.5758 0
M  V30 2227 H 199.959 -6.2202 4.29682 0
M  V30 2228 H 201.227 -7.01044 3.40819 0
M  V30 2229 N 205.456 -1.28612 -0.910864 0
M  V30 2230 C 206.404 -1.1265 -2.03501 0
M  V30 2231 C 207.398 -0.0450054 -1.6934 0
M  V30 2232 O 208.604 -0.203988 -1.7884 0
M  V30 2233 H 204.979 -0.347639 -0.666822 0
M  V30 2234 H 206.95 -2.07849 -2.14106 0
M  V30 2235 C 205.699 -0.808143 -3.38178 0
M  V30 2236 H 205.022 -1.63231 -3.6496 0
M  V30 2237 H 206.462 -0.736426 -4.17556 0
M  V30 2238 C 204.921 0.488226 -3.33344 0
M  V30 2239 O 205.451 1.51766 -3.71927 0
M  V30 2240 N 203.657 0.490009 -2.86439 0
M  V30 2241 H 203.204 -0.348161 -2.55236 0
M  V30 2242 H 203.162 1.35741 -2.83587 0
M  V30 2243 N 206.934 1.1197 -1.10907 0
M  V30 2244 C 208.181 1.83588 -0.854507 0
M  V30 2245 C 208.509 1.84357 0.6199 0
M  V30 2246 O 207.764 1.28809 1.47332 0
M  V30 2247 C 208.063 3.30749 -1.35425 0
M  V30 2248 C 207.729 3.50146 -2.84093 0
M  V30 2249 C 206.391 3.55148 -3.2469 0
M  V30 2250 C 208.743 3.56857 -3.79872 0
M  V30 2251 C 206.071 3.6441 -4.59806 0
M  V30 2252 C 208.423 3.6765 -5.14797 0
M  V30 2253 C 207.087 3.7091 -5.54961 0
M  V30 2254 H 206.357 0.671795 -0.312686 0
M  V30 2255 H 209.004 1.32091 -1.38652 0
M  V30 2256 H 207.309 3.84703 -0.742361 0
M  V30 2257 H 209.006 3.8464 -1.1337 0
M  V30 2258 H 205.596 3.46919 -2.51685 0
M  V30 2259 H 209.78 3.52258 -3.49611 0
M  V30 2260 H 205.036 3.65208 -4.9034 0
M  V30 2261 H 209.21 3.71786 -5.88853 0
M  V30 2262 H 206.837 3.7784 -6.59652 0
M  V30 2263 N 208.412 0.89855 1.29475 0
M  V30 2264 C 209.828 0.594483 1.48115 0
M  V30 2265 C 210.028 -0.86431 1.82022 0
M  V30 2266 O 209.084 -1.64457 1.91599 0
M  V30 2267 C 210.397 1.51932 2.59494 0
M  V30 2268 C 211.945 1.5244 2.7337 0
M  V30 2269 C 212.42 2.43548 3.87877 0
M  V30 2270 N 213.911 2.41589 3.95208 0
M  V30 2271 C 214.646 3.08789 4.83153 0
M  V30 2272 N 214.142 3.85265 5.75798 0
M  V30 2273 N 215.935 2.97952 4.76635 0
M  V30 2274 H 208.086 1.84207 1.05742 0
M  V30 2275 H 210.349 0.789251 0.525154 0
M  V30 2276 H 210.055 2.55865 2.41301 0
M  V30 2277 H 209.929 1.23899 3.56271 0
M  V30 2278 H 212.316 0.492518 2.90961 0
M  V30 2279 H 212.397 1.8451 1.77172 0
M  V30 2280 H 212.041 3.46829 3.71041 0
M  V30 2281 H 211.971 2.08788 4.83441 0
M  V30 2282 H 214.462 1.86025 3.28943 0
M  V30 2283 H 214.775 4.33598 6.39697 0
M  V30 2284 H 213.12 3.89371 5.75687 0
M  V30 2285 H 216.311 2.37723 4.03244 0
M  V30 2286 H 216.484 3.50599 5.44962 0
M  V30 2287 N 209.89 -1.43072 0.660911 0
M  V30 2288 C 211.118 -2.06067 0.185422 0
M  V30 2289 C 211.533 -1.49582 -1.15198 0
M  V30 2290 O 210.89 -0.630134 -1.71276 0
M  V30 2291 C 210.941 -3.61371 0.0966523 0
M  V30 2292 O 210.662 -4.15758 1.38119 0
M  V30 2293 C 212.163 -4.41455 -0.403996 0
M  V30 2294 H 209.383 -0.664459 0.0934604 0
M  V30 2295 H 211.927 -1.83447 0.90373 0
M  V30 2296 H 210.082 -3.8315 -0.572259 0
M  V30 2297 H 210.496 -5.09499 1.24542 0
M  V30 2298 H 211.97 -5.50437 -0.415045 0
M  V30 2299 H 212.447 -4.15036 -1.43674 0
M  V30 2300 H 213.053 -4.24663 0.232691 0
M  V30 2301 N 211.368 -0.403325 -1.52352 0
M  V30 2302 C 212.784 -0.0539281 -1.59509 0
M  V30 2303 C 212.984 1.43307 -1.41652 0
M  V30 2304 O 212.04 2.19924 -1.24056 0
M  V30 2305 C 213.353 -0.543654 -2.95745 0
M  V30 2306 C 214.901 -0.501125 -3.08962 0
M  V30 2307 C 215.376 -0.967267 -4.47669 0
M  V30 2308 N 216.867 -0.923849 -4.53893 0
M  V30 2309 C 217.602 -1.25578 -5.5948 0
M  V30 2310 N 217.098 -1.65889 -6.72646 0
M  V30 2311 N 218.891 -1.17613 -5.49658 0
M  V30 2312 H 211.042 -1.37123 -1.62206 0
M  V30 2313 H 213.305 -0.56294 -0.76276 0
M  V30 2314 H 213.011 -1.58275 -3.14073 0
M  V30 2315 H 212.885 0.0498042 -3.77167 0
M  V30 2316 H 215.272 0.528909 -2.90321 0
M  V30 2317 H 215.353 -1.13056 -2.2946 0
M  V30 2318 H 214.997 -1.9956 -4.67053 0
M  V30 2319 H 214.927 -0.314698 -5.25659 0
M  V30 2320 H 217.418 -0.627403 -3.72655 0
M  V30 2321 H 217.731 -1.89543 -7.49195 0
M  V30 2322 H 216.076 -1.69787 -6.73942 0
M  V30 2323 H 219.267 -0.860115 -4.6013 0
M  V30 2324 H 219.44 -1.43812 -6.3184 0
M  V30 2325 N 212.846 1.57033 -0.133567 0
M  V30 2326 C 213.756 2.19632 0.824564 0
M  V30 2327 C 214.772 1.17666 1.28182 0
M  V30 2328 O 215.948 1.50193 1.3418 0
M  V30 2329 C 213.013 2.79499 2.05137 0
M  V30 2330 C 212.074 3.96548 1.64464 0
M  V30 2331 C 211.307 4.5355 2.81297 0
M  V30 2332 O 211.53 4.09438 3.97136 0
M  V30 2333 O 210.464 5.44018 2.57542 0
M  V30 2334 H 214.29 3.01991 0.321766 0
M  V30 2335 H 211.875 1.49112 0.0927889 0
M  V30 2336 H 213.757 3.17602 2.7696 0
M  V30 2337 H 212.432 2.00162 2.54395 0
M  V30 2338 H 211.339 3.63186 0.897048 0
M  V30 2339 H 212.672 4.77364 1.19934 0
M  V30 2340 N 214.325 -0.140222 1.56975 0
M  V30 2341 C 215.573 -0.850005 1.83356 0
M  V30 2342 C 215.894 -1.81399 0.71551 0
M  V30 2343 O 215.164 -1.94136 -0.262294 0
M  V30 2344 H 213.744 -0.316886 0.676456 0
M  V30 2345 H 216.406 -0.132608 1.94448 0
M  V30 2346 H 215.502 -1.40814 2.78528 0
M  V30 2347 N 215.803 -1.52179 -0.40978 0
M  V30 2348 C 217.052 -1.65434 -1.15388 0
M  V30 2349 C 217.365 -0.390056 -1.91671 0
M  V30 2350 O 218.571 -0.402399 -2.68501 0
M  V30 2351 C 217.027 -2.92279 -2.10003 0
M  V30 2352 C 216.635 -4.25813 -1.39239 0
M  V30 2353 C 218.379 -3.14897 -2.84675 0
M  V30 2354 C 216.286 -5.43782 -2.32498 0
M  V30 2355 H 215.216 -0.616267 -0.434432 0
M  V30 2356 H 217.867 -1.78666 -0.418401 0
M  V30 2357 H 216.249 -2.72744 -2.871 0
M  V30 2358 H 217.423 -4.55828 -0.675099 0
M  V30 2359 H 215.738 -4.09292 -0.766097 0
M  V30 2360 H 218.335 -4.0021 -3.54593 0
M  V30 2361 H 218.678 -2.29103 -3.47588 0
M  V30 2362 H 219.211 -3.34901 -2.14677 0
M  V30 2363 H 215.95 -6.3192 -1.74233 0
M  V30 2364 H 215.47 -5.18106 -3.02201 0
M  V30 2365 H 217.149 -5.76834 -2.93038 0
M  V30 2366 N 217.281 0.66697 -1.42791 0
M  V30 2367 C 218.521 1.43892 -1.4517 0
M  V30 2368 C 218.885 1.91877 -0.0687551 0
M  V30 2369 O 220.086 2.6878 0.0327455 0
M  V30 2370 C 218.357 2.59839 -2.45395 0
M  V30 2371 S 219.916 3.48572 -2.66539 0
M  V30 2372 H 216.734 0.491356 -0.513897 0
M  V30 2373 H 219.336 0.775656 -1.79454 0
M  V30 2374 H 218.04 2.22838 -3.44632 0
M  V30 2375 H 217.571 3.3103 -2.12562 0
M  V30 2376 H 219.586 4.56094 -1.95429 0
M  V30 2377 N 218.759 1.29093 0.90403 0
M  V30 2378 C 219.689 1.16401 2.02418 0
M  V30 2379 C 220.67 0.0593085 1.69997 0
M  V30 2380 O 221.855 0.238021 1.92736 0
M  V30 2381 C 218.985 0.835233 3.37107 0
M  V30 2382 C 217.939 1.89578 3.83724 0
M  V30 2383 C 217.265 1.42041 5.15489 0
M  V30 2384 C 218.565 3.30394 4.04521 0
M  V30 2385 H 220.259 2.10109 2.13295 0
M  V30 2386 H 217.805 1.01157 1.02486 0
M  V30 2387 H 219.758 0.733169 4.14973 0
M  V30 2388 H 218.482 -0.137543 3.2631 0
M  V30 2389 H 217.141 1.98715 3.08071 0
M  V30 2390 H 216.789 0.436426 5.01103 0
M  V30 2391 H 216.489 2.12964 5.4765 0
M  V30 2392 H 218.013 1.33176 5.959 0
M  V30 2393 H 219.427 3.24123 4.72882 0
M  V30 2394 H 217.824 3.99237 4.48029 0
M  V30 2395 H 218.894 3.73692 3.09002 0
M  V30 2396 N 220.237 -1.11381 1.11499 0
M  V30 2397 C 221.477 -1.84763 0.874188 0
M  V30 2398 C 221.841 -1.82726 -0.589496 0
M  V30 2399 O 223.042 -2.51562 -0.947089 0
M  V30 2400 C 221.313 -3.27931 1.42112 0
M  V30 2401 S 222.872 -4.18557 1.31739 0
M  V30 2402 H 219.69 -0.637115 0.315603 0
M  V30 2403 H 222.292 -1.34097 1.42261 0
M  V30 2404 H 220.996 -3.26978 2.48019 0
M  V30 2405 H 220.527 -3.83665 0.869761 0
M  V30 2406 H 222.542 -4.95396 0.282335 0
M  V30 2407 N 221.715 -0.905404 -1.28997 0
M  V30 2408 C 222.645 -0.404212 -2.29975 0
M  V30 2409 C 223.626 0.523784 -1.61835 0
M  V30 2410 O 224.811 0.433298 -1.89304 0
M  V30 2411 C 221.941 0.364042 -3.45387 0
M  V30 2412 C 220.895 -0.474048 -4.25367 0
M  V30 2413 C 220.221 0.422045 -5.33032 0
M  V30 2414 C 221.521 -1.72696 -4.92923 0
M  V30 2415 H 223.215 -1.24807 -2.72146 0
M  V30 2416 H 220.761 -0.601585 -1.30832 0
M  V30 2417 H 222.714 0.725447 -4.15109 0
M  V30 2418 H 221.438 1.24174 -3.02074 0
M  V30 2419 H 220.097 -0.81786 -3.57361 0
M  V30 2420 H 219.745 1.29804 -4.85963 0
M  V30 2421 H 219.445 -0.135057 -5.87445 0
M  V30 2422 H 220.969 0.779517 -6.05604 0
M  V30 2423 H 222.383 -1.43495 -5.55051 0
M  V30 2424 H 220.78 -2.22582 -5.57295 0
M  V30 2425 H 221.85 -2.45964 -4.17887 0
M  V30 2426 N 223.193 1.4272 -0.668489 0
M  V30 2427 C 224.442 2.00846 -0.185389 0
M  V30 2428 C 224.755 1.53442 1.21305 0
M  V30 2429 O 225.961 2.03944 1.79218 0
M  V30 2430 C 224.417 3.58805 -0.280591 0
M  V30 2431 C 224.025 4.15198 -1.68268 0
M  V30 2432 C 225.769 4.24255 0.14412 0
M  V30 2433 C 223.676 5.655 -1.73099 0
M  V30 2434 H 222.606 0.751145 -0.0655475 0
M  V30 2435 H 225.257 1.63516 -0.832752 0
M  V30 2436 H 223.639 3.93608 0.434553 0
M  V30 2437 H 224.813 3.91866 -2.42441 0
M  V30 2438 H 223.128 3.62176 -2.05469 0
M  V30 2439 H 225.725 5.34547 0.128086 0
M  V30 2440 H 226.068 3.99277 1.17827 0
M  V30 2441 H 226.601 3.94389 -0.519798 0
M  V30 2442 H 223.34 5.95268 -2.74475 0
M  V30 2443 H 222.86 5.90842 -1.03274 0
M  V30 2444 H 224.539 6.29808 -1.48158 0
M  V30 2445 N 224.671 0.411399 1.52136 0
M  V30 2446 C 225.634 -0.401089 2.25663 0
M  V30 2447 C 226.634 -0.971732 1.28117 0
M  V30 2448 O 227.824 -0.850254 1.52041 0
M  V30 2449 C 224.956 -1.56483 3.02863 0
M  V30 2450 H 226.149 0.24295 2.98914 0
M  V30 2451 H 223.702 0.163968 1.55438 0
M  V30 2452 H 224.437 -2.24567 2.33967 0
M  V30 2453 H 224.222 -1.16211 3.74483 0
M  V30 2454 H 225.712 -2.13951 3.58629 0
M  V30 2455 N 226.149 -1.5696 0.141893 0
M  V30 2456 C 227.377 -2.00322 -0.517579 0
M  V30 2457 C 227.792 -1.02193 -1.58752 0
M  V30 2458 O 227.149 -0.0181619 -1.82491 0
M  V30 2459 C 227.2 -3.43618 -1.12289 0
M  V30 2460 O 226.921 -4.37995 -0.0956929 0
M  V30 2461 C 228.422 -4.02231 -1.86347 0
M  V30 2462 H 225.642 -0.657243 -0.135177 0
M  V30 2463 H 228.186 -2.03146 0.234973 0
M  V30 2464 H 226.341 -3.41662 -1.82609 0
M  V30 2465 H 226.755 -5.21729 -0.538469 0
M  V30 2466 H 228.229 -5.04509 -2.23997 0
M  V30 2467 H 228.706 -3.42655 -2.74744 0
M  V30 2468 H 229.312 -4.07802 -1.20737 0
M  V30 2469 N 227.627 0.131896 -1.57047 0
M  V30 2470 C 228.557 1.16384 -2.02428 0
M  V30 2471 C 229.538 1.43936 -0.90644 0
M  V30 2472 O 230.723 1.54599 -1.17528 0
M  V30 2473 C 227.853 2.49328 -2.4177 0
M  V30 2474 C 226.807 2.36266 -3.56879 0
M  V30 2475 C 226.133 3.74057 -3.8208 0
M  V30 2476 C 227.433 1.834 -4.89042 0
M  V30 2477 H 229.127 0.786433 -2.88887 0
M  V30 2478 H 226.673 0.376855 -1.38981 0
M  V30 2479 H 228.626 3.21759 -2.7212 0
M  V30 2480 H 227.35 2.88934 -1.52266 0
M  V30 2481 H 226.009 1.66286 -3.26718 0
M  V30 2482 H 225.657 4.11125 -2.89803 0
M  V30 2483 H 225.357 3.66174 -4.59554 0
M  V30 2484 H 226.881 4.48012 -4.1487 0
M  V30 2485 H 228.295 2.45636 -5.18011 0
M  V30 2486 H 226.692 1.8637 -5.70426 0
M  V30 2487 H 227.762 0.790662 -4.7841 0
M  V30 2488 N 229.106 1.52395 0.401703 0
M  V30 2489 C 230.054 1.7689 1.51039 0
M  V30 2490 C 231.048 0.636298 1.56996 0
M  V30 2491 O 232.254 0.818507 1.60314 0
M  V30 2492 H 228.629 0.559502 0.502456 0
M  V30 2493 H 230.6 2.69757 1.27568 0
M  V30 2494 C 229.349 1.94331 2.88324 0
M  V30 2495 H 228.672 2.80905 2.84486 0
M  V30 2496 H 230.112 2.15466 3.65172 0
M  V30 2497 C 228.571 0.712396 3.29282 0
M  V30 2498 O 229.101 -0.116218 4.01532 0
M  V30 2499 N 227.307 0.546154 2.85422 0
M  V30 2500 H 226.854 1.22156 2.26794 0
M  V30 2501 H 226.812 -0.276113 3.13185 0
M  V30 2502 N 230.584 -0.659388 1.43143 0
M  V30 2503 C 231.547 -1.75432 1.47501 0
M  V30 2504 C 232.547 -1.56707 0.360512 0
M  V30 2505 O 233.737 -1.62717 0.622002 0
M  V30 2506 C 230.869 -3.14239 1.32162 0
M  V30 2507 H 232.062 -1.7295 2.45006 0
M  V30 2508 H 229.615 -0.870469 1.29817 0
M  V30 2509 H 230.35 -3.22336 0.356401 0
M  V30 2510 H 230.135 -3.29235 2.12948 0
M  V30 2511 H 231.625 -3.94094 1.3813 0
M  V30 2512 N 232.062 -1.29571 -0.897171 0
M  V30 2513 C 233.287 -1.20705 -1.68656 0
M  V30 2514 C 233.712 0.228582 -1.86706 0
M  V30 2515 O 233.07 1.16494 -1.3892 0
M  V30 2516 C 233.118 -1.9282 -3.04717 0
M  V30 2517 O 232.222 -1.24697 -3.93096 0
M  V30 2518 H 231.563 -0.418126 -0.515816 0
M  V30 2519 H 234.093 -1.71183 -1.12061 0
M  V30 2520 H 234.103 -2.01372 -3.54843 0
M  V30 2521 H 232.778 -2.97239 -2.90899 0
M  V30 2522 H 231.355 -1.2442 -3.51531 0
M  V30 2523 N 233.54 1.10788 -1.12088 0
M  V30 2524 C 234.788 1.8231 -0.872205 0
M  V30 2525 C 235.109 1.85419 0.603709 0
M  V30 2526 O 234.379 1.32963 1.43867 0
M  V30 2527 H 232.959 0.675137 -0.319686 0
M  V30 2528 H 235.621 1.34068 -1.41463 0
M  V30 2529 H 234.717 2.85955 -1.25045 0
M  V30 2530 N 235.018 0.912232 1.28515 0
M  V30 2531 C 235.981 0.404223 2.25607 0
M  V30 2532 C 236.981 -0.468602 1.53821 0
M  V30 2533 O 238.171 -0.271873 1.72065 0
M  V30 2534 C 235.303 -0.420653 3.38295 0
M  V30 2535 H 236.496 1.26188 2.7206 0
M  V30 2536 H 234.049 0.691495 1.40171 0
M  V30 2537 H 234.784 -1.29777 2.97201 0
M  V30 2538 H 234.569 0.204935 3.91564 0
M  V30 2539 H 236.059 -0.766971 4.10496 0
M  V30 2540 N 236.496 -1.42363 0.676048 0
M  V30 2541 C 237.428 -2.29164 -0.0404605 0
M  V30 2542 C 238.441 -1.43747 -0.764245 0
M  V30 2543 O 239.63 -1.67453 -0.618195 0
M  V30 2544 C 236.73 -3.21196 -1.08103 0
M  V30 2545 C 235.903 -4.35273 -0.430812 0
M  V30 2546 C 234.962 -5.08017 -1.37133 0
M  V30 2547 O 233.988 -5.62494 -0.87116 0
M  V30 2548 N 235.19 -5.13647 -2.70456 0
M  V30 2549 H 237.955 -2.91298 0.704667 0
M  V30 2550 H 235.516 -1.53303 0.520559 0
M  V30 2551 H 237.508 -3.66728 -1.71152 0
M  V30 2552 H 236.078 -2.60505 -1.72788 0
M  V30 2553 H 235.298 -3.92372 0.379209 0
M  V30 2554 H 236.586 -5.08795 0.0221132 0
M  V30 2555 H 235.984 -4.708 -3.1363 0
M  V30 2556 H 234.541 -5.62821 -3.28749 0
M  V30 2557 N 237.974 -0.419461 -1.51915 0
M  V30 2558 C 239.202 0.152136 -2.0634 0
M  V30 2559 C 239.617 1.37988 -1.28859 0
M  V30 2560 O 238.974 1.79243 -0.343232 0
M  V30 2561 C 239.025 0.492266 -3.58133 0
M  V30 2562 O 238.746 -0.686736 -4.32684 0
M  V30 2563 C 240.247 1.11648 -4.2901 0
M  V30 2564 H 237.467 0.0158325 -0.670813 0
M  V30 2565 H 240.011 -0.593394 -1.95702 0
M  V30 2566 H 238.166 1.18769 -3.68745 0
M  V30 2567 H 238.58 -0.400341 -5.2297 0
M  V30 2568 H 240.054 1.3046 -5.36362 0
M  V30 2569 H 240.531 2.09251 -3.86148 0
M  V30 2570 H 241.137 0.460958 -4.22795 0
M  V30 2571 N 239.452 1.56882 -0.150215 0
M  V30 2572 C 240.382 2.19935 0.784284 0
M  V30 2573 C 241.363 1.14854 1.25469 0
M  V30 2574 O 242.548 1.43209 1.31168 0
M  V30 2575 C 239.678 2.82349 2.02229 0
M  V30 2576 C 238.632 3.93285 1.68853 0
M  V30 2577 C 237.958 4.42649 2.99944 0
M  V30 2578 C 239.258 5.13904 0.932714 0
M  V30 2579 H 240.952 2.9828 0.258781 0
M  V30 2580 H 238.498 1.43473 0.123029 0
M  V30 2581 H 240.451 3.25126 2.68088 0
M  V30 2582 H 239.175 2.0134 2.57157 0
M  V30 2583 H 237.834 3.5113 1.05371 0
M  V30 2584 H 237.482 3.58458 3.52869 0
M  V30 2585 H 237.182 5.17476 2.78374 0
M  V30 2586 H 238.706 4.88099 3.66868 0
M  V30 2587 H 240.12 5.53506 1.49345 0
M  V30 2588 H 238.517 5.94515 0.81684 0
M  V30 2589 H 239.587 4.84842 -0.0749568 0
M  V30 2590 N 240.93 -0.123565 1.57115 0
M  V30 2591 C 242.158 -0.846461 1.88793 0
M  V30 2592 C 242.573 -1.73652 0.740976 0
M  V30 2593 O 241.93 -1.80207 -0.288393 0
M  V30 2594 C 241.981 -1.6837 3.19897 0
M  V30 2595 O 241.702 -0.829477 4.30176 0
M  V30 2596 C 243.203 -2.51214 3.65248 0
M  V30 2597 H 240.423 -0.243573 0.625231 0
M  V30 2598 H 242.967 -0.109324 2.04208 0
M  V30 2599 H 241.122 -2.37364 3.06165 0
M  V30 2600 H 241.536 -1.40651 5.0529 0
M  V30 2601 H 243.01 -3.05497 4.59756 0
M  V30 2602 H 243.487 -3.28359 2.9168 0
M  V30 2603 H 244.093 -1.8747 3.81752 0
M  V30 2604 N 242.408 -1.52605 -0.393616 0
M  V30 2605 C 243.338 -1.80022 -1.48709 0
M  V30 2606 C 244.319 -0.651995 -1.57108 0
M  V30 2607 O 245.504 -0.89913 -1.72132 0
M  V30 2608 C 242.634 -1.96492 -2.86371 0
M  V30 2609 C 241.588 -3.12161 -2.92813 0
M  V30 2610 C 240.914 -3.13877 -4.3288 0
M  V30 2611 C 242.214 -4.51322 -2.6288 0
M  V30 2612 H 243.908 -2.71589 -1.26015 0
M  V30 2613 H 241.454 -1.30684 -0.604778 0
M  V30 2614 H 243.407 -2.14255 -3.62867 0
M  V30 2615 H 242.131 -1.01611 -3.10391 0
M  V30 2616 H 240.79 -2.94173 -2.18764 0
M  V30 2617 H 240.438 -2.16687 -4.53933 0
M  V30 2618 H 240.138 -3.91576 -4.38112 0
M  V30 2619 H 241.662 -3.33789 -5.1129 0
M  V30 2620 H 243.076 -4.69435 -3.29096 0
M  V30 2621 H 241.473 -5.31053 -2.79468 0
M  V30 2622 H 242.543 -4.58353 -1.58242 0
M  V30 2623 N 243.887 0.651787 -1.4349 0
M  V30 2624 C 245.112 1.44434 -1.48841 0
M  V30 2625 C 245.537 1.8779 -0.107955 0
M  V30 2626 O 244.895 1.57464 0.898602 0
M  V30 2627 C 244.943 2.65458 -2.44059 0
M  V30 2628 O 244.047 3.64566 -1.92784 0
M  V30 2629 H 243.388 0.433005 -0.503391 0
M  V30 2630 H 245.918 0.797451 -1.88419 0
M  V30 2631 H 245.928 3.13255 -2.6141 0
M  V30 2632 H 244.603 2.33244 -3.4434 0
M  V30 2633 H 243.18 3.23716 -1.851 0
M  V30 2634 N 245.365 1.30045 0.890287 0
M  V30 2635 C 246.312 1.15976 1.99545 0
M  V30 2636 C 247.282 0.0506202 1.66023 0
M  V30 2637 O 248.467 0.219847 1.89529 0
M  V30 2638 C 245.607 0.852054 3.34416 0
M  V30 2639 C 244.72 2.04255 3.80662 0
M  V30 2640 C 243.855 1.6734 5.04154 0
M  V30 2641 C 242.894 2.82916 5.42794 0
M  V30 2642 N 242.031 2.46333 6.57468 0
M  V30 2643 H 246.871 2.10524 2.10911 0
M  V30 2644 H 244.408 1.04749 1.03276 0
M  V30 2645 H 246.366 0.654296 4.12037 0
M  V30 2646 H 244.996 -0.0565502 3.2275 0
M  V30 2647 H 244.048 2.35172 2.98995 0
M  V30 2648 H 245.36 2.90826 4.05242 0
M  V30 2649 H 244.514 1.43908 5.89386 0
M  V30 2650 H 243.253 0.779308 4.81433 0
M  V30 2651 H 242.258 3.0702 4.56091 0
M  V30 2652 H 243.483 3.73004 5.6749 0
M  V30 2653 H 241.429 1.59423 6.36334 0
M  V30 2654 H 241.346 3.26436 6.81891 0
M  V30 2655 H 242.614 2.26244 7.45945 0
M  V30 2656 N 246.843 -1.10192 1.12674 0
M  V30 2657 C 248.092 -1.81573 0.8783 0
M  V30 2658 C 248.405 -1.86249 -0.597557 0
M  V30 2659 O 249.611 -2.5386 -0.962681 0
M  V30 2660 C 248.067 -3.26149 1.52167 0
M  V30 2661 C 247.675 -3.29763 3.03249 0
M  V30 2662 C 249.419 -4.0234 1.3536 0
M  V30 2663 C 247.326 -4.68815 3.60508 0
M  V30 2664 H 246.256 -0.680394 0.324931 0
M  V30 2665 H 248.907 -1.23902 1.35353 0
M  V30 2666 H 247.289 -3.83832 0.974104 0
M  V30 2667 H 248.463 -2.8189 3.6452 0
M  V30 2668 H 246.778 -2.67059 3.19481 0
M  V30 2669 H 249.375 -5.05058 1.75559 0
M  V30 2670 H 249.718 -4.15235 0.297554 0
M  V30 2671 H 250.251 -3.51079 1.87052 0
M  V30 2672 H 246.99 -4.61121 4.65884 0
M  V30 2673 H 246.51 -5.17045 3.04014 0
M  V30 2674 H 248.189 -5.37785 3.59717 0
M  V30 2675 N 248.321 -0.919034 -1.28029 0
M  V30 2676 C 249.567 -0.555757 -1.95036 0
M  V30 2677 C 249.9 0.899198 -1.72128 0
M  V30 2678 O 249.175 1.64023 -1.04531 0
M  V30 2679 C 249.458 -0.872024 -3.49382 0
M  V30 2680 C 249.311 -2.3801 -3.81669 0
M  V30 2681 C 250.63 -0.37185 -4.38526 0
M  V30 2682 H 247.749 -0.203386 -0.708381 0
M  V30 2683 H 250.391 -1.14924 -1.51303 0
M  V30 2684 H 248.541 -0.366946 -3.86763 0
M  V30 2685 H 250.213 -2.9562 -3.54128 0
M  V30 2686 H 248.456 -2.83289 -3.28526 0
M  V30 2687 H 249.127 -2.55192 -4.8947 0
M  V30 2688 H 251.603 -0.804602 -4.08247 0
M  V30 2689 H 250.479 -0.622173 -5.45362 0
M  V30 2690 H 250.74 0.727934 -4.36066 0
M  V30 2691 N 249.799 1.42003 -0.683588 0
M  V30 2692 C 251.21 1.84501 -0.285736 0
M  V30 2693 C 251.561 1.57213 1.17382 0
M  V30 2694 O 250.686 1.03642 1.89966 0
M  V30 2695 C 251.281 3.34912 -0.511821 0
M  V30 2696 C 249.84 3.76025 -0.168005 0
M  V30 2697 C 248.987 2.6551 -0.799983 0
M  V30 2698 H 251.938 1.31724 -0.885119 0
M  V30 2699 H 251.959 3.79784 0.233292 0
M  V30 2700 H 251.471 3.54741 -1.57418 0
M  V30 2701 H 249.572 3.61801 0.890567 0
M  V30 2702 H 249.685 4.75141 -0.614661 0
M  V30 2703 H 248.049 2.53654 -0.230568 0
M  V30 2704 H 248.832 2.8816 -1.86597 0
M  V30 2705 N 251.277 0.427512 1.51691 0
M  V30 2706 C 252.227 -0.406604 2.24345 0
M  V30 2707 C 253.211 -0.998276 1.26187 0
M  V30 2708 O 254.403 -0.918045 1.51331 0
M  V30 2709 C 251.532 -1.51266 3.08177 0
M  V30 2710 C 250.618 -0.930868 4.13758 0
M  V30 2711 N 251.009 -0.0773552 5.05741 0
M  V30 2712 C 249.307 -1.19948 4.29568 0
M  V30 2713 C 250.008 0.248344 5.8117 0
M  V30 2714 N 248.984 -0.365535 5.4237 0
M  V30 2715 H 252.786 0.251581 2.92821 0
M  V30 2716 H 250.3 0.239003 1.60632 0
M  V30 2717 H 252.297 -2.123 3.58796 0
M  V30 2718 H 250.957 -2.17328 2.41244 0
M  V30 2719 H 251.968 0.288351 5.17097 0
M  V30 2720 H 248.645 -1.85832 3.73862 0
M  V30 2721 H 250.035 0.942286 6.6526 0
M  V30 2722 N 252.755 -1.56801 0.158532 0
M  V30 2723 C 254.004 -1.95665 -0.489702 0
M  V30 2724 C 254.317 -1.04654 -1.65248 0
M  V30 2725 O 255.523 -1.33146 -2.3661 0
M  V30 2726 C 253.979 -3.47874 -0.922582 0
M  V30 2727 C 253.587 -4.47489 0.213893 0
M  V30 2728 C 255.331 -3.95583 -1.53996 0
M  V30 2729 C 253.238 -5.90921 -0.237903 0
M  V30 2730 H 252.168 -0.730516 -0.186716 0
M  V30 2731 H 254.819 -1.81861 0.244722 0
M  V30 2732 H 253.201 -3.57051 -1.71261 0
M  V30 2733 H 254.375 -4.50017 0.991036 0
M  V30 2734 H 252.69 -4.09764 0.740407 0
M  V30 2735 H 255.287 -5.0019 -1.8898 0
M  V30 2736 H 255.63 -3.37789 -2.43319 0
M  V30 2737 H 256.163 -3.8937 -0.814611 0
M  V30 2738 H 252.902 -6.52559 0.620236 0
M  V30 2739 H 252.422 -5.91729 -0.980676 0
M  V30 2740 H 254.101 -6.43352 -0.686067 0
M  V30 2741 N 254.233 0.115231 -1.57178 0
M  V30 2742 C 255.473 0.828199 -1.8687 0
M  V30 2743 C 255.837 1.76873 -0.747002 0
M  V30 2744 O 257.038 2.52354 -0.925785 0
M  V30 2745 C 255.309 1.55515 -3.21792 0
M  V30 2746 S 256.868 2.30917 -3.73125 0
M  V30 2747 H 253.686 0.27634 -0.655101 0
M  V30 2748 H 256.288 0.0863469 -1.95309 0
M  V30 2749 H 254.992 0.856248 -4.01368 0
M  V30 2750 H 254.523 2.3373 -3.16439 0
M  V30 2751 H 256.538 3.56705 -3.44929 0
M  V30 2752 N 255.711 1.52812 0.385517 0
M  V30 2753 C 256.659 1.78482 1.49155 0
M  V30 2754 C 257.653 0.652914 1.56312 0
M  V30 2755 O 258.859 0.835464 1.59436 0
M  V30 2756 H 255.234 0.5648 0.496493 0
M  V30 2757 H 257.205 2.71095 1.24699 0
M  V30 2758 C 255.954 1.97378 2.86247 0
M  V30 2759 H 255.277 2.83907 2.81491 0
M  V30 2760 H 256.717 2.19327 3.62866 0
M  V30 2761 C 255.176 0.74728 3.28508 0
M  V30 2762 O 255.706 -0.0736232 4.01633 0
M  V30 2763 N 253.912 0.576396 2.84826 0
M  V30 2764 H 253.459 1.24555 2.25486 0
M  V30 2765 H 253.417 -0.24288 3.1346 0
M  V30 2766 N 257.189 -0.644168 1.43834 0
M  V30 2767 C 258.119 -1.76814 1.52509 0
M  V30 2768 C 259.1 -1.65823 0.379052 0
M  V30 2769 O 260.285 -1.84781 0.597466 0
M  V30 2770 C 257.415 -3.15288 1.4564 0
M  V30 2771 C 256.369 -3.41053 2.58586 0
M  V30 2772 C 255.695 -4.79421 2.36769 0
M  V30 2773 C 256.995 -3.34902 4.00797 0
M  V30 2774 H 258.689 -1.69812 2.46586 0
M  V30 2775 H 256.235 -0.815542 1.1868 0
M  V30 2776 H 258.188 -3.93681 1.50311 0
M  V30 2777 H 256.912 -3.23043 0.480725 0
M  V30 2778 H 255.571 -2.65035 2.53282 0
M  V30 2779 H 255.219 -4.83863 1.37424 0
M  V30 2780 H 254.919 -4.9762 3.12487 0
M  V30 2781 H 256.443 -5.6006 2.43238 0
M  V30 2782 H 257.857 -4.03218 4.07539 0
M  V30 2783 H 256.254 -3.64637 4.76613 0
M  V30 2784 H 257.324 -2.32928 4.25291 0
M  V30 2785 N 258.668 -1.30515 -0.883378 0
M  V30 2786 C 259.598 -1.19607 -2.00541 0
M  V30 2787 C 260.579 -0.086346 -1.69881 0
M  V30 2788 O 261.764 -0.268654 -1.92333 0
M  V30 2789 C 258.894 -0.888758 -3.35736 0
M  V30 2790 C 257.848 -1.95659 -3.8066 0
M  V30 2791 C 257.174 -1.50224 -5.13164 0
M  V30 2792 C 258.474 -3.36788 -3.99213 0
M  V30 2793 H 260.168 -2.13476 -2.09925 0
M  V30 2794 H 257.714 -1.02775 -1.00863 0
M  V30 2795 H 259.667 -0.799094 -4.13754 0
M  V30 2796 H 258.391 0.0856125 -3.26488 0
M  V30 2797 H 257.05 -2.03591 -3.04871 0
M  V30 2798 H 256.698 -0.516092 -5.00345 0
M  V30 2799 H 256.398 -2.2165 -5.44192 0
M  V30 2800 H 257.922 -1.42639 -5.93706 0
M  V30 2801 H 259.336 -3.31605 -4.67665 0
M  V30 2802 H 257.733 -4.06314 -4.41621 0
M  V30 2803 H 258.803 -3.78561 -3.03017 0
M  V30 2804 N 260.146 1.09593 -1.13257 0
M  V30 2805 C 261.394 1.81375 -0.891492 0
M  V30 2806 C 261.715 1.86049 0.584009 0
M  V30 2807 O 260.985 1.34481 1.42449 0
M  V30 2808 H 259.565 0.671708 -0.326828 0
M  V30 2809 H 262.227 1.3256 -1.42877 0
M  V30 2810 H 261.323 2.84612 -1.28071 0
M  V30 2811 N 261.624 0.925811 1.2754 0
M  V30 2812 C 262.901 0.483726 1.89524 0
M  V30 2813 C 263.281 -1.03809 1.83812 0
M  V30 2814 O 262.629 -1.89143 1.28207 0
M  V30 2815 C 262.839 1.02769 3.33526 0
M  V30 2816 C 264.187 1.08703 4.10449 0
M  V30 2817 O 265.211 0.977175 3.42534 0
M  V30 2818 O 264.07 1.25599 5.31871 0
M  V30 2819 H 261.164 0.15529 0.812289 0
M  V30 2820 H 263.71 1.01738 1.35822 0
M  V30 2821 H 262.482 2.07155 3.31967 0
M  V30 2822 H 262.105 0.475567 3.94746 0
M  V30 2823 N 263.102 -1.41638 0.69111 0
M  V30 2824 C 264.513 -1.84346 0.295517 0
M  V30 2825 C 264.864 -1.57833 -1.16547 0
M  V30 2826 O 263.989 -1.04648 -1.89414 0
M  V30 2827 C 264.584 -3.34636 0.529575 0
M  V30 2828 C 263.143 -3.7593 0.187944 0
M  V30 2829 C 262.29 -2.65082 0.814052 0
M  V30 2830 H 265.241 -1.31253 0.892092 0
M  V30 2831 H 265.262 -3.79903 -0.213148 0
M  V30 2832 H 264.774 -3.53901 1.59297 0
M  V30 2833 H 262.875 -3.62268 -0.871367 0
M  V30 2834 H 262.988 -4.74808 0.63985 0
M  V30 2835 H 261.352 -2.53528 0.244017 0
M  V30 2836 H 262.135 -2.87167 1.88123 0
M  V30 2837 N 264.58 -0.43555 -1.51462 0
M  V30 2838 C 265.528 0.391205 -2.29287 0
M  V30 2839 C 266.522 1.02247 -1.35062 0
M  V30 2840 O 267.728 0.957646 -1.52411 0
M  V30 2841 H 264.103 0.144968 -0.737895 0
M  V30 2842 H 266.074 -0.286051 -2.97026 0
M  V30 2843 C 264.823 1.48096 -3.14583 0
M  V30 2844 H 264.146 1.00457 -3.86973 0
M  V30 2845 H 265.586 2.03273 -3.72097 0
M  V30 2846 C 264.045 2.46321 -2.29843 0
M  V30 2847 O 264.575 3.50815 -1.95682 0
M  V30 2848 N 262.781 2.17166 -1.931 0
M  V30 2849 H 262.328 1.32218 -2.21079 0
M  V30 2850 H 262.286 2.83127 -1.36698 0
M  V30 2851 N 266.058 1.56714 -0.166846 0
M  V30 2852 C 267.283 2.01557 0.488833 0
M  V30 2853 C 267.708 1.0463 1.56314 0
M  V30 2854 O 267.066 0.0251304 1.81283 0
M  V30 2855 C 267.114 3.4503 1.04818 0
M  V30 2856 O 266.218 3.51163 2.16236 0
M  V30 2857 H 265.559 0.653516 0.117526 0
M  V30 2858 H 268.089 2.02818 -0.269421 0
M  V30 2859 H 268.099 3.84243 1.37191 0
M  V30 2860 H 266.774 4.15077 0.261572 0
M  V30 2861 H 265.351 3.23807 1.84942 0
M  V30 2862 N 267.536 -0.106894 1.57237 0
M  V30 2863 C 268.468 -1.15646 1.97885 0
M  V30 2864 C 269.481 -1.36981 0.879779 0
M  V30 2865 O 270.67 -1.35841 1.15799 0
M  V30 2866 C 267.77 -2.51425 2.27241 0
M  V30 2867 C 266.943 -2.50529 3.58545 0
M  V30 2868 C 266.002 -3.68145 3.75973 0
M  V30 2869 O 265.028 -3.51176 4.47956 0
M  V30 2870 N 266.23 -4.87177 3.15656 0
M  V30 2871 H 268.995 -0.81059 2.8853 0
M  V30 2872 H 266.556 -0.296024 1.59171 0
M  V30 2873 H 268.548 -3.28689 2.36105 0
M  V30 2874 H 267.118 -2.78147 1.42663 0
M  V30 2875 H 266.338 -1.58894 3.60758 0
M  V30 2876 H 267.626 -2.46997 4.44826 0
M  V30 2877 H 267.024 -5.03868 2.57165 0
M  V30 2878 H 265.581 -5.62075 3.30023 0
M  V30 2879 N 269.014 -1.53014 -0.377408 0
M  V30 2880 C 270.26 -1.68872 -1.12294 0
M  V30 2881 C 270.593 -0.433224 -1.89306 0
M  V30 2882 O 269.868 0.569258 -1.85983 0
M  V30 2883 C 270.151 -2.93115 -2.09179 0
M  V30 2884 C 270.004 -4.28794 -1.35853 0
M  V30 2885 C 271.323 -3.12928 -3.09458 0
M  V30 2886 H 268.442 -0.614518 -0.406862 0
M  V30 2887 H 271.084 -1.85633 -0.40503 0
M  V30 2888 H 269.234 -2.78956 -2.70399 0
M  V30 2889 H 270.906 -4.54742 -0.775082 0
M  V30 2890 H 269.149 -4.28744 -0.660364 0
M  V30 2891 H 269.82 -5.11837 -2.06706 0
M  V30 2892 H 272.296 -3.26194 -2.58334 0
M  V30 2893 H 271.172 -4.01316 -3.74482 0
M  V30 2894 H 271.433 -2.27669 -3.78971 0
M  V30 2895 N 270.492 0.636531 -1.44174 0
M  V30 2896 C 271.908 0.954104 -1.27941 0
M  V30 2897 C 272.108 2.0039 -0.211248 0
M  V30 2898 O 271.164 2.49236 0.404695 0
M  V30 2899 C 272.477 1.4225 -2.64925 0
M  V30 2900 C 274.025 1.53827 -2.72592 0
M  V30 2901 C 274.5 2.04053 -4.10032 0
M  V30 2902 N 275.991 2.11331 -4.12182 0
M  V30 2903 C 276.726 2.51352 -5.15374 0
M  V30 2904 N 276.222 2.90549 -6.2893 0
M  V30 2905 N 278.015 2.51438 -5.02728 0
M  V30 2906 H 270.166 -0.0578386 -2.12321 0
M  V30 2907 H 272.429 0.0367406 -0.947288 0
M  V30 2908 H 272.135 0.725466 -3.44136 0
M  V30 2909 H 272.009 2.39451 -2.9145 0
M  V30 2910 H 274.396 2.22628 -1.93702 0
M  V30 2911 H 274.477 0.550154 -2.49814 0
M  V30 2912 H 274.121 1.35848 -4.89395 0
M  V30 2913 H 274.051 3.03726 -4.30184 0
M  V30 2914 H 276.542 1.83745 -3.30222 0
M  V30 2915 H 276.855 3.19884 -7.03487 0
M  V30 2916 H 275.2 2.88313 -6.32377 0
M  V30 2917 H 278.391 2.20203 -4.13072 0
M  V30 2918 H 278.564 2.82304 -5.83274 0
M  V30 2919 N 271.97 1.30982 0.876444 0
M  V30 2920 C 273.247 1.10942 1.61094 0
M  V30 2921 C 273.627 -0.338223 2.08373 0
M  V30 2922 O 272.975 -1.33122 1.85717 0
M  V30 2923 C 273.185 2.11789 2.77392 0
M  V30 2924 C 274.533 2.43965 3.47514 0
M  V30 2925 O 275.557 2.10166 2.87591 0
M  V30 2926 O 274.416 3.01817 4.55597 0
M  V30 2927 H 271.51 0.42667 0.708436 0
M  V30 2928 H 274.056 1.42438 0.922474 0
M  V30 2929 H 272.828 3.09194 2.39823 0
M  V30 2930 H 272.451 1.81161 3.5393 0
M  V30 2931 N 273.449 -1.08991 1.13837 0
M  V30 2932 C 274.412 -2.13925 0.822715 0
M  V30 2933 C 275.412 -1.599 -0.1699 0
M  V30 2934 O 276.602 -1.74104 0.0577251 0
M  V30 2935 C 273.734 -3.40155 0.225318 0
M  V30 2936 H 274.927 -2.43358 1.75262 0
M  V30 2937 H 272.48 -1.24603 0.943594 0
M  V30 2938 H 273.215 -3.16352 -0.713594 0
M  V30 2939 H 273 -3.80661 0.940193 0
M  V30 2940 H 274.49 -4.17594 0.0214784 0
M  V30 2941 N 274.927 -0.932562 -1.27047 0
M  V30 2942 C 275.89 -0.440064 -2.24936 0
M  V30 2943 C 276.89 0.444071 -1.54547 0
M  V30 2944 O 278.08 0.244465 -1.72476 0
M  V30 2945 C 275.212 0.36678 -3.38921 0
M  V30 2946 H 276.405 -1.305 -2.70018 0
M  V30 2947 H 273.958 -0.713707 -1.39054 0
M  V30 2948 H 274.693 1.25033 -2.99228 0
M  V30 2949 H 274.478 -0.267204 -3.91188 0
M  V30 2950 H 275.968 0.701567 -4.11665 0
M  V30 2951 N 276.405 1.4127 -0.698611 0
M  V30 2952 C 277.654 2.00408 -0.227949 0
M  V30 2953 C 277.967 1.55981 1.18023 0
M  V30 2954 O 279.173 2.07699 1.74852 0
M  V30 2955 C 277.629 3.58129 -0.356636 0
M  V30 2956 C 277.237 4.11536 -1.77037 0
M  V30 2957 C 278.981 4.24466 0.0540969 0
M  V30 2958 C 276.888 5.61701 -1.85055 0
M  V30 2959 H 275.818 0.749586 -0.0814657 0
M  V30 2960 H 278.469 1.61713 -0.867249 0
M  V30 2961 H 276.851 3.94442 0.350965 0
M  V30 2962 H 278.025 3.86636 -2.50698 0
M  V30 2963 H 276.34 3.57736 -2.13105 0
M  V30 2964 H 278.937 5.34698 0.0146723 0
M  V30 2965 H 279.28 4.01687 1.09332 0
M  V30 2966 H 279.813 3.93198 -0.603337 0
M  V30 2967 H 276.552 5.89312 -2.8704 0
M  V30 2968 H 276.072 5.88519 -1.15783 0
M  V30 2969 H 277.751 6.26524 -1.61484 0
M  V30 2970 N 277.883 0.443576 1.51229 0
M  V30 2971 C 278.831 -0.37904 2.29491 0
M  V30 2972 C 279.825 -1.0153 1.35603 0
M  V30 2973 O 281.031 -0.94955 1.52917 0
M  V30 2974 H 277.406 -0.141053 0.738653 0
M  V30 2975 H 279.377 0.301799 2.9687 0
M  V30 2976 C 278.126 -1.46426 3.15364 0
M  V30 2977 H 277.449 -0.984037 3.87501 0
M  V30 2978 H 278.889 -2.01297 3.7317 0
M  V30 2979 C 277.348 -2.45099 2.31146 0
M  V30 2980 O 277.878 -3.49773 1.9754 0
M  V30 2981 N 276.084 -2.16139 1.94249 0
M  V30 2982 H 275.631 -1.31044 2.21777 0
M  V30 2983 H 275.589 -2.82398 1.38198 0
M  V30 2984 N 279.361 -1.56624 0.175154 0
M  V30 2985 C 280.586 -2.01813 -0.478137 0
M  V30 2986 C 281.011 -1.05457 -1.55757 0
M  V30 2987 O 280.369 -0.0347439 -1.81267 0
M  V30 2988 C 280.417 -3.45581 -1.02987 0
M  V30 2989 O 279.521 -3.52305 -2.14371 0
M  V30 2990 H 278.862 -0.65413 -0.114059 0
M  V30 2991 H 281.392 -2.02673 0.280173 0
M  V30 2992 H 281.402 -3.84965 -1.35151 0
M  V30 2993 H 280.077 -4.1521 -0.239556 0
M  V30 2994 H 278.654 -3.24783 -1.83222 0
M  V30 2995 N 280.839 0.0985539 -1.57292 0
M  V30 2996 C 281.769 1.12064 -2.04851 0
M  V30 2997 C 282.75 1.41981 -0.936767 0
M  V30 2998 O 283.935 1.52071 -1.20781 0
M  V30 2999 C 281.065 2.44144 -2.47004 0
M  V30 3000 C 280.019 2.28643 -3.6181 0
M  V30 3001 C 279.345 3.65869 -3.89929 0
M  V30 3002 C 280.645 1.72986 -4.92822 0
M  V30 3003 H 282.339 0.724979 -2.9049 0
M  V30 3004 H 279.885 0.34729 -1.39749 0
M  V30 3005 H 281.838 3.15914 -2.78884 0
M  V30 3006 H 280.562 2.85639 -1.5836 0
M  V30 3007 H 279.221 1.59318 -3.30172 0
M  V30 3008 H 278.869 4.04885 -2.98458 0
M  V30 3009 H 278.569 3.56344 -4.67218 0
M  V30 3010 H 280.093 4.39112 -4.2428 0
M  V30 3011 H 281.507 2.34593 -5.23105 0
M  V30 3012 H 279.904 1.74229 -5.74251 0
M  V30 3013 H 280.974 0.689007 -4.7998 0
M  V30 3014 N 282.317 1.53212 0.369288 0
M  V30 3015 C 283.563 1.69466 1.11397 0
M  V30 3016 C 283.896 0.443257 1.89074 0
M  V30 3017 O 283.171 -0.559386 1.86282 0
M  V30 3018 C 283.454 2.9422 2.07621 0
M  V30 3019 C 283.307 4.29508 1.33577 0
M  V30 3020 C 284.626 3.14565 3.07794 0
M  V30 3021 H 281.745 0.616667 0.403597 0
M  V30 3022 H 284.387 1.85845 0.395179 0
M  V30 3023 H 282.537 2.80387 2.68916 0
M  V30 3024 H 284.209 4.55147 0.750955 0
M  V30 3025 H 282.452 4.29088 0.637618 0
M  V30 3026 H 283.123 5.12926 2.03989 0
M  V30 3027 H 285.599 3.2756 2.56601 0
M  V30 3028 H 284.475 4.03297 3.72348 0
M  V30 3029 H 284.736 2.29675 3.77759 0
M  V30 3030 N 283.795 -0.628877 1.44509 0
M  V30 3031 C 284.705 -1.7694 1.54044 0
M  V30 3032 C 285.721 -1.68705 0.425987 0
M  V30 3033 O 286.897 -1.89442 0.683656 0
M  V30 3034 C 283.962 -3.13332 1.48405 0
M  V30 3035 C 283.023 -3.33181 2.70719 0
M  V30 3036 C 282.256 -4.63067 2.6534 0
M  V30 3037 O 282.479 -5.44017 1.71469 0
M  V30 3038 O 281.413 -4.85167 3.56226 0
M  V30 3039 H 285.239 -1.71848 2.50403 0
M  V30 3040 H 282.824 -0.790378 1.26781 0
M  V30 3041 H 284.706 -3.94634 1.47791 0
M  V30 3042 H 283.381 -3.1896 0.551898 0
M  V30 3043 H 282.288 -2.51549 2.769 0
M  V30 3044 H 283.621 -3.32416 3.62988 0
M  V30 3045 N 285.273 -1.31445 -0.869486 0
M  V30 3046 C 286.522 -1.20517 -1.61736 0
M  V30 3047 C 286.835 0.235341 -1.94179 0
M  V30 3048 O 288.041 0.466312 -2.67465 0
M  V30 3049 C 286.497 -2.10982 -2.91573 0
M  V30 3050 C 286.105 -3.60032 -2.66611 0
M  V30 3051 C 287.849 -2.08856 -3.69567 0
M  V30 3052 C 285.756 -4.42503 -3.92358 0
M  V30 3053 H 284.686 -0.447493 -0.606849 0
M  V30 3054 H 287.337 -1.56303 -0.96133 0
M  V30 3055 H 285.719 -1.68095 -3.58553 0
M  V30 3056 H 286.893 -4.11167 -2.08035 0
M  V30 3057 H 285.208 -3.64139 -2.0197 0
M  V30 3058 H 287.805 -2.67716 -4.62852 0
M  V30 3059 H 288.148 -1.07582 -4.02159 0
M  V30 3060 H 288.681 -2.49945 -3.09471 0
M  V30 3061 H 285.42 -5.44533 -3.64916 0
M  V30 3062 H 284.94 -3.96125 -4.50383 0
M  V30 3063 H 286.619 -4.54741 -4.60238 0
M  V30 3064 N 286.751 1.08385 -1.14413 0
M  V30 3065 C 287.981 1.8425 -0.934644 0
M  V30 3066 C 288.389 1.81907 0.520234 0
M  V30 3067 O 287.732 1.22126 1.37226 0
M  V30 3068 C 287.794 3.32853 -1.35828 0
M  V30 3069 C 287.458 3.5893 -2.82875 0
M  V30 3070 C 288.455 3.53756 -3.80989 0
M  V30 3071 C 286.14 3.86934 -3.20293 0
M  V30 3072 C 288.134 3.76216 -5.14529 0
M  V30 3073 C 285.821 4.09047 -4.54008 0
M  V30 3074 C 286.819 4.03682 -5.50936 0
M  V30 3075 O 286.507 4.25214 -6.82238 0
M  V30 3076 H 286.239 0.588502 -0.332628 0
M  V30 3077 H 288.793 1.37792 -1.52324 0
M  V30 3078 H 287.023 3.8007 -0.713019 0
M  V30 3079 H 288.712 3.90154 -1.11957 0
M  V30 3080 H 289.478 3.32135 -3.53428 0
M  V30 3081 H 285.357 3.9023 -2.45442 0
M  V30 3082 H 288.901 3.71943 -5.90173 0
M  V30 3083 H 284.798 4.30151 -4.8129 0
M  V30 3084 H 285.566 4.42619 -6.88499 0
M  V30 3085 N 288.23 0.939286 1.26551 0
M  V30 3086 C 289.646 0.641304 1.46149 0
M  V30 3087 C 289.846 -0.805964 1.84679 0
M  V30 3088 O 288.902 -1.58278 1.96734 0
M  V30 3089 C 290.215 1.6011 2.54529 0
M  V30 3090 C 291.763 1.6106 2.68382 0
M  V30 3091 C 292.238 2.55765 3.79932 0
M  V30 3092 N 293.729 2.5404 3.87322 0
M  V30 3093 C 294.464 3.24004 4.73085 0
M  V30 3094 N 293.96 4.03388 5.63249 0
M  V30 3095 N 295.753 3.12965 4.66914 0
M  V30 3096 H 287.904 1.87478 0.998285 0
M  V30 3097 H 290.167 0.805559 0.499779 0
M  V30 3098 H 289.873 2.63412 2.33039 0
M  V30 3099 H 289.747 1.35171 3.52149 0
M  V30 3100 H 292.134 0.584835 2.89247 0
M  V30 3101 H 292.215 1.90053 1.71212 0
M  V30 3102 H 291.859 3.58458 3.5982 0
M  V30 3103 H 291.789 2.24063 4.76554 0
M  V30 3104 H 294.28 1.96396 3.22858 0
M  V30 3105 H 294.593 4.5373 6.25579 0
M  V30 3106 H 292.938 4.07489 5.63008 0
M  V30 3107 H 296.129 2.50432 3.95476 0
M  V30 3108 H 296.302 3.67759 5.33533 0
M  V30 3109 N 289.708 -1.40897 0.706093 0
M  V30 3110 C 290.658 -2.27987 0.0240746 0
M  V30 3111 C 291.642 -1.42759 -0.742204 0
M  V30 3112 O 292.834 -1.65936 -0.615966 0
M  V30 3113 C 289.963 -3.31186 -0.903907 0
M  V30 3114 C 289.049 -4.2389 -0.133318 0
M  V30 3115 N 289.44 -4.98113 0.878444 0
M  V30 3116 C 287.738 -4.44485 -0.367269 0
M  V30 3117 C 288.439 -5.6604 1.34064 0
M  V30 3118 N 287.415 -5.39522 0.664565 0
M  V30 3119 H 291.217 -2.82812 0.799658 0
M  V30 3120 H 288.731 -1.53235 0.537845 0
M  V30 3121 H 290.728 -3.92413 -1.40775 0
M  V30 3122 H 289.388 -2.77922 -1.67897 0
M  V30 3123 H 290.399 -5.02364 1.25901 0
M  V30 3124 H 287.076 -4.02213 -1.1194 0
M  V30 3125 H 288.466 -6.35524 2.1808 0
M  V30 3126 N 291.186 -0.45159 -1.50991 0
M  V30 3127 C 292.432 0.110237 -2.025 0
M  V30 3128 C 292.765 1.41109 -1.33424 0
M  V30 3129 O 292.04 1.89135 -0.453659 0
M  V30 3130 C 292.323 0.314271 -3.58726 0
M  V30 3131 C 292.176 -1.00623 -4.38401 0
M  V30 3132 C 293.495 1.07767 -4.26702 0
M  V30 3133 H 290.614 0.0385897 -0.735989 0
M  V30 3134 H 293.256 -0.593374 -1.80497 0
M  V30 3135 H 291.406 0.913601 -3.77605 0
M  V30 3136 H 293.078 -1.64064 -4.31139 0
M  V30 3137 H 291.321 -1.6075 -4.02917 0
M  V30 3138 H 291.992 -0.817341 -5.45915 0
M  V30 3139 H 294.468 0.56986 -4.12179 0
M  V30 3140 H 293.344 1.18921 -5.35863 0
M  V30 3141 H 293.605 2.10939 -3.88532 0
M  V30 3142 N 292.664 1.56529 -0.183458 0
M  V30 3143 C 293.912 1.96855 0.457452 0
M  V30 3144 C 294.233 1.07104 1.62953 0
M  V30 3145 O 293.503 0.139887 1.954 0
M  V30 3146 H 292.083 0.72693 0.171992 0
M  V30 3147 H 294.745 1.93056 -0.267476 0
M  V30 3148 H 293.841 3.01423 0.809368 0
M  V30 3149 N 294.142 -0.090211 1.57342 0
M  V30 3150 C 295.052 -1.12735 2.05738 0
M  V30 3151 C 296.068 -1.43557 0.983231 0
M  V30 3152 O 297.244 -1.54101 1.29672 0
M  V30 3153 C 294.309 -2.42659 2.47624 0
M  V30 3154 C 293.37 -2.18975 3.69254 0
M  V30 3155 C 292.603 -3.42704 4.09133 0
M  V30 3156 O 292.826 -4.51127 3.49057 0
M  V30 3157 O 291.76 -3.32003 5.02053 0
M  V30 3158 H 295.586 -0.746279 2.94388 0
M  V30 3159 H 293.171 -0.303064 1.46294 0
M  V30 3160 H 295.053 -3.19155 2.7517 0
M  V30 3161 H 293.728 -2.80182 1.62109 0
M  V30 3162 H 292.635 -1.40244 3.46818 0
M  V30 3163 H 293.968 -1.86342 4.55563 0
M  V30 3164 N 295.62 -1.53406 -0.361157 0
M  V30 3165 C 297.036 -1.43277 -0.703124 0
M  V30 3166 C 297.236 -0.575384 -1.9311 0
M  V30 3167 O 296.292 -0.0595362 -2.5243 0
M  V30 3168 C 297.605 -2.8653 -0.9122 0
M  V30 3169 C 299.153 -2.96191 -1.01193 0
M  V30 3170 C 299.628 -4.40514 -1.25345 0
M  V30 3171 N 301.119 -4.43962 -1.32105 0
M  V30 3172 C 301.854 -5.52746 -1.5251 0
M  V30 3173 N 301.35 -6.71567 -1.70203 0
M  V30 3174 N 303.143 -5.40331 -1.54916 0
M  V30 3175 H 295.294 -2.07654 0.446475 0
M  V30 3176 H 297.557 -0.937944 0.137715 0
M  V30 3177 H 297.263 -3.51605 -0.0816414 0
M  V30 3178 H 297.137 -3.30441 -1.81903 0
M  V30 3179 H 299.524 -2.31266 -1.83303 0
M  V30 3180 H 299.605 -2.55667 -0.0823929 0
M  V30 3181 H 299.249 -5.06014 -0.437346 0
M  V30 3182 H 299.179 -4.78614 -2.19627 0
M  V30 3183 H 301.67 -3.58332 -1.20028 0
M  V30 3184 H 301.983 -7.50241 -1.85359 0
M  V30 3185 H 300.328 -6.74545 -1.67373 0
M  V30 3186 H 303.519 -4.46465 -1.40663 0
M  V30 3187 H 303.692 -6.25173 -1.70477 0
M  V30 3188 N 297.098 0.621204 -1.44841 0
M  V30 3189 C 298.344 1.3826 -1.48365 0
M  V30 3190 C 298.677 1.93831 -0.119624 0
M  V30 3191 O 297.952 1.74251 0.864111 0
M  V30 3192 C 298.235 2.54058 -2.55199 0
M  V30 3193 C 298.088 2.03772 -4.00995 0
M  V30 3194 C 299.407 3.56225 -2.58442 0
M  V30 3195 H 296.526 0.501374 -0.540179 0
M  V30 3196 H 299.168 0.7015 -1.76576 0
M  V30 3197 H 297.318 3.12162 -2.31274 0
M  V30 3198 H 298.99 1.50423 -4.36086 0
M  V30 3199 H 297.233 1.34876 -4.12299 0
M  V30 3200 H 297.904 2.87185 -4.71411 0
M  V30 3201 H 300.38 3.07939 -2.79844 0
M  V30 3202 H 299.256 4.34756 -3.3508 0
M  V30 3203 H 299.517 4.10949 -1.63013 0
M  V30 3204 N 298.576 1.31904 0.862503 0
M  V30 3205 C 299.992 1.10724 1.14945 0
M  V30 3206 C 300.192 -0.117421 2.01158 0
M  V30 3207 O 299.248 -0.804595 2.39338 0
M  V30 3208 C 300.561 2.38267 1.83437 0
M  V30 3209 C 302.109 2.43949 1.96106 0
M  V30 3210 C 302.584 3.71394 2.68013 0
M  V30 3211 N 304.075 3.72331 2.75543 0
M  V30 3212 C 304.81 4.67641 3.31812 0
M  V30 3213 N 304.306 5.73313 3.88953 0
M  V30 3214 N 306.099 4.5515 3.29841 0
M  V30 3215 H 298.25 2.10436 0.288191 0
M  V30 3216 H 300.513 0.928705 0.190292 0
M  V30 3217 H 300.219 3.27759 1.27542 0
M  V30 3218 H 300.093 2.48633 2.83657 0
M  V30 3219 H 302.48 1.54922 2.51164 0
M  V30 3220 H 302.561 2.37543 0.949059 0
M  V30 3221 H 302.205 4.60791 2.13621 0
M  V30 3222 H 302.135 3.75069 3.69636 0
M  V30 3223 H 304.626 2.95947 2.34997 0
M  V30 3224 H 304.939 6.42107 4.30022 0
M  V30 3225 H 303.284 5.77077 3.87308 0
M  V30 3226 H 306.475 3.71766 2.84443 0
M  V30 3227 H 306.648 5.29604 3.73394 0
M  V30 3228 N 300.054 -1.07777 1.14986 0
M  V30 3229 C 301.017 -2.13041 0.845358 0
M  V30 3230 C 302.017 -1.60071 -0.152931 0
M  V30 3231 O 303.207 -1.74033 0.0761879 0
M  V30 3232 C 300.339 -3.39896 0.261383 0
M  V30 3233 H 301.532 -2.41485 1.77834 0
M  V30 3234 H 299.085 -1.23595 0.956757 0
M  V30 3235 H 299.82 -3.17091 -0.68 0
M  V30 3236 H 299.605 -3.79642 0.980514 0
M  V30 3237 H 301.095 -4.17548 0.0657687 0
M  V30 3238 N 301.532 -0.945985 -1.26051 0
M  V30 3239 C 302.809 -0.513816 -1.88731 0
M  V30 3240 C 303.189 1.00872 -1.8544 0
M  V30 3241 O 302.537 1.8708 -1.312 0
M  V30 3242 C 302.747 -1.08062 -3.31849 0
M  V30 3243 C 304.095 -1.1522 -4.08668 0
M  V30 3244 O 305.119 -1.03155 -3.40936 0
M  V30 3245 O 303.978 -1.34044 -5.29806 0
M  V30 3246 H 301.072 -0.168193 -0.809716 0
M  V30 3247 H 303.618 -1.03886 -1.34186 0
M  V30 3248 H 302.39 -2.1241 -3.2863 0
M  V30 3249 H 302.013 -0.538307 -3.93939 0
M  V30 3250 N 303.011 1.40521 -0.713556 0
M  V30 3251 C 303.941 2.33381 -0.0743864 0
M  V30 3252 C 304.922 1.52784 0.747735 0
M  V30 3253 O 306.107 1.81258 0.697071 0
M  V30 3254 C 303.237 3.36748 0.849598 0
M  V30 3255 C 302.191 4.27793 0.133247 0
M  V30 3256 C 301.517 5.21679 1.17281 0
M  V30 3257 C 302.817 5.12415 -1.01134 0
M  V30 3258 H 304.511 2.87081 -0.850007 0
M  V30 3259 H 302.057 1.38034 -0.410201 0
M  V30 3260 H 304.01 4.00648 1.30612 0
M  V30 3261 H 302.734 2.81439 1.65709 0
M  V30 3262 H 301.393 3.65342 -0.303426 0
M  V30 3263 H 301.041 4.62677 1.9733 0
M  V30 3264 H 300.741 5.83435 0.698397 0
M  V30 3265 H 302.265 5.88456 1.62947 0
M  V30 3266 H 303.679 5.69781 -0.634274 0
M  V30 3267 H 302.076 5.83203 -1.41399 0
M  V30 3268 H 303.146 4.48514 -1.84292 0
M  V30 3269 N 304.489 0.459591 1.5075 0
M  V30 3270 C 305.714 -0.0996819 2.0716 0
M  V30 3271 C 306.139 -1.33761 1.32249 0
M  V30 3272 O 305.497 -1.77551 0.366786 0
M  V30 3273 C 305.545 -0.378226 3.58611 0
M  V30 3274 O 304.649 -1.46081 3.85661 0
M  V30 3275 H 303.99 0.00791392 0.663953 0
M  V30 3276 H 306.52 0.647329 1.9409 0
M  V30 3277 H 306.53 -0.622135 4.03229 0
M  V30 3278 H 305.205 0.526439 4.12555 0
M  V30 3279 H 303.782 -1.20511 3.5289 0
M  V30 3280 N 305.967 -1.56429 0.191757 0
M  V30 3281 C 306.914 -2.18936 -0.730454 0
M  V30 3282 C 307.884 -1.13557 -1.21219 0
M  V30 3283 O 309.069 -1.41794 -1.27668 0
M  V30 3284 C 306.209 -2.85013 -1.9458 0
M  V30 3285 C 305.322 -4.04909 -1.50574 0
M  V30 3286 C 304.457 -4.58853 -2.67634 0
M  V30 3287 C 303.496 -5.71114 -2.20217 0
M  V30 3288 N 302.633 -6.19478 -3.30442 0
M  V30 3289 H 307.473 -2.97389 -0.190664 0
M  V30 3290 H 305.01 -1.46869 -0.0823694 0
M  V30 3291 H 306.968 -3.21492 -2.65893 0
M  V30 3292 H 305.598 -2.09129 -2.45896 0
M  V30 3293 H 304.65 -3.74115 -0.688605 0
M  V30 3294 H 305.962 -4.86113 -1.11784 0
M  V30 3295 H 305.116 -4.97619 -3.47074 0
M  V30 3296 H 303.855 -3.76749 -3.09696 0
M  V30 3297 H 302.86 -5.31879 -1.3923 0
M  V30 3298 H 304.085 -6.55033 -1.79189 0
M  V30 3299 H 302.031 -5.40297 -3.72041 0
M  V30 3300 H 301.948 -6.95725 -2.9581 0
M  V30 3301 H 303.216 -6.62898 -4.10106 0
M  V30 3302 N 307.445 0.0818655 -1.57387 0
M  V30 3303 C 308.392 1.09834 -2.0299 0
M  V30 3304 C 309.362 1.39043 -0.908639 0
M  V30 3305 O 310.547 1.50282 -1.17559 0
M  V30 3306 C 307.687 2.40971 -2.47037 0
M  V30 3307 C 306.8 2.18379 -3.7274 0
M  V30 3308 C 305.935 3.43008 -4.0561 0
M  V30 3309 C 304.974 3.15736 -5.24383 0
M  V30 3310 N 304.111 4.32667 -5.52941 0
M  V30 3311 H 308.951 0.702472 -2.89602 0
M  V30 3312 H 306.488 0.33531 -1.43227 0
M  V30 3313 H 308.446 3.1752 -2.70623 0
M  V30 3314 H 307.076 2.78379 -1.63417 0
M  V30 3315 H 306.128 1.32569 -3.56552 0
M  V30 3316 H 307.44 1.94227 -4.59431 0
M  V30 3317 H 306.594 4.27958 -4.30043 0
M  V30 3318 H 305.333 3.70225 -3.17466 0
M  V30 3319 H 304.338 2.2918 -4.99757 0
M  V30 3320 H 305.563 2.8985 -6.14136 0
M  V30 3321 H 303.509 4.59935 -4.67756 0
M  V30 3322 H 303.426 4.11753 -6.34031 0
M  V30 3323 H 304.694 5.18644 -5.81918 0
M  V30 3324 N 308.923 1.53595 0.353017 0
M  V30 3325 C 310.171 1.70049 1.09215 0
M  V30 3326 C 310.492 0.461406 1.89463 0
M  V30 3327 O 309.762 -0.524633 1.88744 0
M  V30 3328 H 308.342 0.626912 0.40619 0
M  V30 3329 H 311.004 1.90822 0.396585 0
M  V30 3330 H 310.1 2.56718 1.77488 0
M  V30 3331 N 310.401 -0.613514 1.45168 0
M  V30 3332 C 311.331 -1.7354 1.56225 0
M  V30 3333 C 312.312 -1.64981 0.41414 0
M  V30 3334 O 313.497 -1.83472 0.636526 0
M  V30 3335 C 310.627 -3.12128 1.52295 0
M  V30 3336 C 309.581 -3.35491 2.65762 0
M  V30 3337 C 308.907 -4.74291 2.46885 0
M  V30 3338 C 310.207 -3.26325 4.0781 0
M  V30 3339 H 311.901 -1.64543 2.50132 0
M  V30 3340 H 309.447 -0.790185 1.20383 0
M  V30 3341 H 311.4 -3.90404 1.58628 0
M  V30 3342 H 310.124 -3.2195 0.549139 0
M  V30 3343 H 308.783 -2.59603 2.58847 0
M  V30 3344 H 308.431 -4.80839 1.47657 0
M  V30 3345 H 308.131 -4.9088 3.22972 0
M  V30 3346 H 309.655 -5.54775 2.55063 0
M  V30 3347 H 311.069 -3.94483 4.16 0
M  V30 3348 H 309.466 -3.54445 4.8424 0
M  V30 3349 H 310.536 -2.23855 4.30136 0
M  V30 3350 N 311.879 -1.3236 -0.855495 0
M  V30 3351 C 313.29 -1.2056 -1.42556 0
M  V30 3352 C 313.641 0.182209 -1.95352 0
M  V30 3353 O 312.766 1.08088 -1.87472 0
M  V30 3354 C 313.361 -2.1826 -2.59129 0
M  V30 3355 C 311.92 -2.10351 -3.12137 0
M  V30 3356 C 311.067 -2.06674 -1.84882 0
M  V30 3357 H 314.018 -1.442 -0.662727 0
M  V30 3358 H 314.039 -1.78064 -3.36264 0
M  V30 3359 H 313.551 -3.19257 -2.20673 0
M  V30 3360 H 311.652 -1.12599 -3.55179 0
M  V30 3361 H 311.765 -3.00135 -3.73438 0
M  V30 3362 H 310.129 -1.51901 -2.04446 0
M  V30 3363 H 310.912 -3.09451 -1.48643 0
M  V30 3364 N 313.357 1.07166 -1.15556 0
M  V30 3365 C 314.289 2.14341 -0.811815 0
M  V30 3366 C 315.302 1.61835 0.177015 0
M  V30 3367 O 316.491 1.78439 -0.0464996 0
M  V30 3368 C 313.591 3.38387 -0.186481 0
M  V30 3369 C 312.764 4.20238 -1.21321 0
M  V30 3370 C 311.823 5.2266 -0.609302 0
M  V30 3371 O 310.849 5.54719 -1.27576 0
M  V30 3372 N 312.051 5.77306 0.608099 0
M  V30 3373 H 314.816 2.44431 -1.73417 0
M  V30 3374 H 312.377 1.23089 -1.0517 0
M  V30 3375 H 314.369 4.04044 0.230339 0
M  V30 3376 H 312.939 3.05994 0.639249 0
M  V30 3377 H 312.159 3.50369 -1.80652 0
M  V30 3378 H 313.447 4.71736 -1.90638 0
M  V30 3379 H 312.845 5.53513 1.1679 0
M  V30 3380 H 311.402 6.44583 0.96725 0
M  V30 3381 N 314.835 0.952656 1.25548 0
M  V30 3382 C 316.06 0.623025 1.97821 0
M  V30 3383 C 316.485 -0.7976 1.70352 0
M  V30 3384 O 315.843 -1.53905 0.958283 0
M  V30 3385 C 315.891 0.885532 3.49558 0
M  V30 3386 O 314.995 -0.0366641 4.12384 0
M  V30 3387 H 314.336 0.237082 0.620232 0
M  V30 3388 H 316.866 1.27871 1.59719 0
M  V30 3389 H 316.876 0.811009 3.99858 0
M  V30 3390 H 315.551 1.92094 3.6888 0
M  V30 3391 H 314.128 0.0898954 3.72792 0
M  V30 3392 N 316.313 -1.40141 0.720998 0
M  V30 3393 C 317.729 -1.54632 0.395113 0
M  V30 3394 C 317.929 -1.69115 -1.09555 0
M  V30 3395 O 316.985 -1.68377 -1.88163 0
M  V30 3396 C 318.298 -2.77177 1.1659 0
M  V30 3397 C 319.846 -2.91 1.15274 0
M  V30 3398 C 320.321 -4.16465 1.90579 0
M  V30 3399 N 321.812 -4.23476 1.87675 0
M  V30 3400 C 322.547 -5.19475 2.42762 0
M  V30 3401 N 322.043 -6.21348 3.06428 0
M  V30 3402 N 323.836 -5.11592 2.32874 0
M  V30 3403 H 315.987 -1.28986 1.68749 0
M  V30 3404 H 318.25 -0.62412 0.713567 0
M  V30 3405 H 317.956 -2.72771 2.22011 0
M  V30 3406 H 317.83 -3.69442 0.76108 0
M  V30 3407 H 320.217 -2.94907 0.106702 0
M  V30 3408 H 320.298 -1.99838 1.59682 0
M  V30 3409 H 319.942 -4.1332 2.95176 0
M  V30 3410 H 319.872 -5.06646 1.43587 0
M  V30 3411 H 322.363 -3.50497 1.41281 0
M  V30 3412 H 322.676 -6.91034 3.45965 0
M  V30 3413 H 321.021 -6.21777 3.10514 0
M  V30 3414 H 324.212 -4.30936 1.82789 0
M  V30 3415 H 324.385 -5.86233 2.76106 0
M  V30 3416 N 317.792 -0.46758 -1.50504 0
M  V30 3417 C 318.722 0.318381 -2.31319 0
M  V30 3418 C 319.703 0.993564 -1.38066 0
M  V30 3419 O 320.888 0.991411 -1.66987 0
M  V30 3420 C 318.018 1.40275 -3.17711 0
M  V30 3421 C 316.972 0.849373 -4.19487 0
M  V30 3422 C 316.298 2.03177 -4.94594 0
M  V30 3423 C 317.598 -0.136942 -5.2212 0
M  V30 3424 H 319.292 -0.356106 -2.97275 0
M  V30 3425 H 316.838 -0.172703 -1.42961 0
M  V30 3426 H 318.791 1.96004 -3.73042 0
M  V30 3427 H 317.515 2.10596 -2.49634 0
M  V30 3428 H 316.174 0.314076 -3.65252 0
M  V30 3429 H 315.822 2.72187 -4.22993 0
M  V30 3430 H 315.522 1.66774 -5.63436 0
M  V30 3431 H 317.046 2.59403 -5.52759 0
M  V30 3432 H 318.46 0.331056 -5.72343 0
M  V30 3433 H 316.857 -0.41507 -5.98663 0
M  V30 3434 H 317.927 -1.06398 -4.73083 0
M  V30 3435 N 319.27 1.56325 -0.20005 0
M  V30 3436 C 320.218 2.20666 0.735482 0
M  V30 3437 C 321.212 1.17934 1.21605 0
M  V30 3438 O 322.418 1.36068 1.17837 0
M  V30 3439 H 318.793 0.70725 0.255542 0
M  V30 3440 H 320.764 2.9792 0.169166 0
M  V30 3441 C 319.513 2.88391 1.94232 0
M  V30 3442 H 318.836 3.67185 1.58161 0
M  V30 3443 H 320.276 3.3684 2.57517 0
M  V30 3444 C 318.735 1.89692 2.78421 0
M  V30 3445 O 319.265 1.40032 3.76502 0
M  V30 3446 N 317.471 1.57813 2.44015 0
M  V30 3447 H 317.018 1.9839 1.64314 0
M  V30 3448 H 316.976 0.920325 3.00628 0
M  V30 3449 N 320.748 -0.0735177 1.57428 0
M  V30 3450 C 321.994 -0.774145 1.87443 0
M  V30 3451 C 322.327 -1.77311 0.792103 0
M  V30 3452 O 321.602 -1.93492 -0.197793 0
M  V30 3453 C 321.885 -1.48367 3.28115 0
M  V30 3454 C 321.738 -0.501227 4.46999 0
M  V30 3455 C 323.057 -2.429 3.66998 0
M  V30 3456 H 320.176 -0.279971 0.681752 0
M  V30 3457 H 322.818 -0.0373616 1.89963 0
M  V30 3458 H 320.968 -2.11171 3.26097 0
M  V30 3459 H 322.64 0.121468 4.6114 0
M  V30 3460 H 320.883 0.183593 4.33411 0
M  V30 3461 H 321.554 -1.03526 5.42205 0
M  V30 3462 H 324.03 -1.90175 3.70098 0
M  V30 3463 H 322.906 -2.89549 4.66318 0
M  V30 3464 H 323.167 -3.27628 2.96837 0
M  V30 3465 N 322.226 -1.5378 -0.344866 0
M  V30 3466 C 323.475 -1.7018 -1.08267 0
M  V30 3467 C 323.788 -0.471 -1.89845 0
M  V30 3468 O 324.994 -0.515917 -2.66553 0
M  V30 3469 C 323.45 -3.00923 -1.97417 0
M  V30 3470 C 323.058 -4.31335 -1.21053 0
M  V30 3471 C 324.802 -3.26688 -2.71063 0
M  V30 3472 C 322.709 -5.53153 -2.09225 0
M  V30 3473 H 321.639 -0.634138 -0.407903 0
M  V30 3474 H 324.29 -1.8028 -0.342246 0
M  V30 3475 H 322.672 -2.84676 -2.75274 0
M  V30 3476 H 323.846 -4.58281 -0.481159 0
M  V30 3477 H 322.161 -4.12173 -0.591813 0
M  V30 3478 H 324.758 -4.1489 -3.37299 0
M  V30 3479 H 325.101 -2.43639 -3.37558 0
M  V30 3480 H 325.634 -3.43705 -2.0028 0
M  V30 3481 H 322.373 -6.38741 -1.47274 0
M  V30 3482 H 321.893 -5.30458 -2.79955 0
M  V30 3483 H 323.572 -5.88744 -2.68308 0
M  V30 3484 N 323.704 0.605807 -1.45491 0
M  V30 3485 C 324.951 1.36476 -1.49601 0
M  V30 3486 C 325.279 1.94007 -0.138452 0
M  V30 3487 O 324.534 1.75638 0.863114 0
M  V30 3488 C 324.833 2.53012 -2.52428 0
M  V30 3489 C 324.499 2.13617 -3.97087 0
M  V30 3490 C 323.161 2.02587 -4.36477 0
M  V30 3491 C 325.513 1.82899 -4.88055 0
M  V30 3492 C 322.841 1.59064 -5.64726 0
M  V30 3493 C 325.193 1.40861 -6.16718 0
M  V30 3494 C 323.857 1.28391 -6.55036 0
M  V30 3495 H 323.127 0.499402 -0.547429 0
M  V30 3496 H 325.774 0.684546 -1.78847 0
M  V30 3497 H 324.079 3.26379 -2.16758 0
M  V30 3498 H 325.776 3.1124 -2.52845 0
M  V30 3499 H 322.366 2.23129 -3.65939 0
M  V30 3500 H 326.55 1.90317 -4.58359 0
M  V30 3501 H 321.806 1.48034 -5.93208 0
M  V30 3502 H 325.98 1.16138 -6.86648 0
M  V30 3503 H 323.607 0.944403 -7.54311 0
M  V30 3504 N 325.182 1.32811 0.848464 0
M  V30 3505 C 326.41 1.26739 1.63538 0
M  V30 3506 C 326.825 -0.163484 1.88091 0
M  V30 3507 O 326.182 -1.10258 1.45429 0
M  V30 3508 C 326.233 2.03013 2.99112 0
M  V30 3509 O 325.954 3.40518 2.75643 0
M  V30 3510 C 327.455 2.04038 3.93552 0
M  V30 3511 H 324.675 0.437024 0.509167 0
M  V30 3512 H 327.219 1.75033 1.05753 0
M  V30 3513 H 325.374 1.58426 3.53525 0
M  V30 3514 H 325.788 3.79635 3.61908 0
M  V30 3515 H 327.262 2.61877 4.85926 0
M  V30 3516 H 327.739 1.0282 4.26995 0
M  V30 3517 H 328.345 2.486 3.45077 0
M  V30 3518 N 326.66 -1.06551 1.16123 0
M  V30 3519 C 327.607 -2.13961 0.865414 0
M  V30 3520 C 328.577 -1.65066 -0.185055 0
M  V30 3521 O 329.762 -1.90732 -0.05083 0
M  V30 3522 C 326.902 -3.43113 0.369776 0
M  V30 3523 C 326.015 -4.05756 1.48276 0
M  V30 3524 C 325.15 -5.22773 0.942414 0
M  V30 3525 C 324.189 -5.77395 2.03179 0
M  V30 3526 N 323.326 -6.85731 1.50721 0
M  V30 3527 H 328.166 -2.38605 1.78527 0
M  V30 3528 H 325.703 -1.17072 0.890646 0
M  V30 3529 H 327.661 -4.17151 0.0640643 0
M  V30 3530 H 326.291 -3.18695 -0.513143 0
M  V30 3531 H 325.343 -3.29292 1.9045 0
M  V30 3532 H 326.655 -4.42351 2.30493 0
M  V30 3533 H 325.809 -6.03827 0.589729 0
M  V30 3534 H 324.548 -4.87618 0.0895191 0
M  V30 3535 H 323.553 -4.94981 2.3932 0
M  V30 3536 H 324.778 -6.14603 2.8886 0
M  V30 3537 H 322.724 -6.52499 0.676811 0
M  V30 3538 H 322.641 -7.21254 2.26557 0
M  V30 3539 H 323.909 -7.7047 1.18303 0
M  V30 3540 N 328.138 -0.959301 -1.25041 0
M  V30 3541 C 329.385 -0.616611 -1.92884 0
M  V30 3542 C 329.713 0.847036 -1.75087 0
M  V30 3543 O 328.968 1.62374 -1.09239 0
M  V30 3544 C 329.267 -0.927136 -3.45165 0
M  V30 3545 C 328.933 -2.37757 -3.83122 0
M  V30 3546 C 327.595 -2.77402 -3.93194 0
M  V30 3547 C 329.947 -3.31929 -4.01836 0
M  V30 3548 C 327.275 -4.10277 -4.19392 0
M  V30 3549 C 329.627 -4.64423 -4.29528 0
M  V30 3550 C 328.291 -5.03857 -4.37818 0
M  V30 3551 H 327.561 -0.225634 -0.705812 0
M  V30 3552 H 330.208 -1.20921 -1.48493 0
M  V30 3553 H 328.513 -0.252195 -3.90987 0
M  V30 3554 H 330.21 -0.6405 -3.95852 0
M  V30 3555 H 326.8 -2.06013 -3.75841 0
M  V30 3556 H 330.984 -3.02488 -3.93465 0
M  V30 3557 H 326.24 -4.40467 -4.24027 0
M  V30 3558 H 330.414 -5.37369 -4.42953 0
M  V30 3559 H 328.041 -6.06843 -4.57871 0
M  V30 3560 N 329.616 1.39756 -0.72842 0
M  V30 3561 C 330.893 1.94574 -0.200079 0
M  V30 3562 C 331.273 1.66569 1.29684 0
M  V30 3563 O 330.621 0.990326 2.05924 0
M  V30 3564 C 330.831 3.45004 -0.526608 0
M  V30 3565 C 332.179 4.21965 -0.472318 0
M  V30 3566 O 333.203 3.53173 -0.463413 0
M  V30 3567 O 332.062 5.44552 -0.461075 0
M  V30 3568 H 329.156 0.826289 -0.0342851 0
M  V30 3569 H 331.702 1.49293 -0.806829 0
M  V30 3570 H 330.474 3.58796 -1.56144 0
M  V30 3571 H 330.097 3.97449 0.109449 0
M  V30 3572 N 331.094 0.475555 1.50254 0
M  V30 3573 C 332.004 -0.321501 2.32387 0
M  V30 3574 C 333.02 -0.991755 1.42969 0
M  V30 3575 O 334.196 -0.978747 1.76018 0
M  V30 3576 C 331.261 -1.38667 3.17762 0
M  V30 3577 C 330.322 -0.732538 4.23004 0
M  V30 3578 C 329.555 -1.74695 5.04299 0
M  V30 3579 O 329.778 -2.97399 4.86734 0
M  V30 3580 O 328.712 -1.31631 5.8733 0
M  V30 3581 H 332.538 0.350071 3.01676 0
M  V30 3582 H 330.123 0.237321 1.47503 0
M  V30 3583 H 332.005 -2.00354 3.70724 0
M  V30 3584 H 330.68 -2.04163 2.51196 0
M  V30 3585 H 329.587 -0.0765902 3.74022 0
M  V30 3586 H 330.92 -0.120452 4.92053 0
M  V30 3587 N 332.573 -1.56217 0.208337 0
M  V30 3588 C 333.819 -1.98242 -0.427552 0
M  V30 3589 C 334.152 -1.09554 -1.60348 0
M  V30 3590 O 333.427 -0.15035 -1.93918 0
M  V30 3591 C 333.71 -3.4931 -0.874907 0
M  V30 3592 C 333.563 -4.48773 0.303751 0
M  V30 3593 C 334.882 -4.04424 -1.73577 0
M  V30 3594 H 332.001 -0.720744 -0.153936 0
M  V30 3595 H 334.643 -1.87586 0.30192 0
M  V30 3596 H 332.793 -3.58522 -1.49648 0
M  V30 3597 H 334.465 -4.51586 0.941682 0
M  V30 3598 H 332.708 -4.23194 0.953375 0
M  V30 3599 H 333.379 -5.51976 -0.0519883 0
M  V30 3600 H 335.855 -3.98075 -1.21143 0
M  V30 3601 H 334.731 -5.1047 -2.01771 0
M  V30 3602 H 334.992 -3.50494 -2.69456 0
M  V30 3603 N 334.051 0.0651679 -1.57465 0
M  V30 3604 C 334.983 1.10359 -2.00882 0
M  V30 3605 C 335.996 1.346 -0.915788 0
M  V30 3606 O 337.185 1.32723 -1.1936 0
M  V30 3607 C 334.285 2.45312 -2.33828 0
M  V30 3608 C 333.458 2.40934 -3.65061 0
M  V30 3609 C 332.517 3.58047 -3.85602 0
M  V30 3610 O 331.543 3.39175 -4.57109 0
M  V30 3611 N 332.745 4.78637 -3.28462 0
M  V30 3612 H 335.51 0.733807 -2.90578 0
M  V30 3613 H 333.071 0.253719 -1.599 0
M  V30 3614 H 335.063 3.22314 -2.44737 0
M  V30 3615 H 333.633 2.74267 -1.49988 0
M  V30 3616 H 332.853 1.49273 -3.64844 0
M  V30 3617 H 334.141 2.35117 -4.51218 0
M  V30 3618 H 333.539 4.96872 -2.70433 0
M  V30 3619 H 332.096 5.53127 -3.44809 0
M  V30 3620 N 335.529 1.53961 0.336706 0
M  V30 3621 C 336.476 1.82428 1.41381 0
M  V30 3622 C 337.446 0.670444 1.51968 0
M  V30 3623 O 338.631 0.915565 1.67398 0
M  V30 3624 C 335.771 2.04564 2.77934 0
M  V30 3625 C 334.884 3.32267 2.76084 0
M  V30 3626 C 334.019 3.44434 4.04399 0
M  V30 3627 C 333.058 4.66061 3.96804 0
M  V30 3628 N 332.195 4.75224 5.16823 0
M  V30 3629 H 337.035 2.74324 1.16405 0
M  V30 3630 H 334.572 1.35869 0.563752 0
M  V30 3631 H 336.53 2.15388 3.57301 0
M  V30 3632 H 335.16 1.15974 3.01247 0
M  V30 3633 H 334.212 3.3025 1.88784 0
M  V30 3634 H 335.524 4.21733 2.66351 0
M  V30 3635 H 334.678 3.54728 4.92192 0
M  V30 3636 H 333.417 2.53037 4.16921 0
M  V30 3637 H 332.422 4.55838 3.07396 0
M  V30 3638 H 333.647 5.58829 3.85858 0
M  V30 3639 H 331.593 3.86739 5.29876 0
M  V30 3640 H 331.51 5.58636 5.09374 0
M  V30 3641 H 332.778 4.89835 6.06367 0
M  V30 3642 N 337.007 -0.598083 1.45811 0
M  V30 3643 C 338.232 -1.3881 1.54099 0
M  V30 3644 C 338.657 -1.8726 0.177578 0
M  V30 3645 O 338.015 -1.6069 -0.839541 0
M  V30 3646 C 338.063 -2.56217 2.53743 0
M  V30 3647 O 337.167 -3.5716 2.06182 0
M  V30 3648 H 336.508 -0.414024 0.519115 0
M  V30 3649 H 339.038 -0.726971 1.91249 0
M  V30 3650 H 339.048 -3.03337 2.72856 0
M  V30 3651 H 337.723 -2.20303 3.5276 0
M  V30 3652 H 336.3 -3.16624 1.96987 0
M  V30 3653 N 338.485 -1.33259 -0.841409 0
M  V30 3654 C 339.733 -1.24326 -1.59334 0
M  V30 3655 C 340.054 0.191564 -1.94057 0
M  V30 3656 O 339.324 1.11967 -1.60749 0
M  V30 3657 H 337.904 -0.457174 -0.590763 0
M  V30 3658 H 340.566 -1.66947 -1.00571 0
M  V30 3659 H 339.662 -1.8352 -2.52442 0
M  V30 3660 N 339.963 1.05934 -1.16686 0
M  V30 3661 C 340.911 2.15603 -0.872817 0
M  V30 3662 C 341.905 1.68647 0.159576 0
M  V30 3663 O 343.111 1.79995 0.0132125 0
M  V30 3664 H 339.486 0.703885 -0.264671 0
M  V30 3665 H 341.457 2.37613 -1.80507 0
M  V30 3666 C 340.206 3.45457 -0.394344 0
M  V30 3667 H 339.529 3.81984 -1.18019 0
M  V30 3668 H 340.969 4.2339 -0.227408 0
M  V30 3669 C 339.428 3.25021 0.88673 0
M  V30 3670 O 339.958 3.50906 1.95519 0
M  V30 3671 N 338.164 2.78437 0.831925 0
M  V30 3672 H 337.711 2.57572 -0.0377619 0
M  V30 3673 H 337.669 2.65144 1.68956 0
M  V30 3674 N 341.441 0.965919 1.2453 0
M  V30 3675 C 342.374 0.4393 2.23932 0
M  V30 3676 C 343.352 -0.485615 1.55179 0
M  V30 3677 O 344.536 -0.417402 1.83821 0
M  V30 3678 C 341.663 -0.366042 3.36716 0
M  V30 3679 C 340.709 0.5009 4.23548 0
M  V30 3680 S 341.542 1.94002 4.99123 0
M  V30 3681 C 342.698 1.14342 6.15367 0
M  V30 3682 H 342.931 1.28167 2.68254 0
M  V30 3683 H 340.464 0.770819 1.33782 0
M  V30 3684 H 342.422 -0.824724 4.0213 0
M  V30 3685 H 341.083 -1.18337 2.90956 0
M  V30 3686 H 340.276 -0.117341 5.03863 0
M  V30 3687 H 339.878 0.89524 3.63127 0
M  V30 3688 H 342.17 0.397572 6.76332 0
M  V30 3689 H 343.113 1.92089 6.81548 0
M  V30 3690 H 343.521 0.668579 5.60527 0
M  V30 3691 N 342.919 -1.39368 0.735821 0
M  V30 3692 C 344.168 -1.99733 0.281004 0
M  V30 3693 C 344.481 -1.59055 -1.13846 0
M  V30 3694 O 345.687 -2.12262 -1.69284 0
M  V30 3695 C 344.143 -3.57057 0.451462 0
M  V30 3696 C 343.751 -4.06697 1.87886 0
M  V30 3697 C 345.495 -4.2446 0.0584616 0
M  V30 3698 C 343.402 -5.56598 1.99883 0
M  V30 3699 H 342.332 -0.747163 0.101311 0
M  V30 3700 H 344.983 -1.59357 0.909819 0
M  V30 3701 H 343.365 -3.95234 -0.246263 0
M  V30 3702 H 344.539 -3.79853 2.60861 0
M  V30 3703 H 342.854 -3.5196 2.22515 0
M  V30 3704 H 345.451 -5.34549 0.127099 0
M  V30 3705 H 345.794 -4.04444 -0.986433 0
M  V30 3706 H 346.327 -3.9146 0.707374 0
M  V30 3707 H 343.066 -5.81494 3.02564 0
M  V30 3708 H 342.586 -5.85242 1.31346 0
M  V30 3709 H 344.265 -6.22022 1.78039 0
M  V30 3710 N 344.397 -0.483516 -1.5 0
M  V30 3711 C 345.329 0.340634 -2.26655 0
M  V30 3712 C 346.342 0.946152 -1.32483 0
M  V30 3713 O 347.531 0.832453 -1.579 0
M  V30 3714 C 344.631 1.4929 -3.04246 0
M  V30 3715 C 343.804 0.997903 -4.25865 0
M  V30 3716 C 342.863 2.02569 -4.85646 0
M  V30 3717 O 341.889 1.60128 -5.46212 0
M  V30 3718 N 343.091 3.3548 -4.73744 0
M  V30 3719 H 345.856 -0.316577 -2.98023 0
M  V30 3720 H 343.417 -0.315024 -1.58806 0
M  V30 3721 H 345.409 2.17766 -3.41116 0
M  V30 3722 H 343.979 2.05458 -2.35597 0
M  V30 3723 H 343.199 0.138617 -3.93956 0
M  V30 3724 H 344.487 0.645305 -5.04691 0
M  V30 3725 H 343.885 3.72661 -4.25605 0
M  V30 3726 H 342.442 3.99718 -5.14848 0
M  V30 3727 N 345.875 1.56104 -0.216619 0
M  V30 3728 C 347.1 2.0301 0.424462 0
M  V30 3729 C 347.525 1.0955 1.52907 0
M  V30 3730 O 346.883 0.0827914 1.81111 0
M  V30 3731 C 346.931 3.4819 0.937883 0
M  V30 3732 O 346.035 3.57865 2.04955 0
M  V30 3733 H 345.376 0.656925 0.0966755 0
M  V30 3734 H 347.906 2.01859 -0.33381 0
M  V30 3735 H 347.916 3.88413 1.24897 0
M  V30 3736 H 346.591 4.15699 0.129387 0
M  V30 3737 H 345.168 3.29527 1.74546 0
M  V30 3738 N 347.353 -0.0568162 1.57498 0
M  V30 3739 C 348.316 -1.05038 2.03715 0
M  V30 3740 C 349.316 -1.30709 0.936577 0
M  V30 3741 O 350.506 -1.26178 1.20103 0
M  V30 3742 C 347.638 -2.39034 2.43055 0
M  V30 3743 H 348.831 -0.651715 2.92733 0
M  V30 3744 H 346.384 -0.302947 1.53336 0
M  V30 3745 H 347.119 -2.83703 1.57108 0
M  V30 3746 H 346.904 -2.21739 3.2338 0
M  V30 3747 H 348.394 -3.10421 2.79336 0
M  V30 3748 N 348.832 -1.54138 -0.328536 0
M  V30 3749 C 349.78 -1.83894 -1.42428 0
M  V30 3750 C 350.774 -0.710478 -1.53781 0
M  V30 3751 O 351.98 -0.894062 -1.56226 0
M  V30 3752 H 348.355 -0.582837 -0.475189 0
M  V30 3753 H 350.326 -2.75537 -1.14552 0
M  V30 3754 C 349.075 -2.07866 -2.78724 0
M  V30 3755 H 348.398 -2.94158 -2.7076 0
M  V30 3756 H 349.838 -2.32644 -3.54476 0
M  V30 3757 C 348.297 -0.868689 -3.25508 0
M  V30 3758 O 348.827 -0.0754908 -4.01629 0
M  V30 3759 N 347.033 -0.681711 -2.82491 0
M  V30 3760 H 346.58 -1.32838 -2.20708 0
M  V30 3761 H 346.538 0.126374 -3.14146 0
M  V30 3762 N 350.31 0.590341 -1.46126 0
M  V30 3763 C 351.587 1.35029 -1.41515 0
M  V30 3764 C 351.967 2.10888 -0.0946472 0
M  V30 3765 O 351.315 2.08998 0.923693 0
M  V30 3766 C 351.525 2.28269 -2.63997 0
M  V30 3767 C 352.873 2.90338 -3.09821 0
M  V30 3768 O 353.897 2.38585 -2.64492 0
M  V30 3769 O 352.756 3.84321 -3.88535 0
M  V30 3770 H 349.85 0.606317 -0.562413 0
M  V30 3771 H 352.396 0.611994 -1.58281 0
M  V30 3772 H 351.168 1.71591 -3.51671 0
M  V30 3773 H 350.791 3.0945 -2.49652 0
M  V30 3774 N 351.788 1.33704 0.83433 0
M  V30 3775 C 352.735 1.24335 1.94447 0
M  V30 3776 C 353.705 0.120991 1.65659 0
M  V30 3777 O 354.89 0.300035 1.88426 0
M  V30 3778 C 352.03 0.993124 3.30501 0
M  V30 3779 C 351.143 2.20217 3.71657 0
M  V30 3780 C 350.278 1.88572 4.96602 0
M  V30 3781 C 349.317 3.05683 5.30306 0
M  V30 3782 N 348.454 2.73997 6.46429 0
M  V30 3783 H 353.294 2.1928 2.01792 0
M  V30 3784 H 350.831 1.09035 0.987404 0
M  V30 3785 H 352.789 0.828467 4.08892 0
M  V30 3786 H 351.419 0.0803902 3.227 0
M  V30 3787 H 350.471 2.47642 2.88752 0
M  V30 3788 H 351.783 3.07752 3.92543 0
M  V30 3789 H 350.937 1.68776 5.82752 0
M  V30 3790 H 349.676 0.982799 4.77695 0
M  V30 3791 H 348.681 3.26088 4.42659 0
M  V30 3792 H 349.906 3.96737 5.51159 0
M  V30 3793 H 347.852 1.86268 6.28999 0
M  V30 3794 H 347.769 3.55064 6.67432 0
M  V30 3795 H 349.037 2.57679 7.35678 0
M  V30 3796 N 353.266 -1.05314 1.17247 0
M  V30 3797 C 354.214 -2.15137 0.884238 0
M  V30 3798 C 355.208 -1.68729 -0.15063 0
M  V30 3799 O 356.414 -1.8 -0.00366673 0
M  V30 3800 H 352.789 -0.702471 0.2684 0
M  V30 3801 H 354.76 -2.36652 1.81764 0
M  V30 3802 C 353.509 -3.45243 0.412659 0
M  V30 3803 H 352.832 -3.81352 1.20043 0
M  V30 3804 H 354.272 -4.23263 0.249858 0
M  V30 3805 C 352.731 -3.25487 -0.86948 0
M  V30 3806 O 353.261 -3.51938 -1.93655 0
M  V30 3807 N 351.467 -2.78875 -0.817147 0
M  V30 3808 H 351.014 -2.57549 0.0514211 0
M  V30 3809 H 350.972 -2.66036 -1.67547 0
M  V30 3810 N 354.744 -0.972509 -1.24016 0
M  V30 3811 C 355.991 -0.637034 -1.92219 0
M  V30 3812 C 356.319 0.828418 -1.75976 0
M  V30 3813 O 355.574 1.61206 -1.10955 0
M  V30 3814 C 355.873 -0.963694 -3.44162 0
M  V30 3815 C 355.539 -2.41807 -3.80579 0
M  V30 3816 C 354.201 -2.81556 -3.9023 0
M  V30 3817 C 356.553 -3.36172 -3.98293 0
M  V30 3818 C 353.881 -4.14702 -4.15017 0
M  V30 3819 C 356.233 -4.68952 -4.24578 0
M  V30 3820 C 354.897 -5.08472 -4.32449 0
M  V30 3821 H 354.167 -0.233107 -0.703379 0
M  V30 3822 H 356.814 -1.2249 -1.47202 0
M  V30 3823 H 355.119 -0.29365 -3.90698 0
M  V30 3824 H 356.816 -0.682449 -3.9515 0
M  V30 3825 H 353.406 -2.09988 -3.73635 0
M  V30 3826 H 357.59 -3.06644 -3.90234 0
M  V30 3827 H 352.846 -4.4494 -4.19331 0
M  V30 3828 H 357.02 -5.42037 -4.37229 0
M  V30 3829 H 354.647 -6.11665 -4.51409 0
M  V30 3830 N 356.222 1.38976 -0.743202 0
M  V30 3831 C 357.499 1.94351 -0.220705 0
M  V30 3832 C 357.879 1.67935 1.2791 0
M  V30 3833 O 357.227 1.01211 2.04862 0
M  V30 3834 C 357.437 3.44426 -0.563171 0
M  V30 3835 C 358.785 4.2144 -0.517046 0
M  V30 3836 O 359.809 3.52661 -0.500846 0
M  V30 3837 O 358.668 5.44032 -0.518806 0
M  V30 3838 H 355.762 0.825879 -0.043047 0
M  V30 3839 H 358.308 1.48429 -0.822618 0
M  V30 3840 H 357.08 3.5712 -1.59941 0
M  V30 3841 H 356.703 3.97543 0.0672883 0
M  V30 3842 N 357.7 0.491464 1.49741 0
M  V30 3843 C 358.977 -0.118984 1.95238 0
M  V30 3844 C 359.357 -1.55044 1.43264 0
M  V30 3845 O 358.705 -2.19287 0.642287 0
M  V30 3846 C 358.915 -0.0414187 3.48975 0
M  V30 3847 C 360.263 -0.220133 4.24029 0
M  V30 3848 O 361.287 -0.117055 3.56008 0
M  V30 3849 O 360.146 -0.430567 5.44801 0
M  V30 3850 H 357.24 -0.100536 0.820866 0
M  V30 3851 H 359.786 0.553322 1.60426 0
M  V30 3852 H 358.558 0.957214 3.79412 0
M  V30 3853 H 358.181 -0.754292 3.9038 0
M  V30 3854 N 359.178 -1.55987 0.224894 0
M  V30 3855 C 360.088 -2.24066 -0.69511 0
M  V30 3856 C 361.104 -1.24939 -1.21104 0
M  V30 3857 O 362.28 -1.5776 -1.25195 0
M  V30 3858 C 359.345 -2.90983 -1.88493 0
M  V30 3859 C 358.406 -4.05462 -1.41064 0
M  V30 3860 C 357.639 -4.69179 -2.54375 0
M  V30 3861 O 357.862 -4.31895 -3.72589 0
M  V30 3862 O 356.796 -5.58108 -2.25386 0
M  V30 3863 H 360.622 -3.03353 -0.145149 0
M  V30 3864 H 358.207 -1.49399 -0.00569476 0
M  V30 3865 H 360.089 -3.33209 -2.57972 0
M  V30 3866 H 358.764 -2.14653 -2.42293 0
M  V30 3867 H 357.671 -3.67798 -0.683774 0
M  V30 3868 H 359.004 -4.83545 -0.918985 0
M  V30 3869 N 360.656 0.0484629 -1.57525 0
M  V30 3870 C 361.933 0.777447 -1.79486 0
M  V30 3871 C 362.313 1.94597 -0.818251 0
M  V30 3872 O 361.661 2.28047 0.143767 0
M  V30 3873 C 361.871 1.22864 -3.26658 0
M  V30 3874 C 363.219 1.65251 -3.91123 0
M  V30 3875 O 364.243 1.32372 -3.3069 0
M  V30 3876 O 363.102 2.26207 -4.97486 0
M  V30 3877 H 360.196 0.374357 -0.737419 0
M  V30 3878 H 362.742 0.0267359 -1.69679 0
M  V30 3879 H 361.514 0.393589 -3.89316 0
M  V30 3880 H 361.137 2.03996 -3.41279 0
M  V30 3881 N 362.134 1.5431 0.320358 0
M  V30 3882 C 363.359 1.76954 1.08175 0
M  V30 3883 C 363.784 0.518193 1.80821 0
M  V30 3884 O 363.142 -0.530411 1.73368 0
M  V30 3885 C 363.19 2.96451 2.05303 0
M  V30 3886 O 362.294 2.68221 3.13259 0
M  V30 3887 H 361.635 0.586275 0.311733 0
M  V30 3888 H 364.165 2.01342 0.363676 0
M  V30 3889 H 364.175 3.23887 2.48116 0
M  V30 3890 H 362.85 3.87196 1.51829 0
M  V30 3891 H 361.427 2.51744 2.75099 0
M  V30 3892 N 363.613 -0.582584 1.46437 0
M  V30 3893 C 364.859 -1.34278 1.51978 0
M  V30 3894 C 365.192 -1.93446 0.170973 0
M  V30 3895 O 364.467 -1.76481 -0.817608 0
M  V30 3896 C 364.75 -2.47203 2.61845 0
M  V30 3897 C 364.603 -1.93069 4.06257 0
M  V30 3898 C 365.922 -3.49247 2.67795 0
M  V30 3899 H 363.041 -0.486876 0.553282 0
M  V30 3900 H 365.683 -0.654437 1.78374 0
M  V30 3901 H 363.833 -3.0592 2.39469 0
M  V30 3902 H 365.505 -1.38808 4.3992 0
M  V30 3903 H 363.748 -1.23898 4.1573 0
M  V30 3904 H 364.419 -2.74586 4.7886 0
M  V30 3905 H 366.895 -3.00411 2.8791 0
M  V30 3906 H 365.771 -4.25719 3.46489 0
M  V30 3907 H 366.032 -4.06482 1.73852 0
M  V30 3908 N 365.091 -1.34144 -0.827227 0
M  V30 3909 C 366.368 -1.16844 -1.56865 0
M  V30 3910 C 366.748 0.260654 -2.09485 0
M  V30 3911 O 366.096 1.26138 -1.9053 0
M  V30 3912 C 366.306 -2.21939 -2.6934 0
M  V30 3913 C 367.654 -2.56695 -3.3822 0
M  V30 3914 O 368.678 -2.20695 -2.79593 0
M  V30 3915 O 367.537 -3.18518 -4.44082 0
M  V30 3916 H 364.631 -0.452669 -0.692112 0
M  V30 3917 H 367.177 -1.45763 -0.868973 0
M  V30 3918 H 365.949 -3.17882 -2.28182 0
M  V30 3919 H 365.572 -1.94172 -3.46962 0
M  V30 3920 N 366.569 1.04691 -1.17803 0
M  V30 3921 C 367.817 1.7743 -0.967617 0
M  V30 3922 C 368.138 1.88359 0.504574 0
M  V30 3923 O 367.408 1.40402 1.36617 0
M  V30 3924 H 365.988 0.657242 -0.355024 0
M  V30 3925 H 368.65 1.2638 -1.48371 0
M  V30 3926 H 367.746 2.78924 -1.40027 0
M  V30 3927 N 368.047 0.979072 1.23499 0
M  V30 3928 C 368.995 0.510604 2.26926 0
M  V30 3929 C 369.989 -0.431691 1.63807 0
M  V30 3930 O 371.195 -0.30573 1.77385 0
M  V30 3931 H 367.57 0.146688 0.737554 0
M  V30 3932 H 369.541 1.39466 2.63803 0
M  V30 3933 C 368.29 -0.172658 3.47271 0
M  V30 3934 H 367.613 0.543331 3.96091 0
M  V30 3935 H 369.053 -0.464101 4.21452 0
M  V30 3936 C 367.512 -1.40345 3.06276 0
M  V30 3937 O 368.042 -2.49978 3.14442 0
M  V30 3938 N 366.248 -1.27362 2.61203 0
M  V30 3939 H 365.795 -0.381584 2.54758 0
M  V30 3940 H 365.753 -2.09822 2.34141 0
M  V30 3941 N 369.525 -1.3858 0.750561 0
M  V30 3942 C 370.941 -1.53759 0.427824 0
M  V30 3943 C 371.141 -1.71401 -1.05943 0
M  V30 3944 O 370.197 -1.72331 -1.84549 0
M  V30 3945 C 371.51 -2.74642 1.22443 0
M  V30 3946 C 373.058 -2.88489 1.2142 0
M  V30 3947 C 373.533 -4.12329 1.9937 0
M  V30 3948 N 375.024 -4.194 1.96616 0
M  V30 3949 C 375.759 -5.14209 2.53727 0
M  V30 3950 N 375.255 -6.14709 3.19539 0
M  V30 3951 N 377.048 -5.06537 2.43673 0
M  V30 3952 H 369.199 -1.25377 1.71447 0
M  V30 3953 H 371.462 -0.608844 0.726645 0
M  V30 3954 H 371.168 -2.68 2.27747 0
M  V30 3955 H 371.042 -3.67745 0.839273 0
M  V30 3956 H 373.429 -2.94614 0.169232 0
M  V30 3957 H 373.51 -1.96406 1.63885 0
M  V30 3958 H 373.154 -4.06966 3.03877 0
M  V30 3959 H 373.084 -5.03486 1.54302 0
M  V30 3960 H 375.575 -3.47421 1.48684 0
M  V30 3961 H 375.888 -6.8354 3.60545 0
M  V30 3962 H 374.233 -6.1505 3.23633 0
M  V30 3963 H 377.424 -4.26962 1.91889 0
M  V30 3964 H 377.597 -5.80245 2.88479 0
M  V30 3965 N 371.003 -0.499398 -1.49478 0
M  V30 3966 C 372.414 -0.051215 -1.8663 0
M  V30 3967 C 372.765 1.36238 -1.41186 0
M  V30 3968 O 371.89 2.01502 -0.789051 0
M  V30 3969 C 372.485 -0.0861651 -3.3869 0
M  V30 3970 C 371.044 0.30667 -3.75149 0
M  V30 3971 C 370.191 -0.459397 -2.73468 0
M  V30 3972 H 373.142 -0.712264 -1.41818 0
M  V30 3973 H 373.163 0.709507 -3.73826 0
M  V30 3974 H 372.675 -1.11512 -3.71735 0
M  V30 3975 H 370.776 1.33892 -3.47712 0
M  V30 3976 H 370.889 -0.0116669 -4.79099 0
M  V30 3977 H 369.253 0.0905645 -2.54539 0
M  V30 3978 H 370.036 -1.4884 -3.09357 0
M  V30 3979 N 372.481 1.55866 -0.233164 0
M  V30 3980 C 373.706 2.03449 0.402906 0
M  V30 3981 C 374.131 1.11166 1.51736 0
M  V30 3982 O 373.489 0.101996 1.81013 0
M  V30 3983 C 373.537 3.49165 0.9009 0
M  V30 3984 O 372.641 3.60019 2.01147 0
M  V30 3985 H 371.982 0.657913 0.0897025 0
M  V30 3986 H 374.512 2.01493 -0.355201 0
M  V30 3987 H 374.522 3.89716 1.2077 0
M  V30 3988 H 373.197 4.15813 0.0852889 0
M  V30 3989 H 371.774 3.3136 1.71042 0
M  V30 3990 N 373.959 -0.0401083 1.57549 0
M  V30 3991 C 375.184 -0.748931 1.93406 0
M  V30 3992 C 375.609 -1.68686 0.832274 0
M  V30 3993 O 374.967 -1.80047 -0.212818 0
M  V30 3994 C 375.015 -1.4916 3.28304 0
M  V30 3995 O 374.119 -2.6042 3.19774 0
M  V30 3996 H 373.46 -0.202212 0.63246 0
M  V30 3997 H 375.99 0.00112086 2.046 0
M  V30 3998 H 376 -1.86395 3.62934 0
M  V30 3999 H 374.675 -0.80364 4.08062 0
M  V30 4000 H 373.252 -2.25808 2.96758 0
M  V30 4001 N 375.437 -1.54477 -0.31217 0
M  V30 4002 C 376.4 -1.83923 -1.36766 0
M  V30 4003 C 377.4 -0.711563 -1.44199 0
M  V30 4004 O 378.59 -0.979866 -1.44029 0
M  V30 4005 C 375.722 -2.0095 -2.75376 0
M  V30 4006 H 376.915 -2.78239 -1.11906 0
M  V30 4007 H 374.468 -1.46369 -0.548257 0
M  V30 4008 H 375.203 -1.08883 -3.05475 0
M  V30 4009 H 374.988 -2.83018 -2.71373 0
M  V30 4010 H 376.478 -2.2514 -3.51713 0
M  V30 4011 N 376.915 0.57481 -1.46744 0
M  V30 4012 C 378.14 1.36341 -1.56288 0
M  V30 4013 C 378.565 1.86954 -0.207347 0
M  V30 4014 O 377.923 1.62006 0.813871 0
M  V30 4015 C 377.971 2.52147 -2.57787 0
M  V30 4016 O 377.075 3.53834 -2.11838 0
M  V30 4017 H 376.416 0.405713 -0.525636 0
M  V30 4018 H 378.946 0.696453 -1.92382 0
M  V30 4019 H 378.956 2.98958 -2.77648 0
M  V30 4020 H 377.631 2.14663 -3.5622 0
M  V30 4021 H 376.208 3.1345 -2.01999 0
M  V30 4022 N 378.394 1.34581 0.820102 0
M  V30 4023 C 379.619 1.30333 1.61332 0
M  V30 4024 C 380.044 -0.119339 1.87721 0
M  V30 4025 O 379.402 -1.08197 1.45475 0
M  V30 4026 C 379.45 2.10258 2.92957 0
M  V30 4027 O 378.554 1.47404 3.85157 0
M  V30 4028 H 377.895 0.447488 0.490561 0
M  V30 4029 H 380.425 1.77425 1.01889 0
M  V30 4030 H 380.435 2.21718 3.42498 0
M  V30 4031 H 379.11 3.13693 2.73074 0
M  V30 4032 H 377.687 1.44703 3.43679 0
M  V30 4033 N 379.872 -1.04064 1.18357 0
M  V30 4034 C 381.1 -1.80916 1.00384 0
M  V30 4035 C 381.515 -1.83414 -0.447738 0
M  V30 4036 O 380.872 -1.26962 -1.31099 0
M  V30 4037 C 380.923 -3.26516 1.55144 0
M  V30 4038 O 380.644 -3.2424 2.94618 0
M  V30 4039 C 382.145 -4.20013 1.41789 0
M  V30 4040 H 379.365 -0.569728 0.354474 0
M  V30 4041 H 381.909 -1.31151 1.56906 0
M  V30 4042 H 380.064 -3.73512 1.02798 0
M  V30 4043 H 380.478 -4.15452 3.20156 0
M  V30 4044 H 381.952 -5.20111 1.84901 0
M  V30 4045 H 382.429 -4.37667 0.36661 0
M  V30 4046 H 383.035 -3.78881 1.93207 0
M  V30 4047 N 381.35 -0.985608 -1.22978 0
M  V30 4048 C 382.575 -0.675254 -1.961 0
M  V30 4049 C 383 0.752154 -1.72407 0
M  V30 4050 O 382.358 1.5131 -0.998751 0
M  V30 4051 C 382.406 -0.977899 -3.47087 0
M  V30 4052 O 381.51 -0.072685 -4.12336 0
M  V30 4053 H 380.851 -0.253443 -0.613728 0
M  V30 4054 H 383.381 -1.32061 -1.56272 0
M  V30 4055 H 383.391 -0.916739 -3.97567 0
M  V30 4056 H 382.066 -2.01807 -3.63657 0
M  V30 4057 H 380.643 -0.188703 -3.72422 0
M  V30 4058 N 382.828 1.3818 -0.7579 0
M  V30 4059 C 384.053 2.04827 -0.325679 0
M  V30 4060 C 384.478 1.56788 1.03919 0
M  V30 4061 O 383.836 0.721811 1.66312 0
M  V30 4062 C 383.884 3.58774 -0.362447 0
M  V30 4063 O 382.988 4.07372 0.642033 0
M  V30 4064 H 382.329 0.64833 -0.143402 0
M  V30 4065 H 384.859 1.7677 -1.03023 0
M  V30 4066 H 384.869 4.07434 -0.214844 0
M  V30 4067 H 383.544 3.93096 -1.35824 0
M  V30 4068 H 382.121 3.70068 0.458688 0
M  V30 4069 N 384.306 0.507319 1.49211 0
M  V30 4070 C 385.253 -0.267728 2.29242 0
M  V30 4071 C 386.223 -0.954609 1.35928 0
M  V30 4072 O 387.408 -0.960046 1.64887 0
M  V30 4073 C 384.548 -1.32243 3.18756 0
M  V30 4074 C 383.661 -0.64669 4.27132 0
M  V30 4075 C 382.796 -1.68238 5.03855 0
M  V30 4076 C 381.835 -0.98885 6.0406 0
M  V30 4077 N 380.972 -1.96903 6.73924 0
M  V30 4078 H 385.812 0.420968 2.95012 0
M  V30 4079 H 383.349 0.219443 1.45454 0
M  V30 4080 H 385.307 -1.94599 3.69036 0
M  V30 4081 H 383.937 -1.97981 2.54958 0
M  V30 4082 H 382.989 0.0902926 3.80293 0
M  V30 4083 H 384.301 -0.101058 4.98698 0
M  V30 4084 H 383.455 -2.38081 5.58034 0
M  V30 4085 H 382.194 -2.26187 4.32077 0
M  V30 4086 H 381.199 -0.276222 5.49106 0
M  V30 4087 H 382.424 -0.415767 6.77826 0
M  V30 4088 H 380.37 -2.53803 6.04913 0
M  V30 4089 H 380.287 -1.47423 7.41487 0
M  V30 4090 H 381.555 -2.66015 7.32705 0
M  V30 4091 N 385.784 -1.5574 0.241426 0
M  V30 4092 C 386.747 -2.19877 -0.647063 0
M  V30 4093 C 387.747 -1.16642 -1.10686 0
M  V30 4094 O 388.937 -1.41757 -1.01245 0
M  V30 4095 C 386.069 -2.83797 -1.88871 0
M  V30 4096 H 387.262 -2.99772 -0.087574 0
M  V30 4097 H 384.815 -1.56298 -0.00813574 0
M  V30 4098 H 385.55 -2.07824 -2.48957 0
M  V30 4099 H 385.335 -3.59414 -1.56728 0
M  V30 4100 H 386.825 -3.32898 -2.52129 0
M  V30 4101 N 387.262 0.0317525 -1.57568 0
M  V30 4102 C 388.673 0.578692 -1.77505 0
M  V30 4103 C 389.024 1.75749 -0.872164 0
M  V30 4104 O 388.149 2.16298 -0.0663106 0
M  V30 4105 C 388.744 1.05658 -3.21904 0
M  V30 4106 C 387.303 1.54906 -3.43047 0
M  V30 4107 C 386.45 0.485939 -2.73009 0
M  V30 4108 H 389.401 -0.194475 -1.57504 0
M  V30 4109 H 389.422 1.92404 -3.28269 0
M  V30 4110 H 388.934 0.198422 -3.87592 0
M  V30 4111 H 387.035 2.42915 -2.82529 0
M  V30 4112 H 387.148 1.59841 -4.5165 0
M  V30 4113 H 385.512 0.940354 -2.36705 0
M  V30 4114 H 386.295 -0.362709 -3.41379 0
M  V30 4115 N 388.74 1.54641 0.303973 0
M  V30 4116 C 390.151 1.64811 0.877163 0
M  V30 4117 C 390.502 0.554838 1.88191 0
M  V30 4118 O 389.627 -0.309033 2.14182 0
M  V30 4119 C 390.222 2.9876 1.59775 0
M  V30 4120 C 388.781 3.11061 2.11938 0
M  V30 4121 C 387.928 2.60479 0.951097 0
M  V30 4122 H 390.879 1.58493 0.0810486 0
M  V30 4123 H 390.9 2.90017 2.46314 0
M  V30 4124 H 390.412 3.7831 0.866226 0
M  V30 4125 H 388.513 2.36225 2.88146 0
M  V30 4126 H 388.626 4.17171 2.35595 0
M  V30 4127 H 386.99 2.16859 1.33583 0
M  V30 4128 H 387.773 3.42504 0.233581 0
M  V30 4129 N 390.218 -0.567019 1.47046 0
M  V30 4130 C 391.443 -1.3551 1.57009 0
M  V30 4131 C 391.868 -1.86841 0.217259 0
M  V30 4132 O 391.226 -1.62435 -0.805268 0
M  V30 4133 C 391.274 -2.50777 2.5912 0
M  V30 4134 O 390.378 -3.52706 2.13711 0
M  V30 4135 H 389.719 -0.402919 0.52778 0
M  V30 4136 H 392.249 -0.686241 1.92748 0
M  V30 4137 H 392.259 -2.97481 2.79229 0
M  V30 4138 H 390.934 -2.12771 3.57353 0
M  V30 4139 H 389.511 -3.12374 2.03659 0
M  V30 4140 N 391.696 -1.35014 -0.812953 0
M  V30 4141 C 392.921 -1.31187 -1.60639 0
M  V30 4142 C 393.346 0.109382 -1.87782 0
M  V30 4143 O 392.704 1.07424 -1.46047 0
M  V30 4144 C 392.752 -2.11809 -2.91838 0
M  V30 4145 O 391.856 -1.49444 -3.8437 0
M  V30 4146 H 391.197 -0.450084 -0.488181 0
M  V30 4147 H 393.727 -1.77963 -1.00947 0
M  V30 4148 H 393.737 -2.23531 -3.41318 0
M  V30 4149 H 392.412 -3.15137 -2.71407 0
M  V30 4150 H 390.989 -1.46524 -3.42907 0
M  V30 4151 N 393.175 1.03435 -1.18907 0
M  V30 4152 C 394.591 1.28973 -0.940111 0
M  V30 4153 C 394.791 1.97676 0.390691 0
M  V30 4154 O 393.847 2.26127 1.12352 0
M  V30 4155 C 395.16 2.14221 -2.11021 0
M  V30 4156 C 396.708 2.27547 -2.14922 0
M  V30 4157 C 397.183 3.16164 -3.31367 0
M  V30 4158 N 398.674 3.23752 -3.31269 0
M  V30 4159 C 399.409 3.92495 -4.18014 0
M  V30 4160 N 398.905 4.63515 -5.14904 0
M  V30 4161 N 400.698 3.88838 -4.05908 0
M  V30 4162 H 392.849 0.57252 -2.04538 0
M  V30 4163 H 395.112 0.315184 -0.894071 0
M  V30 4164 H 394.818 1.71054 -3.073 0
M  V30 4165 H 394.692 3.14919 -2.0762 0
M  V30 4166 H 397.079 2.69947 -1.19217 0
M  V30 4167 H 397.16 1.26418 -2.22378 0
M  V30 4168 H 396.804 2.74474 -4.27348 0
M  V30 4169 H 396.734 4.17339 -3.21148 0
M  V30 4170 H 399.225 2.73167 -2.61129 0
M  V30 4171 H 399.538 5.13583 -5.77453 0
M  V30 4172 H 397.883 4.62398 -5.18857 0
M  V30 4173 H 401.074 3.32491 -3.29495 0
M  V30 4174 H 401.247 4.4214 -4.73726 0
M  V30 4175 N 394.653 0.992116 1.22453 0
M  V30 4176 C 396.069 0.702713 1.43297 0
M  V30 4177 C 396.269 -0.726909 1.87932 0
M  V30 4178 O 395.325 -1.49792 2.0327 0
M  V30 4179 C 396.638 1.70762 2.47509 0
M  V30 4180 C 398.186 1.72298 2.61309 0
M  V30 4181 C 398.661 2.71649 3.68742 0
M  V30 4182 N 400.152 2.70239 3.76199 0
M  V30 4183 C 400.887 3.43778 4.58917 0
M  V30 4184 N 400.383 4.26914 5.45633 0
M  V30 4185 N 402.176 3.32487 4.5322 0
M  V30 4186 H 394.327 1.91543 0.917871 0
M  V30 4187 H 396.59 0.826031 0.465162 0
M  V30 4188 H 396.296 2.73059 2.21657 0
M  V30 4189 H 396.17 1.49985 3.46099 0
M  V30 4190 H 398.557 0.706989 2.86506 0
M  V30 4191 H 398.638 1.97143 1.62997 0
M  V30 4192 H 398.282 3.73397 3.44292 0
M  V30 4193 H 398.212 2.44074 4.66622 0
M  V30 4194 H 400.703 2.09912 3.14237 0
M  V30 4195 H 401.016 4.79855 6.05771 0
M  V30 4196 H 399.361 4.31002 5.45218 0
M  V30 4197 H 402.552 2.6698 3.84499 0
M  V30 4198 H 402.725 3.90058 5.17454 0
M  V30 4199 N 396.131 -1.37776 0.765217 0
M  V30 4200 C 397.079 -2.32209 0.134798 0
M  V30 4201 C 398.073 -1.54607 -0.692315 0
M  V30 4202 O 399.279 -1.70052 -0.590109 0
M  V30 4203 H 395.654 -0.751591 0.0248005 0
M  V30 4204 H 397.625 -2.8297 0.947119 0
M  V30 4205 C 396.374 -3.39841 -0.735063 0
M  V30 4206 H 395.697 -3.99654 -0.107991 0
M  V30 4207 H 397.137 -4.08296 -1.14326 0
M  V30 4208 C 395.596 -2.79378 -1.88281 0
M  V30 4209 O 396.126 -2.69608 -2.97783 0
M  V30 4210 N 394.332 -2.37016 -1.68142 0
M  V30 4211 H 393.879 -2.45162 -0.790772 0
M  V30 4212 H 393.837 -1.96905 -2.45104 0
M  V30 4213 N 397.609 -0.515225 -1.4894 0
M  V30 4214 C 398.855 0.0242508 -2.02785 0
M  V30 4215 C 399.188 1.35323 -1.39289 0
M  V30 4216 O 398.463 1.87041 -0.533469 0
M  V30 4217 C 398.746 0.16184 -3.59736 0
M  V30 4218 C 398.599 -1.19127 -4.33738 0
M  V30 4219 C 399.918 0.895719 -4.30888 0
M  V30 4220 H 397.037 0.00733914 -0.736963 0
M  V30 4221 H 399.679 -0.669395 -1.77818 0
M  V30 4222 H 397.829 0.752624 -3.8114 0
M  V30 4223 H 399.501 -1.82202 -4.23792 0
M  V30 4224 H 397.744 -1.77695 -3.95736 0
M  V30 4225 H 398.415 -1.04815 -5.41957 0
M  V30 4226 H 400.891 0.394528 -4.14225 0
M  V30 4227 H 399.767 0.960859 -5.40425 0
M  V30 4228 H 400.028 1.9427 -3.97129 0
M  V30 4229 N 399.087 1.5561 -0.249682 0
M  V30 4230 C 400.335 1.98618 0.373548 0
M  V30 4231 C 400.656 1.13919 1.58264 0
M  V30 4232 O 399.926 0.222637 1.94631 0
M  V30 4233 H 398.506 0.733571 0.141006 0
M  V30 4234 H 401.168 1.91748 -0.349117 0
M  V30 4235 H 400.264 3.04584 0.680796 0
M  V30 4236 N 400.565 -0.0233959 1.57583 0
M  V30 4237 C 401.498 -1.05549 2.02323 0
M  V30 4238 C 402.476 -1.34843 0.908626 0
M  V30 4239 O 403.66 -1.47404 1.17491 0
M  V30 4240 C 400.787 -2.38885 2.40108 0
M  V30 4241 C 399.833 -2.2541 3.62067 0
M  V30 4242 S 400.666 -1.60217 5.1097 0
M  V30 4243 C 401.822 -2.95032 5.52003 0
M  V30 4244 H 402.055 -0.674435 2.89549 0
M  V30 4245 H 399.588 -0.23355 1.52623 0
M  V30 4246 H 401.546 -3.15562 2.62547 0
M  V30 4247 H 400.207 -2.74137 1.53323 0
M  V30 4248 H 399.4 -3.23854 3.86179 0
M  V30 4249 H 399.002 -1.56876 3.39508 0
M  V30 4250 H 401.294 -3.91357 5.53033 0
M  V30 4251 H 402.237 -2.75646 6.52246 0
M  V30 4252 H 402.645 -2.97865 4.79517 0
M  V30 4253 N 402.043 -1.548 -0.295768 0
M  V30 4254 C 403.291 -1.73985 -1.02828 0
M  V30 4255 C 403.612 -0.531406 -1.87619 0
M  V30 4256 O 402.882 0.454221 -1.90561 0
M  V30 4257 H 401.462 -0.641556 -0.382642 0
M  V30 4258 H 404.124 -1.92163 -0.325489 0
M  V30 4259 H 403.22 -2.63129 -1.67838 0
M  V30 4260 N 403.521 0.559213 -1.47345 0
M  V30 4261 C 404.749 1.34194 -1.57479 0
M  V30 4262 C 405.164 1.87463 -0.224261 0
M  V30 4263 O 404.521 1.64888 0.782185 0
M  V30 4264 C 404.572 2.51324 -2.59843 0
M  V30 4265 O 404.293 2.00256 -3.89653 0
M  V30 4266 C 405.794 3.43563 -2.80142 0
M  V30 4267 H 403.014 0.409136 -0.531835 0
M  V30 4268 H 405.558 0.677609 -1.92947 0
M  V30 4269 H 403.713 3.13699 -2.27314 0
M  V30 4270 H 404.127 2.76708 -4.4557 0
M  V30 4271 H 405.601 4.2217 -3.55635 0
M  V30 4272 H 406.078 3.9698 -1.87892 0
M  V30 4273 H 406.684 2.87005 -3.1386 0
M  V30 4274 N 404.999 1.35443 0.805782 0
M  V30 4275 C 406.227 1.31878 1.59423 0
M  V30 4276 C 406.642 -0.103562 1.88516 0
M  V30 4277 O 405.999 -1.05575 1.48863 0
M  V30 4278 C 406.05 2.12426 2.92502 0
M  V30 4279 O 405.771 3.49115 2.6467 0
M  V30 4280 C 407.272 2.16455 3.86862 0
M  V30 4281 H 404.492 0.453002 0.495005 0
M  V30 4282 H 407.036 1.78309 1.00131 0
M  V30 4283 H 405.191 1.69593 3.48306 0
M  V30 4284 H 405.605 3.90957 3.49647 0
M  V30 4285 H 407.079 2.77204 4.77349 0
M  V30 4286 H 407.556 1.16352 4.23508 0
M  V30 4287 H 408.162 2.59453 3.36993 0
M  V30 4288 N 406.477 -1.02803 1.19454 0
M  V30 4289 C 407.893 -1.28473 0.946937 0
M  V30 4290 C 408.093 -1.97881 -0.380202 0
M  V30 4291 O 407.149 -2.26719 -1.11151 0
M  V30 4292 C 408.462 -2.13099 2.12154 0
M  V30 4293 C 410.01 -2.26404 2.16126 0
M  V30 4294 C 410.485 -3.14402 3.33039 0
M  V30 4295 N 411.976 -3.21991 3.32981 0
M  V30 4296 C 412.711 -3.90272 4.20089 0
M  V30 4297 N 412.207 -4.60777 5.17355 0
M  V30 4298 N 414 -3.8668 4.07964 0
M  V30 4299 H 406.151 -0.561665 2.04839 0
M  V30 4300 H 408.414 -0.310438 0.89573 0
M  V30 4301 H 408.12 -1.69422 3.08203 0
M  V30 4302 H 407.994 -3.13813 2.09287 0
M  V30 4303 H 410.381 -2.69311 1.20647 0
M  V30 4304 H 410.462 -1.25237 2.23045 0
M  V30 4305 H 410.106 -2.72204 4.28798 0
M  V30 4306 H 410.036 -4.1563 3.23356 0
M  V30 4307 H 412.527 -2.71778 2.62574 0
M  V30 4308 H 412.84 -5.10513 5.80169 0
M  V30 4309 H 411.185 -4.5964 5.21302 0
M  V30 4310 H 414.376 -3.30739 3.31254 0
M  V30 4311 H 414.549 -4.39621 4.76064 0
M  V30 4312 N 407.956 -0.998596 -1.21925 0
M  V30 4313 C 409.372 -0.710303 -1.42923 0
M  V30 4314 C 409.572 0.716933 -1.88314 0
M  V30 4315 O 408.628 1.48712 -2.04062 0
M  V30 4316 C 409.941 -1.72072 -2.466 0
M  V30 4317 C 411.489 -1.73681 -2.60392 0
M  V30 4318 C 411.964 -2.73601 -3.67296 0
M  V30 4319 N 413.455 -2.7223 -3.7476 0
M  V30 4320 C 414.19 -3.46206 -4.57087 0
M  V30 4321 N 413.686 -4.29802 -5.43362 0
M  V30 4322 N 415.479 -3.34886 -4.51451 0
M  V30 4323 H 407.63 -1.92028 -0.9077 0
M  V30 4324 H 409.893 -0.828487 -0.460775 0
M  V30 4325 H 409.599 -2.74231 -2.20206 0
M  V30 4326 H 409.473 -1.51818 -3.45299 0
M  V30 4327 H 411.86 -0.722173 -2.86127 0
M  V30 4328 H 411.941 -1.98005 -1.61949 0
M  V30 4329 H 411.585 -3.75217 -3.42307 0
M  V30 4330 H 411.515 -2.46545 -4.65321 0
M  V30 4331 H 414.006 -2.11576 -3.1312 0
M  V30 4332 H 414.319 -4.83061 -6.03218 0
M  V30 4333 H 412.664 -4.33887 -5.42925 0
M  V30 4334 H 415.855 -2.69015 -3.83078 0
M  V30 4335 H 416.028 -3.92796 -5.15379 0
M  V30 4336 N 409.434 1.37368 -0.772513 0
M  V30 4337 C 410.364 2.32856 -0.173304 0
M  V30 4338 C 411.345 1.55818 0.682262 0
M  V30 4339 O 412.53 1.84052 0.619566 0
M  V30 4340 C 409.66 3.40048 0.706007 0
M  V30 4341 C 408.614 4.27973 -0.0483144 0
M  V30 4342 C 407.94 5.26184 0.950491 0
M  V30 4343 C 409.24 5.07665 -1.22776 0
M  V30 4344 H 410.934 2.83217 -0.971002 0
M  V30 4345 H 408.48 1.3617 -0.468377 0
M  V30 4346 H 410.433 4.05827 1.13501 0
M  V30 4347 H 409.157 2.88214 1.53623 0
M  V30 4348 H 407.816 3.63726 -0.458107 0
M  V30 4349 H 407.464 4.7063 1.77529 0
M  V30 4350 H 407.164 5.85872 0.450314 0
M  V30 4351 H 408.688 5.94838 1.37842 0
M  V30 4352 H 410.102 5.66578 -0.875366 0
M  V30 4353 H 408.499 5.76681 -1.66007 0
M  V30 4354 H 409.569 4.40294 -2.03149 0
M  V30 4355 N 410.912 0.523116 1.48665 0
M  V30 4356 C 412.16 -0.0134497 2.02096 0
M  V30 4357 C 412.481 -1.35418 1.40311 0
M  V30 4358 O 411.751 -1.87543 0.566074 0
M  V30 4359 H 410.331 -0.00795915 0.746958 0
M  V30 4360 H 412.993 0.685388 1.82451 0
M  V30 4361 H 412.089 -0.126849 3.11842 0
M  V30 4362 N 412.39 -1.55475 0.257931 0
M  V30 4363 C 413.615 -2.04064 -0.370488 0
M  V30 4364 C 414.04 -1.13565 -1.49948 0
M  V30 4365 O 413.398 -0.130781 -1.80828 0
M  V30 4366 C 413.446 -3.50554 -0.845237 0
M  V30 4367 O 412.55 -3.63173 -1.95394 0
M  V30 4368 H 411.891 -0.659257 -0.0792243 0
M  V30 4369 H 414.421 -2.00903 0.387212 0
M  V30 4370 H 414.431 -3.91588 -1.14555 0
M  V30 4371 H 413.106 -4.15896 -0.0191259 0
M  V30 4372 H 411.683 -3.34039 -1.65748 0
M  V30 4373 N 413.868 0.0150385 -1.57593 0
M  V30 4374 C 415.093 0.718067 -1.94573 0
M  V30 4375 C 415.518 1.6734 -0.859005 0
M  V30 4376 O 414.876 1.80362 0.184147 0
M  V30 4377 C 414.924 1.43918 -3.30636 0
M  V30 4378 O 414.028 2.55299 -3.23876 0
M  V30 4379 H 413.369 0.192125 -0.635597 0
M  V30 4380 H 415.899 -0.0336708 -2.04572 0
M  V30 4381 H 415.909 1.80598 -3.65853 0
M  V30 4382 H 414.584 0.738619 -4.09289 0
M  V30 4383 H 413.161 2.21058 -3.00312 0
M  V30 4384 N 415.346 1.54954 0.287554 0
M  V30 4385 C 416.574 1.78881 1.03967 0
M  V30 4386 C 416.989 0.554894 1.80462 0
M  V30 4387 O 416.346 -0.475676 1.76192 0
M  V30 4388 C 416.397 3.00488 2.0097 0
M  V30 4389 O 416.118 4.19113 1.27577 0
M  V30 4390 C 417.619 3.36907 2.88112 0
M  V30 4391 H 414.839 0.596259 0.307761 0
M  V30 4392 H 417.383 2.01937 0.322749 0
M  V30 4393 H 415.538 2.79601 2.68145 0
M  V30 4394 H 415.952 4.87765 1.92835 0
M  V30 4395 H 417.426 4.25205 3.52001 0
M  V30 4396 H 417.903 2.55659 3.57121 0
M  V30 4397 H 418.509 3.60001 2.26449 0
M  V30 4398 N 416.824 -0.551391 1.4764 0
M  V30 4399 C 417.754 -1.66757 1.63445 0
M  V30 4400 C 418.735 -1.63077 0.483742 0
M  V30 4401 O 419.92 -1.80607 0.71377 0
M  V30 4402 C 417.05 -3.05387 1.65396 0
M  V30 4403 C 416.004 -3.23918 2.79752 0
M  V30 4404 C 415.33 -4.63393 2.66779 0
M  V30 4405 C 416.63 -3.08735 4.21284 0
M  V30 4406 H 418.324 -1.53786 2.56886 0
M  V30 4407 H 415.87 -0.738415 1.23626 0
M  V30 4408 H 417.823 -3.83325 1.75043 0
M  V30 4409 H 416.547 -3.19332 0.685195 0
M  V30 4410 H 415.206 -2.48391 2.69625 0
M  V30 4411 H 414.854 -4.74144 1.67918 0
M  V30 4412 H 414.554 -4.7674 3.43501 0
M  V30 4413 H 416.078 -5.43458 2.78364 0
M  V30 4414 H 417.492 -3.76484 4.32357 0
M  V30 4415 H 415.889 -3.33588 4.98838 0
M  V30 4416 H 416.959 -2.0541 4.39243 0
M  V30 4417 N 418.302 -1.35869 -0.798587 0
M  V30 4418 C 419.55 -1.29332 -1.55298 0
M  V30 4419 C 419.871 0.129729 -1.94568 0
M  V30 4420 O 419.141 1.06796 -1.6423 0
M  V30 4421 H 417.721 -0.475737 -0.57592 0
M  V30 4422 H 420.383 -1.70062 -0.952093 0
M  V30 4423 H 419.479 -1.91458 -2.46476 0
M  V30 4424 N 419.78 1.02168 -1.19998 0
M  V30 4425 C 421.005 1.79833 -1.03319 0
M  V30 4426 C 421.43 1.83504 0.413281 0
M  V30 4427 O 420.788 1.26635 1.29743 0
M  V30 4428 C 420.836 3.22396 -1.61533 0
M  V30 4429 O 419.94 4.03555 -0.849519 0
M  V30 4430 H 419.281 0.554872 -0.364709 0
M  V30 4431 H 421.811 1.28542 -1.59179 0
M  V30 4432 H 421.821 3.73124 -1.65054 0
M  V30 4433 H 420.496 3.19039 -2.66809 0
M  V30 4434 H 419.073 3.62169 -0.888129 0
M  V30 4435 N 421.258 1.00505 1.21394 0
M  V30 4436 C 422.205 0.565496 2.23765 0
M  V30 4437 C 423.175 -0.408466 1.60999 0
M  V30 4438 O 424.36 -0.310503 1.88257 0
M  V30 4439 C 421.5 -0.101667 3.4495 0
M  V30 4440 C 420.613 0.915479 4.22188 0
M  V30 4441 C 419.748 0.220574 5.30742 0
M  V30 4442 C 418.787 1.22527 5.99711 0
M  V30 4443 N 417.924 0.557831 6.9988 0
M  V30 4444 H 422.764 1.44314 2.60725 0
M  V30 4445 H 420.301 0.722643 1.28126 0
M  V30 4446 H 422.259 -0.505504 4.14126 0
M  V30 4447 H 420.889 -0.94303 3.08718 0
M  V30 4448 H 419.941 1.43756 3.52191 0
M  V30 4449 H 421.253 1.68005 4.69655 0
M  V30 4450 H 420.407 -0.239368 6.06228 0
M  V30 4451 H 419.146 -0.576401 4.84282 0
M  V30 4452 H 418.151 1.69571 5.22997 0
M  V30 4453 H 419.376 2.02332 6.48258 0
M  V30 4454 H 417.322 -0.219486 6.55633 0
M  V30 4455 H 417.239 1.26065 7.45415 0
M  V30 4456 H 418.507 0.121095 7.79406 0
M  V30 4457 N 422.737 -1.36956 0.779787 0
M  V30 4458 C 423.962 -2.04283 0.358224 0
M  V30 4459 C 424.387 -1.58422 -1.01411 0
M  V30 4460 O 423.745 -0.748179 -1.65142 0
M  V30 4461 C 423.793 -3.58152 0.419479 0
M  V30 4462 O 422.897 -4.08342 -0.577142 0
M  V30 4463 H 422.238 -0.645967 0.153698 0
M  V30 4464 H 424.768 -1.75108 1.05822 0
M  V30 4465 H 424.778 -4.07041 0.279636 0
M  V30 4466 H 423.453 -3.90886 1.42061 0
M  V30 4467 H 422.03 -3.70751 -0.399755 0
M  V30 4468 N 424.215 -0.530993 -1.48385 0
M  V30 4469 C 425.44 0.000729535 -2.074 0
M  V30 4470 C 425.865 1.27298 -1.3848 0
M  V30 4471 O 425.223 1.75599 -0.451081 0
M  V30 4472 C 425.271 0.206697 -3.60007 0
M  V30 4473 O 424.375 1.27514 -3.92191 0
M  V30 4474 H 423.716 -0.039583 -0.662819 0
M  V30 4475 H 426.246 -0.739194 -1.9078 0
M  V30 4476 H 426.256 0.42904 -4.05738 0
M  V30 4477 H 424.931 -0.722675 -4.09573 0
M  V30 4478 H 423.508 1.03537 -3.58238 0
M  V30 4479 N 425.693 1.55336 -0.266172 0
M  V30 4480 C 426.656 2.20878 0.612001 0
M  V30 4481 C 427.656 1.18388 1.08816 0
M  V30 4482 O 428.846 1.4335 0.989774 0
M  V30 4483 C 425.978 2.86765 1.84332 0
M  V30 4484 H 427.171 2.99873 0.0398718 0
M  V30 4485 H 424.724 1.56291 -0.0167309 0
M  V30 4486 H 425.459 2.11759 2.45619 0
M  V30 4487 H 425.244 3.61862 1.5099 0
M  V30 4488 H 426.734 3.36867 2.46801 0
M  V30 4489 N 427.171 -0.0066808 1.57599 0
M  V30 4490 C 428.134 -0.985035 2.06953 0
M  V30 4491 C 429.134 -1.27663 0.977687 0
M  V30 4492 O 430.324 -1.22293 1.24057 0
M  V30 4493 C 427.456 -2.3118 2.50536 0
M  V30 4494 H 428.649 -0.558255 2.94658 0
M  V30 4495 H 426.202 -0.254011 1.54222 0
M  V30 4496 H 426.937 -2.78561 1.66054 0
M  V30 4497 H 426.722 -2.11338 3.3027 0
M  V30 4498 H 428.212 -3.01377 2.8907 0
M  V30 4499 N 428.649 -1.55105 -0.279332 0
M  V30 4500 C 429.596 -1.8755 -1.34513 0
M  V30 4501 C 430.566 -0.726384 -1.49375 0
M  V30 4502 O 431.751 -0.977063 -1.63884 0
M  V30 4503 C 428.891 -2.14738 -2.70151 0
M  V30 4504 C 428.004 -3.42285 -2.63562 0
M  V30 4505 C 427.139 -3.59206 -3.91337 0
M  V30 4506 C 426.178 -4.80467 -3.79233 0
M  V30 4507 N 425.315 -4.94079 -4.98829 0
M  V30 4508 H 430.155 -2.78456 -1.06143 0
M  V30 4509 H 427.692 -1.37867 -0.512936 0
M  V30 4510 H 429.65 -2.28501 -3.49061 0
M  V30 4511 H 428.28 -1.27075 -2.96735 0
M  V30 4512 H 427.332 -3.37029 -1.76397 0
M  V30 4513 H 428.644 -4.31328 -2.50515 0
M  V30 4514 H 427.798 -3.72751 -4.78687 0
M  V30 4515 H 426.537 -2.68337 -4.07243 0
M  V30 4516 H 425.542 -4.66932 -2.90266 0
M  V30 4517 H 426.767 -5.72765 -3.64852 0
M  V30 4518 H 424.713 -4.06139 -5.15158 0
M  V30 4519 H 424.63 -5.77156 -4.8829 0
M  V30 4520 H 425.898 -5.12003 -5.8777 0
M  V30 4521 N 430.127 0.543554 -1.4793 0
M  V30 4522 C 431.037 1.67657 -1.64098 0
M  V30 4523 C 432.053 1.65934 -0.523622 0
M  V30 4524 O 433.229 1.85133 -0.792943 0
M  V30 4525 C 430.294 3.04146 -1.66421 0
M  V30 4526 C 429.355 3.16831 -2.89684 0
M  V30 4527 C 428.588 4.46809 -2.91886 0
M  V30 4528 O 428.811 5.33095 -2.02895 0
M  V30 4529 O 427.745 4.63573 -3.83906 0
M  V30 4530 H 431.571 1.56957 -2.59997 0
M  V30 4531 H 429.156 0.715116 -1.31173 0
M  V30 4532 H 431.038 3.85346 -1.70548 0
M  V30 4533 H 429.713 3.152 -0.736923 0
M  V30 4534 H 428.62 2.34977 -2.91095 0
M  V30 4535 H 429.953 3.10687 -3.81752 0
M  V30 4536 N 431.605 1.3629 0.791371 0
M  V30 4537 C 432.853 1.30154 1.5461 0
M  V30 4538 C 433.174 -0.119409 1.94634 0
M  V30 4539 O 432.444 -1.05924 1.64794 0
M  V30 4540 H 431.024 0.478784 0.573389 0
M  V30 4541 H 433.686 1.70565 0.94306 0
M  V30 4542 H 432.782 1.92762 2.45457 0
M  V30 4543 N 433.083 -1.0153 1.20538 0
M  V30 4544 C 434.046 -2.0826 0.957098 0
M  V30 4545 C 435.046 -1.60657 -0.0678655 0
M  V30 4546 O 436.236 -1.73385 0.168332 0
M  V30 4547 C 433.368 -3.38033 0.441188 0
M  V30 4548 H 434.561 -2.31719 1.90384 0
M  V30 4549 H 432.114 -1.1835 1.02093 0
M  V30 4550 H 432.849 -3.20249 -0.510961 0
M  V30 4551 H 432.634 -3.73911 1.18038 0
M  V30 4552 H 434.124 -4.16613 0.287009 0
M  V30 4553 N 434.561 -1.01147 -1.20859 0
M  V30 4554 C 435.809 -0.696486 -1.89719 0
M  V30 4555 C 436.13 0.775788 -1.78904 0
M  V30 4556 O 435.4 1.55759 -1.18811 0
M  V30 4557 H 433.98 -0.254628 -0.702263 0
M  V30 4558 H 436.642 -1.28197 -1.46804 0
M  V30 4559 H 435.738 -0.975357 -2.96468 0
M  V30 4560 N 436.039 1.36541 -0.78704 0
M  V30 4561 C 437.002 2.28413 -0.189778 0
M  V30 4562 C 438.002 1.48719 0.611499 0
M  V30 4563 O 439.192 1.68737 0.432842 0
M  V30 4564 C 436.324 3.32824 0.737638 0
M  V30 4565 H 437.517 2.82743 -0.999831 0
M  V30 4566 H 435.07 1.46065 -0.556298 0
M  V30 4567 H 435.805 2.83646 1.57212 0
M  V30 4568 H 435.59 3.91752 0.165044 0
M  V30 4569 H 437.08 4.0144 1.15047 0
M  V30 4570 N 437.518 0.538854 1.48102 0
M  V30 4571 C 438.764 0.00801365 2.02798 0
M  V30 4572 C 439.097 -1.3309 1.41424 0
M  V30 4573 O 438.372 -1.86169 0.563158 0
M  V30 4574 C 438.655 -0.104589 3.59948 0
M  V30 4575 C 438.508 1.26012 4.31788 0
M  V30 4576 C 439.827 -0.827055 4.32259 0
M  V30 4577 H 436.946 0.00438624 0.736987 0
M  V30 4578 H 439.588 0.6976 1.7673 0
M  V30 4579 H 437.738 -0.691893 3.82289 0
M  V30 4580 H 439.41 1.88922 4.2084 0
M  V30 4581 H 437.653 1.83968 3.92859 0
M  V30 4582 H 438.324 1.13424 5.40221 0
M  V30 4583 H 440.8 -0.328578 4.14801 0
M  V30 4584 H 439.676 -0.87476 5.41885 0
M  V30 4585 H 439.937 -1.87927 4.0017 0
M  V30 4586 N 438.996 -1.55193 0.274407 0
M  V30 4587 C 440.273 -1.91584 -0.394331 0
M  V30 4588 C 440.653 -1.19858 -1.73774 0
M  V30 4589 O 440.001 -0.3252 -2.26174 0
M  V30 4590 C 440.211 -3.4487 -0.535311 0
M  V30 4591 C 441.559 -4.16636 -0.818534 0
M  V30 4592 O 442.583 -3.5076 -0.620146 0
M  V30 4593 O 441.442 -5.33209 -1.19792 0
M  V30 4594 H 438.536 -0.798349 -0.215794 0
M  V30 4595 H 441.082 -1.66646 0.320507 0
M  V30 4596 H 439.854 -3.89145 0.410141 0
M  V30 4597 H 439.477 -3.75759 -1.29964 0
M  V30 4598 N 440.474 -0.00167713 -1.576 0
M  V30 4599 C 441.384 1.00548 -2.1196 0
M  V30 4600 C 442.4 1.3758 -1.06526 0
M  V30 4601 O 443.576 1.46278 -1.38436 0
M  V30 4602 C 440.641 2.27809 -2.6135 0
M  V30 4603 C 439.702 1.97074 -3.81393 0
M  V30 4604 C 438.935 3.18267 -4.28417 0
M  V30 4605 O 439.158 4.30009 -3.74765 0
M  V30 4606 O 438.092 3.02167 -5.20556 0
M  V30 4607 H 441.918 0.573373 -2.98238 0
M  V30 4608 H 439.503 0.217255 -1.47812 0
M  V30 4609 H 441.385 3.02568 -2.93309 0
M  V30 4610 H 440.06 2.70254 -1.78169 0
M  V30 4611 H 438.967 1.19785 -3.54404 0
M  V30 4612 H 440.3 1.59464 -4.65652 0
M  V30 4613 N 441.952 1.55251 0.271103 0
M  V30 4614 C 442.862 1.9136 1.35714 0
M  V30 4615 C 443.878 0.811075 1.5394 0
M  V30 4616 O 445.054 1.11031 1.6803 0
M  V30 4617 C 442.119 2.1798 2.69603 0
M  V30 4618 C 441.18 3.4153 2.60107 0
M  V30 4619 C 440.413 3.66871 3.8761 0
M  V30 4620 O 440.636 2.94689 4.8838 0
M  V30 4621 O 439.57 4.60405 3.87699 0
M  V30 4622 H 443.396 2.83815 1.08088 0
M  V30 4623 H 440.981 1.41821 0.469792 0
M  V30 4624 H 442.863 2.36518 3.48765 0
M  V30 4625 H 441.538 1.28708 2.97012 0
M  V30 4626 H 440.445 3.28325 1.79314 0
M  V30 4627 H 441.778 4.31027 2.37647 0
M  V30 4628 N 443.43 -0.535701 1.48216 0
M  V30 4629 C 444.707 -1.29683 1.46429 0
M  V30 4630 C 445.087 -2.10391 0.172852 0
M  V30 4631 O 444.435 -2.12282 -0.845488 0
M  V30 4632 C 444.645 -2.18313 2.72287 0
M  V30 4633 C 445.993 -2.78639 3.20383 0
M  V30 4634 O 447.017 -2.28604 2.73164 0
M  V30 4635 O 445.876 -3.69636 4.02531 0
M  V30 4636 H 442.97 -0.585026 0.584529 0
M  V30 4637 H 445.516 -0.552827 1.60443 0
M  V30 4638 H 444.288 -1.58421 3.57797 0
M  V30 4639 H 443.911 -2.99971 2.60966 0
M  V30 4640 N 444.908 -1.36708 -0.784132 0
M  V30 4641 C 446.155 -1.31231 -1.54222 0
M  V30 4642 C 446.483 0.106864 -1.94206 0
M  V30 4643 O 445.738 1.07734 -1.63376 0
M  V30 4644 C 446.037 -2.18571 -2.82774 0
M  V30 4645 C 445.703 -3.67039 -2.61903 0
M  V30 4646 C 444.365 -4.07503 -2.55919 0
M  V30 4647 C 446.717 -4.61149 -2.4288 0
M  V30 4648 C 444.045 -5.40211 -2.28886 0
M  V30 4649 C 446.397 -5.94081 -2.17373 0
M  V30 4650 C 445.061 -6.33664 -2.09825 0
M  V30 4651 H 444.331 -0.48021 -0.56434 0
M  V30 4652 H 446.978 -1.68807 -0.904233 0
M  V30 4653 H 445.283 -1.73949 -3.51068 0
M  V30 4654 H 446.98 -2.11655 -3.40592 0
M  V30 4655 H 443.57 -3.34941 -2.67418 0
M  V30 4656 H 447.754 -4.30756 -2.46501 0
M  V30 4657 H 443.01 -5.69855 -2.21529 0
M  V30 4658 H 447.184 -6.66566 -2.01649 0
M  V30 4659 H 444.811 -7.36423 -1.88641 0
M  V30 4660 N 446.386 1.0089 -1.21074 0
M  V30 4661 C 447.635 1.74019 -1.01981 0
M  V30 4662 C 447.948 1.90408 0.447665 0
M  V30 4663 O 449.154 2.60707 0.757906 0
M  V30 4664 C 447.61 3.13026 -1.77603 0
M  V30 4665 C 447.218 3.04623 -3.28495 0
M  V30 4666 C 448.962 3.90312 -1.66904 0
M  V30 4667 C 446.869 4.38685 -3.96623 0
M  V30 4668 H 445.799 0.652422 -0.377971 0
M  V30 4669 H 448.45 1.12755 -1.44771 0
M  V30 4670 H 446.832 3.74878 -1.27604 0
M  V30 4671 H 448.006 2.52032 -3.85767 0
M  V30 4672 H 446.321 2.40827 -3.39693 0
M  V30 4673 H 448.918 4.8951 -2.15138 0
M  V30 4674 H 449.261 4.11558 -0.62658 0
M  V30 4675 H 449.794 3.35104 -2.14359 0
M  V30 4676 H 446.533 4.22641 -5.01054 0
M  V30 4677 H 446.053 4.91252 -3.4414 0
M  V30 4678 H 447.732 5.075 -4.01314 0
M  V30 4679 N 447.864 1.01787 1.20321 0
M  V30 4680 C 448.811 0.589197 2.23153 0
M  V30 4681 C 449.781 -0.391367 1.61423 0
M  V30 4682 O 450.966 -0.290518 1.88575 0
M  V30 4683 C 448.106 -0.0650747 3.45039 0
M  V30 4684 C 447.219 0.960207 4.21194 0
M  V30 4685 C 446.354 0.276854 5.30478 0
M  V30 4686 C 445.393 1.2888 5.98378 0
M  V30 4687 N 444.53 0.632031 6.99249 0
M  V30 4688 H 449.37 1.47071 2.59179 0
M  V30 4689 H 446.907 0.736192 1.27352 0
M  V30 4690 H 448.865 -0.461552 4.14639 0
M  V30 4691 H 447.495 -0.910233 3.09701 0
M  V30 4692 H 446.547 1.47484 3.50646 0
M  V30 4693 H 447.859 1.72977 4.67847 0
M  V30 4694 H 447.013 -0.175056 6.06447 0
M  V30 4695 H 445.752 -0.525004 4.84866 0
M  V30 4696 H 444.757 1.75109 5.21169 0
M  V30 4697 H 445.982 2.09196 6.46076 0
M  V30 4698 H 443.928 -0.149935 6.55829 0
M  V30 4699 H 443.845 1.33964 7.44036 0
M  V30 4700 H 445.113 0.203755 7.79234 0
M  V30 4701 N 449.342 -1.36122 0.79427 0
M  V30 4702 C 450.305 -2.28309 0.201889 0
M  V30 4703 C 451.305 -1.49041 -0.603603 0
M  V30 4704 O 452.495 -1.68964 -0.423888 0
M  V30 4705 C 449.627 -3.3321 -0.719978 0
M  V30 4706 H 450.82 -2.82208 1.01481 0
M  V30 4707 H 448.373 -1.45768 0.564037 0
M  V30 4708 H 449.108 -2.84475 -1.55706 0
M  V30 4709 H 448.893 -3.91835 -0.144266 0
M  V30 4710 H 450.383 -4.02044 -1.12916 0
M  V30 4711 N 450.82 -0.546701 -1.47814 0
M  V30 4712 C 452.067 -0.0187407 -2.02491 0
M  V30 4713 C 452.395 1.32685 -1.42215 0
M  V30 4714 O 451.65 1.87413 -0.563454 0
M  V30 4715 C 451.949 0.134869 -3.57145 0
M  V30 4716 C 451.615 -1.13849 -4.3629 0
M  V30 4717 C 450.277 -1.48743 -4.57634 0
M  V30 4718 C 452.629 -1.98277 -4.82012 0
M  V30 4719 C 449.957 -2.67932 -5.21948 0
M  V30 4720 C 452.309 -3.16659 -5.4764 0
M  V30 4721 C 450.973 -3.51879 -5.67219 0
M  V30 4722 H 450.243 -0.0068577 -0.740968 0
M  V30 4723 H 452.89 -0.716097 -1.77607 0
M  V30 4724 H 451.195 0.915118 -3.80963 0
M  V30 4725 H 452.892 0.558556 -3.97091 0
M  V30 4726 H 449.482 -0.856767 -4.19949 0
M  V30 4727 H 453.666 -1.72628 -4.6531 0
M  V30 4728 H 448.922 -2.95401 -5.35302 0
M  V30 4729 H 453.096 -3.82374 -5.82033 0
M  V30 4730 H 450.723 -4.44331 -6.16825 0
M  V30 4731 N 452.299 1.55045 -0.282633 0
M  V30 4732 C 453.576 1.9179 0.384166 0
M  V30 4733 C 453.956 1.20778 1.73136 0
M  V30 4734 O 453.304 0.33719 2.25998 0
M  V30 4735 C 453.514 3.45149 0.517014 0
M  V30 4736 C 454.862 4.17064 0.796427 0
M  V30 4737 O 455.886 3.51084 0.601535 0
M  V30 4738 O 454.745 5.33837 1.16962 0
M  V30 4739 H 451.839 0.799483 0.211558 0
M  V30 4740 H 454.385 1.66474 -0.32934 0
M  V30 4741 H 453.157 3.88922 -0.430772 0
M  V30 4742 H 452.78 3.76443 1.2797 0
M  V30 4743 N 453.777 0.010035 1.57597 0
M  V30 4744 C 455.054 -0.710296 1.82248 0
M  V30 4745 C 455.434 -1.91426 0.889911 0
M  V30 4746 O 454.782 -2.28424 -0.0590292 0
M  V30 4747 C 454.992 -1.10655 3.30993 0
M  V30 4748 C 456.34 -1.50621 3.96987 0
M  V30 4749 O 457.364 -1.20007 3.35375 0
M  V30 4750 O 456.223 -2.07587 5.05539 0
M  V30 4751 H 453.317 -0.34673 0.750804 0
M  V30 4752 H 455.863 0.0362578 1.69661 0
M  V30 4753 H 454.635 -0.248826 3.90508 0
M  V30 4754 H 454.258 -1.91189 3.48615 0
M  V30 4755 N 455.255 -1.55392 -0.262866 0
M  V30 4756 C 456.501 -1.76737 -0.99458 0
M  V30 4757 C 456.834 -0.572453 -1.85571 0
M  V30 4758 O 456.109 0.429732 -1.89693 0
M  V30 4759 C 456.392 -3.07824 -1.8686 0
M  V30 4760 C 456.245 -4.3769 -1.03672 0
M  V30 4761 C 457.564 -3.35021 -2.85393 0
M  V30 4762 H 454.683 -0.643005 -0.360157 0
M  V30 4763 H 457.325 -1.88126 -0.266216 0
M  V30 4764 H 455.475 -2.98245 -2.48962 0
M  V30 4765 H 457.147 -4.59238 -0.43563 0
M  V30 4766 H 455.39 -4.32461 -0.340513 0
M  V30 4767 H 456.061 -5.25759 -1.6817 0
M  V30 4768 H 458.537 -3.44458 -2.33426 0
M  V30 4769 H 457.413 -4.27989 -3.43681 0
M  V30 4770 H 457.674 -2.55153 -3.61039 0
M  V30 4771 N 456.733 0.527833 -1.48498 0
M  V30 4772 C 458.144 1.10975 -1.50138 0
M  V30 4773 C 458.495 1.943 -0.272378 0
M  V30 4774 O 457.62 2.07319 0.620301 0
M  V30 4775 C 458.215 2.01927 -2.72049 0
M  V30 4776 C 456.774 2.55332 -2.76554 0
M  V30 4777 C 455.921 1.32341 -2.43683 0
M  V30 4778 H 458.872 0.312986 -1.55583 0
M  V30 4779 H 458.893 2.86244 -2.50689 0
M  V30 4780 H 458.405 1.41254 -3.61481 0
M  V30 4781 H 456.506 3.19721 -1.91336 0
M  V30 4782 H 456.619 2.94319 -3.78038 0
M  V30 4783 H 454.983 1.63989 -1.94884 0
M  V30 4784 H 455.766 0.734165 -3.35358 0
M  V30 4785 N 458.211 1.37122 0.776871 0
M  V30 4786 C 459.457 1.32243 1.53752 0
M  V30 4787 C 459.79 -0.0944745 1.9397 0
M  V30 4788 O 459.065 -1.05068 1.6368 0
M  V30 4789 C 459.348 2.25681 2.80607 0
M  V30 4790 C 459.201 3.76127 2.46676 0
M  V30 4791 C 460.52 2.17657 3.82509 0
M  V30 4792 H 457.639 0.481704 0.557791 0
M  V30 4793 H 460.281 1.6778 0.891612 0
M  V30 4794 H 458.431 1.95505 3.35723 0
M  V30 4795 H 460.103 4.16877 1.97513 0
M  V30 4796 H 458.346 3.94946 1.79443 0
M  V30 4797 H 459.017 4.36933 3.37333 0
M  V30 4798 H 461.493 2.44245 3.36873 0
M  V30 4799 H 460.369 2.85185 4.69 0
M  V30 4800 H 460.63 1.16785 4.26396 0
M  V30 4801 N 459.689 -1.00246 1.21608 0
M  V30 4802 C 460.935 -1.74319 1.03638 0
M  V30 4803 C 461.268 -1.89408 -0.428749 0
M  V30 4804 O 460.543 -1.43026 -1.3181 0
M  V30 4805 C 460.826 -3.15431 1.73711 0
M  V30 4806 C 460.679 -3.08049 3.27759 0
M  V30 4807 C 461.998 -4.14407 1.48173 0
M  V30 4808 H 459.117 -0.632741 0.377899 0
M  V30 4809 H 461.759 -1.16853 1.49818 0
M  V30 4810 H 459.909 -3.64493 1.34452 0
M  V30 4811 H 461.581 -2.66681 3.76403 0
M  V30 4812 H 459.824 -2.45088 3.57931 0
M  V30 4813 H 460.495 -4.07862 3.71958 0
M  V30 4814 H 462.971 -3.74061 1.82258 0
M  V30 4815 H 461.847 -5.11279 1.99713 0
M  V30 4816 H 462.108 -4.40174 0.412273 0
M  V30 4817 N 461.167 -1.02423 -1.1978 0
M  V30 4818 C 462.099 -0.559152 -2.22275 0
M  V30 4819 C 463.112 0.36251 -1.58713 0
M  V30 4820 O 464.301 0.159641 -1.77785 0
M  V30 4821 C 461.401 0.205094 -3.38279 0
M  V30 4822 C 460.574 -0.720361 -4.31427 0
M  V30 4823 C 459.633 -0.00234368 -5.262 0
M  V30 4824 O 458.659 -0.627378 -5.65732 0
M  V30 4825 N 459.861 1.26996 -5.66438 0
M  V30 4826 H 462.626 -1.44064 -2.62804 0
M  V30 4827 H 460.187 -0.902692 -1.34399 0
M  V30 4828 H 462.179 0.694868 -3.9869 0
M  V30 4829 H 460.749 0.987947 -2.96578 0
M  V30 4830 H 459.969 -1.39031 -3.68869 0
M  V30 4831 H 461.257 -1.3495 -4.90577 0
M  V30 4832 H 460.655 1.79858 -5.36347 0
M  V30 4833 H 459.212 1.70432 -6.29123 0
M  V30 4834 N 462.645 1.35699 -0.801477 0
M  V30 4835 C 463.894 1.98165 -0.375979 0
M  V30 4836 C 464.207 1.64306 1.06127 0
M  V30 4837 O 465.413 2.20097 1.58964 0
M  V30 4838 C 463.869 3.54497 -0.621305 0
M  V30 4839 C 463.477 3.9727 -2.07076 0
M  V30 4840 C 465.221 4.23697 -0.26091 0
M  V30 4841 C 463.128 5.46427 -2.26211 0
M  V30 4842 H 462.058 0.741478 -0.136844 0
M  V30 4843 H 464.709 1.54834 -0.984814 0
M  V30 4844 H 463.091 3.95958 0.0574112 0
M  V30 4845 H 464.265 3.66974 -2.78687 0
M  V30 4846 H 462.58 3.40943 -2.39054 0
M  V30 4847 H 465.177 5.33334 -0.381994 0
M  V30 4848 H 465.52 4.0869 0.792344 0
M  V30 4849 H 466.053 3.87639 -0.893339 0
M  V30 4850 H 462.792 5.66396 -3.29963 0
M  V30 4851 H 462.312 5.78309 -1.59119 0
M  V30 4852 H 463.991 6.12819 -2.07513 0
M  V30 4853 N 464.123 0.554532 1.47522 0
M  V30 4854 C 465.353 0.0342074 2.06572 0
M  V30 4855 C 465.761 -1.26375 1.40805 0
M  V30 4856 O 465.104 -1.7683 0.49769 0
M  V30 4857 C 465.166 -0.235096 3.5873 0
M  V30 4858 C 464.83 0.973024 4.46521 0
M  V30 4859 C 465.827 1.8779 4.848 0
M  V30 4860 C 463.512 1.18694 4.88075 0
M  V30 4861 C 465.506 2.98039 5.63428 0
M  V30 4862 C 463.193 2.29254 5.66468 0
M  V30 4863 C 464.191 3.18757 6.04055 0
M  V30 4864 O 463.879 4.27401 6.8087 0
M  V30 4865 H 463.611 0.041587 0.67472 0
M  V30 4866 H 466.165 0.766748 1.90552 0
M  V30 4867 H 464.395 -1.02191 3.72953 0
M  V30 4868 H 466.084 -0.700477 3.9981 0
M  V30 4869 H 466.85 1.72467 4.53299 0
M  V30 4870 H 462.729 0.49947 4.58286 0
M  V30 4871 H 466.273 3.67926 5.92685 0
M  V30 4872 H 462.17 2.4455 5.97382 0
M  V30 4873 H 462.938 4.25415 6.9926 0
M  V30 4874 N 465.601 -1.54893 0.290851 0
M  V30 4875 C 466.826 -2.04804 -0.32712 0
M  V30 4876 C 467.251 -1.16721 -1.47506 0
M  V30 4877 O 466.609 -0.169107 -1.8051 0
M  V30 4878 C 466.657 -3.52268 -0.770689 0
M  V30 4879 O 465.761 -3.67236 -1.87647 0
M  V30 4880 H 465.102 -0.660789 -0.0652227 0
M  V30 4881 H 467.632 -2.00036 0.429739 0
M  V30 4882 H 467.642 -3.9393 -1.06223 0
M  V30 4883 H 466.317 -4.15843 0.069096 0
M  V30 4884 H 464.894 -3.37479 -1.58626 0
M  V30 4885 N 467.08 -0.0183926 -1.57589 0
M  V30 4886 C 468.305 0.676634 -1.96052 0
M  V30 4887 C 468.73 1.6548 -0.894307 0
M  V30 4888 O 468.088 1.80712 0.145849 0
M  V30 4889 C 468.136 1.36872 -3.33614 0
M  V30 4890 O 467.24 2.48372 -3.29219 0
M  V30 4891 H 466.581 0.1786 -0.63953 0
M  V30 4892 H 469.111 -0.077056 -2.04455 0
M  V30 4893 H 469.121 1.72797 -3.69601 0
M  V30 4894 H 467.796 0.651636 -4.10763 0
M  V30 4895 H 466.373 2.14639 -3.04934 0
M  V30 4896 N 468.558 1.5553 0.254621 0
M  V30 4897 C 469.974 1.4778 0.602753 0
M  V30 4898 C 470.174 0.707047 1.88688 0
M  V30 4899 O 469.23 0.233288 2.5142 0
M  V30 4900 C 470.543 2.92133 0.712648 0
M  V30 4901 C 472.091 3.02458 0.805488 0
M  V30 4902 C 472.566 4.48102 0.947009 0
M  V30 4903 N 474.057 4.52008 1.01207 0
M  V30 4904 C 474.792 5.61939 1.1407 0
M  V30 4905 N 474.288 6.81697 1.23536 0
M  V30 4906 N 476.081 5.49719 1.17325 0
M  V30 4907 H 468.232 2.04085 -0.588463 0
M  V30 4908 H 470.495 0.926229 -0.202001 0
M  V30 4909 H 470.201 3.51332 -0.160766 0
M  V30 4910 H 470.075 3.42187 1.58707 0
M  V30 4911 H 472.462 2.43344 1.66936 0
M  V30 4912 H 472.543 2.55627 -0.0939266 0
M  V30 4913 H 472.187 5.07824 0.087725 0
M  V30 4914 H 472.117 4.92607 1.86135 0
M  V30 4915 H 474.608 3.65749 0.950577 0
M  V30 4916 H 474.921 7.61228 1.33236 0
M  V30 4917 H 473.266 6.84473 1.20508 0
M  V30 4918 H 476.457 4.55095 1.09573 0
M  V30 4919 H 476.63 6.35432 1.27005 0
M  V30 4920 N 470.036 -0.519951 1.48776 0
M  V30 4921 C 471.313 -1.28123 1.47797 0
M  V30 4922 C 471.693 -2.10196 0.195157 0
M  V30 4923 O 471.041 -2.13167 -0.822925 0
M  V30 4924 C 471.251 -2.15413 2.74587 0
M  V30 4925 C 472.599 -2.75225 3.23321 0
M  V30 4926 O 473.623 -2.25694 2.75574 0
M  V30 4927 O 472.482 -3.65346 4.06429 0
M  V30 4928 H 469.576 -0.578793 0.590701 0
M  V30 4929 H 472.122 -0.535779 1.6102 0
M  V30 4930 H 470.894 -1.54617 3.59457 0
M  V30 4931 H 470.517 -2.97186 2.64132 0
M  V30 4932 N 471.514 -1.37532 -0.769588 0
M  V30 4933 C 472.444 -1.36172 -1.89682 0
M  V30 4934 C 473.425 -0.23001 -1.68538 0
M  V30 4935 O 474.61 -0.43069 -1.89364 0
M  V30 4936 C 471.74 -1.1701 -3.26995 0
M  V30 4937 C 470.694 -2.27216 -3.62708 0
M  V30 4938 C 470.02 -1.93174 -4.98586 0
M  V30 4939 C 471.32 -3.6941 -3.69234 0
M  V30 4940 H 473.014 -2.30499 -1.91078 0
M  V30 4941 H 470.56 -1.10953 -0.917902 0
M  V30 4942 H 472.513 -1.14688 -4.05493 0
M  V30 4943 H 471.237 -0.191395 -3.26039 0
M  V30 4944 H 469.896 -2.28697 -2.86519 0
M  V30 4945 H 469.544 -0.938281 -4.94171 0
M  V30 4946 H 469.244 -2.66973 -5.23449 0
M  V30 4947 H 470.768 -1.92443 -5.79481 0
M  V30 4948 H 472.182 -3.70047 -4.37879 0
M  V30 4949 H 470.579 -4.4228 -4.05597 0
M  V30 4950 H 471.649 -4.0288 -2.69844 0
M  V30 4951 N 472.992 0.995999 -1.22138 0
M  V30 4952 C 473.902 2.11985 -1.00496 0
M  V30 4953 C 474.918 1.7394 0.0457701 0
M  V30 4954 O 476.094 2.00868 -0.146273 0
M  V30 4955 C 473.159 3.41779 -0.582086 0
M  V30 4956 C 472.22 3.93943 -1.70608 0
M  V30 4957 C 471.453 5.17542 -1.30328 0
M  V30 4958 O 471.676 5.70114 -0.180743 0
M  V30 4959 O 470.61 5.63382 -2.11861 0
M  V30 4960 H 474.436 2.33123 -1.94647 0
M  V30 4961 H 472.021 1.10358 -1.00705 0
M  V30 4962 H 473.903 4.1989 -0.356467 0
M  V30 4963 H 472.578 3.22007 0.330592 0
M  V30 4964 H 471.485 3.17019 -1.98619 0
M  V30 4965 H 472.818 4.18141 -2.59651 0
M  V30 4966 N 474.47 1.03057 1.19235 0
M  V30 4967 C 475.38 0.622922 2.26179 0
M  V30 4968 C 476.396 -0.346113 1.70523 0
M  V30 4969 O 477.572 -0.203572 2.00369 0
M  V30 4970 C 474.637 -0.0182063 3.46695 0
M  V30 4971 C 473.698 0.998546 4.17526 0
M  V30 4972 C 472.931 0.387917 5.32288 0
M  V30 4973 O 473.154 -0.808668 5.64639 0
M  V30 4974 O 472.088 1.1116 5.91546 0
M  V30 4975 H 475.914 1.51363 2.63292 0
M  V30 4976 H 473.499 0.800856 1.26122 0
M  V30 4977 H 475.381 -0.375606 4.19723 0
M  V30 4978 H 474.056 -0.882895 3.11427 0
M  V30 4979 H 472.963 1.40756 3.4661 0
M  V30 4980 H 474.296 1.83366 4.56769 0
M  V30 4981 N 475.948 -1.35272 0.808662 0
M  V30 4982 C 477.173 -2.03477 0.401475 0
M  V30 4983 C 477.598 -1.60537 -0.980279 0
M  V30 4984 O 476.956 -0.78304 -1.63518 0
M  V30 4985 C 477.004 -3.57181 0.495354 0
M  V30 4986 O 476.108 -4.09474 -0.490397 0
M  V30 4987 H 475.449 -0.642561 0.167366 0
M  V30 4988 H 477.979 -1.72824 1.09512 0
M  V30 4989 H 477.989 -4.06356 0.365912 0
M  V30 4990 H 476.664 -3.87784 1.5032 0
M  V30 4991 H 475.241 -3.71516 -0.321023 0
M  V30 4992 N 477.426 -0.562348 -1.47226 0
M  V30 4993 C 478.675 -0.038041 -2.01664 0
M  V30 4994 C 478.988 1.32199 -1.44162 0
M  V30 4995 O 480.194 1.9365 -1.90294 0
M  V30 4996 C 478.65 -0.0174958 -3.59896 0
M  V30 4997 C 478.258 -1.3746 -4.2639 0
M  V30 4998 C 480.002 0.453934 -4.22066 0
M  V30 4999 C 477.909 -1.31289 -5.76643 0
M  V30 5000 H 476.839 -0.0104511 -0.753928 0
M  V30 5001 H 479.49 -0.710966 -1.69167 0
M  V30 5002 H 477.872 0.721182 -3.89378 0
M  V30 5003 H 479.046 -2.1314 -4.08544 0
M  V30 5004 H 477.361 -1.78438 -3.7623 0
M  V30 5005 H 479.958 0.518584 -5.32179 0
M  V30 5006 H 480.301 1.46706 -3.89594 0
M  V30 5007 H 480.834 -0.230044 -3.97134 0
M  V30 5008 H 477.573 -2.30217 -6.13743 0
M  V30 5009 H 477.093 -0.597973 -5.96812 0
M  V30 5010 H 478.772 -1.01713 -6.38955 0
M  V30 5011 N 478.904 1.54736 -0.299062 0
M  V30 5012 C 479.852 2.24897 0.593658 0
M  V30 5013 C 480.846 1.25429 1.13859 0
M  V30 5014 O 482.052 1.43286 1.08945 0
M  V30 5015 H 478.427 0.72207 0.210046 0
M  V30 5016 H 480.398 2.98393 -0.0206421 0
M  V30 5017 C 479.147 3.00159 1.75499 0
M  V30 5018 H 478.47 3.76501 1.34489 0
M  V30 5019 H 479.91 3.52535 2.35574 0
M  V30 5020 C 478.369 2.07015 2.65794 0
M  V30 5021 O 478.899 1.63692 3.66835 0
M  V30 5022 N 477.105 1.73012 2.33485 0
M  V30 5023 H 476.652 2.08439 1.51364 0
M  V30 5024 H 476.61 1.10965 2.94167 0
M  V30 5025 N 480.382 0.0267497 1.57577 0
M  V30 5026 C 481.329 -0.955894 2.10075 0
M  V30 5027 C 482.299 -1.32453 1.00226 0
M  V30 5028 O 483.484 -1.41826 1.27632 0
M  V30 5029 C 480.624 -2.2338 2.6305 0
M  V30 5030 C 479.737 -1.92183 3.86898 0
M  V30 5031 C 478.872 -3.14251 4.28275 0
M  V30 5032 C 477.911 -2.78862 5.44888 0
M  V30 5033 N 477.048 -3.93548 5.81433 0
M  V30 5034 H 481.888 -0.501303 2.93753 0
M  V30 5035 H 479.425 -0.235847 1.45197 0
M  V30 5036 H 481.383 -2.98124 2.91853 0
M  V30 5037 H 480.013 -2.6646 1.82205 0
M  V30 5038 H 479.065 -1.07692 3.64838 0
M  V30 5039 H 480.377 -1.62117 4.7172 0
M  V30 5040 H 479.531 -3.97317 4.58502 0
M  V30 5041 H 478.27 -3.47476 3.42215 0
M  V30 5042 H 477.275 -1.94208 5.14357 0
M  V30 5043 H 478.5 -2.46855 6.32645 0
M  V30 5044 H 476.446 -4.2662 4.98328 0
M  V30 5045 H 476.363 -3.67098 6.6089 0
M  V30 5046 H 477.631 -4.77325 6.16264 0
M  V30 5047 N 481.861 -1.55662 -0.24637 0
M  V30 5048 C 483.11 -1.7672 -0.972254 0
M  V30 5049 C 483.423 -0.59078 -1.86465 0
M  V30 5050 O 484.629 -0.684391 -2.62732 0
M  V30 5051 C 483.085 -3.12869 -1.7788 0
M  V30 5052 C 482.693 -4.38161 -0.933768 0
M  V30 5053 C 484.437 -3.43265 -2.49738 0
M  V30 5054 C 482.344 -5.6534 -1.73623 0
M  V30 5055 H 481.274 -0.658795 -0.366749 0
M  V30 5056 H 483.925 -1.82092 -0.226902 0
M  V30 5057 H 482.307 -3.01606 -2.56612 0
M  V30 5058 H 483.481 -4.60413 -0.188736 0
M  V30 5059 H 481.796 -4.15102 -0.328488 0
M  V30 5060 H 484.393 -4.35501 -3.10231 0
M  V30 5061 H 484.736 -2.64614 -3.2138 0
M  V30 5062 H 485.269 -3.55746 -1.78016 0
M  V30 5063 H 482.008 -6.46814 -1.06354 0
M  V30 5064 H 481.528 -5.47188 -2.45653 0
M  V30 5065 H 483.207 -6.04616 -2.30323 0
M  V30 5066 N 483.339 0.512053 -1.4905 0
M  V30 5067 C 484.755 0.84224 -1.35567 0
M  V30 5068 C 484.955 1.97878 -0.380319 0
M  V30 5069 O 484.011 2.51769 0.19201 0
M  V30 5070 C 485.324 1.19286 -2.76028 0
M  V30 5071 C 486.872 1.30171 -2.84648 0
M  V30 5072 C 487.347 1.68568 -4.25851 0
M  V30 5073 N 488.838 1.75638 -4.28609 0
M  V30 5074 C 489.573 2.06769 -5.34821 0
M  V30 5075 N 489.069 2.36201 -6.51292 0
M  V30 5076 N 490.862 2.07927 -5.22229 0
M  V30 5077 H 483.013 -0.237574 -2.11067 0
M  V30 5078 H 485.276 -0.0436747 -0.946993 0
M  V30 5079 H 484.982 0.431199 -3.49047 0
M  V30 5080 H 484.856 2.13889 -3.10695 0
M  V30 5081 H 487.243 2.05411 -2.11873 0
M  V30 5082 H 487.324 0.336457 -2.53578 0
M  V30 5083 H 486.968 0.938824 -4.99148 0
M  V30 5084 H 486.898 2.66174 -4.54377 0
M  V30 5085 H 489.389 1.55097 -3.44606 0
M  V30 5086 H 489.702 2.59112 -7.28066 0
M  V30 5087 H 488.047 2.33681 -6.54536 0
M  V30 5088 H 491.238 1.84403 -4.30248 0
M  V30 5089 H 491.411 2.31856 -6.05101 0
M  V30 5090 N 484.817 1.37938 0.762283 0
M  V30 5091 C 485.727 1.36681 1.90671 0
M  V30 5092 C 486.743 0.265078 1.71969 0
M  V30 5093 O 487.919 0.502055 1.95042 0
M  V30 5094 C 484.984 1.18211 3.25925 0
M  V30 5095 C 484.045 2.3811 3.57214 0
M  V30 5096 C 483.278 2.20512 4.86014 0
M  V30 5097 O 483.501 1.19429 5.57757 0
M  V30 5098 O 482.435 3.08911 5.16583 0
M  V30 5099 H 486.261 2.33091 1.94685 0
M  V30 5100 H 483.846 1.18767 0.906356 0
M  V30 5101 H 485.728 1.09937 4.06807 0
M  V30 5102 H 484.403 0.248807 3.22742 0
M  V30 5103 H 483.31 2.51958 2.76529 0
M  V30 5104 H 484.643 3.30041 3.65149 0
M  V30 5105 N 486.295 -0.989507 1.22664 0
M  V30 5106 C 487.544 -1.72375 1.04737 0
M  V30 5107 C 487.857 -1.91096 -0.417316 0
M  V30 5108 O 489.063 -2.6188 -0.716334 0
M  V30 5109 C 487.519 -3.10161 1.82561 0
M  V30 5110 C 487.127 -2.99358 3.333 0
M  V30 5111 C 488.871 -3.87607 1.73093 0
M  V30 5112 C 486.778 -4.32319 4.03552 0
M  V30 5113 H 485.708 -0.646326 0.388302 0
M  V30 5114 H 488.359 -1.10437 1.46546 0
M  V30 5115 H 486.741 -3.728 1.33552 0
M  V30 5116 H 487.915 -2.45863 3.89728 0
M  V30 5117 H 486.23 -2.35392 3.43481 0
M  V30 5118 H 488.827 -4.86025 2.22899 0
M  V30 5119 H 489.17 -4.10509 0.691976 0
M  V30 5120 H 489.703 -3.31652 2.19663 0
M  V30 5121 H 486.442 -4.14616 5.07714 0
M  V30 5122 H 485.962 -4.85714 3.51911 0
M  V30 5123 H 487.641 -5.01051 4.09337 0
M  V30 5124 N 487.773 -1.03688 -1.18687 0
M  V30 5125 C 488.703 -0.645407 -2.24403 0
M  V30 5126 C 489.684 0.349511 -1.66471 0
M  V30 5127 O 490.869 0.230453 -1.92828 0
M  V30 5128 C 487.999 -0.00365337 -3.473 0
M  V30 5129 C 486.953 -0.921705 -4.17958 0
M  V30 5130 C 486.279 -0.144629 -5.34504 0
M  V30 5131 C 487.579 -2.23909 -4.71871 0
M  V30 5132 H 489.273 -1.52917 -2.57404 0
M  V30 5133 H 486.819 -0.736711 -1.23728 0
M  V30 5134 H 488.772 0.281908 -4.20456 0
M  V30 5135 H 487.496 0.914963 -3.13522 0
M  V30 5136 H 486.155 -1.19159 -3.46694 0
M  V30 5137 H 485.803 0.776274 -4.96974 0
M  V30 5138 H 485.503 -0.756206 -5.82714 0
M  V30 5139 H 487.027 0.134004 -6.10453 0
M  V30 5140 H 488.441 -2.0145 -5.36741 0
M  V30 5141 H 486.838 -2.8033 -5.30599 0
M  V30 5142 H 487.908 -2.88822 -3.895 0
M  V30 5143 N 489.251 1.34841 -0.815825 0
M  V30 5144 C 490.476 2.03261 -0.41226 0
M  V30 5145 C 490.901 1.61055 0.971751 0
M  V30 5146 O 490.259 0.7917 1.63101 0
M  V30 5147 C 490.307 3.56914 -0.514289 0
M  V30 5148 O 489.411 4.09728 0.468675 0
M  V30 5149 H 488.752 0.641664 -0.170771 0
M  V30 5150 H 491.282 1.72241 -1.10427 0
M  V30 5151 H 491.292 4.06156 -0.387457 0
M  V30 5152 H 489.967 3.86982 -1.52375 0
M  V30 5153 H 488.544 3.71681 0.301316 0
M  V30 5154 N 490.729 0.570148 1.46925 0
M  V30 5155 C 492.006 -0.0153259 1.95594 0
M  V30 5156 C 492.386 -1.47232 1.51281 0
M  V30 5157 O 491.734 -2.15574 0.757624 0
M  V30 5158 C 491.944 0.143624 3.48704 0
M  V30 5159 C 493.292 0.00494484 4.246 0
M  V30 5160 O 494.316 0.0718214 3.56128 0
M  V30 5161 O 493.175 -0.141175 5.46318 0
M  V30 5162 H 490.269 -0.0568819 0.825041 0
M  V30 5163 H 492.815 0.637583 1.57267 0
M  V30 5164 H 491.587 1.15699 3.73804 0
M  V30 5165 H 491.21 -0.5463 3.93829 0
M  V30 5166 N 492.207 -1.54576 0.307264 0
M  V30 5167 C 493.484 -1.92377 -0.353605 0
M  V30 5168 C 493.864 -1.23517 -1.71192 0
M  V30 5169 O 493.212 -0.373101 -2.25433 0
M  V30 5170 C 493.422 -3.45928 -0.462039 0
M  V30 5171 C 494.77 -4.18278 -0.729975 0
M  V30 5172 O 495.794 -3.51997 -0.545605 0
M  V30 5173 O 494.653 -5.3563 -1.08454 0
M  V30 5174 H 491.747 -0.802747 -0.198812 0
M  V30 5175 H 494.293 -1.65929 0.355783 0
M  V30 5176 H 493.065 -3.88187 0.492592 0
M  V30 5177 H 492.688 -3.78431 -1.21965 0
M  V30 5178 N 493.685 -0.035106 -1.57561 0
M  V30 5179 C 494.632 0.94474 -2.10578 0
M  V30 5180 C 495.602 1.3192 -1.00927 0
M  V30 5181 O 496.787 1.41147 -1.28382 0
M  V30 5182 C 493.927 2.21982 -2.64231 0
M  V30 5183 C 493.04 1.90128 -3.87911 0
M  V30 5184 C 492.175 3.11975 -4.29936 0
M  V30 5185 C 491.214 2.75968 -5.46359 0
M  V30 5186 N 490.351 3.90459 -5.83512 0
M  V30 5187 H 495.191 0.485717 -2.94015 0
M  V30 5188 H 492.728 0.228143 -1.4532 0
M  V30 5189 H 494.686 2.96572 -2.9343 0
M  V30 5190 H 493.316 2.6549 -1.83616 0
M  V30 5191 H 492.368 1.05755 -3.65404 0
M  V30 5192 H 493.68 1.59613 -4.72573 0
M  V30 5193 H 492.834 3.9488 -4.60603 0
M  V30 5194 H 491.573 3.45657 -3.44053 0
M  V30 5195 H 490.578 1.91478 -5.1538 0
M  V30 5196 H 491.803 2.43497 -6.33945 0
M  V30 5197 H 489.749 4.23971 -5.00584 0
M  V30 5198 H 489.666 3.63588 -6.62827 0
M  V30 5199 H 490.934 4.7405 -6.18787 0
M  V30 5200 N 495.163 1.55791 0.238111 0
M  V30 5201 C 496.113 1.87444 1.29803 0
M  V30 5202 C 497.097 0.736043 1.43078 0
M  V30 5203 O 498.289 0.998146 1.46171 0
M  V30 5204 C 495.418 2.18028 2.65177 0
M  V30 5205 C 494.504 3.38217 2.55871 0
M  V30 5206 N 494.895 4.57264 2.16202 0
M  V30 5207 C 493.193 3.41502 2.86866 0
M  V30 5208 C 493.894 5.3941 2.17744 0
M  V30 5209 N 492.87 4.78695 2.57589 0
M  V30 5210 H 496.672 2.7701 0.981965 0
M  V30 5211 H 494.186 1.56135 0.44672 0
M  V30 5212 H 496.183 2.38873 3.4168 0
M  V30 5213 H 494.843 1.29765 2.97643 0
M  V30 5214 H 495.854 4.82727 1.87602 0
M  V30 5215 H 492.531 2.63536 3.23813 0
M  V30 5216 H 493.921 6.44671 1.89339 0
M  V30 5217 N 496.642 -0.504142 1.49319 0
M  V30 5218 C 497.919 -1.26548 1.49147 0
M  V30 5219 C 498.299 -2.09977 0.21744 0
M  V30 5220 O 497.647 -2.14028 -0.800269 0
M  V30 5221 C 497.857 -2.12489 2.76857 0
M  V30 5222 C 499.205 -2.7178 3.26222 0
M  V30 5223 O 500.229 -2.22758 2.77952 0
M  V30 5224 O 499.088 -3.61015 4.10281 0
M  V30 5225 H 496.182 -0.572495 0.596806 0
M  V30 5226 H 498.728 -0.51867 1.61579 0
M  V30 5227 H 497.5 -1.50796 3.61077 0
M  V30 5228 H 497.123 -2.94368 2.6727 0
M  V30 5229 N 498.12 -1.38341 -0.754957 0
M  V30 5230 C 499.366 -1.35678 -1.51536 0
M  V30 5231 C 499.721 0.0533985 -1.92326 0
M  V30 5232 O 499.014 1.01573 -1.6246 0
M  V30 5233 C 499.208 -2.2452 -2.78075 0
M  V30 5234 C 499.037 -3.74035 -2.49655 0
M  V30 5235 C 497.807 -4.43066 -2.42942 0
M  V30 5236 C 500.005 -4.665 -2.16523 0
M  V30 5237 N 497.987 -5.78026 -2.06783 0
M  V30 5238 C 499.358 -5.89962 -1.90644 0
M  V30 5239 C 501.413 -4.54718 -2.02821 0
M  V30 5240 C 500.116 -7.0296 -1.52444 0
M  V30 5241 C 502.142 -5.67618 -1.66023 0
M  V30 5242 C 501.504 -6.90141 -1.41015 0
M  V30 5243 H 497.603 -0.551764 -0.554148 0
M  V30 5244 H 500.187 -1.73716 -0.879258 0
M  V30 5245 H 498.358 -1.88673 -3.39496 0
M  V30 5246 H 500.09 -2.12993 -3.44116 0
M  V30 5247 H 496.845 -3.96264 -2.59367 0
M  V30 5248 H 497.269 -6.49394 -1.91353 0
M  V30 5249 H 501.911 -3.60546 -2.20831 0
M  V30 5250 H 499.629 -7.97051 -1.33174 0
M  V30 5251 H 503.215 -5.6048 -1.56055 0
M  V30 5252 H 502.095 -7.76021 -1.12965 0
M  V30 5253 N 499.598 0.982988 -1.23187 0
M  V30 5254 C 500.508 2.10907 -1.02739 0
M  V30 5255 C 501.524 1.73979 0.0273188 0
M  V30 5256 O 502.7 2.00702 -0.16757 0
M  V30 5257 C 499.765 3.41142 -0.618304 0
M  V30 5258 C 498.826 3.92112 -1.74777 0
M  V30 5259 C 498.059 5.16131 -1.3581 0
M  V30 5260 O 498.282 5.6989 -0.241201 0
M  V30 5261 O 497.216 5.61103 -2.17824 0
M  V30 5262 H 501.042 2.31046 -1.97108 0
M  V30 5263 H 498.627 1.09284 -1.01869 0
M  V30 5264 H 500.509 4.19488 -0.400982 0
M  V30 5265 H 499.184 3.2234 0.296421 0
M  V30 5266 H 498.091 3.14895 -2.0197 0
M  V30 5267 H 499.424 4.15364 -2.64071 0
M  V30 5268 N 501.076 1.04316 1.18135 0
M  V30 5269 C 502.008 0.594444 2.21357 0
M  V30 5270 C 503.021 -0.337215 1.59269 0
M  V30 5271 O 504.21 -0.131337 1.78016 0
M  V30 5272 C 501.31 -0.151251 3.38562 0
M  V30 5273 C 500.483 0.788907 4.30227 0
M  V30 5274 C 499.542 0.0860572 5.2613 0
M  V30 5275 O 498.568 0.717302 5.64662 0
M  V30 5276 N 499.77 -1.17969 5.68387 0
M  V30 5277 H 502.535 1.48227 2.60478 0
M  V30 5278 H 500.096 0.92396 1.32946 0
M  V30 5279 H 502.088 -0.631352 3.99745 0
M  V30 5280 H 500.658 -0.940639 2.98112 0
M  V30 5281 H 499.878 1.44882 3.6661 0
M  V30 5282 H 501.166 1.42738 4.88368 0
M  V30 5283 H 500.564 -1.71302 5.3914 0
M  V30 5284 H 499.121 -1.60402 6.31755 0
M  V30 5285 N 502.554 -1.34406 0.822964 0
M  V30 5286 C 503.97 -1.51275 0.508727 0
M  V30 5287 C 504.17 -1.76776 -0.967083 0
M  V30 5288 O 503.226 -1.81871 -1.75155 0
M  V30 5289 C 504.539 -2.67765 1.36829 0
M  V30 5290 C 506.087 -2.81647 1.36542 0
M  V30 5291 C 506.562 -4.01181 2.20947 0
M  V30 5292 N 508.053 -4.08388 2.18571 0
M  V30 5293 C 508.788 -5.00036 2.80627 0
M  V30 5294 N 508.284 -5.96906 3.51674 0
M  V30 5295 N 510.077 -4.92908 2.70181 0
M  V30 5296 H 502.228 -1.16113 1.77852 0
M  V30 5297 H 504.491 -0.56947 0.757897 0
M  V30 5298 H 504.197 -2.55551 2.41633 0
M  V30 5299 H 504.071 -3.62779 1.03303 0
M  V30 5300 H 506.458 -2.93303 0.325163 0
M  V30 5301 H 506.539 -1.87443 1.74066 0
M  V30 5302 H 506.183 -3.90286 3.25022 0
M  V30 5303 H 506.113 -4.94599 1.80774 0
M  V30 5304 H 508.604 -3.39051 1.66891 0
M  V30 5305 H 508.917 -6.63468 3.96271 0
M  V30 5306 H 507.262 -5.9703 3.5578 0
M  V30 5307 H 510.453 -4.1619 2.14251 0
M  V30 5308 H 510.626 -5.64137 3.18831 0
M  V30 5309 N 504.032 -0.577932 -1.46621 0
M  V30 5310 C 505.278 -0.0617793 -2.02706 0
M  V30 5311 C 505.611 1.29294 -1.44903 0
M  V30 5312 O 504.886 1.8461 -0.61232 0
M  V30 5313 C 505.169 0.00911824 -3.60099 0
M  V30 5314 C 505.022 -1.37416 -4.28295 0
M  V30 5315 C 506.341 0.712159 -4.343 0
M  V30 5316 H 503.46 -0.0239246 -0.736612 0
M  V30 5317 H 506.102 -0.744211 -1.74818 0
M  V30 5318 H 504.252 0.590292 -3.83989 0
M  V30 5319 H 505.924 -2.00013 -4.15683 0
M  V30 5320 H 504.167 -1.94319 -3.87843 0
M  V30 5321 H 504.838 -1.27707 -5.37024 0
M  V30 5322 H 507.314 0.218486 -4.15526 0
M  V30 5323 H 506.19 0.730782 -5.44014 0
M  V30 5324 H 506.451 1.77251 -4.05012 0
M  V30 5325 N 505.51 1.54411 -0.315457 0
M  V30 5326 C 506.458 2.25514 0.569771 0
M  V30 5327 C 507.452 1.2663 1.12522 0
M  V30 5328 O 508.658 1.44434 1.07419 0
M  V30 5329 H 505.033 0.724257 0.202376 0
M  V30 5330 H 507.004 2.98354 -0.0522895 0
M  V30 5331 C 505.753 3.02004 1.72305 0
M  V30 5332 H 505.076 3.77906 1.30488 0
M  V30 5333 H 506.516 3.55014 2.31821 0
M  V30 5334 C 504.975 2.09822 2.63583 0
M  V30 5335 O 505.505 1.67574 3.65078 0
M  V30 5336 N 503.711 1.75478 2.31637 0
M  V30 5337 H 503.258 2.10032 1.49145 0
M  V30 5338 H 503.216 1.14079 2.92973 0
M  V30 5339 N 506.988 0.0434614 1.5754 0
M  V30 5340 C 507.951 -0.918696 2.09982 0
M  V30 5341 C 508.951 -1.24488 1.01781 0
M  V30 5342 O 510.141 -1.18284 1.27885 0
M  V30 5343 C 507.273 -2.23093 2.57764 0
M  V30 5344 H 508.466 -0.464229 2.96285 0
M  V30 5345 H 506.019 -0.204818 1.54952 0
M  V30 5346 H 506.754 -2.73137 1.74832 0
M  V30 5347 H 506.539 -2.00724 3.36827 0
M  V30 5348 H 508.029 -2.92028 2.98512 0
M  V30 5349 N 508.466 -1.55915 -0.229846 0
M  V30 5350 C 509.396 -1.94754 -1.28815 0
M  V30 5351 C 510.377 -0.814657 -1.49323 0
M  V30 5352 O 511.562 -1.07631 -1.61645 0
M  V30 5353 C 508.692 -2.25705 -2.63959 0
M  V30 5354 C 507.646 -3.41406 -2.5812 0
M  V30 5355 C 506.972 -3.57941 -3.97218 0
M  V30 5356 C 508.272 -4.76616 -2.13623 0
M  V30 5357 H 509.966 -2.83404 -0.965547 0
M  V30 5358 H 507.512 -1.36353 -0.463028 0
M  V30 5359 H 509.465 -2.51467 -3.38146 0
M  V30 5360 H 508.189 -1.339 -2.9789 0
M  V30 5361 H 506.848 -3.1568 -1.86391 0
M  V30 5362 H 506.496 -2.63526 -4.28443 0
M  V30 5363 H 506.196 -4.35757 -3.94195 0
M  V30 5364 H 507.72 -3.86042 -4.73079 0
M  V30 5365 H 509.134 -5.01637 -2.77549 0
M  V30 5366 H 507.531 -5.57655 -2.21677 0
M  V30 5367 H 508.601 -4.7253 -1.08829 0
M  V30 5368 N 509.944 0.496216 -1.49584 0
M  V30 5369 C 510.891 1.59722 -1.66606 0
M  V30 5370 C 511.861 1.58158 -0.507477 0
M  V30 5371 O 513.046 1.76072 -0.735076 0
M  V30 5372 C 510.186 2.97844 -1.74308 0
M  V30 5373 C 509.299 3.09388 -3.01502 0
M  V30 5374 C 508.434 4.38271 -3.00153 0
M  V30 5375 C 507.473 4.43466 -4.21906 0
M  V30 5376 N 506.61 5.63784 -4.1844 0
M  V30 5377 H 511.45 1.44515 -2.60613 0
M  V30 5378 H 508.987 0.703048 -1.29212 0
M  V30 5379 H 510.945 3.77907 -1.76754 0
M  V30 5380 H 509.575 3.11743 -0.837619 0
M  V30 5381 H 508.627 2.22357 -3.08645 0
M  V30 5382 H 509.939 3.09085 -3.91494 0
M  V30 5383 H 509.093 5.2666 -3.01188 0
M  V30 5384 H 507.832 4.41146 -2.07947 0
M  V30 5385 H 506.837 3.53478 -4.21109 0
M  V30 5386 H 508.062 4.42303 -5.1531 0
M  V30 5387 H 506.008 5.67491 -3.29074 0
M  V30 5388 H 505.925 5.65118 -5.02173 0
M  V30 5389 H 507.193 6.54367 -4.23585 0
M  V30 5390 N 511.423 1.38739 0.74761 0
M  V30 5391 C 512.37 1.36449 1.86146 0
M  V30 5392 C 513.34 0.226098 1.64554 0
M  V30 5393 O 514.525 0.41926 1.86137 0
M  V30 5394 C 511.665 1.2013 3.23516 0
M  V30 5395 C 510.778 2.43407 3.56899 0
M  V30 5396 C 509.913 2.19773 4.83605 0
M  V30 5397 C 508.952 3.3879 5.09792 0
M  V30 5398 N 508.089 3.14553 6.27695 0
M  V30 5399 H 512.929 2.3167 1.87438 0
M  V30 5400 H 510.466 1.15094 0.916063 0
M  V30 5401 H 512.424 1.08683 4.02795 0
M  V30 5402 H 511.054 0.285453 3.21535 0
M  V30 5403 H 510.106 2.65504 2.72418 0
M  V30 5404 H 511.418 3.32094 3.72176 0
M  V30 5405 H 510.572 2.05496 5.70838 0
M  V30 5406 H 509.311 1.28461 4.70478 0
M  V30 5407 H 508.316 3.53579 4.21025 0
M  V30 5408 H 509.541 4.30986 5.24812 0
M  V30 5409 H 507.487 2.25893 6.1588 0
M  V30 5410 H 507.404 3.96791 6.435 0
M  V30 5411 H 508.672 3.03943 7.17801 0
M  V30 5412 N 512.901 -0.976442 1.23707 0
M  V30 5413 C 514.15 -1.71254 1.06559 0
M  V30 5414 C 514.463 -1.91528 -0.397024 0
M  V30 5415 O 515.669 -2.62625 -0.688518 0
M  V30 5416 C 514.125 -3.08207 1.8584 0
M  V30 5417 C 513.733 -2.95806 3.36456 0
M  V30 5418 C 515.477 -3.85749 1.77194 0
M  V30 5419 C 513.384 -4.28015 4.08114 0
M  V30 5420 H 512.314 -0.642171 0.395136 0
M  V30 5421 H 514.965 -1.08877 1.4771 0
M  V30 5422 H 513.347 -3.71363 1.37498 0
M  V30 5423 H 514.521 -2.41716 3.92314 0
M  V30 5424 H 512.836 -2.31736 3.45959 0
M  V30 5425 H 515.433 -4.83633 2.28041 0
M  V30 5426 H 515.776 -4.09752 0.735477 0
M  V30 5427 H 516.309 -3.29303 2.23169 0
M  V30 5428 H 513.048 -4.09208 5.12083 0
M  V30 5429 H 512.568 -4.81955 3.57043 0
M  V30 5430 H 514.247 -4.96681 4.14629 0
M  V30 5431 N 514.379 -1.04941 -1.1758 0
M  V30 5432 C 515.795 -0.770282 -1.39781 0
M  V30 5433 C 515.995 0.636417 -1.91186 0
M  V30 5434 O 515.051 1.39923 -2.10185 0
M  V30 5435 C 516.364 -1.82376 -2.3908 0
M  V30 5436 C 517.912 -1.84569 -2.52791 0
M  V30 5437 C 518.387 -2.88933 -3.55361 0
M  V30 5438 N 519.878 -2.8788 -3.62877 0
M  V30 5439 C 520.613 -3.65282 -4.41992 0
M  V30 5440 N 520.109 -4.52461 -5.24643 0
M  V30 5441 N 521.902 -3.53732 -4.36841 0
M  V30 5442 H 514.053 -1.95705 -0.825438 0
M  V30 5443 H 516.316 -0.847284 -0.425222 0
M  V30 5444 H 516.022 -2.83323 -2.08376 0
M  V30 5445 H 515.896 -1.66327 -3.38549 0
M  V30 5446 H 518.283 -0.842879 -2.82807 0
M  V30 5447 H 518.364 -2.04696 -1.53406 0
M  V30 5448 H 518.008 -3.89398 -3.26085 0
M  V30 5449 H 517.938 -2.66059 -4.54445 0
M  V30 5450 H 520.429 -2.24666 -3.03864 0
M  V30 5451 H 520.742 -5.08211 -5.82187 0
M  V30 5452 H 519.087 -4.56524 -5.24033 0
M  V30 5453 H 522.278 -2.85021 -3.71323 0
M  V30 5454 H 522.451 -4.14302 -4.98255 0
M  V30 5455 N 515.857 1.33968 -0.830081 0
M  V30 5456 C 517.082 2.02813 -0.433796 0
M  V30 5457 C 517.507 1.62076 0.954614 0
M  V30 5458 O 516.865 0.808955 1.62252 0
M  V30 5459 C 516.913 3.56348 -0.552115 0
M  V30 5460 O 516.017 4.10202 0.425191 0
M  V30 5461 H 515.358 0.639817 -0.177567 0
M  V30 5462 H 517.888 1.7106 -1.12248 0
M  V30 5463 H 517.898 4.05722 -0.430513 0
M  V30 5464 H 516.573 3.85344 -1.56471 0
M  V30 5465 H 515.15 3.71979 0.261878 0
M  V30 5466 N 517.335 0.585699 1.46312 0
M  V30 5467 C 518.265 -0.133556 2.33118 0
M  V30 5468 C 519.246 -0.880707 1.45525 0
M  V30 5469 O 520.431 -0.855579 1.74337 0
M  V30 5470 C 517.561 -1.14585 3.27853 0
M  V30 5471 C 516.515 -0.513341 4.2491 0
M  V30 5472 C 515.841 -1.63231 5.09175 0
M  V30 5473 C 517.141 0.551413 5.19381 0
M  V30 5474 H 518.835 0.59121 2.93505 0
M  V30 5475 H 516.381 0.285761 1.41136 0
M  V30 5476 H 518.334 -1.65741 3.87438 0
M  V30 5477 H 517.058 -1.90093 2.65579 0
M  V30 5478 H 515.717 -0.0228349 3.66593 0
M  V30 5479 H 515.365 -2.37713 4.43285 0
M  V30 5480 H 515.065 -1.21473 5.74907 0
M  V30 5481 H 516.589 -2.14658 5.71624 0
M  V30 5482 H 518.003 0.124804 5.73164 0
M  V30 5483 H 516.4 0.889486 5.93471 0
M  V30 5484 H 517.47 1.43655 4.63132 0
M  V30 5485 N 518.813 -1.54241 0.323641 0
M  V30 5486 C 519.743 -2.27289 -0.534993 0
M  V30 5487 C 520.724 -1.28087 -1.11927 0
M  V30 5488 O 521.909 -1.56899 -1.14439 0
M  V30 5489 C 519.039 -3.03075 -1.69596 0
M  V30 5490 C 517.993 -4.09614 -1.24098 0
M  V30 5491 C 517.319 -4.73242 -2.4889 0
M  V30 5492 C 518.619 -5.21087 -0.355789 0
M  V30 5493 H 520.313 -2.99308 0.0743257 0
M  V30 5494 H 517.859 -1.43952 0.0371874 0
M  V30 5495 H 519.812 -3.52907 -2.30293 0
M  V30 5496 H 518.536 -2.28673 -2.33187 0
M  V30 5497 H 517.195 -3.60666 -0.656945 0
M  V30 5498 H 516.843 -3.95455 -3.10845 0
M  V30 5499 H 516.543 -5.45209 -2.19138 0
M  V30 5500 H 518.067 -5.25848 -3.10348 0
M  V30 5501 H 519.481 -5.66675 -0.869042 0
M  V30 5502 H 517.878 -5.9991 -0.151045 0
M  V30 5503 H 518.948 -4.81005 0.613339 0
M  V30 5504 N 520.291 -0.0518155 -1.57515 0
M  V30 5505 C 521.221 0.920283 -2.146 0
M  V30 5506 C 522.202 1.32406 -1.06783 0
M  V30 5507 O 523.387 1.39866 -1.34726 0
M  V30 5508 C 520.517 2.1949 -2.6915 0
M  V30 5509 C 519.471 1.93116 -3.81956 0
M  V30 5510 C 518.797 3.27037 -4.23026 0
M  V30 5511 C 520.097 1.25225 -5.07066 0
M  V30 5512 H 521.791 0.444801 -2.96077 0
M  V30 5513 H 519.337 0.212508 -1.42423 0
M  V30 5514 H 521.29 2.87894 -3.07725 0
M  V30 5515 H 520.014 2.69244 -1.84865 0
M  V30 5516 H 518.673 1.27123 -3.43854 0
M  V30 5517 H 518.321 3.74595 -3.3569 0
M  V30 5518 H 518.021 3.10189 -4.99056 0
M  V30 5519 H 519.545 3.96673 -4.64202 0
M  V30 5520 H 520.959 1.83666 -5.43083 0
M  V30 5521 H 519.356 1.18702 -5.88243 0
M  V30 5522 H 520.426 0.228382 -4.84362 0
M  V30 5523 N 521.769 1.56035 0.221574 0
M  V30 5524 C 522.732 1.91584 1.2581 0
M  V30 5525 C 523.732 0.794425 1.39805 0
M  V30 5526 O 524.922 1.06217 1.38071 0
M  V30 5527 C 522.054 2.16663 2.63192 0
M  V30 5528 H 523.247 2.8429 0.954935 0
M  V30 5529 H 520.8 1.49316 0.461988 0
M  V30 5530 H 521.535 1.26508 2.98607 0
M  V30 5531 H 521.32 2.98358 2.5441 0
M  V30 5532 H 522.81 2.45262 3.37988 0
M  V30 5533 N 523.247 -0.488276 1.49845 0
M  V30 5534 C 524.495 -1.23911 1.59657 0
M  V30 5535 C 524.816 -1.92816 0.291005 0
M  V30 5536 O 524.086 -1.83328 -0.690485 0
M  V30 5537 H 522.666 -0.460357 0.588286 0
M  V30 5538 H 525.328 -0.564794 1.86537 0
M  V30 5539 H 524.424 -1.99625 2.39909 0
M  V30 5540 N 524.725 -1.39134 -0.740242 0
M  V30 5541 C 525.688 -1.37217 -1.83587 0
M  V30 5542 C 526.688 -0.270221 -1.58513 0
M  V30 5543 O 527.878 -0.527843 -1.6601 0
M  V30 5544 C 525.01 -1.13959 -3.21288 0
M  V30 5545 H 526.203 -2.34705 -1.86691 0
M  V30 5546 H 523.756 -1.24622 -0.94335 0
M  V30 5547 H 524.491 -0.17131 -3.23847 0
M  V30 5548 H 524.276 -1.93754 -3.40884 0
M  V30 5549 H 525.766 -1.15346 -4.01354 0
M  V30 5550 N 526.204 0.969867 -1.24223 0
M  V30 5551 C 527.167 2.04564 -1.03373 0
M  V30 5552 C 528.167 1.60798 0.00819206 0
M  V30 5553 O 529.357 1.72641 -0.232567 0
M  V30 5554 C 526.489 3.36163 -0.566343 0
M  V30 5555 H 527.682 2.24494 -1.98853 0
M  V30 5556 H 525.235 1.1448 -1.06415 0
M  V30 5557 H 525.97 3.21925 0.391751 0
M  V30 5558 H 525.755 3.69273 -1.31834 0
M  V30 5559 H 527.245 4.1526 -0.441435 0
M  V30 5560 N 527.682 1.05563 1.17022 0
M  V30 5561 C 528.592 0.670758 2.24807 0
M  V30 5562 C 529.608 -0.309865 1.71219 0
M  V30 5563 O 530.784 -0.161025 2.00755 0
M  V30 5564 C 527.849 0.055337 3.46656 0
M  V30 5565 C 526.91 1.08688 4.15314 0
M  V30 5566 C 526.143 0.500736 5.31346 0
M  V30 5567 O 526.366 -0.688718 5.66227 0
M  V30 5568 O 525.3 1.23683 5.89055 0
M  V30 5569 H 529.126 1.56914 2.60023 0
M  V30 5570 H 526.711 0.827428 1.24395 0
M  V30 5571 H 528.593 -0.286492 4.20425 0
M  V30 5572 H 527.268 -0.816638 3.13229 0
M  V30 5573 H 526.175 1.48077 3.43546 0
M  V30 5574 H 527.508 1.93014 4.52777 0
M  V30 5575 N 529.16 -1.33526 0.837174 0
M  V30 5576 C 530.39 -2.01754 0.444848 0
M  V30 5577 C 530.798 -1.63149 -0.958072 0
M  V30 5578 O 530.141 -0.839827 -1.63379 0
M  V30 5579 C 530.203 -3.56228 0.483917 0
M  V30 5580 C 529.867 -4.18205 1.84265 0
M  V30 5581 C 530.864 -4.37699 2.80563 0
M  V30 5582 C 528.549 -4.54667 2.13503 0
M  V30 5583 C 530.543 -4.928 4.04261 0
M  V30 5584 C 528.23 -5.09475 3.37458 0
M  V30 5585 C 529.228 -5.28488 4.32654 0
M  V30 5586 O 528.916 -5.82132 5.54417 0
M  V30 5587 H 528.648 -0.652928 0.175104 0
M  V30 5588 H 531.202 -1.71469 1.13082 0
M  V30 5589 H 529.432 -3.85833 -0.258826 0
M  V30 5590 H 531.121 -4.05752 0.109653 0
M  V30 5591 H 531.887 -4.0988 2.59274 0
M  V30 5592 H 527.766 -4.39164 1.40201 0
M  V30 5593 H 531.31 -5.07555 4.78574 0
M  V30 5594 H 527.207 -5.36725 3.58604 0
M  V30 5595 H 527.975 -6.00548 5.56133 0
M  V30 5596 N 530.638 -0.59345 -1.46 0
M  V30 5597 C 531.915 -0.0157933 -1.95594 0
M  V30 5598 C 532.295 1.44807 -1.53604 0
M  V30 5599 O 531.643 2.14342 -0.791824 0
M  V30 5600 C 531.853 -0.199081 -3.48432 0
M  V30 5601 C 533.201 -0.0724943 -4.24538 0
M  V30 5602 O 534.225 -0.128469 -3.55968 0
M  V30 5603 O 533.084 0.0542426 -5.46473 0
M  V30 5604 H 530.178 0.043749 -0.825842 0
M  V30 5605 H 532.724 -0.662522 -1.56233 0
M  V30 5606 H 531.496 -1.21631 -3.71916 0
M  V30 5607 H 531.119 0.483576 -3.94648 0
M  V30 5608 N 532.116 1.54067 -0.331816 0
M  V30 5609 C 533.064 2.26105 0.54582 0
M  V30 5610 C 534.058 1.27816 1.11173 0
M  V30 5611 O 535.264 1.45565 1.05882 0
M  V30 5612 H 531.639 0.726363 0.194683 0
M  V30 5613 H 533.61 2.98282 -0.083931 0
M  V30 5614 C 532.359 3.03814 1.69092 0
M  V30 5615 H 531.682 3.79269 1.26473 0
M  V30 5616 H 533.122 3.57453 2.28043 0
M  V30 5617 C 531.581 2.12606 2.61343 0
M  V30 5618 O 532.111 1.71437 3.6328 0
M  V30 5619 N 530.317 1.77925 2.29763 0
M  V30 5620 H 529.864 2.11602 1.46909 0
M  V30 5621 H 529.822 1.1718 2.91747 0
M  V30 5622 N 533.594 0.0601682 1.57485 0
M  V30 5623 C 534.841 -0.611594 1.93043 0
M  V30 5624 C 535.169 -1.70317 0.939274 0
M  V30 5625 O 534.424 -1.95644 -0.046996 0
M  V30 5626 C 534.723 -1.23831 3.35262 0
M  V30 5627 C 534.389 -0.274037 4.50066 0
M  V30 5628 C 533.051 -0.00872394 4.81199 0
M  V30 5629 C 535.403 0.386308 5.19766 0
M  V30 5630 C 532.731 0.924218 5.79375 0
M  V30 5631 C 535.083 1.3075 6.1894 0
M  V30 5632 C 533.747 1.58139 6.48497 0
M  V30 5633 H 533.017 -0.223798 0.706396 0
M  V30 5634 H 535.664 0.128566 1.91068 0
M  V30 5635 H 533.969 -2.05394 3.33647 0
M  V30 5636 H 535.666 -1.76517 3.60059 0
M  V30 5637 H 532.256 -0.491008 4.25778 0
M  V30 5638 H 536.44 0.194436 4.95919 0
M  V30 5639 H 531.696 1.1438 6.00606 0
M  V30 5640 H 535.87 1.82519 6.72056 0
M  V30 5641 H 533.497 2.30593 7.24383 0
M  V30 5642 N 535.072 -1.5615 -0.213296 0
M  V30 5643 C 536.319 -1.79546 -0.936462 0
M  V30 5644 C 536.647 -0.630337 -1.84003 0
M  V30 5645 O 535.902 0.384883 -1.91878 0
M  V30 5646 C 536.201 -3.08772 -1.79985 0
M  V30 5647 C 535.867 -4.38532 -1.04882 0
M  V30 5648 C 534.529 -4.73787 -0.841393 0
M  V30 5649 C 536.881 -5.18609 -0.51907 0
M  V30 5650 C 534.209 -5.86627 -0.0924403 0
M  V30 5651 C 536.561 -6.32229 0.216581 0
M  V30 5652 C 535.225 -6.6608 0.435191 0
M  V30 5653 H 534.495 -0.657004 -0.342676 0
M  V30 5654 H 537.142 -1.9041 -0.204051 0
M  V30 5655 H 535.447 -2.93065 -2.60038 0
M  V30 5656 H 537.144 -3.24077 -2.36168 0
M  V30 5657 H 533.734 -4.10855 -1.22048 0
M  V30 5658 H 537.918 -4.91801 -0.666775 0
M  V30 5659 H 533.174 -6.11338 0.087081 0
M  V30 5660 H 537.348 -6.93503 0.634538 0
M  V30 5661 H 534.975 -7.5336 1.01746 0
M  V30 5662 N 536.55 0.480323 -1.50102 0
M  V30 5663 C 537.482 1.59669 -1.64433 0
M  V30 5664 C 538.495 1.54063 -0.52615 0
M  V30 5665 O 539.684 1.59619 -0.798992 0
M  V30 5666 C 536.784 2.98527 -1.6042 0
M  V30 5667 C 535.957 3.291 -2.88117 0
M  V30 5668 C 535.016 4.47468 -2.76873 0
M  V30 5669 O 534.042 4.4823 -3.50825 0
M  V30 5670 N 535.244 5.48593 -1.89806 0
M  V30 5671 H 538.009 1.47795 -2.60723 0
M  V30 5672 H 535.57 0.66858 -1.4745 0
M  V30 5673 H 537.562 3.75666 -1.50523 0
M  V30 5674 H 536.132 3.04218 -0.719036 0
M  V30 5675 H 535.352 2.40662 -3.12211 0
M  V30 5676 H 536.64 3.46334 -3.72734 0
M  V30 5677 H 536.038 5.50791 -1.2902 0
M  V30 5678 H 534.595 6.24752 -1.85819 0
M  V30 5679 N 538.028 1.39524 0.732853 0
M  V30 5680 C 538.978 1.34905 1.83806 0
M  V30 5681 C 539.962 0.229546 1.59254 0
M  V30 5682 O 541.154 0.467255 1.70721 0
M  V30 5683 C 538.283 1.19699 3.21756 0
M  V30 5684 C 537.369 2.36359 3.5213 0
M  V30 5685 N 537.76 3.61834 3.53426 0
M  V30 5686 C 536.058 2.29363 3.82503 0
M  V30 5687 C 536.759 4.38992 3.81655 0
M  V30 5688 N 535.735 3.68606 3.99538 0
M  V30 5689 H 539.537 2.29882 1.83116 0
M  V30 5690 H 537.051 1.33051 0.931194 0
M  V30 5691 H 539.048 1.14472 4.00876 0
M  V30 5692 H 537.708 0.256739 3.23683 0
M  V30 5693 H 538.719 3.95228 3.34686 0
M  V30 5694 H 535.396 1.43612 3.92023 0
M  V30 5695 H 536.786 5.47763 3.89108 0
M  V30 5696 N 539.506 -0.963266 1.24736 0
M  V30 5697 C 540.436 -2.07628 1.06832 0
M  V30 5698 C 541.417 -1.70088 -0.0200566 0
M  V30 5699 O 542.602 -1.93636 0.147854 0
M  V30 5700 C 539.732 -3.40636 0.677069 0
M  V30 5701 C 538.686 -3.9215 1.71471 0
M  V30 5702 C 538.012 -5.21553 1.1784 0
M  V30 5703 C 539.312 -4.19493 3.11164 0
M  V30 5704 H 541.006 -2.22864 1.9993 0
M  V30 5705 H 538.552 -1.07093 0.96266 0
M  V30 5706 H 540.505 -4.17941 0.538792 0
M  V30 5707 H 539.229 -3.25313 -0.289612 0
M  V30 5708 H 537.888 -3.17005 1.84128 0
M  V30 5709 H 537.536 -5.02593 0.202195 0
M  V30 5710 H 537.236 -5.56988 1.87185 0
M  V30 5711 H 538.76 -6.01463 1.05233 0
M  V30 5712 H 540.174 -4.87487 3.01711 0
M  V30 5713 H 538.571 -4.66165 3.77902 0
M  V30 5714 H 539.641 -3.26097 3.58871 0
M  V30 5715 N 540.985 -1.06182 -1.16461 0
M  V30 5716 C 542.401 -0.785065 -1.38956 0
M  V30 5717 C 542.601 0.616103 -1.9185 0
M  V30 5718 O 541.657 1.37686 -2.11657 0
M  V30 5719 C 542.97 -1.84902 -2.37132 0
M  V30 5720 C 544.518 -1.8724 -2.50819 0
M  V30 5721 C 544.993 -2.92686 -3.52277 0
M  V30 5722 N 546.484 -2.91712 -3.59803 0
M  V30 5723 C 547.219 -3.69949 -4.38093 0
M  V30 5724 N 546.715 -4.58 -5.19815 0
M  V30 5725 N 548.508 -3.58346 -4.33064 0
M  V30 5726 H 540.659 -1.96569 -0.804634 0
M  V30 5727 H 542.922 -0.851747 -0.416211 0
M  V30 5728 H 542.628 -2.85518 -2.0536 0
M  V30 5729 H 542.502 -1.69908 -3.36766 0
M  V30 5730 H 544.889 -0.872827 -2.81897 0
M  V30 5731 H 544.97 -2.06311 -1.51226 0
M  V30 5732 H 544.614 -3.92835 -3.21937 0
M  V30 5733 H 544.544 -2.70864 -4.51598 0
M  V30 5734 H 547.035 -2.27876 -3.01464 0
M  V30 5735 H 547.348 -5.14357 -5.76764 0
M  V30 5736 H 545.693 -4.62056 -5.19162 0
M  V30 5737 H 548.884 -2.88943 -3.68279 0
M  V30 5738 H 549.057 -4.19563 -4.93833 0
M  V30 5739 N 542.463 1.3308 -0.844243 0
M  V30 5740 C 543.393 2.3161 -0.296493 0
M  V30 5741 C 544.374 1.59215 0.598707 0
M  V30 5742 O 545.559 1.87077 0.521134 0
M  V30 5743 C 542.689 3.43313 0.524762 0
M  V30 5744 C 541.643 4.27115 -0.275106 0
M  V30 5745 C 540.969 5.30483 0.670236 0
M  V30 5746 C 542.269 5.00443 -1.49514 0
M  V30 5747 H 543.963 2.77672 -1.11976 0
M  V30 5748 H 541.509 1.33496 -0.539899 0
M  V30 5749 H 543.462 4.11273 0.918298 0
M  V30 5750 H 542.186 2.95952 1.3813 0
M  V30 5751 H 540.845 3.60787 -0.650267 0
M  V30 5752 H 540.493 4.79379 1.52332 0
M  V30 5753 H 540.193 5.87435 0.139123 0
M  V30 5754 H 541.717 6.01308 1.06117 0
M  V30 5755 H 543.131 5.61141 -1.17447 0
M  V30 5756 H 541.528 5.67071 -1.96343 0
M  V30 5757 H 542.598 4.28906 -2.26202 0
M  V30 5758 N 543.941 0.601185 1.45683 0
M  V30 5759 C 544.871 -0.108824 2.33246 0
M  V30 5760 C 545.852 -0.865223 1.46451 0
M  V30 5761 O 547.037 -0.83704 1.75235 0
M  V30 5762 C 544.167 -1.11101 3.2905 0
M  V30 5763 C 543.121 -0.468244 4.25431 0
M  V30 5764 C 542.447 -1.57822 5.10878 0
M  V30 5765 C 543.747 0.606469 5.18767 0
M  V30 5766 H 545.441 0.622306 2.92861 0
M  V30 5767 H 542.987 0.300714 1.40825 0
M  V30 5768 H 544.94 -1.61622 3.89174 0
M  V30 5769 H 543.664 -1.87265 2.67581 0
M  V30 5770 H 542.323 0.0160484 3.66596 0
M  V30 5771 H 541.971 -2.32998 4.45781 0
M  V30 5772 H 541.671 -1.15369 5.76163 0
M  V30 5773 H 543.195 -2.08583 5.73869 0
M  V30 5774 H 544.609 0.185589 5.73 0
M  V30 5775 H 543.006 0.952381 5.92494 0
M  V30 5776 H 544.076 1.48559 4.61582 0
M  V30 5777 N 545.419 -1.53889 0.339982 0
M  V30 5778 C 546.696 -1.93084 -0.312719 0
M  V30 5779 C 547.076 -1.2712 -1.68534 0
M  V30 5780 O 546.424 -0.420835 -2.24591 0
M  V30 5781 C 546.634 -3.4683 -0.388558 0
M  V30 5782 C 547.982 -4.19732 -0.641088 0
M  V30 5783 O 549.006 -3.53075 -0.470818 0
M  V30 5784 O 547.865 -5.3781 -0.970685 0
M  V30 5785 H 544.959 -0.806784 -0.18174 0
M  V30 5786 H 547.505 -1.65137 0.390898 0
M  V30 5787 H 546.277 -3.87055 0.574821 0
M  V30 5788 H 545.9 -3.80933 -1.1391 0
M  V30 5789 N 546.897 -0.0685191 -1.57451 0
M  V30 5790 C 548.145 0.60016 -1.92983 0
M  V30 5791 C 548.466 1.70348 -0.949028 0
M  V30 5792 O 547.736 1.959 0.00335647 0
M  V30 5793 H 546.316 0.224682 -0.712409 0
M  V30 5794 H 548.978 -0.125605 -1.94495 0
M  V30 5795 H 548.074 1.02759 -2.94698 0
M  V30 5796 N 548.375 1.56261 0.205012 0
M  V30 5797 C 549.338 1.92908 1.23771 0
M  V30 5798 C 550.338 0.809208 1.38955 0
M  V30 5799 O 551.528 1.07676 1.36936 0
M  V30 5800 C 548.66 2.19442 2.60879 0
M  V30 5801 H 549.853 2.85287 0.924728 0
M  V30 5802 H 547.406 1.49798 0.446125 0
M  V30 5803 H 548.141 1.29668 2.97248 0
M  V30 5804 H 547.926 3.0104 2.51232 0
M  V30 5805 H 549.416 2.48833 3.35368 0
M  V30 5806 N 549.853 -0.472356 1.50355 0
M  V30 5807 C 551.1 -1.22453 1.61281 0
M  V30 5808 C 551.428 -1.91972 0.31256 0
M  V30 5809 O 550.683 -1.82696 -0.701475 0
M  V30 5810 C 550.982 -2.29257 2.74182 0
M  V30 5811 C 550.648 -1.76999 4.14708 0
M  V30 5812 C 549.31 -1.62467 4.52944 0
M  V30 5813 C 551.662 -1.38215 5.0254 0
M  V30 5814 C 548.99 -1.07574 5.76754 0
M  V30 5815 C 551.342 -0.847638 6.26895 0
M  V30 5816 C 550.006 -0.688946 6.63935 0
M  V30 5817 H 549.276 -0.448087 0.590168 0
M  V30 5818 H 551.923 -0.520744 1.84284 0
M  V30 5819 H 550.228 -3.05538 2.45263 0
M  V30 5820 H 551.925 -2.87212 2.7984 0
M  V30 5821 H 548.515 -1.89276 3.84542 0
M  V30 5822 H 552.699 -1.48276 4.73633 0
M  V30 5823 H 547.955 -0.940237 6.04127 0
M  V30 5824 H 552.129 -0.538455 6.94315 0
M  V30 5825 H 549.756 -0.261435 7.5975 0
M  V30 5826 N 551.331 -1.39911 -0.725443 0
M  V30 5827 C 552.278 -1.39393 -1.83952 0
M  V30 5828 C 553.248 -0.252249 -1.64173 0
M  V30 5829 O 554.433 -0.44882 -1.85446 0
M  V30 5830 C 551.573 -1.25262 -3.21564 0
M  V30 5831 C 550.686 -2.49054 -3.52982 0
M  V30 5832 C 549.821 -2.27439 -4.80047 0
M  V30 5833 C 548.86 -3.46857 -5.04338 0
M  V30 5834 N 547.997 -3.24499 -6.22611 0
M  V30 5835 H 552.837 -2.34622 -1.83729 0
M  V30 5836 H 550.374 -1.16537 -0.897636 0
M  V30 5837 H 552.332 -1.15077 -4.01015 0
M  V30 5838 H 550.962 -0.33657 -3.21041 0
M  V30 5839 H 550.014 -2.69805 -2.6816 0
M  V30 5840 H 551.326 -3.37973 -3.66846 0
M  V30 5841 H 550.48 -2.14551 -5.67497 0
M  V30 5842 H 549.219 -1.35929 -4.68374 0
M  V30 5843 H 548.224 -3.60232 -4.15346 0
M  V30 5844 H 549.449 -4.3928 -5.17889 0
M  V30 5845 H 547.395 -2.35663 -6.12208 0
M  V30 5846 H 547.312 -4.06978 -6.37106 0
M  V30 5847 H 548.58 -3.15325 -7.12875 0
M  V30 5848 N 552.809 0.956637 -1.25245 0
M  V30 5849 C 553.739 2.07058 -1.07931 0
M  V30 5850 C 554.72 1.70096 0.0110361 0
M  V30 5851 O 555.905 1.93555 -0.158121 0
M  V30 5852 C 553.035 3.40272 -0.695124 0
M  V30 5853 C 551.989 3.91235 -1.73549 0
M  V30 5854 C 551.315 5.20921 -1.20604 0
M  V30 5855 C 552.615 4.17837 -3.13385 0
M  V30 5856 H 554.309 2.218 -2.01109 0
M  V30 5857 H 551.855 1.06581 -0.968326 0
M  V30 5858 H 553.808 4.1765 -0.560949 0
M  V30 5859 H 552.532 3.25462 0.272355 0
M  V30 5860 H 551.191 3.16025 -1.85807 0
M  V30 5861 H 550.839 5.02479 -0.228846 0
M  V30 5862 H 550.539 5.55987 -1.90136 0
M  V30 5863 H 552.063 6.00897 -1.08421 0
M  V30 5864 H 553.477 4.8588 -3.04292 0
M  V30 5865 H 551.874 4.64154 -3.80369 0
M  V30 5866 H 552.944 3.2419 -3.60595 0
M  V30 5867 N 554.287 1.06798 1.15896 0
M  V30 5868 C 555.512 0.808739 1.90982 0
M  V30 5869 C 555.937 -0.6316 1.77179 0
M  V30 5870 O 555.295 -1.4407 1.10061 0
M  V30 5871 C 555.343 1.21468 3.39526 0
M  V30 5872 O 554.447 0.356562 4.10856 0
M  V30 5873 H 553.788 0.29512 0.594811 0
M  V30 5874 H 556.318 1.42513 1.46804 0
M  V30 5875 H 556.328 1.18844 3.90308 0
M  V30 5876 H 555.003 2.26379 3.48891 0
M  V30 5877 H 553.58 0.444808 3.70238 0
M  V30 5878 N 555.766 -1.3263 0.851289 0
M  V30 5879 C 556.729 -2.27247 0.298541 0
M  V30 5880 C 557.729 -1.51467 -0.539847 0
M  V30 5881 O 558.919 -1.7061 -0.351843 0
M  V30 5882 C 556.051 -3.35964 -0.578004 0
M  V30 5883 H 557.244 -2.7765 1.13359 0
M  V30 5884 H 554.797 -1.43245 0.625354 0
M  V30 5885 H 555.532 -2.90823 -1.435 0
M  V30 5886 H 555.317 -3.92094 0.0220539 0
M  V30 5887 H 556.807 -4.06472 -0.957626 0
M  V30 5888 N 557.244 -0.608902 -1.45362 0
M  V30 5889 C 558.191 0.109172 -2.30542 0
M  V30 5890 C 559.161 0.858704 -1.42181 0
M  V30 5891 O 560.346 0.844178 -1.71109 0
M  V30 5892 C 557.486 1.09971 -3.27109 0
M  V30 5893 C 556.599 0.350911 -4.30572 0
M  V30 5894 C 555.734 1.33129 -5.14247 0
M  V30 5895 C 554.773 0.570377 -6.09437 0
M  V30 5896 N 553.91 1.5001 -6.85887 0
M  V30 5897 H 558.75 -0.623195 -2.91411 0
M  V30 5898 H 556.287 -0.319122 -1.43597 0
M  V30 5899 H 558.245 1.68714 -3.81564 0
M  V30 5900 H 556.875 1.79947 -2.67991 0
M  V30 5901 H 555.927 -0.352054 -3.78767 0
M  V30 5902 H 557.239 -0.242725 -4.98209 0
M  V30 5903 H 556.393 1.99074 -5.73109 0
M  V30 5904 H 555.132 1.95885 -4.46632 0
M  V30 5905 H 554.137 -0.102702 -5.49704 0
M  V30 5906 H 555.362 -0.0521607 -6.7908 0
M  V30 5907 H 553.308 2.11529 -6.2096 0
M  V30 5908 H 553.225 0.959934 -7.49881 0
M  V30 5909 H 554.493 2.14909 -7.49289 0
M  V30 5910 N 558.722 1.53707 -0.348139 0
M  V30 5911 C 559.999 1.93247 0.302475 0
M  V30 5912 C 560.379 1.28012 1.67857 0
M  V30 5913 O 559.727 0.43274 2.24365 0
M  V30 5914 C 559.937 3.47031 0.370159 0
M  V30 5915 C 561.285 4.20066 0.61882 0
M  V30 5916 O 562.309 3.53319 0.452087 0
M  V30 5917 O 561.168 5.38318 0.94215 0
M  V30 5918 H 558.262 0.807736 0.177458 0
M  V30 5919 H 560.808 1.64927 -0.399651 0
M  V30 5920 H 559.58 3.86745 -0.59534 0
M  V30 5921 H 559.203 3.81532 1.11888 0
M  V30 5922 N 560.2 0.0768682 1.57412 0
M  V30 5923 C 561.13 -0.886026 2.16037 0
M  V30 5924 C 562.111 -1.30691 1.08876 0
M  V30 5925 O 563.296 -1.37705 1.36934 0
M  V30 5926 C 560.426 -2.1518 2.72608 0
M  V30 5927 C 559.38 -1.87015 3.8498 0
M  V30 5928 C 558.706 -3.20266 4.28175 0
M  V30 5929 C 560.006 -1.17143 5.08994 0
M  V30 5930 H 561.7 -0.397642 2.96748 0
M  V30 5931 H 559.246 -0.189823 1.42743 0
M  V30 5932 H 561.199 -2.82962 3.12266 0
M  V30 5933 H 559.923 -2.66269 1.89125 0
M  V30 5934 H 558.582 -1.21636 3.45833 0
M  V30 5935 H 558.23 -3.69207 3.41607 0
M  V30 5936 H 557.93 -3.0221 5.03927 0
M  V30 5937 H 559.454 -3.89237 4.70454 0
M  V30 5938 H 560.868 -1.75003 5.45937 0
M  V30 5939 H 559.265 -1.09328 5.90057 0
M  V30 5940 H 560.335 -0.151295 4.84664 0
M  V30 5941 N 561.678 -1.56367 -0.196722 0
M  V30 5942 C 563.094 -1.49916 -0.54749 0
M  V30 5943 C 563.294 -0.77659 -1.85934 0
M  V30 5944 O 562.35 -0.32644 -2.50381 0
M  V30 5945 C 563.663 -2.94577 -0.603734 0
M  V30 5946 C 565.211 -3.05239 -0.692677 0
M  V30 5947 C 565.686 -4.51308 -0.780046 0
M  V30 5948 N 567.177 -4.55453 -0.843616 0
M  V30 5949 C 567.912 -5.65786 -0.931358 0
M  V30 5950 N 567.408 -6.85812 -0.981503 0
M  V30 5951 N 569.201 -5.53695 -0.968421 0
M  V30 5952 H 561.352 -2.01761 0.663803 0
M  V30 5953 H 563.615 -0.918094 0.236238 0
M  V30 5954 H 563.321 -3.50494 0.29105 0
M  V30 5955 H 563.195 -3.47841 -1.45898 0
M  V30 5956 H 565.582 -2.49372 -1.57789 0
M  V30 5957 H 565.663 -2.55103 0.188736 0
M  V30 5958 H 565.307 -5.078 0.100811 0
M  V30 5959 H 565.237 -4.99176 -1.67724 0
M  V30 5960 H 567.728 -3.69025 -0.814176 0
M  V30 5961 H 568.041 -7.65648 -1.04892 0
M  V30 5962 H 566.386 -6.88474 -0.950208 0
M  V30 5963 H 569.577 -4.58848 -0.926072 0
M  V30 5964 H 569.75 -6.39708 -1.03334 0
M  V30 5965 N 563.156 0.464375 -1.50603 0
M  V30 5966 C 564.381 1.24372 -1.65971 0
M  V30 5967 C 564.806 1.84901 -0.345453 0
M  V30 5968 O 564.164 1.67596 0.691457 0
M  V30 5969 C 564.212 2.32331 -2.7578 0
M  V30 5970 O 563.316 3.37146 -2.375 0
M  V30 5971 H 562.657 0.365604 -0.554283 0
M  V30 5972 H 565.187 0.55183 -1.97018 0
M  V30 5973 H 565.197 2.77539 -2.99059 0
M  V30 5974 H 563.872 1.87648 -3.71162 0
M  V30 5975 H 562.449 2.97602 -2.24694 0
M  V30 5976 N 564.634 1.40294 0.718013 0
M  V30 5977 C 565.566 1.36281 1.84283 0
M  V30 5978 C 566.579 0.268621 1.60569 0
M  V30 5979 O 567.768 0.528798 1.70487 0
M  V30 5980 C 564.868 1.09741 3.2064 0
M  V30 5981 C 564.041 2.30767 3.71571 0
M  V30 5982 C 563.1 2.00424 4.86535 0
M  V30 5983 O 562.126 2.73268 4.99313 0
M  V30 5984 N 563.328 0.980724 5.72156 0
M  V30 5985 H 566.093 2.3322 1.88225 0
M  V30 5986 H 563.654 1.34616 0.899453 0
M  V30 5987 H 565.646 0.874322 3.95143 0
M  V30 5988 H 564.216 0.214771 3.11861 0
M  V30 5989 H 563.436 2.68921 2.88228 0
M  V30 5990 H 564.724 3.11455 4.02335 0
M  V30 5991 H 564.122 0.377375 5.6444 0
M  V30 5992 H 562.679 0.817538 6.46653 0
M  V30 5993 N 566.112 -0.949982 1.2575 0
M  V30 5994 C 567.358 -1.69766 1.10938 0
M  V30 5995 C 567.691 -1.91056 -0.348028 0
M  V30 5996 O 566.966 -1.48488 -1.25625 0
M  V30 5997 C 567.249 -3.07779 1.86933 0
M  V30 5998 C 567.102 -2.9387 3.4053 0
M  V30 5999 C 568.421 -4.07749 1.65616 0
M  V30 6000 H 565.54 -0.616144 0.404396 0
M  V30 6001 H 568.182 -1.10394 1.54639 0
M  V30 6002 H 566.332 -3.58462 1.4979 0
M  V30 6003 H 568.004 -2.50476 3.87375 0
M  V30 6004 H 566.247 -2.29686 3.68004 0
M  V30 6005 H 566.918 -3.91719 3.88922 0
M  V30 6006 H 569.394 -3.65994 1.97959 0
M  V30 6007 H 568.27 -5.02348 2.21218 0
M  V30 6008 H 568.531 -4.38029 0.598595 0
M  V30 6009 N 567.59 -1.07411 -1.15328 0
M  V30 6010 C 568.836 -0.798831 -1.86404 0
M  V30 6011 C 569.169 0.673433 -1.8215 0
M  V30 6012 O 568.444 1.49428 -1.24505 0
M  V30 6013 C 568.727 -1.30846 -3.35487 0
M  V30 6014 C 568.58 -2.84532 -3.4837 0
M  V30 6015 C 569.899 -0.925486 -4.30259 0
M  V30 6016 H 567.018 -0.291659 -0.676834 0
M  V30 6017 H 569.66 -1.332 -1.35491 0
M  V30 6018 H 567.81 -0.854916 -3.78977 0
M  V30 6019 H 569.482 -3.3818 -3.13739 0
M  V30 6020 H 567.725 -3.22699 -2.8991 0
M  V30 6021 H 568.396 -3.15259 -4.53118 0
M  V30 6022 H 570.872 -1.3163 -3.94731 0
M  V30 6023 H 569.748 -1.3094 -5.33053 0
M  V30 6024 H 570.009 0.168525 -4.41779 0
M  V30 6025 N 569.068 1.32177 -0.85831 0
M  V30 6026 C 570.484 1.49873 -0.548656 0
M  V30 6027 C 570.684 1.79278 0.919874 0
M  V30 6028 O 569.74 1.86451 1.70271 0
M  V30 6029 C 571.053 2.64043 -1.4388 0
M  V30 6030 C 572.601 2.77928 -1.43961 0
M  V30 6031 C 573.076 3.95182 -2.31506 0
M  V30 6032 N 574.567 4.0245 -2.29321 0
M  V30 6033 C 575.302 4.9242 -2.93786 0
M  V30 6034 N 574.798 5.87373 -3.67376 0
M  V30 6035 N 576.591 4.85572 -2.83155 0
M  V30 6036 H 568.742 1.11357 -1.80868 0
M  V30 6037 H 571.005 0.549175 -0.772729 0
M  V30 6038 H 570.711 2.49055 -2.48324 0
M  V30 6039 H 570.585 3.59912 -1.12885 0
M  V30 6040 H 572.972 2.92338 -0.402813 0
M  V30 6041 H 573.053 1.82762 -1.78974 0
M  V30 6042 H 572.697 3.81531 -3.35256 0
M  V30 6043 H 572.627 4.89633 -1.93823 0
M  V30 6044 H 575.118 3.34507 -1.75822 0
M  V30 6045 H 575.431 6.52728 -4.13722 0
M  V30 6046 H 573.776 5.87388 -3.71484 0
M  V30 6047 H 576.967 4.10363 -2.25211 0
M  V30 6048 H 577.14 5.55486 -3.33676 0
M  V30 6049 N 570.547 0.616602 1.45037 0
M  V30 6050 C 571.457 -0.0985401 2.34393 0
M  V30 6051 C 572.473 -0.850971 1.51771 0
M  V30 6052 O 573.649 -0.806521 1.84546 0
M  V30 6053 C 570.714 -1.07748 3.29532 0
M  V30 6054 C 569.775 -0.326022 4.2806 0
M  V30 6055 C 569.008 -1.25833 5.18654 0
M  V30 6056 O 569.231 -2.49652 5.12864 0
M  V30 6057 O 568.165 -0.750512 5.97203 0
M  V30 6058 H 571.991 0.636016 2.96966 0
M  V30 6059 H 569.576 0.376832 1.44569 0
M  V30 6060 H 571.458 -1.64107 3.88133 0
M  V30 6061 H 570.133 -1.79291 2.69512 0
M  V30 6062 H 569.04 0.280253 3.73049 0
M  V30 6063 H 570.373 0.349091 4.9096 0
M  V30 6064 N 572.025 -1.5352 0.356285 0
M  V30 6065 C 572.988 -2.24071 -0.482182 0
M  V30 6066 C 573.988 -1.24531 -1.01729 0
M  V30 6067 O 575.178 -1.48876 -0.904513 0
M  V30 6068 C 572.31 -2.97025 -1.67299 0
M  V30 6069 H 573.503 -2.99596 0.135031 0
M  V30 6070 H 571.056 -1.55928 0.107825 0
M  V30 6071 H 571.791 -2.25719 -2.32855 0
M  V30 6072 H 571.576 -3.7005 -1.29636 0
M  V30 6073 H 573.066 -3.50683 -2.26741 0
M  V30 6074 N 573.503 -0.0852151 -1.57369 0
M  V30 6075 C 574.743 0.584297 -1.95871 0
M  V30 6076 C 575.107 1.6596 -0.965473 0
M  V30 6077 O 576.308 2.38561 -1.23862 0
M  V30 6078 C 574.579 1.13411 -3.38929 0
M  V30 6079 S 576.138 1.81687 -3.99419 0
M  V30 6080 H 572.956 0.19095 -0.684879 0
M  V30 6081 H 575.558 -0.162267 -1.94825 0
M  V30 6082 H 574.262 0.339845 -4.0899 0
M  V30 6083 H 573.793 1.91672 -3.43548 0
M  V30 6084 H 575.808 3.10037 -3.87417 0
M  V30 6085 N 574.981 1.5647 0.188427 0
M  V30 6086 C 576.23 1.80207 0.905995 0
M  V30 6087 C 576.543 0.659579 1.84144 0
M  V30 6088 O 577.749 0.781431 2.60011 0
M  V30 6089 C 576.205 3.19255 1.66145 0
M  V30 6090 C 575.813 4.41324 0.770504 0
M  V30 6091 C 577.557 3.52298 2.36826 0
M  V30 6092 C 575.464 5.71394 1.52521 0
M  V30 6093 H 574.394 0.671953 0.342045 0
M  V30 6094 H 577.045 1.82808 0.159164 0
M  V30 6095 H 575.427 3.10922 2.45242 0
M  V30 6096 H 576.601 4.60797 0.0177261 0
M  V30 6097 H 574.916 4.16035 0.174199 0
M  V30 6098 H 577.513 4.46715 2.93854 0
M  V30 6099 H 577.856 2.76359 3.11338 0
M  V30 6100 H 578.389 3.62108 1.6469 0
M  V30 6101 H 575.128 6.50316 0.82275 0
M  V30 6102 H 574.648 5.55928 2.25175 0
M  V30 6103 H 576.327 6.12747 2.07725 0
M  V30 6104 N 576.459 -0.456382 1.50847 0
M  V30 6105 C 577.687 -1.23026 1.66349 0
M  V30 6106 C 578.102 -1.85473 0.352868 0
M  V30 6107 O 577.459 -1.69885 -0.666739 0
M  V30 6108 C 577.51 -2.32827 2.76539 0
M  V30 6109 O 577.231 -1.72938 4.02522 0
M  V30 6110 C 578.732 -3.23448 3.03144 0
M  V30 6111 H 575.952 -0.371527 0.558756 0
M  V30 6112 H 578.496 -0.543082 1.97157 0
M  V30 6113 H 576.651 -2.97294 2.48384 0
M  V30 6114 H 577.065 -2.45357 4.63573 0
M  V30 6115 H 578.539 -3.96669 3.83872 0
M  V30 6116 H 579.016 -3.83094 2.14793 0
M  V30 6117 H 579.622 -2.64702 3.32886 0
M  V30 6118 N 577.937 -1.40673 -0.710563 0
M  V30 6119 C 578.867 -1.44095 -1.83736 0
M  V30 6120 C 579.848 -0.301286 -1.67411 0
M  V30 6121 O 581.033 -0.510618 -1.87367 0
M  V30 6122 C 578.163 -1.30773 -3.21738 0
M  V30 6123 C 577.117 -2.42395 -3.52745 0
M  V30 6124 C 576.443 -2.14147 -4.89944 0
M  V30 6125 C 577.743 -3.84738 -3.53234 0
M  V30 6126 H 579.437 -2.38396 -1.81129 0
M  V30 6127 H 576.983 -1.14746 -0.870017 0
M  V30 6128 H 578.936 -1.31783 -4.00264 0
M  V30 6129 H 577.66 -0.329507 -3.24934 0
M  V30 6130 H 576.319 -2.40643 -2.76562 0
M  V30 6131 H 575.967 -1.14703 -4.89747 0
M  V30 6132 H 575.667 -2.88934 -5.11655 0
M  V30 6133 H 577.191 -2.16848 -5.70797 0
M  V30 6134 H 578.605 -3.88286 -4.2179 0
M  V30 6135 H 577.002 -4.59085 -3.86473 0
M  V30 6136 H 578.072 -4.13962 -2.52514 0
M  V30 6137 N 579.415 0.9433 -1.26252 0
M  V30 6138 C 580.663 1.68592 -1.11451 0
M  V30 6139 C 580.984 1.91957 0.343123 0
M  V30 6140 O 580.254 1.51475 1.24226 0
M  V30 6141 H 578.834 0.624789 -0.409448 0
M  V30 6142 H 581.496 1.13351 -1.58548 0
M  V30 6143 H 580.592 2.66054 -1.63162 0
M  V30 6144 N 580.893 1.08022 1.14757 0
M  V30 6145 C 581.843 0.676345 2.17737 0
M  V30 6146 C 582.827 -0.302018 1.5804 0
M  V30 6147 O 584.019 -0.11466 1.76628 0
M  V30 6148 C 581.148 0.082984 3.432 0
M  V30 6149 C 580.234 1.0869 4.09936 0
M  V30 6150 N 580.625 2.26891 4.52055 0
M  V30 6151 C 578.923 0.921768 4.36371 0
M  V30 6152 C 579.624 2.90636 5.0389 0
M  V30 6153 N 578.6 2.18266 4.97856 0
M  V30 6154 H 582.402 1.5765 2.4804 0
M  V30 6155 H 579.916 0.954374 1.31398 0
M  V30 6156 H 581.913 -0.224289 4.16296 0
M  V30 6157 H 580.573 -0.812206 3.14378 0
M  V30 6158 H 581.584 2.6457 4.45223 0
M  V30 6159 H 578.261 0.0800499 4.17423 0
M  V30 6160 H 579.651 3.9104 5.46386 0
M  V30 6161 N 582.371 -1.3172 0.865308 0
M  V30 6162 C 583.301 -2.31109 0.333302 0
M  V30 6163 C 584.282 -1.60148 -0.573301 0
M  V30 6164 O 585.467 -1.87882 -0.491305 0
M  V30 6165 C 582.597 -3.44104 -0.470078 0
M  V30 6166 C 581.551 -4.26623 0.343021 0
M  V30 6167 C 580.877 -5.31482 -0.585756 0
M  V30 6168 C 582.177 -4.98001 1.57456 0
M  V30 6169 H 583.871 -2.75855 1.1638 0
M  V30 6170 H 581.417 -1.3262 0.561069 0
M  V30 6171 H 583.37 -4.12682 -0.852752 0
M  V30 6172 H 582.094 -2.98112 -1.33404 0
M  V30 6173 H 580.753 -3.59707 0.707583 0
M  V30 6174 H 580.401 -4.81741 -1.44686 0
M  V30 6175 H 580.101 -5.87582 -0.0456494 0
M  V30 6176 H 581.625 -6.0292 -0.965375 0
M  V30 6177 H 583.039 -5.59201 1.26359 0
M  V30 6178 H 581.436 -5.63876 2.05339 0
M  V30 6179 H 582.506 -4.25253 2.32997 0
M  V30 6180 N 583.85 -0.624285 -1.44708 0
M  V30 6181 C 585.075 -0.131171 -2.06985 0
M  V30 6182 C 585.5 1.18234 -1.46295 0
M  V30 6183 O 584.858 1.72375 -0.561842 0
M  V30 6184 C 584.906 -0.0226724 -3.60593 0
M  V30 6185 O 584.01 1.02314 -3.99507 0
M  V30 6186 H 583.351 -0.0816556 -0.65896 0
M  V30 6187 H 585.88 -0.859027 -1.85693 0
M  V30 6188 H 585.891 0.170138 -4.07645 0
M  V30 6189 H 584.566 -0.981685 -4.04148 0
M  V30 6190 H 583.143 0.805452 -3.64097 0
M  V30 6191 N 585.328 1.53329 -0.364422 0
M  V30 6192 C 586.553 2.06132 0.229033 0
M  V30 6193 C 586.978 1.23625 1.41769 0
M  V30 6194 O 586.336 0.255038 1.79497 0
M  V30 6195 C 586.384 3.55544 0.60174 0
M  V30 6196 O 585.488 3.75771 1.69912 0
M  V30 6197 H 584.829 0.663148 0.0336213 0
M  V30 6198 H 587.359 1.97758 -0.524689 0
M  V30 6199 H 587.369 3.98549 0.873073 0
M  V30 6200 H 586.044 4.15039 -0.267421 0
M  V30 6201 H 584.621 3.44663 1.42343 0
M  V30 6202 N 586.806 0.0935595 1.57322 0
M  V30 6203 C 588.052 -0.571355 1.94585 0
M  V30 6204 C 588.385 -1.67929 0.975366 0
M  V30 6205 O 587.66 -1.94498 0.00816206 0
M  V30 6206 C 587.943 -1.12797 3.41978 0
M  V30 6207 C 587.796 -0.0251881 4.49793 0
M  V30 6208 C 589.115 -2.02682 3.90651 0
M  V30 6209 H 586.234 -0.206223 0.70756 0
M  V30 6210 H 588.876 0.163956 1.89291 0
M  V30 6211 H 587.026 -1.75461 3.4662 0
M  V30 6212 H 588.698 0.608979 4.57263 0
M  V30 6213 H 586.941 0.641399 4.29032 0
M  V30 6214 H 587.612 -0.455433 5.50118 0
M  V30 6215 H 590.088 -1.49925 3.88152 0
M  V30 6216 H 588.964 -2.38555 4.94351 0
M  V30 6217 H 589.225 -2.94362 3.29854 0
M  V30 6218 N 588.284 -1.56567 -0.180126 0
M  V30 6219 C 589.214 -1.98753 -1.22553 0
M  V30 6220 C 590.195 -0.86175 -1.46656 0
M  V30 6221 O 591.38 -1.12719 -1.58139 0
M  V30 6222 C 588.51 -2.33988 -2.56645 0
M  V30 6223 C 587.464 -3.49445 -2.47128 0
M  V30 6224 C 586.79 -3.70397 -3.8563 0
M  V30 6225 C 588.09 -4.83171 -1.98352 0
M  V30 6226 H 589.784 -2.86332 -0.874896 0
M  V30 6227 H 587.33 -1.37757 -0.419414 0
M  V30 6228 H 589.283 -2.62097 -3.29974 0
M  V30 6229 H 588.007 -1.43309 -2.93479 0
M  V30 6230 H 586.666 -3.2145 -1.76254 0
M  V30 6231 H 586.314 -2.77023 -4.19842 0
M  V30 6232 H 586.014 -4.48077 -3.80132 0
M  V30 6233 H 587.538 -4.00897 -4.60558 0
M  V30 6234 H 588.952 -5.10213 -2.61449 0
M  V30 6235 H 587.349 -5.64425 -2.03823 0
M  V30 6236 H 588.419 -4.75753 -0.937402 0
M  V30 6237 N 589.762 0.448376 -1.51087 0
M  V30 6238 C 591.01 1.19635 -1.62886 0
M  V30 6239 C 591.331 1.91977 -0.342024 0
M  V30 6240 O 590.601 1.85094 0.641636 0
M  V30 6241 H 589.181 0.444598 -0.600285 0
M  V30 6242 H 591.843 0.515138 -1.87969 0
M  V30 6243 H 590.939 1.93194 -2.45117 0
M  V30 6244 N 591.24 1.41047 0.703093 0
M  V30 6245 C 592.188 1.42494 1.83843 0
M  V30 6246 C 593.182 0.303885 1.66652 0
M  V30 6247 O 594.388 0.475544 1.73605 0
M  V30 6248 H 590.763 0.445685 0.605697 0
M  V30 6249 H 592.734 2.38194 1.79739 0
M  V30 6250 C 591.483 1.31666 3.21807 0
M  V30 6251 H 590.806 2.17212 3.35647 0
M  V30 6252 H 592.246 1.36738 4.01346 0
M  V30 6253 C 590.705 0.0281828 3.36888 0
M  V30 6254 O 591.235 -0.929995 3.90786 0
M  V30 6255 N 589.441 -0.0454322 2.90564 0
M  V30 6256 H 588.988 0.735046 2.4689 0
M  V30 6257 H 588.946 -0.906968 3.01034 0
M  V30 6258 N 592.718 -0.936591 1.26751 0
M  V30 6259 C 593.665 -2.03597 1.08706 0
M  V30 6260 C 594.635 -1.66097 -0.00926542 0
M  V30 6261 O 595.82 -1.90199 0.151377 0
M  V30 6262 C 592.96 -3.3727 0.73094 0
M  V30 6263 C 592.073 -3.87778 1.90399 0
M  V30 6264 C 591.208 -5.09859 1.49056 0
M  V30 6265 C 590.247 -5.5264 2.63164 0
M  V30 6266 N 589.384 -6.65921 2.22471 0
M  V30 6267 H 594.224 -2.18364 2.02784 0
M  V30 6268 H 591.761 -1.06985 1.00958 0
M  V30 6269 H 593.719 -4.14128 0.505328 0
M  V30 6270 H 592.349 -3.22337 -0.172868 0
M  V30 6271 H 591.401 -3.07279 2.2424 0
M  V30 6272 H 592.713 -4.15464 2.76028 0
M  V30 6273 H 591.867 -5.9419 1.22567 0
M  V30 6274 H 590.606 -4.8393 0.60524 0
M  V30 6275 H 589.611 -4.66863 2.90377 0
M  V30 6276 H 590.836 -5.80568 3.52303 0
M  V30 6277 H 588.782 -6.41667 1.36379 0
M  V30 6278 H 588.699 -6.93216 3.01641 0
M  V30 6279 H 589.967 -7.53616 1.99205 0
M  V30 6280 N 594.196 -1.08629 -1.14182 0
M  V30 6281 C 595.443 -0.817345 -1.85272 0
M  V30 6282 C 595.771 0.656917 -1.83071 0
M  V30 6283 O 595.026 1.49897 -1.25815 0
M  V30 6284 C 595.325 -1.28734 -3.3341 0
M  V30 6285 C 594.991 -2.76981 -3.55798 0
M  V30 6286 C 593.653 -3.17469 -3.61617 0
M  V30 6287 C 596.005 -3.72605 -3.64438 0
M  V30 6288 C 593.333 -4.52371 -3.736 0
M  V30 6289 C 595.685 -5.07286 -3.77947 0
M  V30 6290 C 594.349 -5.47376 -3.82016 0
M  V30 6291 H 593.619 -0.299088 -0.677958 0
M  V30 6292 H 596.266 -1.35962 -1.34857 0
M  V30 6293 H 594.571 -0.664702 -3.8612 0
M  V30 6294 H 596.268 -1.05598 -3.86846 0
M  V30 6295 H 592.858 -2.44644 -3.51919 0
M  V30 6296 H 597.042 -3.42443 -3.5923 0
M  V30 6297 H 592.298 -4.82882 -3.75013 0
M  V30 6298 H 596.472 -5.81243 -3.83575 0
M  V30 6299 H 594.099 -6.51906 -3.91054 0
M  V30 6300 N 595.674 1.31259 -0.872281 0
M  V30 6301 C 596.951 1.91362 -0.404943 0
M  V30 6302 C 597.331 1.79362 1.11321 0
M  V30 6303 O 596.679 1.20277 1.94283 0
M  V30 6304 C 596.889 3.3749 -0.888893 0
M  V30 6305 C 598.237 4.14593 -0.916384 0
M  V30 6306 O 599.261 3.46282 -0.834701 0
M  V30 6307 O 598.12 5.3661 -1.03498 0
M  V30 6308 H 595.214 0.818016 -0.121569 0
M  V30 6309 H 597.76 1.39912 -0.960346 0
M  V30 6310 H 596.532 3.40249 -1.93251 0
M  V30 6311 H 596.155 3.96375 -0.311932 0
M  V30 6312 N 597.152 0.631951 1.44375 0
M  V30 6313 C 598.102 -0.0943862 2.27805 0
M  V30 6314 C 599.086 -0.815359 1.38711 0
M  V30 6315 O 600.278 -0.701331 1.62513 0
M  V30 6316 C 597.407 -1.07472 3.26044 0
M  V30 6317 C 596.493 -0.353329 4.22626 0
M  V30 6318 N 596.884 0.618512 5.02004 0
M  V30 6319 C 595.182 -0.597662 4.41977 0
M  V30 6320 C 595.883 1.0448 5.7224 0
M  V30 6321 N 594.859 0.383413 5.42246 0
M  V30 6322 H 598.661 0.651672 2.86584 0
M  V30 6323 H 596.175 0.45752 1.55822 0
M  V30 6324 H 598.172 -1.60969 3.84571 0
M  V30 6325 H 596.832 -1.82107 2.68825 0
M  V30 6326 H 597.843 0.996356 5.08226 0
M  V30 6327 H 594.52 -1.32682 3.95856 0
M  V30 6328 H 595.91 1.84773 6.45994 0
M  V30 6329 N 598.631 -1.53133 0.372548 0
M  V30 6330 C 599.879 -2.00958 -0.214534 0
M  V30 6331 C 600.2 -1.26135 -1.48711 0
M  V30 6332 O 599.47 -0.376597 -1.92246 0
M  V30 6333 H 598.05 -0.742456 -0.0822664 0
M  V30 6334 H 600.712 -1.88367 0.500385 0
M  V30 6335 H 599.808 -3.09031 -0.436605 0
M  V30 6336 N 600.109 -0.101901 -1.5727 0
M  V30 6337 C 601.072 0.840129 -2.13247 0
M  V30 6338 C 602.072 1.20625 -1.06331 0
M  V30 6339 O 603.262 1.13456 -1.32186 0
M  V30 6340 C 600.394 2.13372 -2.65867 0
M  V30 6341 H 601.587 0.353945 -2.97804 0
M  V30 6342 H 599.14 0.147167 -1.55606 0
M  V30 6343 H 599.875 2.66461 -1.84849 0
M  V30 6344 H 599.66 1.88085 -3.44044 0
M  V30 6345 H 601.15 2.80748 -3.09145 0
M  V30 6346 N 601.587 1.56661 0.17182 0
M  V30 6347 C 602.497 1.99604 1.2327 0
M  V30 6348 C 603.513 0.907333 1.4847 0
M  V30 6349 O 604.689 1.21492 1.60629 0
M  V30 6350 C 601.754 2.34685 2.55194 0
M  V30 6351 C 600.815 3.57381 2.3786 0
M  V30 6352 C 600.048 3.90779 3.63494 0
M  V30 6353 O 600.271 3.25152 4.6865 0
M  V30 6354 O 599.205 4.84129 3.57634 0
M  V30 6355 H 603.031 2.90114 0.898192 0
M  V30 6356 H 600.616 1.44522 0.378647 0
M  V30 6357 H 602.498 2.5822 3.33017 0
M  V30 6358 H 601.173 1.47336 2.88225 0
M  V30 6359 H 600.08 3.39064 1.5807 0
M  V30 6360 H 601.413 4.45268 2.09754 0
M  V30 6361 N 603.065 -0.440357 1.51323 0
M  V30 6362 C 604.028 -1.51679 1.71832 0
M  V30 6363 C 605.028 -1.49648 0.588386 0
M  V30 6364 O 606.218 -1.51724 0.855891 0
M  V30 6365 C 603.35 -2.91228 1.77199 0
M  V30 6366 H 604.543 -1.34799 2.67898 0
M  V30 6367 H 602.096 -0.66883 1.41267 0
M  V30 6368 H 602.831 -3.13516 0.829363 0
M  V30 6369 H 602.616 -2.94107 2.59314 0
M  V30 6370 H 604.106 -3.69321 1.94915 0
M  V30 6371 N 604.543 -1.41418 -0.695603 0
M  V30 6372 C 605.792 -1.40073 -1.4513 0
M  V30 6373 C 606.105 -0.0130439 -1.95596 0
M  V30 6374 O 607.311 0.123032 -2.71221 0
M  V30 6375 C 605.767 -2.46286 -2.62433 0
M  V30 6376 C 605.375 -3.90962 -2.18753 0
M  V30 6377 C 607.119 -2.54077 -3.40066 0
M  V30 6378 C 605.026 -4.88728 -3.33015 0
M  V30 6379 H 603.956 -0.520903 -0.545138 0
M  V30 6380 H 606.607 -1.67242 -0.75515 0
M  V30 6381 H 604.989 -2.12248 -3.34315 0
M  V30 6382 H 606.163 -4.34248 -1.54161 0
M  V30 6383 H 604.478 -3.86831 -1.54114 0
M  V30 6384 H 607.075 -3.24303 -4.25125 0
M  V30 6385 H 607.418 -1.5776 -3.8525 0
M  V30 6386 H 607.951 -2.87206 -2.75241 0
M  V30 6387 H 604.69 -5.86449 -2.92844 0
M  V30 6388 H 604.21 -4.50091 -3.96457 0
M  V30 6389 H 605.889 -5.09483 -3.98793 0
M  V30 6390 N 606.021 0.929856 -1.27246 0
M  V30 6391 C 606.954 2.03069 -1.04106 0
M  V30 6392 C 607.932 1.62556 0.0378417 0
M  V30 6393 O 609.116 1.88197 -0.106869 0
M  V30 6394 C 606.243 3.33718 -0.578778 0
M  V30 6395 C 605.289 3.93209 -1.65193 0
M  V30 6396 S 606.122 4.26068 -3.24386 0
M  V30 6397 C 607.278 5.598 -2.79954 0
M  V30 6398 H 607.511 2.22386 -1.97311 0
M  V30 6399 H 605.044 1.07269 -1.11053 0
M  V30 6400 H 607.002 4.09261 -0.31874 0
M  V30 6401 H 605.663 3.12328 0.333182 0
M  V30 6402 H 604.856 4.87482 -1.27973 0
M  V30 6403 H 604.458 3.24243 -1.86393 0
M  V30 6404 H 606.75 6.39004 -2.25123 0
M  V30 6405 H 607.693 6.01917 -3.72963 0
M  V30 6406 H 608.101 5.20219 -2.19164 0
M  V30 6407 N 607.499 1.09233 1.13605 0
M  V30 6408 C 608.91 0.846839 1.6639 0
M  V30 6409 C 609.261 -0.625031 1.85978 0
M  V30 6410 O 608.386 -1.48173 1.57714 0
M  V30 6411 C 608.981 1.5307 3.0225 0
M  V30 6412 C 607.54 1.33223 3.52035 0
M  V30 6413 C 606.687 1.58806 2.27323 0
M  V30 6414 H 609.638 1.25175 0.975541 0
M  V30 6415 H 609.659 0.96267 3.68121 0
M  V30 6416 H 609.171 2.60192 2.87961 0
M  V30 6417 H 607.272 0.282091 3.71531 0
M  V30 6418 H 607.385 2.0657 4.32279 0
M  V30 6419 H 605.749 1.01007 2.33815 0
M  V30 6420 H 606.532 2.67153 2.15602 0
M  V30 6421 N 608.977 -1.30795 0.87923 0
M  V30 6422 C 610.205 -2.00527 0.509548 0
M  V30 6423 C 610.62 -1.65944 -0.90045 0
M  V30 6424 O 609.977 -0.893525 -1.5913 0
M  V30 6425 C 610.028 -3.55276 0.667943 0
M  V30 6426 O 609.749 -3.88625 2.02242 0
M  V30 6427 C 611.25 -4.4228 0.300494 0
M  V30 6428 H 608.47 -0.641261 0.197549 0
M  V30 6429 H 611.014 -1.66813 1.18295 0
M  V30 6430 H 609.169 -3.87377 0.0419843 0
M  V30 6431 H 609.583 -4.83334 2.03688 0
M  V30 6432 H 611.057 -5.50061 0.462242 0
M  V30 6433 H 611.534 -4.32556 -0.76106 0
M  V30 6434 H 612.14 -4.15613 0.902536 0
M  V30 6435 N 610.455 -0.639598 -1.44038 0
M  V30 6436 C 611.704 -0.144885 -2.01179 0
M  V30 6437 C 612.017 1.24372 -1.50967 0
M  V30 6438 O 613.223 1.83291 -2.00292 0
M  V30 6439 C 611.679 -0.208244 -3.59297 0
M  V30 6440 C 611.287 -1.59869 -4.18504 0
M  V30 6441 C 613.031 0.229568 -4.23879 0
M  V30 6442 C 610.938 -1.61671 -5.68873 0
M  V30 6443 H 609.868 -0.0504005 -0.752314 0
M  V30 6444 H 612.519 -0.799639 -1.65161 0
M  V30 6445 H 610.901 0.513767 -3.92653 0
M  V30 6446 H 612.075 -2.34496 -3.96671 0
M  V30 6447 H 610.39 -1.98131 -3.66242 0
M  V30 6448 H 612.987 0.235758 -5.3418 0
M  V30 6449 H 613.33 1.25848 -3.96822 0
M  V30 6450 H 613.863 -0.440233 -3.95357 0
M  V30 6451 H 610.602 -2.62427 -6.00677 0
M  V30 6452 H 610.122 -0.913489 -5.92803 0
M  V30 6453 H 611.801 -1.35439 -6.32665 0
M  V30 6454 N 611.933 1.52934 -0.380664 0
M  V30 6455 C 613.18 2.01467 0.204278 0
M  V30 6456 C 613.508 1.26744 1.47533 0
M  V30 6457 O 612.763 0.353723 1.92477 0
M  V30 6458 C 613.062 3.5349 0.527199 0
M  V30 6459 C 612.728 4.46171 -0.651295 0
M  V30 6460 C 611.39 4.71227 -0.974619 0
M  V30 6461 C 613.742 5.00909 -1.44012 0
M  V30 6462 C 611.07 5.4827 -2.08847 0
M  V30 6463 C 613.422 5.7917 -2.5445 0
M  V30 6464 C 612.086 6.02507 -2.87301 0
M  V30 6465 H 611.356 0.73722 0.0747504 0
M  V30 6466 H 614.003 1.84411 -0.516234 0
M  V30 6467 H 612.308 3.68574 1.32892 0
M  V30 6468 H 614.005 3.88529 0.992283 0
M  V30 6469 H 610.595 4.26829 -0.389276 0
M  V30 6470 H 614.779 4.81485 -1.20357 0
M  V30 6471 H 610.035 5.64567 -2.34679 0
M  V30 6472 H 614.209 6.20588 -3.1598 0
M  V30 6473 H 611.836 6.61989 -3.7373 0
M  V30 6474 N 613.412 0.11024 1.57214 0
M  V30 6475 C 614.36 -0.860586 2.16094 0
M  V30 6476 C 615.354 -1.28156 1.1078 0
M  V30 6477 O 616.56 -1.25433 1.29099 0
M  V30 6478 H 612.935 -0.295606 0.691463 0
M  V30 6479 H 614.906 -0.33942 2.96463 0
M  V30 6480 C 613.655 -2.10421 2.768 0
M  V30 6481 H 612.978 -1.7892 3.5753 0
M  V30 6482 H 614.418 -2.76375 3.21547 0
M  V30 6483 C 612.877 -2.88823 1.73444 0
M  V30 6484 O 613.407 -3.839 1.18251 0
M  V30 6485 N 611.613 -2.52649 1.43586 0
M  V30 6486 H 611.16 -1.754 1.8866 0
M  V30 6487 H 611.118 -3.05403 0.746735 0
M  V30 6488 N 614.89 -1.56749 -0.16351 0
M  V30 6489 C 615.82 -2.00042 -1.20438 0
M  V30 6490 C 616.801 -0.877256 -1.45733 0
M  V30 6491 O 617.986 -1.1439 -1.56935 0
M  V30 6492 C 615.116 -2.36697 -2.54149 0
M  V30 6493 C 614.07 -3.52046 -2.43408 0
M  V30 6494 C 613.396 -3.74466 -3.81679 0
M  V30 6495 C 614.696 -4.85247 -1.93216 0
M  V30 6496 H 616.39 -2.87244 -0.844477 0
M  V30 6497 H 613.936 -1.38194 -0.40478 0
M  V30 6498 H 615.889 -2.65582 -3.27176 0
M  V30 6499 H 614.613 -1.46414 -2.91943 0
M  V30 6500 H 613.272 -3.23301 -1.72834 0
M  V30 6501 H 612.92 -2.81461 -4.1688 0
M  V30 6502 H 612.62 -4.52084 -3.75359 0
M  V30 6503 H 614.144 -4.0576 -4.5628 0
M  V30 6504 H 615.558 -5.12957 -2.56023 0
M  V30 6505 H 613.955 -5.66556 -1.97825 0
M  V30 6506 H 615.025 -4.7672 -0.88689 0
M  V30 6507 N 616.368 0.432326 -1.51554 0
M  V30 6508 C 617.617 1.17831 -1.63703 0
M  V30 6509 C 617.93 1.92229 -0.36156 0
M  V30 6510 O 619.136 2.69069 -0.362495 0
M  V30 6511 C 617.592 2.14318 -2.89129 0
M  V30 6512 C 617.2 1.45544 -4.23699 0
M  V30 6513 C 618.944 2.89319 -3.10636 0
M  V30 6514 C 616.851 2.40545 -5.4027 0
M  V30 6515 H 615.781 0.443533 -0.60975 0
M  V30 6516 H 618.432 0.444878 -1.78026 0
M  V30 6517 H 616.814 2.91117 -2.68452 0
M  V30 6518 H 617.988 0.742693 -4.54775 0
M  V30 6519 H 616.303 0.826772 -4.0811 0
M  V30 6520 H 618.9 3.60495 -3.94902 0
M  V30 6521 H 619.243 3.50951 -2.23918 0
M  V30 6522 H 619.776 2.19625 -3.31677 0
M  V30 6523 H 616.515 1.83594 -6.29264 0
M  V30 6524 H 616.035 3.09859 -5.13563 0
M  V30 6525 H 617.714 3.01569 -5.72421 0
M  V30 6526 N 617.846 1.41785 0.688094 0
M  V30 6527 C 619.257 1.3701 1.26828 0
M  V30 6528 C 619.608 0.056835 1.96118 0
M  V30 6529 O 618.733 -0.84475 1.99231 0
M  V30 6530 C 619.328 2.48168 2.30648 0
M  V30 6531 C 617.887 2.46766 2.84224 0
M  V30 6532 C 617.034 2.27633 1.58361 0
M  V30 6533 H 619.985 1.51192 0.482351 0
M  V30 6534 H 620.006 2.17655 3.121 0
M  V30 6535 H 619.518 3.43735 1.80188 0
M  V30 6536 H 617.619 1.54978 3.3884 0
M  V30 6537 H 617.732 3.43342 3.34145 0
M  V30 6538 H 616.096 1.75648 1.84445 0
M  V30 6539 H 616.879 3.25238 1.09887 0
M  V30 6540 N 619.324 -0.923095 1.27737 0
M  V30 6541 C 620.272 -2.04567 1.10703 0
M  V30 6542 C 621.266 -1.69375 0.0288445 0
M  V30 6543 O 622.472 -1.79027 0.186913 0
M  V30 6544 H 618.847 -0.670109 0.34126 0
M  V30 6545 H 620.818 -2.1608 2.05796 0
M  V30 6546 C 619.567 -3.38934 0.775837 0
M  V30 6547 H 618.89 -3.66501 1.59741 0
M  V30 6548 H 620.33 -4.18239 0.696548 0
M  V30 6549 C 618.789 -3.32863 -0.520012 0
M  V30 6550 O 619.319 -3.70462 -1.55308 0
M  V30 6551 N 617.525 -2.85958 -0.51732 0
M  V30 6552 H 617.072 -2.55557 0.32379 0
M  V30 6553 H 617.03 -2.82279 -1.38441 0
M  V30 6554 N 620.802 -1.09834 -1.13024 0
M  V30 6555 C 622.027 -0.85909 -1.88771 0
M  V30 6556 C 622.452 0.584402 -1.78791 0
M  V30 6557 O 621.81 1.41101 -1.13842 0
M  V30 6558 C 621.858 -1.30427 -3.36186 0
M  V30 6559 O 620.962 -0.465368 -4.09766 0
M  V30 6560 H 620.303 -0.310786 -0.586778 0
M  V30 6561 H 622.833 -1.46355 -1.42973 0
M  V30 6562 H 622.843 -1.2915 -3.8702 0
M  V30 6563 H 621.518 -2.3555 -3.42767 0
M  V30 6564 H 620.095 -0.542814 -3.68928 0
M  V30 6565 N 622.28 1.30327 -0.886154 0
M  V30 6566 C 623.243 2.26376 -0.358687 0
M  V30 6567 C 624.243 1.52845 0.499498 0
M  V30 6568 O 625.433 1.71483 0.306485 0
M  V30 6569 C 622.565 3.37379 0.488726 0
M  V30 6570 H 623.758 2.74547 -1.20681 0
M  V30 6571 H 621.311 1.41536 -0.663113 0
M  V30 6572 H 622.046 2.94526 1.35739 0
M  V30 6573 H 621.831 3.91897 -0.126003 0
M  V30 6574 H 623.321 4.08868 0.84952 0
M  V30 6575 N 623.758 0.647228 1.43697 0
M  V30 6576 C 624.705 -0.0480092 2.3075 0
M  V30 6577 C 625.675 -0.820705 1.44408 0
M  V30 6578 O 626.86 -0.798515 1.73287 0
M  V30 6579 C 624 -1.01259 3.2991 0
M  V30 6580 C 623.113 -0.236629 4.31351 0
M  V30 6581 C 622.248 -1.19447 5.17596 0
M  V30 6582 C 621.287 -0.408595 6.10735 0
M  V30 6583 N 620.424 -1.31772 6.89623 0
M  V30 6584 H 625.264 0.700238 2.89656 0
M  V30 6585 H 622.801 0.357082 1.427 0
M  V30 6586 H 624.759 -1.58538 3.85903 0
M  V30 6587 H 623.389 -1.72778 2.72667 0
M  V30 6588 H 622.441 0.452353 3.77701 0
M  V30 6589 H 623.753 0.374731 4.9739 0
M  V30 6590 H 622.907 -1.83809 5.78186 0
M  V30 6591 H 621.646 -1.83975 4.51669 0
M  V30 6592 H 620.651 0.24841 5.49239 0
M  V30 6593 H 621.876 0.232188 6.78703 0
M  V30 6594 H 619.822 -1.94991 6.2635 0
M  V30 6595 H 619.739 -0.760779 7.52162 0
M  V30 6596 H 621.007 -1.94967 7.54724 0
M  V30 6597 N 625.236 -1.5273 0.388769 0
M  V30 6598 C 626.485 -2.00757 -0.194833 0
M  V30 6599 C 626.798 -1.27951 -1.47946 0
M  V30 6600 O 628.004 -1.66686 -2.14308 0
M  V30 6601 C 626.46 -3.57695 -0.397762 0
M  V30 6602 C 626.068 -4.394 0.873583 0
M  V30 6603 C 627.812 -4.14012 -0.937759 0
M  V30 6604 C 625.719 -5.87938 0.638962 0
M  V30 6605 H 624.649 -0.750101 -0.0765845 0
M  V30 6606 H 627.3 -1.76239 0.511086 0
M  V30 6607 H 625.682 -3.7846 -1.16552 0
M  V30 6608 H 626.856 -4.30403 1.64591 0
M  V30 6609 H 625.171 -3.94301 1.33849 0
M  V30 6610 H 627.768 -5.22645 -1.12899 0
M  V30 6611 H 628.111 -3.7007 -1.90666 0
M  V30 6612 H 628.644 -3.97137 -0.229588 0
M  V30 6613 H 625.383 -6.36202 1.57885 0
M  V30 6614 H 624.903 -5.99726 -0.094443 0
M  V30 6615 H 626.582 -6.46423 0.273299 0
M  V30 6616 N 626.714 -0.118576 -1.57153 0
M  V30 6617 C 627.647 0.869046 -2.11004 0
M  V30 6618 C 628.625 1.26115 -1.02634 0
M  V30 6619 O 629.809 1.36228 -1.30285 0
M  V30 6620 C 626.936 2.16297 -2.6064 0
M  V30 6621 C 625.982 1.91896 -3.80891 0
M  V30 6622 S 626.815 1.13562 -5.2332 0
M  V30 6623 C 627.971 2.44135 -5.76324 0
M  V30 6624 H 628.204 0.411005 -2.94445 0
M  V30 6625 H 625.737 0.0951891 -1.54106 0
M  V30 6626 H 627.695 2.90642 -2.89892 0
M  V30 6627 H 626.356 2.59219 -1.77382 0
M  V30 6628 H 625.549 2.8777 -4.13768 0
M  V30 6629 H 625.151 1.25672 -3.52253 0
M  V30 6630 H 627.443 3.39976 -5.86022 0
M  V30 6631 H 628.386 2.15803 -6.74414 0
M  V30 6632 H 628.794 2.53483 -5.04387 0
M  V30 6633 N 628.193 1.56834 0.155195 0
M  V30 6634 C 629.156 1.96748 1.17571 0
M  V30 6635 C 630.156 0.853006 1.3631 0
M  V30 6636 O 631.346 1.11978 1.33441 0
M  V30 6637 C 628.478 2.27631 2.53765 0
M  V30 6638 H 629.671 2.88085 0.833498 0
M  V30 6639 H 627.224 1.51141 0.398242 0
M  V30 6640 H 627.959 1.39059 2.92973 0
M  V30 6641 H 627.744 3.0888 2.41527 0
M  V30 6642 H 629.234 2.59377 3.27282 0
M  V30 6643 N 629.671 -0.424282 1.51781 0
M  V30 6644 C 630.899 -1.1947 1.68921 0
M  V30 6645 C 631.314 -1.84683 0.39213 0
M  V30 6646 O 630.671 -1.71261 -0.630554 0
M  V30 6647 C 630.722 -2.26909 2.81416 0
M  V30 6648 O 630.443 -1.64361 4.061 0
M  V30 6649 C 631.944 -3.16945 3.09937 0
M  V30 6650 H 629.164 -0.359591 0.566511 0
M  V30 6651 H 631.708 -0.501139 1.98265 0
M  V30 6652 H 629.863 -2.91959 2.54635 0
M  V30 6653 H 630.277 -2.35468 4.68674 0
M  V30 6654 H 631.751 -3.88437 3.922 0
M  V30 6655 H 632.228 -3.78451 2.22871 0
M  V30 6656 H 632.834 -2.57581 3.38426 0
M  V30 6657 N 631.149 -1.42148 -0.680565 0
M  V30 6658 C 632.374 -1.45901 -1.47403 0
M  V30 6659 C 632.799 -0.0700985 -1.87969 0
M  V30 6660 O 632.157 0.930145 -1.55621 0
M  V30 6661 C 632.205 -2.38661 -2.70321 0
M  V30 6662 O 631.309 -1.85399 -3.68376 0
M  V30 6663 H 630.65 -0.494565 -0.443059 0
M  V30 6664 H 633.18 -1.86774 -0.835251 0
M  V30 6665 H 633.19 -2.55046 -3.18458 0
M  V30 6666 H 631.865 -3.39571 -2.40134 0
M  V30 6667 H 630.442 -1.78541 -3.2738 0
M  V30 6668 N 632.627 0.916307 -1.28225 0
M  V30 6669 C 633.875 1.6619 -1.15002 0
M  V30 6670 C 634.196 1.92642 0.302329 0
M  V30 6671 O 633.466 1.54076 1.20985 0
M  V30 6672 H 632.046 0.615964 -0.422608 0
M  V30 6673 H 634.708 1.09963 -1.60917 0
M  V30 6674 H 633.804 2.62533 -1.68769 0
M  V30 6675 N 634.105 1.10431 1.1244 0
M  V30 6676 C 635.351 0.847972 1.84221 0
M  V30 6677 C 635.684 -0.624903 1.83871 0
M  V30 6678 O 634.959 -1.46074 1.28423 0
M  V30 6679 C 635.242 1.39695 3.319 0
M  V30 6680 C 635.095 2.93668 3.40704 0
M  V30 6681 C 636.414 1.03924 4.27654 0
M  V30 6682 H 633.533 0.309502 0.668863 0
M  V30 6683 H 636.175 1.36745 1.31912 0
M  V30 6684 H 634.325 0.955095 3.76577 0
M  V30 6685 H 635.997 3.46379 3.04662 0
M  V30 6686 H 634.24 3.30272 2.81252 0
M  V30 6687 H 634.911 3.27162 4.446 0
M  V30 6688 H 637.387 1.42049 3.91102 0
M  V30 6689 H 636.263 1.45027 5.29394 0
M  V30 6690 H 636.524 -0.051336 4.4207 0
M  V30 6691 N 635.583 -1.29855 0.893053 0
M  V30 6692 C 636.829 -1.96116 0.516349 0
M  V30 6693 C 637.162 -1.70281 -0.933695 0
M  V30 6694 O 636.437 -1.01205 -1.66096 0
M  V30 6695 C 636.72 -3.51068 0.801455 0
M  V30 6696 C 636.573 -3.86387 2.30272 0
M  V30 6697 C 637.892 -4.39186 0.283423 0
M  V30 6698 H 635.011 -0.712335 0.189072 0
M  V30 6699 H 637.653 -1.53587 1.11852 0
M  V30 6700 H 635.803 -3.87424 0.288949 0
M  V30 6701 H 637.475 -3.60012 2.88425 0
M  V30 6702 H 635.718 -3.34167 2.76613 0
M  V30 6703 H 636.389 -4.94512 2.45279 0
M  V30 6704 H 638.865 -4.09785 0.722187 0
M  V30 6705 H 637.741 -5.46505 0.512169 0
M  V30 6706 H 638.002 -4.34511 -0.815643 0
M  V30 6707 N 637.061 -0.65484 -1.43351 0
M  V30 6708 C 638.024 0.0263562 -2.29185 0
M  V30 6709 C 639.024 0.748951 -1.42293 0
M  V30 6710 O 640.214 0.589957 -1.63906 0
M  V30 6711 C 637.346 1.04806 -3.2439 0
M  V30 6712 H 638.539 -0.728883 -2.90908 0
M  V30 6713 H 636.092 -0.416149 -1.50658 0
M  V30 6714 H 636.827 1.83247 -2.67565 0
M  V30 6715 H 636.612 0.533554 -3.88453 0
M  V30 6716 H 638.102 1.52372 -3.88809 0
M  V30 6717 N 638.539 1.52521 -0.396863 0
M  V30 6718 C 639.785 2.01971 0.183169 0
M  V30 6719 C 640.118 1.2825 1.45827 0
M  V30 6720 O 639.393 0.385179 1.90648 0
M  V30 6721 C 639.676 3.5736 0.443391 0
M  V30 6722 C 639.529 4.41743 -0.84753 0
M  V30 6723 C 640.848 4.22539 1.2308 0
M  V30 6724 H 637.967 0.734119 0.0650976 0
M  V30 6725 H 640.609 1.82519 -0.527918 0
M  V30 6726 H 638.759 3.74066 1.04914 0
M  V30 6727 H 640.431 4.36773 -1.48414 0
M  V30 6728 H 638.674 4.0845 -1.4612 0
M  V30 6729 H 639.345 5.48507 -0.620003 0
M  V30 6730 H 641.821 4.09857 0.718084 0
M  V30 6731 H 640.697 5.31227 1.38162 0
M  V30 6732 H 640.958 3.80675 2.24808 0
M  V30 6733 N 640.017 0.126909 1.57088 0
M  V30 6734 C 641.433 -0.229641 1.57939 0
M  V30 6735 C 641.633 -1.66145 1.1401 0
M  V30 6736 O 640.689 -2.3843 0.831119 0
M  V30 6737 C 642.002 0.0108648 3.00698 0
M  V30 6738 C 643.55 -0.054418 3.12953 0
M  V30 6739 C 644.025 0.158497 4.57726 0
M  V30 6740 N 645.516 0.104735 4.63082 0
M  V30 6741 C 646.251 0.24427 5.72879 0
M  V30 6742 N 645.747 0.440415 6.91399 0
M  V30 6743 N 647.54 0.183286 5.61801 0
M  V30 6744 H 639.691 1.06203 1.83942 0
M  V30 6745 H 641.954 0.418834 0.85046 0
M  V30 6746 H 641.66 1.00102 3.37154 0
M  V30 6747 H 641.534 -0.717512 3.70313 0
M  V30 6748 H 643.921 -1.0351 2.7635 0
M  V30 6749 H 644.002 0.705967 2.45865 0
M  V30 6750 H 643.646 1.13619 4.95028 0
M  V30 6751 H 643.576 -0.62197 5.22914 0
M  V30 6752 H 646.067 -0.0430298 3.77876 0
M  V30 6753 H 646.38 0.537536 7.70928 0
M  V30 6754 H 644.725 0.476488 6.93365 0
M  V30 6755 H 647.916 0.0309561 4.6809 0
M  V30 6756 H 648.089 0.295471 6.47326 0
M  V30 6757 N 641.495 -1.56914 -0.146875 0
M  V30 6758 C 642.425 -2.01308 -1.1831 0
M  V30 6759 C 643.406 -0.892664 -1.44795 0
M  V30 6760 O 644.591 -1.16048 -1.55713 0
M  V30 6761 C 641.721 -2.3938 -2.51624 0
M  V30 6762 C 640.675 -3.54608 -2.3966 0
M  V30 6763 C 640.001 -3.78493 -3.77686 0
M  V30 6764 C 641.301 -4.87269 -1.88058 0
M  V30 6765 H 642.995 -2.88123 -0.813964 0
M  V30 6766 H 640.541 -1.38615 -0.3901 0
M  V30 6767 H 642.494 -2.69037 -3.24341 0
M  V30 6768 H 641.218 -1.49502 -2.90373 0
M  V30 6769 H 639.877 -3.25116 -1.69396 0
M  V30 6770 H 639.525 -2.85866 -4.13871 0
M  V30 6771 H 639.225 -4.56039 -3.70543 0
M  V30 6772 H 640.749 -4.10576 -4.51951 0
M  V30 6773 H 642.163 -5.15644 -2.50568 0
M  V30 6774 H 640.56 -5.68622 -1.91805 0
M  V30 6775 H 641.63 -4.77634 -0.836277 0
M  V30 6776 N 642.974 0.416227 -1.52004 0
M  V30 6777 C 644.223 1.16088 -1.64944 0
M  V30 6778 C 644.536 1.91835 -0.381928 0
M  V30 6779 O 645.742 2.6867 -0.391013 0
M  V30 6780 C 644.198 2.1124 -2.91386 0
M  V30 6781 C 643.806 1.41042 -4.25219 0
M  V30 6782 C 645.55 2.86008 -3.13688 0
M  V30 6783 C 643.457 2.34801 -5.42791 0
M  V30 6784 H 642.387 0.437041 -0.61442 0
M  V30 6785 H 645.038 0.425971 -1.78487 0
M  V30 6786 H 643.42 2.88254 -2.71525 0
M  V30 6787 H 644.594 0.694416 -4.55538 0
M  V30 6788 H 642.909 0.78344 -4.08964 0
M  V30 6789 H 645.506 3.56286 -3.98703 0
M  V30 6790 H 645.849 3.48556 -2.27628 0
M  V30 6791 H 646.382 2.16095 -3.33988 0
M  V30 6792 H 643.121 1.7691 -6.31176 0
M  V30 6793 H 642.641 3.04395 -5.16821 0
M  V30 6794 H 644.32 2.9548 -5.75587 0
M  V30 6795 N 644.452 1.42507 0.673017 0
M  V30 6796 C 645.701 1.42364 1.42883 0
M  V30 6797 C 646.014 0.0441598 1.9555 0
M  V30 6798 O 647.22 -0.0798679 2.71382 0
M  V30 6799 C 645.676 2.5043 2.58482 0
M  V30 6800 C 645.284 3.94392 2.12506 0
M  V30 6801 C 647.028 2.59455 3.35981 0
M  V30 6802 C 644.935 4.93964 3.25198 0
M  V30 6803 H 643.865 0.52951 0.536782 0
M  V30 6804 H 646.516 1.68422 0.728448 0
M  V30 6805 H 644.898 2.1754 3.30896 0
M  V30 6806 H 646.072 4.36645 1.47233 0
M  V30 6807 H 644.387 3.89233 1.4794 0
M  V30 6808 H 646.984 3.31025 4.19912 0
M  V30 6809 H 647.327 1.63869 3.82691 0
M  V30 6810 H 647.86 2.91549 2.70637 0
M  V30 6811 H 644.599 5.91034 2.83477 0
M  V30 6812 H 644.119 4.56341 3.89247 0
M  V30 6813 H 645.798 5.15763 3.90637 0
M  V30 6814 N 645.93 -0.909495 1.28709 0
M  V30 6815 C 647.346 -1.18862 1.06508 0
M  V30 6816 C 647.546 -2.00604 -0.189864 0
M  V30 6817 O 646.602 -2.36281 -0.890355 0
M  V30 6818 C 647.915 -1.91908 2.31499 0
M  V30 6819 C 649.463 -2.04773 2.36721 0
M  V30 6820 C 649.938 -2.81228 3.6149 0
M  V30 6821 N 651.429 -2.88787 3.62155 0
M  V30 6822 C 652.164 -3.48455 4.55375 0
M  V30 6823 N 651.66 -4.09369 5.58918 0
M  V30 6824 N 653.453 -3.46035 4.42963 0
M  V30 6825 H 645.604 -0.363867 2.0926 0
M  V30 6826 H 647.867 -0.223649 0.921241 0
M  V30 6827 H 647.573 -1.39275 3.22948 0
M  V30 6828 H 647.447 -2.92436 2.38245 0
M  V30 6829 H 649.834 -2.56585 1.45767 0
M  V30 6830 H 649.915 -1.03408 2.33967 0
M  V30 6831 H 649.559 -2.30094 4.5279 0
M  V30 6832 H 649.489 -3.82917 3.61499 0
M  V30 6833 H 651.98 -2.45514 2.87283 0
M  V30 6834 H 652.293 -4.52891 6.26187 0
M  V30 6835 H 650.638 -4.0786 5.62739 0
M  V30 6836 H 653.829 -2.9766 3.6127 0
M  V30 6837 H 654.002 -3.92244 5.15799 0
M  V30 6838 N 647.408 -1.11026 -1.11852 0
M  V30 6839 C 648.358 -0.733836 -2.15868 0
M  V30 6840 C 649.342 0.26001 -1.58785 0
M  V30 6841 O 650.534 0.0677901 -1.7687 0
M  V30 6842 C 647.663 -0.173948 -3.42859 0
M  V30 6843 C 646.749 -1.1952 -4.0691 0
M  V30 6844 N 647.14 -2.38797 -4.45881 0
M  V30 6845 C 645.438 -1.03714 -4.33773 0
M  V30 6846 C 646.139 -3.03894 -4.96007 0
M  V30 6847 N 645.115 -2.31389 -4.91894 0
M  V30 6848 H 648.917 -1.64171 -2.43773 0
M  V30 6849 H 646.431 -0.988877 -1.28822 0
M  V30 6850 H 648.428 0.113836 -4.16745 0
M  V30 6851 H 647.088 0.728568 -3.16421 0
M  V30 6852 H 648.099 -2.76281 -4.38051 0
M  V30 6853 H 644.776 -0.190694 -4.17064 0
M  V30 6854 H 646.166 -4.05389 -5.35826 0
M  V30 6855 N 648.886 1.2938 -0.899927 0
M  V30 6856 C 650.114 1.99691 -0.541386 0
M  V30 6857 C 650.529 1.67355 0.873936 0
M  V30 6858 O 649.886 0.918728 1.57688 0
M  V30 6859 C 649.937 3.54168 -0.72438 0
M  V30 6860 O 649.658 3.85359 -2.08399 0
M  V30 6861 C 651.159 4.41746 -0.370819 0
M  V30 6862 H 648.379 0.638037 -0.207726 0
M  V30 6863 H 650.923 1.6491 -1.20934 0
M  V30 6864 H 649.078 3.87261 -0.103607 0
M  V30 6865 H 649.492 4.80032 -2.11352 0
M  V30 6866 H 650.966 5.49256 -0.549693 0
M  V30 6867 H 651.443 4.33712 0.692148 0
M  V30 6868 H 652.049 4.14125 -0.968543 0
M  V30 6869 N 650.364 0.662433 1.43002 0
M  V30 6870 C 651.314 -0.0460442 2.27954 0
M  V30 6871 C 652.298 -0.785753 1.40409 0
M  V30 6872 O 653.49 -0.666701 1.63964 0
M  V30 6873 C 650.619 -1.00532 3.2825 0
M  V30 6874 C 649.705 -0.263604 4.2328 0
M  V30 6875 N 650.096 0.724855 5.00579 0
M  V30 6876 C 648.394 -0.503778 4.43146 0
M  V30 6877 C 649.095 1.16594 5.69895 0
M  V30 6878 N 648.071 0.498345 5.41311 0
M  V30 6879 H 651.873 0.712314 2.85137 0
M  V30 6880 H 649.387 0.490469 1.54817 0
M  V30 6881 H 651.384 -1.52775 3.87899 0
M  V30 6882 H 650.044 -1.76364 2.72628 0
M  V30 6883 H 651.055 1.10393 5.05998 0
M  V30 6884 H 647.732 -1.24255 3.98581 0
M  V30 6885 H 649.122 1.98434 6.4193 0
M  V30 6886 N 651.842 -1.52309 0.404946 0
M  V30 6887 C 653.091 -2.00952 -0.173529 0
M  V30 6888 C 653.404 -1.29512 -1.46581 0
M  V30 6889 O 654.61 -1.6895 -2.12528 0
M  V30 6890 C 653.066 -3.58097 -0.359801 0
M  V30 6891 C 652.674 -4.38449 0.920138 0
M  V30 6892 C 654.418 -4.14984 -0.893794 0
M  V30 6893 C 652.325 -5.87227 0.701285 0
M  V30 6894 H 651.255 -0.750871 -0.0686244 0
M  V30 6895 H 653.906 -1.75687 0.529749 0
M  V30 6896 H 652.288 -3.79675 -1.12531 0
M  V30 6897 H 653.462 -4.28633 1.69147 0
M  V30 6898 H 651.777 -3.92859 1.38024 0
M  V30 6899 H 654.374 -5.23813 -1.0735 0
M  V30 6900 H 654.717 -3.72072 -1.8673 0
M  V30 6901 H 655.25 -3.97358 -0.187453 0
M  V30 6902 H 651.989 -6.34491 1.64624 0
M  V30 6903 H 651.509 -5.99792 -0.0308288 0
M  V30 6904 H 653.188 -6.46096 0.341846 0
M  V30 6905 N 653.32 -0.135238 -1.57019 0
M  V30 6906 C 654.731 0.387521 -1.82634 0
M  V30 6907 C 655.082 1.65528 -1.05332 0
M  V30 6908 O 654.207 2.14381 -0.294926 0
M  V30 6909 C 654.802 0.709852 -3.3128 0
M  V30 6910 C 653.361 1.17718 -3.57518 0
M  V30 6911 C 652.508 0.194183 -2.76619 0
M  V30 6912 H 655.459 -0.360126 -1.5456 0
M  V30 6913 H 655.48 1.5657 -3.46794 0
M  V30 6914 H 654.992 -0.213024 -3.87515 0
M  V30 6915 H 653.093 2.1164 -3.06658 0
M  V30 6916 H 653.206 1.11128 -4.66034 0
M  V30 6917 H 651.57 0.684478 -2.4533 0
M  V30 6918 H 652.353 -0.722076 -3.3562 0
M  V30 6919 N 654.798 1.5699 0.138552 0
M  V30 6920 C 656.214 1.51844 0.491472 0
M  V30 6921 C 656.414 0.845063 1.82923 0
M  V30 6922 O 655.47 0.419143 2.48997 0
M  V30 6923 C 656.783 2.96615 0.493987 0
M  V30 6924 C 658.331 3.076 0.578913 0
M  V30 6925 C 658.806 4.53893 0.612009 0
M  V30 6926 N 660.297 4.5827 0.673997 0
M  V30 6927 C 661.032 5.68852 0.720729 0
M  V30 6928 N 660.528 6.88982 0.726292 0
M  V30 6929 N 662.321 5.56908 0.762253 0
M  V30 6930 H 654.472 1.99158 -0.738228 0
M  V30 6931 H 656.735 0.908693 -0.270149 0
M  V30 6932 H 656.441 3.49172 -0.420933 0
M  V30 6933 H 656.315 3.53017 1.32887 0
M  V30 6934 H 658.702 2.55057 1.48425 0
M  V30 6935 H 658.783 2.54227 -0.283286 0
M  V30 6936 H 658.427 5.07076 -0.289208 0
M  V30 6937 H 658.357 5.05057 1.49082 0
M  V30 6938 H 660.848 3.71793 0.676654 0
M  V30 6939 H 661.161 7.69014 0.764032 0
M  V30 6940 H 659.506 6.91526 0.69403 0
M  V30 6941 H 662.697 4.61969 0.755135 0
M  V30 6942 H 662.87 6.43102 0.795207 0
M  V30 6943 N 656.276 -0.40816 1.52223 0
M  V30 6944 C 657.206 -1.5042 1.78595 0
M  V30 6945 C 658.187 -1.57723 0.636974 0
M  V30 6946 O 659.372 -1.72982 0.882664 0
M  V30 6947 C 656.502 -2.88232 1.93751 0
M  V30 6948 C 655.456 -2.95779 3.09352 0
M  V30 6949 C 654.782 -4.35855 3.09732 0
M  V30 6950 C 656.082 -2.67175 4.48793 0
M  V30 6951 H 657.776 -1.28601 2.70374 0
M  V30 6952 H 655.322 -0.617221 1.30101 0
M  V30 6953 H 657.275 -3.64895 2.10783 0
M  V30 6954 H 655.999 -3.11347 0.986443 0
M  V30 6955 H 654.658 -2.21561 2.92072 0
M  V30 6956 H 654.306 -4.55981 2.12346 0
M  V30 6957 H 654.006 -4.41829 3.87377 0
M  V30 6958 H 655.53 -5.14451 3.28895 0
M  V30 6959 H 656.944 -3.3356 4.66273 0
M  V30 6960 H 655.341 -2.84523 5.28362 0
M  V30 6961 H 656.411 -1.62609 4.56822 0
M  V30 6962 N 657.755 -1.42862 -0.66545 0
M  V30 6963 C 659.004 -1.43119 -1.42126 0
M  V30 6964 C 659.317 -0.0545297 -1.95524 0
M  V30 6965 O 660.523 0.0654747 -2.71421 0
M  V30 6966 C 658.979 -2.51797 -2.5715 0
M  V30 6967 C 658.587 -3.95514 -2.10411 0
M  V30 6968 C 660.331 -2.61233 -3.346 0
M  V30 6969 C 658.238 -4.95682 -3.22573 0
M  V30 6970 H 657.168 -0.532349 -0.533966 0
M  V30 6971 H 659.819 -1.68806 -0.719506 0
M  V30 6972 H 658.201 -2.19292 -3.29738 0
M  V30 6973 H 659.375 -4.3742 -1.44915 0
M  V30 6974 H 657.69 -3.90012 -1.45874 0
M  V30 6975 H 660.287 -3.33248 -4.18151 0
M  V30 6976 H 660.63 -1.65896 -3.81817 0
M  V30 6977 H 661.163 -2.9298 -2.69087 0
M  V30 6978 H 657.902 -5.92529 -2.80338 0
M  V30 6979 H 657.422 -4.58399 -3.86821 0
M  V30 6980 H 659.101 -5.17828 -3.87896 0
M  V30 6981 N 659.233 0.902656 -1.29189 0
M  V30 6982 C 660.644 1.46809 -1.15343 0
M  V30 6983 C 660.995 1.94568 0.252517 0
M  V30 6984 O 660.12 1.83454 1.14777 0
M  V30 6985 C 660.715 2.66829 -2.08776 0
M  V30 6986 C 659.274 3.19518 -1.98961 0
M  V30 6987 C 658.421 1.92212 -1.99874 0
M  V30 6988 H 661.372 0.714282 -1.41717 0
M  V30 6989 H 661.393 3.42465 -1.65826 0
M  V30 6990 H 660.905 2.32039 -3.11094 0
M  V30 6991 H 659.006 3.59008 -0.99721 0
M  V30 6992 H 659.119 3.84016 -2.86477 0
M  V30 6993 H 657.483 2.0979 -1.44431 0
M  V30 6994 H 658.266 1.59702 -3.03891 0
M  V30 6995 N 660.711 1.11618 1.11262 0
M  V30 6996 C 661.957 0.867463 1.83311 0
M  V30 6997 C 662.29 -0.605366 1.84524 0
M  V30 6998 O 661.565 -1.44704 1.29965 0
M  V30 6999 C 661.848 1.43207 3.30399 0
M  V30 7000 C 661.701 2.97265 3.3757 0
M  V30 7001 C 663.02 1.08454 4.26528 0
M  V30 7002 H 660.139 0.316578 0.665543 0
M  V30 7003 H 662.781 1.38137 1.30454 0
M  V30 7004 H 660.931 0.994982 3.75543 0
M  V30 7005 H 662.603 3.49591 3.00971 0
M  V30 7006 H 660.846 3.33237 2.77733 0
M  V30 7007 H 661.517 3.31859 4.41105 0
M  V30 7008 H 663.993 1.4619 3.89574 0
M  V30 7009 H 662.869 1.50633 5.27826 0
M  V30 7010 H 663.13 -0.00444568 4.421 0
M  V30 7011 N 662.189 -1.289 0.906776 0
M  V30 7012 C 663.438 -1.9455 0.532262 0
M  V30 7013 C 663.751 -1.72219 -0.927353 0
M  V30 7014 O 664.957 -2.32033 -1.40971 0
M  V30 7015 C 663.413 -3.48438 0.901041 0
M  V30 7016 C 663.021 -3.79558 2.37991 0
M  V30 7017 C 664.765 -4.20284 0.596777 0
M  V30 7018 C 662.672 -5.26723 2.68918 0
M  V30 7019 H 661.602 -0.728259 0.195333 0
M  V30 7020 H 664.253 -1.46519 1.10474 0
M  V30 7021 H 662.635 -3.95162 0.257419 0
M  V30 7022 H 663.809 -3.43668 3.06967 0
M  V30 7023 H 662.124 -3.20868 2.65391 0
M  V30 7024 H 664.721 -5.28612 0.8046 0
M  V30 7025 H 665.064 -4.13694 -0.465072 0
M  V30 7026 H 665.597 -3.79315 1.19855 0
M  V30 7027 H 662.336 -5.38384 3.73928 0
M  V30 7028 H 661.856 -5.63836 2.04571 0
M  V30 7029 H 663.535 -5.94391 2.55555 0
M  V30 7030 N 663.667 -0.670007 -1.42649 0
M  V30 7031 C 664.895 -0.19854 -2.05945 0
M  V30 7032 C 665.31 1.14243 -1.50313 0
M  V30 7033 O 664.667 1.70872 -0.641027 0
M  V30 7034 C 664.718 -0.11966 -3.61302 0
M  V30 7035 O 664.439 -1.40764 -4.1487 0
M  V30 7036 C 665.94 0.375878 -4.41704 0
M  V30 7037 H 663.16 -0.0976894 -0.663851 0
M  V30 7038 H 665.704 -0.915392 -1.82868 0
M  V30 7039 H 663.859 0.547851 -3.83507 0
M  V30 7040 H 664.273 -1.27784 -5.08696 0
M  V30 7041 H 665.747 0.379988 -5.50691 0
M  V30 7042 H 666.224 1.41028 -4.15942 0
M  V30 7043 H 666.83 -0.259727 -4.24506 0
M  V30 7044 N 665.145 1.52092 -0.413018 0
M  V30 7045 C 666.37 2.06756 0.163338 0
M  V30 7046 C 666.795 1.28073 1.37764 0
M  V30 7047 O 666.153 0.312015 1.78595 0
M  V30 7048 C 666.201 3.57278 0.488322 0
M  V30 7049 O 665.305 3.80986 1.57871 0
M  V30 7050 H 664.646 0.663882 0.0125068 0
M  V30 7051 H 667.176 1.95988 -0.587339 0
M  V30 7052 H 667.186 4.01125 0.745836 0
M  V30 7053 H 665.861 4.13978 -0.399327 0
M  V30 7054 H 664.438 3.49017 1.31306 0
M  V30 7055 N 666.623 0.143563 1.56945 0
M  V30 7056 C 667.571 -0.814556 2.17871 0
M  V30 7057 C 668.565 -1.25778 1.13474 0
M  V30 7058 O 669.771 -1.22666 1.31731 0
M  V30 7059 H 666.146 -0.280873 0.697578 0
M  V30 7060 H 668.117 -0.276459 2.97117 0
M  V30 7061 C 666.866 -2.04503 2.81201 0
M  V30 7062 H 666.189 -1.71296 3.61245 0
M  V30 7063 H 667.629 -2.69493 3.27337 0
M  V30 7064 C 666.088 -2.85079 1.79532 0
M  V30 7065 O 666.618 -3.81306 1.26368 0
M  V30 7066 N 664.824 -2.49546 1.48913 0
M  V30 7067 H 664.371 -1.71359 1.92338 0
M  V30 7068 H 664.329 -3.03751 0.811348 0
M  V30 7069 N 668.101 -1.57061 -0.130224 0
M  V30 7070 C 669.341 -1.86071 -0.845993 0
M  V30 7071 C 669.705 -0.73009 -1.77577 0
M  V30 7072 O 670.906 -0.901663 -2.53226 0
M  V30 7073 C 669.177 -3.20293 -1.58579 0
M  V30 7074 S 670.736 -3.70905 -2.34467 0
M  V30 7075 H 667.554 -0.652434 -0.282579 0
M  V30 7076 H 670.156 -1.95218 -0.10498 0
M  V30 7077 H 668.86 -4.00533 -0.894509 0
M  V30 7078 H 668.391 -3.14195 -2.36739 0
M  V30 7079 H 670.406 -3.41509 -3.59981 0
M  V30 7080 N 669.579 0.400081 -1.52437 0
M  V30 7081 C 670.807 1.16768 -1.70801 0
M  V30 7082 C 671.222 1.84036 -0.421462 0
M  V30 7083 O 670.579 1.72242 0.603228 0
M  V30 7084 C 670.63 2.22403 -2.8499 0
M  V30 7085 O 670.351 1.57879 -4.08663 0
M  V30 7086 C 671.852 3.11974 -3.1494 0
M  V30 7087 H 669.072 0.350533 -0.57216 0
M  V30 7088 H 671.616 0.469534 -1.99037 0
M  V30 7089 H 669.771 2.87871 -2.59247 0
M  V30 7090 H 670.185 2.27982 -4.7236 0
M  V30 7091 H 671.659 3.82148 -3.9833 0
M  V30 7092 H 672.136 3.74858 -2.28863 0
M  V30 7093 H 672.742 2.52165 -3.42481 0
M  V30 7094 N 671.057 1.43213 0.657864 0
M  V30 7095 C 672.282 1.48227 1.45064 0
M  V30 7096 C 672.707 0.0999939 1.87834 0
M  V30 7097 O 672.065 -0.905269 1.57081 0
M  V30 7098 C 672.113 2.42931 2.6649 0
M  V30 7099 O 671.217 1.91237 3.6538 0
M  V30 7100 H 670.558 0.501551 0.435135 0
M  V30 7101 H 673.088 1.8808 0.805431 0
M  V30 7102 H 673.098 2.6008 3.1436 0
M  V30 7103 H 671.773 3.43348 2.34701 0
M  V30 7104 H 670.35 1.83726 3.24498 0
M  V30 7105 N 672.536 -0.895792 1.29666 0
M  V30 7106 C 673.483 -2.00035 1.15129 0
M  V30 7107 C 674.453 -1.66043 0.0435819 0
M  V30 7108 O 675.638 -1.89621 0.211811 0
M  V30 7109 C 672.778 -3.34774 0.83787 0
M  V30 7110 C 671.891 -3.81525 2.0264 0
M  V30 7111 C 671.026 -5.04858 1.65201 0
M  V30 7112 C 670.065 -5.43988 2.80612 0
M  V30 7113 N 669.202 -6.58507 2.43544 0
M  V30 7114 H 674.042 -2.11802 2.09628 0
M  V30 7115 H 671.579 -1.03719 1.04311 0
M  V30 7116 H 673.537 -4.12311 0.636824 0
M  V30 7117 H 672.167 -3.22724 -0.0702314 0
M  V30 7118 H 671.219 -2.9999 2.33903 0
M  V30 7119 H 672.531 -4.06472 2.89106 0
M  V30 7120 H 671.685 -5.8999 1.41408 0
M  V30 7121 H 670.424 -4.81759 0.758893 0
M  V30 7122 H 669.429 -4.57388 3.05083 0
M  V30 7123 H 670.654 -5.69066 3.70595 0
M  V30 7124 H 668.6 -6.37004 1.56724 0
M  V30 7125 H 668.517 -6.83269 3.23542 0
M  V30 7126 H 669.785 -7.46897 2.2308 0
M  V30 7127 N 674.014 -1.12206 -1.10668 0
M  V30 7128 C 675.239 -0.898938 -1.86906 0
M  V30 7129 C 675.664 0.546346 -1.79991 0
M  V30 7130 O 675.022 1.38655 -1.1681 0
M  V30 7131 C 675.07 -1.37529 -3.33344 0
M  V30 7132 O 674.174 -0.55218 -4.08687 0
M  V30 7133 H 673.515 -0.323163 -0.580053 0
M  V30 7134 H 676.045 -1.49355 -1.39837 0
M  V30 7135 H 676.055 -1.3733 -3.84193 0
M  V30 7136 H 674.73 -2.42767 -3.37693 0
M  V30 7137 H 673.307 -0.620947 -3.67694 0
M  V30 7138 N 675.492 1.28418 -0.913599 0
M  V30 7139 C 676.738 1.9527 -0.547484 0
M  V30 7140 C 677.071 1.71745 0.906486 0
M  V30 7141 O 676.346 1.03834 1.64465 0
M  V30 7142 C 676.629 3.49748 -0.857205 0
M  V30 7143 C 676.482 3.82675 -2.3639 0
M  V30 7144 C 677.801 4.3868 -0.353258 0
M  V30 7145 H 674.92 0.709236 -0.200381 0
M  V30 7146 H 677.562 1.51789 -1.14281 0
M  V30 7147 H 675.712 3.86915 -0.350548 0
M  V30 7148 H 677.384 3.55378 -2.94116 0
M  V30 7149 H 675.627 3.29724 -2.81894 0
M  V30 7150 H 676.298 4.90547 -2.53115 0
M  V30 7151 H 678.774 4.08584 -0.787288 0
M  V30 7152 H 677.65 5.45621 -0.599049 0
M  V30 7153 H 677.911 4.35753 0.746413 0
M  V30 7154 N 676.97 0.677563 1.42291 0
M  V30 7155 C 677.933 0.0101085 2.29198 0
M  V30 7156 C 678.933 -0.726219 1.43467 0
M  V30 7157 O 680.123 -0.563807 1.64824 0
M  V30 7158 C 677.255 -0.996316 3.26016 0
M  V30 7159 H 678.448 0.775071 2.89711 0
M  V30 7160 H 676.001 0.440065 1.49977 0
M  V30 7161 H 676.736 -1.78967 2.70446 0
M  V30 7162 H 676.521 -0.471687 3.89253 0
M  V30 7163 H 678.011 -1.46167 3.91184 0
M  V30 7164 N 678.448 -1.51871 0.421078 0
M  V30 7165 C 679.694 -2.02237 -0.151014 0
M  V30 7166 C 680.027 -1.30554 -1.43768 0
M  V30 7167 O 679.302 -0.41546 -1.90011 0
M  V30 7168 C 679.585 -3.5802 -0.386482 0
M  V30 7169 C 679.438 -4.40339 0.9177 0
M  V30 7170 C 680.757 -4.24444 -1.16342 0
M  V30 7171 H 677.876 -0.735062 -0.0534102 0
M  V30 7172 H 680.518 -1.81656 0.556888 0
M  V30 7173 H 678.668 -3.75688 -0.989494 0
M  V30 7174 H 680.34 -4.34357 1.55344 0
M  V30 7175 H 678.583 -4.06073 1.526 0
M  V30 7176 H 679.254 -5.47451 0.707187 0
M  V30 7177 H 681.73 -4.10948 -0.652788 0
M  V30 7178 H 680.606 -5.33358 -1.29693 0
M  V30 7179 H 680.867 -3.84204 -2.18724 0
M  V30 7180 N 679.926 -0.151884 -1.56866 0
M  V30 7181 C 681.342 0.204486 -1.58285 0
M  V30 7182 C 681.542 1.6431 -1.16639 0
M  V30 7183 O 680.598 2.37077 -0.868946 0
M  V30 7184 C 681.911 -0.0587019 -3.00643 0
M  V30 7185 C 683.459 0.00462303 -3.13 0
M  V30 7186 C 683.934 -0.231297 -4.57416 0
M  V30 7187 N 685.425 -0.178394 -4.62856 0
M  V30 7188 C 686.16 -0.335379 -5.72418 0
M  V30 7189 N 685.656 -0.550355 -6.90611 0
M  V30 7190 N 687.449 -0.272641 -5.61438 0
M  V30 7191 H 679.6 -1.09116 -1.82229 0
M  V30 7192 H 681.863 -0.432311 -0.843689 0
M  V30 7193 H 681.569 -1.05453 -3.35518 0
M  V30 7194 H 681.443 0.658508 -3.71407 0
M  V30 7195 H 683.83 0.991009 -2.77962 0
M  V30 7196 H 683.911 -0.744992 -2.44711 0
M  V30 7197 H 683.555 -1.2148 -4.93158 0
M  V30 7198 H 683.485 0.5387 -5.23837 0
M  V30 7199 H 685.976 -0.0170923 -3.77896 0
M  V30 7200 H 686.289 -0.660116 -7.69976 0
M  V30 7201 H 684.634 -0.586736 -6.92519 0
M  V30 7202 H 687.825 -0.105421 -4.67981 0
M  V30 7203 H 687.998 -0.398418 -6.46774 0
M  V30 7204 N 681.404 1.57128 0.121893 0
M  V30 7205 C 682.82 1.52357 0.47534 0
M  V30 7206 C 683.02 0.864417 1.82017 0
M  V30 7207 O 682.076 0.445529 2.48538 0
M  V30 7208 C 683.389 2.97122 0.4625 0
M  V30 7209 C 684.937 3.08196 0.546255 0
M  V30 7210 C 685.412 4.54516 0.563833 0
M  V30 7211 N 686.903 4.58959 0.625353 0
M  V30 7212 C 687.638 5.69585 0.660354 0
M  V30 7213 N 687.134 6.89714 0.653175 0
M  V30 7214 N 688.927 5.57685 0.703143 0
M  V30 7215 H 681.078 1.98364 -0.75931 0
M  V30 7216 H 683.341 0.905777 -0.279772 0
M  V30 7217 H 683.047 3.48706 -0.457943 0
M  V30 7218 H 682.921 3.54406 1.29136 0
M  V30 7219 H 685.308 2.56617 1.45712 0
M  V30 7220 H 685.389 2.53912 -0.310234 0
M  V30 7221 H 685.033 5.06741 -0.342974 0
M  V30 7222 H 684.963 5.06609 1.43716 0
M  V30 7223 H 687.454 3.72489 0.637182 0
M  V30 7224 H 687.767 7.69781 0.682425 0
M  V30 7225 H 686.112 6.92223 0.620646 0
M  V30 7226 H 689.303 4.62744 0.706095 0
M  V30 7227 H 689.476 6.43909 0.726952 0
M  V30 7228 N 682.882 -0.391992 1.52647 0
M  V30 7229 C 684.298 -0.731848 1.41831 0
M  V30 7230 C 684.498 -1.9423 0.536361 0
M  V30 7231 O 683.554 -2.52499 0.00866571 0
M  V30 7232 C 684.867 -0.969743 2.84634 0
M  V30 7233 C 686.415 -1.0714 2.94092 0
M  V30 7234 C 686.89 -1.34195 4.37899 0
M  V30 7235 N 688.381 -1.41023 4.41211 0
M  V30 7236 C 689.116 -1.63616 5.49561 0
M  V30 7237 N 688.612 -1.83699 6.68002 0
M  V30 7238 N 690.405 -1.65771 5.371 0
M  V30 7239 H 682.556 0.404547 2.08512 0
M  V30 7240 H 684.819 0.11879 0.940528 0
M  V30 7241 H 684.525 -0.152465 3.51369 0
M  V30 7242 H 684.399 -1.88523 3.26709 0
M  V30 7243 H 686.786 -1.87925 2.27526 0
M  V30 7244 H 686.867 -0.133887 2.55449 0
M  V30 7245 H 686.511 -0.539207 5.0503 0
M  V30 7246 H 686.441 -2.29226 4.74092 0
M  V30 7247 H 688.932 -1.27223 3.55841 0
M  V30 7248 H 689.245 -2.00437 7.46354 0
M  V30 7249 H 687.59 -1.8093 6.71036 0
M  V30 7250 H 690.781 -1.4963 4.43541 0
M  V30 7251 H 690.954 -1.83038 6.21612 0
M  V30 7252 N 684.36 -1.4356 -0.65026 0
M  V30 7253 C 685.6 -1.46839 -1.42188 0
M  V30 7254 C 685.964 -0.0911433 -1.91784 0
M  V30 7255 O 687.165 0.00137545 -2.688 0
M  V30 7256 C 685.436 -2.48411 -2.56957 0
M  V30 7257 S 686.995 -2.70589 -3.45438 0
M  V30 7258 H 683.813 -0.519596 -0.485325 0
M  V30 7259 H 686.415 -1.80347 -0.75466 0
M  V30 7260 H 685.119 -3.47209 -2.18801 0
M  V30 7261 H 684.65 -2.16411 -3.28527 0
M  V30 7262 H 686.665 -2.00738 -4.53782 0
M  V30 7263 N 685.838 0.888903 -1.30139 0
M  V30 7264 C 687.085 1.64037 -1.18736 0
M  V30 7265 C 687.413 1.92771 0.258801 0
M  V30 7266 O 686.668 1.54427 1.20212 0
M  V30 7267 C 686.967 2.99041 -1.95728 0
M  V30 7268 C 686.633 2.89874 -3.45375 0
M  V30 7269 C 685.295 2.87082 -3.86183 0
M  V30 7270 C 687.647 2.78289 -4.40687 0
M  V30 7271 C 684.975 2.70536 -5.20603 0
M  V30 7272 C 687.327 2.63282 -5.75209 0
M  V30 7273 C 685.991 2.58861 -6.15262 0
M  V30 7274 H 685.261 0.600253 -0.434485 0
M  V30 7275 H 687.908 1.0338 -1.61198 0
M  V30 7276 H 686.213 3.63626 -1.45888 0
M  V30 7277 H 687.91 3.56139 -1.843 0
M  V30 7278 H 684.5 2.92856 -3.12943 0
M  V30 7279 H 688.684 2.79516 -4.10103 0
M  V30 7280 H 683.94 2.65526 -5.50732 0
M  V30 7281 H 688.114 2.5329 -6.48704 0
M  V30 7282 H 685.741 2.45799 -7.19366 0
M  V30 7283 N 687.317 1.12792 1.10072 0
M  V30 7284 C 688.227 0.812369 2.20086 0
M  V30 7285 C 689.243 -0.200349 1.72843 0
M  V30 7286 O 690.419 -0.0330262 2.01373 0
M  V30 7287 C 687.484 0.275685 3.45602 0
M  V30 7288 C 686.545 1.34881 4.07561 0
M  V30 7289 C 685.778 0.837639 5.27086 0
M  V30 7290 O 686.001 -0.327224 5.69461 0
M  V30 7291 O 684.935 1.60894 5.79997 0
M  V30 7292 H 688.761 1.73133 2.49517 0
M  V30 7293 H 686.346 0.904863 1.18881 0
M  V30 7294 H 688.228 -0.0185375 4.21396 0
M  V30 7295 H 686.903 -0.615783 3.17789 0
M  V30 7296 H 685.81 1.69625 3.33434 0
M  V30 7297 H 687.143 2.21418 4.39585 0
M  V30 7298 N 688.795 -1.27931 0.920396 0
M  V30 7299 C 690.042 -1.94689 0.557007 0
M  V30 7300 C 690.37 -1.724 -0.900476 0
M  V30 7301 O 689.625 -1.04194 -1.65657 0
M  V30 7302 C 689.924 -3.47853 0.820558 0
M  V30 7303 C 689.59 -3.90252 2.25863 0
M  V30 7304 C 688.252 -4.01539 2.65179 0
M  V30 7305 C 690.604 -4.11853 3.19415 0
M  V30 7306 C 687.932 -4.3181 3.97187 0
M  V30 7307 C 690.284 -4.43606 4.50995 0
M  V30 7308 C 688.948 -4.53105 4.90155 0
M  V30 7309 H 688.218 -0.712416 0.203823 0
M  V30 7310 H 690.865 -1.52142 1.16298 0
M  V30 7311 H 689.17 -3.91578 0.131844 0
M  V30 7312 H 690.867 -3.97634 0.51847 0
M  V30 7313 H 687.457 -3.81999 1.94358 0
M  V30 7314 H 691.641 -4.0258 2.90246 0
M  V30 7315 H 686.897 -4.37371 4.2722 0
M  V30 7316 H 691.071 -4.59268 5.23494 0
M  V30 7317 H 688.698 -4.76315 5.92476 0
M  V30 7318 N 690.273 -0.685099 -1.4193 0
M  V30 7319 C 691.203 -0.0273506 -2.33484 0
M  V30 7320 C 692.184 0.778366 -1.51246 0
M  V30 7321 O 693.369 0.733449 -1.79817 0
M  V30 7322 C 690.499 0.917272 -3.34968 0
M  V30 7323 C 689.453 0.21941 -4.27437 0
M  V30 7324 C 688.779 1.27768 -5.1921 0
M  V30 7325 C 690.079 -0.907894 -5.14349 0
M  V30 7326 H 691.773 -0.791994 -2.88735 0
M  V30 7327 H 689.319 -0.382308 -1.38832 0
M  V30 7328 H 691.272 1.38657 -3.97935 0
M  V30 7329 H 689.996 1.71346 -2.78043 0
M  V30 7330 H 688.655 -0.229757 -3.65879 0
M  V30 7331 H 688.303 2.06612 -4.58607 0
M  V30 7332 H 688.003 0.815803 -5.81909 0
M  V30 7333 H 689.527 1.7477 -5.85054 0
M  V30 7334 H 690.941 -0.519348 -5.70943 0
M  V30 7335 H 689.338 -1.2962 -5.85934 0
M  V30 7336 H 690.408 -1.75218 -4.52136 0
M  V30 7337 N 691.751 1.51645 -0.429126 0
M  V30 7338 C 693.028 1.94579 0.199614 0
M  V30 7339 C 693.408 1.3673 1.60836 0
M  V30 7340 O 692.756 0.551062 2.21756 0
M  V30 7341 C 692.966 3.48506 0.185685 0
M  V30 7342 C 694.314 4.22756 0.395282 0
M  V30 7343 O 695.338 3.55219 0.264165 0
M  V30 7344 O 694.197 5.42555 0.655475 0
M  V30 7345 H 691.291 0.816007 0.134393 0
M  V30 7346 H 693.837 1.62577 -0.486513 0
M  V30 7347 H 692.609 3.83045 -0.799508 0
M  V30 7348 H 692.232 3.86927 0.91507 0
M  V30 7349 N 693.229 0.160201 1.56784 0
M  V30 7350 C 694.159 -0.770264 2.2043 0
M  V30 7351 C 695.14 -1.24736 1.15651 0
M  V30 7352 O 696.325 -1.30253 1.44041 0
M  V30 7353 C 693.455 -2.00427 2.83631 0
M  V30 7354 C 692.409 -1.66345 3.94352 0
M  V30 7355 C 691.735 -2.97119 4.4455 0
M  V30 7356 C 693.035 -0.899972 5.14488 0
M  V30 7357 H 694.729 -0.239783 2.98438 0
M  V30 7358 H 692.275 -0.113891 1.43549 0
M  V30 7359 H 694.228 -2.66012 3.26827 0
M  V30 7360 H 692.952 -2.5587 2.02973 0
M  V30 7361 H 691.611 -1.03133 3.51794 0
M  V30 7362 H 691.259 -3.5058 3.60698 0
M  V30 7363 H 690.959 -2.75073 5.19238 0
M  V30 7364 H 692.483 -3.63753 4.90425 0
M  V30 7365 H 693.897 -1.45818 5.54446 0
M  V30 7366 H 692.294 -0.778968 5.95023 0
M  V30 7367 H 693.364 0.105827 4.84785 0
M  V30 7368 N 694.707 -1.5719 -0.113559 0
M  V30 7369 C 695.637 -2.03772 -1.14013 0
M  V30 7370 C 696.618 -0.923176 -1.42869 0
M  V30 7371 O 697.803 -1.19325 -1.53216 0
M  V30 7372 C 694.933 -2.44663 -2.4649 0
M  V30 7373 C 693.887 -3.59612 -2.32085 0
M  V30 7374 C 693.213 -3.8642 -3.69573 0
M  V30 7375 C 694.513 -4.91149 -1.7768 0
M  V30 7376 H 696.207 -2.89785 -0.752665 0
M  V30 7377 H 693.753 -1.39412 -0.360609 0
M  V30 7378 H 695.706 -2.75857 -3.18561 0
M  V30 7379 H 694.43 -1.55628 -2.87137 0
M  V30 7380 H 693.089 -3.28636 -1.62461 0
M  V30 7381 H 692.737 -2.94581 -4.07715 0
M  V30 7382 H 692.437 -4.63797 -3.60786 0
M  V30 7383 H 693.961 -4.2007 -4.4314 0
M  V30 7384 H 695.375 -5.20843 -2.39574 0
M  V30 7385 H 693.772 -5.72562 -1.79701 0
M  V30 7386 H 694.842 -4.79301 -0.734776 0
M  V30 7387 N 696.185 0.383891 -1.52853 0
M  V30 7388 C 697.115 1.47559 -1.80965 0
M  V30 7389 C 698.096 1.5669 -0.661986 0
M  V30 7390 O 699.281 1.71556 -0.910072 0
M  V30 7391 C 696.411 2.85114 -1.98312 0
M  V30 7392 C 695.365 2.9082 -3.14019 0
M  V30 7393 C 694.691 4.30873 -3.16627 0
M  V30 7394 C 695.991 2.60001 -4.52986 0
M  V30 7395 H 697.685 1.24283 -2.72386 0
M  V30 7396 H 695.231 0.596445 -1.31067 0
M  V30 7397 H 697.184 3.61496 -2.16561 0
M  V30 7398 H 695.908 3.09738 -1.03585 0
M  V30 7399 H 694.567 2.16886 -2.9556 0
M  V30 7400 H 694.215 4.52545 -2.19573 0
M  V30 7401 H 693.915 4.3561 -3.94357 0
M  V30 7402 H 695.439 5.09154 -3.37038 0
M  V30 7403 H 696.853 3.261 -4.71521 0
M  V30 7404 H 695.25 2.76081 -5.32822 0
M  V30 7405 H 696.32 1.5532 -4.59351 0
M  V30 7406 N 697.663 1.43903 0.642637 0
M  V30 7407 C 698.595 1.45857 1.768 0
M  V30 7408 C 699.608 0.353358 1.58919 0
M  V30 7409 O 700.797 0.618426 1.67445 0
M  V30 7410 C 697.897 1.26583 3.14372 0
M  V30 7411 C 697.07 2.50139 3.58817 0
M  V30 7412 C 696.129 2.25933 4.75227 0
M  V30 7413 O 695.155 2.99351 4.84125 0
M  V30 7414 N 696.357 1.28263 5.66153 0
M  V30 7415 H 699.122 2.42869 1.75598 0
M  V30 7416 H 696.683 1.39194 0.826832 0
M  V30 7417 H 698.675 1.08255 3.89953 0
M  V30 7418 H 697.245 0.37978 3.10284 0
M  V30 7419 H 696.465 2.83821 2.73568 0
M  V30 7420 H 697.753 3.32344 3.8526 0
M  V30 7421 H 697.151 0.676041 5.61646 0
M  V30 7422 H 695.708 1.15916 6.4141 0
M  V30 7423 N 699.141 -0.881989 1.30609 0
M  V30 7424 C 700.051 -2.02076 1.19174 0
M  V30 7425 C 701.067 -1.73645 0.11102 0
M  V30 7426 O 702.243 -1.98735 0.326528 0
M  V30 7427 C 699.308 -3.3515 0.887438 0
M  V30 7428 C 698.369 -3.76983 2.05383 0
M  V30 7429 C 697.602 -5.03707 1.76395 0
M  V30 7430 O 697.825 -5.66171 0.693302 0
M  V30 7431 O 696.759 -5.42019 2.61723 0
M  V30 7432 H 700.585 -2.14652 2.14845 0
M  V30 7433 H 698.17 -1.00843 1.10232 0
M  V30 7434 H 700.052 -4.14975 0.73306 0
M  V30 7435 H 698.727 -3.23676 -0.0393354 0
M  V30 7436 H 697.634 -2.97849 2.26355 0
M  V30 7437 H 698.967 -3.93066 2.96243 0
M  V30 7438 N 700.619 -1.13374 -1.09472 0
M  V30 7439 C 701.865 -0.906459 -1.82085 0
M  V30 7440 C 702.22 0.5614 -1.84027 0
M  V30 7441 O 701.513 1.41012 -1.29716 0
M  V30 7442 C 701.707 -1.42759 -3.2765 0
M  V30 7443 C 701.536 -2.94459 -3.39888 0
M  V30 7444 C 700.306 -3.62798 -3.51718 0
M  V30 7445 C 702.504 -3.92398 -3.32457 0
M  V30 7446 N 700.486 -5.02516 -3.52635 0
M  V30 7447 C 701.857 -5.18304 -3.40237 0
M  V30 7448 C 703.912 -3.84671 -3.16122 0
M  V30 7449 C 702.615 -6.37386 -3.33364 0
M  V30 7450 C 704.641 -5.03287 -3.10574 0
M  V30 7451 C 704.003 -6.28055 -3.18945 0
M  V30 7452 H 700.102 -0.385097 -0.680606 0
M  V30 7453 H 702.686 -1.44187 -1.30836 0
M  V30 7454 H 700.857 -0.919102 -3.77369 0
M  V30 7455 H 702.589 -1.14136 -3.88272 0
M  V30 7456 H 699.344 -3.13317 -3.55147 0
M  V30 7457 H 699.768 -5.75421 -3.56679 0
M  V30 7458 H 704.41 -2.89094 -3.0852 0
M  V30 7459 H 702.128 -7.33219 -3.3973 0
M  V30 7460 H 705.714 -4.99047 -2.9907 0
M  V30 7461 H 704.594 -7.18299 -3.14668 0
M  V30 7462 N 702.098 1.27442 -0.927168 0
M  V30 7463 C 703.03 2.25975 -0.383158 0
M  V30 7464 C 704.043 1.55382 0.485832 0
M  V30 7465 O 705.232 1.75986 0.298541 0
M  V30 7466 C 702.332 3.35629 0.469688 0
M  V30 7467 C 701.505 4.35747 -0.379886 0
M  V30 7468 C 700.564 5.24598 0.410227 0
M  V30 7469 O 699.59 5.68909 -0.181888 0
M  V30 7470 N 700.792 5.54737 1.71017 0
M  V30 7471 H 703.557 2.7329 -1.23015 0
M  V30 7472 H 701.118 1.41063 -0.794539 0
M  V30 7473 H 703.11 3.92015 1.00532 0
M  V30 7474 H 701.68 2.87919 1.21744 0
M  V30 7475 H 700.9 3.78634 -1.09682 0
M  V30 7476 H 702.188 4.99648 -0.960717 0
M  V30 7477 H 701.586 5.20594 2.21356 0
M  V30 7478 H 700.143 6.13824 2.19234 0
M  V30 7479 N 703.576 0.692616 1.41565 0
M  V30 7480 C 704.804 0.231279 2.05603 0
M  V30 7481 C 705.219 -1.11837 1.52111 0
M  V30 7482 O 704.576 -1.6983 0.66813 0
M  V30 7483 C 704.627 0.177125 3.61066 0
M  V30 7484 O 704.348 1.47346 4.12578 0
M  V30 7485 C 705.849 -0.30556 4.42246 0
M  V30 7486 H 703.069 0.108238 0.662213 0
M  V30 7487 H 705.613 0.944369 1.81389 0
M  V30 7488 H 703.768 -0.486769 3.8433 0
M  V30 7489 H 704.182 1.35861 5.06599 0
M  V30 7490 H 705.656 -0.29233 5.51225 0
M  V30 7491 H 706.133 -1.34393 4.18133 0
M  V30 7492 H 706.739 0.327229 4.24039 0
M  V30 7493 N 705.054 -1.51416 0.437162 0
M  V30 7494 C 706.004 -2.24599 -0.392311 0
M  V30 7495 C 706.988 -1.2682 -0.990221 0
M  V30 7496 O 708.18 -1.51912 -0.908391 0
M  V30 7497 C 705.309 -3.09134 -1.49301 0
M  V30 7498 C 704.395 -4.14342 -0.904503 0
M  V30 7499 N 704.786 -5.0578 -0.0451511 0
M  V30 7500 C 703.084 -4.30323 -1.1721 0
M  V30 7501 C 703.785 -5.81 0.285344 0
M  V30 7502 N 702.761 -5.42591 -0.330993 0
M  V30 7503 H 706.563 -2.92655 0.270221 0
M  V30 7504 H 704.077 -1.60476 0.249226 0
M  V30 7505 H 706.074 -3.6014 -2.10011 0
M  V30 7506 H 704.734 -2.42622 -2.15788 0
M  V30 7507 H 705.745 -5.16903 0.321271 0
M  V30 7508 H 702.422 -3.75037 -1.83448 0
M  V30 7509 H 703.812 -6.64646 0.984626 0
M  V30 7510 N 706.532 -0.168513 -1.56696 0
M  V30 7511 C 707.757 0.486688 -2.01609 0
M  V30 7512 C 708.182 1.56203 -1.04796 0
M  V30 7513 O 707.54 1.8128 -0.0270596 0
M  V30 7514 C 707.588 1.04451 -3.45141 0
M  V30 7515 O 706.692 2.15862 -3.51393 0
M  V30 7516 H 706.033 0.116831 -0.653641 0
M  V30 7517 H 708.563 -0.271579 -2.0279 0
M  V30 7518 H 708.573 1.36782 -3.84389 0
M  V30 7519 H 707.248 0.257155 -4.15104 0
M  V30 7520 H 705.825 1.84597 -3.24004 0
M  V30 7521 N 708.01 1.57248 0.105221 0
M  V30 7522 C 708.94 2.04374 1.12931 0
M  V30 7523 C 709.921 0.93074 1.42377 0
M  V30 7524 O 711.106 1.20136 1.52581 0
M  V30 7525 C 708.236 2.45967 2.45189 0
M  V30 7526 C 707.19 3.60838 2.30174 0
M  V30 7527 C 706.516 3.88374 3.67518 0
M  V30 7528 C 707.816 4.92084 1.75073 0
M  V30 7529 H 709.51 2.9018 0.737287 0
M  V30 7530 H 707.056 1.39601 0.353211 0
M  V30 7531 H 709.009 2.77542 3.17094 0
M  V30 7532 H 707.733 1.57148 2.86308 0
M  V30 7533 H 706.392 3.29493 1.60716 0
M  V30 7534 H 706.04 2.96739 4.06147 0
M  V30 7535 H 705.74 4.65703 3.58321 0
M  V30 7536 H 707.264 4.22415 4.40906 0
M  V30 7537 H 708.678 5.22106 2.36809 0
M  V30 7538 H 707.075 5.73507 1.76662 0
M  V30 7539 H 708.145 4.79684 0.709347 0
M  V30 7540 N 709.488 -0.375779 1.53054 0
M  V30 7541 C 710.398 -1.48381 1.81715 0
M  V30 7542 C 711.414 -1.59087 0.704795 0
M  V30 7543 O 712.59 -1.75174 0.993785 0
M  V30 7544 C 709.655 -2.83767 1.99192 0
M  V30 7545 C 708.716 -2.82673 3.23102 0
M  V30 7546 C 707.949 -4.11601 3.39736 0
M  V30 7547 O 708.172 -5.07243 2.60885 0
M  V30 7548 O 707.106 -4.18034 4.33049 0
M  V30 7549 H 710.932 -1.27089 2.7583 0
M  V30 7550 H 708.517 -0.564902 1.38308 0
M  V30 7551 H 710.399 -3.64004 2.12318 0
M  V30 7552 H 709.074 -3.05057 1.08267 0
M  V30 7553 H 707.981 -2.0117 3.15407 0
M  V30 7554 H 709.314 -2.66335 4.13916 0
M  V30 7555 N 710.966 -1.44241 -0.634997 0
M  V30 7556 C 712.382 -1.28043 -0.952742 0
M  V30 7557 C 712.582 -0.21338 -2.00367 0
M  V30 7558 O 711.638 0.402042 -2.49279 0
M  V30 7559 C 712.951 -2.65076 -1.41968 0
M  V30 7560 C 714.499 -2.72755 -1.53537 0
M  V30 7561 C 714.974 -4.10249 -2.03616 0
M  V30 7562 N 716.465 -4.12406 -2.10892 0
M  V30 7563 C 717.2 -5.15641 -2.50803 0
M  V30 7564 N 716.696 -6.29239 -2.89879 0
M  V30 7565 N 718.489 -5.02995 -2.50903 0
M  V30 7566 H 710.64 -2.12315 0.060098 0
M  V30 7567 H 712.903 -0.947326 -0.0357325 0
M  V30 7568 H 712.609 -3.44213 -0.721804 0
M  V30 7569 H 712.483 -2.91704 -2.39141 0
M  V30 7570 H 714.87 -1.93939 -2.22422 0
M  V30 7571 H 714.951 -2.49872 -0.547496 0
M  V30 7572 H 714.595 -4.8954 -1.35327 0
M  V30 7573 H 714.525 -4.30507 -3.03268 0
M  V30 7574 H 717.016 -3.30417 -1.83393 0
M  V30 7575 H 717.329 -7.03827 -3.19135 0
M  V30 7576 H 715.674 -6.32683 -2.8764 0
M  V30 7577 H 718.865 -4.13306 -2.19763 0
M  V30 7578 H 719.038 -5.83574 -2.81683 0
M  V30 7579 N 712.444 0.87505 -1.31075 0
M  V30 7580 C 713.394 1.96933 -1.14898 0
M  V30 7581 C 714.378 1.60783 -0.0613703 0
M  V30 7582 O 715.57 1.74678 -0.285751 0
M  V30 7583 C 712.699 3.3253 -0.853166 0
M  V30 7584 C 711.785 3.74963 -1.98151 0
M  V30 7585 N 712.176 3.89403 -3.22799 0
M  V30 7586 C 710.474 4.04436 -1.8801 0
M  V30 7587 C 711.175 4.25563 -3.96574 0
M  V30 7588 N 710.151 4.3597 -3.24701 0
M  V30 7589 H 713.953 2.06201 -2.09424 0
M  V30 7590 H 711.467 1.06551 -1.22558 0
M  V30 7591 H 713.464 4.10666 -0.718266 0
M  V30 7592 H 712.124 3.24592 0.0839218 0
M  V30 7593 H 713.135 3.74266 -3.57974 0
M  V30 7594 H 709.812 4.04915 -1.01733 0
M  V30 7595 H 711.202 4.44375 -5.03965 0
M  V30 7596 N 713.922 1.13953 1.08869 0
M  V30 7597 C 715.171 0.899431 1.80536 0
M  V30 7598 C 715.484 -0.575781 1.86933 0
M  V30 7599 O 716.69 -0.932988 2.54966 0
M  V30 7600 C 715.146 1.55963 3.24351 0
M  V30 7601 C 714.754 3.07077 3.26202 0
M  V30 7602 C 716.498 1.40046 4.00733 0
M  V30 7603 C 714.405 3.65955 4.64576 0
M  V30 7604 H 713.335 0.332849 0.676556 0
M  V30 7605 H 715.986 1.3679 1.22314 0
M  V30 7606 H 714.368 1.01883 3.82669 0
M  V30 7607 H 715.542 3.67785 2.77617 0
M  V30 7608 H 713.857 3.22576 2.63312 0
M  V30 7609 H 716.454 1.81441 5.02974 0
M  V30 7610 H 716.797 0.345993 4.1486 0
M  V30 7611 H 717.33 1.91137 3.48872 0
M  V30 7612 H 714.069 4.71234 4.55652 0
M  V30 7613 H 713.589 3.10027 5.13462 0
M  V30 7614 H 715.268 3.65968 5.33551 0
M  V30 7615 N 715.4 -1.26948 0.933913 0
M  V30 7616 C 716.625 -1.98724 0.593589 0
M  V30 7617 C 717.05 -1.6915 -0.822801 0
M  V30 7618 O 716.408 -0.93533 -1.5531 0
M  V30 7619 C 716.456 -3.50834 0.833542 0
M  V30 7620 O 715.56 -4.12284 -0.0978788 0
M  V30 7621 H 714.901 -0.623683 0.227849 0
M  V30 7622 H 717.431 -1.61599 1.25486 0
M  V30 7623 H 717.441 -4.01018 0.75156 0
M  V30 7624 H 716.116 -3.71691 1.86597 0
M  V30 7625 H 714.693 -3.72884 0.0345443 0
M  V30 7626 N 716.879 -0.700114 -1.41195 0
M  V30 7627 C 718.125 -0.233351 -2.01453 0
M  V30 7628 C 718.458 1.16548 -1.55339 0
M  V30 7629 O 717.733 1.78756 -0.766575 0
M  V30 7630 C 718.016 -0.2961 -3.58881 0
M  V30 7631 C 717.869 -1.7322 -4.15108 0
M  V30 7632 C 719.188 0.341525 -4.38773 0
M  V30 7633 H 716.307 -0.0862667 -0.731934 0
M  V30 7634 H 718.949 -0.889693 -1.67882 0
M  V30 7635 H 717.099 0.262736 -3.87611 0
M  V30 7636 H 718.771 -2.34523 -3.97236 0
M  V30 7637 H 717.014 -2.2649 -3.69979 0
M  V30 7638 H 717.685 -1.7276 -5.24269 0
M  V30 7639 H 720.161 -0.134461 -4.15883 0
M  V30 7640 H 719.037 0.267098 -5.4825 0
M  V30 7641 H 719.298 1.42289 -4.18577 0
M  V30 7642 N 718.357 1.51182 -0.445186 0
M  V30 7643 C 719.287 2.30821 0.352686 0
M  V30 7644 C 720.268 1.36576 1.01395 0
M  V30 7645 O 721.453 1.65497 1.01609 0
M  V30 7646 C 718.583 3.15593 1.44976 0
M  V30 7647 C 717.537 4.1818 0.911553 0
M  V30 7648 C 716.863 4.91523 2.10497 0
M  V30 7649 C 718.163 5.22266 -0.059418 0
M  V30 7650 H 719.857 2.97771 -0.311936 0
M  V30 7651 H 717.403 1.43201 -0.151461 0
M  V30 7652 H 719.356 3.70091 2.01521 0
M  V30 7653 H 718.08 2.4648 2.14278 0
M  V30 7654 H 716.739 3.64746 0.368264 0
M  V30 7655 H 716.387 4.18906 2.78437 0
M  V30 7656 H 716.087 5.60898 1.7512 0
M  V30 7657 H 717.611 5.48847 2.6758 0
M  V30 7658 H 719.025 5.71789 0.415985 0
M  V30 7659 H 717.422 5.99213 -0.326152 0
M  V30 7660 H 718.492 4.7461 -0.993631 0
M  V30 7661 N 719.835 0.176821 1.56605 0
M  V30 7662 C 720.798 -0.737429 2.17013 0
M  V30 7663 C 721.798 -1.15414 1.11965 0
M  V30 7664 O 722.988 -1.0702 1.37449 0
M  V30 7665 C 720.12 -2.00445 2.75744 0
M  V30 7666 H 721.313 -0.211455 2.99154 0
M  V30 7667 H 718.866 -0.0727582 1.56131 0
M  V30 7668 H 719.601 -2.57338 1.97352 0
M  V30 7669 H 719.386 -1.71456 3.52626 0
M  V30 7670 H 720.876 -2.65679 3.22187 0
M  V30 7671 N 721.313 -1.57302 -0.09688 0
M  V30 7672 C 722.223 -2.05258 -1.13606 0
M  V30 7673 C 723.239 -0.977137 -1.43972 0
M  V30 7674 O 724.415 -1.29018 -1.54649 0
M  V30 7675 C 721.48 -2.46593 -2.43706 0
M  V30 7676 C 720.541 -3.68322 -2.20538 0
M  V30 7677 C 719.774 -4.07676 -3.44435 0
M  V30 7678 O 719.997 -3.47141 -4.52603 0
M  V30 7679 O 718.931 -5.00641 -3.34129 0
M  V30 7680 H 722.757 -2.94069 -0.758752 0
M  V30 7681 H 720.342 -1.46164 -0.309263 0
M  V30 7682 H 722.224 -2.73814 -3.20318 0
M  V30 7683 H 720.899 -1.6092 -2.80867 0
M  V30 7684 H 719.806 -3.4622 -1.41713 0
M  V30 7685 H 721.139 -4.54769 -1.88271 0
M  V30 7686 N 722.791 0.367657 -1.53252 0
M  V30 7687 C 724.019 1.13119 -1.73239 0
M  V30 7688 C 724.434 1.831 -0.460404 0
M  V30 7689 O 723.791 1.73483 0.566557 0
M  V30 7690 C 723.842 2.16308 -2.89643 0
M  V30 7691 O 723.563 1.49175 -4.1192 0
M  V30 7692 C 725.064 3.05224 -3.21486 0
M  V30 7693 H 722.284 0.338318 -0.579467 0
M  V30 7694 H 724.828 0.42721 -1.99988 0
M  V30 7695 H 722.983 2.82307 -2.65295 0
M  V30 7696 H 723.397 2.17912 -4.7709 0
M  V30 7697 H 724.871 3.73613 -4.06346 0
M  V30 7698 H 725.348 3.69919 -2.36763 0
M  V30 7699 H 725.954 2.44843 -3.47753 0
M  V30 7700 N 724.269 1.44576 0.627338 0
M  V30 7701 C 725.518 1.46837 1.38281 0
M  V30 7702 C 725.831 0.10635 1.95311 0
M  V30 7703 O 727.037 0.00651084 2.71499 0
M  V30 7704 C 725.493 2.58527 2.50384 0
M  V30 7705 C 725.101 4.00953 1.99851 0
M  V30 7706 C 726.845 2.70013 3.27557 0
M  V30 7707 C 724.752 5.0406 3.09318 0
M  V30 7708 H 723.682 0.546319 0.519664 0
M  V30 7709 H 726.333 1.70654 0.674497 0
M  V30 7710 H 724.715 2.27957 3.23808 0
M  V30 7711 H 725.889 4.41108 1.33267 0
M  V30 7712 H 724.204 3.93743 1.35482 0
M  V30 7713 H 726.801 3.44217 4.09168 0
M  V30 7714 H 727.144 1.75961 3.77284 0
M  V30 7715 H 727.677 3.00011 2.61224 0
M  V30 7716 H 724.416 5.99753 2.6453 0
M  V30 7717 H 723.936 4.68493 3.74532 0
M  V30 7718 H 725.615 5.2793 3.74031 0
M  V30 7719 N 725.747 -0.868086 1.31537 0
M  V30 7720 C 726.694 -1.97548 1.19346 0
M  V30 7721 C 727.664 -1.65913 0.0787922 0
M  V30 7722 O 728.849 -1.89129 0.251985 0
M  V30 7723 C 725.989 -3.32922 0.908692 0
M  V30 7724 C 725.102 -3.77141 2.10687 0
M  V30 7725 C 724.237 -5.01241 1.75873 0
M  V30 7726 C 723.276 -5.37914 2.92088 0
M  V30 7727 N 722.413 -6.53192 2.57457 0
M  V30 7728 H 727.253 -2.07307 2.14074 0
M  V30 7729 H 724.79 -1.01483 1.06487 0
M  V30 7730 H 726.748 -4.10867 0.724138 0
M  V30 7731 H 725.378 -3.228 -0.0017611 0
M  V30 7732 H 724.43 -2.94961 2.40213 0
M  V30 7733 H 725.742 -4.00248 2.97663 0
M  V30 7734 H 724.896 -5.86858 1.53891 0
M  V30 7735 H 723.635 -4.80041 0.86091 0
M  V30 7736 H 722.64 -4.50814 3.14717 0
M  V30 7737 H 723.865 -5.61077 3.82582 0
M  V30 7738 H 721.811 -6.33536 1.702 0
M  V30 7739 H 721.728 -6.76252 3.37963 0
M  V30 7740 H 722.996 -7.41997 2.38873 0
M  V30 7741 N 727.225 -1.14528 -1.08264 0
M  V30 7742 C 728.172 -0.833556 -2.15222 0
M  V30 7743 C 729.142 0.209539 -1.64773 0
M  V30 7744 O 730.327 0.0791388 -1.90636 0
M  V30 7745 C 727.467 -0.318799 -3.43624 0
M  V30 7746 C 726.58 -1.42237 -4.07913 0
M  V30 7747 C 725.715 -0.864704 -5.24115 0
M  V30 7748 C 724.754 -1.94585 -5.80347 0
M  V30 7749 N 723.891 -1.40525 -6.87893 0
M  V30 7750 H 728.731 -1.74965 -2.41228 0
M  V30 7751 H 726.268 -0.873169 -1.18381 0
M  V30 7752 H 728.226 -0.00213088 -4.172 0
M  V30 7753 H 726.856 0.560397 -3.17898 0
M  V30 7754 H 725.908 -1.8554 -3.32083 0
M  V30 7755 H 727.22 -2.23901 -4.45724 0
M  V30 7756 H 726.374 -0.500025 -6.04636 0
M  V30 7757 H 725.113 -0.0171219 -4.87697 0
M  V30 7758 H 724.118 -2.31946 -4.98479 0
M  V30 7759 H 725.343 -2.79704 -6.18823 0
M  V30 7760 H 723.289 -0.579873 -6.53432 0
M  V30 7761 H 723.206 -2.15825 -7.24538 0
M  V30 7762 H 724.474 -1.06852 -7.72142 0
M  V30 7763 N 728.703 1.26451 -0.940633 0
M  V30 7764 C 729.951 1.93395 -0.586748 0
M  V30 7765 C 730.272 1.7417 0.876921 0
M  V30 7766 O 729.542 1.097 1.62304 0
M  V30 7767 H 728.122 0.715687 -0.214012 0
M  V30 7768 H 730.784 1.53902 -1.19584 0
M  V30 7769 H 729.88 3.01565 -0.804059 0
M  V30 7770 N 730.181 0.707592 1.40822 0
M  V30 7771 C 731.43 0.240705 2.00259 0
M  V30 7772 C 731.743 -1.17027 1.56729 0
M  V30 7773 O 732.949 -1.73526 2.08809 0
M  V30 7774 C 731.405 0.379432 3.57894 0
M  V30 7775 C 731.013 1.79654 4.104 0
M  V30 7776 C 732.757 -0.0270684 4.24491 0
M  V30 7777 C 730.664 1.88628 5.60512 0
M  V30 7778 H 729.594 0.0862369 0.749052 0
M  V30 7779 H 732.245 0.877528 1.61157 0
M  V30 7780 H 730.627 -0.325842 3.94657 0
M  V30 7781 H 731.801 2.53155 3.85032 0
M  V30 7782 H 730.116 2.15379 3.56372 0
M  V30 7783 H 732.713 0.0193743 5.34696 0
M  V30 7784 H 733.056 -1.06772 4.02375 0
M  V30 7785 H 733.589 0.628361 3.92806 0
M  V30 7786 H 730.328 2.90787 5.87472 0
M  V30 7787 H 729.848 1.19528 5.8777 0
M  V30 7788 H 731.527 1.6547 6.25483 0
M  V30 7789 N 731.66 -1.50943 0.453197 0
M  V30 7790 C 732.61 -2.25003 -0.368467 0
M  V30 7791 C 733.594 -1.27864 -0.976714 0
M  V30 7792 O 734.786 -1.52867 -0.892228 0
M  V30 7793 C 731.915 -3.10701 -1.46014 0
M  V30 7794 C 731.001 -4.15278 -0.860506 0
M  V30 7795 N 731.392 -5.05799 0.00849611 0
M  V30 7796 C 729.69 -4.31542 -1.1264 0
M  V30 7797 C 730.391 -5.80664 0.346951 0
M  V30 7798 N 729.367 -5.42912 -0.273426 0
M  V30 7799 H 733.169 -2.92352 0.301246 0
M  V30 7800 H 730.683 -1.60203 0.266233 0
M  V30 7801 H 732.68 -3.62348 -2.06179 0
M  V30 7802 H 731.34 -2.44898 -2.13202 0
M  V30 7803 H 732.351 -5.16533 0.376077 0
M  V30 7804 H 729.028 -3.76962 -1.7946 0
M  V30 7805 H 730.418 -6.63565 1.05507 0
M  V30 7806 N 733.138 -0.185124 -1.56509 0
M  V30 7807 C 734.415 0.503348 -1.89013 0
M  V30 7808 C 734.795 1.80349 -1.09715 0
M  V30 7809 O 734.143 2.27665 -0.195203 0
M  V30 7810 C 734.353 0.731839 -3.41241 0
M  V30 7811 C 735.701 1.05568 -4.11267 0
M  V30 7812 O 736.725 0.819906 -3.46635 0
M  V30 7813 O 735.584 1.50116 -5.25478 0
M  V30 7814 H 732.678 0.261139 -0.784688 0
M  V30 7815 H 735.224 -0.224592 -1.68207 0
M  V30 7816 H 733.996 -0.18672 -3.90854 0
M  V30 7817 H 733.619 1.5126 -3.67704 0
M  V30 7818 N 734.616 1.57351 0.0885366 0
M  V30 7819 C 735.579 2.01557 1.09121 0
M  V30 7820 C 736.579 0.910052 1.3257 0
M  V30 7821 O 737.769 1.17537 1.28572 0
M  V30 7822 C 734.901 2.38189 2.43883 0
M  V30 7823 H 736.094 2.91361 0.710562 0
M  V30 7824 H 733.647 1.52694 0.333779 0
M  V30 7825 H 734.382 1.5136 2.86811 0
M  V30 7826 H 734.167 3.18846 2.28209 0
M  V30 7827 H 735.657 2.73025 3.15986 0
M  V30 7828 N 736.094 -0.359525 1.53444 0
M  V30 7829 C 737.371 -1.11756 1.6053 0
M  V30 7830 C 737.751 -2.06949 0.416587 0
M  V30 7831 O 737.099 -2.20681 -0.592628 0
M  V30 7832 C 737.309 -1.85133 2.95849 0
M  V30 7833 C 738.657 -2.3945 3.50641 0
M  V30 7834 O 739.681 -1.95251 2.97918 0
M  V30 7835 O 738.54 -3.20266 4.42823 0
M  V30 7836 H 735.634 -0.513005 0.648656 0
M  V30 7837 H 738.18 -0.362301 1.65787 0
M  V30 7838 H 736.952 -1.15694 3.73806 0
M  V30 7839 H 736.575 -2.67554 2.9411 0
M  V30 7840 N 737.572 -1.44907 -0.619662 0
M  V30 7841 C 738.797 -1.52021 -1.41083 0
M  V30 7842 C 739.222 -0.14976 -1.87503 0
M  V30 7843 O 738.58 0.863303 -1.59426 0
M  V30 7844 C 738.628 -2.49911 -2.59955 0
M  V30 7845 O 737.732 -2.00857 -3.60181 0
M  V30 7846 H 737.073 -0.512912 -0.421684 0
M  V30 7847 H 739.603 -1.90149 -0.755282 0
M  V30 7848 H 739.613 -2.68323 -3.07354 0
M  V30 7849 H 738.288 -3.4945 -2.25516 0
M  V30 7850 H 736.865 -1.92265 -3.19513 0
M  V30 7851 N 739.05 0.861098 -1.31996 0
M  V30 7852 C 739.96 2.00154 -1.22374 0
M  V30 7853 C 740.976 1.73447 -0.138631 0
M  V30 7854 O 742.152 1.98191 -0.358104 0
M  V30 7855 C 739.217 3.33696 -0.940645 0
M  V30 7856 C 738.278 3.73668 -2.11355 0
M  V30 7857 C 737.511 5.00837 -1.84386 0
M  V30 7858 O 737.734 5.64996 -0.783287 0
M  V30 7859 O 736.668 5.37787 -2.70313 0
M  V30 7860 H 740.494 2.11207 -2.18233 0
M  V30 7861 H 738.079 0.990768 -1.11822 0
M  V30 7862 H 739.961 4.13756 -0.798987 0
M  V30 7863 H 738.636 3.23698 -0.0121636 0
M  V30 7864 H 737.543 2.94211 -2.31065 0
M  V30 7865 H 738.876 3.88303 -3.02459 0
M  V30 7866 N 740.528 1.15101 1.07655 0
M  V30 7867 C 741.491 0.847625 2.12951 0
M  V30 7868 C 742.491 -0.151227 1.60087 0
M  V30 7869 O 743.681 0.0780399 1.74025 0
M  V30 7870 C 740.813 0.265 3.39868 0
M  V30 7871 H 742.006 1.7809 2.41296 0
M  V30 7872 H 739.559 0.958072 1.23494 0
M  V30 7873 H 740.294 -0.676625 3.17163 0
M  V30 7874 H 740.079 0.984554 3.79538 0
M  V30 7875 H 741.569 0.0702121 4.17541 0
M  V30 7876 N 742.006 -1.2595 0.947325 0
M  V30 7877 C 743.422 -1.45737 0.650597 0
M  V30 7878 C 743.622 -1.85189 -0.794188 0
M  V30 7879 O 742.678 -1.97738 -1.57022 0
M  V30 7880 C 743.991 -2.53505 1.61728 0
M  V30 7881 C 745.539 -2.67351 1.62765 0
M  V30 7882 C 746.014 -3.78296 2.58179 0
M  V30 7883 N 747.505 -3.85696 2.56501 0
M  V30 7884 C 748.24 -4.71012 3.2701 0
M  V30 7885 N 747.736 -5.60669 4.06966 0
M  V30 7886 N 749.529 -4.64912 3.15932 0
M  V30 7887 H 741.68 -0.986327 1.8811 0
M  V30 7888 H 743.943 -0.494639 0.808725 0
M  V30 7889 H 743.649 -2.31357 2.6489 0
M  V30 7890 H 743.523 -3.51281 1.3741 0
M  V30 7891 H 745.91 -2.88869 0.603241 0
M  V30 7892 H 745.991 -1.69998 1.91139 0
M  V30 7893 H 745.635 -3.5753 3.60742 0
M  V30 7894 H 745.565 -4.75117 2.27093 0
M  V30 7895 H 748.056 -3.21601 1.98447 0
M  V30 7896 H 748.369 -6.22677 4.57704 0
M  V30 7897 H 746.714 -5.60402 4.11066 0
M  V30 7898 H 749.905 -3.93874 2.52945 0
M  V30 7899 H 750.078 -5.3118 3.71149 0
M  V30 7900 N 743.484 -0.715051 -1.40445 0
M  V30 7901 C 744.733 -0.251322 -2.00128 0
M  V30 7902 C 745.046 1.16194 -1.57347 0
M  V30 7903 O 746.252 1.72416 -2.09726 0
M  V30 7904 C 744.708 -0.398407 -3.57688 0
M  V30 7905 C 744.316 -1.81828 -4.09442 0
M  V30 7906 C 746.06 0.00455625 -4.245 0
M  V30 7907 C 743.967 -1.91598 -5.59503 0
M  V30 7908 H 742.897 -0.0902081 -0.748584 0
M  V30 7909 H 745.548 -0.886062 -1.6069 0
M  V30 7910 H 743.93 0.304908 -3.94824 0
M  V30 7911 H 745.104 -2.55193 -3.83684 0
M  V30 7912 H 743.419 -2.17266 -3.55225 0
M  V30 7913 H 746.016 -0.0477303 -5.34679 0
M  V30 7914 H 746.359 1.04636 -4.02935 0
M  V30 7915 H 746.892 -0.649184 -3.92467 0
M  V30 7916 H 743.631 -2.93898 -5.85922 0
M  V30 7917 H 743.151 -1.22644 -5.87127 0
M  V30 7918 H 744.83 -1.68785 -6.24596 0
M  V30 7919 N 744.962 1.50701 -0.461195 0
M  V30 7920 C 745.872 2.32069 0.343661 0
M  V30 7921 C 746.888 1.42016 1.00535 0
M  V30 7922 O 748.064 1.75077 0.995498 0
M  V30 7923 C 745.129 3.16424 1.41692 0
M  V30 7924 C 744.19 4.22286 0.772869 0
M  V30 7925 C 743.423 5.02609 1.79499 0
M  V30 7926 O 743.646 4.83874 3.0203 0
M  V30 7927 O 742.58 5.86047 1.3723 0
M  V30 7928 H 746.406 3.01996 -0.321268 0
M  V30 7929 H 743.991 1.47723 -0.223235 0
M  V30 7930 H 745.873 3.68795 2.03883 0
M  V30 7931 H 744.548 2.49236 2.0655 0
M  V30 7932 H 743.455 3.73931 0.112277 0
M  V30 7933 H 744.788 4.91915 0.167399 0
M  V30 7934 N 746.441 0.193421 1.56409 0
M  V30 7935 C 747.404 -0.714371 2.17783 0
M  V30 7936 C 748.404 -1.1422 1.13183 0
M  V30 7937 O 749.594 -1.05557 1.38576 0
M  V30 7938 C 746.726 -1.97509 2.77855 0
M  V30 7939 H 747.919 -0.179714 2.99361 0
M  V30 7940 H 745.472 -0.0561944 1.56199 0
M  V30 7941 H 746.207 -2.5523 2.0007 0
M  V30 7942 H 745.992 -1.67706 3.54425 0
M  V30 7943 H 747.482 -2.62246 3.24987 0
M  V30 7944 N 747.919 -1.57396 -0.0801906 0
M  V30 7945 C 749.335 -1.53564 -0.434778 0
M  V30 7946 C 749.535 -0.912372 -1.79661 0
M  V30 7947 O 748.591 -0.511268 -2.4727 0
M  V30 7948 C 749.904 -2.98244 -0.383561 0
M  V30 7949 C 751.452 -3.09536 -0.46435 0
M  V30 7950 C 751.927 -4.55851 -0.443128 0
M  V30 7951 N 753.418 -4.60456 -0.503448 0
M  V30 7952 C 754.153 -5.71135 -0.509106 0
M  V30 7953 N 753.649 -6.91203 -0.47008 0
M  V30 7954 N 755.442 -5.59353 -0.555035 0
M  V30 7955 H 747.593 -1.96281 0.811635 0
M  V30 7956 H 749.856 -0.898041 0.303689 0
M  V30 7957 H 749.562 -3.47369 0.550236 0
M  V30 7958 H 749.436 -3.57705 -1.19694 0
M  V30 7959 H 751.823 -2.6039 -1.38857 0
M  V30 7960 H 751.904 -2.53 0.377445 0
M  V30 7961 H 751.548 -5.05653 0.477207 0
M  V30 7962 H 751.478 -5.10242 -1.30234 0
M  V30 7963 H 753.969 -3.74048 -0.538199 0
M  V30 7964 H 754.282 -7.7132 -0.478091 0
M  V30 7965 H 752.627 -6.93625 -0.436897 0
M  V30 7966 H 755.818 -4.64453 -0.583158 0
M  V30 7967 H 755.991 -6.4561 -0.555976 0
M  V30 7968 N 749.397 0.351382 -1.53633 0
M  V30 7969 C 750.344 1.43115 -1.81071 0
M  V30 7970 C 751.314 1.52601 -0.655913 0
M  V30 7971 O 752.499 1.68264 -0.89955 0
M  V30 7972 C 749.639 2.79874 -2.01903 0
M  V30 7973 C 748.752 2.79242 -3.29618 0
M  V30 7974 C 747.887 4.07667 -3.40559 0
M  V30 7975 C 746.926 4.01233 -4.62254 0
M  V30 7976 N 746.063 5.21334 -4.70271 0
M  V30 7977 H 750.903 1.19017 -2.73201 0
M  V30 7978 H 748.44 0.576691 -1.35324 0
M  V30 7979 H 750.398 3.5934 -2.11969 0
M  V30 7980 H 749.028 3.0234 -1.13094 0
M  V30 7981 H 748.08 1.91927 -3.28433 0
M  V30 7982 H 749.392 2.70363 -4.19172 0
M  V30 7983 H 748.546 4.95555 -3.50015 0
M  V30 7984 H 747.285 4.19317 -2.49047 0
M  V30 7985 H 746.29 3.11732 -4.52884 0
M  V30 7986 H 747.515 3.91173 -5.55122 0
M  V30 7987 H 745.461 5.33543 -3.81665 0
M  V30 7988 H 745.378 5.14681 -5.5375 0
M  V30 7989 H 746.646 6.11014 -4.84027 0
M  V30 7990 N 750.875 1.45233 0.611969 0
M  V30 7991 C 752.115 1.50558 1.38245 0
M  V30 7992 C 752.479 0.141959 1.91474 0
M  V30 7993 O 753.68 0.0698926 2.68709 0
M  V30 7994 C 751.951 2.55136 2.50281 0
M  V30 7995 S 753.51 2.79652 3.38142 0
M  V30 7996 H 750.328 0.532281 0.471378 0
M  V30 7997 H 752.93 1.82285 0.706578 0
M  V30 7998 H 751.634 3.52888 2.09518 0
M  V30 7999 H 751.165 2.25045 3.22674 0
M  V30 8000 H 753.18 2.12699 4.48301 0
M  V30 8001 N 752.353 -0.854086 1.3245 0
M  V30 8002 C 753.583 -1.63836 1.25862 0
M  V30 8003 C 753.991 -1.88383 -0.175588 0
M  V30 8004 O 753.334 -1.45353 -1.1233 0
M  V30 8005 C 753.396 -3.02068 1.94923 0
M  V30 8006 C 753.06 -3.0056 3.44257 0
M  V30 8007 C 754.057 -2.77368 4.39731 0
M  V30 8008 C 751.742 -3.21177 3.862 0
M  V30 8009 C 753.736 -2.74797 5.75122 0
M  V30 8010 C 751.423 -3.18234 5.217 0
M  V30 8011 C 752.421 -2.95072 6.15972 0
M  V30 8012 O 752.109 -2.92003 7.48992 0
M  V30 8013 H 751.841 -0.517007 0.435523 0
M  V30 8014 H 754.395 -1.07314 1.75137 0
M  V30 8015 H 752.625 -3.60382 1.40219 0
M  V30 8016 H 754.314 -3.62791 1.82037 0
M  V30 8017 H 755.08 -2.61205 4.08653 0
M  V30 8018 H 750.959 -3.38231 3.13243 0
M  V30 8019 H 754.503 -2.56638 6.48678 0
M  V30 8020 H 750.4 -3.33941 5.52407 0
M  V30 8021 H 751.168 -3.07953 7.58358 0
M  V30 8022 N 753.831 -1.1567 -1.07043 0
M  V30 8023 C 755.077 -0.944878 -1.80121 0
M  V30 8024 C 755.432 0.522239 -1.85177 0
M  V30 8025 O 754.725 1.38228 -1.32678 0
M  V30 8026 C 754.919 -1.49677 -3.24548 0
M  V30 8027 C 754.748 -3.01602 -3.33566 0
M  V30 8028 C 753.518 -3.70177 -3.43943 0
M  V30 8029 C 755.716 -3.99362 -3.24059 0
M  V30 8030 N 753.698 -5.09882 -3.41896 0
M  V30 8031 C 755.069 -5.25404 -3.29167 0
M  V30 8032 C 757.124 -3.91289 -3.07891 0
M  V30 8033 C 755.827 -6.44314 -3.19769 0
M  V30 8034 C 757.853 -5.09761 -2.99829 0
M  V30 8035 C 757.215 -6.34679 -3.05552 0
M  V30 8036 H 753.314 -0.399447 -0.672284 0
M  V30 8037 H 755.898 -1.4693 -1.27749 0
M  V30 8038 H 754.069 -0.998941 -3.75334 0
M  V30 8039 H 755.801 -1.22346 -3.85764 0
M  V30 8040 H 752.556 -3.2078 -3.48421 0
M  V30 8041 H 752.98 -5.82857 -3.44393 0
M  V30 8042 H 757.622 -2.95573 -3.02318 0
M  V30 8043 H 755.34 -7.4026 -3.24101 0
M  V30 8044 H 758.926 -5.05279 -2.88418 0
M  V30 8045 H 757.806 -7.24812 -2.99361 0
M  V30 8046 N 755.309 1.25446 -0.953992 0
M  V30 8047 C 756.557 1.92762 -0.607227 0
M  V30 8048 C 756.878 1.7509 0.858399 0
M  V30 8049 O 756.148 1.11416 1.61132 0
M  V30 8050 H 754.728 0.713377 -0.221591 0
M  V30 8051 H 757.39 1.52625 -1.21209 0
M  V30 8052 H 756.486 3.00695 -0.835998 0
M  V30 8053 N 756.787 0.722489 1.40064 0
M  V30 8054 C 758.034 0.264979 2.00759 0
M  V30 8055 C 758.362 -1.14395 1.57302 0
M  V30 8056 O 757.617 -1.79165 0.787298 0
M  V30 8057 C 757.916 0.300682 3.56133 0
M  V30 8058 C 757.582 1.66087 4.19197 0
M  V30 8059 C 756.244 2.03319 4.36136 0
M  V30 8060 C 758.596 2.55452 4.54306 0
M  V30 8061 C 755.924 3.29448 4.8547 0
M  V30 8062 C 758.276 3.8094 5.05042 0
M  V30 8063 C 756.94 4.1828 5.2019 0
M  V30 8064 H 756.21 0.0969625 0.734629 0
M  V30 8065 H 758.857 0.926877 1.67575 0
M  V30 8066 H 757.162 -0.44479 3.89267 0
M  V30 8067 H 758.859 -0.0712542 4.00937 0
M  V30 8068 H 755.449 1.36137 4.06405 0
M  V30 8069 H 759.633 2.27961 4.40849 0
M  V30 8070 H 754.889 3.58338 4.95382 0
M  V30 8071 H 759.063 4.50351 5.31184 0
M  V30 8072 H 756.69 5.16081 5.58179 0
M  V30 8073 N 758.265 -1.50454 0.469181 0
M  V30 8074 C 759.215 -2.25381 -0.344582 0
M  V30 8075 C 760.199 -1.28892 -0.963098 0
M  V30 8076 O 761.391 -1.53805 -0.875964 0
M  V30 8077 C 758.52 -3.12232 -1.4271 0
M  V30 8078 C 757.606 -4.16168 -0.816411 0
M  V30 8079 N 757.997 -5.05762 0.0621424 0
M  V30 8080 C 756.295 -4.32712 -1.08056 0
M  V30 8081 C 756.996 -5.80264 0.408519 0
M  V30 8082 N 755.972 -5.43171 -0.215827 0
M  V30 8083 H 759.774 -2.92016 0.332237 0
M  V30 8084 H 757.288 -1.59911 0.283209 0
M  V30 8085 H 759.285 -3.64514 -2.02324 0
M  V30 8086 H 757.945 -2.47145 -2.10593 0
M  V30 8087 H 758.956 -5.16105 0.430841 0
M  V30 8088 H 755.633 -3.78844 -1.75452 0
M  V30 8089 H 757.023 -6.62408 1.12539 0
M  V30 8090 N 759.743 -0.201713 -1.56304 0
M  V30 8091 C 760.968 0.443815 -2.02596 0
M  V30 8092 C 761.393 1.53945 -1.08086 0
M  V30 8093 O 760.751 1.81182 -0.0655056 0
M  V30 8094 C 760.799 0.971066 -3.47279 0
M  V30 8095 O 759.903 2.0836 -3.55893 0
M  V30 8096 H 759.244 0.10294 -0.655972 0
M  V30 8097 H 761.774 -0.314533 -2.02168 0
M  V30 8098 H 761.784 1.28598 -3.87204 0
M  V30 8099 H 760.459 0.169048 -4.15556 0
M  V30 8100 H 759.036 1.77683 -3.27846 0
M  V30 8101 N 761.222 1.57436 0.0718424 0
M  V30 8102 C 762.172 2.00132 1.09229 0
M  V30 8103 C 763.156 0.883379 1.34481 0
M  V30 8104 O 764.348 1.14728 1.34783 0
M  V30 8105 C 761.477 2.44876 2.40605 0
M  V30 8106 C 760.563 3.63405 2.18627 0
M  V30 8107 N 760.954 4.77583 1.66579 0
M  V30 8108 C 759.252 3.69953 2.491 0
M  V30 8109 C 759.953 5.5943 1.59415 0
M  V30 8110 N 758.929 5.03275 2.05464 0
M  V30 8111 H 762.731 2.85849 0.683185 0
M  V30 8112 H 760.245 1.59987 0.278914 0
M  V30 8113 H 762.242 2.73703 3.14471 0
M  V30 8114 H 760.902 1.60546 2.82232 0
M  V30 8115 H 761.913 4.99875 1.35443 0
M  V30 8116 H 758.59 2.96336 2.94094 0
M  V30 8117 H 759.98 6.61093 1.20026 0
M  V30 8118 N 762.7 -0.34323 1.53817 0
M  V30 8119 C 763.947 -1.08344 1.71079 0
M  V30 8120 C 764.275 -1.88633 0.474133 0
M  V30 8121 O 763.53 -1.87984 -0.544116 0
M  V30 8122 C 763.829 -2.05195 2.92626 0
M  V30 8123 C 763.495 -1.41215 4.28216 0
M  V30 8124 C 762.157 -1.23495 4.65083 0
M  V30 8125 C 764.509 -0.951273 5.12445 0
M  V30 8126 C 761.837 -0.583065 5.83796 0
M  V30 8127 C 764.189 -0.313292 6.31824 0
M  V30 8128 C 762.853 -0.123779 6.67385 0
M  V30 8129 H 762.123 -0.396458 0.626021 0
M  V30 8130 H 764.77 -0.362689 1.88034 0
M  V30 8131 H 763.075 -2.83653 2.70275 0
M  V30 8132 H 764.772 -2.62462 3.03175 0
M  V30 8133 H 761.362 -1.56005 3.992 0
M  V30 8134 H 765.546 -1.07602 4.84495 0
M  V30 8135 H 760.802 -0.424854 6.09922 0
M  V30 8136 H 764.976 0.0519179 6.96381 0
M  V30 8137 H 762.603 0.383398 7.59233 0
M  V30 8138 N 764.178 -1.45556 -0.604258 0
M  V30 8139 C 765.403 -1.53509 -1.39462 0
M  V30 8140 C 765.828 -0.169638 -1.87333 0
M  V30 8141 O 765.186 0.846346 -1.60333 0
M  V30 8142 C 765.234 -2.52654 -2.5729 0
M  V30 8143 O 764.338 -2.04666 -3.5803 0
M  V30 8144 H 763.679 -0.517355 -0.416221 0
M  V30 8145 H 766.209 -1.90939 -0.735072 0
M  V30 8146 H 766.219 -2.71568 -3.04491 0
M  V30 8147 H 764.894 -3.51823 -2.21797 0
M  V30 8148 H 763.471 -1.95643 -3.17456 0
M  V30 8149 N 765.656 0.84705 -1.32902 0
M  V30 8150 C 767.072 1.13645 -1.12058 0
M  V30 8151 C 767.272 2.01281 0.093937 0
M  V30 8152 O 766.328 2.4026 0.776608 0
M  V30 8153 C 767.641 1.80644 -2.40392 0
M  V30 8154 C 769.189 1.93246 -2.46221 0
M  V30 8155 C 769.664 2.6366 -3.74496 0
M  V30 8156 N 771.155 2.71179 -3.75521 0
M  V30 8157 C 771.89 3.26332 -4.71482 0
M  V30 8158 N 771.386 3.82236 -5.77813 0
M  V30 8159 N 773.179 3.24507 -4.58968 0
M  V30 8160 H 765.33 0.263612 -2.10758 0
M  V30 8161 H 767.593 0.17944 -0.930863 0
M  V30 8162 H 767.299 1.23708 -3.29225 0
M  V30 8163 H 767.173 2.80736 -2.51926 0
M  V30 8164 H 769.56 2.49338 -1.57843 0
M  V30 8165 H 769.641 0.921272 -2.38634 0
M  V30 8166 H 769.285 2.08229 -4.63253 0
M  V30 8167 H 769.215 3.65234 -3.79357 0
M  V30 8168 H 771.706 2.31527 -2.9867 0
M  V30 8169 H 772.019 4.22499 -6.47082 0
M  V30 8170 H 770.364 3.80546 -5.81558 0
M  V30 8171 H 773.555 2.80085 -3.7506 0
M  V30 8172 H 773.728 3.67188 -5.33926 0
M  V30 8173 N 767.134 1.16236 1.06428 0
M  V30 8174 C 768.044 0.881976 2.1739 0
M  V30 8175 C 769.06 -0.145259 1.73393 0
M  V30 8176 O 770.236 0.0310558 2.01376 0
M  V30 8177 C 767.301 0.385496 3.4455 0
M  V30 8178 C 766.362 1.47779 4.03063 0
M  V30 8179 C 765.595 1.0049 5.24154 0
M  V30 8180 O 765.818 -0.145889 5.70213 0
M  V30 8181 O 764.752 1.79265 5.74585 0
M  V30 8182 H 768.578 1.80983 2.43883 0
M  V30 8183 H 766.163 0.942226 1.15942 0
M  V30 8184 H 768.045 0.115536 4.21242 0
M  V30 8185 H 766.72 -0.514369 3.19587 0
M  V30 8186 H 765.627 1.80147 3.27869 0
M  V30 8187 H 766.96 2.35291 4.32318 0
M  V30 8188 N 768.612 -1.24939 0.960631 0
M  V30 8189 C 769.575 -2.239 0.49006 0
M  V30 8190 C 770.575 -1.55497 -0.409535 0
M  V30 8191 O 771.765 -1.72978 -0.205984 0
M  V30 8192 C 768.897 -3.39654 -0.291193 0
M  V30 8193 H 770.09 -2.67044 1.36482 0
M  V30 8194 H 767.643 -1.37429 0.744505 0
M  V30 8195 H 768.378 -3.01939 -1.18336 0
M  V30 8196 H 768.163 -3.90496 0.354276 0
M  V30 8197 H 769.653 -4.13125 -0.609693 0
M  V30 8198 N 770.09 -0.729906 -1.39679 0
M  V30 8199 C 771 -0.0880322 -2.34435 0
M  V30 8200 C 772.016 0.727674 -1.58053 0
M  V30 8201 O 773.192 0.657321 -1.90371 0
M  V30 8202 C 770.257 0.812211 -3.37052 0
M  V30 8203 C 769.318 -0.0151681 -4.29297 0
M  V30 8204 C 768.551 0.842202 -5.27013 0
M  V30 8205 O 768.774 2.08108 -5.31081 0
M  V30 8206 O 767.708 0.27357 -6.01278 0
M  V30 8207 H 771.534 -0.869989 -2.90972 0
M  V30 8208 H 769.119 -0.490522 -1.41118 0
M  V30 8209 H 771.001 1.32745 -3.99946 0
M  V30 8210 H 769.676 1.57307 -2.82907 0
M  V30 8211 H 768.583 -0.575811 -3.69642 0
M  V30 8212 H 769.916 -0.738129 -4.86634 0
M  V30 8213 N 771.568 1.50203 -0.477153 0
M  V30 8214 C 772.518 2.25561 0.332625 0
M  V30 8215 C 773.502 1.29401 0.956249 0
M  V30 8216 O 774.694 1.54267 0.867795 0
M  V30 8217 C 771.823 3.12984 1.41052 0
M  V30 8218 C 770.909 4.16595 0.79433 0
M  V30 8219 N 771.3 5.05722 -0.0889633 0
M  V30 8220 C 769.598 4.33279 1.0576 0
M  V30 8221 C 770.299 5.80039 -0.439286 0
M  V30 8222 N 769.275 5.43278 0.187018 0
M  V30 8223 H 773.077 2.91836 -0.347718 0
M  V30 8224 H 770.591 1.59759 -0.291686 0
M  V30 8225 H 772.588 3.65582 2.00388 0
M  V30 8226 H 771.248 2.48258 2.09279 0
M  V30 8227 H 772.259 5.15869 -0.458205 0
M  V30 8228 H 768.936 3.79769 1.7344 0
M  V30 8229 H 770.326 6.61802 -1.1605 0
M  V30 8230 N 773.046 0.209999 1.56195 0
M  V30 8231 C 773.976 -0.699746 2.22769 0
M  V30 8232 C 774.957 -1.20993 1.1956 0
M  V30 8233 O 776.142 -1.25605 1.48112 0
M  V30 8234 C 773.272 -1.91302 2.89863 0
M  V30 8235 C 772.226 -1.53715 3.99444 0
M  V30 8236 C 771.552 -2.82826 4.53777 0
M  V30 8237 C 772.852 -0.735836 5.17091 0
M  V30 8238 H 774.546 -0.144716 2.9905 0
M  V30 8239 H 772.092 -0.0681645 1.43839 0
M  V30 8240 H 774.045 -2.5548 3.35124 0
M  V30 8241 H 772.769 -2.49283 2.11011 0
M  V30 8242 H 771.428 -0.918892 3.54897 0
M  V30 8243 H 771.076 -3.38927 3.71669 0
M  V30 8244 H 770.776 -2.58415 5.27727 0
M  V30 8245 H 772.3 -3.47966 5.01749 0
M  V30 8246 H 773.714 -1.28105 5.58804 0
M  V30 8247 H 772.111 -0.589272 5.972 0
M  V30 8248 H 773.181 0.260004 4.84202 0
M  V30 8249 N 774.524 -1.57472 -0.0634922 0
M  V30 8250 C 775.754 -1.91608 -0.772645 0
M  V30 8251 C 776.162 -0.805019 -1.71219 0
M  V30 8252 O 775.505 0.229941 -1.82255 0
M  V30 8253 C 775.567 -3.21281 -1.61304 0
M  V30 8254 C 775.231 -4.49177 -0.841973 0
M  V30 8255 C 776.228 -5.19661 -0.157494 0
M  V30 8256 C 773.913 -4.9578 -0.80669 0
M  V30 8257 C 775.907 -6.35006 0.551948 0
M  V30 8258 C 773.594 -6.11028 -0.0934812 0
M  V30 8259 C 774.592 -6.80493 0.58463 0
M  V30 8260 O 774.28 -7.93542 1.28633 0
M  V30 8261 H 774.012 -0.637685 -0.224352 0
M  V30 8262 H 776.566 -2.05369 -0.0355279 0
M  V30 8263 H 774.796 -3.03752 -2.39315 0
M  V30 8264 H 776.485 -3.41003 -2.20162 0
M  V30 8265 H 777.251 -4.84681 -0.176006 0
M  V30 8266 H 773.13 -4.41579 -1.32397 0
M  V30 8267 H 776.674 -6.89161 1.0818 0
M  V30 8268 H 772.571 -6.45459 -0.0729258 0
M  V30 8269 H 773.339 -8.09708 1.19646 0
M  V30 8270 N 776.003 0.335068 -1.53997 0
M  V30 8271 C 776.953 1.4127 -1.7896 0
M  V30 8272 C 777.937 1.474 -0.64513 0
M  V30 8273 O 779.129 1.52127 -0.904785 0
M  V30 8274 C 776.258 2.78292 -2.01018 0
M  V30 8275 C 775.344 2.7652 -3.21555 0
M  V30 8276 N 775.735 2.44374 -4.42849 0
M  V30 8277 C 774.033 3.0766 -3.22895 0
M  V30 8278 C 774.734 2.51049 -5.24737 0
M  V30 8279 N 773.71 2.8702 -4.6165 0
M  V30 8280 H 777.512 1.15327 -2.70327 0
M  V30 8281 H 775.026 0.543483 -1.53036 0
M  V30 8282 H 777.023 3.55949 -2.17039 0
M  V30 8283 H 775.683 3.05175 -1.10898 0
M  V30 8284 H 776.694 2.17422 -4.70051 0
M  V30 8285 H 773.371 3.3966 -2.42771 0
M  V30 8286 H 774.761 2.29283 -6.31569 0
M  V30 8287 N 777.481 1.45874 0.596531 0
M  V30 8288 C 778.709 1.54013 1.38158 0
M  V30 8289 C 779.124 0.17648 1.87973 0
M  V30 8290 O 778.481 -0.823895 1.62844 0
M  V30 8291 C 778.532 2.53363 2.57855 0
M  V30 8292 O 778.253 3.8443 2.10108 0
M  V30 8293 C 779.754 2.71308 3.50581 0
M  V30 8294 H 776.974 0.521251 0.422538 0
M  V30 8295 H 779.518 1.9116 0.726493 0
M  V30 8296 H 777.673 2.19257 3.19382 0
M  V30 8297 H 778.087 4.38384 2.87958 0
M  V30 8298 H 779.561 3.44776 4.31084 0
M  V30 8299 H 780.038 1.77728 4.01633 0
M  V30 8300 H 780.644 3.06455 2.94899 0
M  V30 8301 N 778.959 -0.83999 1.33349 0
M  V30 8302 C 779.889 -1.965 1.26135 0
M  V30 8303 C 780.87 -1.69505 0.142152 0
M  V30 8304 O 782.055 -1.91346 0.331743 0
M  V30 8305 C 779.185 -3.32632 0.99866 0
M  V30 8306 C 778.139 -3.74021 2.08068 0
M  V30 8307 C 777.465 -5.07947 1.67014 0
M  V30 8308 C 778.765 -3.87925 3.49731 0
M  V30 8309 H 780.459 -2.02793 2.20262 0
M  V30 8310 H 778.005 -0.974297 1.06035 0
M  V30 8311 H 779.958 -4.10903 0.934696 0
M  V30 8312 H 778.682 -3.26593 0.0217759 0
M  V30 8313 H 777.341 -2.98012 2.13505 0
M  V30 8314 H 776.989 -4.98378 0.680316 0
M  V30 8315 H 776.689 -5.36611 2.39422 0
M  V30 8316 H 778.213 -5.88695 1.62082 0
M  V30 8317 H 779.627 -4.5651 3.46802 0
M  V30 8318 H 778.024 -4.28023 4.20614 0
M  V30 8319 H 779.094 -2.90407 3.88319 0
M  V30 8320 N 780.437 -1.16799 -1.0581 0
M  V30 8321 C 781.347 -0.893492 -2.16919 0
M  V30 8322 C 782.363 0.136061 -1.73467 0
M  V30 8323 O 783.539 -0.0417348 -2.01357 0
M  V30 8324 C 780.604 -0.403763 -3.44341 0
M  V30 8325 C 779.665 -1.49914 -4.02274 0
M  V30 8326 C 778.898 -1.03269 -5.23614 0
M  V30 8327 O 779.121 0.115647 -5.70283 0
M  V30 8328 O 778.055 -1.8231 -5.73626 0
M  V30 8329 H 781.881 -1.82274 -2.42919 0
M  V30 8330 H 779.466 -0.948361 -1.1544 0
M  V30 8331 H 781.348 -0.137874 -4.21174 0
M  V30 8332 H 780.023 0.497413 -3.19855 0
M  V30 8333 H 778.93 -1.81883 -3.26909 0
M  V30 8334 H 780.263 -2.3758 -4.31064 0
M  V30 8335 N 781.915 1.24427 -0.967243 0
M  V30 8336 C 783.14 1.9708 -0.646069 0
M  V30 8337 C 783.565 1.71272 0.777665 0
M  V30 8338 O 782.923 0.976179 1.52776 0
M  V30 8339 C 782.971 3.48501 -0.926266 0
M  V30 8340 O 782.075 4.12398 -0.0114653 0
M  V30 8341 H 781.416 0.617423 -0.244304 0
M  V30 8342 H 783.946 1.58215 -1.29727 0
M  V30 8343 H 783.956 3.98885 -0.857619 0
M  V30 8344 H 782.631 3.66613 -1.96386 0
M  V30 8345 H 781.208 3.72661 -0.133396 0
M  V30 8346 N 783.393 0.737304 1.3929 0
M  V30 8347 C 784.618 0.295237 2.05288 0
M  V30 8348 C 785.043 -1.06235 1.55228 0
M  V30 8349 O 784.401 -1.67365 0.697043 0
M  V30 8350 C 784.449 0.309146 3.59272 0
M  V30 8351 O 783.553 -0.702437 4.06374 0
M  V30 8352 H 782.894 0.133762 0.650387 0
M  V30 8353 H 785.424 1.00387 1.78279 0
M  V30 8354 H 785.434 0.154336 4.07708 0
M  V30 8355 H 784.109 1.29974 3.95069 0
M  V30 8356 H 782.686 -0.513574 3.69346 0
M  V30 8357 N 784.871 -1.49948 0.485112 0
M  V30 8358 C 786.101 -2.06506 -0.0621921 0
M  V30 8359 C 786.509 -1.34756 -1.32806 0
M  V30 8360 O 785.852 -0.41466 -1.78959 0
M  V30 8361 C 785.914 -3.57243 -0.402182 0
M  V30 8362 C 785.578 -4.50574 0.763671 0
M  V30 8363 C 786.575 -4.93032 1.6497 0
M  V30 8364 C 784.26 -4.9308 0.957973 0
M  V30 8365 C 786.254 -5.76718 2.71432 0
M  V30 8366 C 783.941 -5.76546 2.0258 0
M  V30 8367 C 784.939 -6.18267 2.90232 0
M  V30 8368 O 784.627 -7.00066 3.95174 0
M  V30 8369 H 784.359 -0.675925 0.0100672 0
M  V30 8370 H 786.913 -1.93922 0.677023 0
M  V30 8371 H 785.143 -3.6778 -1.19478 0
M  V30 8372 H 786.832 -3.96107 -0.886219 0
M  V30 8373 H 787.598 -4.60851 1.51134 0
M  V30 8374 H 783.477 -4.60117 0.285144 0
M  V30 8375 H 787.021 -6.09203 3.39878 0
M  V30 8376 H 782.918 -6.0814 2.16417 0
M  V30 8377 H 783.686 -7.18343 3.92333 0
M  V30 8378 N 786.349 -0.21828 -1.56081 0
M  V30 8379 C 787.281 0.725447 -2.17416 0
M  V30 8380 C 788.294 1.15995 -1.14233 0
M  V30 8381 O 789.483 1.09166 -1.41227 0
M  V30 8382 C 786.583 1.99401 -2.7403 0
M  V30 8383 C 785.756 1.7156 -4.02351 0
M  V30 8384 C 784.815 2.8309 -4.43561 0
M  V30 8385 O 783.841 2.51701 -5.10525 0
M  V30 8386 N 785.043 4.11972 -4.08973 0
M  V30 8387 H 787.808 0.200801 -2.99027 0
M  V30 8388 H 785.369 -0.0371514 -1.61857 0
M  V30 8389 H 787.361 2.73198 -2.98571 0
M  V30 8390 H 785.931 2.42923 -1.96742 0
M  V30 8391 H 785.151 0.814233 -3.85699 0
M  V30 8392 H 786.439 1.50385 -4.86068 0
M  V30 8393 H 785.837 4.40319 -3.55156 0
M  V30 8394 H 784.394 4.82323 -4.38415 0
M  V30 8395 N 787.827 1.57504 0.0551401 0
M  V30 8396 C 788.774 2.04825 1.06373 0
M  V30 8397 C 789.744 0.932108 1.37481 0
M  V30 8398 O 790.929 1.20093 1.48265 0
M  V30 8399 C 788.069 2.51091 2.36743 0
M  V30 8400 C 787.182 3.76392 2.12021 0
M  V30 8401 C 786.317 4.11373 3.36074 0
M  V30 8402 C 785.356 5.29666 3.0679 0
M  V30 8403 N 784.493 5.60205 4.2322 0
M  V30 8404 H 789.333 2.90753 0.653216 0
M  V30 8405 H 786.87 1.43776 0.310951 0
M  V30 8406 H 788.828 2.75973 3.12881 0
M  V30 8407 H 787.458 1.68118 2.75565 0
M  V30 8408 H 786.51 3.58751 1.26498 0
M  V30 8409 H 787.822 4.62662 1.86401 0
M  V30 8410 H 786.976 4.37245 4.20597 0
M  V30 8411 H 785.715 3.23704 3.64784 0
M  V30 8412 H 784.72 5.03574 2.20664 0
M  V30 8413 H 785.945 6.18968 2.79385 0
M  V30 8414 H 783.891 4.75495 4.5193 0
M  V30 8415 H 783.808 6.40928 4.00933 0
M  V30 8416 H 785.076 5.90637 5.08692 0
M  V30 8417 N 789.305 -0.326896 1.54172 0
M  V30 8418 C 790.268 -1.38515 1.8261 0
M  V30 8419 C 791.268 -1.44872 0.697771 0
M  V30 8420 O 792.458 -1.44957 0.966078 0
M  V30 8421 C 789.59 -2.77281 1.98313 0
M  V30 8422 H 790.783 -1.14556 2.77159 0
M  V30 8423 H 788.336 -0.562199 1.45839 0
M  V30 8424 H 789.071 -3.065 1.05964 0
M  V30 8425 H 788.856 -2.74061 2.80416 0
M  V30 8426 H 790.346 -3.53845 2.21773 0
M  V30 8427 N 790.784 -1.46188 -0.588786 0
M  V30 8428 C 791.714 -1.59148 -1.70863 0
M  V30 8429 C 792.695 -0.442083 -1.64255 0
M  V30 8430 O 793.88 -0.667575 -1.82365 0
M  V30 8431 C 791.01 -1.5757 -3.09498 0
M  V30 8432 C 789.964 -2.71418 -3.30932 0
M  V30 8433 C 789.29 -2.549 -4.70032 0
M  V30 8434 C 790.59 -4.1329 -3.19356 0
M  V30 8435 H 792.284 -2.52889 -1.60274 0
M  V30 8436 H 789.83 -1.21707 -0.769638 0
M  V30 8437 H 791.783 -1.65231 -3.87655 0
M  V30 8438 H 790.507 -0.603705 -3.20972 0
M  V30 8439 H 789.166 -2.63216 -2.55172 0
M  V30 8440 H 788.814 -1.55797 -4.78264 0
M  V30 8441 H 788.514 -3.31257 -4.85327 0
M  V30 8442 H 790.038 -2.64443 -5.50366 0
M  V30 8443 H 791.452 -4.22636 -3.87365 0
M  V30 8444 H 789.849 -4.90187 -3.46175 0
M  V30 8445 H 790.919 -4.33874 -2.16522 0
M  V30 8446 N 792.262 0.832906 -1.33792 0
M  V30 8447 C 793.194 1.95042 -1.2038 0
M  V30 8448 C 794.207 1.62253 -0.133299 0
M  V30 8449 O 795.396 1.74315 -0.384261 0
M  V30 8450 C 792.496 3.287 -0.825215 0
M  V30 8451 C 791.669 3.89581 -1.98861 0
M  V30 8452 C 790.728 5.01602 -1.59003 0
M  V30 8453 O 789.754 5.20431 -2.30522 0
M  V30 8454 N 790.956 5.78356 -0.498446 0
M  V30 8455 H 793.721 2.07083 -2.16649 0
M  V30 8456 H 791.282 1.00896 -1.26616 0
M  V30 8457 H 793.274 4.01074 -0.540559 0
M  V30 8458 H 791.844 3.12565 0.0469796 0
M  V30 8459 H 791.064 3.09723 -2.43856 0
M  V30 8460 H 792.352 4.26989 -2.76691 0
M  V30 8461 H 791.75 5.65618 0.0963297 0
M  V30 8462 H 790.307 6.51226 -0.273485 0
M  V30 8463 N 793.74 1.17359 1.05189 0
M  V30 8464 C 794.965 0.98709 1.82404 0
M  V30 8465 C 795.39 -0.459848 1.82392 0
M  V30 8466 O 794.748 -1.32924 1.23292 0
M  V30 8467 C 794.796 1.53276 3.26403 0
M  V30 8468 O 793.9 0.746541 4.05587 0
M  V30 8469 H 793.241 0.35047 0.563974 0
M  V30 8470 H 795.771 1.55856 1.32552 0
M  V30 8471 H 795.781 1.55504 3.77203 0
M  V30 8472 H 794.456 2.58603 3.25726 0
M  V30 8473 H 793.033 0.795671 3.64312 0
M  V30 8474 N 795.218 -1.23913 0.973828 0
M  V30 8475 C 796.168 -2.22892 0.479933 0
M  V30 8476 C 797.152 -1.54726 -0.441434 0
M  V30 8477 O 798.344 -1.74908 -0.271358 0
M  V30 8478 C 795.473 -3.42577 -0.222702 0
M  V30 8479 C 794.559 -4.17981 0.717851 0
M  V30 8480 N 794.95 -4.7045 1.8577 0
M  V30 8481 C 793.248 -4.42841 0.529858 0
M  V30 8482 C 793.949 -5.27751 2.44651 0
M  V30 8483 N 792.925 -5.15302 1.73104 0
M  V30 8484 H 796.727 -2.61083 1.34956 0
M  V30 8485 H 794.241 -1.39368 0.83368 0
M  V30 8486 H 796.238 -4.1265 -0.593793 0
M  V30 8487 H 794.898 -3.05904 -1.0887 0
M  V30 8488 H 795.909 -4.66997 2.23908 0
M  V30 8489 H 792.586 -4.1648 -0.291664 0
M  V30 8490 H 793.976 -5.79011 3.40875 0
M  V30 8491 N 796.696 -0.74468 -1.38897 0
M  V30 8492 C 797.626 -0.126355 -2.33158 0
M  V30 8493 C 798.607 0.713517 -1.54412 0
M  V30 8494 O 799.792 0.656523 -1.82766 0
M  V30 8495 C 796.922 0.774375 -3.38557 0
M  V30 8496 C 795.876 0.0379214 -4.27983 0
M  V30 8497 C 795.202 1.05631 -5.24162 0
M  V30 8498 C 796.502 -1.12523 -5.10035 0
M  V30 8499 H 798.196 -0.913744 -2.85116 0
M  V30 8500 H 795.742 -0.440847 -1.37086 0
M  V30 8501 H 797.695 1.21655 -4.03458 0
M  V30 8502 H 796.419 1.59399 -2.85061 0
M  V30 8503 H 795.078 -0.384733 -3.64576 0
M  V30 8504 H 794.726 1.86975 -4.66958 0
M  V30 8505 H 794.426 0.568261 -5.84846 0
M  V30 8506 H 795.95 1.49799 -5.9194 0
M  V30 8507 H 797.364 -0.761037 -5.68226 0
M  V30 8508 H 795.761 -1.54355 -5.79909 0
M  V30 8509 H 796.831 -1.94237 -4.44297 0
M  V30 8510 N 798.174 1.49689 -0.493057 0
M  V30 8511 C 799.121 2.28976 0.28959 0
M  V30 8512 C 800.091 1.35011 0.967536 0
M  V30 8513 O 801.276 1.63964 0.975736 0
M  V30 8514 C 798.416 3.1748 1.35279 0
M  V30 8515 C 797.529 4.26496 0.687418 0
M  V30 8516 C 796.664 5.02226 1.73038 0
M  V30 8517 C 795.703 6.03089 1.04645 0
M  V30 8518 N 794.84 6.72014 2.03325 0
M  V30 8519 H 799.68 2.954 -0.392798 0
M  V30 8520 H 797.217 1.45657 -0.205554 0
M  V30 8521 H 799.175 3.67162 1.98111 0
M  V30 8522 H 797.805 2.53057 2.00405 0
M  V30 8523 H 796.857 3.80362 -0.0540001 0
M  V30 8524 H 798.169 4.98578 0.14864 0
M  V30 8525 H 797.323 5.55737 2.43395 0
M  V30 8526 H 796.062 4.29899 2.303 0
M  V30 8527 H 795.067 5.48817 0.328606 0
M  V30 8528 H 796.292 6.77398 0.480428 0
M  V30 8529 H 794.238 6.02464 2.59564 0
M  V30 8530 H 794.155 7.40046 1.54492 0
M  V30 8531 H 795.423 7.30133 2.72995 0
M  V30 8532 N 799.652 0.226554 1.55963 0
M  V30 8533 C 800.6 -0.697922 2.21882 0
M  V30 8534 C 801.594 -1.19586 1.19981 0
M  V30 8535 O 802.8 -1.15511 1.38048 0
M  V30 8536 H 799.175 -0.243501 0.711485 0
M  V30 8537 H 801.146 -0.118576 2.98164 0
M  V30 8538 C 799.895 -1.89309 2.91646 0
M  V30 8539 H 799.218 -1.51906 3.69817 0
M  V30 8540 H 800.658 -2.51762 3.41162 0
M  V30 8541 C 799.117 -2.75162 1.94391 0
M  V30 8542 O 799.647 -3.74071 1.46402 0
M  V30 8543 N 797.853 -2.41302 1.61932 0
M  V30 8544 H 797.4 -1.60923 2.01151 0
M  V30 8545 H 797.358 -2.99023 0.971219 0
M  V30 8546 N 801.13 -1.57531 -0.0467866 0
M  V30 8547 C 802.355 -1.93087 -0.757123 0
M  V30 8548 C 802.78 -0.825116 -1.69037 0
M  V30 8549 O 802.138 0.220449 -1.79955 0
M  V30 8550 C 802.186 -3.27669 -1.5055 0
M  V30 8551 O 801.29 -3.18667 -2.61773 0
M  V30 8552 H 800.631 -0.631597 -0.204892 0
M  V30 8553 H 803.161 -2.04599 -0.00755232 0
M  V30 8554 H 803.171 -3.6214 -1.87932 0
M  V30 8555 H 801.846 -4.07717 -0.820931 0
M  V30 8556 H 800.423 -2.95798 -2.27064 0
M  V30 8557 N 802.608 0.318715 -1.54344 0
M  V30 8558 C 803.885 1.07461 -1.63437 0
M  V30 8559 C 804.265 2.05771 -0.47131 0
M  V30 8560 O 803.613 2.22175 0.53391 0
M  V30 8561 C 803.823 1.77224 -3.00654 0
M  V30 8562 C 805.171 2.30069 -3.56866 0
M  V30 8563 O 806.195 1.87284 -3.0299 0
M  V30 8564 O 805.054 3.08412 -4.51159 0
M  V30 8565 H 802.148 0.495627 -0.66203 0
M  V30 8566 H 804.694 0.318218 -1.6669 0
M  V30 8567 H 803.466 1.05742 -3.76742 0
M  V30 8568 H 803.089 2.59662 -3.01101 0
M  V30 8569 N 804.086 1.46499 0.581025 0
M  V30 8570 C 805.311 1.55708 1.37002 0
M  V30 8571 C 805.736 0.19942 1.8704 0
M  V30 8572 O 805.094 -0.820731 1.61659 0
M  V30 8573 C 805.142 2.56716 2.53238 0
M  V30 8574 O 804.246 2.10336 3.54729 0
M  V30 8575 H 803.587 0.523912 0.407937 0
M  V30 8576 H 806.117 1.92085 0.704602 0
M  V30 8577 H 806.127 2.76378 3.00132 0
M  V30 8578 H 804.802 3.55307 2.16171 0
M  V30 8579 H 803.379 2.00669 3.14303 0
M  V30 8580 N 805.565 -0.825799 1.34232 0
M  V30 8581 C 806.814 -1.57686 1.2577 0
M  V30 8582 C 807.127 -1.94848 -0.171372 0
M  V30 8583 O 808.333 -2.68854 -0.378123 0
M  V30 8584 C 806.789 -2.84478 2.20454 0
M  V30 8585 C 806.397 -2.54629 3.68603 0
M  V30 8586 C 808.141 -3.625 2.20893 0
M  V30 8587 C 806.048 -3.77597 4.55164 0
M  V30 8588 H 804.978 -0.591809 0.467203 0
M  V30 8589 H 807.629 -0.909421 1.59379 0
M  V30 8590 H 806.011 -3.52832 1.79793 0
M  V30 8591 H 807.185 -1.94404 4.17784 0
M  V30 8592 H 805.5 -1.89888 3.70582 0
M  V30 8593 H 808.097 -4.538 2.82789 0
M  V30 8594 H 808.44 -3.98404 1.20746 0
M  V30 8595 H 808.973 -3.01086 2.59985 0
M  V30 8596 H 805.712 -3.46815 5.56237 0
M  V30 8597 H 805.232 -4.37116 4.10719 0
M  V30 8598 H 806.911 -4.45039 4.69627 0
M  V30 8599 N 807.043 -1.17915 -1.04565 0
M  V30 8600 C 808.289 -0.972863 -1.77942 0
M  V30 8601 C 808.622 0.496753 -1.87739 0
M  V30 8602 O 807.897 1.3688 -1.38181 0
M  V30 8603 C 808.18 -1.62227 -3.21488 0
M  V30 8604 C 808.033 -3.16441 -3.19664 0
M  V30 8605 C 809.352 -1.33137 -4.19479 0
M  V30 8606 H 806.471 -0.354843 -0.645953 0
M  V30 8607 H 809.113 -1.45508 -1.22178 0
M  V30 8608 H 807.263 -1.21224 -3.69103 0
M  V30 8609 H 808.935 -3.66544 -2.80077 0
M  V30 8610 H 807.178 -3.48863 -2.57832 0
M  V30 8611 H 807.849 -3.57012 -4.21006 0
M  V30 8612 H 810.325 -1.68654 -3.80388 0
M  V30 8613 H 809.201 -1.81151 -5.18146 0
M  V30 8614 H 809.462 -0.253319 -4.41374 0
M  V30 8615 N 808.521 1.23394 -0.980386 0
M  V30 8616 C 809.746 1.96384 -0.666935 0
M  V30 8617 C 810.171 1.72087 0.759456 0
M  V30 8618 O 809.529 0.992328 1.51732 0
M  V30 8619 C 809.577 3.47499 -0.963177 0
M  V30 8620 O 808.681 4.12363 -0.0552051 0
M  V30 8621 H 808.022 0.614797 -0.250839 0
M  V30 8622 H 810.552 1.56831 -1.31398 0
M  V30 8623 H 810.562 3.97953 -0.899877 0
M  V30 8624 H 809.237 3.6451 -2.00264 0
M  V30 8625 H 807.814 3.72499 -0.172914 0
M  V30 8626 N 809.999 0.752036 1.385 0
M  V30 8627 C 810.929 0.138718 2.33088 0
M  V30 8628 C 811.91 -0.705318 1.54788 0
M  V30 8629 O 813.095 -0.646821 1.83112 0
M  V30 8630 C 810.225 -0.75641 3.38963 0
M  V30 8631 C 809.179 -0.0152239 4.27997 0
M  V30 8632 C 808.505 -1.0285 5.24715 0
M  V30 8633 C 809.805 1.15226 5.09431 0
M  V30 8634 H 811.499 0.928852 2.84627 0
M  V30 8635 H 809.045 0.448111 1.3685 0
M  V30 8636 H 810.998 -1.19513 4.04097 0
M  V30 8637 H 809.722 -1.57885 2.85902 0
M  V30 8638 H 808.381 0.404061 3.64366 0
M  V30 8639 H 808.029 -1.84496 4.67943 0
M  V30 8640 H 807.729 -0.537238 5.85139 0
M  V30 8641 H 809.253 -1.46657 5.92726 0
M  V30 8642 H 810.667 0.791161 5.67815 0
M  V30 8643 H 809.064 1.57428 5.79082 0
M  V30 8644 H 810.134 1.9659 4.43261 0
M  V30 8645 N 811.477 -1.49425 0.500989 0
M  V30 8646 C 812.888 -1.86624 0.0532011 0
M  V30 8647 C 813.239 -1.41331 -1.36088 0
M  V30 8648 O 812.364 -0.791195 -2.01418 0
M  V30 8649 C 812.959 -3.38681 0.0897693 0
M  V30 8650 C 811.518 -3.75181 -0.302677 0
M  V30 8651 C 810.665 -2.73419 0.462307 0
M  V30 8652 H 813.616 -1.41743 0.713773 0
M  V30 8653 H 813.637 -3.73902 -0.705528 0
M  V30 8654 H 813.149 -3.71616 1.11907 0
M  V30 8655 H 811.25 -3.47855 -1.33521 0
M  V30 8656 H 811.363 -4.79097 0.0167653 0
M  V30 8657 H 809.727 -2.54548 -0.0878557 0
M  V30 8658 H 810.51 -3.09198 1.49169 0
M  V30 8659 N 812.955 -0.234822 -1.55841 0
M  V30 8660 C 813.887 0.702346 -2.18174 0
M  V30 8661 C 814.9 1.14776 -1.15457 0
M  V30 8662 O 816.089 1.07662 -1.42377 0
M  V30 8663 C 813.189 1.96483 -2.76129 0
M  V30 8664 C 812.362 1.67283 -4.04148 0
M  V30 8665 C 811.421 2.7837 -4.46539 0
M  V30 8666 O 810.447 2.46272 -5.13166 0
M  V30 8667 N 811.649 4.07611 -4.1332 0
M  V30 8668 H 814.414 0.169074 -2.99223 0
M  V30 8669 H 811.975 -0.0543164 -1.61809 0
M  V30 8670 H 813.967 2.70016 -3.01452 0
M  V30 8671 H 812.537 2.40822 -1.99307 0
M  V30 8672 H 811.757 0.773278 -3.86541 0
M  V30 8673 H 813.045 1.45222 -4.87635 0
M  V30 8674 H 812.443 4.36527 -3.59806 0
M  V30 8675 H 811 4.77646 -4.43506 0
M  V30 8676 N 814.433 1.57553 0.0384317 0
M  V30 8677 C 815.658 1.93485 0.746872 0
M  V30 8678 C 816.083 0.834069 1.68597 0
M  V30 8679 O 815.441 -0.210902 1.80069 0
M  V30 8680 C 815.489 3.28463 1.4881 0
M  V30 8681 O 814.593 3.20051 2.60079 0
M  V30 8682 H 813.934 0.632675 0.201539 0
M  V30 8683 H 816.464 2.046 -0.00329815 0
M  V30 8684 H 816.474 3.63132 1.86009 0
M  V30 8685 H 815.149 4.08147 0.799297 0
M  V30 8686 H 813.726 2.96998 2.25492 0
M  V30 8687 N 815.911 -0.310526 1.54511 0
M  V30 8688 C 817.188 -1.06593 1.64004 0
M  V30 8689 C 817.568 -2.05519 0.482216 0
M  V30 8690 O 816.916 -2.22455 -0.52212 0
M  V30 8691 C 817.126 -1.75627 3.01589 0
M  V30 8692 C 818.474 -2.28173 3.58081 0
M  V30 8693 O 819.498 -1.85674 3.03979 0
M  V30 8694 O 818.357 -3.06015 4.52788 0
M  V30 8695 H 815.451 -0.492109 0.664649 0
M  V30 8696 H 817.997 -0.309374 1.66856 0
M  V30 8697 H 816.769 -1.03743 3.77297 0
M  V30 8698 H 816.392 -2.58061 3.02473 0
M  V30 8699 N 817.389 -1.46805 -0.573248 0
M  V30 8700 C 818.805 -1.31969 -0.897577 0
M  V30 8701 C 819.005 -0.298171 -1.99282 0
M  V30 8702 O 818.061 0.295953 -2.5076 0
M  V30 8703 C 819.374 -2.70859 -1.30598 0
M  V30 8704 C 820.922 -2.79022 -1.4183 0
M  V30 8705 C 821.397 -4.18516 -1.86033 0
M  V30 8706 N 822.888 -4.2098 -1.9321 0
M  V30 8707 C 823.623 -5.25814 -2.28707 0
M  V30 8708 N 823.119 -6.40968 -2.6293 0
M  V30 8709 N 824.912 -5.13184 -2.29343 0
M  V30 8710 H 817.063 -2.11869 0.150094 0
M  V30 8711 H 819.326 -0.947989 0.00447895 0
M  V30 8712 H 819.032 -3.46965 -0.575161 0
M  V30 8713 H 818.906 -3.01585 -2.26554 0
M  V30 8714 H 821.293 -2.03198 -2.13996 0
M  V30 8715 H 821.374 -2.51969 -0.441024 0
M  V30 8716 H 821.018 -4.94839 -1.14442 0
M  V30 8717 H 820.948 -4.42982 -2.84735 0
M  V30 8718 H 823.439 -3.37898 -1.69214 0
M  V30 8719 H 823.752 -7.16729 -2.88996 0
M  V30 8720 H 822.097 -6.44314 -2.60547 0
M  V30 8721 H 825.288 -4.22255 -2.02036 0
M  V30 8722 H 825.461 -5.94996 -2.56679 0
M  V30 8723 N 818.867 0.818669 -1.34668 0
M  V30 8724 C 820.092 1.61193 -1.30505 0
M  V30 8725 C 820.517 1.87734 0.117341 0
M  V30 8726 O 819.875 1.45591 1.08042 0
M  V30 8727 C 819.923 2.92733 -2.1057 0
M  V30 8728 O 819.027 3.85 -1.47813 0
M  V30 8729 H 818.368 0.490085 -0.44801 0
M  V30 8730 H 820.898 1.01701 -1.77534 0
M  V30 8731 H 820.908 3.42262 -2.22082 0
M  V30 8732 H 819.583 2.7274 -3.13984 0
M  V30 8733 H 818.16 3.43525 -1.45069 0
M  V30 8734 N 820.346 1.18468 1.03938 0
M  V30 8735 C 821.571 1.00638 1.81347 0
M  V30 8736 C 821.996 -0.440477 1.8287 0
M  V30 8737 O 821.354 -1.31609 1.24695 0
M  V30 8738 C 821.402 1.5673 3.24759 0
M  V30 8739 O 820.506 0.789517 4.04772 0
M  V30 8740 H 819.847 0.356432 0.560225 0
M  V30 8741 H 822.377 1.57253 1.30891 0
M  V30 8742 H 822.387 1.59496 3.75533 0
M  V30 8743 H 821.062 2.62043 3.22965 0
M  V30 8744 H 819.639 0.834267 3.63448 0
M  V30 8745 N 821.824 -1.22873 0.986916 0
M  V30 8746 C 823.049 -1.96028 0.677341 0
M  V30 8747 C 823.474 -1.72487 -0.750319 0
M  V30 8748 O 822.832 -1.00036 -1.51203 0
M  V30 8749 C 822.88 -3.46983 0.981593 0
M  V30 8750 O 821.984 -4.12328 0.0770729 0
M  V30 8751 H 821.325 -0.613458 0.254096 0
M  V30 8752 H 823.855 -1.56132 1.32227 0
M  V30 8753 H 823.865 -3.9747 0.920969 0
M  V30 8754 H 822.54 -3.63442 2.02194 0
M  V30 8755 H 821.117 -3.72402 0.192666 0
M  V30 8756 N 823.302 -0.75937 -1.38099 0
M  V30 8757 C 824.527 -0.327859 -2.04792 0
M  V30 8758 C 824.952 1.03752 -1.56899 0
M  V30 8759 O 824.31 1.66235 -0.723581 0
M  V30 8760 C 824.358 -0.366264 -3.58735 0
M  V30 8761 O 823.462 0.637697 -4.0744 0
M  V30 8762 H 822.803 -0.144092 -0.648177 0
M  V30 8763 H 825.333 -1.03211 -1.7666 0
M  V30 8764 H 825.343 -0.219179 -4.07411 0
M  V30 8765 H 824.018 -1.36243 -3.92951 0
M  V30 8766 H 822.595 0.454749 -3.70117 0
M  V30 8767 N 824.78 1.49157 -0.508906 0
M  V30 8768 C 826.005 2.07376 0.0315182 0
M  V30 8769 C 826.43 1.36575 1.2934 0
M  V30 8770 O 825.788 0.424963 1.76249 0
M  V30 8771 C 825.836 3.59661 0.260118 0
M  V30 8772 O 824.94 3.90255 1.33322 0
M  V30 8773 H 824.281 0.663334 -0.029739 0
M  V30 8774 H 826.811 1.91857 -0.710791 0
M  V30 8775 H 826.821 4.05056 0.489225 0
M  V30 8776 H 825.496 4.10601 -0.661794 0
M  V30 8777 H 824.073 3.56661 1.08844 0
M  V30 8778 N 826.258 0.243083 1.55714 0
M  V30 8779 C 827.19 -0.690766 2.18543 0
M  V30 8780 C 828.203 -1.14163 1.16064 0
M  V30 8781 O 829.392 -1.06906 1.42946 0
M  V30 8782 C 826.492 -1.95016 2.77168 0
M  V30 8783 C 825.665 -1.65137 4.05029 0
M  V30 8784 C 824.724 -2.75998 4.48009 0
M  V30 8785 O 823.75 -2.43547 5.14464 0
M  V30 8786 N 824.952 -4.05414 4.15476 0
M  V30 8787 H 827.717 -0.153203 2.99308 0
M  V30 8788 H 825.278 0.0628968 1.61778 0
M  V30 8789 H 827.27 -2.68414 3.0288 0
M  V30 8790 H 825.84 -2.39762 2.00582 0
M  V30 8791 H 825.06 -0.752768 3.86946 0
M  V30 8792 H 826.348 -1.42633 4.88399 0
M  V30 8793 H 825.746 -4.34613 3.62116 0
M  V30 8794 H 824.303 -4.75288 4.46032 0
M  V30 8795 N 827.736 -1.57571 -0.0300757 0
M  V30 8796 C 828.646 -2.09892 -1.04798 0
M  V30 8797 C 829.662 -1.03732 -1.39698 0
M  V30 8798 O 830.838 -1.35461 -1.49038 0
M  V30 8799 C 827.903 -2.56707 -2.33028 0
M  V30 8800 C 826.964 -3.77345 -2.04718 0
M  V30 8801 C 826.197 -4.21918 -3.26834 0
M  V30 8802 O 826.42 -3.66025 -4.37472 0
M  V30 8803 O 825.354 -5.14362 -3.12594 0
M  V30 8804 H 829.18 -2.97023 -0.633344 0
M  V30 8805 H 826.765 -1.47344 -0.246991 0
M  V30 8806 H 828.647 -2.87154 -3.08417 0
M  V30 8807 H 827.322 -1.72688 -2.73789 0
M  V30 8808 H 826.229 -3.51919 -1.26901 0
M  V30 8809 H 827.562 -4.62345 -1.68813 0
M  V30 8810 N 829.214 0.302327 -1.54673 0
M  V30 8811 C 830.439 1.06103 -1.78205 0
M  V30 8812 C 830.864 1.80204 -0.53926 0
M  V30 8813 O 830.222 1.73975 0.510142 0
M  V30 8814 C 830.27 2.01829 -2.98827 0
M  V30 8815 O 829.374 3.10108 -2.71858 0
M  V30 8816 H 828.715 0.30487 -0.589873 0
M  V30 8817 H 831.245 0.340153 -2.01753 0
M  V30 8818 H 831.255 2.44319 -3.2676 0
M  V30 8819 H 829.93 1.473 -3.88942 0
M  V30 8820 H 828.507 2.72142 -2.54937 0
M  V30 8821 N 830.692 1.47107 0.565454 0
M  V30 8822 C 831.622 1.61846 1.68309 0
M  V30 8823 C 832.603 0.468159 1.63531 0
M  V30 8824 O 833.788 0.696504 1.8128 0
M  V30 8825 C 830.918 1.62474 3.06952 0
M  V30 8826 C 829.872 2.76649 3.26572 0
M  V30 8827 C 829.198 2.62345 4.65917 0
M  V30 8828 C 830.498 4.18319 3.12741 0
M  V30 8829 H 832.192 2.55407 1.5623 0
M  V30 8830 H 829.738 1.22916 0.750179 0
M  V30 8831 H 831.691 1.71378 3.84977 0
M  V30 8832 H 830.415 0.654692 3.19971 0
M  V30 8833 H 829.074 2.67242 2.50952 0
M  V30 8834 H 828.722 1.63386 4.75725 0
M  V30 8835 H 828.422 3.38936 4.79996 0
M  V30 8836 H 829.946 2.73165 5.46089 0
M  V30 8837 H 831.36 4.28745 3.80593 0
M  V30 8838 H 829.757 4.95632 3.38333 0
M  V30 8839 H 830.827 4.37263 2.09592 0
M  V30 8840 N 832.17 -0.811516 1.35101 0
M  V30 8841 C 833.118 -1.94449 1.27642 0
M  V30 8842 C 834.112 -1.68522 0.172287 0
M  V30 8843 O 835.318 -1.76799 0.337967 0
M  V30 8844 H 831.693 -0.638776 0.396824 0
M  V30 8845 H 833.664 -1.97861 2.23369 0
M  V30 8846 C 832.413 -3.31139 1.06029 0
M  V30 8847 H 831.736 -3.51644 1.90227 0
M  V30 8848 H 833.176 -4.10831 1.0485 0
M  V30 8849 C 831.635 -3.36072 -0.236039 0
M  V30 8850 O 832.165 -3.82292 -1.23353 0
M  V30 8851 N 830.371 -2.89314 -0.273107 0
M  V30 8852 H 829.918 -2.51893 0.539211 0
M  V30 8853 H 829.876 -2.92996 -1.1402 0
M  V30 8854 N 833.648 -1.19017 -1.03309 0
M  V30 8855 C 835.064 -0.941483 -1.28873 0
M  V30 8856 C 835.264 0.388587 -1.97718 0
M  V30 8857 O 834.32 1.12111 -2.26246 0
M  V30 8858 C 835.633 -2.11249 -2.13996 0
M  V30 8859 C 837.181 -2.15164 -2.27318 0
M  V30 8860 C 837.656 -3.31704 -3.15811 0
M  V30 8861 N 839.147 -3.31613 -3.23399 0
M  V30 8862 C 839.882 -4.18431 -3.9205 0
M  V30 8863 N 839.378 -5.15397 -4.62966 0
M  V30 8864 N 841.171 -4.06321 -3.88406 0
M  V30 8865 H 833.322 -2.04599 -0.570343 0
M  V30 8866 H 835.585 -0.894406 -0.314232 0
M  V30 8867 H 835.291 -3.07482 -1.70727 0
M  V30 8868 H 835.165 -2.07955 -3.14697 0
M  V30 8869 H 837.552 -1.19504 -2.6982 0
M  V30 8870 H 837.633 -2.22513 -1.26182 0
M  V30 8871 H 837.277 -4.2764 -2.74019 0
M  V30 8872 H 837.207 -3.21592 -4.16997 0
M  V30 8873 H 839.698 -2.6142 -2.72888 0
M  V30 8874 H 840.011 -5.78 -5.12968 0
M  V30 8875 H 838.356 -5.19349 -4.61846 0
M  V30 8876 H 841.547 -3.29849 -3.3214 0
M  V30 8877 H 841.72 -4.74196 -4.41635 0
M  V30 8878 N 835.127 1.22348 -0.993418 0
M  V30 8879 C 836.538 1.72893 -0.704616 0
M  V30 8880 C 836.889 1.80095 0.778483 0
M  V30 8881 O 836.014 1.4476 1.60853 0
M  V30 8882 C 836.609 3.14 -1.27237 0
M  V30 8883 C 835.168 3.61949 -1.03294 0
M  V30 8884 C 834.315 2.39816 -1.39225 0
M  V30 8885 H 837.266 1.07688 -1.16572 0
M  V30 8886 H 837.287 3.74886 -0.651212 0
M  V30 8887 H 836.799 3.08727 -2.3518 0
M  V30 8888 H 834.9 3.72588 0.0298329 0
M  V30 8889 H 835.013 4.48051 -1.69668 0
M  V30 8890 H 833.377 2.41448 -0.810849 0
M  V30 8891 H 834.16 2.37203 -2.48172 0
M  V30 8892 N 836.605 0.766683 1.37694 0
M  V30 8893 C 837.535 0.163432 2.32927 0
M  V30 8894 C 838.516 -0.688861 1.55527 0
M  V30 8895 O 839.701 -0.627363 1.83787 0
M  V30 8896 C 836.831 -0.720416 3.39746 0
M  V30 8897 C 835.785 0.0301718 4.27989 0
M  V30 8898 C 835.111 -0.972788 5.25776 0
M  V30 8899 C 836.411 1.20623 5.0818 0
M  V30 8900 H 838.105 0.958988 2.83626 0
M  V30 8901 H 835.651 0.462601 1.36367 0
M  V30 8902 H 837.604 -1.15221 4.05342 0
M  V30 8903 H 836.328 -1.54844 2.8756 0
M  V30 8904 H 834.987 0.442685 3.63917 0
M  V30 8905 H 834.635 -1.79522 4.69873 0
M  V30 8906 H 834.335 -0.475145 5.85676 0
M  V30 8907 H 835.859 -1.40362 5.94248 0
M  V30 8908 H 837.273 0.851341 5.66944 0
M  V30 8909 H 835.67 1.63561 5.7738 0
M  V30 8910 H 836.74 2.01281 4.41151 0
M  V30 8911 N 838.083 -1.48885 0.516809 0
M  V30 8912 C 839.308 -2.0739 -0.0205201 0
M  V30 8913 C 839.733 -1.37259 -1.28614 0
M  V30 8914 O 839.091 -0.434304 -1.76021 0
M  V30 8915 C 839.139 -3.59793 -0.24104 0
M  V30 8916 O 838.243 -3.90957 -1.31251 0
M  V30 8917 H 837.584 -0.663167 0.0332564 0
M  V30 8918 H 840.114 -1.91477 0.720956 0
M  V30 8919 H 840.124 -4.0531 -0.467737 0
M  V30 8920 H 838.799 -4.10244 0.68356 0
M  V30 8921 H 837.376 -3.57234 -1.06951 0
M  V30 8922 N 839.561 -0.251338 -1.55583 0
M  V30 8923 C 840.524 0.63305 -2.20284 0
M  V30 8924 C 841.524 1.09941 -1.17344 0
M  V30 8925 O 842.714 1.00341 -1.42399 0
M  V30 8926 C 839.846 1.8706 -2.84993 0
M  V30 8927 H 841.039 0.0684846 -2.99822 0
M  V30 8928 H 838.592 -0.00181653 -1.563 0
M  V30 8929 H 839.327 2.47629 -2.09405 0
M  V30 8930 H 839.112 1.54436 -3.60405 0
M  V30 8931 H 840.602 2.50004 -3.34496 0
M  V30 8932 N 841.039 1.57585 0.0217189 0
M  V30 8933 C 841.986 2.07036 1.02004 0
M  V30 8934 C 842.956 0.96106 1.35473 0
M  V30 8935 O 844.141 1.23211 1.45684 0
M  V30 8936 C 841.281 2.56056 2.31364 0
M  V30 8937 C 840.394 3.80805 2.03989 0
M  V30 8938 C 839.529 4.18409 3.27272 0
M  V30 8939 C 838.568 5.36055 2.95486 0
M  V30 8940 N 837.705 5.69056 4.11242 0
M  V30 8941 H 842.545 2.92073 0.591396 0
M  V30 8942 H 840.082 1.44403 0.280384 0
M  V30 8943 H 842.04 2.82548 3.06957 0
M  V30 8944 H 840.67 1.73925 2.71937 0
M  V30 8945 H 839.722 3.61354 1.1886 0
M  V30 8946 H 841.034 4.66512 1.76546 0
M  V30 8947 H 840.188 4.46068 4.11228 0
M  V30 8948 H 838.927 3.31369 3.57835 0
M  V30 8949 H 837.932 5.08142 2.09933 0
M  V30 8950 H 839.157 6.24755 2.66193 0
M  V30 8951 H 837.103 4.84974 4.41742 0
M  V30 8952 H 837.02 6.49288 3.87247 0
M  V30 8953 H 838.288 6.01295 4.96049 0
M  V30 8954 N 842.517 -0.29412 1.54831 0
M  V30 8955 C 843.933 -0.640167 1.46199 0
M  V30 8956 C 844.133 -1.90426 0.658798 0
M  V30 8957 O 843.189 -2.51932 0.169228 0
M  V30 8958 C 844.502 -0.786763 2.90225 0
M  V30 8959 C 846.05 -0.882201 3.0031 0
M  V30 8960 C 846.525 -1.06074 4.45547 0
M  V30 8961 N 848.016 -1.12678 4.49286 0
M  V30 8962 C 848.751 -1.28334 5.58854 0
M  V30 8963 N 848.247 -1.40845 6.78332 0
M  V30 8964 N 850.04 -1.31277 5.46555 0
M  V30 8965 H 842.191 0.536334 2.05517 0
M  V30 8966 H 844.454 0.178363 0.93107 0
M  V30 8967 H 844.16 0.0713018 3.51628 0
M  V30 8968 H 844.034 -1.67364 3.38037 0
M  V30 8969 H 846.421 -1.73075 2.39017 0
M  V30 8970 H 846.502 0.0288405 2.55784 0
M  V30 8971 H 846.146 -0.216935 5.07437 0
M  V30 8972 H 846.076 -1.98611 4.8771 0
M  V30 8973 H 848.567 -1.04335 3.63212 0
M  V30 8974 H 848.88 -1.52566 7.57591 0
M  V30 8975 H 847.225 -1.37888 6.81184 0
M  V30 8976 H 850.416 -1.2112 4.52159 0
M  V30 8977 H 850.589 -1.43136 6.31994 0
M  V30 8978 N 843.995 -1.47404 -0.557645 0
M  V30 8979 C 845.22 -1.57868 -1.34508 0
M  V30 8980 C 845.645 -0.229151 -1.86699 0
M  V30 8981 O 845.003 0.794908 -1.62944 0
M  V30 8982 C 845.051 -2.60712 -2.49122 0
M  V30 8983 O 844.155 -2.15952 -3.51338 0
M  V30 8984 H 843.496 -0.530335 -0.399551 0
M  V30 8985 H 846.026 -1.93181 -0.673954 0
M  V30 8986 H 846.036 -2.81118 -2.95697 0
M  V30 8987 H 844.711 -3.58701 -2.10491 0
M  V30 8988 H 843.288 -2.05644 -3.11071 0
M  V30 8989 N 845.473 0.80434 -1.35529 0
M  V30 8990 C 846.884 1.37849 -1.25915 0
M  V30 8991 C 847.235 1.95905 0.107495 0
M  V30 8992 O 846.36 1.91462 1.00852 0
M  V30 8993 C 846.955 2.50608 -2.27994 0
M  V30 8994 C 845.514 3.03879 -2.22114 0
M  V30 8995 C 844.661 1.76856 -2.13582 0
M  V30 8996 H 847.612 0.607192 -1.46625 0
M  V30 8997 H 847.633 3.29221 -1.90772 0
M  V30 8998 H 847.145 2.08323 -3.27449 0
M  V30 8999 H 845.246 3.50622 -1.26077 0
M  V30 9000 H 845.359 3.61707 -3.14173 0
M  V30 9001 H 843.723 1.98498 -1.59595 0
M  V30 9002 H 844.506 1.36721 -3.14901 0
M  V30 9003 N 846.951 1.19563 1.02676 0
M  V30 9004 C 848.179 1.02488 1.79732 0
M  V30 9005 C 848.594 -0.426302 1.83924 0
M  V30 9006 O 847.951 -1.29609 1.28483 0
M  V30 9007 C 848.002 1.58944 3.24683 0
M  V30 9008 O 847.723 2.98382 3.2078 0
M  V30 9009 C 849.224 1.46681 4.1833 0
M  V30 9010 H 846.444 0.361098 0.565552 0
M  V30 9011 H 848.988 1.58426 1.29311 0
M  V30 9012 H 847.143 1.0715 3.72287 0
M  V30 9013 H 847.557 3.24983 4.11687 0
M  V30 9014 H 849.031 1.90959 5.17918 0
M  V30 9015 H 849.508 0.417663 4.3721 0
M  V30 9016 H 850.114 1.97616 3.76601 0
M  V30 9017 N 848.429 -1.21819 0.999893 0
M  V30 9018 C 849.677 -1.90375 0.678351 0
M  V30 9019 C 849.998 -1.78155 -0.792824 0
M  V30 9020 O 849.268 -1.17319 -1.56885 0
M  V30 9021 H 847.848 -0.704661 0.247915 0
M  V30 9022 H 850.51 -1.48021 1.2679 0
M  V30 9023 H 849.606 -2.97385 0.947023 0
M  V30 9024 N 849.908 -0.773975 -1.37286 0
M  V30 9025 C 851.133 -0.349561 -2.04433 0
M  V30 9026 C 851.558 1.02082 -1.5799 0
M  V30 9027 O 850.916 1.65458 -0.741172 0
M  V30 9028 C 850.964 -0.404292 -3.58326 0
M  V30 9029 O 850.068 0.594447 -4.08093 0
M  V30 9030 H 849.409 -0.150959 -0.646612 0
M  V30 9031 H 851.939 -1.05079 -1.75555 0
M  V30 9032 H 851.949 -0.262378 -4.07155 0
M  V30 9033 H 850.624 -1.40403 -3.91484 0
M  V30 9034 H 849.201 0.415468 -3.70578 0
M  V30 9035 N 851.386 1.48609 -0.524698 0
M  V30 9036 C 852.614 2.06899 0.00742946 0
M  V30 9037 C 853.029 1.38196 1.28637 0
M  V30 9038 O 852.386 0.467771 1.76403 0
M  V30 9039 C 852.437 3.60699 0.240548 0
M  V30 9040 O 852.158 4.26821 -0.987715 0
M  V30 9041 C 853.659 4.35769 0.813652 0
M  V30 9042 H 850.879 0.670278 -0.0311294 0
M  V30 9043 H 853.423 1.91071 -0.728832 0
M  V30 9044 H 851.578 3.76149 0.926845 0
M  V30 9045 H 851.992 5.18889 -0.765175 0
M  V30 9046 H 853.466 5.44174 0.926219 0
M  V30 9047 H 853.943 3.9984 1.81728 0
M  V30 9048 H 854.549 4.24983 0.164086 0
M  V30 9049 N 852.864 0.259585 1.55447 0
M  V30 9050 C 854.092 -0.365392 2.03648 0
M  V30 9051 C 854.507 -1.50613 1.13847 0
M  V30 9052 O 853.864 -1.81837 0.155414 0
M  V30 9053 C 853.915 -0.861172 3.51093 0
M  V30 9054 O 853.636 0.234121 4.37474 0
M  V30 9055 C 855.137 -1.55555 4.15111 0
M  V30 9056 H 852.357 -0.0853439 0.66555 0
M  V30 9057 H 854.901 0.387151 2.00802 0
M  V30 9058 H 853.056 -1.56385 3.54433 0
M  V30 9059 H 853.47 -0.1444 5.24301 0
M  V30 9060 H 854.944 -1.85403 5.19932 0
M  V30 9061 H 855.421 -2.48185 3.62355 0
M  V30 9062 H 856.027 -0.89712 4.15731 0
M  V30 9063 N 854.342 -1.57594 -0.0133615 0
M  V30 9064 C 855.567 -1.94649 -0.715996 0
M  V30 9065 C 855.992 -0.860786 -1.67249 0
M  V30 9066 O 855.35 0.182228 -1.80382 0
M  V30 9067 C 855.398 -3.30789 -1.43566 0
M  V30 9068 O 854.502 -3.24148 -2.54955 0
M  V30 9069 H 853.843 -0.635801 -0.191449 0
M  V30 9070 H 856.373 -2.04569 0.0358478 0
M  V30 9071 H 856.383 -3.66045 -1.80208 0
M  V30 9072 H 855.058 -4.09367 -0.734263 0
M  V30 9073 H 853.635 -3.00548 -2.20739 0
M  V30 9074 N 855.82 0.285905 -1.54985 0
M  V30 9075 C 857.236 0.632405 -1.46536 0
M  V30 9076 C 857.436 1.90074 -0.668888 0
M  V30 9077 O 856.492 2.51839 -0.182586 0
M  V30 9078 C 857.805 0.771361 -2.90638 0
M  V30 9079 C 859.353 0.866262 -3.00774 0
M  V30 9080 C 859.828 1.0371 -4.46103 0
M  V30 9081 N 861.319 1.10294 -4.49877 0
M  V30 9082 C 862.054 1.25369 -5.59527 0
M  V30 9083 N 861.55 1.37246 -6.7907 0
M  V30 9084 N 863.343 1.28377 -5.47244 0
M  V30 9085 H 855.494 -0.547226 -2.0523 0
M  V30 9086 H 857.757 -0.183298 -0.930111 0
M  V30 9087 H 857.463 -0.0899485 -3.51585 0
M  V30 9088 H 857.337 1.65569 -3.3892 0
M  V30 9089 H 859.724 1.71805 -2.39931 0
M  V30 9090 H 859.805 -0.0424049 -2.55765 0
M  V30 9091 H 859.449 0.190021 -5.07544 0
M  V30 9092 H 859.379 1.96022 -4.88757 0
M  V30 9093 H 861.87 1.02407 -3.6376 0
M  V30 9094 H 862.183 1.48546 -7.58389 0
M  V30 9095 H 860.528 1.34274 -6.81906 0
M  V30 9096 H 863.719 1.1872 -4.52795 0
M  V30 9097 H 863.892 1.39782 -6.32744 0
M  V30 9098 N 857.298 1.47698 0.54982 0
M  V30 9099 C 858.261 1.60282 1.63837 0
M  V30 9100 C 859.261 0.477394 1.5355 0
M  V30 9101 O 860.451 0.742665 1.57576 0
M  V30 9102 C 857.583 1.55431 3.03404 0
M  V30 9103 H 858.776 2.57325 1.54026 0
M  V30 9104 H 856.329 1.35999 0.770329 0
M  V30 9105 H 857.064 0.597912 3.1874 0
M  V30 9106 H 856.849 2.37116 3.12279 0
M  V30 9107 H 858.339 1.6739 3.82584 0
M  V30 9108 N 858.776 -0.797141 1.35954 0
M  V30 9109 C 860.001 -1.59097 1.33053 0
M  V30 9110 C 860.426 -1.87897 -0.0874592 0
M  V30 9111 O 859.784 -1.47291 -1.05712 0
M  V30 9112 C 859.832 -2.89346 2.152 0
M  V30 9113 O 858.936 -3.826 1.5392 0
M  V30 9114 H 858.277 -0.482895 0.45575 0
M  V30 9115 H 860.807 -0.988633 1.79129 0
M  V30 9116 H 860.817 -3.38686 2.27499 0
M  V30 9117 H 859.492 -2.6771 3.18283 0
M  V30 9118 H 858.069 -3.41174 1.50516 0
M  V30 9119 N 860.254 -1.20106 -1.0204 0
M  V30 9120 C 861.482 -1.0344 -1.79186 0
M  V30 9121 C 861.897 0.416542 -1.84148 0
M  V30 9122 O 861.254 1.28925 -1.29168 0
M  V30 9123 C 861.305 -1.60663 -3.23836 0
M  V30 9124 O 861.026 -3.00079 -3.19193 0
M  V30 9125 C 862.527 -1.48897 -4.17546 0
M  V30 9126 H 859.747 -0.364093 -0.563629 0
M  V30 9127 H 862.291 -1.5911 -1.28469 0
M  V30 9128 H 860.446 -1.09122 -3.71714 0
M  V30 9129 H 860.86 -3.27162 -4.09958 0
M  V30 9130 H 862.334 -1.93703 -5.16898 0
M  V30 9131 H 862.811 -0.440843 -4.36982 0
M  V30 9132 H 863.417 -1.9961 -3.75547 0
M  V30 9133 N 861.732 1.21287 -1.00634 0
M  V30 9134 C 862.978 1.90671 -0.690822 0
M  V30 9135 C 863.311 1.77996 0.776592 0
M  V30 9136 O 862.586 1.15748 1.5631 0
M  V30 9137 C 862.869 3.42426 -1.11428 0
M  V30 9138 C 862.722 3.64086 -2.64124 0
M  V30 9139 C 864.041 4.34851 -0.677686 0
M  V30 9140 H 861.16 0.692419 -0.252439 0
M  V30 9141 H 863.802 1.42893 -1.25226 0
M  V30 9142 H 861.952 3.83249 -0.636586 0
M  V30 9143 H 863.624 3.32582 -3.19667 0
M  V30 9144 H 861.867 3.07906 -3.05576 0
M  V30 9145 H 862.538 4.7042 -2.88806 0
M  V30 9146 H 865.014 4.01619 -1.0882 0
M  V30 9147 H 863.89 5.39675 -1.00213 0
M  V30 9148 H 864.151 4.4009 0.421125 0
M  V30 9149 N 863.21 0.781244 1.36873 0
M  V30 9150 C 864.435 0.360398 2.04245 0
M  V30 9151 C 864.86 -1.01242 1.58529 0
M  V30 9152 O 864.218 -1.65063 0.749936 0
M  V30 9153 C 864.266 0.42329 3.58107 0
M  V30 9154 O 863.37 -0.572796 4.08403 0
M  V30 9155 H 862.711 0.154386 0.645803 0
M  V30 9156 H 865.241 1.06008 1.74996 0
M  V30 9157 H 865.251 0.283967 4.07011 0
M  V30 9158 H 863.926 1.42477 3.90734 0
M  V30 9159 H 862.503 -0.395809 3.70793 0
M  V30 9160 N 864.689 -1.48329 0.532571 0
M  V30 9161 C 865.917 -2.069 0.00354299 0
M  V30 9162 C 866.332 -1.38876 -1.27902 0
M  V30 9163 O 865.689 -0.477119 -1.76153 0
M  V30 9164 C 865.74 -3.60821 -0.221416 0
M  V30 9165 O 865.461 -4.26291 1.01034 0
M  V30 9166 C 866.962 -4.36194 -0.790531 0
M  V30 9167 H 864.182 -0.670103 0.0346836 0
M  V30 9168 H 866.726 -1.90682 0.738955 0
M  V30 9169 H 864.881 -3.76636 -0.906884 0
M  V30 9170 H 865.295 -5.18475 0.792683 0
M  V30 9171 H 866.769 -5.44657 -0.897347 0
M  V30 9172 H 867.246 -4.00798 -1.79605 0
M  V30 9173 H 867.852 -4.25064 -0.141546 0
M  V30 9174 N 866.167 -0.267825 -1.55308 0
M  V30 9175 C 867.114 0.6228 -2.22238 0
M  V30 9176 C 868.084 1.15536 -1.19334 0
M  V30 9177 O 869.269 1.206 -1.47852 0
M  V30 9178 C 866.409 1.80447 -2.94164 0
M  V30 9179 C 865.522 1.30646 -4.11771 0
M  V30 9180 C 864.657 2.44935 -4.7136 0
M  V30 9181 C 863.696 1.92099 -5.81175 0
M  V30 9182 N 862.833 2.99834 -6.34857 0
M  V30 9183 H 867.673 0.0453874 -2.97965 0
M  V30 9184 H 865.21 0.0106371 -1.47096 0
M  V30 9185 H 867.168 2.49896 -3.34078 0
M  V30 9186 H 865.798 2.35403 -2.20874 0
M  V30 9187 H 864.85 0.505314 -3.77029 0
M  V30 9188 H 866.162 0.879409 -4.90987 0
M  V30 9189 H 865.316 3.2239 -5.13955 0
M  V30 9190 H 864.055 2.90951 -3.91406 0
M  V30 9191 H 863.06 1.13122 -5.38037 0
M  V30 9192 H 864.285 1.47027 -6.62993 0
M  V30 9193 H 862.231 3.45246 -5.578 0
M  V30 9194 H 862.148 2.61524 -7.09324 0
M  V30 9195 H 863.416 3.77286 -6.82111 0
M  V30 9196 N 867.645 1.57599 0.00500368 0
M  V30 9197 C 868.87 1.95026 0.705663 0
M  V30 9198 C 869.295 0.869643 1.6679 0
M  V30 9199 O 868.653 -0.172659 1.80476 0
M  V30 9200 C 868.701 3.31545 1.4181 0
M  V30 9201 O 867.805 3.25495 2.53232 0
M  V30 9202 H 867.146 0.636808 0.188074 0
M  V30 9203 H 869.676 2.04547 -0.046696 0
M  V30 9204 H 869.686 3.66996 1.78265 0
M  V30 9205 H 868.361 4.09751 0.712543 0
M  V30 9206 H 866.938 3.01714 2.19142 0
M  V30 9207 N 869.123 -0.277682 1.55134 0
M  V30 9208 C 870.369 -1.0114 1.7578 0
M  V30 9209 C 870.702 -1.86109 0.554719 0
M  V30 9210 O 869.977 -1.89275 -0.447813 0
M  V30 9211 C 870.26 -1.89789 3.06027 0
M  V30 9212 C 870.113 -1.07844 4.3668 0
M  V30 9213 C 871.432 -2.88577 3.32282 0
M  V30 9214 H 868.551 -0.366277 0.639539 0
M  V30 9215 H 871.193 -0.284155 1.87863 0
M  V30 9216 H 869.343 -2.51796 2.95856 0
M  V30 9217 H 871.015 -0.479432 4.58802 0
M  V30 9218 H 869.258 -0.381764 4.32117 0
M  V30 9219 H 869.929 -1.73179 5.24131 0
M  V30 9220 H 872.405 -2.36702 3.42215 0
M  V30 9221 H 871.281 -3.47749 4.2469 0
M  V30 9222 H 871.542 -3.63458 2.51696 0
M  V30 9223 N 870.601 -1.47988 -0.541979 0
M  V30 9224 C 871.826 -1.59286 -1.32826 0
M  V30 9225 C 872.251 -0.24894 -1.86445 0
M  V30 9226 O 871.609 0.777581 -1.63778 0
M  V30 9227 C 871.657 -2.6334 -2.46343 0
M  V30 9228 O 870.761 -2.19667 -3.49028 0
M  V30 9229 H 870.102 -0.534543 -0.393903 0
M  V30 9230 H 872.632 -1.93885 -0.653427 0
M  V30 9231 H 872.642 -2.84238 -2.92699 0
M  V30 9232 H 871.317 -3.60913 -2.06675 0
M  V30 9233 H 869.894 -2.08932 -3.08872 0
M  V30 9234 N 872.079 0.78992 -1.36375 0
M  V30 9235 C 873.307 1.57873 -1.3373 0
M  V30 9236 C 873.722 1.88624 0.0815544 0
M  V30 9237 O 873.079 1.50085 1.03831 0
M  V30 9238 C 873.13 2.90003 -2.15825 0
M  V30 9239 O 872.851 2.60578 -3.5218 0
M  V30 9240 C 874.352 3.84309 -2.20955 0
M  V30 9241 H 871.572 0.489685 -0.458748 0
M  V30 9242 H 874.116 0.980436 -1.79465 0
M  V30 9243 H 872.271 3.46303 -1.73646 0
M  V30 9244 H 872.685 3.4506 -3.95011 0
M  V30 9245 H 874.159 4.74081 -2.82756 0
M  V30 9246 H 874.636 4.22121 -1.21287 0
M  V30 9247 H 875.242 3.33942 -2.63368 0
M  V30 9248 N 873.557 1.20646 1.01402 0
M  V30 9249 C 874.785 1.04389 1.78635 0
M  V30 9250 C 875.2 -0.406771 1.84366 0
M  V30 9251 O 874.557 -1.28239 1.2985 0
M  V30 9252 C 874.608 1.62378 3.22979 0
M  V30 9253 O 874.329 3.01768 3.17597 0
M  V30 9254 C 875.83 1.5111 4.1675 0
M  V30 9255 H 873.05 0.367077 0.56169 0
M  V30 9256 H 875.594 1.59789 1.27624 0
M  V30 9257 H 873.749 1.11092 3.7113 0
M  V30 9258 H 874.163 3.29331 4.08217 0
M  V30 9259 H 875.637 1.96441 5.15863 0
M  V30 9260 H 876.114 0.464011 4.36742 0
M  V30 9261 H 876.72 2.01599 3.74483 0
M  V30 9262 N 875.035 -1.20752 1.01276 0
M  V30 9263 C 876.283 -1.89645 0.698505 0
M  V30 9264 C 876.604 -1.78986 -0.773883 0
M  V30 9265 O 875.874 -1.18977 -1.55632 0
M  V30 9266 H 874.454 -0.701992 0.255375 0
M  V30 9267 H 877.116 -1.46668 1.28353 0
M  V30 9268 H 876.212 -2.96364 0.978512 0
M  V30 9269 N 876.513 -0.788492 -1.36457 0
M  V30 9270 C 877.738 -0.371224 -2.04051 0
M  V30 9271 C 878.163 1.004 -1.59064 0
M  V30 9272 O 877.521 1.64663 -0.758679 0
M  V30 9273 C 877.569 -0.442275 -3.57877 0
M  V30 9274 O 876.673 0.55113 -4.08701 0
M  V30 9275 H 876.014 -0.157808 -0.644975 0
M  V30 9276 H 878.544 -1.06935 -1.74431 0
M  V30 9277 H 878.554 -0.305548 -4.06854 0
M  V30 9278 H 877.229 -1.44547 -3.89973 0
M  V30 9279 H 875.806 0.37614 -3.70998 0
M  V30 9280 N 877.991 1.48044 -0.54043 0
M  V30 9281 C 878.921 2.32597 0.205178 0
M  V30 9282 C 879.902 1.42748 0.925041 0
M  V30 9283 O 881.087 1.71624 0.908784 0
M  V30 9284 C 878.217 3.24175 1.24612 0
M  V30 9285 C 877.171 4.23131 0.64376 0
M  V30 9286 C 876.497 5.03915 1.78812 0
M  V30 9287 C 877.797 5.20831 -0.39144 0
M  V30 9288 H 879.491 2.95184 -0.500676 0
M  V30 9289 H 877.037 1.41948 -0.242225 0
M  V30 9290 H 878.99 3.82158 1.77576 0
M  V30 9291 H 877.714 2.59608 1.98169 0
M  V30 9292 H 876.373 3.66349 0.135554 0
M  V30 9293 H 876.021 4.35765 2.51232 0
M  V30 9294 H 875.721 5.709 1.39094 0
M  V30 9295 H 877.245 5.64753 2.32134 0
M  V30 9296 H 878.659 5.73277 0.0515064 0
M  V30 9297 H 877.056 5.95926 -0.706569 0
M  V30 9298 H 878.126 4.6733 -1.29345 0
M  V30 9299 N 879.47 0.276058 1.55163 0
M  V30 9300 C 880.402 -0.644254 2.19959 0
M  V30 9301 C 881.415 -1.11675 1.18459 0
M  V30 9302 O 882.604 -1.0385 1.45181 0
M  V30 9303 C 879.704 -1.89093 2.81242 0
M  V30 9304 C 878.877 -1.56509 4.08441 0
M  V30 9305 C 877.936 -2.66433 4.53762 0
M  V30 9306 O 876.962 -2.32579 5.19515 0
M  V30 9307 N 878.164 -3.96509 4.23982 0
M  V30 9308 H 880.929 -0.0896808 2.99566 0
M  V30 9309 H 878.49 0.0971981 1.61608 0
M  V30 9310 H 880.482 -2.61929 3.08505 0
M  V30 9311 H 879.052 -2.35453 2.05622 0
M  V30 9312 H 878.272 -0.670522 3.88455 0
M  V30 9313 H 879.56 -1.32242 4.91314 0
M  V30 9314 H 878.958 -4.26834 3.71254 0
M  V30 9315 H 877.515 -4.6572 4.56014 0
M  V30 9316 N 880.948 -1.576 0.00335426 0
M  V30 9317 C 882.364 -1.55653 -0.352766 0
M  V30 9318 C 882.564 -1.00632 -1.74572 0
M  V30 9319 O 881.62 -0.641621 -2.44212 0
M  V30 9320 C 882.933 -2.99858 -0.224929 0
M  V30 9321 C 884.481 -3.11563 -0.299619 0
M  V30 9322 C 884.956 -4.57559 -0.200868 0
M  V30 9323 N 886.447 -4.62477 -0.258663 0
M  V30 9324 C 887.182 -5.73031 -0.205644 0
M  V30 9325 N 886.678 -6.92723 -0.103027 0
M  V30 9326 N 888.471 -5.61509 -0.257754 0
M  V30 9327 H 880.622 -1.91703 0.914539 0
M  V30 9328 H 882.885 -0.88068 0.350865 0
M  V30 9329 H 882.591 -3.43964 0.733595 0
M  V30 9330 H 882.465 -3.63547 -1.00564 0
M  V30 9331 H 884.852 -2.67384 -1.24859 0
M  V30 9332 H 884.933 -2.50644 0.511025 0
M  V30 9333 H 884.577 -5.02413 0.744572 0
M  V30 9334 H 884.507 -5.16428 -1.03004 0
M  V30 9335 H 886.998 -3.76375 -0.339168 0
M  V30 9336 H 887.311 -7.7277 -0.0685593 0
M  V30 9337 H 885.656 -6.94966 -0.0686069 0
M  V30 9338 H 888.847 -4.66892 -0.336142 0
M  V30 9339 H 889.02 -6.4765 -0.21297 0
M  V30 9340 N 882.426 0.269451 -1.5528 0
M  V30 9341 C 883.651 1.02299 -1.80415 0
M  V30 9342 C 884.076 1.7902 -0.577363 0
M  V30 9343 O 883.434 1.75018 0.473125 0
M  V30 9344 C 883.482 1.95445 -3.0304 0
M  V30 9345 O 882.586 3.04271 -2.78375 0
M  V30 9346 H 881.927 0.292289 -0.596207 0
M  V30 9347 H 884.457 0.297282 -2.02429 0
M  V30 9348 H 884.467 2.37333 -3.31869 0
M  V30 9349 H 883.142 1.39017 -3.91978 0
M  V30 9350 H 881.719 2.66673 -2.60653 0
M  V30 9351 N 883.904 1.48273 0.534124 0
M  V30 9352 C 885.32 1.34302 0.862272 0
M  V30 9353 C 885.52 0.350902 1.98421 0
M  V30 9354 O 884.576 -0.229364 2.51456 0
M  V30 9355 C 885.889 2.74227 1.23371 0
M  V30 9356 C 887.437 2.82684 1.34383 0
M  V30 9357 C 887.912 4.23301 1.74871 0
M  V30 9358 N 889.403 4.25954 1.81981 0
M  V30 9359 C 890.138 5.31693 2.14686 0
M  V30 9360 N 889.634 6.47714 2.45844 0
M  V30 9361 N 891.427 5.19084 2.15657 0
M  V30 9362 H 883.578 2.11397 -0.206215 0
M  V30 9363 H 885.841 0.947537 -0.0296116 0
M  V30 9364 H 885.547 3.48368 0.482967 0
M  V30 9365 H 885.421 3.07485 2.18478 0
M  V30 9366 H 887.808 2.08801 2.08534 0
M  V30 9367 H 887.889 2.5305 0.374063 0
M  V30 9368 H 887.533 4.97699 1.01282 0
M  V30 9369 H 887.463 4.50376 2.7289 0
M  V30 9370 H 889.954 3.42266 1.60196 0
M  V30 9371 H 890.267 7.2414 2.69892 0
M  V30 9372 H 888.612 6.50995 2.43372 0
M  V30 9373 H 891.803 4.27463 1.9077 0
M  V30 9374 H 891.976 6.01592 2.40813 0
M  V30 9375 N 885.382 -0.782676 1.36792 0
M  V30 9376 C 886.607 -1.57676 1.34733 0
M  V30 9377 C 887.032 -1.87979 -0.0675253 0
M  V30 9378 O 886.39 -1.48404 -1.04144 0
M  V30 9379 C 886.438 -2.87047 2.18257 0
M  V30 9380 O 885.542 -3.80946 1.57969 0
M  V30 9381 H 884.883 -0.478034 0.460846 0
M  V30 9382 H 887.413 -0.969578 1.80168 0
M  V30 9383 H 887.423 -3.36254 2.31079 0
M  V30 9384 H 886.098 -2.64319 3.21104 0
M  V30 9385 H 884.675 -3.39558 1.54126 0
M  V30 9386 N 886.86 -1.21182 -1.00761 0
M  V30 9387 C 888.137 -0.936297 -1.71735 0
M  V30 9388 C 888.517 0.552585 -2.03739 0
M  V30 9389 O 887.865 1.51672 -1.70903 0
M  V30 9390 C 888.075 -1.81867 -2.97868 0
M  V30 9391 C 889.423 -2.06594 -3.7095 0
M  V30 9392 O 890.447 -1.79194 -3.07844 0
M  V30 9393 O 889.306 -2.5292 -4.84452 0
M  V30 9394 H 886.4 -0.350867 -0.74888 0
M  V30 9395 H 888.946 -1.32098 -1.06527 0
M  V30 9396 H 887.718 -2.82643 -2.70607 0
M  V30 9397 H 887.341 -1.43463 -3.70815 0
M  V30 9398 N 888.338 1.20213 -1.01915 0
M  V30 9399 C 889.587 1.88968 -0.705261 0
M  V30 9400 C 889.9 1.79869 0.768531 0
M  V30 9401 O 891.106 2.43783 1.19508 0
M  V30 9402 C 889.562 3.38911 -1.21109 0
M  V30 9403 C 889.17 3.5659 -2.71197 0
M  V30 9404 C 890.914 4.13204 -0.97275 0
M  V30 9405 C 888.821 5.00372 -3.15248 0
M  V30 9406 H 887.751 0.707715 -0.260107 0
M  V30 9407 H 890.402 1.35977 -1.23217 0
M  V30 9408 H 888.784 3.9124 -0.612152 0
M  V30 9409 H 889.958 3.14635 -3.36662 0
M  V30 9410 H 888.273 2.95671 -2.93202 0
M  V30 9411 H 890.87 5.19221 -1.27726 0
M  V30 9412 H 891.213 4.16201 0.09072 0
M  V30 9413 H 891.746 3.66983 -1.5352 0
M  V30 9414 H 888.485 5.02532 -4.20882 0
M  V30 9415 H 888.005 5.43127 -2.54505 0
M  V30 9416 H 889.684 5.68969 -3.08032 0
M  V30 9417 N 889.816 0.795718 1.36037 0
M  V30 9418 C 891.093 0.294743 1.93367 0
M  V30 9419 C 891.473 -1.21406 1.72696 0
M  V30 9420 O 890.821 -2.00849 1.08959 0
M  V30 9421 C 891.031 0.694254 3.42025 0
M  V30 9422 C 892.379 0.677566 4.19159 0
M  V30 9423 O 893.403 0.635119 3.50492 0
M  V30 9424 O 892.262 0.726127 5.41655 0
M  V30 9425 H 889.356 0.0745459 0.823633 0
M  V30 9426 H 891.902 0.878685 1.4518 0
M  V30 9427 H 890.674 1.73458 3.50753 0
M  V30 9428 H 890.297 0.0845338 3.9751 0
M  V30 9429 N 891.294 -1.47756 0.548274 0
M  V30 9430 C 892.54 -2.02789 0.0209265 0
M  V30 9431 C 892.873 -1.42268 -1.32187 0
M  V30 9432 O 892.148 -0.575001 -1.85806 0
M  V30 9433 C 892.431 -3.60007 -0.0816674 0
M  V30 9434 C 892.284 -4.30977 1.28759 0
M  V30 9435 C 893.603 -4.32777 -0.799515 0
M  V30 9436 H 890.722 -0.736944 0.00907884 0
M  V30 9437 H 893.364 -1.76282 0.708839 0
M  V30 9438 H 891.514 -3.82722 -0.667537 0
M  V30 9439 H 893.186 -4.19629 1.91597 0
M  V30 9440 H 891.429 -3.9168 1.86466 0
M  V30 9441 H 892.1 -5.39488 1.16861 0
M  V30 9442 H 894.576 -4.15001 -0.30216 0
M  V30 9443 H 893.452 -5.42431 -0.840239 0
M  V30 9444 H 893.713 -4.01358 -1.85375 0
M  V30 9445 N 892.772 -0.284283 -1.55015 0
M  V30 9446 C 893.72 0.615091 -2.2432 0
M  V30 9447 C 894.714 1.15051 -1.24337 0
M  V30 9448 O 895.92 1.10308 -1.4224 0
M  V30 9449 H 892.295 0.216927 -0.720033 0
M  V30 9450 H 894.266 0.00783216 -2.98399 0
M  V30 9451 C 893.015 1.78355 -2.98471 0
M  V30 9452 H 892.338 1.38076 -3.752 0
M  V30 9453 H 893.778 2.38927 -3.50271 0
M  V30 9454 C 892.237 2.67757 -2.04469 0
M  V30 9455 O 892.767 3.6838 -1.60185 0
M  V30 9456 N 890.973 2.35125 -1.70776 0
M  V30 9457 H 890.52 1.53346 -2.06985 0
M  V30 9458 H 890.478 2.95212 -1.08153 0
M  V30 9459 N 894.251 1.57596 -0.0117121 0
M  V30 9460 C 895.214 2.08089 0.960816 0
M  V30 9461 C 896.214 0.992519 1.26514 0
M  V30 9462 O 897.404 1.25475 1.20837 0
M  V30 9463 C 894.536 2.53217 2.28241 0
M  V30 9464 H 895.729 2.9529 0.523829 0
M  V30 9465 H 893.282 1.54508 0.235995 0
M  V30 9466 H 894.017 1.69294 2.76604 0
M  V30 9467 H 893.802 3.32714 2.0747 0
M  V30 9468 H 895.292 2.92568 2.97983 0
M  V30 9469 N 895.729 -0.261212 1.5542 0
M  V30 9470 C 896.692 -1.30645 1.8832 0
M  V30 9471 C 897.692 -1.41782 0.758588 0
M  V30 9472 O 898.882 -1.40729 1.02669 0
M  V30 9473 C 896.014 -2.6862 2.09895 0
M  V30 9474 H 897.207 -1.02698 2.81768 0
M  V30 9475 H 894.76 -0.499838 1.48092 0
M  V30 9476 H 895.495 -3.0173 1.18868 0
M  V30 9477 H 895.28 -2.61921 2.91787 0
M  V30 9478 H 896.77 -3.44121 2.36581 0
M  V30 9479 N 897.207 -1.48554 -0.526253 0
M  V30 9480 C 898.17 -1.62868 -1.61266 0
M  V30 9481 C 899.17 -0.501762 -1.52771 0
M  V30 9482 O 900.36 -0.76764 -1.56374 0
M  V30 9483 C 897.492 -1.60238 -3.00893 0
M  V30 9484 H 898.685 -2.59742 -1.49913 0
M  V30 9485 H 896.238 -1.37207 -0.748595 0
M  V30 9486 H 896.973 -0.648545 -3.17749 0
M  V30 9487 H 896.758 -2.42054 -3.08468 0
M  V30 9488 H 898.248 -1.73455 -3.79872 0
M  V30 9489 N 898.685 0.775411 -1.37205 0
M  V30 9490 C 899.91 1.5696 -1.35567 0
M  V30 9491 C 900.335 1.88012 0.0575554 0
M  V30 9492 O 899.693 1.48954 1.03355 0
M  V30 9493 C 899.741 2.85886 -2.19776 0
M  V30 9494 O 898.845 3.80103 -1.59987 0
M  V30 9495 H 898.186 0.475583 -0.463375 0
M  V30 9496 H 900.716 0.96001 -1.80679 0
M  V30 9497 H 900.726 3.35024 -2.32859 0
M  V30 9498 H 899.401 2.62613 -3.22502 0
M  V30 9499 H 897.978 3.38736 -1.55924 0
M  V30 9500 N 900.163 1.21714 1.00117 0
M  V30 9501 C 901.126 0.981338 2.07129 0
M  V30 9502 C 902.126 -0.0491116 1.60725 0
M  V30 9503 O 903.316 0.188555 1.73177 0
M  V30 9504 C 900.448 0.480608 3.37495 0
M  V30 9505 H 901.641 1.93075 2.29482 0
M  V30 9506 H 899.194 1.03467 1.17151 0
M  V30 9507 H 899.929 -0.473552 3.20824 0
M  V30 9508 H 899.714 1.22393 3.72508 0
M  V30 9509 H 901.204 0.33561 4.16249 0
M  V30 9510 N 901.641 -1.19671 1.02551 0
M  V30 9511 C 902.588 -2.22773 0.603394 0
M  V30 9512 C 903.558 -1.61669 -0.381081 0
M  V30 9513 O 904.743 -1.88756 -0.278505 0
M  V30 9514 C 901.883 -3.45073 -0.0431034 0
M  V30 9515 C 900.996 -4.20574 0.987006 0
M  V30 9516 C 900.131 -5.30291 0.310626 0
M  V30 9517 C 899.17 -5.97545 1.32688 0
M  V30 9518 N 898.307 -6.98833 0.676542 0
M  V30 9519 H 903.147 -2.58238 1.48719 0
M  V30 9520 H 900.684 -1.26881 0.744286 0
M  V30 9521 H 902.642 -4.14925 -0.435141 0
M  V30 9522 H 901.272 -3.10274 -0.890495 0
M  V30 9523 H 900.324 -3.497 1.49713 0
M  V30 9524 H 901.636 -4.66736 1.75952 0
M  V30 9525 H 900.79 -6.06547 -0.136438 0
M  V30 9526 H 899.529 -4.8519 -0.49412 0
M  V30 9527 H 898.534 -5.20043 1.78424 0
M  V30 9528 H 899.759 -6.4473 2.13306 0
M  V30 9529 H 897.705 -6.55911 -0.108172 0
M  V30 9530 H 897.622 -7.43168 1.38699 0
M  V30 9531 H 898.89 -7.79088 0.253367 0
M  V30 9532 N 903.119 -0.802921 -1.35613 0
M  V30 9533 C 904.344 -0.392846 -2.03645 0
M  V30 9534 C 904.769 0.987075 -1.6012 0
M  V30 9535 O 904.127 1.63849 -0.776101 0
M  V30 9536 C 904.175 -0.480208 -3.57388 0
M  V30 9537 O 903.279 0.507751 -4.09262 0
M  V30 9538 H 902.62 -0.16464 -0.643265 0
M  V30 9539 H 905.15 -1.08779 -1.73287 0
M  V30 9540 H 905.16 -0.348683 -4.06507 0
M  V30 9541 H 903.835 -1.48675 -3.88418 0
M  V30 9542 H 902.412 0.336769 -3.71376 0
M  V30 9543 N 904.597 1.47463 -0.556102 0
M  V30 9544 C 905.544 2.29998 0.192213 0
M  V30 9545 C 906.514 1.38993 0.909403 0
M  V30 9546 O 907.699 1.67954 0.905316 0
M  V30 9547 C 904.839 3.22932 1.21692 0
M  V30 9548 C 903.952 4.29027 0.505908 0
M  V30 9549 C 903.087 5.09114 1.51581 0
M  V30 9550 C 902.126 6.06984 0.789714 0
M  V30 9551 N 901.263 6.80033 1.74639 0
M  V30 9552 H 906.103 2.93468 -0.517734 0
M  V30 9553 H 903.64 1.44654 -0.267147 0
M  V30 9554 H 905.598 3.75234 1.8236 0
M  V30 9555 H 904.228 2.61329 1.89491 0
M  V30 9556 H 903.28 3.7979 -0.215276 0
M  V30 9557 H 904.592 4.9876 -0.062958 0
M  V30 9558 H 903.746 5.6556 2.19606 0
M  V30 9559 H 902.485 4.3928 2.11859 0
M  V30 9560 H 901.49 5.49717 0.0955382 0
M  V30 9561 H 902.715 6.78827 0.192688 0
M  V30 9562 H 900.661 6.12931 2.33777 0
M  V30 9563 H 900.578 7.45933 1.22965 0
M  V30 9564 H 901.846 7.41054 2.41782 0
M  V30 9565 N 906.075 0.2925 1.54862 0
M  V30 9566 C 907.321 -0.319736 2.00264 0
M  V30 9567 C 907.654 -1.5419 1.18064 0
M  V30 9568 O 906.929 -1.92821 0.254983 0
M  V30 9569 C 907.212 -0.684753 3.5353 0
M  V30 9570 C 907.065 0.545961 4.46474 0
M  V30 9571 C 908.384 -1.51456 4.13218 0
M  V30 9572 H 905.503 -0.11474 0.728014 0
M  V30 9573 H 908.145 0.402907 1.85679 0
M  V30 9574 H 906.295 -1.30044 3.66089 0
M  V30 9575 H 907.967 1.18448 4.45834 0
M  V30 9576 H 906.21 1.1808 4.1742 0
M  V30 9577 H 906.881 0.246544 5.51449 0
M  V30 9578 H 909.357 -0.994421 4.04043 0
M  V30 9579 H 908.233 -1.73875 5.20633 0
M  V30 9580 H 908.494 -2.5011 3.64551 0
M  V30 9581 N 907.553 -1.57587 0.0200696 0
M  V30 9582 C 908.778 -1.96124 -0.674547 0
M  V30 9583 C 909.203 -0.896068 -1.65385 0
M  V30 9584 O 908.561 0.143925 -1.80728 0
M  V30 9585 C 908.609 -3.3376 -1.36517 0
M  V30 9586 O 907.713 -3.29483 -2.48022 0
M  V30 9587 H 907.054 -0.639719 -0.177919 0
M  V30 9588 H 909.584 -2.04447 0.0792317 0
M  V30 9589 H 909.594 -3.69785 -1.72403 0
M  V30 9590 H 908.269 -4.10832 -0.647265 0
M  V30 9591 H 906.846 -3.05162 -2.14314 0
M  V30 9592 N 909.032 0.252966 -1.55557 0
M  V30 9593 C 910.257 1.0038 -1.8149 0
M  V30 9594 C 910.682 1.78397 -0.596318 0
M  V30 9595 O 910.04 1.7551 0.454535 0
M  V30 9596 C 910.088 1.9222 -3.05096 0
M  V30 9597 O 909.192 3.01302 -2.81587 0
M  V30 9598 H 908.533 0.285949 -0.599274 0
M  V30 9599 H 911.063 0.275795 -2.02733 0
M  V30 9600 H 911.073 2.338 -3.34368 0
M  V30 9601 H 909.748 1.34852 -3.93431 0
M  V30 9602 H 908.325 2.63894 -2.63466 0
M  V30 9603 N 910.51 1.48831 0.518367 0
M  V30 9604 C 911.735 1.61379 1.30275 0
M  V30 9605 C 912.16 0.278571 1.86026 0
M  V30 9606 O 911.518 -0.751427 1.64995 0
M  V30 9607 C 911.566 2.67225 2.42122 0
M  V30 9608 O 910.67 2.25192 3.45489 0
M  V30 9609 H 910.011 0.540742 0.385349 0
M  V30 9610 H 912.541 1.949 0.622498 0
M  V30 9611 H 912.551 2.88859 2.8814 0
M  V30 9612 H 911.226 3.64155 2.00907 0
M  V30 9613 H 909.803 2.13819 3.05509 0
M  V30 9614 N 911.988 -0.768124 1.37614 0
M  V30 9615 C 913.213 -1.56239 1.36397 0
M  V30 9616 C 913.638 -1.8804 -0.0475839 0
M  V30 9617 O 912.996 -1.495 -1.02564 0
M  V30 9618 C 913.044 -2.84716 2.21289 0
M  V30 9619 O 912.148 -3.79249 1.62001 0
M  V30 9620 H 911.489 -0.473119 0.465891 0
M  V30 9621 H 914.019 -0.950415 1.81186 0
M  V30 9622 H 914.029 -3.33784 2.34632 0
M  V30 9623 H 912.704 -2.60899 3.2389 0
M  V30 9624 H 911.281 -3.37904 1.57719 0
M  V30 9625 N 913.466 -1.22244 -0.994698 0
M  V30 9626 C 914.714 -1.04384 -1.73056 0
M  V30 9627 C 915.035 0.422204 -1.90374 0
M  V30 9628 O 914.305 1.30383 -1.46209 0
M  V30 9629 H 912.885 -0.383263 -0.641185 0
M  V30 9630 H 915.547 -1.53725 -1.1981 0
M  V30 9631 H 914.643 -1.52021 -2.72573 0
M  V30 9632 N 914.944 1.19125 -1.03184 0
M  V30 9633 C 916.172 1.92838 -0.74975 0
M  V30 9634 C 916.587 1.75667 0.691851 0
M  V30 9635 O 915.944 1.0805 1.47076 0
M  V30 9636 C 915.995 3.44509 -1.09525 0
M  V30 9637 O 915.716 3.6113 -2.48025 0
M  V30 9638 C 917.217 4.35338 -0.836397 0
M  V30 9639 H 914.437 0.61246 -0.274105 0
M  V30 9640 H 916.981 1.5118 -1.37712 0
M  V30 9641 H 915.136 3.83988 -0.513006 0
M  V30 9642 H 915.55 4.54959 -2.60984 0
M  V30 9643 H 917.024 5.4035 -1.12808 0
M  V30 9644 H 917.501 4.38602 0.229102 0
M  V30 9645 H 918.107 4.01544 -1.40152 0
M  V30 9646 N 916.422 0.810101 1.35185 0
M  V30 9647 C 917.65 0.404696 2.02903 0
M  V30 9648 C 918.065 -0.985434 1.61042 0
M  V30 9649 O 917.422 -1.63557 0.809658 0
M  V30 9650 C 917.473 0.482493 3.58266 0
M  V30 9651 O 917.194 1.81782 3.98606 0
M  V30 9652 C 918.695 0.070345 4.43244 0
M  V30 9653 H 915.915 0.163972 0.650657 0
M  V30 9654 H 918.459 1.0947 1.72733 0
M  V30 9655 H 916.614 -0.159296 3.87072 0
M  V30 9656 H 917.028 1.78306 4.93262 0
M  V30 9657 H 918.502 0.175888 5.5172 0
M  V30 9658 H 918.979 -0.984724 4.28018 0
M  V30 9659 H 919.585 0.685427 4.1974 0
M  V30 9660 N 917.9 -1.47166 0.563914 0
M  V30 9661 C 919.311 -1.86231 0.132307 0
M  V30 9662 C 919.662 -1.46976 -1.29971 0
M  V30 9663 O 918.787 -0.875911 -1.97881 0
M  V30 9664 C 919.382 -3.37996 0.233335 0
M  V30 9665 C 917.941 -3.76127 -0.143278 0
M  V30 9666 C 917.088 -2.71212 0.577857 0
M  V30 9667 H 920.039 -1.38588 0.773249 0
M  V30 9668 H 920.06 -3.76558 -0.546309 0
M  V30 9669 H 919.572 -3.66535 1.27568 0
M  V30 9670 H 917.673 -3.53205 -1.18648 0
M  V30 9671 H 917.786 -4.78595 0.219952 0
M  V30 9672 H 916.15 -2.54692 0.020186 0
M  V30 9673 H 916.933 -3.02593 1.62149 0
M  V30 9674 N 919.378 -0.300708 -1.54705 0
M  V30 9675 C 920.625 0.308654 -2.00134 0
M  V30 9676 C 920.953 1.53918 -1.1891 0
M  V30 9677 O 920.208 1.94054 -0.253263 0
M  V30 9678 C 920.507 0.710108 -3.50275 0
M  V30 9679 C 920.173 -0.418651 -4.48952 0
M  V30 9680 C 918.835 -0.728524 -4.75653 0
M  V30 9681 C 921.187 -1.17797 -5.07714 0
M  V30 9682 C 918.515 -1.80085 -5.58378 0
M  V30 9683 C 920.867 -2.24022 -5.91606 0
M  V30 9684 C 919.531 -2.55616 -6.16617 0
M  V30 9685 H 918.801 0.112945 -0.732342 0
M  V30 9686 H 921.448 -0.419744 -1.86843 0
M  V30 9687 H 919.753 1.51859 -3.61173 0
M  V30 9688 H 921.45 1.19277 -3.8285 0
M  V30 9689 H 918.04 -0.167034 -4.28274 0
M  V30 9690 H 922.224 -0.951835 -4.87087 0
M  V30 9691 H 917.48 -2.05036 -5.75995 0
M  V30 9692 H 921.654 -2.83317 -6.36164 0
M  V30 9693 H 919.281 -3.38839 -6.80509 0
M  V30 9694 N 920.856 1.57574 -0.0284266 0
M  V30 9695 C 922.081 1.96479 0.664137 0
M  V30 9696 C 922.506 0.904826 1.64908 0
M  V30 9697 O 921.864 -0.134339 1.80802 0
M  V30 9698 C 921.912 3.34479 1.34745 0
M  V30 9699 O 921.016 3.30794 2.46271 0
M  V30 9700 H 920.357 0.640654 0.174524 0
M  V30 9701 H 922.887 2.04402 -0.0900729 0
M  V30 9702 H 922.897 3.70694 1.7044 0
M  V30 9703 H 921.572 4.1117 0.625468 0
M  V30 9704 H 920.149 3.06294 2.12693 0
M  V30 9705 N 922.334 -0.244713 1.55689 0
M  V30 9706 C 923.559 -0.994157 1.8202 0
M  V30 9707 C 923.984 -1.78079 0.60577 0
M  V30 9708 O 923.342 -1.75748 -0.445221 0
M  V30 9709 C 923.39 -1.90599 3.06111 0
M  V30 9710 O 922.494 -2.99804 2.8318 0
M  V30 9711 H 921.835 -0.282767 0.600782 0
M  V30 9712 H 924.365 -0.26504 2.02876 0
M  V30 9713 H 924.375 -2.32023 3.35603 0
M  V30 9714 H 923.05 -1.32763 3.9414 0
M  V30 9715 H 921.627 -2.62493 2.64862 0
M  V30 9716 N 923.813 -1.49104 -0.510467 0
M  V30 9717 C 924.776 -1.64569 -1.59529 0
M  V30 9718 C 925.776 -0.517937 -1.5223 0
M  V30 9719 O 926.966 -0.784183 -1.55551 0
M  V30 9720 C 924.098 -1.6342 -2.99177 0
M  V30 9721 H 925.291 -2.61318 -1.4715 0
M  V30 9722 H 922.844 -1.37993 -0.734001 0
M  V30 9723 H 923.579 -0.68221 -3.17043 0
M  V30 9724 H 923.364 -2.45312 -3.05883 0
M  V30 9725 H 924.854 -1.77474 -3.78011 0
M  V30 9726 N 925.291 0.760815 -1.38019 0
M  V30 9727 C 926.254 1.85604 -1.34476 0
M  V30 9728 C 927.254 1.58897 -0.24666 0
M  V30 9729 O 928.444 1.66776 -0.50314 0
M  V30 9730 C 925.576 3.22945 -1.09176 0
M  V30 9731 H 926.769 1.90155 -2.31908 0
M  V30 9732 H 924.322 0.961746 -1.23208 0
M  V30 9733 H 925.057 3.24066 -0.123216 0
M  V30 9734 H 924.842 3.43723 -1.88672 0
M  V30 9735 H 926.332 4.03022 -1.09375 0
M  V30 9736 N 926.769 1.22769 0.988202 0
M  V30 9737 C 927.732 1.00325 2.06076 0
M  V30 9738 C 928.732 -0.0320618 1.60768 0
M  V30 9739 O 929.922 0.206912 1.72967 0
M  V30 9740 C 927.054 0.516376 3.36966 0
M  V30 9741 H 928.247 1.95499 2.27421 0
M  V30 9742 H 925.8 1.04704 1.16047 0
M  V30 9743 H 926.535 -0.439498 3.21308 0
M  V30 9744 H 926.32 1.26337 3.71189 0
M  V30 9745 H 927.81 0.37974 4.1587 0
M  V30 9746 N 928.247 -1.18576 1.03814 0
M  V30 9747 C 929.177 -2.24334 0.647795 0
M  V30 9748 C 930.158 -1.66508 -0.34774 0
M  V30 9749 O 931.343 -1.92852 -0.228401 0
M  V30 9750 C 928.473 -3.47299 0.00734922 0
M  V30 9751 C 927.427 -4.17859 0.926152 0
M  V30 9752 C 926.753 -5.34489 0.150317 0
M  V30 9753 C 928.053 -4.71632 2.24411 0
M  V30 9754 H 929.747 -2.57241 1.53191 0
M  V30 9755 H 927.293 -1.23649 0.738028 0
M  V30 9756 H 929.246 -4.20486 -0.277434 0
M  V30 9757 H 927.97 -3.13619 -0.911626 0
M  V30 9758 H 926.629 -3.46567 1.19528 0
M  V30 9759 H 926.277 -4.97056 -0.770985 0
M  V30 9760 H 925.977 -5.82633 0.762407 0
M  V30 9761 H 927.501 -6.10467 -0.127508 0
M  V30 9762 H 928.915 -5.36526 2.02021 0
M  V30 9763 H 927.312 -5.303 2.80894 0
M  V30 9764 H 928.382 -3.89192 2.89236 0
M  V30 9765 N 929.725 -0.817259 -1.34754 0
M  V30 9766 C 931.136 -0.462215 -1.80888 0
M  V30 9767 C 931.487 1.01685 -1.67794 0
M  V30 9768 O 930.612 1.79094 -1.21468 0
M  V30 9769 C 931.207 -0.832204 -3.2842 0
M  V30 9770 C 929.766 -0.52961 -3.72655 0
M  V30 9771 C 928.913 -1.05214 -2.56564 0
M  V30 9772 H 931.864 -1.00795 -1.22581 0
M  V30 9773 H 931.885 -0.133804 -3.80265 0
M  V30 9774 H 931.397 -1.90873 -3.37919 0
M  V30 9775 H 929.498 0.537743 -3.68699 0
M  V30 9776 H 929.611 -1.06971 -4.67005 0
M  V30 9777 H 927.975 -0.473949 -2.50251 0
M  V30 9778 H 928.758 -2.135 -2.68836 0
M  V30 9779 N 931.203 1.46865 -0.571711 0
M  V30 9780 C 932.614 1.86158 -0.142181 0
M  V30 9781 C 932.965 1.47663 1.2919 0
M  V30 9782 O 932.09 0.886393 1.97413 0
M  V30 9783 C 932.685 3.37867 -0.251256 0
M  V30 9784 C 931.244 3.76198 0.123329 0
M  V30 9785 C 930.391 2.70902 -0.592232 0
M  V30 9786 H 933.342 1.38176 -0.780587 0
M  V30 9787 H 933.363 3.76842 0.526331 0
M  V30 9788 H 932.875 3.65853 -1.2951 0
M  V30 9789 H 930.976 3.53829 1.16773 0
M  V30 9790 H 931.089 4.78471 -0.24533 0
M  V30 9791 H 929.453 2.54678 -0.0336927 0
M  V30 9792 H 930.236 3.01729 -1.63751 0
M  V30 9793 N 932.681 0.308908 1.54543 0
M  V30 9794 C 933.929 -0.297447 1.99899 0
M  V30 9795 C 934.25 -1.53799 1.19878 0
M  V30 9796 O 933.52 -1.93639 0.29678 0
M  V30 9797 H 932.1 -0.112897 0.738419 0
M  V30 9798 H 934.762 0.422067 1.90275 0
M  V30 9799 H 933.858 -0.564016 3.06961 0
M  V30 9800 N 934.159 -1.57557 0.0367827 0
M  V30 9801 C 935.384 -1.96828 -0.653707 0
M  V30 9802 C 935.809 -0.913559 -1.64425 0
M  V30 9803 O 935.167 0.124749 -1.8087 0
M  V30 9804 C 935.215 -3.35189 -1.32969 0
M  V30 9805 O 934.319 -3.32095 -2.44513 0
M  V30 9806 H 933.66 -0.64157 -0.171124 0
M  V30 9807 H 936.19 -2.04351 0.100912 0
M  V30 9808 H 936.2 -3.71593 -1.68472 0
M  V30 9809 H 934.875 -4.11496 -0.603654 0
M  V30 9810 H 933.452 -3.07418 -2.11065 0
M  V30 9811 N 935.637 0.236453 -1.55816 0
M  V30 9812 C 936.867 0.978873 -1.81939 0
M  V30 9813 C 937.275 1.79041 -0.611647 0
M  V30 9814 O 936.618 1.78616 0.429172 0
M  V30 9815 C 936.68 1.9569 -3.01572 0
M  V30 9816 C 936.344 1.33131 -4.37178 0
M  V30 9817 C 937.341 0.728585 -5.1477 0
M  V30 9818 C 935.026 1.34755 -4.83887 0
M  V30 9819 C 937.02 0.150427 -6.37222 0
M  V30 9820 C 934.707 0.765539 -6.06286 0
M  V30 9821 C 935.705 0.168017 -6.82793 0
M  V30 9822 O 935.393 -0.404976 -8.02879 0
M  V30 9823 H 935.125 0.293186 -0.609113 0
M  V30 9824 H 937.679 0.261384 -2.0373 0
M  V30 9825 H 935.909 2.71298 -2.75562 0
M  V30 9826 H 937.598 2.56362 -3.14695 0
M  V30 9827 H 938.364 0.708477 -4.79797 0
M  V30 9828 H 934.243 1.80202 -4.24321 0
M  V30 9829 H 937.787 -0.316586 -6.96881 0
M  V30 9830 H 933.684 0.78301 -6.40733 0
M  V30 9831 H 934.452 -0.29785 -8.17958 0
M  V30 9832 N 937.115 1.49373 0.502552 0
M  V30 9833 C 938.078 1.65413 1.58654 0
M  V30 9834 C 939.078 0.526003 1.51953 0
M  V30 9835 O 940.268 0.792421 1.55133 0
M  V30 9836 C 937.4 1.65005 2.98306 0
M  V30 9837 H 938.593 2.62095 1.45762 0
M  V30 9838 H 936.146 1.38381 0.726672 0
M  V30 9839 H 936.881 0.699014 3.16677 0
M  V30 9840 H 936.666 2.46931 3.04578 0
M  V30 9841 H 938.156 1.79477 3.77065 0
M  V30 9842 N 938.594 -0.753485 1.38421 0
M  V30 9843 C 939.819 -1.54783 1.38047 0
M  V30 9844 C 940.244 -1.8808 -0.0276371 0
M  V30 9845 O 939.602 -1.5058 -1.00973 0
M  V30 9846 C 939.65 -2.82353 2.24297 0
M  V30 9847 O 938.754 -3.77509 1.66014 0
M  V30 9848 H 938.095 -0.468151 0.470883 0
M  V30 9849 H 940.625 -0.931144 1.82184 0
M  V30 9850 H 940.635 -3.31277 2.38159 0
M  V30 9851 H 939.31 -2.57449 3.26639 0
M  V30 9852 H 937.887 -3.36212 1.61294 0
M  V30 9853 N 940.072 -1.23292 -0.981677 0
M  V30 9854 C 941.002 -1.03738 -2.09191 0
M  V30 9855 C 941.983 0.0453041 -1.7004 0
M  V30 9856 O 943.168 -0.119092 -1.93834 0
M  V30 9857 C 940.298 -0.626426 -3.41604 0
M  V30 9858 C 939.252 -1.65631 -3.94652 0
M  V30 9859 C 938.578 -1.10084 -5.23245 0
M  V30 9860 C 939.878 -3.04903 -4.24066 0
M  V30 9861 H 941.572 -1.966 -2.25807 0
M  V30 9862 H 939.118 -0.946656 -1.0851 0
M  V30 9863 H 941.071 -0.476689 -4.18695 0
M  V30 9864 H 939.795 0.337873 -3.24848 0
M  V30 9865 H 938.454 -1.79402 -3.19704 0
M  V30 9866 H 938.102 -0.127562 -5.02838 0
M  V30 9867 H 937.802 -1.78896 -5.59705 0
M  V30 9868 H 939.326 -0.962928 -6.02959 0
M  V30 9869 H 940.74 -2.94441 -4.91912 0
M  V30 9870 H 939.137 -3.70941 -4.71724 0
M  V30 9871 H 940.207 -3.53991 -3.31389 0
M  V30 9872 N 941.55 1.18024 -1.04442 0
M  V30 9873 C 942.798 1.87727 -0.74854 0
M  V30 9874 C 943.119 1.80975 0.726156 0
M  V30 9875 O 942.389 1.23061 1.52423 0
M  V30 9876 H 940.969 0.694974 -0.273897 0
M  V30 9877 H 943.631 1.43213 -1.32197 0
M  V30 9878 H 942.727 2.93665 -1.05674 0
M  V30 9879 N 943.028 0.824394 1.34319 0
M  V30 9880 C 944.444 0.510336 1.51221 0
M  V30 9881 C 944.644 -0.965201 1.76879 0
M  V30 9882 O 943.7 -1.74961 1.82057 0
M  V30 9883 C 945.013 1.37114 2.6762 0
M  V30 9884 C 946.561 1.36842 2.81502 0
M  V30 9885 C 947.036 2.21374 4.00946 0
M  V30 9886 N 948.527 2.19005 4.08156 0
M  V30 9887 C 949.262 2.81159 4.99737 0
M  V30 9888 N 948.758 3.52309 5.96532 0
M  V30 9889 N 950.551 2.70706 4.9262 0
M  V30 9890 H 942.702 1.77976 1.15924 0
M  V30 9891 H 944.965 0.758503 0.568663 0
M  V30 9892 H 944.671 2.41905 2.55294 0
M  V30 9893 H 944.545 1.03689 3.62669 0
M  V30 9894 H 946.932 0.328284 2.93268 0
M  V30 9895 H 947.013 1.74265 1.87257 0
M  V30 9896 H 946.657 3.25437 3.8994 0
M  V30 9897 H 946.587 1.813 4.94407 0
M  V30 9898 H 949.078 1.67252 3.38874 0
M  V30 9899 H 949.391 3.96977 6.63045 0
M  V30 9900 H 947.736 3.56415 5.96652 0
M  V30 9901 H 950.927 2.14694 4.15962 0
M  V30 9902 H 951.1 3.19431 5.63798 0
M  V30 9903 N 944.506 -1.46559 0.579492 0
M  V30 9904 C 945.755 -2.01606 0.0615735 0
M  V30 9905 C 946.068 -1.45695 -1.30508 0
M  V30 9906 O 947.274 -1.92541 -1.91416 0
M  V30 9907 C 945.73 -3.59851 0.059496 0
M  V30 9908 C 945.338 -4.24757 1.42427 0
M  V30 9909 C 947.082 -4.22567 -0.404646 0
M  V30 9910 C 944.989 -5.75072 1.38009 0
M  V30 9911 H 943.919 -0.753754 0.0192491 0
M  V30 9912 H 946.57 -1.68326 0.73066 0
M  V30 9913 H 944.952 -3.90193 -0.675691 0
M  V30 9914 H 946.126 -4.06029 2.17893 0
M  V30 9915 H 944.441 -3.74121 1.82817 0
M  V30 9916 H 947.038 -5.32748 -0.456441 0
M  V30 9917 H 947.381 -3.91279 -1.42149 0
M  V30 9918 H 947.914 -3.96839 0.276376 0
M  V30 9919 H 944.653 -6.11014 2.37364 0
M  V30 9920 H 944.173 -5.96073 0.667583 0
M  V30 9921 H 945.852 -6.37724 1.09163 0
M  V30 9922 N 945.984 -0.3171 -1.54377 0
M  V30 9923 C 947.4 0.035766 -1.5956 0
M  V30 9924 C 947.6 1.51038 -1.33378 0
M  V30 9925 O 946.656 2.26546 -1.11505 0
M  V30 9926 C 947.969 -0.376652 -2.98332 0
M  V30 9927 C 949.517 -0.326765 -3.1129 0
M  V30 9928 C 949.992 -0.714247 -4.52396 0
M  V30 9929 N 951.483 -0.667402 -4.58367 0
M  V30 9930 C 952.218 -0.939494 -5.65651 0
M  V30 9931 N 951.714 -1.27839 -6.80903 0
M  V30 9932 N 953.507 -0.865484 -5.55397 0
M  V30 9933 H 945.658 -1.27794 -1.69654 0
M  V30 9934 H 947.921 -0.5192 -0.79318 0
M  V30 9935 H 947.627 -1.40381 -3.22469 0
M  V30 9936 H 947.501 0.261611 -3.76292 0
M  V30 9937 H 949.888 0.69117 -2.86892 0
M  V30 9938 H 949.969 -0.999873 -2.35449 0
M  V30 9939 H 949.613 -1.73007 -4.77526 0
M  V30 9940 H 949.543 -0.0188962 -5.26597 0
M  V30 9941 H 952.034 -0.417062 -3.75592 0
M  V30 9942 H 952.347 -1.47155 -7.5866 0
M  V30 9943 H 950.692 -1.31658 -6.82416 0
M  V30 9944 H 953.883 -0.600265 -4.64235 0
M  V30 9945 H 954.056 -1.0809 -6.38921 0
M  V30 9946 N 947.462 1.57535 -0.0451378 0
M  V30 9947 C 948.69 1.96761 0.639742 0
M  V30 9948 C 949.105 0.922405 1.64734 0
M  V30 9949 O 948.462 -0.0940535 1.82257 0
M  V30 9950 C 948.513 3.36066 1.33199 0
M  V30 9951 O 948.234 4.36579 0.364757 0
M  V30 9952 C 949.735 3.90015 2.1072 0
M  V30 9953 H 946.955 0.64769 0.175324 0
M  V30 9954 H 949.499 2.04206 -0.109651 0
M  V30 9955 H 947.654 3.2979 2.03266 0
M  V30 9956 H 948.068 5.17432 0.858168 0
M  V30 9957 H 949.542 4.89785 2.54586 0
M  V30 9958 H 950.019 3.25117 2.95288 0
M  V30 9959 H 950.625 3.99609 1.45577 0
M  V30 9960 N 948.94 -0.228186 1.55939 0
M  V30 9961 C 950.356 -0.577583 1.48782 0
M  V30 9962 C 950.556 -1.87461 0.738972 0
M  V30 9963 O 949.612 -2.50988 0.275929 0
M  V30 9964 C 950.925 -0.662961 2.93301 0
M  V30 9965 C 952.473 -0.754035 3.03782 0
M  V30 9966 C 952.948 -0.870815 4.49645 0
M  V30 9967 N 954.439 -0.935208 4.53661 0
M  V30 9968 C 955.174 -1.04516 5.63794 0
M  V30 9969 N 954.67 -1.11948 6.83696 0
M  V30 9970 N 956.463 -1.07978 5.51631 0
M  V30 9971 H 948.614 0.623018 2.03057 0
M  V30 9972 H 950.877 0.217692 0.922667 0
M  V30 9973 H 950.583 0.220375 3.51009 0
M  V30 9974 H 950.457 -1.52876 3.44831 0
M  V30 9975 H 952.844 -1.62782 2.46143 0
M  V30 9976 H 952.925 0.137301 2.55431 0
M  V30 9977 H 952.569 -0.0015186 5.079 0
M  V30 9978 H 952.499 -1.77747 4.95695 0
M  V30 9979 H 954.99 -0.88836 3.6731 0
M  V30 9980 H 955.303 -1.20297 7.6338 0
M  V30 9981 H 953.648 -1.08873 6.8642 0
M  V30 9982 H 956.839 -1.01833 4.56889 0
M  V30 9983 H 957.012 -1.16202 6.37496 0
M  V30 9984 N 950.418 -1.49637 -0.494624 0
M  V30 9985 C 951.834 -1.36541 -0.826361 0
M  V30 9986 C 952.034 -0.403386 -1.97421 0
M  V30 9987 O 951.09 0.162614 -2.51976 0
M  V30 9988 C 952.403 -2.77401 -1.16057 0
M  V30 9989 C 953.951 -2.86148 -1.26841 0
M  V30 9990 C 954.426 -4.27789 -1.63587 0
M  V30 9991 N 955.917 -4.3063 -1.70624 0
M  V30 9992 C 956.652 -5.37198 -2.00514 0
M  V30 9993 N 956.148 -6.54004 -2.28584 0
M  V30 9994 N 957.941 -5.2462 -2.01818 0
M  V30 9995 H 950.092 -2.10776 0.26219 0
M  V30 9996 H 952.355 -0.946419 0.0547235 0
M  V30 9997 H 952.061 -3.49526 -0.390434 0
M  V30 9998 H 951.935 -3.1317 -2.10249 0
M  V30 9999 H 954.322 -2.14256 -2.02925 0
M  V30 10000 H 954.403 -2.53953 -0.30684 0
M  V30 10001 H 954.047 -5.00209 -0.880507 0
M  V30 10002 H 953.977 -4.57453 -2.60854 0
M  V30 10003 H 956.468 -3.46393 -1.51065 0
M  V30 10004 H 956.781 -7.31041 -2.50598 0
M  V30 10005 H 955.126 -6.57219 -2.26027 0
M  V30 10006 H 958.317 -4.32371 -1.79369 0
M  V30 10007 H 958.49 -6.07765 -2.24778 0
M  V30 10008 N 951.896 0.746133 -1.38819 0
M  V30 10009 C 952.828 1.86991 -1.3254 0
M  V30 10010 C 953.841 1.61077 -0.236216 0
M  V30 10011 O 955.03 1.71518 -0.494341 0
M  V30 10012 C 952.13 3.22786 -1.03258 0
M  V30 10013 C 951.303 3.76145 -2.23234 0
M  V30 10014 C 950.362 4.90474 -1.90581 0
M  V30 10015 O 949.388 5.04717 -2.63153 0
M  V30 10016 N 950.59 5.74015 -0.86525 0
M  V30 10017 H 953.355 1.92885 -2.2938 0
M  V30 10018 H 950.916 0.926392 -1.32776 0
M  V30 10019 H 952.908 3.96824 -0.794533 0
M  V30 10020 H 951.478 3.12231 -0.151895 0
M  V30 10021 H 950.698 2.93587 -2.63059 0
M  V30 10022 H 951.986 4.08528 -3.03285 0
M  V30 10023 H 951.384 5.65086 -0.263577 0
M  V30 10024 H 949.941 6.48168 -0.687087 0
M  V30 10025 N 953.375 1.23811 0.975125 0
M  V30 10026 C 954.6 1.10109 1.75757 0
M  V30 10027 C 955.025 -0.342922 1.84948 0
M  V30 10028 O 954.383 -1.24814 1.31496 0
M  V30 10029 C 954.431 1.73724 3.15994 0
M  V30 10030 O 953.535 1.00297 4.00018 0
M  V30 10031 H 952.876 0.385627 0.540544 0
M  V30 10032 H 955.406 1.63971 1.22372 0
M  V30 10033 H 955.416 1.79178 3.6655 0
M  V30 10034 H 954.091 2.78794 3.0862 0
M  V30 10035 H 952.668 1.02575 3.58515 0
M  V30 10036 N 954.853 -1.17469 1.05066 0
M  V30 10037 C 956.078 -1.92162 0.780298 0
M  V30 10038 C 956.503 -1.76222 -0.657832 0
M  V30 10039 O 955.861 -1.0791 -1.45688 0
M  V30 10040 C 955.909 -3.41292 1.16414 0
M  V30 10041 O 955.013 -4.1134 0.295531 0
M  V30 10042 H 954.354 -0.599127 0.286257 0
M  V30 10043 H 956.884 -1.48903 1.40318 0
M  V30 10044 H 956.894 -3.92029 1.13036 0
M  V30 10045 H 955.569 -3.52214 2.21175 0
M  V30 10046 H 954.146 -3.70857 0.389797 0
M  V30 10047 N 956.331 -0.831506 -1.3388 0
M  V30 10048 C 957.579 -0.422837 -1.97627 0
M  V30 10049 C 957.9 1.01961 -1.6622 0
M  V30 10050 O 957.17 1.70916 -0.957323 0
M  V30 10051 H 955.75 -0.153365 -0.731087 0
M  V30 10052 H 958.412 -1.06284 -1.6337 0
M  V30 10053 H 957.508 -0.548858 -3.07236 0
M  V30 10054 N 957.809 1.4625 -0.587256 0
M  V30 10055 C 959.034 2.07252 -0.0784517 0
M  V30 10056 C 959.459 1.43239 1.21919 0
M  V30 10057 O 958.817 0.517791 1.73749 0
M  V30 10058 C 958.865 3.60534 0.0691037 0
M  V30 10059 O 957.969 3.96773 1.12448 0
M  V30 10060 H 957.31 0.660825 -0.064859 0
M  V30 10061 H 959.84 1.87819 -0.811491 0
M  V30 10062 H 959.85 4.0708 0.273826 0
M  V30 10063 H 958.525 4.06516 -0.878514 0
M  V30 10064 H 957.102 3.6193 0.897852 0
M  V30 10065 N 959.287 0.325282 1.54207 0
M  V30 10066 C 960.25 -0.527228 2.23054 0
M  V30 10067 C 961.25 -1.04217 1.22456 0
M  V30 10068 O 962.44 -0.934325 1.47024 0
M  V30 10069 C 959.572 -1.7325 2.93594 0
M  V30 10070 H 960.765 0.0746423 2.99807 0
M  V30 10071 H 958.318 0.0763872 1.56113 0
M  V30 10072 H 959.053 -2.37356 2.20981 0
M  V30 10073 H 958.838 -1.37065 3.67363 0
M  V30 10074 H 960.328 -2.3376 3.46043 0
M  V30 10075 N 960.765 -1.57509 0.0534917 0
M  V30 10076 C 961.993 -1.97098 -0.629298 0
M  V30 10077 C 962.408 -0.931128 -1.64242 0
M  V30 10078 O 961.765 0.0843866 -1.82305 0
M  V30 10079 C 961.816 -3.36767 -1.31415 0
M  V30 10080 O 961.537 -4.36766 -0.341599 0
M  V30 10081 C 963.038 -3.91127 -2.08649 0
M  V30 10082 H 960.258 -0.648611 -0.171886 0
M  V30 10083 H 962.802 -2.04145 0.120479 0
M  V30 10084 H 960.957 -3.30863 -2.01515 0
M  V30 10085 H 961.371 -5.1788 -0.830715 0
M  V30 10086 H 962.845 -4.91129 -2.51985 0
M  V30 10087 H 963.322 -3.26679 -2.9356 0
M  V30 10088 H 963.928 -4.00376 -1.43456 0
M  V30 10089 N 962.243 0.219913 -1.56058 0
M  V30 10090 C 963.191 1.29215 -1.93407 0
M  V30 10091 C 964.185 1.48434 -0.816307 0
M  V30 10092 O 965.391 1.49589 -1.00115 0
M  V30 10093 H 961.766 0.433256 -0.614649 0
M  V30 10094 H 963.737 0.949977 -2.82875 0
M  V30 10095 C 962.486 2.63501 -2.26854 0
M  V30 10096 H 961.809 2.4952 -3.12377 0
M  V30 10097 H 963.249 3.37334 -2.56869 0
M  V30 10098 C 961.708 3.18634 -1.09425 0
M  V30 10099 O 962.238 4.00117 -0.356243 0
M  V30 10100 N 960.444 2.7703 -0.877642 0
M  V30 10101 H 959.991 2.10875 -1.47951 0
M  V30 10102 H 959.949 3.1426 -0.0936792 0
M  V30 10103 N 963.721 1.49897 0.486681 0
M  V30 10104 C 964.967 1.60342 1.2417 0
M  V30 10105 C 965.3 0.295694 1.91936 0
M  V30 10106 O 964.575 -0.701788 1.81398 0
M  V30 10107 C 964.858 2.77281 2.29755 0
M  V30 10108 C 964.711 4.1789 1.66397 0
M  V30 10109 C 966.03 2.89817 3.31201 0
M  V30 10110 H 963.149 0.583605 0.450083 0
M  V30 10111 H 965.791 1.82232 0.537734 0
M  V30 10112 H 963.941 2.58748 2.89796 0
M  V30 10113 H 965.613 4.47975 1.10073 0
M  V30 10114 H 963.856 4.22872 0.967579 0
M  V30 10115 H 964.527 4.95612 2.43049 0
M  V30 10116 H 967.003 3.06732 2.81167 0
M  V30 10117 H 965.879 3.7329 4.02425 0
M  V30 10118 H 966.14 1.9977 3.94391 0
M  V30 10119 N 965.199 -0.738761 1.39212 0
M  V30 10120 C 966.162 -1.83441 1.37412 0
M  V30 10121 C 967.162 -1.58484 0.271908 0
M  V30 10122 O 968.352 -1.65954 0.529609 0
M  V30 10123 C 965.484 -3.21167 1.143 0
M  V30 10124 H 966.677 -1.86441 2.34904 0
M  V30 10125 H 964.23 -0.942023 1.24722 0
M  V30 10126 H 964.965 -3.23829 0.174756 0
M  V30 10127 H 964.75 -3.40678 1.94116 0
M  V30 10128 H 966.24 -4.01231 1.15773 0
M  V30 10129 N 966.677 -1.24326 -0.968545 0
M  V30 10130 C 967.902 -1.1104 -1.75171 0
M  V30 10131 C 968.327 0.333109 -1.85127 0
M  V30 10132 O 967.685 1.24115 -1.32156 0
M  V30 10133 C 967.733 -1.75397 -3.15068 0
M  V30 10134 O 966.837 -1.02417 -3.9948 0
M  V30 10135 H 966.178 -0.388488 -0.538491 0
M  V30 10136 H 968.708 -1.64617 -1.215 0
M  V30 10137 H 968.718 -1.8112 -3.65595 0
M  V30 10138 H 967.393 -2.80427 -3.07138 0
M  V30 10139 H 965.97 -1.04475 -3.57966 0
M  V30 10140 N 968.156 1.1691 -1.05688 0
M  V30 10141 C 969.384 1.91204 -0.790485 0
M  V30 10142 C 969.799 1.77095 0.654434 0
M  V30 10143 O 969.156 1.11146 1.44751 0
M  V30 10144 C 969.207 3.42108 -1.16808 0
M  V30 10145 O 968.928 3.55788 -2.55629 0
M  V30 10146 C 970.429 4.33466 -0.92855 0
M  V30 10147 H 967.649 0.606508 -0.287035 0
M  V30 10148 H 970.193 1.48225 -1.40888 0
M  V30 10149 H 968.348 3.82814 -0.59434 0
M  V30 10150 H 968.762 4.49321 -2.70575 0
M  V30 10151 H 970.236 5.37836 -1.24245 0
M  V30 10152 H 970.713 4.38989 0.136016 0
M  V30 10153 H 971.319 3.98481 -1.48638 0
M  V30 10154 N 969.634 0.838594 1.33437 0
M  V30 10155 C 971.045 0.490934 1.8013 0
M  V30 10156 C 971.396 -0.990024 1.6939 0
M  V30 10157 O 970.521 -1.77139 1.24302 0
M  V30 10158 C 971.116 0.884347 3.27055 0
M  V30 10159 C 969.675 0.588829 3.71766 0
M  V30 10160 C 968.822 1.09282 2.54858 0
M  V30 10161 H 971.773 1.02732 1.20962 0
M  V30 10162 H 971.794 0.194283 3.80004 0
M  V30 10163 H 971.306 1.96225 3.34839 0
M  V30 10164 H 969.407 -0.479018 3.69508 0
M  V30 10165 H 969.52 1.14387 4.65245 0
M  V30 10166 H 967.884 0.513702 2.49466 0
M  V30 10167 H 968.667 2.1775 2.65405 0
M  V30 10168 N 971.112 -1.45937 0.595003 0
M  V30 10169 C 972.389 -1.95592 0.0178748 0
M  V30 10170 C 972.769 -1.53758 -1.44643 0
M  V30 10171 O 972.117 -0.794104 -2.14257 0
M  V30 10172 C 972.327 -3.4841 0.202789 0
M  V30 10173 C 973.675 -4.2453 0.0770121 0
M  V30 10174 O 974.699 -3.55954 0.132257 0
M  V30 10175 O 973.558 -5.46479 -0.0484271 0
M  V30 10176 H 970.652 -0.825888 -0.0428702 0
M  V30 10177 H 973.198 -1.56162 0.664184 0
M  V30 10178 H 971.97 -3.71787 1.22027 0
M  V30 10179 H 971.593 -3.947 -0.479376 0
M  V30 10180 N 972.59 -0.333456 -1.54032 0
M  V30 10181 C 973.538 0.543414 -2.26163 0
M  V30 10182 C 974.532 1.11037 -1.27934 0
M  V30 10183 O 975.738 1.05727 -1.45677 0
M  V30 10184 H 972.113 0.19391 -0.726569 0
M  V30 10185 H 974.084 -0.0871052 -2.98273 0
M  V30 10186 C 972.833 1.68769 -3.03994 0
M  V30 10187 H 972.156 1.26069 -3.79403 0
M  V30 10188 H 973.596 2.27662 -3.57695 0
M  V30 10189 C 972.055 2.61117 -2.12884 0
M  V30 10190 O 972.585 3.63097 -1.71823 0
M  V30 10191 N 970.791 2.29573 -1.7817 0
M  V30 10192 H 970.338 1.46684 -2.11759 0
M  V30 10193 H 970.296 2.91622 -1.1749 0
M  V30 10194 N 974.068 1.57479 -0.061844 0
M  V30 10195 C 975.484 1.56855 0.294753 0
M  V30 10196 C 975.684 1.07042 1.70717 0
M  V30 10197 O 974.74 0.731817 2.41662 0
M  V30 10198 C 976.053 3.00486 0.113484 0
M  V30 10199 C 977.601 3.1246 0.183778 0
M  V30 10200 C 978.076 4.5799 0.0309092 0
M  V30 10201 N 979.567 4.63119 0.0868393 0
M  V30 10202 C 980.302 5.734 -0.00717446 0
M  V30 10203 N 979.798 6.92628 -0.154144 0
M  V30 10204 N 981.591 5.62078 0.0491763 0
M  V30 10205 H 973.742 1.88176 -0.985058 0
M  V30 10206 H 976.005 0.867051 -0.383309 0
M  V30 10207 H 975.711 3.41004 -0.86075 0
M  V30 10208 H 975.585 3.67029 0.870023 0
M  V30 10209 H 977.972 2.71834 1.14849 0
M  V30 10210 H 978.053 2.48574 -0.603697 0
M  V30 10211 H 977.697 4.99303 -0.930526 0
M  V30 10212 H 977.627 5.19895 0.837664 0
M  V30 10213 H 980.118 3.77374 0.199245 0
M  V30 10214 H 980.431 7.72492 -0.218296 0
M  V30 10215 H 978.776 6.94742 -0.189372 0
M  V30 10216 H 981.967 4.67817 0.162626 0
M  V30 10217 H 982.14 6.47994 -0.0275478 0
M  V30 10218 N 975.546 -0.211634 1.56173 0
M  V30 10219 C 976.794 -0.932704 1.7929 0
M  V30 10220 C 977.115 -1.84472 0.632076 0
M  V30 10221 O 976.385 -1.92739 -0.350519 0
M  V30 10222 H 974.965 -0.347393 0.661307 0
M  V30 10223 H 977.627 -0.22111 1.93642 0
M  V30 10224 H 976.723 -1.53365 2.71819 0
M  V30 10225 N 977.024 -1.50153 -0.478725 0
M  V30 10226 C 978.44 -1.3741 -0.811833 0
M  V30 10227 C 978.64 -0.424303 -1.96982 0
M  V30 10228 O 977.696 0.13588 -2.52134 0
M  V30 10229 C 979.009 -2.78616 -1.13108 0
M  V30 10230 C 980.557 -2.87477 -1.23798 0
M  V30 10231 C 981.032 -4.295 -1.5904 0
M  V30 10232 N 982.523 -4.32415 -1.66047 0
M  V30 10233 C 983.258 -5.39295 -1.94805 0
M  V30 10234 N 982.754 -6.56392 -2.21635 0
M  V30 10235 N 984.547 -5.26731 -1.96243 0
M  V30 10236 H 976.698 -2.10486 0.284531 0
M  V30 10237 H 978.961 -0.945786 0.0647585 0
M  V30 10238 H 978.667 -3.49921 -0.35334 0
M  V30 10239 H 978.541 -3.15382 -2.06915 0
M  V30 10240 H 980.928 -2.16396 -2.00641 0
M  V30 10241 H 981.009 -2.54264 -0.279888 0
M  V30 10242 H 980.653 -5.01115 -0.827404 0
M  V30 10243 H 980.583 -4.60194 -2.55987 0
M  V30 10244 H 983.074 -3.47975 -1.47383 0
M  V30 10245 H 983.387 -7.33658 -2.4283 0
M  V30 10246 H 981.732 -6.59579 -2.19043 0
M  V30 10247 H 984.923 -4.34249 -1.74773 0
M  V30 10248 H 985.096 -6.10115 -2.1832 0
M  V30 10249 N 978.502 0.731368 -1.39602 0
M  V30 10250 C 979.727 1.52567 -1.40492 0
M  V30 10251 C 980.152 1.881 -0.00228828 0
M  V30 10252 O 979.51 1.52167 0.985643 0
M  V30 10253 C 979.558 2.78749 -2.2876 0
M  V30 10254 O 978.662 3.7482 -1.71999 0
M  V30 10255 H 978.003 0.460601 -0.478271 0
M  V30 10256 H 980.533 0.902042 -1.83642 0
M  V30 10257 H 980.543 3.27446 -2.43399 0
M  V30 10258 H 979.218 2.5222 -3.30693 0
M  V30 10259 H 977.795 3.33604 -1.66622 0
M  V30 10260 N 979.98 1.24838 0.961938 0
M  V30 10261 C 981.396 1.01502 1.23165 0
M  V30 10262 C 981.596 -0.272651 1.99647 0
M  V30 10263 O 980.652 -0.987297 2.32398 0
M  V30 10264 C 981.965 2.23366 2.01316 0
M  V30 10265 C 983.513 2.28051 2.14387 0
M  V30 10266 C 983.988 3.49552 2.95935 0
M  V30 10267 N 985.479 3.49904 3.03515 0
M  V30 10268 C 986.214 4.40577 3.66987 0
M  V30 10269 N 985.71 5.41512 4.3213 0
M  V30 10270 N 987.503 4.28275 3.64056 0
M  V30 10271 H 979.654 2.07576 0.450086 0
M  V30 10272 H 981.917 0.911205 0.261551 0
M  V30 10273 H 981.623 3.16913 1.5251 0
M  V30 10274 H 981.497 2.25949 3.02038 0
M  V30 10275 H 983.884 1.35032 2.62393 0
M  V30 10276 H 983.965 2.29491 1.12994 0
M  V30 10277 H 983.609 4.42889 2.4862 0
M  V30 10278 H 983.539 3.45357 3.97538 0
M  V30 10279 H 986.03 2.76885 2.57183 0
M  V30 10280 H 986.343 6.06924 4.78396 0
M  V30 10281 H 984.688 5.45393 4.3078 0
M  V30 10282 H 987.879 3.48653 3.12344 0
M  V30 10283 H 988.052 4.99138 4.13237 0
M  V30 10284 N 981.458 -1.16348 1.06306 0
M  V30 10285 C 982.421 -2.18941 0.678053 0
M  V30 10286 C 983.421 -1.58409 -0.276277 0
M  V30 10287 O 984.611 -1.74101 -0.0586435 0
M  V30 10288 C 981.743 -3.409 -0.00228684 0
M  V30 10289 H 982.936 -2.54516 1.58624 0
M  V30 10290 H 980.489 -1.30625 0.858298 0
M  V30 10291 H 981.224 -3.10881 -0.923212 0
M  V30 10292 H 981.009 -3.86089 0.683949 0
M  V30 10293 H 982.499 -4.16806 -0.257374 0
M  V30 10294 N 982.937 -0.845659 -1.3299 0
M  V30 10295 C 983.884 -0.281761 -2.29074 0
M  V30 10296 C 984.854 0.606237 -1.54641 0
M  V30 10297 O 986.039 0.543063 -1.82908 0
M  V30 10298 C 983.179 0.531451 -3.40983 0
M  V30 10299 C 982.292 -0.381328 -4.30314 0
M  V30 10300 C 981.427 0.443643 -5.29344 0
M  V30 10301 C 980.466 -0.467101 -6.10315 0
M  V30 10302 N 979.603 0.320148 -7.0137 0
M  V30 10303 H 984.443 -1.10641 -2.76699 0
M  V30 10304 H 981.98 -0.55706 -1.36144 0
M  V30 10305 H 983.938 1.01848 -4.04577 0
M  V30 10306 H 982.568 1.32101 -2.94532 0
M  V30 10307 H 981.62 -0.986701 -3.6738 0
M  V30 10308 H 982.932 -1.08067 -4.86953 0
M  V30 10309 H 982.086 0.994212 -5.98498 0
M  V30 10310 H 980.825 1.17639 -4.73299 0
M  V30 10311 H 979.83 -1.02963 -5.40073 0
M  V30 10312 H 981.055 -1.19832 -6.68444 0
M  V30 10313 H 979.001 1.03615 -6.47765 0
M  V30 10314 H 978.918 -0.320338 -7.55321 0
M  V30 10315 H 980.186 0.852735 -7.74822 0
M  V30 10316 N 984.415 1.45619 -0.602734 0
M  V30 10317 C 985.661 2.02572 -0.0961759 0
M  V30 10318 C 985.994 1.47076 1.26815 0
M  V30 10319 O 985.269 0.643566 1.83544 0
M  V30 10320 C 985.552 3.60062 -0.0520032 0
M  V30 10321 C 985.405 4.25901 -1.44665 0
M  V30 10322 C 986.724 4.35446 0.638342 0
M  V30 10323 H 983.843 0.736099 -0.0364238 0
M  V30 10324 H 986.485 1.7353 -0.773776 0
M  V30 10325 H 984.635 3.84936 0.525032 0
M  V30 10326 H 986.307 4.12228 -2.0704 0
M  V30 10327 H 984.55 3.84489 -2.00874 0
M  V30 10328 H 985.221 5.34779 -1.36803 0
M  V30 10329 H 987.697 4.15837 0.147926 0
M  V30 10330 H 986.573 5.45176 0.63834 0
M  V30 10331 H 986.834 4.07962 1.70351 0
M  V30 10332 N 985.893 0.34162 1.53853 0
M  V30 10333 C 987.139 -0.255862 2.01179 0
M  V30 10334 C 987.472 -1.50356 1.22909 0
M  V30 10335 O 986.747 -1.91913 0.316198 0
M  V30 10336 C 987.03 -0.571934 3.55529 0
M  V30 10337 C 986.883 0.687727 4.44511 0
M  V30 10338 C 988.202 -1.38233 4.17827 0
M  V30 10339 H 985.321 -0.091521 0.731295 0
M  V30 10340 H 987.963 0.461775 1.84303 0
M  V30 10341 H 986.113 -1.18331 3.70041 0
M  V30 10342 H 987.785 1.32572 4.4184 0
M  V30 10343 H 986.028 1.313 4.13452 0
M  V30 10344 H 986.699 0.421858 5.50386 0
M  V30 10345 H 989.175 -0.865374 4.07002 0
M  V30 10346 H 988.051 -1.57223 5.25901 0
M  V30 10347 H 988.312 -2.38386 3.72323 0
M  V30 10348 N 987.371 -1.57444 0.0701946 0
M  V30 10349 C 988.596 -1.98171 -0.61181 0
M  V30 10350 C 989.021 -0.94823 -1.62451 0
M  V30 10351 O 988.379 0.0863553 -1.81094 0
M  V30 10352 C 988.427 -3.37934 -1.2583 0
M  V30 10353 O 987.531 -3.37207 -2.37414 0
M  V30 10354 H 986.872 -0.645056 -0.157477 0
M  V30 10355 H 989.402 -2.04091 0.144235 0
M  V30 10356 H 989.412 -3.75083 -1.60552 0
M  V30 10357 H 988.087 -4.12684 -0.516234 0
M  V30 10358 H 986.664 -3.11826 -2.04497 0
M  V30 10359 N 988.849 0.203349 -1.56283 0
M  V30 10360 C 989.781 1.27592 -1.90402 0
M  V30 10361 C 990.794 1.4213 -0.79391 0
M  V30 10362 O 991.983 1.42703 -1.07229 0
M  V30 10363 C 989.083 2.64919 -2.11356 0
M  V30 10364 C 988.256 2.72095 -3.42466 0
M  V30 10365 C 987.315 3.9056 -3.52631 0
M  V30 10366 O 986.341 3.78048 -4.25521 0
M  V30 10367 N 987.543 5.0566 -2.85111 0
M  V30 10368 H 990.308 0.986423 -2.83001 0
M  V30 10369 H 987.869 0.39331 -1.5705 0
M  V30 10370 H 989.861 3.42581 -2.15453 0
M  V30 10371 H 988.431 2.86391 -1.25295 0
M  V30 10372 H 987.651 1.8077 -3.50308 0
M  V30 10373 H 988.939 2.73874 -4.28801 0
M  V30 10374 H 988.337 5.18723 -2.25705 0
M  V30 10375 H 986.894 5.81299 -2.94847 0
M  V30 10376 N 990.327 1.50405 0.470755 0
M  V30 10377 C 991.552 1.65442 1.25075 0
M  V30 10378 C 991.977 0.337612 1.85045 0
M  V30 10379 O 991.335 -0.698555 1.67302 0
M  V30 10380 C 991.383 2.74793 2.33498 0
M  V30 10381 O 990.487 2.36069 3.3815 0
M  V30 10382 H 989.828 0.552728 0.367951 0
M  V30 10383 H 992.358 1.96782 0.560177 0
M  V30 10384 H 992.368 2.97879 2.78804 0
M  V30 10385 H 991.043 3.70363 1.8922 0
M  V30 10386 H 989.62 2.2343 2.98552 0
M  V30 10387 N 991.805 -0.723954 1.39988 0
M  V30 10388 C 992.737 -1.84859 1.35498 0
M  V30 10389 C 993.75 -1.60681 0.261812 0
M  V30 10390 O 994.939 -1.7071 0.521566 0
M  V30 10391 C 992.039 -3.21103 1.08381 0
M  V30 10392 C 991.212 -3.72546 2.2919 0
M  V30 10393 C 990.271 -4.8738 1.9836 0
M  V30 10394 O 989.297 -5.00467 2.71149 0
M  V30 10395 N 990.499 -5.72566 0.956461 0
M  V30 10396 H 993.264 -1.89212 2.3242 0
M  V30 10397 H 990.825 -0.905152 1.34233 0
M  V30 10398 H 992.817 -3.9551 0.857564 0
M  V30 10399 H 991.387 -3.1195 0.201549 0
M  V30 10400 H 990.607 -2.89365 2.67697 0
M  V30 10401 H 991.895 -4.03652 3.09746 0
M  V30 10402 H 991.293 -5.64595 0.353444 0
M  V30 10403 H 989.85 -6.46993 0.790118 0
M  V30 10404 N 993.283 -1.25346 -0.955304 0
M  V30 10405 C 994.699 -1.02154 -1.22625 0
M  V30 10406 C 994.899 0.26206 -1.99789 0
M  V30 10407 O 993.955 0.974958 -2.32918 0
M  V30 10408 C 995.268 -2.2443 -2.00129 0
M  V30 10409 C 996.816 -2.29185 -2.13174 0
M  V30 10410 C 997.291 -3.51117 -2.94077 0
M  V30 10411 N 998.782 -3.51509 -3.01655 0
M  V30 10412 C 999.517 -4.42517 -3.64645 0
M  V30 10413 N 999.013 -5.43796 -4.29252 0
M  V30 10414 N 1000.81 -4.302 -3.61779 0
M  V30 10415 H 992.957 -2.07812 -0.439071 0
M  V30 10416 H 995.22 -0.91258 -0.256715 0
M  V30 10417 H 994.926 -3.17717 -1.50827 0
M  V30 10418 H 994.8 -2.27548 -3.00835 0
M  V30 10419 H 997.187 -1.36422 -2.61674 0
M  V30 10420 H 997.268 -2.30087 -1.11775 0
M  V30 10421 H 996.912 -4.44201 -2.46268 0
M  V30 10422 H 996.842 -3.4746 -3.95701 0
M  V30 10423 H 999.333 -2.78245 -2.55711 0
M  V30 10424 H 999.646 -6.09453 -4.75171 0
M  V30 10425 H 997.991 -5.4767 -4.27882 0
M  V30 10426 H 1001.18 -3.50304 -3.10491 0
M  V30 10427 H 1001.36 -5.01323 -4.10584 0
M  V30 10428 N 994.761 1.15782 -1.06922 0
M  V30 10429 C 995.986 1.90896 -0.810771 0
M  V30 10430 C 996.411 1.77246 0.629714 0
M  V30 10431 O 995.769 1.10215 1.43953 0
M  V30 10432 C 995.817 3.39397 -1.21829 0
M  V30 10433 O 994.921 4.10818 -0.360934 0
M  V30 10434 H 994.262 0.594497 -0.295752 0
M  V30 10435 H 996.792 1.46652 -1.42669 0
M  V30 10436 H 996.802 3.90181 -1.19259 0
M  V30 10437 H 995.477 3.4865 -2.2675 0
M  V30 10438 H 994.054 3.7019 -0.448748 0
M  V30 10439 N 996.239 0.8527 1.3254 0
M  V30 10440 C 997.655 0.542298 1.50104 0
M  V30 10441 C 997.855 -0.927465 1.78886 0
M  V30 10442 O 996.911 -1.7106 1.85728 0
M  V30 10443 C 998.224 1.4276 2.64651 0
M  V30 10444 C 999.772 1.42782 2.78536 0
M  V30 10445 C 1000.25 2.29828 3.9616 0
M  V30 10446 N 1001.74 2.27613 4.03418 0
M  V30 10447 C 1002.47 2.91696 4.93661 0
M  V30 10448 N 1001.97 3.64883 5.88925 0
M  V30 10449 N 1003.76 2.81094 4.86768 0
M  V30 10450 H 995.913 1.80395 1.12123 0
M  V30 10451 H 998.176 0.770394 0.552446 0
M  V30 10452 H 997.882 2.47266 2.50105 0
M  V30 10453 H 997.756 1.11358 3.60388 0
M  V30 10454 H 1000.14 0.390417 2.92506 0
M  V30 10455 H 1000.22 1.78198 1.83519 0
M  V30 10456 H 999.868 3.33635 3.82949 0
M  V30 10457 H 999.798 1.91746 4.9045 0
M  V30 10458 H 1002.29 1.74402 3.3525 0
M  V30 10459 H 1002.6 4.10952 6.54476 0
M  V30 10460 H 1000.95 3.68991 5.88957 0
M  V30 10461 H 1004.14 2.23469 4.11314 0
M  V30 10462 H 1004.31 3.31318 5.56895 0
M  V30 10463 N 997.718 -1.45297 0.610449 0
M  V30 10464 C 998.943 -2.07101 0.111414 0
M  V30 10465 C 999.368 -1.45161 -1.19625 0
M  V30 10466 O 998.726 -0.545368 -1.72903 0
M  V30 10467 C 998.774 -3.60598 -0.0117372 0
M  V30 10468 O 997.878 -3.98512 -1.06122 0
M  V30 10469 H 997.219 -0.659709 0.075364 0
M  V30 10470 H 999.749 -1.86504 0.841269 0
M  V30 10471 H 999.759 -4.07464 -0.209028 0
M  V30 10472 H 998.434 -4.05067 0.943076 0
M  V30 10473 H 997.011 -3.63312 -0.840158 0
M  V30 10474 N 999.196 -0.349774 -1.5367 0
M  V30 10475 C 1000.16 0.491676 -2.23864 0
M  V30 10476 C 1001.16 1.02256 -1.24098 0
M  V30 10477 O 1002.35 0.910816 -1.48492 0
M  V30 10478 C 999.481 1.68557 -2.96313 0
M  V30 10479 H 1000.67 -0.12233 -2.9965 0
M  V30 10480 H 998.227 -0.101214 -1.55972 0
M  V30 10481 H 998.962 2.3381 -2.2473 0
M  V30 10482 H 998.747 1.31203 -3.69497 0
M  V30 10483 H 1000.24 2.28225 -3.49718 0
M  V30 10484 N 1000.67 1.57404 -0.0785433 0
M  V30 10485 C 1001.62 2.14316 0.903949 0
M  V30 10486 C 1002.62 1.08176 1.30362 0
M  V30 10487 O 1003.82 1.26546 1.28008 0
M  V30 10488 H 1000.2 0.685367 0.309477 0
M  V30 10489 H 1002.17 2.95719 0.399081 0
M  V30 10490 C 1000.92 2.72504 2.15956 0
M  V30 10491 H 1000.24 3.53853 1.86087 0
M  V30 10492 H 1001.68 3.15914 2.82798 0
M  V30 10493 C 1000.14 1.6759 2.92259 0
M  V30 10494 O 1000.67 1.10492 3.86205 0
M  V30 10495 N 998.875 1.38467 2.5549 0
M  V30 10496 H 998.422 1.85088 1.79166 0
M  V30 10497 H 998.38 0.685053 3.06846 0
M  V30 10498 N 1002.15 -0.195058 1.56388 0
M  V30 10499 C 1003.56 -0.75973 1.70543 0
M  V30 10500 C 1003.91 -1.83849 0.685118 0
M  V30 10501 O 1003.04 -2.15819 -0.158457 0
M  V30 10502 C 1003.63 -1.38485 3.09204 0
M  V30 10503 C 1002.19 -1.89661 3.25124 0
M  V30 10504 C 1001.34 -0.766563 2.66494 0
M  V30 10505 H 1004.29 0.0300148 1.58672 0
M  V30 10506 H 1004.31 -2.25424 3.06536 0
M  V30 10507 H 1003.82 -0.599479 3.83442 0
M  V30 10508 H 1001.92 -2.70917 2.55802 0
M  V30 10509 H 1002.04 -2.05837 4.32629 0
M  V30 10510 H 1000.4 -1.18086 2.25672 0
M  V30 10511 H 1001.18 0.00657102 3.43299 0
M  V30 10512 N 1003.63 -1.50653 -0.462772 0
M  V30 10513 C 1004.59 -1.69561 -1.54213 0
M  V30 10514 C 1005.59 -0.566106 -1.50505 0
M  V30 10515 O 1006.78 -0.833273 -1.52978 0
M  V30 10516 C 1003.91 -1.72856 -2.93826 0
M  V30 10517 H 1005.11 -2.65867 -1.38761 0
M  V30 10518 H 1002.66 -1.40259 -0.689728 0
M  V30 10519 H 1003.4 -0.78273 -3.14712 0
M  V30 10520 H 1003.18 -2.54919 -2.97924 0
M  V30 10521 H 1004.67 -1.89411 -3.72174 0
M  V30 10522 N 1005.11 0.71652 -1.4037 0
M  V30 10523 C 1006.36 1.47347 -1.38324 0
M  V30 10524 C 1006.68 1.94995 0.0139949 0
M  V30 10525 O 1005.95 1.7028 0.968585 0
M  V30 10526 H 1004.53 0.546662 -0.509087 0
M  V30 10527 H 1007.19 0.849455 -1.75415 0
M  V30 10528 H 1006.29 2.34675 -2.05752 0
M  V30 10529 N 1006.59 1.25851 0.948643 0
M  V30 10530 C 1007.55 1.0683 2.0278 0
M  V30 10531 C 1008.55 0.0191016 1.60789 0
M  V30 10532 O 1009.74 0.261836 1.72221 0
M  V30 10533 C 1006.87 0.623318 3.35153 0
M  V30 10534 H 1008.06 2.02635 2.21086 0
M  V30 10535 H 1005.62 1.08343 1.12657 0
M  V30 10536 H 1006.35 -0.337053 3.22544 0
M  V30 10537 H 1006.14 1.38082 3.66982 0
M  V30 10538 H 1007.63 0.511854 4.14451 0
M  V30 10539 N 1008.06 -1.15214 1.07534 0
M  V30 10540 C 1009.31 -1.85676 0.79805 0
M  V30 10541 C 1009.63 -1.82837 -0.677919 0
M  V30 10542 O 1008.9 -1.27059 -1.49107 0
M  V30 10543 H 1007.48 -0.687468 0.292227 0
M  V30 10544 H 1010.15 -1.39658 1.35947 0
M  V30 10545 H 1009.24 -2.9076 1.13423 0
M  V30 10546 N 1009.54 -0.859717 -1.32086 0
M  V30 10547 C 1010.77 -0.478865 -2.01796 0
M  V30 10548 C 1011.19 0.918274 -1.64163 0
M  V30 10549 O 1010.55 1.60409 -0.844896 0
M  V30 10550 C 1010.6 -0.631356 -3.5503 0
M  V30 10551 O 1009.7 0.333712 -4.11048 0
M  V30 10552 H 1009.04 -0.191775 -0.635703 0
M  V30 10553 H 1011.57 -1.16031 -1.68517 0
M  V30 10554 H 1011.58 -0.520783 -4.04663 0
M  V30 10555 H 1010.26 -1.65015 -3.81763 0
M  V30 10556 H 1008.84 0.178953 -3.7247 0
M  V30 10557 N 1011.02 1.44971 -0.618145 0
M  V30 10558 C 1012.44 1.57077 -0.282666 0
M  V30 10559 C 1012.64 1.60782 1.21456 0
M  V30 10560 O 1011.69 1.54382 1.99806 0
M  V30 10561 C 1013.01 2.84858 -0.963148 0
M  V30 10562 C 1014.55 2.9855 -0.940062 0
M  V30 10563 C 1015.03 4.29115 -1.60076 0
M  V30 10564 N 1016.52 4.35899 -1.56674 0
M  V30 10565 C 1017.25 5.35617 -2.04701 0
M  V30 10566 N 1016.75 6.41813 -2.6086 0
M  V30 10567 N 1018.54 5.27042 -1.95406 0
M  V30 10568 H 1010.69 1.4081 -1.59017 0
M  V30 10569 H 1012.96 0.673914 -0.666741 0
M  V30 10570 H 1012.66 2.88059 -2.0178 0
M  V30 10571 H 1012.54 3.73966 -0.492901 0
M  V30 10572 H 1014.92 2.94909 0.10607 0
M  V30 10573 H 1015.01 2.10825 -1.44868 0
M  V30 10574 H 1014.65 4.33514 -2.64627 0
M  V30 10575 H 1014.58 5.15675 -1.06708 0
M  V30 10576 H 1017.07 3.59766 -1.15659 0
M  V30 10577 H 1017.38 7.14166 -2.95273 0
M  V30 10578 H 1015.73 6.42534 -2.64905 0
M  V30 10579 H 1018.92 4.42987 -1.51263 0
M  V30 10580 H 1019.09 6.04604 -2.33147 0
M  V30 10581 N 1012.5 0.357919 1.53482 0
M  V30 10582 C 1013.72 -0.237769 2.06033 0
M  V30 10583 C 1014.15 -1.42292 1.23023 0
M  V30 10584 O 1013.51 -1.79604 0.247427 0
M  V30 10585 C 1013.55 -0.616806 3.55286 0
M  V30 10586 O 1012.66 -1.71503 3.75047 0
M  V30 10587 H 1012 -0.0364322 0.663 0
M  V30 10588 H 1014.53 0.516301 1.97979 0
M  V30 10589 H 1014.54 -0.88996 3.98175 0
M  V30 10590 H 1013.21 0.249825 4.15149 0
M  V30 10591 H 1011.79 -1.43803 3.44057 0
M  V30 10592 N 1013.98 -1.5736 0.0868897 0
M  V30 10593 C 1015.2 -1.98809 -0.590757 0
M  V30 10594 C 1015.63 -0.965407 -1.61436 0
M  V30 10595 O 1014.98 0.067143 -1.81176 0
M  V30 10596 C 1015.03 -3.39249 -1.22238 0
M  V30 10597 O 1014.14 -3.39706 -2.33824 0
M  V30 10598 H 1013.48 -0.64669 -0.150626 0
M  V30 10599 H 1016.01 -2.03927 0.165873 0
M  V30 10600 H 1016.02 -3.76765 -1.56564 0
M  V30 10601 H 1014.69 -4.13208 -0.472434 0
M  V30 10602 H 1013.27 -3.13977 -2.01178 0
M  V30 10603 N 1015.45 0.186762 -1.56489 0
M  V30 10604 C 1016.68 0.925916 -1.85584 0
M  V30 10605 C 1017.1 1.75708 -0.671446 0
M  V30 10606 O 1016.46 1.7728 0.379687 0
M  V30 10607 C 1016.51 1.79107 -3.12975 0
M  V30 10608 O 1015.61 2.89088 -2.94112 0
M  V30 10609 H 1014.96 0.260275 -0.610863 0
M  V30 10610 H 1017.49 0.189561 -2.0372 0
M  V30 10611 H 1017.5 2.19408 -3.43983 0
M  V30 10612 H 1016.17 1.18044 -3.98796 0
M  V30 10613 H 1014.75 2.52482 -2.74422 0
M  V30 10614 N 1016.93 1.50896 0.454776 0
M  V30 10615 C 1018.34 1.55372 1.0352 0
M  V30 10616 C 1018.69 0.366822 1.9274 0
M  V30 10617 O 1017.82 -0.518444 2.10098 0
M  V30 10618 C 1018.41 2.81574 1.88418 0
M  V30 10619 C 1016.97 2.88679 2.4154 0
M  V30 10620 C 1016.12 2.49847 1.20298 0
M  V30 10621 H 1019.07 1.56924 0.236729 0
M  V30 10622 H 1019.09 2.64352 2.73676 0
M  V30 10623 H 1018.6 3.67941 1.23455 0
M  V30 10624 H 1016.71 2.06702 3.10008 0
M  V30 10625 H 1016.82 3.91944 2.7553 0
M  V30 10626 H 1015.18 2.02651 1.54288 0
M  V30 10627 H 1015.97 3.3854 0.569723 0
M  V30 10628 N 1018.41 -0.709066 1.40748 0
M  V30 10629 C 1019.66 -1.46611 1.39103 0
M  V30 10630 C 1019.98 -1.95 -0.00365366 0
M  V30 10631 O 1019.25 -1.70791 -0.959541 0
M  V30 10632 H 1017.83 -0.543954 0.511979 0
M  V30 10633 H 1020.49 -0.840141 1.75863 0
M  V30 10634 H 1019.59 -2.33581 2.06994 0
M  V30 10635 N 1019.89 -1.26353 -0.941956 0
M  V30 10636 C 1020.84 -1.07842 -2.04056 0
M  V30 10637 C 1021.81 0.0163064 -1.66092 0
M  V30 10638 O 1022.99 -0.143313 -1.90261 0
M  V30 10639 C 1020.13 -0.716636 -3.37577 0
M  V30 10640 C 1019.24 -1.88754 -3.88582 0
M  V30 10641 C 1018.38 -1.46893 -5.10486 0
M  V30 10642 C 1017.42 -2.60819 -5.53751 0
M  V30 10643 N 1016.56 -2.19646 -6.66858 0
M  V30 10644 H 1021.4 -2.01856 -2.19221 0
M  V30 10645 H 1018.93 -1.00504 -1.07412 0
M  V30 10646 H 1020.89 -0.487768 -4.14339 0
M  V30 10647 H 1019.52 0.18653 -3.22261 0
M  V30 10648 H 1018.57 -2.22936 -3.08227 0
M  V30 10649 H 1019.88 -2.74264 -4.1663 0
M  V30 10650 H 1019.04 -1.20047 -5.94705 0
M  V30 10651 H 1017.78 -0.584721 -4.84182 0
M  V30 10652 H 1016.78 -2.88396 -4.6809 0
M  V30 10653 H 1018.01 -3.49838 -5.82057 0
M  V30 10654 H 1015.95 -1.33657 -6.4224 0
M  V30 10655 H 1015.87 -2.987 -6.94489 0
M  V30 10656 H 1017.14 -1.96009 -7.54454 0
M  V30 10657 N 1021.37 1.14642 -1.08144 0
M  V30 10658 C 1022.3 2.21775 -0.730609 0
M  V30 10659 C 1023.28 1.67683 0.285702 0
M  V30 10660 O 1024.46 1.93567 0.156667 0
M  V30 10661 C 1021.59 3.47033 -0.136242 0
M  V30 10662 C 1020.55 4.14134 -1.0806 0
M  V30 10663 C 1019.87 5.33563 -0.348585 0
M  V30 10664 C 1021.17 4.62978 -2.41761 0
M  V30 10665 H 1022.87 2.51378 -1.62633 0
M  V30 10666 H 1020.41 1.20825 -0.783411 0
M  V30 10667 H 1022.37 4.21226 0.121182 0
M  V30 10668 H 1021.09 3.16786 0.7946 0
M  V30 10669 H 1019.75 3.41892 -1.32308 0
M  V30 10670 H 1019.4 4.99575 0.585974 0
M  V30 10671 H 1019.1 5.79402 -0.978122 0
M  V30 10672 H 1020.62 6.10519 -0.0991508 0
M  V30 10673 H 1022.04 5.28659 -2.21795 0
M  V30 10674 H 1020.43 5.1951 -3.00383 0
M  V30 10675 H 1021.5 3.78189 -3.03482 0
M  V30 10676 N 1022.85 0.866709 1.31628 0
M  V30 10677 C 1023.78 0.335762 2.31073 0
M  V30 10678 C 1024.76 -0.571597 1.60209 0
M  V30 10679 O 1025.94 -0.489306 1.87935 0
M  V30 10680 C 1023.07 -0.466416 3.44154 0
M  V30 10681 C 1022.03 0.347561 4.26586 0
M  V30 10682 C 1021.35 -0.5801 5.31544 0
M  V30 10683 C 1022.65 1.57986 4.97833 0
M  V30 10684 H 1024.35 1.16673 2.75731 0
M  V30 10685 H 1021.89 0.56248 1.3256 0
M  V30 10686 H 1023.84 -0.84836 4.12772 0
M  V30 10687 H 1022.57 -1.33086 2.98254 0
M  V30 10688 H 1021.23 0.71141 3.59631 0
M  V30 10689 H 1020.88 -1.44174 4.81895 0
M  V30 10690 H 1020.58 -0.0393965 5.87587 0
M  V30 10691 H 1022.1 -0.958958 6.03023 0
M  V30 10692 H 1023.51 1.26954 5.59067 0
M  V30 10693 H 1021.91 2.05939 5.63657 0
M  V30 10694 H 1022.98 2.3345 4.25005 0
M  V30 10695 N 1024.32 -1.44642 0.625825 0
M  V30 10696 C 1025.57 -2.01695 0.127948 0
M  V30 10697 C 1025.89 -1.49439 -1.25271 0
M  V30 10698 O 1025.16 -0.695873 -1.83124 0
M  V30 10699 H 1023.74 -0.745685 0.0443096 0
M  V30 10700 H 1026.4 -1.7721 0.811332 0
M  V30 10701 H 1025.5 -3.11966 0.0915933 0
M  V30 10702 N 1025.8 -0.366053 -1.5329 0
M  V30 10703 C 1027.03 0.226839 -2.06156 0
M  V30 10704 C 1027.45 1.41637 -1.23776 0
M  V30 10705 O 1026.81 1.7947 -0.256948 0
M  V30 10706 C 1026.86 0.597956 -3.55608 0
M  V30 10707 O 1025.96 1.69512 -3.75951 0
M  V30 10708 H 1025.3 0.0329156 -0.663184 0
M  V30 10709 H 1027.83 -0.526793 -1.97702 0
M  V30 10710 H 1027.84 0.868831 -3.98642 0
M  V30 10711 H 1026.52 -0.271838 -4.15011 0
M  V30 10712 H 1025.09 1.41976 -3.44815 0
M  V30 10713 N 1027.28 1.57312 -0.0952337 0
M  V30 10714 C 1028.53 1.93974 0.567319 0
M  V30 10715 C 1028.85 0.977805 1.68713 0
M  V30 10716 O 1028.12 0.0298944 1.95877 0
M  V30 10717 H 1026.7 0.71612 0.212558 0
M  V30 10718 H 1029.36 1.94254 -0.158598 0
M  V30 10719 H 1028.46 2.964 0.977423 0
M  V30 10720 N 1028.76 -0.17846 1.56586 0
M  V30 10721 C 1029.99 -0.910674 1.85446 0
M  V30 10722 C 1030.4 -1.76647 0.677675 0
M  V30 10723 O 1029.74 -1.80086 -0.362584 0
M  V30 10724 C 1029.8 -1.84363 3.08627 0
M  V30 10725 C 1029.46 -1.16814 4.41818 0
M  V30 10726 C 1030.46 -0.53703 5.17119 0
M  V30 10727 C 1028.15 -1.16703 4.88555 0
M  V30 10728 C 1030.14 0.0861778 6.37342 0
M  V30 10729 C 1027.83 -0.539992 6.0871 0
M  V30 10730 C 1028.83 0.0855135 6.82946 0
M  V30 10731 O 1028.51 0.70268 8.00823 0
M  V30 10732 H 1028.25 -0.270377 0.619574 0
M  V30 10733 H 1030.8 -0.185591 2.0456 0
M  V30 10734 H 1029.03 -2.60884 2.85441 0
M  V30 10735 H 1030.72 -2.44506 3.23993 0
M  V30 10736 H 1031.48 -0.529915 4.82096 0
M  V30 10737 H 1027.36 -1.64329 4.30717 0
M  V30 10738 H 1030.91 0.575011 6.95226 0
M  V30 10739 H 1026.8 -0.544666 6.43198 0
M  V30 10740 H 1027.57 0.601224 8.16289 0
M  V30 10741 N 1030.24 -1.51135 -0.446768 0
M  V30 10742 C 1031.48 -1.63013 -1.19461 0
M  V30 10743 C 1031.8 -0.344067 -1.91941 0
M  V30 10744 O 1031.07 0.639666 -1.85162 0
M  V30 10745 H 1029.65 -0.600757 -0.443959 0
M  V30 10746 H 1032.32 -1.88024 -0.513137 0
M  V30 10747 H 1031.41 -2.45322 -1.92933 0
M  V30 10748 N 1031.71 0.701592 -1.41122 0
M  V30 10749 C 1032.96 1.45871 -1.39879 0
M  V30 10750 C 1033.28 1.94999 -0.00668769 0
M  V30 10751 O 1032.55 1.71298 0.95047 0
M  V30 10752 H 1031.13 0.541231 -0.514857 0
M  V30 10753 H 1033.79 0.830803 -1.76306 0
M  V30 10754 H 1032.89 2.32479 -2.0823 0
M  V30 10755 N 1033.19 1.2685 0.935242 0
M  V30 10756 C 1034.12 1.1143 2.05196 0
M  V30 10757 C 1035.1 0.0178362 1.70091 0
M  V30 10758 O 1036.29 0.190951 1.93259 0
M  V30 10759 C 1033.42 0.752779 3.39044 0
M  V30 10760 C 1032.37 1.80164 3.88233 0
M  V30 10761 C 1031.7 1.29428 5.18799 0
M  V30 10762 C 1033 3.20431 4.12457 0
M  V30 10763 H 1034.69 2.04845 2.18355 0
M  V30 10764 H 1032.24 0.986276 1.04922 0
M  V30 10765 H 1034.19 0.631757 4.16637 0
M  V30 10766 H 1032.91 -0.217075 3.25878 0
M  V30 10767 H 1031.57 1.91144 3.12825 0
M  V30 10768 H 1031.22 0.3141 5.02018 0
M  V30 10769 H 1030.92 1.99546 5.5268 0
M  V30 10770 H 1032.45 1.18605 5.9897 0
M  V30 10771 H 1033.86 3.12495 4.80645 0
M  V30 10772 H 1032.26 3.88193 4.57631 0
M  V30 10773 H 1033.33 3.66046 3.18023 0
M  V30 10774 N 1034.67 -1.14067 1.0875 0
M  V30 10775 C 1035.9 -1.89041 0.840902 0
M  V30 10776 C 1036.31 -1.78768 -0.60725 0
M  V30 10777 O 1035.67 -1.14945 -1.41753 0
M  V30 10778 C 1035.72 -3.38891 1.25838 0
M  V30 10779 O 1035.44 -3.48886 2.64972 0
M  V30 10780 C 1036.94 -4.30852 1.04315 0
M  V30 10781 H 1034.16 -0.598685 0.303014 0
M  V30 10782 H 1036.71 -1.44438 1.44769 0
M  V30 10783 H 1034.86 -3.81103 0.695627 0
M  V30 10784 H 1035.28 -4.41989 2.82393 0
M  V30 10785 H 1036.75 -5.34353 1.38461 0
M  V30 10786 H 1037.23 -4.39196 -0.0195784 0
M  V30 10787 H 1037.83 -3.944 1.59151 0
M  V30 10788 N 1036.15 -0.873678 -1.31166 0
M  V30 10789 C 1037.4 -0.485497 -1.96182 0
M  V30 10790 C 1037.72 0.96621 -1.69379 0
M  V30 10791 O 1036.99 1.67783 -1.01121 0
M  V30 10792 H 1035.57 -0.176547 -0.725838 0
M  V30 10793 H 1038.23 -1.11428 -1.59906 0
M  V30 10794 H 1037.33 -0.646325 -3.05334 0
M  V30 10795 N 1037.63 1.44308 -0.633487 0
M  V30 10796 C 1038.87 2.01624 -0.138643 0
M  V30 10797 C 1039.2 1.50101 1.24477 0
M  V30 10798 O 1038.47 0.705575 1.82752 0
M  V30 10799 H 1037.05 0.745439 -0.0482636 0
M  V30 10800 H 1039.71 1.76777 -0.820719 0
M  V30 10801 H 1038.8 3.11913 -0.108136 0
M  V30 10802 N 1039.1 0.374177 1.53094 0
M  V30 10803 C 1040.33 -0.215903 2.06273 0
M  V30 10804 C 1040.75 -1.40979 1.24526 0
M  V30 10805 O 1040.11 -1.79331 0.266462 0
M  V30 10806 C 1040.16 -0.579089 3.5592 0
M  V30 10807 O 1039.26 -1.67516 3.76845 0
M  V30 10808 H 1038.61 -0.0293981 0.663349 0
M  V30 10809 H 1041.14 0.537271 1.9742 0
M  V30 10810 H 1041.15 -0.847678 3.99097 0
M  V30 10811 H 1039.82 0.293843 4.14861 0
M  V30 10812 H 1038.4 -1.40146 3.45563 0
M  V30 10813 N 1040.58 -1.57259 0.103575 0
M  V30 10814 C 1041.81 -1.99424 -0.569638 0
M  V30 10815 C 1042.23 -0.982475 -1.60403 0
M  V30 10816 O 1041.59 0.0479231 -1.81237 0
M  V30 10817 C 1041.64 -3.40527 -1.18633 0
M  V30 10818 O 1040.74 -3.42167 -2.30208 0
M  V30 10819 H 1040.08 -0.648251 -0.143759 0
M  V30 10820 H 1042.61 -2.03739 0.187493 0
M  V30 10821 H 1042.62 -3.78404 -1.5256 0
M  V30 10822 H 1041.3 -4.13686 -0.428582 0
M  V30 10823 H 1039.88 -3.16093 -1.97837 0
M  V30 10824 N 1042.06 0.170153 -1.56679 0
M  V30 10825 C 1043.48 0.521966 -1.50823 0
M  V30 10826 C 1043.68 1.84589 -0.808037 0
M  V30 10827 O 1042.73 2.49791 -0.368891 0
M  V30 10828 C 1044.05 0.553648 -2.95559 0
M  V30 10829 C 1045.59 0.640769 -3.06371 0
M  V30 10830 C 1046.07 0.703332 -4.52567 0
M  V30 10831 N 1047.56 0.76619 -4.56819 0
M  V30 10832 C 1048.29 0.835192 -5.67285 0
M  V30 10833 N 1047.79 0.864957 -6.87379 0
M  V30 10834 N 1049.58 0.874302 -5.55259 0
M  V30 10835 H 1041.73 -0.697952 -2.00605 0
M  V30 10836 H 1044 -0.251787 -0.913952 0
M  V30 10837 H 1043.7 -0.350498 -3.49949 0
M  V30 10838 H 1043.58 1.39973 -3.50268 0
M  V30 10839 H 1045.96 1.53534 -2.52015 0
M  V30 10840 H 1046.05 -0.232008 -2.54746 0
M  V30 10841 H 1045.69 -0.186986 -5.07556 0
M  V30 10842 H 1045.62 1.59227 -5.0195 0
M  V30 10843 H 1048.11 0.751424 -3.70354 0
M  V30 10844 H 1048.42 0.918814 -7.67318 0
M  V30 10845 H 1046.77 0.833215 -6.89987 0
M  V30 10846 H 1049.96 0.848057 -4.60354 0
M  V30 10847 H 1050.13 0.924615 -6.4137 0
M  V30 10848 N 1043.54 1.5137 0.438746 0
M  V30 10849 C 1044.79 1.63645 1.18595 0
M  V30 10850 C 1045.11 0.354241 1.91755 0
M  V30 10851 O 1044.38 -0.629838 1.85499 0
M  V30 10852 H 1042.96 0.603103 0.440767 0
M  V30 10853 H 1045.62 1.88293 0.503159 0
M  V30 10854 H 1044.72 2.46342 1.9163 0
M  V30 10855 N 1045.02 -0.694098 1.41492 0
M  V30 10856 C 1046.43 -1.27407 1.36471 0
M  V30 10857 C 1046.78 -1.9614 0.0485209 0
M  V30 10858 O 1045.9 -1.98871 -0.853188 0
M  V30 10859 C 1046.5 -2.31698 2.47188 0
M  V30 10860 C 1045.06 -2.85268 2.45559 0
M  V30 10861 C 1044.2 -1.59325 2.2696 0
M  V30 10862 H 1047.16 -0.488756 1.50986 0
M  V30 10863 H 1047.18 -3.1302 2.1633 0
M  V30 10864 H 1046.69 -1.81644 3.42968 0
M  V30 10865 H 1044.79 -3.39494 1.5354 0
M  V30 10866 H 1044.9 -3.35598 3.41922 0
M  V30 10867 H 1043.27 -1.85188 1.74864 0
M  V30 10868 H 1044.05 -1.11265 3.24769 0
M  V30 10869 N 1046.49 -1.27344 -0.928501 0
M  V30 10870 C 1047.91 -1.12361 -1.49103 0
M  V30 10871 C 1048.26 0.291667 -1.9402 0
M  V30 10872 O 1047.38 1.18449 -1.81104 0
M  V30 10873 C 1047.98 -2.03358 -2.70981 0
M  V30 10874 C 1046.54 -1.92483 -3.23461 0
M  V30 10875 C 1045.68 -1.95961 -1.962 0
M  V30 10876 H 1048.63 -1.40249 -0.742689 0
M  V30 10877 H 1048.65 -1.58892 -3.45736 0
M  V30 10878 H 1048.17 -3.06356 -2.38259 0
M  V30 10879 H 1046.27 -0.924676 -3.60944 0
M  V30 10880 H 1046.38 -2.78682 -3.89709 0
M  V30 10881 H 1044.74 -1.40175 -2.12657 0
M  V30 10882 H 1045.53 -3.00612 -1.65793 0
M  V30 10883 N 1047.97 1.13488 -1.09353 0
M  V30 10884 C 1049.22 1.85022 -0.830354 0
M  V30 10885 C 1049.55 1.83266 0.64242 0
M  V30 10886 O 1048.83 1.27024 1.47293 0
M  V30 10887 C 1049.11 3.33218 -1.36521 0
M  V30 10888 C 1048.96 3.43491 -2.90404 0
M  V30 10889 C 1050.28 4.28626 -0.998381 0
M  V30 10890 H 1047.4 0.671786 -0.303105 0
M  V30 10891 H 1050.04 1.33211 -1.3548 0
M  V30 10892 H 1048.19 3.77471 -0.919117 0
M  V30 10893 H 1049.86 3.07954 -3.43456 0
M  V30 10894 H 1048.11 2.84391 -3.27573 0
M  V30 10895 H 1048.78 4.47702 -3.22905 0
M  V30 10896 H 1051.25 3.9244 -1.38311 0
M  V30 10897 H 1050.13 5.30754 -1.39968 0
M  V30 10898 H 1050.39 4.42001 0.093517 0
M  V30 10899 N 1049.45 0.880621 1.30701 0
M  V30 10900 C 1050.68 0.511682 2.00473 0
M  V30 10901 C 1051.09 -0.898684 1.6604 0
M  V30 10902 O 1050.45 -1.59035 0.895218 0
M  V30 10903 C 1050.5 0.671723 3.55204 0
M  V30 10904 O 1050.22 2.02656 3.8841 0
M  V30 10905 C 1051.72 0.3052 4.42248 0
M  V30 10906 H 1048.94 0.198231 0.64105 0
M  V30 10907 H 1051.49 1.18472 1.66687 0
M  V30 10908 H 1049.64 0.0461066 3.87373 0
M  V30 10909 H 1050.06 2.04202 4.83117 0
M  V30 10910 H 1051.53 0.468095 5.50012 0
M  V30 10911 H 1052.01 -0.756456 4.32637 0
M  V30 10912 H 1052.61 0.906959 4.15517 0
M  V30 10913 N 1050.93 -1.4397 0.641131 0
M  V30 10914 C 1052.34 -1.85267 0.230838 0
M  V30 10915 C 1052.69 -1.53659 -1.21998 0
M  V30 10916 O 1051.82 -0.979572 -1.92959 0
M  V30 10917 C 1052.41 -3.36284 0.412171 0
M  V30 10918 C 1050.97 -3.76358 0.0563004 0
M  V30 10919 C 1050.12 -2.67768 0.720809 0
M  V30 10920 H 1053.07 -1.34294 0.845624 0
M  V30 10921 H 1053.09 -3.78924 -0.345936 0
M  V30 10922 H 1052.6 -3.59258 1.46818 0
M  V30 10923 H 1050.7 -3.58997 -0.997582 0
M  V30 10924 H 1050.82 -4.76756 0.473335 0
M  V30 10925 H 1049.18 -2.54227 0.155164 0
M  V30 10926 H 1049.96 -2.93573 1.77961 0
M  V30 10927 N 1052.41 -0.382291 -1.52893 0
M  V30 10928 C 1053.63 0.204961 -2.06385 0
M  V30 10929 C 1054.06 1.40316 -1.25271 0
M  V30 10930 O 1053.42 1.79187 -0.275969 0
M  V30 10931 C 1053.46 0.560205 -3.56222 0
M  V30 10932 O 1052.57 1.65515 -3.77728 0
M  V30 10933 H 1051.91 0.0258798 -0.663495 0
M  V30 10934 H 1054.44 -0.547733 -1.97132 0
M  V30 10935 H 1054.45 0.826501 -3.99541 0
M  V30 10936 H 1053.12 -0.31584 -4.14699 0
M  V30 10937 H 1051.7 1.38311 -3.46301 0
M  V30 10938 N 1053.89 1.57202 -0.111913 0
M  V30 10939 C 1055.11 1.99723 0.559054 0
M  V30 10940 C 1055.54 0.990968 1.59879 0
M  V30 10941 O 1054.89 -0.038311 1.8126 0
M  V30 10942 C 1054.94 3.41151 1.16826 0
M  V30 10943 O 1054.05 3.43383 2.2839 0
M  V30 10944 H 1053.39 0.649004 0.140319 0
M  V30 10945 H 1055.92 2.03637 -0.198295 0
M  V30 10946 H 1055.93 3.79208 1.50551 0
M  V30 10947 H 1054.6 4.13907 0.406637 0
M  V30 10948 H 1053.18 3.17138 1.96158 0
M  V30 10949 N 1055.36 -0.161842 1.56767 0
M  V30 10950 C 1056.27 -1.21996 2.00385 0
M  V30 10951 C 1057.29 -1.4789 0.916768 0
M  V30 10952 O 1058.47 -1.59852 1.22513 0
M  V30 10953 C 1055.53 -2.53695 2.36305 0
M  V30 10954 C 1054.59 -2.3558 3.58888 0
M  V30 10955 C 1053.82 -3.60998 3.93085 0
M  V30 10956 O 1054.05 -4.6657 3.28129 0
M  V30 10957 O 1052.98 -3.54544 4.86397 0
M  V30 10958 H 1056.81 -0.879701 2.9068 0
M  V30 10959 H 1054.39 -0.369437 1.4476 0
M  V30 10960 H 1056.27 -3.31366 2.60335 0
M  V30 10961 H 1054.95 -2.87281 1.49169 0
M  V30 10962 H 1053.86 -1.55908 3.40064 0
M  V30 10963 H 1055.19 -2.06915 4.46595 0
M  V30 10964 N 1056.84 -1.516 -0.430713 0
M  V30 10965 C 1057.79 -1.73392 -1.52328 0
M  V30 10966 C 1058.76 -0.575758 -1.55802 0
M  V30 10967 O 1059.94 -0.810931 -1.72709 0
M  V30 10968 C 1057.08 -1.87092 -2.89984 0
M  V30 10969 C 1056.2 -3.14668 -2.95987 0
M  V30 10970 C 1055.33 -3.18923 -4.24807 0
M  V30 10971 C 1054.37 -4.40787 -4.24703 0
M  V30 10972 N 1053.51 -4.42556 -5.45059 0
M  V30 10973 H 1058.35 -2.6665 -1.33048 0
M  V30 10974 H 1055.88 -1.32146 -0.646207 0
M  V30 10975 H 1057.84 -1.93017 -3.69865 0
M  V30 10976 H 1056.47 -0.972363 -3.07807 0
M  V30 10977 H 1055.52 -3.1802 -2.08728 0
M  V30 10978 H 1056.84 -4.04562 -2.91772 0
M  V30 10979 H 1055.99 -3.23801 -5.13067 0
M  V30 10980 H 1054.73 -2.2693 -4.31688 0
M  V30 10981 H 1053.73 -4.36079 -3.34836 0
M  V30 10982 H 1054.96 -5.34053 -4.19481 0
M  V30 10983 H 1052.91 -3.53435 -5.52648 0
M  V30 10984 H 1052.82 -5.26267 -5.42751 0
M  V30 10985 H 1054.09 -4.51634 -6.35332 0
M  V30 10986 N 1058.32 0.686584 -1.41858 0
M  V30 10987 C 1059.74 0.998283 -1.24525 0
M  V30 10988 C 1059.94 2.01006 -0.141007 0
M  V30 10989 O 1058.99 2.47667 0.491648 0
M  V30 10990 C 1060.3 1.51432 -2.59786 0
M  V30 10991 C 1061.85 1.6327 -2.67043 0
M  V30 10992 C 1062.33 2.18274 -4.02642 0
M  V30 10993 N 1063.82 2.25622 -4.04535 0
M  V30 10994 C 1064.55 2.69229 -5.06264 0
M  V30 10995 N 1064.05 3.12375 -6.1838 0
M  V30 10996 N 1065.84 2.68873 -4.93623 0
M  V30 10997 H 1057.99 0.0164825 -2.12394 0
M  V30 10998 H 1060.26 0.0698613 -0.945422 0
M  V30 10999 H 1059.96 0.845426 -3.41388 0
M  V30 11000 H 1059.84 2.49502 -2.82894 0
M  V30 11001 H 1062.22 2.29269 -1.85794 0
M  V30 11002 H 1062.3 0.637221 -2.47736 0
M  V30 11003 H 1061.95 1.52887 -4.84343 0
M  V30 11004 H 1061.88 3.18591 -4.19294 0
M  V30 11005 H 1064.37 1.95186 -3.23591 0
M  V30 11006 H 1064.68 3.44301 -6.91864 0
M  V30 11007 H 1063.03 3.10262 -6.21902 0
M  V30 11008 H 1066.22 2.34521 -4.05114 0
M  V30 11009 H 1066.39 3.02539 -5.7304 0
M  V30 11010 N 1059.8 1.27835 0.921735 0
M  V30 11011 C 1061.02 1.17465 1.70929 0
M  V30 11012 C 1061.45 -0.264171 1.86236 0
M  V30 11013 O 1060.81 -1.19124 1.36671 0
M  V30 11014 C 1060.85 1.8697 3.08342 0
M  V30 11015 O 1059.96 1.17173 3.95404 0
M  V30 11016 H 1059.3 0.408206 0.523702 0
M  V30 11017 H 1061.83 1.69013 1.15307 0
M  V30 11018 H 1061.84 1.94564 3.58621 0
M  V30 11019 H 1060.51 2.91633 2.96518 0
M  V30 11020 H 1059.09 1.17688 3.53842 0
M  V30 11021 N 1061.28 -1.12907 1.09954 0
M  V30 11022 C 1062.22 -2.18485 0.743848 0
M  V30 11023 C 1063.19 -1.63766 -0.277494 0
M  V30 11024 O 1064.38 -1.90146 -0.157899 0
M  V30 11025 C 1061.52 -3.44649 0.176437 0
M  V30 11026 C 1060.63 -4.13445 1.25248 0
M  V30 11027 C 1059.77 -5.27242 0.647242 0
M  V30 11028 C 1058.8 -5.87897 1.70421 0
M  V30 11029 N 1057.94 -6.93116 1.1196 0
M  V30 11030 H 1062.78 -2.48257 1.64841 0
M  V30 11031 H 1060.32 -1.21891 0.823471 0
M  V30 11032 H 1062.28 -4.16852 -0.170384 0
M  V30 11033 H 1060.91 -3.15309 -0.69137 0
M  V30 11034 H 1059.96 -3.39471 1.7165 0
M  V30 11035 H 1061.27 -4.54601 2.05279 0
M  V30 11036 H 1060.42 -6.06186 0.249579 0
M  V30 11037 H 1059.16 -4.87351 -0.184556 0
M  V30 11038 H 1058.17 -5.07643 2.11136 0
M  V30 11039 H 1059.39 -6.2986 2.53877 0
M  V30 11040 H 1057.34 -6.55271 0.309181 0
M  V30 11041 H 1057.26 -7.32843 1.85681 0
M  V30 11042 H 1058.52 -7.759 0.748326 0
M  V30 11043 N 1062.75 -0.88754 -1.30232 0
M  V30 11044 C 1064 -0.503322 -1.95319 0
M  V30 11045 C 1064.32 0.952817 -1.70824 0
M  V30 11046 O 1065.52 1.444 -2.29915 0
M  V30 11047 C 1063.98 -0.849216 -3.49738 0
M  V30 11048 C 1063.59 -2.3233 -3.83049 0
M  V30 11049 C 1065.33 -0.53432 -4.21124 0
M  V30 11050 C 1063.24 -2.61069 -5.30657 0
M  V30 11051 H 1062.17 -0.1845 -0.731078 0
M  V30 11052 H 1064.82 -1.08287 -1.48143 0
M  V30 11053 H 1063.2 -0.198729 -3.95501 0
M  V30 11054 H 1064.37 -3.01832 -3.48187 0
M  V30 11055 H 1062.69 -2.60599 -3.24773 0
M  V30 11056 H 1065.29 -0.726039 -5.29748 0
M  V30 11057 H 1065.63 0.526434 -4.12958 0
M  V30 11058 H 1066.16 -1.14211 -3.81052 0
M  V30 11059 H 1062.9 -3.65895 -5.43876 0
M  V30 11060 H 1062.42 -1.96179 -5.6681 0
M  V30 11061 H 1064.1 -2.46703 -5.98119 0
M  V30 11062 N 1064.23 1.43628 -0.648757 0
M  V30 11063 C 1065.64 1.85142 -0.24066 0
M  V30 11064 C 1065.99 1.54304 1.21181 0
M  V30 11065 O 1065.12 0.989792 1.92437 0
M  V30 11066 C 1065.71 3.3606 -0.429999 0
M  V30 11067 C 1064.27 3.76323 -0.0762588 0
M  V30 11068 C 1063.42 2.67382 -0.734999 0
M  V30 11069 H 1066.37 1.33844 -0.852734 0
M  V30 11070 H 1066.39 3.79102 0.325836 0
M  V30 11071 H 1065.9 3.58474 -1.48721 0
M  V30 11072 H 1064.01 3.59521 0.978529 0
M  V30 11073 H 1064.12 4.76498 -0.498612 0
M  V30 11074 H 1062.48 2.54141 -0.168644 0
M  V30 11075 H 1063.27 2.92625 -1.79515 0
M  V30 11076 N 1065.71 0.390394 1.52688 0
M  V30 11077 C 1067.13 0.0404028 1.59549 0
M  V30 11078 C 1067.33 -1.44503 1.40432 0
M  V30 11079 O 1066.38 -2.20968 1.22187 0
M  V30 11080 C 1067.7 0.518561 2.96195 0
M  V30 11081 C 1069.24 0.474913 3.09376 0
M  V30 11082 C 1069.72 0.929278 4.48473 0
M  V30 11083 N 1071.21 0.885335 4.5466 0
M  V30 11084 C 1071.94 1.2083 5.60524 0
M  V30 11085 N 1071.44 1.6018 6.74028 0
M  V30 11086 N 1073.23 1.12949 5.50635 0
M  V30 11087 H 1065.38 1.35743 1.63363 0
M  V30 11088 H 1067.65 0.556453 0.767505 0
M  V30 11089 H 1067.35 1.55606 3.15404 0
M  V30 11090 H 1067.23 -0.081779 3.77111 0
M  V30 11091 H 1069.61 -0.553503 2.89863 0
M  V30 11092 H 1069.7 1.11107 2.3041 0
M  V30 11093 H 1069.34 1.95593 4.68728 0
M  V30 11094 H 1069.27 0.270121 5.25907 0
M  V30 11095 H 1071.76 0.595787 3.73174 0
M  V30 11096 H 1072.07 1.83184 7.50775 0
M  V30 11097 H 1070.42 1.64067 6.75357 0
M  V30 11098 H 1073.61 0.821074 4.60843 0
M  V30 11099 H 1073.78 1.3845 6.33037 0
M  V30 11100 N 1067.19 -1.57141 0.120249 0
M  V30 11101 C 1068.41 -2.00017 -0.548454 0
M  V30 11102 C 1068.84 -0.999433 -1.59352 0
M  V30 11103 O 1068.2 0.0286978 -1.81277 0
M  V30 11104 C 1068.24 -3.41766 -1.15015 0
M  V30 11105 O 1067.35 -3.44589 -2.26566 0
M  V30 11106 H 1066.69 -0.649739 -0.136875 0
M  V30 11107 H 1069.22 -2.03529 0.209092 0
M  V30 11108 H 1069.23 -3.80001 -1.48537 0
M  V30 11109 H 1067.9 -4.14117 -0.384681 0
M  V30 11110 H 1066.48 -3.18174 -1.94473 0
M  V30 11111 N 1068.67 0.153526 -1.5685 0
M  V30 11112 C 1069.6 1.2147 -1.94365 0
M  V30 11113 C 1070.61 1.39532 -0.838726 0
M  V30 11114 O 1071.8 1.39219 -1.11715 0
M  V30 11115 C 1068.9 2.5806 -2.19677 0
M  V30 11116 C 1068.07 2.61062 -3.50949 0
M  V30 11117 C 1067.13 3.79144 -3.64878 0
M  V30 11118 O 1066.16 3.64319 -4.37333 0
M  V30 11119 N 1067.36 4.96333 -3.01054 0
M  V30 11120 H 1070.13 0.895889 -2.85996 0
M  V30 11121 H 1067.69 0.343147 -1.58222 0
M  V30 11122 H 1069.68 3.35553 -2.26243 0
M  V30 11123 H 1068.25 2.8226 -1.34343 0
M  V30 11124 H 1067.47 1.69533 -3.55882 0
M  V30 11125 H 1068.76 2.60094 -4.37297 0
M  V30 11126 H 1068.15 5.1128 -2.42093 0
M  V30 11127 H 1066.71 5.71625 -3.13191 0
M  V30 11128 N 1070.14 1.51827 0.422667 0
M  V30 11129 C 1071.39 1.64893 1.16853 0
M  V30 11130 C 1071.71 0.37456 1.91369 0
M  V30 11131 O 1070.98 -0.610128 1.86157 0
M  V30 11132 H 1069.56 0.607744 0.434345 0
M  V30 11133 H 1072.23 1.88816 0.483159 0
M  V30 11134 H 1071.32 2.48361 1.89006 0
M  V30 11135 N 1071.62 -0.679052 1.4222 0
M  V30 11136 C 1072.86 -1.45118 1.43945 0
M  V30 11137 C 1073.23 -1.91928 0.0524851 0
M  V30 11138 O 1074.43 -2.68743 -0.0555318 0
M  V30 11139 C 1072.7 -2.6191 2.43183 0
M  V30 11140 S 1074.26 -3.50819 2.63574 0
M  V30 11141 H 1071.08 -0.495695 0.509713 0
M  V30 11142 H 1073.68 -0.790842 1.7879 0
M  V30 11143 H 1072.38 -2.25752 3.42731 0
M  V30 11144 H 1071.91 -3.3282 2.09748 0
M  V30 11145 H 1073.93 -4.57735 1.91555 0
M  V30 11146 N 1073.1 -1.28322 -0.914942 0
M  V30 11147 C 1074.33 -1.1837 -1.70304 0
M  V30 11148 C 1074.75 0.254291 -1.86373 0
M  V30 11149 O 1074.11 1.18398 -1.37301 0
M  V30 11150 C 1074.16 -1.88603 -3.07346 0
M  V30 11151 O 1073.26 -1.19268 -3.94777 0
M  V30 11152 H 1072.6 -0.410978 -0.52153 0
M  V30 11153 H 1075.13 -1.69622 -1.14409 0
M  V30 11154 H 1075.14 -1.96463 -3.57584 0
M  V30 11155 H 1073.82 -2.93201 -2.94967 0
M  V30 11156 H 1072.39 -1.19563 -3.53212 0
M  V30 11157 N 1074.58 1.12322 -1.10551 0
M  V30 11158 C 1075.99 1.35858 -0.837543 0
M  V30 11159 C 1076.19 1.94062 0.54241 0
M  V30 11160 O 1075.25 2.1676 1.29505 0
M  V30 11161 C 1076.56 2.299 -1.9382 0
M  V30 11162 C 1078.11 2.43488 -1.96679 0
M  V30 11163 C 1078.59 3.40846 -3.05922 0
M  V30 11164 N 1080.08 3.48404 -3.05236 0
M  V30 11165 C 1080.81 4.2365 -3.86405 0
M  V30 11166 N 1080.31 5.01951 -4.77512 0
M  V30 11167 N 1082.1 4.19068 -3.74618 0
M  V30 11168 H 1074.25 0.729002 -1.99498 0
M  V30 11169 H 1076.52 0.38339 -0.867016 0
M  V30 11170 H 1076.22 1.94309 -2.9315 0
M  V30 11171 H 1076.1 3.30033 -1.82641 0
M  V30 11172 H 1078.48 2.78359 -0.979813 0
M  V30 11173 H 1078.56 1.43239 -2.11934 0
M  V30 11174 H 1078.21 3.06704 -4.04839 0
M  V30 11175 H 1078.14 4.40927 -2.87907 0
M  V30 11176 H 1080.63 2.92545 -2.39219 0
M  V30 11177 H 1080.94 5.56707 -5.36002 0
M  V30 11178 H 1079.29 5.01143 -4.8154 0
M  V30 11179 H 1082.48 3.5698 -3.02792 0
M  V30 11180 H 1082.65 4.77455 -4.38111 0
M  V30 11181 N 1076.06 0.894434 1.2976 0
M  V30 11182 C 1076.97 0.372622 2.31622 0
M  V30 11183 C 1077.98 -0.52996 1.65733 0
M  V30 11184 O 1079.16 -0.420807 1.96955 0
M  V30 11185 C 1076.22 -0.396076 3.4443 0
M  V30 11186 C 1075.28 0.537394 4.25923 0
M  V30 11187 C 1074.52 -0.194713 5.33345 0
M  V30 11188 O 1074.74 -1.41943 5.52457 0
M  V30 11189 O 1073.67 0.460055 6.00139 0
M  V30 11190 H 1077.5 1.21756 2.78225 0
M  V30 11191 H 1075.09 0.65858 1.34101 0
M  V30 11192 H 1076.97 -0.830962 4.13126 0
M  V30 11193 H 1075.64 -1.21716 2.99945 0
M  V30 11194 H 1074.55 1.02129 3.5989 0
M  V30 11195 H 1075.88 1.32475 4.74037 0
M  V30 11196 N 1077.53 -1.43282 0.656365 0
M  V30 11197 C 1078.76 -2.06125 0.178879 0
M  V30 11198 C 1079.18 -1.49216 -1.15672 0
M  V30 11199 O 1078.53 -0.624693 -1.71475 0
M  V30 11200 C 1078.59 -3.614 0.0851785 0
M  V30 11201 O 1078.31 -4.16194 1.36798 0
M  V30 11202 C 1079.81 -4.41325 -0.41801 0
M  V30 11203 H 1077.03 -0.664753 0.0913504 0
M  V30 11204 H 1079.57 -1.83733 0.897901 0
M  V30 11205 H 1077.73 -3.82966 -0.584421 0
M  V30 11206 H 1078.14 -5.09892 1.22924 0
M  V30 11207 H 1079.61 -5.50303 -0.432519 0
M  V30 11208 H 1080.09 -4.14577 -1.44991 0
M  V30 11209 H 1080.7 -4.24735 0.219208 0
M  V30 11210 N 1079.01 -0.398486 -1.52479 0
M  V30 11211 C 1080.24 0.183059 -2.06591 0
M  V30 11212 C 1080.66 1.3898 -1.26753 0
M  V30 11213 O 1080.02 1.78885 -0.294959 0
M  V30 11214 C 1080.07 0.522392 -3.56796 0
M  V30 11215 O 1079.17 1.61499 -3.79462 0
M  V30 11216 H 1078.51 0.0188411 -0.663733 0
M  V30 11217 H 1081.04 -0.56861 -1.9654 0
M  V30 11218 H 1081.05 0.784078 -4.00395 0
M  V30 11219 H 1079.73 -0.359807 -4.14341 0
M  V30 11220 H 1078.31 1.3463 -3.47749 0
M  V30 11221 N 1080.49 1.57075 -0.12858 0
M  V30 11222 C 1081.9 1.82468 0.39526 0
M  V30 11223 C 1082.25 1.0463 1.65973 0
M  V30 11224 O 1081.38 0.285835 2.14504 0
M  V30 11225 C 1081.97 3.30976 0.723889 0
M  V30 11226 C 1080.53 3.57016 1.19232 0
M  V30 11227 C 1079.68 2.76534 0.205907 0
M  V30 11228 H 1082.63 1.54711 -0.353571 0
M  V30 11229 H 1082.65 3.46127 1.58039 0
M  V30 11230 H 1082.16 3.87602 -0.196595 0
M  V30 11231 H 1080.26 3.05758 2.12938 0
M  V30 11232 H 1080.38 4.65558 1.13103 0
M  V30 11233 H 1078.74 2.45038 0.694872 0
M  V30 11234 H 1079.52 3.35923 -0.707842 0
M  V30 11235 N 1081.97 -0.145205 1.5693 0
M  V30 11236 C 1082.92 -1.19841 1.99351 0
M  V30 11237 C 1083.91 -1.44371 0.886197 0
M  V30 11238 O 1085.12 -1.44642 1.07138 0
M  V30 11239 H 1081.49 -0.403437 0.63462 0
M  V30 11240 H 1083.46 -0.813932 2.87085 0
M  V30 11241 C 1082.21 -2.52377 2.39167 0
M  V30 11242 H 1081.54 -2.34332 3.23927 0
M  V30 11243 H 1082.98 -3.24694 2.72671 0
M  V30 11244 C 1081.43 -3.1305 1.24503 0
M  V30 11245 O 1081.96 -3.97962 0.546739 0
M  V30 11246 N 1080.17 -2.72528 1.00882 0
M  V30 11247 H 1079.72 -2.03576 1.57843 0
M  V30 11248 H 1079.68 -3.13456 0.24351 0
M  V30 11249 N 1083.45 -1.52049 -0.414609 0
M  V30 11250 C 1084.86 -1.40729 -0.752822 0
M  V30 11251 C 1085.06 -0.507468 -1.95005 0
M  V30 11252 O 1084.12 0.0288189 -2.52484 0
M  V30 11253 C 1085.43 -2.83163 -1.01189 0
M  V30 11254 C 1086.98 -2.92469 -1.11494 0
M  V30 11255 C 1087.46 -4.35859 -1.4068 0
M  V30 11256 N 1088.95 -4.39069 -1.47557 0
M  V30 11257 C 1089.68 -5.47072 -1.71756 0
M  V30 11258 N 1089.18 -6.65201 -1.93595 0
M  V30 11259 N 1090.97 -5.3458 -1.73726 0
M  V30 11260 H 1083.12 -2.09089 0.373549 0
M  V30 11261 H 1085.38 -0.942188 0.104814 0
M  V30 11262 H 1085.09 -3.51104 -0.204609 0
M  V30 11263 H 1084.96 -3.23874 -1.93353 0
M  V30 11264 H 1087.35 -2.24711 -1.91282 0
M  V30 11265 H 1087.43 -2.55222 -0.171794 0
M  V30 11266 H 1087.08 -5.04174 -0.614119 0
M  V30 11267 H 1087.01 -4.70637 -2.36238 0
M  V30 11268 H 1089.5 -3.53913 -1.32491 0
M  V30 11269 H 1089.81 -7.43297 -2.11495 0
M  V30 11270 H 1088.16 -6.68276 -1.90871 0
M  V30 11271 H 1091.35 -4.41271 -1.56198 0
M  V30 11272 H 1091.52 -6.18826 -1.92246 0
M  V30 11273 N 1084.93 0.6715 -1.42579 0
M  V30 11274 C 1086.17 1.42731 -1.42516 0
M  V30 11275 C 1086.49 1.95545 -0.0462407 0
M  V30 11276 O 1087.69 2.71391 0.0769798 0
M  V30 11277 C 1086.15 2.58215 -2.50705 0
M  V30 11278 C 1085.76 2.12086 -3.94618 0
M  V30 11279 C 1087.5 3.35705 -2.59813 0
M  V30 11280 C 1085.41 3.24672 -4.9431 0
M  V30 11281 H 1084.34 0.536218 -0.530081 0
M  V30 11282 H 1086.99 0.726655 -1.68499 0
M  V30 11283 H 1085.37 3.30665 -2.17892 0
M  V30 11284 H 1086.55 1.46768 -4.36802 0
M  V30 11285 H 1084.86 1.47526 -3.89391 0
M  V30 11286 H 1087.46 4.1956 -3.31472 0
M  V30 11287 H 1087.8 3.82517 -1.64276 0
M  V30 11288 H 1088.33 2.70326 -2.91836 0
M  V30 11289 H 1085.07 2.82848 -5.91335 0
M  V30 11290 H 1084.59 3.88761 -4.56755 0
M  V30 11291 H 1086.27 3.90088 -5.16179 0
M  V30 11292 N 1086.4 1.28806 0.908124 0
M  V30 11293 C 1087.65 1.16058 1.65454 0
M  V30 11294 C 1087.97 -0.290057 1.92831 0
M  V30 11295 O 1087.24 -1.20001 1.54843 0
M  V30 11296 H 1085.82 0.426522 0.61326 0
M  V30 11297 H 1088.48 1.61614 1.08936 0
M  V30 11298 H 1087.58 1.70437 2.61453 0
M  V30 11299 N 1087.88 -1.11734 1.11145 0
M  V30 11300 C 1088.81 -2.1976 0.789152 0
M  V30 11301 C 1089.79 -1.68382 -0.241143 0
M  V30 11302 O 1090.98 -1.93914 -0.105292 0
M  V30 11303 C 1088.11 -3.46549 0.228204 0
M  V30 11304 C 1087.06 -4.11123 1.19002 0
M  V30 11305 C 1086.39 -5.32451 0.489928 0
M  V30 11306 C 1087.69 -4.56406 2.53951 0
M  V30 11307 H 1089.38 -2.46978 1.69241 0
M  V30 11308 H 1086.93 -1.18705 0.81517 0
M  V30 11309 H 1088.88 -4.21399 -0.00945908 0
M  V30 11310 H 1087.6 -3.18782 -0.71033 0
M  V30 11311 H 1086.26 -3.38264 1.41326 0
M  V30 11312 H 1085.91 -5.00953 -0.453315 0
M  V30 11313 H 1085.61 -5.76605 1.1314 0
M  V30 11314 H 1087.14 -6.10042 0.260984 0
M  V30 11315 H 1088.55 -5.22592 2.35733 0
M  V30 11316 H 1086.95 -5.11363 3.14051 0
M  V30 11317 H 1088.02 -3.7001 3.13402 0
M  V30 11318 N 1089.36 -0.901303 -1.29284 0
M  V30 11319 C 1090.32 -0.385081 -2.25942 0
M  V30 11320 C 1091.32 0.481626 -1.53418 0
M  V30 11321 O 1092.51 0.286451 -1.71829 0
M  V30 11322 C 1089.64 0.449319 -3.37926 0
M  V30 11323 H 1090.84 -1.23877 -2.7312 0
M  V30 11324 H 1088.39 -0.679586 -1.40753 0
M  V30 11325 H 1089.13 1.32292 -2.9609 0
M  V30 11326 H 1088.91 -0.171731 -3.91724 0
M  V30 11327 H 1090.4 0.801746 -4.09831 0
M  V30 11328 N 1090.84 1.42931 -0.663954 0
M  V30 11329 C 1092.25 1.56098 -0.332496 0
M  V30 11330 C 1092.45 1.64564 1.16279 0
M  V30 11331 O 1091.51 1.6066 1.94794 0
M  V30 11332 C 1092.82 2.81649 -1.05329 0
M  V30 11333 C 1094.37 2.95408 -1.03457 0
M  V30 11334 C 1094.85 4.23805 -1.73647 0
M  V30 11335 N 1096.34 4.30693 -1.70462 0
M  V30 11336 C 1097.07 5.28833 -2.21637 0
M  V30 11337 N 1096.57 6.33189 -2.81147 0
M  V30 11338 N 1098.36 5.20558 -2.12075 0
M  V30 11339 H 1090.51 1.3568 -1.63416 0
M  V30 11340 H 1092.77 0.652361 -0.687844 0
M  V30 11341 H 1092.48 2.81494 -2.10842 0
M  V30 11342 H 1092.35 3.72208 -0.611626 0
M  V30 11343 H 1094.74 2.95097 0.0121936 0
M  V30 11344 H 1094.82 2.06109 -1.51502 0
M  V30 11345 H 1094.47 4.24876 -2.78285 0
M  V30 11346 H 1094.4 5.12019 -1.2306 0
M  V30 11347 H 1096.89 3.55904 -1.27046 0
M  V30 11348 H 1097.2 7.04411 -3.17844 0
M  V30 11349 H 1095.55 6.33781 -2.85212 0
M  V30 11350 H 1098.74 4.3795 -1.6528 0
M  V30 11351 H 1098.91 5.96881 -2.52264 0
M  V30 11352 N 1092.32 0.406567 1.52266 0
M  V30 11353 C 1093.54 -0.172101 2.06685 0
M  V30 11354 C 1093.97 -1.38306 1.27488 0
M  V30 11355 O 1093.32 -1.78726 0.304441 0
M  V30 11356 C 1093.37 -0.503463 3.57068 0
M  V30 11357 O 1092.48 -1.59485 3.80314 0
M  V30 11358 H 1091.82 -0.0153209 0.663823 0
M  V30 11359 H 1094.35 0.579025 1.96236 0
M  V30 11360 H 1094.36 -0.762833 4.00805 0
M  V30 11361 H 1093.03 0.381775 4.14144 0
M  V30 11362 H 1091.61 -1.32784 3.48458 0
M  V30 11363 N 1093.79 -1.57004 0.136909 0
M  V30 11364 C 1095.02 -2.00587 -0.527209 0
M  V30 11365 C 1095.44 -1.01628 -1.58283 0
M  V30 11366 O 1094.8 0.00946934 -1.81298 0
M  V30 11367 C 1094.85 -3.42967 -1.11384 0
M  V30 11368 O 1093.95 -3.46973 -2.22898 0
M  V30 11369 H 1093.3 -0.651155 -0.129976 0
M  V30 11370 H 1095.83 -2.03296 0.230667 0
M  V30 11371 H 1095.84 -3.81555 -1.44499 0
M  V30 11372 H 1094.51 -4.14502 -0.340736 0
M  V30 11373 H 1093.09 -3.20219 -1.91087 0
M  V30 11374 N 1095.27 0.136881 -1.57004 0
M  V30 11375 C 1096.69 0.489856 -1.51897 0
M  V30 11376 C 1096.89 1.82833 -0.847009 0
M  V30 11377 O 1095.94 2.48952 -0.421792 0
M  V30 11378 C 1097.26 0.490831 -2.96667 0
M  V30 11379 C 1098.81 0.575639 -3.07661 0
M  V30 11380 C 1099.28 0.607178 -4.53957 0
M  V30 11381 N 1100.77 0.66912 -4.58342 0
M  V30 11382 C 1101.51 0.714675 -5.68929 0
M  V30 11383 N 1101 0.718959 -6.89059 0
M  V30 11384 N 1102.8 0.756326 -5.56988 0
M  V30 11385 H 1094.95 -0.740347 -1.99079 0
M  V30 11386 H 1097.21 -0.271116 -0.908405 0
M  V30 11387 H 1096.92 -0.424648 -3.49127 0
M  V30 11388 H 1096.79 1.32512 -3.53158 0
M  V30 11389 H 1099.18 1.48154 -2.55215 0
M  V30 11390 H 1099.26 -0.285991 -2.54196 0
M  V30 11391 H 1098.9 -0.294604 -5.07045 0
M  V30 11392 H 1098.83 1.48544 -5.05215 0
M  V30 11393 H 1101.32 0.672697 -3.71864 0
M  V30 11394 H 1101.64 0.755848 -7.69095 0
M  V30 11395 H 1099.98 0.686671 -6.91599 0
M  V30 11396 H 1103.17 0.750219 -4.62049 0
M  V30 11397 H 1103.34 0.788363 -6.43186 0
M  V30 11398 N 1096.75 1.52266 0.40654 0
M  V30 11399 C 1098 1.6568 1.15035 0
M  V30 11400 C 1098.31 0.394135 1.91588 0
M  V30 11401 O 1099.52 0.408113 2.68415 0
M  V30 11402 C 1097.97 2.92725 2.0938 0
M  V30 11403 C 1097.58 4.26108 1.38332 0
M  V30 11404 C 1099.33 3.15502 2.84004 0
M  V30 11405 C 1097.23 5.44275 2.3134 0
M  V30 11406 H 1096.16 0.61719 0.43312 0
M  V30 11407 H 1098.81 1.78755 0.414598 0
M  V30 11408 H 1097.2 2.73355 2.86519 0
M  V30 11409 H 1098.37 4.55971 0.665396 0
M  V30 11410 H 1096.69 4.09454 0.757384 0
M  V30 11411 H 1099.28 4.00964 3.5374 0
M  V30 11412 H 1099.63 2.29842 3.471 0
M  V30 11413 H 1100.16 3.35357 2.13964 0
M  V30 11414 H 1096.9 6.3229 1.72887 0
M  V30 11415 H 1096.42 5.18749 3.01098 0
M  V30 11416 H 1098.1 5.77457 2.91809 0
M  V30 11417 N 1098.23 -0.663929 1.42933 0
M  V30 11418 C 1099.64 -1.24484 1.39143 0
M  V30 11419 C 1099.99 -1.95993 0.0901142 0
M  V30 11420 O 1099.12 -2.00636 -0.810812 0
M  V30 11421 C 1099.71 -2.26402 2.52047 0
M  V30 11422 C 1098.27 -2.79995 2.51555 0
M  V30 11423 C 1097.42 -1.54475 2.30289 0
M  V30 11424 H 1100.37 -0.456619 1.51989 0
M  V30 11425 H 1100.39 -3.08361 2.22921 0
M  V30 11426 H 1099.9 -1.74328 3.46744 0
M  V30 11427 H 1098 -3.36161 1.60707 0
M  V30 11428 H 1098.11 -3.2827 3.48964 0
M  V30 11429 H 1096.48 -1.81437 1.78753 0
M  V30 11430 H 1097.26 -1.04351 3.27056 0
M  V30 11431 N 1099.71 -1.29285 -0.901281 0
M  V30 11432 C 1101.12 -1.07263 -1.18182 0
M  V30 11433 C 1101.32 0.177087 -2.0072 0
M  V30 11434 O 1100.38 0.875292 -2.36844 0
M  V30 11435 C 1101.69 -2.32717 -1.9043 0
M  V30 11436 C 1103.24 -2.3802 -2.03262 0
M  V30 11437 C 1103.71 -3.63273 -2.7892 0
M  V30 11438 N 1105.21 -3.63986 -2.86475 0
M  V30 11439 C 1105.94 -4.57585 -3.45549 0
M  V30 11440 N 1105.44 -5.61513 -4.05801 0
M  V30 11441 N 1107.23 -4.45157 -3.43208 0
M  V30 11442 H 1099.38 -2.09487 -0.350536 0
M  V30 11443 H 1101.64 -0.922647 -0.217778 0
M  V30 11444 H 1101.35 -3.23828 -1.37216 0
M  V30 11445 H 1101.22 -2.40102 -2.90913 0
M  V30 11446 H 1103.61 -1.47398 -2.55652 0
M  V30 11447 H 1103.69 -2.3462 -1.01916 0
M  V30 11448 H 1103.34 -4.54246 -2.27206 0
M  V30 11449 H 1103.27 -3.6393 -3.80608 0
M  V30 11450 H 1105.76 -2.8884 -2.43679 0
M  V30 11451 H 1106.07 -6.29058 -4.48894 0
M  V30 11452 H 1104.41 -5.65325 -4.04268 0
M  V30 11453 H 1107.61 -3.63158 -2.95354 0
M  V30 11454 H 1107.78 -5.18286 -3.88952 0
M  V30 11455 N 1101.18 1.11143 -1.11736 0
M  V30 11456 C 1102.6 1.64462 -0.883693 0
M  V30 11457 C 1102.95 1.87324 0.583448 0
M  V30 11458 O 1102.07 1.60975 1.44623 0
M  V30 11459 C 1102.67 2.98765 -1.59764 0
M  V30 11460 C 1101.23 3.4898 -1.41032 0
M  V30 11461 C 1100.37 2.23729 -1.63831 0
M  V30 11462 H 1103.32 0.947415 -1.27317 0
M  V30 11463 H 1103.34 3.65885 -1.04443 0
M  V30 11464 H 1102.86 2.82094 -2.66542 0
M  V30 11465 H 1100.96 3.7081 -0.364781 0
M  V30 11466 H 1101.07 4.27571 -2.16148 0
M  V30 11467 H 1099.43 2.31507 -1.06191 0
M  V30 11468 H 1100.22 2.09597 -2.7189 0
M  V30 11469 N 1102.66 0.908147 1.28804 0
M  V30 11470 C 1103.89 0.553431 1.9988 0
M  V30 11471 C 1104.31 -0.856714 1.67458 0
M  V30 11472 O 1103.67 -1.57163 0.903849 0
M  V30 11473 C 1103.72 0.762688 3.52442 0
M  V30 11474 O 1102.82 -0.180924 4.12003 0
M  V30 11475 H 1102.16 0.215237 0.628147 0
M  V30 11476 H 1104.69 1.22205 1.64095 0
M  V30 11477 H 1104.7 0.670612 4.02451 0
M  V30 11478 H 1103.38 1.79071 3.75375 0
M  V30 11479 H 1101.96 -0.0405897 3.72878 0
M  V30 11480 N 1104.14 -1.42577 0.671525 0
M  V30 11481 C 1105.07 -2.28124 -0.0589347 0
M  V30 11482 C 1106.05 -1.40878 -0.811915 0
M  V30 11483 O 1107.24 -1.70318 -0.807717 0
M  V30 11484 C 1104.36 -3.20662 -1.09057 0
M  V30 11485 C 1103.41 -4.24291 -0.43355 0
M  V30 11486 S 1104.24 -5.29393 0.806442 0
M  V30 11487 C 1105.4 -6.25498 -0.224204 0
M  V30 11488 H 1105.63 -2.89728 0.666689 0
M  V30 11489 H 1103.16 -1.47359 0.460959 0
M  V30 11490 H 1105.12 -3.74516 -1.68071 0
M  V30 11491 H 1103.78 -2.582 -1.78862 0
M  V30 11492 H 1102.98 -4.89213 -1.21186 0
M  V30 11493 H 1102.58 -3.73908 0.0829136 0
M  V30 11494 H 1104.87 -6.68757 -1.08492 0
M  V30 11495 H 1105.81 -7.07023 0.390469 0
M  V30 11496 H 1106.22 -5.61633 -0.568214 0
M  V30 11497 N 1105.62 -0.414636 -1.52048 0
M  V30 11498 C 1106.84 0.161137 -2.06773 0
M  V30 11499 C 1107.27 1.37628 -1.2822 0
M  V30 11500 O 1106.63 1.78562 -0.313915 0
M  V30 11501 C 1106.67 0.48452 -3.5733 0
M  V30 11502 O 1105.78 1.57466 -3.81154 0
M  V30 11503 H 1105.12 0.0118003 -0.663895 0
M  V30 11504 H 1107.65 -0.589424 -1.95926 0
M  V30 11505 H 1107.66 0.741567 -4.01204 0
M  V30 11506 H 1106.33 -0.403733 -4.13936 0
M  V30 11507 H 1104.91 1.30935 -3.49157 0
M  V30 11508 N 1107.1 1.56929 -0.145233 0
M  V30 11509 C 1108.03 2.13796 0.826078 0
M  V30 11510 C 1109.04 1.08697 1.21197 0
M  V30 11511 O 1110.23 1.3598 1.15635 0
M  V30 11512 C 1107.33 2.6443 2.11967 0
M  V30 11513 C 1106.5 3.9391 1.90142 0
M  V30 11514 C 1105.56 4.29872 3.03474 0
M  V30 11515 O 1104.59 4.98227 2.75242 0
M  V30 11516 N 1105.79 3.8931 4.30602 0
M  V30 11517 H 1108.56 2.97764 0.340073 0
M  V30 11518 H 1106.12 1.61854 0.0383928 0
M  V30 11519 H 1108.11 2.85502 2.86829 0
M  V30 11520 H 1106.68 1.85196 2.51836 0
M  V30 11521 H 1105.9 3.81481 0.993268 0
M  V30 11522 H 1107.19 4.78523 1.72896 0
M  V30 11523 H 1106.58 3.34229 4.56407 0
M  V30 11524 H 1105.14 4.15438 5.0225 0
M  V30 11525 N 1108.58 -0.128553 1.57075 0
M  V30 11526 C 1109.82 -0.836355 1.83982 0
M  V30 11527 C 1110.14 -1.80862 0.728971 0
M  V30 11528 O 1109.41 -1.94326 -0.247859 0
M  V30 11529 H 1107.99 -0.31185 0.678792 0
M  V30 11530 H 1110.66 -0.118153 1.94542 0
M  V30 11531 H 1109.75 -1.38741 2.79567 0
M  V30 11532 N 1110.05 -1.5248 -0.398459 0
M  V30 11533 C 1111.29 -1.68744 -1.15346 0
M  V30 11534 C 1111.66 -0.413739 -1.87489 0
M  V30 11535 O 1112.86 -0.452624 -2.64962 0
M  V30 11536 C 1111.13 -2.8824 -2.11311 0
M  V30 11537 S 1112.69 -3.25043 -2.94775 0
M  V30 11538 H 1109.51 -0.594099 -0.390598 0
M  V30 11539 H 1112.11 -1.90502 -0.439228 0
M  V30 11540 H 1110.81 -3.79175 -1.57017 0
M  V30 11541 H 1110.34 -2.68787 -2.87258 0
M  V30 11542 H 1112.36 -2.74495 -4.13361 0
M  V30 11543 N 1111.53 0.65634 -1.43283 0
M  V30 11544 C 1112.76 1.44906 -1.48382 0
M  V30 11545 C 1113.18 1.87823 -0.101993 0
M  V30 11546 O 1112.54 1.57178 0.903597 0
M  V30 11547 C 1112.59 2.66231 -2.43215 0
M  V30 11548 O 1111.69 3.65176 -1.91625 0
M  V30 11549 H 1111.03 0.434601 -0.502014 0
M  V30 11550 H 1113.56 0.803429 -1.88165 0
M  V30 11551 H 1113.57 3.14083 -2.60414 0
M  V30 11552 H 1112.25 2.34336 -3.43598 0
M  V30 11553 H 1110.82 3.24302 -1.84072 0
M  V30 11554 N 1113.01 1.29761 0.894412 0
M  V30 11555 C 1114.43 1.07888 1.17611 0
M  V30 11556 C 1114.63 -0.16644 2.00811 0
M  V30 11557 O 1113.68 -0.86272 2.37304 0
M  V30 11558 C 1114.99 2.33723 1.89193 0
M  V30 11559 C 1116.54 2.39095 2.01997 0
M  V30 11560 C 1117.02 3.64747 2.7699 0
M  V30 11561 N 1118.51 3.65501 2.84541 0
M  V30 11562 C 1119.24 4.59411 3.43117 0
M  V30 11563 N 1118.74 5.63657 4.02818 0
M  V30 11564 N 1120.53 4.46971 3.40842 0
M  V30 11565 H 1112.68 2.0967 0.339421 0
M  V30 11566 H 1114.95 0.923788 0.212882 0
M  V30 11567 H 1114.65 3.24551 1.35496 0
M  V30 11568 H 1114.53 2.41642 2.89636 0
M  V30 11569 H 1116.91 1.48751 2.54867 0
M  V30 11570 H 1116.99 2.35158 1.0067 0
M  V30 11571 H 1116.64 4.55445 2.24794 0
M  V30 11572 H 1116.57 3.65944 3.78672 0
M  V30 11573 H 1119.06 2.90129 2.42144 0
M  V30 11574 H 1119.37 6.31429 4.45552 0
M  V30 11575 H 1117.72 5.67461 4.01265 0
M  V30 11576 H 1120.91 3.64719 2.93424 0
M  V30 11577 H 1121.08 5.20341 3.86198 0
M  V30 11578 N 1114.49 -1.10549 1.12324 0
M  V30 11579 C 1115.76 -1.78968 0.789287 0
M  V30 11580 C 1116.14 -1.984 -0.721156 0
M  V30 11581 O 1115.49 -1.5761 -1.65443 0
M  V30 11582 C 1115.7 -3.12044 1.563 0
M  V30 11583 C 1117.05 -3.86939 1.74825 0
M  V30 11584 O 1118.07 -3.21761 1.52802 0
M  V30 11585 O 1116.93 -5.0392 2.11488 0
M  V30 11586 H 1114.03 -0.775617 0.286962 0
M  V30 11587 H 1116.57 -1.17209 1.2272 0
M  V30 11588 H 1115.35 -2.93313 2.59005 0
M  V30 11589 H 1114.97 -3.81521 1.11926 0
M  V30 11590 N 1115.97 -0.914965 -1.28321 0
M  V30 11591 C 1117.19 -0.564654 -1.99046 0
M  V30 11592 C 1117.61 0.854345 -1.68364 0
M  V30 11593 O 1116.97 1.56605 -0.937068 0
M  V30 11594 C 1117.02 -0.765663 -3.53299 0
M  V30 11595 O 1116.74 -2.12883 -3.829 0
M  V30 11596 C 1118.24 -0.422347 -4.41283 0
M  V30 11597 H 1115.46 -0.215158 -0.635569 0
M  V30 11598 H 1118 -1.2285 -1.63487 0
M  V30 11599 H 1116.16 -0.148795 -3.87114 0
M  V30 11600 H 1116.57 -2.1694 -4.77533 0
M  V30 11601 H 1118.05 -0.613757 -5.48577 0
M  V30 11602 H 1118.52 0.641484 -4.3449 0
M  V30 11603 H 1119.13 -1.01681 -4.12966 0
M  V30 11604 N 1117.44 1.42219 -0.679077 0
M  V30 11605 C 1118.67 2.06333 -0.210097 0
M  V30 11606 C 1119.09 1.50703 1.12562 0
M  V30 11607 O 1118.45 0.627241 1.70104 0
M  V30 11608 C 1118.5 3.60243 -0.160322 0
M  V30 11609 O 1117.6 4.03122 0.869872 0
M  V30 11610 H 1116.94 0.655362 -0.106754 0
M  V30 11611 H 1119.47 1.82278 -0.929294 0
M  V30 11612 H 1119.48 4.07997 0.014384 0
M  V30 11613 H 1118.16 4.00106 -1.13526 0
M  V30 11614 H 1116.74 3.66907 0.66586 0
M  V30 11615 N 1118.92 0.422693 1.51826 0
M  V30 11616 C 1120.34 0.0742364 1.59427 0
M  V30 11617 C 1120.54 -1.41491 1.43466 0
M  V30 11618 O 1119.59 -2.18326 1.26846 0
M  V30 11619 C 1120.91 0.581272 2.95028 0
M  V30 11620 C 1122.45 0.54043 3.08299 0
M  V30 11621 C 1122.93 1.0242 4.46401 0
M  V30 11622 N 1124.42 0.981576 4.5268 0
M  V30 11623 C 1125.16 1.32693 5.57835 0
M  V30 11624 N 1124.65 1.74441 6.70479 0
M  V30 11625 N 1126.44 1.24603 5.48115 0
M  V30 11626 H 1118.6 1.39178 1.60447 0
M  V30 11627 H 1120.86 0.572607 0.75553 0
M  V30 11628 H 1120.56 1.62261 3.12032 0
M  V30 11629 H 1120.44 -0.00176969 3.772 0
M  V30 11630 H 1122.83 -0.491895 2.90971 0
M  V30 11631 H 1122.91 1.15969 2.28002 0
M  V30 11632 H 1122.55 2.05491 4.64474 0
M  V30 11633 H 1122.48 0.381613 5.25215 0
M  V30 11634 H 1124.97 0.674808 3.71826 0
M  V30 11635 H 1125.28 1.99068 7.46721 0
M  V30 11636 H 1123.63 1.78356 6.71725 0
M  V30 11637 H 1126.82 0.918641 4.58997 0
M  V30 11638 H 1126.99 1.51847 6.29958 0
M  V30 11639 N 1120.4 -1.5685 0.153553 0
M  V30 11640 C 1121.31 -2.20664 -0.796528 0
M  V30 11641 C 1122.33 -1.19289 -1.26674 0
M  V30 11642 O 1123.5 -1.51889 -1.32256 0
M  V30 11643 C 1120.57 -2.82088 -2.01561 0
M  V30 11644 C 1119.63 -3.9861 -1.59401 0
M  V30 11645 C 1118.86 -4.57096 -2.75498 0
M  V30 11646 O 1119.08 -4.14462 -3.9189 0
M  V30 11647 O 1118.02 -5.47254 -2.50593 0
M  V30 11648 H 1121.84 -3.02376 -0.283282 0
M  V30 11649 H 1119.43 -1.49218 -0.0737927 0
M  V30 11650 H 1121.31 -3.21103 -2.72893 0
M  V30 11651 H 1119.99 -2.03385 -2.51826 0
M  V30 11652 H 1118.89 -3.64299 -0.850725 0
M  V30 11653 H 1120.23 -4.78853 -1.13845 0
M  V30 11654 N 1121.88 0.120221 -1.57141 0
M  V30 11655 C 1123.1 0.84637 -1.89344 0
M  V30 11656 C 1123.53 1.72702 -0.745365 0
M  V30 11657 O 1122.89 1.7873 0.304155 0
M  V30 11658 C 1122.93 1.65671 -3.20289 0
M  V30 11659 O 1122.04 2.76353 -3.06109 0
M  V30 11660 H 1121.38 0.234132 -0.621352 0
M  V30 11661 H 1123.91 0.102986 -2.04341 0
M  V30 11662 H 1123.92 2.04621 -3.52979 0
M  V30 11663 H 1122.59 1.01023 -4.03444 0
M  V30 11664 H 1121.17 2.40615 -2.84884 0
M  V30 11665 N 1123.36 1.52689 0.390367 0
M  V30 11666 C 1124.58 1.71839 1.16129 0
M  V30 11667 C 1125.01 0.435226 1.82996 0
M  V30 11668 O 1124.36 -0.60889 1.70769 0
M  V30 11669 C 1124.41 2.86784 2.18603 0
M  V30 11670 O 1123.52 2.53662 3.25161 0
M  V30 11671 H 1122.86 0.571455 0.338135 0
M  V30 11672 H 1125.39 1.99475 0.45508 0
M  V30 11673 H 1125.4 3.12239 2.62622 0
M  V30 11674 H 1124.07 3.79872 1.69322 0
M  V30 11675 H 1122.65 2.38942 2.86289 0
M  V30 11676 N 1124.83 -0.648732 1.43629 0
M  V30 11677 C 1126.25 -0.964917 1.27128 0
M  V30 11678 C 1126.45 -2.00561 0.194251 0
M  V30 11679 O 1125.51 -2.48884 -0.42581 0
M  V30 11680 C 1126.82 -1.44491 2.6371 0
M  V30 11681 C 1128.37 -1.56133 2.71278 0
M  V30 11682 C 1128.84 -2.07521 4.08288 0
M  V30 11683 N 1130.33 -2.14817 4.10375 0
M  V30 11684 C 1131.07 -2.55712 5.13224 0
M  V30 11685 N 1130.56 -2.9587 6.26444 0
M  V30 11686 N 1132.36 -2.55691 5.00578 0
M  V30 11687 H 1124.51 0.0398357 2.12363 0
M  V30 11688 H 1126.77 -0.0447705 0.946942 0
M  V30 11689 H 1126.48 -0.754616 3.43509 0
M  V30 11690 H 1126.35 -2.41914 2.89409 0
M  V30 11691 H 1128.74 -2.24263 1.91808 0
M  V30 11692 H 1128.82 -0.571314 2.49338 0
M  V30 11693 H 1128.46 -1.39992 4.88226 0
M  V30 11694 H 1128.39 -3.07362 4.27594 0
M  V30 11695 H 1130.88 -1.86538 3.28652 0
M  V30 11696 H 1131.2 -3.25837 7.0075 0
M  V30 11697 H 1129.54 -2.93664 6.2991 0
M  V30 11698 H 1132.73 -2.23697 4.1119 0
M  V30 11699 H 1132.91 -2.87239 5.80859 0
M  V30 11700 N 1126.31 -1.30234 -0.887518 0
M  V30 11701 C 1127.59 -1.09572 -1.62029 0
M  V30 11702 C 1127.97 0.355877 -2.08079 0
M  V30 11703 O 1127.32 1.34692 -1.84582 0
M  V30 11704 C 1127.53 -2.0943 -2.79177 0
M  V30 11705 C 1128.88 -2.4101 -3.4957 0
M  V30 11706 O 1129.9 -2.0772 -2.89363 0
M  V30 11707 O 1128.76 -2.97943 -4.5814 0
M  V30 11708 H 1125.85 -0.420648 -0.712028 0
M  V30 11709 H 1128.4 -1.41651 -0.934517 0
M  V30 11710 H 1127.17 -3.07149 -2.42436 0
M  V30 11711 H 1126.79 -1.78154 -3.55453 0
M  V30 11712 N 1127.79 1.09952 -1.12909 0
M  V30 11713 C 1129.02 1.8579 -0.910483 0
M  V30 11714 C 1129.43 1.80898 0.540484 0
M  V30 11715 O 1128.79 1.20126 1.3739 0
M  V30 11716 C 1128.84 3.33987 -1.38329 0
M  V30 11717 O 1128.56 3.38811 -2.77739 0
M  V30 11718 C 1130.06 4.26683 -1.20234 0
M  V30 11719 H 1127.28 0.587026 -0.325025 0
M  V30 11720 H 1129.83 1.38965 -1.5003 0
M  V30 11721 H 1127.98 3.78259 -0.836592 0
M  V30 11722 H 1128.4 4.31204 -2.98603 0
M  V30 11723 H 1129.87 5.28846 -1.58197 0
M  V30 11724 H 1130.35 4.38966 -0.14344 0
M  V30 11725 H 1130.95 3.88221 -1.73679 0
M  V30 11726 N 1129.27 0.921757 1.27833 0
M  V30 11727 C 1130.49 0.574599 1.99281 0
M  V30 11728 C 1130.92 -0.838905 1.68357 0
M  V30 11729 O 1130.28 -1.56196 0.920468 0
M  V30 11730 C 1130.32 0.800027 3.51613 0
M  V30 11731 O 1129.43 -0.137215 4.12172 0
M  V30 11732 H 1128.77 0.221887 0.625829 0
M  V30 11733 H 1131.3 1.23939 1.62789 0
M  V30 11734 H 1131.31 0.71326 4.01717 0
M  V30 11735 H 1129.98 1.83042 3.73455 0
M  V30 11736 H 1128.56 -0.00103872 3.729 0
M  V30 11737 N 1130.75 -1.41857 0.686609 0
M  V30 11738 C 1132.16 -1.84439 0.289662 0
M  V30 11739 C 1132.51 -1.57462 -1.17047 0
M  V30 11740 O 1131.63 -1.04046 -1.89745 0
M  V30 11741 C 1132.23 -3.34802 0.518948 0
M  V30 11742 C 1130.79 -3.75988 0.176007 0
M  V30 11743 C 1129.93 -2.65339 0.805632 0
M  V30 11744 H 1132.89 -1.31536 0.88792 0
M  V30 11745 H 1132.91 -3.79833 -0.225209 0
M  V30 11746 H 1132.42 -3.54405 1.58173 0
M  V30 11747 H 1130.52 -3.61989 -0.882865 0
M  V30 11748 H 1130.63 -4.75009 0.624772 0
M  V30 11749 H 1129 -2.53605 0.235966 0
M  V30 11750 H 1129.78 -2.87762 1.8721 0
M  V30 11751 N 1132.22 -0.430739 -1.51599 0
M  V30 11752 C 1133.19 0.372319 -2.26156 0
M  V30 11753 C 1134.19 0.955338 -1.29344 0
M  V30 11754 O 1135.38 0.830823 -1.53111 0
M  V30 11755 C 1132.51 1.52613 -3.04831 0
M  V30 11756 H 1133.7 -0.280996 -2.98581 0
M  V30 11757 H 1131.26 -0.183749 -1.55216 0
M  V30 11758 H 1131.99 2.21569 -2.36807 0
M  V30 11759 H 1131.78 1.11433 -3.75932 0
M  V30 11760 H 1133.27 2.09366 -3.61325 0
M  V30 11761 N 1133.7 1.56767 -0.161869 0
M  V30 11762 C 1135.12 1.58412 0.194403 0
M  V30 11763 C 1135.32 1.17682 1.63564 0
M  V30 11764 O 1134.37 0.884024 2.36519 0
M  V30 11765 C 1135.69 3.00599 -0.0778438 0
M  V30 11766 C 1137.24 3.12996 -0.015307 0
M  V30 11767 C 1137.71 4.57259 -0.260418 0
M  V30 11768 N 1139.2 4.62733 -0.207863 0
M  V30 11769 C 1139.94 5.72193 -0.371821 0
M  V30 11770 N 1139.43 6.90246 -0.594318 0
M  V30 11771 N 1141.23 5.61253 -0.308384 0
M  V30 11772 H 1133.38 1.81531 -1.10274 0
M  V30 11773 H 1135.64 0.840919 -0.437675 0
M  V30 11774 H 1135.35 3.3484 -1.07587 0
M  V30 11775 H 1135.22 3.71819 0.634845 0
M  V30 11776 H 1137.61 2.78588 0.97329 0
M  V30 11777 H 1137.69 2.44232 -0.760559 0
M  V30 11778 H 1137.33 4.92375 -1.24618 0
M  V30 11779 H 1137.26 5.2417 0.505334 0
M  V30 11780 H 1139.75 3.77878 -0.0411541 0
M  V30 11781 H 1140.07 7.6954 -0.70913 0
M  V30 11782 H 1138.41 6.92131 -0.630819 0
M  V30 11783 H 1141.6 4.67905 -0.135217 0
M  V30 11784 H 1141.77 6.46507 -0.439592 0
M  V30 11785 N 1135.18 -0.111886 1.57202 0
M  V30 11786 C 1136.43 -0.816794 1.84859 0
M  V30 11787 C 1136.75 -1.80079 0.748113 0
M  V30 11788 O 1136.02 -1.94578 -0.227235 0
M  V30 11789 H 1134.6 -0.304633 0.682061 0
M  V30 11790 H 1137.26 -0.097513 1.94656 0
M  V30 11791 H 1136.36 -1.35768 2.81022 0
M  V30 11792 N 1136.66 -1.52894 -0.382264 0
M  V30 11793 C 1137.91 -1.68266 -1.12663 0
M  V30 11794 C 1138.23 -0.425974 -1.89778 0
M  V30 11795 O 1137.49 0.59178 -1.86538 0
M  V30 11796 C 1137.79 -2.87309 -2.12576 0
M  V30 11797 C 1137.45 -4.24484 -1.52067 0
M  V30 11798 C 1136.12 -4.6179 -1.35292 0
M  V30 11799 C 1138.47 -5.09858 -1.08138 0
M  V30 11800 C 1135.8 -5.82123 -0.731449 0
M  V30 11801 C 1138.15 -6.30822 -0.473986 0
M  V30 11802 C 1136.81 -6.66854 -0.293585 0
M  V30 11803 H 1136.08 -0.615728 -0.412262 0
M  V30 11804 H 1138.73 -1.8705 -0.410425 0
M  V30 11805 H 1137.03 -2.62968 -2.90439 0
M  V30 11806 H 1138.73 -2.96397 -2.70092 0
M  V30 11807 H 1135.32 -3.951 -1.66114 0
M  V30 11808 H 1139.5 -4.816 -1.19898 0
M  V30 11809 H 1134.76 -6.08643 -0.579938 0
M  V30 11810 H 1138.93 -6.96287 -0.125324 0
M  V30 11811 H 1136.56 -7.59962 0.190054 0
M  V30 11812 N 1138.14 0.641106 -1.43971 0
M  V30 11813 C 1139.55 1.22254 -1.41106 0
M  V30 11814 C 1139.9 1.95825 -0.121284 0
M  V30 11815 O 1139.02 2.01901 0.77879 0
M  V30 11816 C 1139.62 2.22364 -2.55617 0
M  V30 11817 C 1138.18 2.75957 -2.55978 0
M  V30 11818 C 1137.33 1.50792 -2.32717 0
M  V30 11819 H 1140.28 0.432381 -1.52696 0
M  V30 11820 H 1140.3 3.04775 -2.27799 0
M  V30 11821 H 1139.81 1.68789 -3.49474 0
M  V30 11822 H 1137.91 3.33562 -1.66034 0
M  V30 11823 H 1138.02 3.22676 -3.54142 0
M  V30 11824 H 1136.39 1.7857 -1.81617 0
M  V30 11825 H 1137.17 0.991343 -3.28675 0
M  V30 11826 N 1139.62 1.30703 0.880598 0
M  V30 11827 C 1141.03 1.17818 1.4483 0
M  V30 11828 C 1141.38 -0.219456 1.94969 0
M  V30 11829 O 1140.5 -1.11646 1.85375 0
M  V30 11830 C 1141.1 2.13275 2.63247 0
M  V30 11831 C 1139.66 2.04356 3.16094 0
M  V30 11832 C 1138.8 2.03108 1.88792 0
M  V30 11833 H 1141.75 1.42909 0.690125 0
M  V30 11834 H 1141.78 1.71615 3.39601 0
M  V30 11835 H 1141.29 3.14988 2.26725 0
M  V30 11836 H 1139.39 1.058 3.57263 0
M  V30 11837 H 1139.5 2.92953 3.79098 0
M  V30 11838 H 1137.87 1.47971 2.07308 0
M  V30 11839 H 1138.65 3.06558 1.54521 0
M  V30 11840 N 1141.09 -1.09351 1.1349 0
M  V30 11841 C 1142.02 -2.18037 0.835588 0
M  V30 11842 C 1143 -1.68856 -0.205373 0
M  V30 11843 O 1144.19 -1.94094 -0.0641357 0
M  V30 11844 C 1141.32 -3.45987 0.301661 0
M  V30 11845 C 1140.27 -4.08507 1.27696 0
M  V30 11846 C 1139.6 -5.31292 0.602758 0
M  V30 11847 C 1140.9 -4.50916 2.63575 0
M  V30 11848 H 1142.59 -2.43332 1.74441 0
M  V30 11849 H 1140.14 -1.1695 0.840166 0
M  V30 11850 H 1142.09 -4.21324 0.079928 0
M  V30 11851 H 1140.82 -3.20217 -0.642552 0
M  V30 11852 H 1139.48 -3.3519 1.4847 0
M  V30 11853 H 1139.12 -5.01802 -0.346953 0
M  V30 11854 H 1138.82 -5.74075 1.25345 0
M  V30 11855 H 1140.35 -6.09351 0.390325 0
M  V30 11856 H 1141.76 -5.17474 2.46765 0
M  V30 11857 H 1140.16 -5.04586 3.24827 0
M  V30 11858 H 1141.23 -3.63279 3.2118 0
M  V30 11859 N 1142.57 -0.928524 -1.27343 0
M  V30 11860 C 1143.85 -0.487758 -1.89421 0
M  V30 11861 C 1144.23 1.03418 -1.84032 0
M  V30 11862 O 1143.58 1.8887 -1.2861 0
M  V30 11863 C 1143.79 -1.03478 -3.33307 0
M  V30 11864 C 1145.13 -1.09577 -4.10217 0
M  V30 11865 O 1146.16 -0.984463 -3.42326 0
M  V30 11866 O 1145.02 -1.2673 -5.31603 0
M  V30 11867 H 1142.11 -0.157018 -0.811957 0
M  V30 11868 H 1144.66 -1.02027 -1.35605 0
M  V30 11869 H 1143.43 -2.07861 -3.31526 0
M  V30 11870 H 1143.05 -0.483967 -3.94644 0
M  V30 11871 N 1144.05 1.41491 -0.694123 0
M  V30 11872 C 1145.47 1.55358 -0.365532 0
M  V30 11873 C 1145.67 1.66994 1.12762 0
M  V30 11874 O 1144.72 1.64756 1.91342 0
M  V30 11875 C 1146.03 2.79352 -1.11279 0
M  V30 11876 C 1147.58 2.93147 -1.097 0
M  V30 11877 C 1148.06 4.20027 -1.82597 0
M  V30 11878 N 1149.55 4.26981 -1.7956 0
M  V30 11879 C 1150.28 5.24013 -2.32805 0
M  V30 11880 N 1149.78 6.27083 -2.94515 0
M  V30 11881 N 1151.57 5.15943 -2.23069 0
M  V30 11882 H 1143.72 1.32183 -1.66257 0
M  V30 11883 H 1145.99 0.637624 -0.701527 0
M  V30 11884 H 1145.69 2.76958 -2.16765 0
M  V30 11885 H 1145.57 3.70827 -0.690439 0
M  V30 11886 H 1147.95 2.95057 -0.0504037 0
M  V30 11887 H 1148.03 2.02849 -1.55839 0
M  V30 11888 H 1147.68 4.18878 -2.87235 0
M  V30 11889 H 1147.61 5.09294 -1.33893 0
M  V30 11890 H 1150.1 3.53129 -1.34567 0
M  V30 11891 H 1150.41 6.97511 -3.32714 0
M  V30 11892 H 1148.76 6.27589 -2.98592 0
M  V30 11893 H 1151.95 4.34346 -1.74532 0
M  V30 11894 H 1152.12 5.91396 -2.64868 0
M  V30 11895 N 1145.53 0.438773 1.51369 0
M  V30 11896 C 1146.77 -0.127213 2.021 0
M  V30 11897 C 1147.1 -1.42587 1.32284 0
M  V30 11898 O 1146.36 -1.90986 0.426949 0
M  V30 11899 C 1146.66 -0.39186 3.55245 0
M  V30 11900 C 1146.32 0.821158 4.4336 0
M  V30 11901 C 1144.98 1.15381 4.67162 0
M  V30 11902 C 1147.34 1.6303 4.95046 0
M  V30 11903 C 1144.66 2.29626 5.39897 0
M  V30 11904 C 1147.02 2.76376 5.69033 0
M  V30 11905 C 1145.68 3.10094 5.91099 0
M  V30 11906 H 1144.95 -0.0465505 0.739536 0
M  V30 11907 H 1147.6 0.586261 1.82305 0
M  V30 11908 H 1145.9 -1.18724 3.73379 0
M  V30 11909 H 1147.6 -0.843228 3.92034 0
M  V30 11910 H 1144.19 0.551946 4.25031 0
M  V30 11911 H 1148.37 1.38651 4.76539 0
M  V30 11912 H 1143.63 2.56062 5.55196 0
M  V30 11913 H 1147.8 3.39442 6.08072 0
M  V30 11914 H 1145.43 3.98731 6.47238 0
M  V30 11915 N 1147.01 -1.56678 0.170181 0
M  V30 11916 C 1148.25 -1.9646 -0.474125 0
M  V30 11917 C 1148.57 -1.05719 -1.63855 0
M  V30 11918 O 1147.84 -0.123316 -1.95511 0
M  V30 11919 H 1146.42 -0.725446 -0.178149 0
M  V30 11920 H 1149.09 -1.93276 0.251099 0
M  V30 11921 H 1148.18 -3.00726 -0.834894 0
M  V30 11922 N 1148.48 0.103547 -1.57259 0
M  V30 11923 C 1149.41 1.12714 -2.04494 0
M  V30 11924 C 1150.39 1.42278 -0.932255 0
M  V30 11925 O 1151.58 1.52453 -1.20298 0
M  V30 11926 C 1148.71 2.44927 -2.46228 0
M  V30 11927 C 1147.66 2.2979 -3.61082 0
M  V30 11928 C 1146.99 3.67105 -3.88765 0
M  V30 11929 C 1148.29 1.7455 -4.9227 0
M  V30 11930 H 1149.98 0.734198 -2.90258 0
M  V30 11931 H 1147.53 0.351725 -1.39638 0
M  V30 11932 H 1149.48 3.16798 -2.77879 0
M  V30 11933 H 1148.21 2.8614 -1.57453 0
M  V30 11934 H 1146.87 1.60366 -3.29664 0
M  V30 11935 H 1146.51 4.05831 -2.97171 0
M  V30 11936 H 1146.21 3.57825 -4.66084 0
M  V30 11937 H 1147.74 4.40456 -4.22884 0
M  V30 11938 H 1149.15 2.36253 -5.22358 0
M  V30 11939 H 1147.55 1.76051 -5.73695 0
M  V30 11940 H 1148.62 0.704242 -4.79759 0
M  V30 11941 N 1149.96 1.53094 0.37415 0
M  V30 11942 C 1151.21 1.68527 1.11548 0
M  V30 11943 C 1151.53 0.435253 1.9008 0
M  V30 11944 O 1150.8 -0.550594 1.88003 0
M  V30 11945 H 1149.38 0.621255 0.41479 0
M  V30 11946 H 1152.04 1.90258 0.422844 0
M  V30 11947 H 1151.14 2.54248 1.81009 0
M  V30 11948 N 1151.44 -0.633461 1.44309 0
M  V30 11949 C 1152.37 -1.75868 1.4698 0
M  V30 11950 C 1153.38 -1.58691 0.363469 0
M  V30 11951 O 1154.57 -1.67048 0.629075 0
M  V30 11952 C 1151.67 -3.1356 1.28582 0
M  V30 11953 C 1150.85 -3.57217 2.52418 0
M  V30 11954 C 1149.91 -4.73779 2.28954 0
M  V30 11955 O 1148.93 -4.8221 3.02428 0
M  V30 11956 N 1150.13 -5.65324 1.31866 0
M  V30 11957 H 1152.9 -1.74048 2.43983 0
M  V30 11958 H 1150.46 -0.817952 1.39718 0
M  V30 11959 H 1152.45 -3.89255 1.10736 0
M  V30 11960 H 1151.02 -3.10036 0.399529 0
M  V30 11961 H 1150.24 -2.71755 2.85557 0
M  V30 11962 H 1151.53 -3.83136 3.3479 0
M  V30 11963 H 1150.93 -5.61204 0.71179 0
M  V30 11964 H 1149.48 -6.40659 1.19998 0
M  V30 11965 N 1152.92 -1.31168 -0.873655 0
M  V30 11966 C 1154.33 -1.18584 -1.44203 0
M  V30 11967 C 1154.68 0.209114 -1.95082 0
M  V30 11968 O 1153.81 1.10662 -1.85965 0
M  V30 11969 C 1154.4 -2.14668 -2.62112 0
M  V30 11970 C 1152.96 -2.06029 -3.15006 0
M  V30 11971 C 1152.11 -2.04106 -1.87712 0
M  V30 11972 H 1155.06 -1.43273 -0.682536 0
M  V30 11973 H 1155.08 -1.73413 -3.38686 0
M  V30 11974 H 1154.59 -3.16186 -2.25051 0
M  V30 11975 H 1152.69 -1.07693 -3.56697 0
M  V30 11976 H 1152.8 -2.9496 -3.77539 0
M  V30 11977 H 1151.17 -1.49069 -2.0652 0
M  V30 11978 H 1151.95 -3.07373 -1.52894 0
M  V30 11979 N 1154.4 1.08748 -1.14068 0
M  V30 11980 C 1155.64 1.80707 -0.904947 0
M  V30 11981 C 1155.97 1.86478 0.570167 0
M  V30 11982 O 1155.24 1.35536 1.41445 0
M  V30 11983 H 1153.82 0.669261 -0.331811 0
M  V30 11984 H 1156.48 1.31494 -1.43859 0
M  V30 11985 H 1155.57 2.83653 -1.30182 0
M  V30 11986 N 1155.87 0.935264 1.26849 0
M  V30 11987 C 1157.29 0.636661 1.46352 0
M  V30 11988 C 1157.49 -0.811823 1.84423 0
M  V30 11989 O 1156.55 -1.58902 1.9623 0
M  V30 11990 C 1157.86 1.59301 2.55036 0
M  V30 11991 C 1159.41 1.60207 2.68892 0
M  V30 11992 C 1159.88 2.54558 3.80742 0
M  V30 11993 N 1161.37 2.52809 3.88126 0
M  V30 11994 C 1162.11 3.225 4.74111 0
M  V30 11995 N 1161.6 4.01598 5.64527 0
M  V30 11996 N 1163.4 3.11481 4.67906 0
M  V30 11997 H 1155.55 1.8716 1.00423 0
M  V30 11998 H 1157.81 0.803968 0.502334 0
M  V30 11999 H 1157.52 2.62671 2.33874 0
M  V30 12000 H 1157.39 1.34052 3.52576 0
M  V30 12001 H 1159.78 0.575649 2.89431 0
M  V30 12002 H 1159.86 1.89508 1.71815 0
M  V30 12003 H 1159.5 3.57314 3.60956 0
M  V30 12004 H 1159.43 2.22549 4.77263 0
M  V30 12005 H 1161.92 1.9537 3.2348 0
M  V30 12006 H 1162.24 4.51742 6.27016 0
M  V30 12007 H 1160.58 4.057 5.64298 0
M  V30 12008 H 1163.77 2.49175 3.9627 0
M  V30 12009 H 1163.95 3.66064 5.34697 0
M  V30 12010 N 1157.35 -1.41121 0.701616 0
M  V30 12011 C 1158.6 -2.00359 0.232214 0
M  V30 12012 C 1158.91 -1.56231 -1.17691 0
M  V30 12013 O 1160.12 -2.08071 -1.74409 0
M  V30 12014 C 1158.58 -3.58052 0.364257 0
M  V30 12015 C 1158.18 -4.11158 1.77913 0
M  V30 12016 C 1159.93 -4.24476 -0.0450628 0
M  V30 12017 C 1157.84 -5.61306 1.8625 0
M  V30 12018 H 1156.77 -0.749411 0.0830609 0
M  V30 12019 H 1159.42 -1.61528 0.870689 0
M  V30 12020 H 1157.8 -3.94515 -0.342569 0
M  V30 12021 H 1158.97 -3.86101 2.5152 0
M  V30 12022 H 1157.29 -3.57282 2.13866 0
M  V30 12023 H 1159.88 -5.347 -0.00329209 0
M  V30 12024 H 1160.23 -4.01919 -1.08477 0
M  V30 12025 H 1160.76 -3.93069 0.611704 0
M  V30 12026 H 1157.5 -5.88699 2.88294 0
M  V30 12027 H 1157.02 -5.88271 1.17036 0
M  V30 12028 H 1158.7 -6.26179 1.62817 0
M  V30 12029 N 1158.83 -0.446794 -1.51134 0
M  V30 12030 C 1160.24 0.0141132 -1.86695 0
M  V30 12031 C 1160.59 1.41095 -1.36333 0
M  V30 12032 O 1159.72 2.04139 -0.718068 0
M  V30 12033 C 1160.31 0.0323866 -3.38785 0
M  V30 12034 C 1158.87 0.437737 -3.73846 0
M  V30 12035 C 1158.02 -0.363436 -2.74908 0
M  V30 12036 H 1160.97 -0.66221 -1.44224 0
M  V30 12037 H 1160.99 0.839865 -3.71115 0
M  V30 12038 H 1160.5 -0.984374 -3.75409 0
M  V30 12039 H 1158.6 1.45975 -3.42815 0
M  V30 12040 H 1158.72 0.155964 -4.78846 0
M  V30 12041 H 1157.08 0.179566 -2.54066 0
M  V30 12042 H 1157.86 -1.37925 -3.14375 0
M  V30 12043 N 1160.31 1.56586 -0.178487 0
M  V30 12044 C 1161.56 1.96709 0.4637 0
M  V30 12045 C 1161.88 1.06586 1.63292 0
M  V30 12046 O 1161.15 0.133683 1.95443 0
M  V30 12047 H 1159.73 0.726381 0.174299 0
M  V30 12048 H 1162.39 1.9314 -0.261345 0
M  V30 12049 H 1161.49 3.01164 0.818934 0
M  V30 12050 N 1161.79 -0.095206 1.57312 0
M  V30 12051 C 1163.01 -0.81614 1.90667 0
M  V30 12052 C 1163.44 -1.71494 0.772746 0
M  V30 12053 O 1162.79 -1.79192 -0.275682 0
M  V30 12054 C 1162.84 -1.60555 3.22885 0
M  V30 12055 O 1161.95 -2.71448 3.10467 0
M  V30 12056 H 1161.29 -0.224217 0.624998 0
M  V30 12057 H 1163.82 -0.070464 2.04479 0
M  V30 12058 H 1163.83 -1.98979 3.5619 0
M  V30 12059 H 1162.5 -0.945918 4.05 0
M  V30 12060 H 1161.08 -2.36053 2.88675 0
M  V30 12061 N 1163.26 -1.53291 -0.366026 0
M  V30 12062 C 1164.51 -1.69702 -1.11036 0
M  V30 12063 C 1164.84 -0.44728 -1.88979 0
M  V30 12064 O 1164.12 0.55542 -1.86401 0
M  V30 12065 C 1164.4 -2.94661 -2.06995 0
M  V30 12066 C 1164.25 -4.29791 -1.32663 0
M  V30 12067 C 1165.57 -3.15219 -3.07123 0
M  V30 12068 H 1162.69 -0.617525 -0.402284 0
M  V30 12069 H 1165.33 -1.85929 -0.391223 0
M  V30 12070 H 1163.48 -2.80958 -2.68318 0
M  V30 12071 H 1165.16 -4.55305 -0.741266 0
M  V30 12072 H 1163.4 -4.29223 -0.628484 0
M  V30 12073 H 1164.07 -5.13359 -2.02896 0
M  V30 12074 H 1166.55 -3.28105 -2.55903 0
M  V30 12075 H 1165.42 -4.04088 -3.71489 0
M  V30 12076 H 1165.68 -2.30479 -3.77269 0
M  V30 12077 N 1164.74 0.6258 -1.44643 0
M  V30 12078 C 1165.69 1.75869 -1.52226 0
M  V30 12079 C 1166.68 1.64765 -0.39355 0
M  V30 12080 O 1167.89 1.70779 -0.568718 0
M  V30 12081 H 1164.27 0.580712 -0.477784 0
M  V30 12082 H 1166.24 1.66596 -2.47565 0
M  V30 12083 C 1164.99 3.14217 -1.48873 0
M  V30 12084 H 1164.31 3.23411 -2.35043 0
M  V30 12085 H 1165.75 3.93365 -1.58239 0
M  V30 12086 C 1164.21 3.36243 -0.210299 0
M  V30 12087 O 1164.74 3.95243 0.717335 0
M  V30 12088 N 1162.94 2.90385 -0.111744 0
M  V30 12089 H 1162.49 2.42555 -0.867466 0
M  V30 12090 H 1162.45 3.05498 0.742871 0
M  V30 12091 N 1166.22 1.31629 0.866686 0
M  V30 12092 C 1167.18 1.1951 1.95576 0
M  V30 12093 C 1168.18 0.121319 1.60342 0
M  V30 12094 O 1169.37 0.370832 1.70207 0
M  V30 12095 C 1166.51 0.835201 3.30511 0
M  V30 12096 H 1167.7 2.16285 2.07752 0
M  V30 12097 H 1165.25 1.15288 1.05539 0
M  V30 12098 H 1165.99 -0.131245 3.24034 0
M  V30 12099 H 1165.77 1.61142 3.57457 0
M  V30 12100 H 1167.26 0.774393 4.10357 0
M  V30 12101 N 1167.7 -1.08142 1.14644 0
M  V30 12102 C 1168.63 -2.14476 0.779437 0
M  V30 12103 C 1169.61 -1.60812 -0.240454 0
M  V30 12104 O 1170.79 -1.88059 -0.128881 0
M  V30 12105 C 1167.92 -3.38333 0.157692 0
M  V30 12106 C 1166.97 -4.10754 1.14819 0
M  V30 12107 S 1167.8 -4.63227 2.68666 0
M  V30 12108 C 1168.96 -5.90367 2.07888 0
M  V30 12109 H 1169.19 -2.45276 1.68009 0
M  V30 12110 H 1166.72 -1.20292 0.967942 0
M  V30 12111 H 1168.68 -4.10038 -0.194607 0
M  V30 12112 H 1167.34 -3.05726 -0.720435 0
M  V30 12113 H 1166.53 -4.99644 0.661226 0
M  V30 12114 H 1166.14 -3.44974 1.44462 0
M  V30 12115 H 1168.43 -6.62107 1.43599 0
M  V30 12116 H 1169.37 -6.43764 2.94913 0
M  V30 12117 H 1169.78 -5.43507 1.52514 0
M  V30 12118 N 1169.18 -0.941978 -1.26351 0
M  V30 12119 C 1170.59 -0.644413 -1.46012 0
M  V30 12120 C 1170.79 0.802031 -1.84851 0
M  V30 12121 O 1169.85 1.57859 -1.9707 0
M  V30 12122 C 1171.16 -1.60652 -2.54188 0
M  V30 12123 C 1172.71 -1.6163 -2.68038 0
M  V30 12124 C 1173.19 -2.56573 -3.79387 0
M  V30 12125 N 1174.68 -2.54863 -3.8678 0
M  V30 12126 C 1175.41 -3.2501 -4.72394 0
M  V30 12127 N 1174.91 -4.04586 -5.6239 0
M  V30 12128 N 1176.7 -3.13958 -4.66247 0
M  V30 12129 H 1168.85 -1.8769 -0.994293 0
M  V30 12130 H 1171.11 -0.806621 -0.498063 0
M  V30 12131 H 1170.82 -2.63907 -2.32478 0
M  V30 12132 H 1170.69 -1.3592 -3.5186 0
M  V30 12133 H 1173.08 -0.59099 -2.89122 0
M  V30 12134 H 1173.16 -1.90417 -1.70807 0
M  V30 12135 H 1172.81 -3.59223 -3.59056 0
M  V30 12136 H 1172.74 -2.25077 -4.76076 0
M  V30 12137 H 1175.23 -1.97082 -3.22439 0
M  V30 12138 H 1175.54 -4.55061 -6.24612 0
M  V30 12139 H 1173.89 -4.08687 -5.62139 0
M  V30 12140 H 1177.08 -2.51273 -3.94943 0
M  V30 12141 H 1177.25 -3.68894 -5.32749 0
M  V30 12142 N 1170.66 1.40747 -0.709091 0
M  V30 12143 C 1171.9 2.013 -0.246174 0
M  V30 12144 C 1172.23 1.56078 1.15556 0
M  V30 12145 O 1171.51 0.777941 1.78265 0
M  V30 12146 C 1171.79 3.58685 -0.318945 0
M  V30 12147 C 1171.65 4.13997 -1.75859 0
M  V30 12148 C 1172.96 4.38981 0.31358 0
M  V30 12149 H 1170.08 0.73137 -0.0909255 0
M  V30 12150 H 1172.73 1.67312 -0.900365 0
M  V30 12151 H 1170.88 3.8777 0.23805 0
M  V30 12152 H 1172.55 3.95735 -2.37047 0
M  V30 12153 H 1170.79 3.6853 -2.28841 0
M  V30 12154 H 1171.46 5.23158 -1.76095 0
M  V30 12155 H 1173.94 4.15789 -0.160939 0
M  V30 12156 H 1172.81 5.48409 0.232184 0
M  V30 12157 H 1173.07 4.19474 1.39621 0
M  V30 12158 N 1172.13 0.454803 1.50895 0
M  V30 12159 C 1173.06 -0.337982 2.31041 0
M  V30 12160 C 1174.04 -1.00523 1.37219 0
M  V30 12161 O 1175.23 -1.00553 1.66141 0
M  V30 12162 C 1172.36 -1.42964 3.1651 0
M  V30 12163 C 1171.31 -0.884907 4.18752 0
M  V30 12164 C 1170.64 -2.07363 4.92854 0
M  V30 12165 C 1171.94 0.0926716 5.22218 0
M  V30 12166 H 1173.63 0.33089 2.97566 0
M  V30 12167 H 1171.18 0.160577 1.43102 0
M  V30 12168 H 1173.13 -1.9916 3.71367 0
M  V30 12169 H 1171.86 -2.12705 2.47839 0
M  V30 12170 H 1170.52 -0.345031 3.64973 0
M  V30 12171 H 1170.16 -2.75764 4.2067 0
M  V30 12172 H 1169.86 -1.71545 5.62002 0
M  V30 12173 H 1171.39 -2.6408 5.5054 0
M  V30 12174 H 1172.8 -0.379568 5.72042 0
M  V30 12175 H 1171.2 0.3643 5.98993 0
M  V30 12176 H 1172.27 1.02383 4.73968 0
M  V30 12177 N 1173.61 -1.56489 0.186789 0
M  V30 12178 C 1174.84 -2.02163 -0.463126 0
M  V30 12179 C 1175.26 -1.06612 -1.54969 0
M  V30 12180 O 1174.62 -0.0482139 -1.81236 0
M  V30 12181 C 1174.67 -3.46337 -1.00416 0
M  V30 12182 O 1173.77 -3.53889 -2.11747 0
M  V30 12183 H 1173.11 -0.65496 -0.109194 0
M  V30 12184 H 1175.64 -2.02459 0.295227 0
M  V30 12185 H 1175.65 -3.85959 -1.32287 0
M  V30 12186 H 1174.33 -4.15376 -0.208693 0
M  V30 12187 H 1172.9 -3.26136 -1.80803 0
M  V30 12188 N 1175.09 0.086862 -1.5736 0
M  V30 12189 C 1176.32 0.802167 -1.90717 0
M  V30 12190 C 1176.73 1.71875 -0.781304 0
M  V30 12191 O 1176.09 1.80831 0.246255 0
M  V30 12192 C 1176.14 1.60858 -3.23739 0
M  V30 12193 O 1175.86 0.728851 -4.31995 0
M  V30 12194 C 1177.36 2.42621 -3.71012 0
M  V30 12195 H 1174.58 0.228914 -0.630745 0
M  V30 12196 H 1177.13 0.061634 -2.04407 0
M  V30 12197 H 1175.28 2.30153 -3.11622 0
M  V30 12198 H 1175.7 1.2882 -5.08435 0
M  V30 12199 H 1177.17 2.94683 -4.66761 0
M  V30 12200 H 1177.65 3.21462 -2.99264 0
M  V30 12201 H 1178.25 1.78509 -3.86024 0
M  V30 12202 N 1176.57 1.53483 0.357892 0
M  V30 12203 C 1177.79 1.74264 1.12458 0
M  V30 12204 C 1178.22 0.473944 1.82031 0
M  V30 12205 O 1177.58 -0.57253 1.72023 0
M  V30 12206 C 1177.62 2.91356 2.12471 0
M  V30 12207 O 1176.73 2.60502 3.19707 0
M  V30 12208 H 1176.07 0.578499 0.325937 0
M  V30 12209 H 1178.6 2.00395 0.412666 0
M  V30 12210 H 1178.61 3.1774 2.5594 0
M  V30 12211 H 1177.28 3.83378 1.61226 0
M  V30 12212 H 1175.86 2.44961 2.81156 0
M  V30 12213 N 1178.05 -0.61812 1.44973 0
M  V30 12214 C 1179.27 -1.40429 1.51945 0
M  V30 12215 C 1179.69 -1.88215 0.148556 0
M  V30 12216 O 1179.05 -1.61603 -0.847978 0
M  V30 12217 C 1179.1 -2.61588 2.49507 0
M  V30 12218 O 1178.82 -2.15791 3.81269 0
M  V30 12219 C 1180.32 -3.5457 2.66074 0
M  V30 12220 H 1177.54 -0.43023 0.514921 0
M  V30 12221 H 1180.08 -0.754791 1.90061 0
M  V30 12222 H 1178.24 -3.22602 2.14492 0
M  V30 12223 H 1178.65 -2.94434 4.34061 0
M  V30 12224 H 1180.13 -4.36155 3.38338 0
M  V30 12225 H 1180.6 -4.04227 1.71746 0
M  V30 12226 H 1181.21 -2.99416 3.02043 0
M  V30 12227 N 1179.52 -1.32087 -0.859693 0
M  V30 12228 C 1180.8 -1.12984 -1.59668 0
M  V30 12229 C 1181.18 0.311661 -2.08787 0
M  V30 12230 O 1180.53 1.30746 -1.87397 0
M  V30 12231 C 1180.74 -2.15305 -2.74672 0
M  V30 12232 C 1182.09 -2.48371 -3.44379 0
M  V30 12233 O 1183.11 -2.13811 -2.84891 0
M  V30 12234 O 1181.97 -3.07594 -4.51717 0
M  V30 12235 H 1179.06 -0.435657 -0.702945 0
M  V30 12236 H 1181.61 -1.43601 -0.90426 0
M  V30 12237 H 1180.38 -3.12223 -2.35866 0
M  V30 12238 H 1180 -1.85653 -3.51594 0
M  V30 12239 N 1181 1.07532 -1.15215 0
M  V30 12240 C 1181.93 2.1668 -0.870171 0
M  V30 12241 C 1182.91 1.69161 0.178483 0
M  V30 12242 O 1184.1 1.94172 0.0332489 0
M  V30 12243 C 1181.23 3.45464 -0.356666 0
M  V30 12244 C 1180.18 4.06424 -1.34179 0
M  V30 12245 C 1179.51 5.30266 -0.687206 0
M  V30 12246 C 1180.81 4.46666 -2.70715 0
M  V30 12247 H 1182.5 2.40526 -1.7829 0
M  V30 12248 H 1180.05 1.15598 -0.858665 0
M  V30 12249 H 1182 4.21144 -0.146947 0
M  V30 12250 H 1180.72 3.21199 0.591527 0
M  V30 12251 H 1179.38 3.32786 -1.53783 0
M  V30 12252 H 1179.03 5.0229 0.267077 0
M  V30 12253 H 1178.73 5.72009 -1.34462 0
M  V30 12254 H 1180.26 6.08653 -0.487218 0
M  V30 12255 H 1181.67 5.13483 -2.54966 0
M  V30 12256 H 1180.07 4.99355 -3.32813 0
M  V30 12257 H 1181.14 3.58123 -3.26919 0
M  V30 12258 N 1182.48 0.948665 1.2585 0
M  V30 12259 C 1183.39 0.470525 2.29833 0
M  V30 12260 C 1184.41 -0.45919 1.67832 0
M  V30 12261 O 1185.58 -0.336893 1.98562 0
M  V30 12262 C 1182.65 -0.249635 3.458 0
M  V30 12263 C 1181.71 0.717559 4.23261 0
M  V30 12264 C 1180.94 0.0316724 5.33691 0
M  V30 12265 O 1181.16 -1.18384 5.5798 0
M  V30 12266 O 1180.1 0.71418 5.97648 0
M  V30 12267 H 1183.92 1.33447 2.72811 0
M  V30 12268 H 1181.51 0.714864 1.31187 0
M  V30 12269 H 1183.39 -0.654993 4.16279 0
M  V30 12270 H 1182.07 -1.08885 3.04837 0
M  V30 12271 H 1180.97 1.17301 3.55234 0
M  V30 12272 H 1182.31 1.52461 4.67992 0
M  V30 12273 N 1183.96 -1.40369 0.716545 0
M  V30 12274 C 1184.92 -2.29083 0.0733105 0
M  V30 12275 C 1185.92 -1.45415 -0.686378 0
M  V30 12276 O 1187.11 -1.66316 -0.518139 0
M  V30 12277 C 1184.24 -3.28639 -0.906032 0
M  V30 12278 H 1185.44 -2.87464 0.85467 0
M  V30 12279 H 1182.99 -1.48706 0.481256 0
M  V30 12280 H 1183.72 -2.75279 -1.71441 0
M  V30 12281 H 1183.51 -3.90405 -0.364163 0
M  V30 12282 H 1185 -3.95066 -1.35324 0
M  V30 12283 N 1185.44 -0.462799 -1.50652 0
M  V30 12284 C 1186.4 0.324264 -2.26895 0
M  V30 12285 C 1187.4 0.927687 -1.31342 0
M  V30 12286 O 1188.59 0.798159 -1.54839 0
M  V30 12287 C 1185.72 1.46113 -3.08 0
M  V30 12288 H 1186.91 -0.344266 -2.97917 0
M  V30 12289 H 1184.47 -0.216631 -1.54791 0
M  V30 12290 H 1185.2 2.16496 -2.41454 0
M  V30 12291 H 1184.99 1.03433 -3.78212 0
M  V30 12292 H 1186.48 2.01655 -3.65684 0
M  V30 12293 N 1186.91 1.56388 -0.195085 0
M  V30 12294 C 1188.16 1.97872 0.444344 0
M  V30 12295 C 1188.49 1.0819 1.61271 0
M  V30 12296 O 1187.77 0.133904 1.94039 0
M  V30 12297 C 1188.05 3.48556 0.90449 0
M  V30 12298 C 1187.9 4.49015 -0.265693 0
M  V30 12299 C 1189.22 4.02938 1.76999 0
M  V30 12300 H 1186.34 0.719413 0.160041 0
M  V30 12301 H 1188.98 1.87835 -0.286005 0
M  V30 12302 H 1187.13 3.5724 1.52682 0
M  V30 12303 H 1188.81 4.52368 -0.903363 0
M  V30 12304 H 1187.05 4.23987 -0.917462 0
M  V30 12305 H 1187.72 5.51912 0.0987834 0
M  V30 12306 H 1190.2 3.97033 1.24514 0
M  V30 12307 H 1189.07 5.08741 2.06092 0
M  V30 12308 H 1189.33 3.48197 2.72418 0
M  V30 12309 N 1188.39 -0.0785156 1.57404 0
M  V30 12310 C 1189.36 -1.07835 2.02248 0
M  V30 12311 C 1190.36 -1.31987 0.918475 0
M  V30 12312 O 1191.55 -1.27821 1.18353 0
M  V30 12313 C 1188.68 -2.42361 2.39737 0
M  V30 12314 H 1189.87 -0.691995 2.91807 0
M  V30 12315 H 1187.42 -0.32405 1.52904 0
M  V30 12316 H 1188.16 -2.85841 1.53183 0
M  V30 12317 H 1187.94 -2.26174 3.20293 0
M  V30 12318 H 1189.43 -3.14241 2.75031 0
M  V30 12319 N 1189.87 -1.5367 -0.349747 0
M  V30 12320 C 1191.15 -1.61238 -1.10732 0
M  V30 12321 C 1191.53 -0.429756 -2.06679 0
M  V30 12322 O 1190.88 0.578564 -2.21054 0
M  V30 12323 C 1191.09 -2.97022 -1.83245 0
M  V30 12324 C 1192.43 -3.52158 -2.37212 0
M  V30 12325 O 1193.46 -2.99156 -1.9335 0
M  V30 12326 O 1192.32 -4.44853 -3.1744 0
M  V30 12327 H 1189.41 -0.65191 -0.508864 0
M  V30 12328 H 1191.96 -1.66015 -0.351738 0
M  V30 12329 H 1190.73 -3.74535 -1.13311 0
M  V30 12330 H 1190.35 -2.95808 -2.65675 0
M  V30 12331 N 1191.35 0.610423 -1.45298 0
M  V30 12332 C 1192.31 1.70324 -1.5337 0
M  V30 12333 C 1193.31 1.55393 -0.413492 0
M  V30 12334 O 1194.5 1.60512 -0.676872 0
M  V30 12335 C 1191.63 3.09572 -1.42752 0
M  V30 12336 H 1192.83 1.64535 -2.50736 0
M  V30 12337 H 1190.38 0.825906 -1.32697 0
M  V30 12338 H 1191.11 3.2094 -0.465601 0
M  V30 12339 H 1190.9 3.21817 -2.24 0
M  V30 12340 H 1192.39 3.89178 -1.51427 0
M  V30 12341 N 1192.83 1.32541 0.852676 0
M  V30 12342 C 1193.76 1.24254 1.97694 0
M  V30 12343 C 1194.74 0.125971 1.69633 0
M  V30 12344 O 1195.92 0.31347 1.91653 0
M  V30 12345 C 1193.05 0.966874 3.3357 0
M  V30 12346 C 1192.01 2.0449 3.75989 0
M  V30 12347 C 1191.33 1.6216 5.09518 0
M  V30 12348 C 1192.63 3.46013 3.91244 0
M  V30 12349 H 1194.33 2.18317 2.04886 0
M  V30 12350 H 1191.87 1.05101 0.984371 0
M  V30 12351 H 1193.83 0.895444 4.11776 0
M  V30 12352 H 1192.55 -0.0093893 3.26599 0
M  V30 12353 H 1191.21 2.10651 3.00036 0
M  V30 12354 H 1190.86 0.632729 4.99005 0
M  V30 12355 H 1190.56 2.3429 5.38871 0
M  V30 12356 H 1192.08 1.56457 5.90215 0
M  V30 12357 H 1193.49 3.4243 4.59799 0
M  V30 12358 H 1191.89 4.1651 4.32017 0
M  V30 12359 H 1192.96 3.8553 2.941 0
M  V30 12360 N 1194.3 -1.0692 1.15784 0
M  V30 12361 C 1195.25 -2.14235 0.858616 0
M  V30 12362 C 1196.22 -1.65006 -0.190295 0
M  V30 12363 O 1197.41 -1.90715 -0.0568853 0
M  V30 12364 C 1194.55 -3.43229 0.35888 0
M  V30 12365 C 1193.66 -4.06225 1.46987 0
M  V30 12366 C 1192.79 -5.2307 0.925812 0
M  V30 12367 C 1191.83 -5.78037 2.01345 0
M  V30 12368 N 1190.97 -6.86206 1.48544 0
M  V30 12369 H 1195.81 -2.3917 1.77769 0
M  V30 12370 H 1193.35 -1.17354 0.886925 0
M  V30 12371 H 1195.31 -4.17169 0.0508198 0
M  V30 12372 H 1193.94 -3.18531 -0.523259 0
M  V30 12373 H 1192.99 -3.29895 1.89403 0
M  V30 12374 H 1194.3 -4.43081 2.29088 0
M  V30 12375 H 1193.45 -6.04011 0.570555 0
M  V30 12376 H 1192.19 -4.87644 0.0740371 0
M  V30 12377 H 1191.2 -4.95738 2.37748 0
M  V30 12378 H 1192.42 -6.15517 2.86907 0
M  V30 12379 H 1190.37 -6.52711 0.656092 0
M  V30 12380 H 1190.29 -7.2197 2.24266 0
M  V30 12381 H 1191.55 -7.70842 1.15856 0
M  V30 12382 N 1195.78 -0.955326 -1.25345 0
M  V30 12383 C 1196.73 -0.474888 -2.25862 0
M  V30 12384 C 1197.7 0.472996 -1.59223 0
M  V30 12385 O 1198.88 0.386094 -1.86853 0
M  V30 12386 C 1196.02 0.240554 -3.44261 0
M  V30 12387 C 1195.14 -0.74465 -4.25534 0
M  V30 12388 C 1194.27 -0.00657513 -5.312 0
M  V30 12389 C 1193.31 -0.982666 -6.04161 0
M  V30 12390 N 1192.45 -0.275418 -7.0156 0
M  V30 12391 H 1197.29 -1.33693 -2.66327 0
M  V30 12392 H 1194.83 -0.670439 -1.30933 0
M  V30 12393 H 1196.78 0.671933 -4.11753 0
M  V30 12394 H 1195.41 1.06664 -3.04668 0
M  V30 12395 H 1194.47 -1.29451 -3.57696 0
M  V30 12396 H 1195.78 -1.48948 -4.76042 0
M  V30 12397 H 1194.93 0.483404 -6.04771 0
M  V30 12398 H 1193.67 0.771035 -4.81567 0
M  V30 12399 H 1192.68 -1.48364 -5.29404 0
M  V30 12400 H 1193.9 -1.76052 -6.55883 0
M  V30 12401 H 1191.85 0.483441 -6.54216 0
M  V30 12402 H 1191.76 -0.959324 -7.49889 0
M  V30 12403 H 1193.03 0.193002 -7.79261 0
M  V30 12404 N 1197.26 1.39987 -0.723979 0
M  V30 12405 C 1198.67 1.83606 -0.338461 0
M  V30 12406 C 1199.02 1.6051 1.12831 0
M  V30 12407 O 1198.15 1.09041 1.8692 0
M  V30 12408 C 1198.74 3.33308 -0.607533 0
M  V30 12409 C 1197.3 3.75389 -0.275632 0
M  V30 12410 C 1196.45 2.6311 -0.875699 0
M  V30 12411 H 1199.4 1.29135 -0.922483 0
M  V30 12412 H 1199.42 3.80297 0.124424 0
M  V30 12413 H 1198.93 3.50087 -1.67514 0
M  V30 12414 H 1197.03 3.64203 0.786579 0
M  V30 12415 H 1197.15 4.73185 -0.750492 0
M  V30 12416 H 1195.51 2.5289 -0.303122 0
M  V30 12417 H 1196.29 2.82698 -1.94774 0
M  V30 12418 N 1198.74 0.470782 1.50404 0
M  V30 12419 C 1199.99 -0.0844409 2.02624 0
M  V30 12420 C 1200.32 -1.39398 1.3521 0
M  V30 12421 O 1199.59 -1.88542 0.477707 0
M  V30 12422 C 1199.88 -0.268563 3.59097 0
M  V30 12423 C 1199.73 1.06198 4.37084 0
M  V30 12424 C 1201.05 -1.02324 4.28039 0
M  V30 12425 H 1198.17 -0.0292141 0.736421 0
M  V30 12426 H 1200.81 0.616312 1.79726 0
M  V30 12427 H 1198.96 -0.865441 3.78738 0
M  V30 12428 H 1200.63 1.69541 4.29015 0
M  V30 12429 H 1198.87 1.65868 4.00837 0
M  V30 12430 H 1199.55 0.886795 5.4483 0
M  V30 12431 H 1202.02 -0.517325 4.12872 0
M  V30 12432 H 1200.9 -1.12087 5.37334 0
M  V30 12433 H 1201.16 -2.05974 3.91187 0
M  V30 12434 N 1200.22 -1.56282 0.203376 0
M  V30 12435 C 1201.63 -1.58871 -0.152335 0
M  V30 12436 C 1201.83 -1.21978 -1.60386 0
M  V30 12437 O 1200.89 -0.946422 -2.34092 0
M  V30 12438 C 1202.2 -3.00287 0.157515 0
M  V30 12439 C 1203.75 -3.12846 0.098287 0
M  V30 12440 C 1204.23 -4.56408 0.38156 0
M  V30 12441 N 1205.72 -4.6202 0.330475 0
M  V30 12442 C 1206.45 -5.71006 0.523397 0
M  V30 12443 N 1205.95 -6.88428 0.777115 0
M  V30 12444 N 1207.74 -5.60238 0.457082 0
M  V30 12445 H 1199.89 -1.78543 1.15048 0
M  V30 12446 H 1202.15 -0.829019 0.459816 0
M  V30 12447 H 1201.86 -3.3187 1.16427 0
M  V30 12448 H 1201.73 -3.73372 -0.536041 0
M  V30 12449 H 1204.12 -2.8107 -0.899085 0
M  V30 12450 H 1204.2 -2.42129 0.825045 0
M  V30 12451 H 1203.85 -4.88897 1.37629 0
M  V30 12452 H 1203.78 -5.25325 -0.366182 0
M  V30 12453 H 1206.27 -3.77636 0.141327 0
M  V30 12454 H 1206.58 -7.67389 0.912911 0
M  V30 12455 H 1204.93 -6.90215 0.814104 0
M  V30 12456 H 1208.12 -4.67382 0.259226 0
M  V30 12457 H 1208.29 -6.45114 0.610848 0
M  V30 12458 N 1201.7 0.070167 -1.57444 0
M  V30 12459 C 1203.11 0.424991 -1.53838 0
M  V30 12460 C 1203.31 1.79076 -0.923793 0
M  V30 12461 O 1202.37 2.46939 -0.527002 0
M  V30 12462 C 1203.68 0.364562 -2.98482 0
M  V30 12463 C 1205.23 0.444631 -3.09826 0
M  V30 12464 C 1205.7 0.414093 -4.56124 0
M  V30 12465 N 1207.19 0.474119 -4.60767 0
M  V30 12466 C 1207.93 0.472729 -5.71448 0
M  V30 12467 N 1207.43 0.426059 -6.91489 0
M  V30 12468 N 1209.22 0.519408 -5.59695 0
M  V30 12469 H 1201.37 -0.824117 -1.9576 0
M  V30 12470 H 1203.63 -0.309401 -0.896089 0
M  V30 12471 H 1203.34 -0.572343 -3.47012 0
M  V30 12472 H 1203.21 1.17414 -3.5846 0
M  V30 12473 H 1205.6 1.37196 -2.61269 0
M  V30 12474 H 1205.68 -0.393547 -2.52755 0
M  V30 12475 H 1205.32 -0.509394 -5.05339 0
M  V30 12476 H 1205.25 1.26983 -5.11061 0
M  V30 12477 H 1207.75 0.514371 -3.74383 0
M  V30 12478 H 1208.06 0.428969 -7.71609 0
M  V30 12479 H 1206.4 0.392722 -6.9389 0
M  V30 12480 H 1209.59 0.553573 -4.64815 0
M  V30 12481 H 1209.77 0.514856 -6.45951 0
M  V30 12482 N 1203.17 1.53854 0.341593 0
M  V30 12483 C 1204.59 1.44161 0.684821 0
M  V30 12484 C 1204.79 0.599929 1.92362 0
M  V30 12485 O 1203.85 0.0916771 2.52334 0
M  V30 12486 C 1205.16 2.87668 0.875637 0
M  V30 12487 C 1206.71 2.97455 0.974131 0
M  V30 12488 C 1207.18 4.42075 1.19725 0
M  V30 12489 N 1208.67 4.45609 1.2644 0
M  V30 12490 C 1209.41 5.54643 1.45459 0
M  V30 12491 N 1208.9 6.7368 1.61637 0
M  V30 12492 N 1210.7 5.4226 1.48022 0
M  V30 12493 H 1202.85 2.07069 -0.472883 0
M  V30 12494 H 1205.11 0.936114 -0.149648 0
M  V30 12495 H 1204.82 3.51681 0.0368595 0
M  V30 12496 H 1204.69 3.32731 1.7768 0
M  V30 12497 H 1207.08 2.33582 1.80343 0
M  V30 12498 H 1207.16 2.55751 0.0498282 0
M  V30 12499 H 1206.8 5.06529 0.372872 0
M  V30 12500 H 1206.73 4.81372 2.13515 0
M  V30 12501 H 1209.22 3.59831 1.15455 0
M  V30 12502 H 1209.54 7.52541 1.7579 0
M  V30 12503 H 1207.88 6.76622 1.5877 0
M  V30 12504 H 1211.07 4.48221 1.34966 0
M  V30 12505 H 1211.25 6.27293 1.62502 0
M  V30 12506 N 1204.65 -0.602709 1.4562 0
M  V30 12507 C 1205.88 -1.38608 1.53203 0
M  V30 12508 C 1206.29 -1.88478 0.165098 0
M  V30 12509 O 1205.63 -1.63142 -0.844421 0
M  V30 12510 C 1205.69 -2.62214 2.45935 0
M  V30 12511 C 1205.36 -2.3395 3.92577 0
M  V30 12512 C 1206.36 -1.94011 4.82344 0
M  V30 12513 C 1204.04 -2.46711 4.37537 0
M  V30 12514 C 1206.03 -1.67202 6.15079 0
M  V30 12515 C 1203.72 -2.19515 5.70313 0
M  V30 12516 C 1204.72 -1.79823 6.58903 0
M  V30 12517 O 1204.41 -1.52948 7.89216 0
M  V30 12518 H 1204.14 -0.43052 0.52118 0
M  V30 12519 H 1206.69 -0.741655 1.91543 0
M  V30 12520 H 1204.92 -3.29394 2.02575 0
M  V30 12521 H 1206.61 -3.24264 2.44147 0
M  V30 12522 H 1207.38 -1.83684 4.48871 0
M  V30 12523 H 1203.26 -2.76572 3.68821 0
M  V30 12524 H 1206.8 -1.36146 6.84186 0
M  V30 12525 H 1202.7 -2.2946 6.03339 0
M  V30 12526 H 1203.47 -1.6696 8.01291 0
M  V30 12527 N 1206.13 -1.32992 -0.845635 0
M  V30 12528 C 1207.04 -1.24701 -1.98713 0
M  V30 12529 C 1208.06 -0.158864 -1.73273 0
M  V30 12530 O 1209.23 -0.381209 -1.97759 0
M  V30 12531 C 1206.3 -0.979524 -3.32575 0
M  V30 12532 C 1205.36 -2.15701 -3.71176 0
M  V30 12533 C 1204.59 -1.90219 -4.98651 0
M  V30 12534 O 1204.81 -0.849171 -5.64044 0
M  V30 12535 O 1203.75 -2.76571 -5.34595 0
M  V30 12536 H 1207.57 -2.20683 -2.08645 0
M  V30 12537 H 1205.16 -1.12971 -0.97765 0
M  V30 12538 H 1207.04 -0.847219 -4.12796 0
M  V30 12539 H 1205.72 -0.0499398 -3.23661 0
M  V30 12540 H 1204.62 -2.34483 -2.91494 0
M  V30 12541 H 1205.96 -3.0697 -3.84747 0
M  V30 12542 N 1207.61 1.06304 -1.1635 0
M  V30 12543 C 1209.02 1.60566 -0.952652 0
M  V30 12544 C 1209.37 1.8963 0.503473 0
M  V30 12545 O 1208.49 1.66964 1.37666 0
M  V30 12546 C 1209.09 2.9172 -1.72292 0
M  V30 12547 C 1207.65 3.42684 -1.55707 0
M  V30 12548 C 1206.8 2.16579 -1.73172 0
M  V30 12549 H 1209.75 0.892563 -1.31221 0
M  V30 12550 H 1209.77 3.61126 -1.19868 0
M  V30 12551 H 1209.28 2.70535 -2.78267 0
M  V30 12552 H 1207.38 3.68929 -0.521726 0
M  V30 12553 H 1207.49 4.18018 -2.34088 0
M  V30 12554 H 1205.86 2.26795 -1.15914 0
M  V30 12555 H 1206.64 1.97877 -2.80535 0
M  V30 12556 N 1209.09 0.96196 1.24836 0
M  V30 12557 C 1210.32 0.637214 1.96528 0
M  V30 12558 C 1210.72 -0.79638 1.71623 0
M  V30 12559 O 1210.07 -1.54524 0.993372 0
M  V30 12560 C 1210.13 0.824972 3.49906 0
M  V30 12561 C 1209.79 2.23711 3.985 0
M  V30 12562 C 1210.79 3.21439 4.08623 0
M  V30 12563 C 1208.47 2.56327 4.31974 0
M  V30 12564 C 1210.47 4.49872 4.51546 0
M  V30 12565 C 1208.16 3.84987 4.74582 0
M  V30 12566 C 1209.15 4.81572 4.84332 0
M  V30 12567 O 1208.84 6.07938 5.25991 0
M  V30 12568 H 1208.57 0.237214 0.633013 0
M  V30 12569 H 1211.13 1.29081 1.59773 0
M  V30 12570 H 1209.36 0.114219 3.86531 0
M  V30 12571 H 1211.05 0.500179 4.02806 0
M  V30 12572 H 1211.81 2.97569 3.82985 0
M  V30 12573 H 1207.69 1.81872 4.23608 0
M  V30 12574 H 1211.24 5.25261 4.59071 0
M  V30 12575 H 1207.13 4.08661 4.99666 0
M  V30 12576 H 1207.9 6.11421 5.44157 0
M  V30 12577 N 1210.56 -1.39601 0.731392 0
M  V30 12578 C 1211.81 -2.0019 0.277208 0
M  V30 12579 C 1212.13 -1.5832 -1.13841 0
M  V30 12580 O 1211.4 -0.829793 -1.77458 0
M  V30 12581 H 1209.98 -0.740344 0.0995006 0
M  V30 12582 H 1212.64 -1.70704 0.940547 0
M  V30 12583 H 1211.74 -3.10427 0.322749 0
M  V30 12584 N 1212.04 -0.478751 -1.50152 0
M  V30 12585 C 1212.98 0.357584 -2.25381 0
M  V30 12586 C 1213.95 0.98965 -1.29014 0
M  V30 12587 O 1215.14 1.02409 -1.58255 0
M  V30 12588 C 1212.26 1.50167 -3.03591 0
M  V30 12589 C 1211.31 0.986215 -4.14941 0
M  V30 12590 S 1212.14 -0.105239 -5.35397 0
M  V30 12591 C 1213.3 1.04254 -6.17156 0
M  V30 12592 H 1213.53 -0.280985 -2.95969 0
M  V30 12593 H 1211.07 -0.263734 -1.52131 0
M  V30 12594 H 1213.02 2.15733 -3.49241 0
M  V30 12595 H 1211.68 2.11178 -2.32514 0
M  V30 12596 H 1210.88 1.84295 -4.69096 0
M  V30 12597 H 1210.48 0.408141 -3.71766 0
M  V30 12598 H 1212.77 1.95255 -6.48754 0
M  V30 12599 H 1213.71 0.540083 -7.06037 0
M  V30 12600 H 1214.12 1.29983 -5.49331 0
M  V30 12601 N 1213.52 1.56172 -0.211661 0
M  V30 12602 C 1214.75 2.02135 0.427222 0
M  V30 12603 C 1215.16 1.09084 1.54587 0
M  V30 12604 O 1214.5 0.090906 1.83475 0
M  V30 12605 C 1214.56 3.44459 1.029 0
M  V30 12606 C 1214.23 4.56976 0.0470243 0
M  V30 12607 C 1215.22 5.14466 -0.749724 0
M  V30 12608 C 1212.91 5.02253 -0.0688634 0
M  V30 12609 C 1214.9 6.15696 -1.64916 0
M  V30 12610 C 1212.59 6.03323 -0.971844 0
M  V30 12611 C 1213.59 6.5992 -1.76055 0
M  V30 12612 O 1213.28 7.59024 -2.64837 0
M  V30 12613 H 1213.01 0.667008 0.109894 0
M  V30 12614 H 1215.56 2.02851 -0.322595 0
M  V30 12615 H 1213.79 3.4078 1.82772 0
M  V30 12616 H 1215.48 3.74128 1.57425 0
M  V30 12617 H 1216.25 4.80342 -0.670588 0
M  V30 12618 H 1212.13 4.57886 0.534889 0
M  V30 12619 H 1215.67 6.59798 -2.26521 0
M  V30 12620 H 1211.57 6.36869 -1.05203 0
M  V30 12621 H 1212.34 7.76508 -2.58801 0
M  V30 12622 N 1215 -0.0618163 1.57479 0
M  V30 12623 C 1216.22 -0.775513 1.92355 0
M  V30 12624 C 1216.65 -1.69816 0.808949 0
M  V30 12625 O 1216.01 -1.79736 -0.23761 0
M  V30 12626 C 1216.05 -1.5367 3.26218 0
M  V30 12627 O 1215.16 -2.64802 3.16155 0
M  V30 12628 H 1214.5 -0.210909 0.629614 0
M  V30 12629 H 1217.03 -0.0270752 2.04582 0
M  V30 12630 H 1217.04 -1.91379 3.6033 0
M  V30 12631 H 1215.71 -0.859798 4.06916 0
M  V30 12632 H 1214.29 -2.29876 2.93618 0
M  V30 12633 N 1216.48 -1.54033 -0.333429 0
M  V30 12634 C 1217.75 -1.62404 -1.09015 0
M  V30 12635 C 1218.13 -0.451653 -2.06212 0
M  V30 12636 O 1217.48 0.555086 -2.21655 0
M  V30 12637 C 1217.69 -2.98949 -1.80085 0
M  V30 12638 C 1219.04 -3.54655 -2.33464 0
M  V30 12639 O 1220.06 -3.0119 -1.90166 0
M  V30 12640 O 1218.92 -4.48195 -3.12703 0
M  V30 12641 H 1216.02 -0.65727 -0.501921 0
M  V30 12642 H 1218.56 -1.66378 -0.33411 0
M  V30 12643 H 1217.33 -3.75716 -1.09332 0
M  V30 12644 H 1216.96 -2.98609 -2.62523 0
M  V30 12645 N 1217.95 0.594978 -1.45938 0
M  V30 12646 C 1219.23 1.35477 -1.41086 0
M  V30 12647 C 1219.61 2.10917 -0.0879512 0
M  V30 12648 O 1218.96 2.08704 0.930323 0
M  V30 12649 C 1219.17 2.29106 -2.63271 0
M  V30 12650 C 1220.52 2.9132 -3.08898 0
M  V30 12651 O 1221.54 2.39423 -2.63733 0
M  V30 12652 O 1220.4 3.85553 -3.87313 0
M  V30 12653 H 1217.49 0.6081 -0.560485 0
M  V30 12654 H 1220.04 0.617016 -1.58085 0
M  V30 12655 H 1218.81 1.72707 -3.51124 0
M  V30 12656 H 1218.44 3.10241 -2.48669 0
M  V30 12657 N 1219.43 1.33438 0.838571 0
M  V30 12658 C 1220.71 1.1551 1.5785 0
M  V30 12659 C 1221.09 -0.278405 2.09256 0
M  V30 12660 O 1220.44 -1.27748 1.89453 0
M  V30 12661 C 1220.65 2.19647 2.71212 0
M  V30 12662 C 1222 2.53818 3.40384 0
M  V30 12663 O 1223.02 2.18317 2.81454 0
M  V30 12664 O 1221.88 3.14741 4.46766 0
M  V30 12665 H 1218.97 0.446785 0.695925 0
M  V30 12666 H 1221.52 1.45021 0.8813 0
M  V30 12667 H 1220.29 3.15936 2.30869 0
M  V30 12668 H 1219.91 1.91224 3.48596 0
M  V30 12669 N 1220.91 -1.05686 1.16912 0
M  V30 12670 C 1221.87 -2.11481 0.883647 0
M  V30 12671 C 1222.87 -1.60321 -0.124034 0
M  V30 12672 O 1224.06 -1.73868 0.107566 0
M  V30 12673 C 1221.2 -3.3937 0.322649 0
M  V30 12674 H 1222.39 -2.38239 1.8216 0
M  V30 12675 H 1219.94 -1.2185 0.978895 0
M  V30 12676 H 1220.68 -3.18266 -0.622695 0
M  V30 12677 H 1220.46 -3.77812 1.04883 0
M  V30 12678 H 1221.95 -4.17362 0.141072 0
M  V30 12679 N 1222.39 -0.968567 -1.24324 0
M  V30 12680 C 1223.34 -0.491346 -2.27351 0
M  V30 12681 C 1224.33 0.445563 -1.63435 0
M  V30 12682 O 1225.54 0.320758 -1.77119 0
M  V30 12683 H 1221.91 -0.14043 -0.738772 0
M  V30 12684 H 1223.88 -1.37224 -2.64976 0
M  V30 12685 C 1222.63 0.202093 -3.47112 0
M  V30 12686 H 1221.95 -0.50973 -3.96537 0
M  V30 12687 H 1223.39 0.499815 -4.21044 0
M  V30 12688 C 1221.85 1.42937 -3.05075 0
M  V30 12689 O 1222.38 2.52635 -3.12312 0
M  V30 12690 N 1220.59 1.29572 -2.60114 0
M  V30 12691 H 1220.14 0.403169 -2.54425 0
M  V30 12692 H 1220.09 2.118 -2.32353 0
M  V30 12693 N 1223.87 1.39211 -0.738786 0
M  V30 12694 C 1225.09 2.05256 -0.297421 0
M  V30 12695 C 1225.52 1.55341 1.06069 0
M  V30 12696 O 1224.87 0.698823 1.67291 0
M  V30 12697 C 1224.92 3.59239 -0.312969 0
M  V30 12698 O 1224.03 4.06448 0.698112 0
M  V30 12699 H 1223.37 0.650245 -0.134454 0
M  V30 12700 H 1225.9 1.78173 -1.00577 0
M  V30 12701 H 1225.91 4.07691 -0.158675 0
M  V30 12702 H 1224.58 3.94931 -1.30394 0
M  V30 12703 H 1223.16 3.69401 0.509643 0
M  V30 12704 N 1225.34 0.486708 1.49896 0
M  V30 12705 C 1226.62 -0.125183 1.95199 0
M  V30 12706 C 1227 -1.55498 1.42771 0
M  V30 12707 O 1226.35 -2.1949 0.635322 0
M  V30 12708 C 1226.56 -0.0524982 3.48961 0
M  V30 12709 C 1227.91 -0.233595 4.23957 0
M  V30 12710 O 1228.93 -0.128357 3.55969 0
M  V30 12711 O 1227.79 -0.447862 5.44662 0
M  V30 12712 H 1224.88 -0.103141 0.820543 0
M  V30 12713 H 1227.43 0.548226 1.60601 0
M  V30 12714 H 1226.2 0.945163 3.79714 0
M  V30 12715 H 1225.83 -0.766683 3.90138 0
M  V30 12716 N 1226.82 -1.56058 0.219941 0
M  V30 12717 C 1227.79 -2.18964 -0.677303 0
M  V30 12718 C 1228.79 -1.15105 -1.12283 0
M  V30 12719 O 1229.98 -1.40348 -1.03189 0
M  V30 12720 C 1227.11 -2.81167 -1.92764 0
M  V30 12721 H 1228.3 -2.99623 -0.128877 0
M  V30 12722 H 1225.85 -1.56272 -0.0296744 0
M  V30 12723 H 1226.59 -2.04374 -2.51797 0
M  V30 12724 H 1226.37 -3.5722 -1.61666 0
M  V30 12725 H 1227.86 -3.29391 -2.56693 0
M  V30 12726 N 1228.3 0.053464 -1.57509 0
M  V30 12727 C 1229.53 0.765301 -1.92764 0
M  V30 12728 C 1229.95 1.69385 -0.817943 0
M  V30 12729 O 1229.31 1.7986 0.228075 0
M  V30 12730 C 1229.36 1.51938 -3.27028 0
M  V30 12731 O 1228.46 2.63121 -3.17555 0
M  V30 12732 H 1227.8 0.207567 -0.630723 0
M  V30 12733 H 1230.33 0.0162254 -2.04594 0
M  V30 12734 H 1230.34 1.89466 -3.6134 0
M  V30 12735 H 1229.02 0.838207 -4.07366 0
M  V30 12736 H 1227.59 2.28316 -2.94832 0
M  V30 12737 N 1229.78 1.54207 0.325255 0
M  V30 12738 C 1231 1.7661 1.08736 0
M  V30 12739 C 1231.43 0.512449 1.80985 0
M  V30 12740 O 1230.79 -0.535913 1.73198 0
M  V30 12741 C 1230.84 2.95797 2.06243 0
M  V30 12742 O 1229.94 2.67225 3.14109 0
M  V30 12743 H 1229.28 0.585282 0.313593 0
M  V30 12744 H 1231.81 2.01225 0.370066 0
M  V30 12745 H 1231.82 3.23097 2.49143 0
M  V30 12746 H 1230.5 3.86712 1.53058 0
M  V30 12747 H 1229.07 2.50869 2.75897 0
M  V30 12748 N 1231.26 -0.58723 1.46251 0
M  V30 12749 C 1232.5 -1.3476 1.51551 0
M  V30 12750 C 1232.84 -1.93499 0.16483 0
M  V30 12751 O 1232.11 -1.7622 -0.823207 0
M  V30 12752 C 1232.39 -2.48033 2.61059 0
M  V30 12753 C 1232.25 -1.94358 4.05642 0
M  V30 12754 C 1233.57 -3.50096 2.66685 0
M  V30 12755 H 1230.69 -0.48863 0.551733 0
M  V30 12756 H 1233.33 -0.660097 1.78165 0
M  V30 12757 H 1231.48 -3.06679 2.38496 0
M  V30 12758 H 1233.15 -1.40204 4.39478 0
M  V30 12759 H 1231.39 -1.25217 4.15335 0
M  V30 12760 H 1232.06 -2.76105 4.77986 0
M  V30 12761 H 1234.54 -3.01324 2.86955 0
M  V30 12762 H 1233.42 -4.26817 3.45135 0
M  V30 12763 H 1233.68 -4.07032 1.7256 0
M  V30 12764 N 1232.74 -1.33881 -0.831482 0
M  V30 12765 C 1233.98 -1.27095 -1.60082 0
M  V30 12766 C 1234.34 0.15911 -1.9134 0
M  V30 12767 O 1235.54 0.351029 -2.66498 0
M  V30 12768 C 1233.81 -2.12874 -2.87088 0
M  V30 12769 S 1235.37 -2.23354 -3.77702 0
M  V30 12770 H 1232.19 -0.452049 -0.548792 0
M  V30 12771 H 1234.79 -1.68998 -0.98285 0
M  V30 12772 H 1233.49 -3.15797 -2.62108 0
M  V30 12773 H 1233.03 -1.71836 -3.53887 0
M  V30 12774 H 1235.04 -1.40003 -4.76039 0
M  V30 12775 N 1234.21 1.05064 -1.1747 0
M  V30 12776 C 1235.44 1.82299 -0.98903 0
M  V30 12777 C 1235.86 1.82441 0.457907 0
M  V30 12778 O 1235.22 1.23433 1.32793 0
M  V30 12779 C 1235.27 3.26239 -1.53624 0
M  V30 12780 O 1234.37 4.05507 -0.750857 0
M  V30 12781 H 1233.71 0.563601 -0.35107 0
M  V30 12782 H 1236.24 1.32386 -1.55997 0
M  V30 12783 H 1236.25 3.77038 -1.55906 0
M  V30 12784 H 1234.93 3.25451 -2.58949 0
M  V30 12785 H 1233.51 3.64227 -0.799548 0
M  V30 12786 N 1235.69 0.975146 1.23809 0
M  V30 12787 C 1236.6 0.51917 2.28783 0
M  V30 12788 C 1237.62 -0.423487 1.68768 0
M  V30 12789 O 1238.79 -0.294699 1.99232 0
M  V30 12790 C 1235.86 -0.176229 3.46252 0
M  V30 12791 C 1234.92 0.807177 4.21643 0
M  V30 12792 C 1234.15 0.144869 5.33503 0
M  V30 12793 O 1234.38 -1.06522 5.60365 0
M  V30 12794 O 1233.31 0.84079 5.95999 0
M  V30 12795 H 1237.14 1.39204 2.69919 0
M  V30 12796 H 1234.72 0.74253 1.29641 0
M  V30 12797 H 1236.6 -0.566547 4.17574 0
M  V30 12798 H 1235.28 -1.02394 3.07078 0
M  V30 12799 H 1234.18 1.2481 3.52666 0
M  V30 12800 H 1235.52 1.62354 4.64653 0
M  V30 12801 N 1237.17 -1.38817 0.746158 0
M  V30 12802 C 1238.59 -1.53894 0.42294 0
M  V30 12803 C 1238.79 -1.71064 -1.06486 0
M  V30 12804 O 1237.84 -1.71744 -1.85095 0
M  V30 12805 C 1239.15 -2.75029 1.2157 0
M  V30 12806 C 1240.7 -2.88873 1.20504 0
M  V30 12807 C 1241.18 -4.1296 1.9806 0
M  V30 12808 N 1242.67 -4.20022 1.95283 0
M  V30 12809 C 1243.4 -5.15011 2.52093 0
M  V30 12810 N 1242.9 -6.1572 3.17586 0
M  V30 12811 N 1244.69 -5.07308 2.42064 0
M  V30 12812 H 1236.84 -1.25921 1.71049 0
M  V30 12813 H 1239.11 -0.611148 0.724708 0
M  V30 12814 H 1238.81 -2.68722 2.26895 0
M  V30 12815 H 1238.69 -3.68009 0.827593 0
M  V30 12816 H 1241.07 -2.94667 0.159877 0
M  V30 12817 H 1241.15 -1.96925 1.63261 0
M  V30 12818 H 1240.8 -4.07929 3.02583 0
M  V30 12819 H 1240.73 -5.03974 1.52702 0
M  V30 12820 H 1243.22 -3.47892 1.4758 0
M  V30 12821 H 1243.53 -6.84682 3.58373 0
M  V30 12822 H 1241.88 -6.16075 3.21678 0
M  V30 12823 H 1245.07 -4.27569 1.90532 0
M  V30 12824 H 1245.24 -5.81158 2.86635 0
M  V30 12825 N 1238.65 -0.49465 -1.49636 0
M  V30 12826 C 1239.87 0.051305 -2.07337 0
M  V30 12827 C 1240.3 1.30637 -1.35335 0
M  V30 12828 O 1239.66 1.76647 -0.408126 0
M  V30 12829 C 1239.7 0.294425 -3.59396 0
M  V30 12830 O 1238.81 1.3704 -3.88965 0
M  V30 12831 H 1238.15 -0.023408 -0.663587 0
M  V30 12832 H 1240.68 -0.692451 -1.92526 0
M  V30 12833 H 1240.69 0.527854 -4.04571 0
M  V30 12834 H 1239.36 -0.622583 -4.11214 0
M  V30 12835 H 1237.94 1.12242 -3.55607 0
M  V30 12836 N 1240.13 1.55939 -0.228214 0
M  V30 12837 C 1241.36 2.02576 0.405759 0
M  V30 12838 C 1241.76 1.10718 1.53422 0
M  V30 12839 O 1241.11 0.110361 1.83368 0
M  V30 12840 C 1241.17 3.45531 0.992405 0
M  V30 12841 C 1240.83 4.57 -0.00144674 0
M  V30 12842 C 1241.83 5.13642 -0.804248 0
M  V30 12843 C 1239.51 5.02152 -0.12213 0
M  V30 12844 C 1241.51 6.13912 -1.71437 0
M  V30 12845 C 1239.2 6.02258 -1.03578 0
M  V30 12846 C 1240.19 6.58015 -1.83044 0
M  V30 12847 O 1239.88 7.56172 -2.72872 0
M  V30 12848 H 1239.61 0.668136 0.102813 0
M  V30 12849 H 1242.17 2.02497 -0.344092 0
M  V30 12850 H 1240.4 3.427 1.79147 0
M  V30 12851 H 1242.09 3.75777 1.53448 0
M  V30 12852 H 1242.85 4.79603 -0.721497 0
M  V30 12853 H 1238.73 4.58428 0.486294 0
M  V30 12854 H 1242.28 6.57359 -2.33506 0
M  V30 12855 H 1238.17 6.35718 -1.11952 0
M  V30 12856 H 1238.94 7.73719 -2.67022 0
M  V30 12857 N 1241.6 -0.0451101 1.57535 0
M  V30 12858 C 1242.85 -0.737654 1.88157 0
M  V30 12859 C 1243.17 -1.76743 0.823817 0
M  V30 12860 O 1242.44 -1.95366 -0.144503 0
M  V30 12861 H 1241.02 -0.275431 0.694368 0
M  V30 12862 H 1243.69 -0.0148651 1.94894 0
M  V30 12863 H 1242.78 -1.23726 2.86528 0
M  V30 12864 N 1243.08 -1.54377 -0.317073 0
M  V30 12865 C 1244.31 -1.77184 -1.07798 0
M  V30 12866 C 1244.73 -0.52204 -1.80711 0
M  V30 12867 O 1244.09 0.52672 -1.7348 0
M  V30 12868 C 1244.14 -2.96887 -2.04671 0
M  V30 12869 O 1243.24 -2.68887 -3.12688 0
M  V30 12870 H 1242.58 -0.586937 -0.310485 0
M  V30 12871 H 1245.11 -2.01419 -0.35939 0
M  V30 12872 H 1245.12 -3.24414 -2.47426 0
M  V30 12873 H 1243.8 -3.87518 -1.51005 0
M  V30 12874 H 1242.38 -2.52329 -2.74562 0
M  V30 12875 N 1244.56 0.579466 -1.4656 0
M  V30 12876 C 1245.98 0.903163 -1.31587 0
M  V30 12877 C 1246.18 1.99406 -0.28972 0
M  V30 12878 O 1245.23 2.50632 0.30658 0
M  V30 12879 C 1246.55 1.31745 -2.70303 0
M  V30 12880 C 1248.09 1.43012 -2.78418 0
M  V30 12881 C 1248.57 1.87805 -4.17724 0
M  V30 12882 N 1250.06 1.94993 -4.20157 0
M  V30 12883 C 1250.79 2.30934 -5.2484 0
M  V30 12884 N 1250.29 2.65645 -6.39847 0
M  V30 12885 N 1252.08 2.31517 -5.12207 0
M  V30 12886 H 1244.23 -0.141111 -2.11931 0
M  V30 12887 H 1246.5 -0.000460304 -0.948 0
M  V30 12888 H 1246.2 0.589864 -3.46718 0
M  V30 12889 H 1246.08 2.2783 -3.00622 0
M  V30 12890 H 1248.46 2.14856 -2.02289 0
M  V30 12891 H 1248.55 0.451701 -2.5178 0
M  V30 12892 H 1248.19 1.16539 -4.94349 0
M  V30 12893 H 1248.12 2.86611 -4.41771 0
M  V30 12894 H 1250.61 1.70645 -3.37178 0
M  V30 12895 H 1250.92 2.92032 -7.15498 0
M  V30 12896 H 1249.27 2.63276 -6.43204 0
M  V30 12897 H 1252.46 2.03824 -4.21394 0
M  V30 12898 H 1252.63 2.59199 -5.93902 0
M  V30 12899 N 1246.04 1.3432 0.824371 0
M  V30 12900 C 1246.99 1.2578 1.95658 0
M  V30 12901 C 1247.98 0.156199 1.68678 0
M  V30 12902 O 1249.19 0.321081 1.77113 0
M  V30 12903 H 1245.56 0.390711 0.642533 0
M  V30 12904 H 1247.53 2.21471 1.99983 0
M  V30 12905 C 1246.28 1.02865 3.32136 0
M  V30 12906 H 1245.6 1.86863 3.53443 0
M  V30 12907 H 1247.04 1.00925 4.11813 0
M  V30 12908 C 1245.5 -0.268097 3.35832 0
M  V30 12909 O 1246.03 -1.26995 3.81097 0
M  V30 12910 N 1244.24 -0.300702 2.8904 0
M  V30 12911 H 1243.79 0.51515 2.52396 0
M  V30 12912 H 1243.74 -1.16811 2.91895 0
M  V30 12913 N 1247.52 -1.0444 1.18026 0
M  V30 12914 C 1248.76 -1.77224 0.971391 0
M  V30 12915 C 1249.09 -1.88466 -0.500564 0
M  V30 12916 O 1248.36 -1.40692 -1.36317 0
M  V30 12917 H 1246.94 -0.656485 0.356422 0
M  V30 12918 H 1249.6 -1.26064 1.4864 0
M  V30 12919 H 1248.69 -2.78626 1.4062 0
M  V30 12920 N 1248.99 -0.981699 -1.2329 0
M  V30 12921 C 1250.24 -0.650015 -1.91361 0
M  V30 12922 C 1250.56 0.819184 -1.76959 0
M  V30 12923 O 1249.83 1.5861 -1.14977 0
M  V30 12924 H 1248.41 -0.237427 -0.708264 0
M  V30 12925 H 1251.08 -1.24579 -1.49887 0
M  V30 12926 H 1250.17 -0.902772 -2.98758 0
M  V30 12927 N 1250.47 1.3842 -0.753509 0
M  V30 12928 C 1251.72 1.99359 -0.306416 0
M  V30 12929 C 1252.03 1.60492 1.11811 0
M  V30 12930 O 1253.24 2.14401 1.66567 0
M  V30 12931 C 1251.7 3.56453 -0.496895 0
M  V30 12932 C 1251.3 4.04272 -1.9305 0
M  V30 12933 C 1253.05 4.24351 -0.11251 0
M  V30 12934 C 1250.96 5.54007 -2.06955 0
M  V30 12935 H 1249.89 0.745812 -0.110818 0
M  V30 12936 H 1252.54 1.58185 -0.930039 0
M  V30 12937 H 1250.92 3.95515 0.195912 0
M  V30 12938 H 1252.09 3.765 -2.65677 0
M  V30 12939 H 1250.41 3.49098 -2.26979 0
M  V30 12940 H 1253 5.34344 -0.195161 0
M  V30 12941 H 1253.35 4.05668 0.934849 0
M  V30 12942 H 1253.88 3.90528 -0.757168 0
M  V30 12943 H 1250.62 5.77594 -3.09944 0
M  V30 12944 H 1250.14 5.83522 -1.38788 0
M  V30 12945 H 1251.82 6.19704 -1.85945 0
M  V30 12946 N 1251.95 0.502579 1.49372 0
M  V30 12947 C 1253.36 0.055187 1.86618 0
M  V30 12948 C 1253.71 -1.35938 1.41476 0
M  V30 12949 O 1252.84 -2.01333 0.793338 0
M  V30 12950 C 1253.43 0.0933734 3.38671 0
M  V30 12951 C 1251.99 -0.298685 3.75213 0
M  V30 12952 C 1251.14 0.465216 2.7337 0
M  V30 12953 H 1254.09 0.715281 1.41667 0
M  V30 12954 H 1254.11 -0.701549 3.73977 0
M  V30 12955 H 1253.62 1.12303 3.71497 0
M  V30 12956 H 1251.72 -1.33151 3.47996 0
M  V30 12957 H 1251.84 0.0218637 4.79095 0
M  V30 12958 H 1250.2 -0.0851469 2.54558 0
M  V30 12959 H 1250.98 1.49498 3.09039 0
M  V30 12960 N 1253.43 -1.55816 0.23648 0
M  V30 12961 C 1254.38 -2.17588 -0.681145 0
M  V30 12962 C 1255.36 -1.12862 -1.14678 0
M  V30 12963 O 1256.55 -1.38805 -1.09829 0
M  V30 12964 C 1253.68 -2.87086 -1.88246 0
M  V30 12965 C 1252.77 -3.99056 -1.43581 0
M  V30 12966 N 1253.16 -5.00895 -0.702704 0
M  V30 12967 C 1251.46 -4.11419 -1.72192 0
M  V30 12968 C 1252.16 -5.79775 -0.472866 0
M  V30 12969 N 1251.14 -5.33675 -1.034 0
M  V30 12970 H 1254.94 -2.93684 -0.112772 0
M  V30 12971 H 1252.45 -1.62355 0.0383551 0
M  V30 12972 H 1254.45 -3.29761 -2.55075 0
M  V30 12973 H 1253.11 -2.1249 -2.45516 0
M  V30 12974 H 1254.12 -5.1669 -0.353865 0
M  V30 12975 H 1250.8 -3.47987 -2.30676 0
M  V30 12976 H 1252.19 -6.71807 0.111664 0
M  V30 12977 N 1254.91 0.036755 -1.57557 0
M  V30 12978 C 1256.14 0.740011 -1.92892 0
M  V30 12979 C 1256.54 1.69828 -0.833964 0
M  V30 12980 O 1255.89 1.82619 0.198974 0
M  V30 12981 C 1255.95 1.55827 -3.23972 0
M  V30 12982 C 1255.61 0.765613 -4.50541 0
M  V30 12983 C 1256.61 0.0692686 -5.19854 0
M  V30 12984 C 1254.3 0.722425 -4.97078 0
M  V30 12985 C 1256.29 -0.659649 -6.33977 0
M  V30 12986 C 1253.98 -0.0102431 -6.11099 0
M  V30 12987 C 1254.97 -0.700047 -6.79403 0
M  V30 12988 O 1254.66 -1.42084 -7.91244 0
M  V30 12989 H 1254.39 0.213496 -0.641401 0
M  V30 12990 H 1256.95 0.000665152 -2.054 0
M  V30 12991 H 1255.18 2.34125 -3.0777 0
M  V30 12992 H 1256.87 2.14343 -3.44691 0
M  V30 12993 H 1257.63 0.0937148 -4.84909 0
M  V30 12994 H 1253.51 1.24883 -4.43763 0
M  V30 12995 H 1257.06 -1.19861 -6.87226 0
M  V30 12996 H 1252.95 -0.0366395 -6.4549 0
M  V30 12997 H 1253.72 -1.33372 -8.07561 0
M  V30 12998 N 1256.39 1.54543 0.308881 0
M  V30 12999 C 1257.32 1.87947 1.38557 0
M  V30 13000 C 1258.3 0.737622 1.53275 0
M  V30 13001 O 1259.48 0.992664 1.66913 0
M  V30 13002 C 1256.61 2.11982 2.75102 0
M  V30 13003 C 1255.57 3.2783 2.75158 0
M  V30 13004 C 1254.89 3.37266 4.14917 0
M  V30 13005 C 1256.19 4.65129 2.37598 0
M  V30 13006 H 1257.89 2.78123 1.1085 0
M  V30 13007 H 1255.43 1.3382 0.531808 0
M  V30 13008 H 1257.38 2.33935 3.50503 0
M  V30 13009 H 1256.11 1.18569 3.04317 0
M  V30 13010 H 1254.77 3.05787 2.02212 0
M  V30 13011 H 1254.42 2.41384 4.41296 0
M  V30 13012 H 1254.12 4.15135 4.15857 0
M  V30 13013 H 1255.64 3.61471 4.92109 0
M  V30 13014 H 1257.05 4.86865 3.02714 0
M  V30 13015 H 1255.45 5.45653 2.49765 0
M  V30 13016 H 1256.52 4.6638 1.32731 0
M  V30 13017 N 1257.86 -0.571685 1.46866 0
M  V30 13018 C 1259.28 -0.896172 1.32064 0
M  V30 13019 C 1259.48 -1.9925 0.300291 0
M  V30 13020 O 1258.54 -2.50791 -0.293284 0
M  V30 13021 C 1259.85 -1.3031 2.70998 0
M  V30 13022 C 1261.4 -1.41533 2.79173 0
M  V30 13023 C 1261.87 -1.85587 4.18714 0
M  V30 13024 N 1263.36 -1.92762 4.21185 0
M  V30 13025 C 1264.1 -2.28148 5.26057 0
M  V30 13026 N 1263.59 -2.62248 6.41247 0
M  V30 13027 N 1265.39 -2.28797 5.13428 0
M  V30 13028 H 1257.54 0.152349 2.11853 0
M  V30 13029 H 1259.8 0.00548777 0.947984 0
M  V30 13030 H 1259.51 -0.571469 3.47026 0
M  V30 13031 H 1259.38 -2.26233 3.01826 0
M  V30 13032 H 1261.77 -2.1378 2.03426 0
M  V30 13033 H 1261.85 -0.438342 2.52016 0
M  V30 13034 H 1261.49 -1.13915 4.9496 0
M  V30 13035 H 1261.42 -2.84264 4.43285 0
M  V30 13036 H 1263.91 -1.68854 3.38078 0
M  V30 13037 H 1264.23 -2.88234 7.17036 0
M  V30 13038 H 1262.57 -2.59861 6.44591 0
M  V30 13039 H 1265.76 -2.01587 4.22469 0
M  V30 13040 H 1265.94 -2.56045 5.95269 0
M  V30 13041 N 1259.34 -1.34755 -0.817236 0
M  V30 13042 C 1260.27 -1.22648 -1.93624 0
M  V30 13043 C 1261.29 -0.152226 -1.62087 0
M  V30 13044 O 1262.48 -0.404578 -1.73855 0
M  V30 13045 C 1259.58 -0.863519 -3.27714 0
M  V30 13046 C 1258.75 -2.03394 -3.87233 0
M  V30 13047 C 1257.81 -1.64846 -4.99712 0
M  V30 13048 O 1256.83 -2.3658 -5.17705 0
M  V30 13049 N 1258.04 -0.565909 -5.77735 0
M  V30 13050 H 1260.8 -2.19051 -2.0454 0
M  V30 13051 H 1258.36 -1.27785 -0.994113 0
M  V30 13052 H 1260.35 -0.58733 -4.00415 0
M  V30 13053 H 1258.92 0.0104987 -3.12598 0
M  V30 13054 H 1258.14 -2.47454 -3.06856 0
M  V30 13055 H 1259.43 -2.81655 -4.23731 0
M  V30 13056 H 1258.83 0.030313 -5.65692 0
M  V30 13057 H 1257.39 -0.349467 -6.50862 0
M  V30 13058 N 1260.82 1.03812 -1.18578 0
M  V30 13059 C 1262.05 1.80702 -1.00769 0
M  V30 13060 C 1262.46 1.83509 0.443833 0
M  V30 13061 O 1261.82 1.2724 1.30829 0
M  V30 13062 C 1261.87 3.26185 -1.55838 0
M  V30 13063 O 1261.59 3.23612 -2.95308 0
M  V30 13064 C 1263.09 4.1971 -1.42682 0
M  V30 13065 H 1260.31 0.568972 -0.355685 0
M  V30 13066 H 1262.86 1.30817 -1.57185 0
M  V30 13067 H 1261.01 3.73293 -1.03592 0
M  V30 13068 H 1261.43 4.14769 -3.2104 0
M  V30 13069 H 1262.9 5.19716 -1.86008 0
M  V30 13070 H 1263.38 4.37588 -0.375924 0
M  V30 13071 H 1263.98 3.78469 -1.94013 0
M  V30 13072 N 1262.3 0.988223 1.22768 0
M  V30 13073 C 1263.21 0.543407 2.2822 0
M  V30 13074 C 1264.22 -0.405563 1.69208 0
M  V30 13075 O 1265.4 -0.273551 1.99534 0
M  V30 13076 C 1262.46 -0.139495 3.46419 0
M  V30 13077 C 1261.53 0.851853 4.20764 0
M  V30 13078 C 1260.76 0.201446 5.3332 0
M  V30 13079 O 1260.98 -1.00573 5.61464 0
M  V30 13080 O 1259.92 0.903956 5.95073 0
M  V30 13081 H 1263.74 1.42059 2.68427 0
M  V30 13082 H 1261.33 0.756239 1.28846 0
M  V30 13083 H 1263.21 -0.522226 4.18152 0
M  V30 13084 H 1261.88 -0.991315 3.08147 0
M  V30 13085 H 1260.79 1.28543 3.51322 0
M  V30 13086 H 1262.12 1.67273 4.62905 0
M  V30 13087 N 1263.78 -1.38018 0.760839 0
M  V30 13088 C 1265.05 -1.94054 0.245437 0
M  V30 13089 C 1265.43 -1.6955 -1.25761 0
M  V30 13090 O 1264.78 -1.03812 -2.03557 0
M  V30 13091 C 1264.99 -3.43681 0.606986 0
M  V30 13092 C 1266.34 -4.20748 0.570673 0
M  V30 13093 O 1267.36 -3.51995 0.545715 0
M  V30 13094 O 1266.22 -5.43327 0.588043 0
M  V30 13095 H 1263.32 -0.825264 0.0535607 0
M  V30 13096 H 1265.86 -1.47369 0.841453 0
M  V30 13097 H 1264.63 -3.55054 1.64476 0
M  V30 13098 H 1264.26 -3.97597 -0.0166576 0
M  V30 13099 N 1265.25 -0.510493 -1.49103 0
M  V30 13100 C 1266.5 0.030689 -2.02777 0
M  V30 13101 C 1266.83 1.35765 -1.38858 0
M  V30 13102 O 1266.11 1.87209 -0.527528 0
M  V30 13103 C 1266.39 0.173261 -3.59683 0
M  V30 13104 C 1266.24 -1.17749 -4.34114 0
M  V30 13105 C 1267.56 0.909395 -4.30602 0
M  V30 13106 H 1264.68 0.0096789 -0.736936 0
M  V30 13107 H 1267.32 -0.663746 -1.78029 0
M  V30 13108 H 1265.47 0.764721 -3.80899 0
M  V30 13109 H 1267.15 -1.80856 -4.24369 0
M  V30 13110 H 1265.39 -1.76438 -3.96298 0
M  V30 13111 H 1266.06 -1.03094 -5.42287 0
M  V30 13112 H 1268.54 0.407677 -4.14098 0
M  V30 13113 H 1267.41 0.978012 -5.40117 0
M  V30 13114 H 1267.67 1.9553 -3.96511 0
M  V30 13115 N 1266.73 1.55688 -0.24474 0
M  V30 13116 C 1267.69 2.20014 0.642382 0
M  V30 13117 C 1268.69 1.16877 1.10437 0
M  V30 13118 O 1269.88 1.41972 1.00943 0
M  V30 13119 C 1267.02 2.84198 1.88267 0
M  V30 13120 H 1268.21 2.9979 0.0811937 0
M  V30 13121 H 1265.76 1.56299 0.00480917 0
M  V30 13122 H 1266.5 2.08354 2.48514 0
M  V30 13123 H 1266.28 3.59747 1.55963 0
M  V30 13124 H 1267.77 3.33434 2.5142 0
M  V30 13125 N 1268.21 -0.0283989 1.57574 0
M  V30 13126 C 1269.12 -1.04575 2.10003 0
M  V30 13127 C 1270.14 -1.39588 1.03881 0
M  V30 13128 O 1271.31 -1.48894 1.35619 0
M  V30 13129 C 1268.38 -2.32755 2.56955 0
M  V30 13130 C 1267.44 -2.04317 3.77562 0
M  V30 13131 C 1266.67 -3.26385 4.22266 0
M  V30 13132 O 1266.89 -4.37082 3.66491 0
M  V30 13133 O 1265.83 -3.12046 5.14695 0
M  V30 13134 H 1269.65 -0.630183 2.9709 0
M  V30 13135 H 1267.24 -0.245423 1.4737 0
M  V30 13136 H 1269.12 -3.08111 2.87482 0
M  V30 13137 H 1267.8 -2.73605 1.72979 0
M  V30 13138 H 1266.7 -1.26527 3.52054 0
M  V30 13139 H 1268.04 -1.68321 4.62524 0
M  V30 13140 N 1269.69 -1.54705 -0.300681 0
M  V30 13141 C 1270.93 -1.74259 -1.03738 0
M  V30 13142 C 1271.27 -0.52703 -1.86912 0
M  V30 13143 O 1270.54 0.475862 -1.88589 0
M  V30 13144 C 1270.82 -3.03175 -1.94311 0
M  V30 13145 C 1270.68 -4.35031 -1.14315 0
M  V30 13146 C 1272 -3.27962 -2.93478 0
M  V30 13147 H 1269.12 -0.634031 -0.37573 0
M  V30 13148 H 1271.76 -1.87421 -0.312012 0
M  V30 13149 H 1269.91 -2.92086 -2.5616 0
M  V30 13150 H 1271.58 -4.5804 -0.547489 0
M  V30 13151 H 1269.82 -4.31503 -0.44587 0
M  V30 13152 H 1270.49 -5.21502 -1.80941 0
M  V30 13153 H 1272.97 -3.38663 -2.41757 0
M  V30 13154 H 1271.85 -4.19481 -3.54016 0
M  V30 13155 H 1272.11 -2.46273 -3.67154 0
M  V30 13156 N 1271.17 0.563888 -1.47167 0
M  V30 13157 C 1272.1 1.68137 -1.62025 0
M  V30 13158 C 1273.08 1.63481 -0.469899 0
M  V30 13159 O 1274.26 1.81206 -0.698432 0
M  V30 13160 C 1271.39 3.06779 -1.62801 0
M  V30 13161 C 1270.35 3.26278 -2.76996 0
M  V30 13162 C 1269.67 4.65638 -2.62841 0
M  V30 13163 C 1270.97 3.12295 -4.18651 0
M  V30 13164 H 1272.67 1.55958 -2.55573 0
M  V30 13165 H 1270.21 0.74887 -1.22996 0
M  V30 13166 H 1272.17 3.84795 -1.71787 0
M  V30 13167 H 1270.89 3.19901 -0.658097 0
M  V30 13168 H 1269.55 2.50668 -2.67509 0
M  V30 13169 H 1269.2 4.75551 -1.63892 0
M  V30 13170 H 1268.9 4.79635 -3.39447 0
M  V30 13171 H 1270.42 5.45798 -2.73746 0
M  V30 13172 H 1271.83 3.80136 -4.2915 0
M  V30 13173 H 1270.23 3.37805 -4.95992 0
M  V30 13174 H 1271.3 2.09126 -4.37486 0
M  V30 13175 N 1272.64 1.35187 0.810078 0
M  V30 13176 C 1273.59 1.27848 1.94313 0
M  V30 13177 C 1274.59 0.174081 1.68503 0
M  V30 13178 O 1275.79 0.339848 1.76763 0
M  V30 13179 H 1272.17 0.397504 0.638353 0
M  V30 13180 H 1274.14 2.23579 1.97623 0
M  V30 13181 C 1272.89 1.06382 3.31026 0
M  V30 13182 H 1272.21 1.90601 3.51441 0
M  V30 13183 H 1273.65 1.05287 4.1072 0
M  V30 13184 C 1272.11 -0.232462 3.36097 0
M  V30 13185 O 1272.64 -1.22946 3.82423 0
M  V30 13186 N 1270.85 -0.270028 2.89343 0
M  V30 13187 H 1270.39 0.541891 2.51836 0
M  V30 13188 H 1270.35 -1.13708 2.93117 0
M  V30 13189 N 1274.12 -1.03182 1.19127 0
M  V30 13190 C 1275.07 -2.09735 0.894172 0
M  V30 13191 C 1276.06 -1.60291 -0.139805 0
M  V30 13192 O 1277.25 -1.76879 0.065477 0
M  V30 13193 C 1274.38 -3.40578 0.431418 0
M  V30 13194 C 1273.46 -3.96764 1.49797 0
M  V30 13195 N 1273.85 -4.2665 2.71668 0
M  V30 13196 C 1272.15 -4.24741 1.36057 0
M  V30 13197 C 1272.85 -4.71737 3.40352 0
M  V30 13198 N 1271.83 -4.73091 2.67742 0
M  V30 13199 H 1275.63 -2.3073 1.82047 0
M  V30 13200 H 1273.15 -1.21016 1.083 0
M  V30 13201 H 1275.14 -4.1642 0.20004 0
M  V30 13202 H 1273.8 -3.21005 -0.488432 0
M  V30 13203 H 1274.81 -4.16023 3.08457 0
M  V30 13204 H 1271.49 -4.14447 0.503948 0
M  V30 13205 H 1272.88 -5.03806 4.44555 0
M  V30 13206 N 1275.6 -0.99472 -1.22242 0
M  V30 13207 C 1276.84 -0.679831 -1.92763 0
M  V30 13208 C 1277.2 0.774024 -1.75707 0
M  V30 13209 O 1278.41 1.20041 -2.40507 0
M  V30 13210 C 1276.68 -1.07685 -3.40791 0
M  V30 13211 S 1278.24 -0.880607 -4.29873 0
M  V30 13212 H 1275.05 -0.248508 -0.666157 0
M  V30 13213 H 1277.66 -1.27738 -1.47997 0
M  V30 13214 H 1276.36 -2.1313 -3.50719 0
M  V30 13215 H 1275.89 -0.471172 -3.90568 0
M  V30 13216 H 1277.91 0.227887 -4.95676 0
M  V30 13217 N 1277.08 1.37613 -0.768148 0
M  V30 13218 C 1278.04 2.28653 -0.158283 0
M  V30 13219 C 1279.04 1.47862 0.631936 0
M  V30 13220 O 1280.23 1.68124 0.456055 0
M  V30 13221 C 1277.36 3.31776 0.783435 0
M  V30 13222 H 1278.56 2.84094 -0.960772 0
M  V30 13223 H 1276.11 1.46818 -0.536116 0
M  V30 13224 H 1276.84 2.81452 1.61106 0
M  V30 13225 H 1276.63 3.91488 0.219016 0
M  V30 13226 H 1278.12 3.99816 1.20568 0
M  V30 13227 N 1278.56 0.518393 1.4883 0
M  V30 13228 C 1279.78 -0.0183131 2.07392 0
M  V30 13229 C 1280.21 -1.28468 1.37396 0
M  V30 13230 O 1279.56 -1.75975 0.436177 0
M  V30 13231 C 1279.61 -0.237211 3.59819 0
M  V30 13232 O 1278.72 -1.30835 3.91096 0
M  V30 13233 H 1278.06 0.0339621 0.663131 0
M  V30 13234 H 1280.59 0.722993 1.914 0
M  V30 13235 H 1280.6 -0.463424 4.0536 0
M  V30 13236 H 1279.27 0.687925 4.10171 0
M  V30 13237 H 1277.85 -1.06571 3.57347 0
M  V30 13238 N 1280.03 -1.55556 0.252993 0
M  V30 13239 C 1281.26 -2.03945 -0.376965 0
M  V30 13240 C 1281.68 -1.13089 -1.50308 0
M  V30 13241 O 1281.04 -0.125039 -1.80868 0
M  V30 13242 C 1281.09 -3.50284 -0.856363 0
M  V30 13243 O 1280.19 -3.62551 -1.96546 0
M  V30 13244 H 1279.54 -0.659002 -0.081317 0
M  V30 13245 H 1282.07 -2.01024 0.380831 0
M  V30 13246 H 1282.08 -3.91222 -1.15798 0
M  V30 13247 H 1280.75 -4.15887 -0.0323302 0
M  V30 13248 H 1279.33 -3.33511 -1.66808 0
M  V30 13249 N 1281.51 0.0200419 -1.57587 0
M  V30 13250 C 1282.46 1.0362 -2.08244 0
M  V30 13251 C 1283.45 1.36872 -0.998119 0
M  V30 13252 O 1284.66 1.35671 -1.18293 0
M  V30 13253 H 1281.04 0.351731 -0.664673 0
M  V30 13254 H 1283.01 0.583226 -2.92645 0
M  V30 13255 C 1281.76 2.32574 -2.58466 0
M  V30 13256 H 1281.08 2.0785 -3.41523 0
M  V30 13257 H 1282.52 3.02 -2.97611 0
M  V30 13258 C 1280.98 3.02167 -1.48986 0
M  V30 13259 O 1281.51 3.92359 -0.861251 0
M  V30 13260 N 1279.71 2.63649 -1.22219 0
M  V30 13261 H 1279.26 1.90389 -1.73521 0
M  V30 13262 H 1279.22 3.10529 -0.491828 0
M  V30 13263 N 1282.99 1.54862 0.292472 0
M  V30 13264 C 1284.24 1.75735 1.02415 0
M  V30 13265 C 1284.59 0.541197 1.84632 0
M  V30 13266 O 1283.88 -0.466345 1.85838 0
M  V30 13267 C 1284.08 2.99214 1.95463 0
M  V30 13268 C 1283.91 4.32722 1.22401 0
M  V30 13269 C 1282.68 4.96334 0.947659 0
M  V30 13270 C 1284.88 5.10499 0.62416 0
M  V30 13271 N 1282.86 6.13611 0.188198 0
M  V30 13272 C 1284.23 6.2 -0.00210199 0
M  V30 13273 C 1286.28 4.9507 0.530059 0
M  V30 13274 C 1284.99 7.15754 -0.713371 0
M  V30 13275 C 1287.01 5.91163 -0.167575 0
M  V30 13276 C 1286.37 7.00039 -0.782653 0
M  V30 13277 H 1282.47 0.695548 0.357403 0
M  V30 13278 H 1285.06 1.92346 0.301849 0
M  V30 13279 H 1283.23 2.84013 2.64936 0
M  V30 13280 H 1284.96 3.08575 2.61846 0
M  V30 13281 H 1281.72 4.56861 1.24799 0
M  V30 13282 H 1282.14 6.76765 -0.178295 0
M  V30 13283 H 1286.78 4.11015 0.991288 0
M  V30 13284 H 1284.5 7.99344 -1.18634 0
M  V30 13285 H 1288.09 5.81303 -0.240442 0
M  V30 13286 H 1286.97 7.73115 -1.31389 0
M  V30 13287 N 1284.47 -0.556076 1.47464 0
M  V30 13288 C 1285.69 -1.3434 1.58011 0
M  V30 13289 C 1286.12 -1.86674 0.231138 0
M  V30 13290 O 1285.48 -1.63029 -0.793174 0
M  V30 13291 C 1285.52 -2.48844 2.60977 0
M  V30 13292 O 1284.63 -3.51108 2.16326 0
M  V30 13293 H 1283.97 -0.398986 0.53076 0
M  V30 13294 H 1286.5 -0.671898 1.93253 0
M  V30 13295 H 1286.51 -2.95398 2.81432 0
M  V30 13296 H 1285.18 -2.10109 3.58925 0
M  V30 13297 H 1283.76 -3.10852 2.05975 0
M  V30 13298 N 1285.95 -1.35615 -0.802897 0
M  V30 13299 C 1286.86 -1.3096 -1.94645 0
M  V30 13300 C 1287.87 -0.213909 -1.7268 0
M  V30 13301 O 1289.05 -0.443932 -1.96446 0
M  V30 13302 C 1286.11 -1.08483 -3.2929 0
M  V30 13303 C 1285.18 -2.27401 -3.64126 0
M  V30 13304 C 1284.41 -2.05987 -4.92347 0
M  V30 13305 O 1284.63 -1.02819 -5.61057 0
M  V30 13306 O 1283.57 -2.93439 -5.25526 0
M  V30 13307 H 1287.39 -2.27209 -2.01519 0
M  V30 13308 H 1284.98 -1.16024 -0.941214 0
M  V30 13309 H 1286.86 -0.978118 -4.09891 0
M  V30 13310 H 1285.53 -0.152885 -3.23339 0
M  V30 13311 H 1284.44 -2.43638 -2.83886 0
M  V30 13312 H 1285.77 -3.19055 -3.74786 0
M  V30 13313 N 1287.43 1.02549 -1.19673 0
M  V30 13314 C 1288.84 1.28271 -0.94967 0
M  V30 13315 C 1289.04 1.97961 0.37599 0
M  V30 13316 O 1288.1 2.26955 1.10668 0
M  V30 13317 C 1289.41 2.12647 -2.12607 0
M  V30 13318 C 1290.96 2.25943 -2.16607 0
M  V30 13319 C 1291.43 3.13693 -3.33708 0
M  V30 13320 N 1292.92 3.21281 -3.33665 0
M  V30 13321 C 1293.66 3.89377 -4.20919 0
M  V30 13322 N 1293.16 4.59675 -5.18334 0
M  V30 13323 N 1294.95 3.85811 -4.08786 0
M  V30 13324 H 1287.1 0.557304 -2.04958 0
M  V30 13325 H 1289.36 0.308531 -0.896389 0
M  V30 13326 H 1289.07 1.68766 -3.08563 0
M  V30 13327 H 1288.94 3.13367 -2.09955 0
M  V30 13328 H 1291.33 2.69053 -1.2122 0
M  V30 13329 H 1291.41 1.24762 -2.23311 0
M  V30 13330 H 1291.05 2.7129 -4.29376 0
M  V30 13331 H 1290.98 4.14941 -3.2424 0
M  V30 13332 H 1293.48 2.71218 -2.63152 0
M  V30 13333 H 1293.79 5.09277 -5.81254 0
M  V30 13334 H 1292.13 4.58529 -5.22279 0
M  V30 13335 H 1295.32 3.30033 -3.31957 0
M  V30 13336 H 1295.5 4.38607 -4.76999 0
M  V30 13337 N 1288.9 1.00119 1.21713 0
M  V30 13338 C 1289.85 0.558388 2.23943 0
M  V30 13339 C 1290.82 -0.413576 1.60869 0
M  V30 13340 O 1292.01 -0.316478 1.88157 0
M  V30 13341 C 1289.15 -0.112618 3.44916 0
M  V30 13342 C 1288.26 0.902071 4.22477 0
M  V30 13343 C 1287.39 0.203722 5.30809 0
M  V30 13344 C 1286.43 1.20622 6.00097 0
M  V30 13345 N 1285.57 0.535607 7.00054 0
M  V30 13346 H 1290.41 1.43486 2.61182 0
M  V30 13347 H 1287.95 0.718572 1.28355 0
M  V30 13348 H 1289.9 -0.51865 4.13964 0
M  V30 13349 H 1288.53 -0.952827 3.08417 0
M  V30 13350 H 1287.59 1.42637 3.52645 0
M  V30 13351 H 1288.9 1.66513 4.70186 0
M  V30 13352 H 1288.05 -0.258614 6.06149 0
M  V30 13353 H 1286.79 -0.591773 4.84096 0
M  V30 13354 H 1285.8 1.6791 5.23532 0
M  V30 13355 H 1287.02 2.00273 6.48897 0
M  V30 13356 H 1284.97 -0.2403 6.5556 0
M  V30 13357 H 1284.88 1.23698 7.45812 0
M  V30 13358 H 1286.15 0.0963489 7.7944 0
M  V30 13359 N 1290.38 -1.37203 0.775435 0
M  V30 13360 C 1291.29 -2.34019 0.165062 0
M  V30 13361 C 1292.31 -1.6036 -0.675316 0
M  V30 13362 O 1293.48 -1.9243 -0.594375 0
M  V30 13363 C 1290.55 -3.3954 -0.700957 0
M  V30 13364 C 1289.61 -4.29015 0.156304 0
M  V30 13365 C 1288.84 -5.29497 -0.668476 0
M  V30 13366 O 1289.07 -5.37636 -1.90535 0
M  V30 13367 O 1288 -6.01852 -0.0757351 0
M  V30 13368 H 1291.83 -2.87955 0.965184 0
M  V30 13369 H 1289.41 -1.39429 0.536654 0
M  V30 13370 H 1291.29 -4.04094 -1.19524 0
M  V30 13371 H 1289.97 -2.87926 -1.4792 0
M  V30 13372 H 1288.87 -3.67549 0.69703 0
M  V30 13373 H 1290.21 -4.83944 0.897725 0
M  V30 13374 N 1291.86 -0.526279 -1.48553 0
M  V30 13375 C 1293.11 0.00914839 -2.02098 0
M  V30 13376 C 1293.43 1.35119 -1.40598 0
M  V30 13377 O 1292.7 1.87422 -0.570065 0
M  V30 13378 H 1291.28 0.00636935 -0.746973 0
M  V30 13379 H 1293.94 -0.689269 -1.82305 0
M  V30 13380 H 1293.04 0.120212 -3.11868 0
M  V30 13381 N 1293.34 1.5542 -0.261239 0
M  V30 13382 C 1294.27 2.24949 0.626126 0
M  V30 13383 C 1295.25 1.23474 1.16997 0
M  V30 13384 O 1296.43 1.52161 1.20667 0
M  V30 13385 C 1293.56 2.95996 1.81669 0
M  V30 13386 C 1292.52 4.04282 1.40499 0
M  V30 13387 C 1291.84 4.62831 2.67753 0
M  V30 13388 C 1293.14 5.1923 0.56543 0
M  V30 13389 H 1294.84 2.99364 0.0463164 0
M  V30 13390 H 1292.38 1.43985 0.0208366 0
M  V30 13391 H 1294.34 3.43343 2.44323 0
M  V30 13392 H 1293.06 2.19093 2.42211 0
M  V30 13393 H 1291.72 3.57726 0.801712 0
M  V30 13394 H 1291.37 3.82611 3.26524 0
M  V30 13395 H 1291.07 5.35938 2.40925 0
M  V30 13396 H 1292.59 5.12918 3.31281 0
M  V30 13397 H 1294.01 5.62714 1.09663 0
M  V30 13398 H 1292.4 5.98814 0.392607 0
M  V30 13399 H 1293.47 4.83086 -0.419059 0
M  V30 13400 N 1294.82 -0.0116844 1.57596 0
M  V30 13401 C 1295.75 -1.00599 2.10718 0
M  V30 13402 C 1296.73 -1.36601 1.01362 0
M  V30 13403 O 1297.91 -1.4518 1.28982 0
M  V30 13404 C 1295.04 -2.30155 2.60089 0
M  V30 13405 C 1294 -2.08347 3.73866 0
M  V30 13406 C 1293.32 -3.43814 4.09507 0
M  V30 13407 C 1294.62 -1.45552 5.01609 0
M  V30 13408 H 1296.32 -0.563721 2.94045 0
M  V30 13409 H 1293.86 -0.269714 1.41452 0
M  V30 13410 H 1295.81 -3.00058 2.95877 0
M  V30 13411 H 1294.54 -2.76473 1.73868 0
M  V30 13412 H 1293.2 -1.40872 3.38453 0
M  V30 13413 H 1292.85 -3.87814 3.20326 0
M  V30 13414 H 1292.55 -3.30043 4.86154 0
M  V30 13415 H 1294.07 -4.15052 4.47844 0
M  V30 13416 H 1295.48 -2.05396 5.35243 0
M  V30 13417 H 1293.88 -1.42304 5.82983 0
M  V30 13418 H 1294.95 -0.423331 4.83049 0
M  V30 13419 N 1296.29 -1.55015 -0.284256 0
M  V30 13420 C 1297.54 -1.74744 -1.01532 0
M  V30 13421 C 1297.86 -0.545334 -1.87219 0
M  V30 13422 O 1297.13 0.440046 -1.90894 0
M  V30 13423 H 1295.71 -0.644382 -0.377864 0
M  V30 13424 H 1298.37 -1.92399 -0.311199 0
M  V30 13425 H 1297.47 -2.64369 -1.65878 0
M  V30 13426 N 1297.77 0.548248 -1.47757 0
M  V30 13427 C 1298.7 1.66409 -1.63799 0
M  V30 13428 C 1299.68 1.62973 -0.487211 0
M  V30 13429 O 1300.87 1.80455 -0.717612 0
M  V30 13430 C 1298 3.05035 -1.66046 0
M  V30 13431 C 1296.95 3.23322 -2.80441 0
M  V30 13432 C 1296.28 4.62824 -2.67765 0
M  V30 13433 C 1297.58 3.07837 -4.2194 0
M  V30 13434 H 1299.27 1.53239 -2.57212 0
M  V30 13435 H 1296.82 0.735783 -1.23783 0
M  V30 13436 H 1298.77 3.82951 -1.75859 0
M  V30 13437 H 1297.49 3.19185 -0.69199 0
M  V30 13438 H 1296.15 2.47816 -2.70153 0
M  V30 13439 H 1295.8 4.73786 -1.68927 0
M  V30 13440 H 1295.5 4.76007 -3.44515 0
M  V30 13441 H 1297.03 5.42864 -2.7952 0
M  V30 13442 H 1298.44 3.75563 -4.33157 0
M  V30 13443 H 1296.84 3.32525 -4.99547 0
M  V30 13444 H 1297.91 2.04474 -4.3968 0
M  V30 13445 N 1299.25 1.36039 0.795694 0
M  V30 13446 C 1300.18 1.25713 1.91648 0
M  V30 13447 C 1301.19 0.177993 1.61824 0
M  V30 13448 O 1302.38 0.432186 1.73189 0
M  V30 13449 C 1299.48 0.915546 3.26299 0
M  V30 13450 C 1298.66 2.09528 3.83949 0
M  V30 13451 C 1297.72 1.72775 4.97026 0
M  V30 13452 O 1296.74 2.44786 5.13876 0
M  V30 13453 N 1297.94 0.65775 5.76762 0
M  V30 13454 H 1300.71 2.22277 2.01029 0
M  V30 13455 H 1298.27 1.2935 0.973657 0
M  V30 13456 H 1300.26 0.650958 3.9943 0
M  V30 13457 H 1298.83 0.0392343 3.12575 0
M  V30 13458 H 1298.05 2.52304 3.0288 0
M  V30 13459 H 1299.34 2.88361 4.19196 0
M  V30 13460 H 1298.74 0.0596875 5.65669 0
M  V30 13461 H 1297.29 0.45297 6.50224 0
M  V30 13462 N 1300.73 -1.01913 1.20215 0
M  V30 13463 C 1301.68 -2.12516 0.945493 0
M  V30 13464 C 1302.67 -1.69091 -0.102243 0
M  V30 13465 O 1303.88 -1.79936 0.047888 0
M  V30 13466 H 1300.25 -0.694496 0.288409 0
M  V30 13467 H 1302.22 -2.31349 1.88468 0
M  V30 13468 C 1300.97 -3.43919 0.51137 0
M  V30 13469 H 1300.29 -3.77758 1.30916 0
M  V30 13470 H 1301.73 -4.22374 0.370981 0
M  V30 13471 C 1300.19 -3.27844 -0.775902 0
M  V30 13472 O 1300.72 -3.5734 -1.83496 0
M  V30 13473 N 1298.93 -2.81101 -0.73694 0
M  V30 13474 H 1298.48 -2.57296 0.125164 0
M  V30 13475 H 1298.43 -2.70726 -1.59859 0
M  V30 13476 N 1302.21 -1.00763 -1.2118 0
M  V30 13477 C 1303.14 -0.590493 -2.2591 0
M  V30 13478 C 1304.12 0.390002 -1.65569 0
M  V30 13479 O 1305.3 0.277406 -1.92208 0
M  V30 13480 C 1302.43 0.0810388 -3.47205 0
M  V30 13481 C 1301.39 -0.81951 -4.20081 0
M  V30 13482 C 1300.71 -0.014244 -5.34698 0
M  V30 13483 C 1302.01 -2.12336 -4.7719 0
M  V30 13484 H 1303.71 -1.46595 -2.61056 0
M  V30 13485 H 1301.25 -0.706321 -1.25487 0
M  V30 13486 H 1303.21 0.384355 -4.19644 0
M  V30 13487 H 1301.93 0.991145 -3.11197 0
M  V30 13488 H 1300.59 -1.10669 -3.49497 0
M  V30 13489 H 1300.24 0.897233 -4.94933 0
M  V30 13490 H 1299.94 -0.613883 -5.84384 0
M  V30 13491 H 1301.46 0.282827 -6.09945 0
M  V30 13492 H 1302.87 -1.88301 -5.41494 0
M  V30 13493 H 1301.27 -2.67308 -5.37277 0
M  V30 13494 H 1302.34 -2.79238 -3.96427 0
M  V30 13495 N 1303.68 1.3679 -0.7827 0
M  V30 13496 C 1304.61 2.32721 -0.190604 0
M  V30 13497 C 1305.6 1.56321 0.670663 0
M  V30 13498 O 1306.78 1.84507 0.605871 0
M  V30 13499 C 1303.91 3.40564 0.680717 0
M  V30 13500 C 1302.86 4.27925 -0.080118 0
M  V30 13501 C 1302.19 5.26876 0.911361 0
M  V30 13502 C 1303.49 5.06738 -1.26545 0
M  V30 13503 H 1305.18 2.82488 -0.992023 0
M  V30 13504 H 1302.73 1.35818 -0.478484 0
M  V30 13505 H 1304.68 4.06659 1.10482 0
M  V30 13506 H 1303.41 2.89348 1.51477 0
M  V30 13507 H 1302.07 3.63376 -0.485125 0
M  V30 13508 H 1301.71 4.71936 1.74026 0
M  V30 13509 H 1301.41 5.8619 0.406762 0
M  V30 13510 H 1302.94 5.95846 1.33418 0
M  V30 13511 H 1304.35 5.65911 -0.917448 0
M  V30 13512 H 1302.75 5.75432 -1.70289 0
M  V30 13513 H 1303.82 4.38772 -2.06415 0
M  V30 13514 N 1305.16 0.53415 1.48272 0
M  V30 13515 C 1306.11 -0.226335 2.29688 0
M  V30 13516 C 1307.08 -0.929937 1.37628 0
M  V30 13517 O 1308.26 -0.930149 1.66592 0
M  V30 13518 C 1305.4 -1.26472 3.2109 0
M  V30 13519 C 1304.52 -0.569542 4.28229 0
M  V30 13520 C 1303.65 -1.59122 5.06807 0
M  V30 13521 C 1302.69 -0.879734 6.05745 0
M  V30 13522 N 1301.83 -1.84715 6.77366 0
M  V30 13523 H 1306.67 0.474111 2.94204 0
M  V30 13524 H 1304.21 0.245643 1.45034 0
M  V30 13525 H 1306.16 -1.87911 3.72485 0
M  V30 13526 H 1304.79 -1.9335 2.58487 0
M  V30 13527 H 1303.85 0.158872 3.80068 0
M  V30 13528 H 1305.16 -0.0110904 4.98799 0
M  V30 13529 H 1304.31 -2.27977 5.62238 0
M  V30 13530 H 1303.05 -2.18357 4.36086 0
M  V30 13531 H 1302.06 -0.177134 5.49515 0
M  V30 13532 H 1303.28 -0.293439 6.78466 0
M  V30 13533 H 1301.23 -2.42851 6.09393 0
M  V30 13534 H 1301.14 -1.34025 7.44025 0
M  V30 13535 H 1302.41 -2.52756 7.37384 0
M  V30 13536 N 1306.64 -1.55279 0.269478 0
M  V30 13537 C 1307.87 -2.04334 -0.355313 0
M  V30 13538 C 1308.29 -1.14677 -1.491 0
M  V30 13539 O 1307.65 -0.144215 -1.80726 0
M  V30 13540 C 1307.7 -3.51172 -0.819162 0
M  V30 13541 O 1306.8 -3.64615 -1.9269 0
M  V30 13542 H 1306.14 -0.659827 -0.0743229 0
M  V30 13543 H 1308.67 -2.00609 0.402131 0
M  V30 13544 H 1308.68 -3.92428 -1.11642 0
M  V30 13545 H 1307.36 -4.15898 0.0117821 0
M  V30 13546 H 1305.93 -3.35261 -1.63261 0
M  V30 13547 N 1308.12 0.00332656 -1.576 0
M  V30 13548 C 1309.05 1.02391 -2.05058 0
M  V30 13549 C 1310.06 1.30903 -0.967901 0
M  V30 13550 O 1311.25 1.27937 -1.24476 0
M  V30 13551 C 1308.35 2.35947 -2.43274 0
M  V30 13552 C 1307.53 2.26423 -3.74234 0
M  V30 13553 C 1306.58 3.4264 -3.99355 0
M  V30 13554 O 1305.61 3.20977 -4.70067 0
M  V30 13555 N 1306.81 4.65379 -3.46991 0
M  V30 13556 H 1309.58 0.619216 -2.93233 0
M  V30 13557 H 1307.14 0.190777 -1.60772 0
M  V30 13558 H 1309.13 3.12462 -2.57196 0
M  V30 13559 H 1307.7 2.6817 -1.60635 0
M  V30 13560 H 1306.92 1.34841 -3.70421 0
M  V30 13561 H 1308.21 2.17229 -4.60097 0
M  V30 13562 H 1307.61 4.85878 -2.89723 0
M  V30 13563 H 1306.16 5.39171 -3.66249 0
M  V30 13564 N 1309.6 1.55164 0.276031 0
M  V30 13565 C 1311.01 1.46936 0.623061 0
M  V30 13566 C 1311.21 0.680977 1.89644 0
M  V30 13567 O 1310.27 0.198618 2.51718 0
M  V30 13568 C 1311.58 2.91123 0.752839 0
M  V30 13569 C 1313.13 3.01319 0.847093 0
M  V30 13570 C 1313.6 4.46755 1.00867 0
M  V30 13571 N 1315.1 4.5057 1.07427 0
M  V30 13572 C 1315.83 5.60314 1.21804 0
M  V30 13573 N 1315.33 6.7993 1.32919 0
M  V30 13574 N 1317.12 5.4805 1.2489 0
M  V30 13575 H 1309.27 2.04877 -0.560282 0
M  V30 13576 H 1311.53 0.928925 -0.189217 0
M  V30 13577 H 1311.24 3.51521 -0.112333 0
M  V30 13578 H 1311.11 3.39967 1.63408 0
M  V30 13579 H 1313.5 2.41021 1.70274 0
M  V30 13580 H 1313.58 2.55733 -0.0586896 0
M  V30 13581 H 1313.23 5.07655 0.1577 0
M  V30 13582 H 1313.16 4.89995 1.92906 0
M  V30 13583 H 1315.65 3.64404 1.00089 0
M  V30 13584 H 1315.96 7.59319 1.43714 0
M  V30 13585 H 1314.3 6.82747 1.29929 0
M  V30 13586 H 1317.5 4.53542 1.15834 0
M  V30 13587 H 1317.67 6.33621 1.3575 0
M  V30 13588 N 1311.07 -0.540404 1.48045 0
M  V30 13589 C 1312.3 -1.32177 1.59175 0
M  V30 13590 C 1312.72 -1.87163 0.248115 0
M  V30 13591 O 1312.07 -1.65871 -0.761124 0
M  V30 13592 C 1312.13 -2.47995 2.63023 0
M  V30 13593 O 1311.85 -1.95278 3.92171 0
M  V30 13594 C 1313.35 -3.39967 2.84495 0
M  V30 13595 H 1310.57 -0.40233 0.537002 0
M  V30 13596 H 1313.11 -0.652983 1.93795 0
M  V30 13597 H 1311.27 -3.10779 2.31291 0
M  V30 13598 H 1311.68 -2.71012 4.49058 0
M  V30 13599 H 1313.15 -4.17607 3.60982 0
M  V30 13600 H 1313.63 -3.94555 1.92932 0
M  V30 13601 H 1314.24 -2.82985 3.1749 0
M  V30 13602 N 1312.55 -1.36459 -0.788468 0
M  V30 13603 C 1313.48 -1.33545 -1.91541 0
M  V30 13604 C 1314.46 -0.206762 -1.68839 0
M  V30 13605 O 1315.65 -0.404553 -1.89939 0
M  V30 13606 C 1312.78 -1.12492 -3.28577 0
M  V30 13607 C 1311.73 -2.22196 -3.65805 0
M  V30 13608 C 1311.06 -1.86285 -5.01201 0
M  V30 13609 C 1312.36 -3.64286 -3.7429 0
M  V30 13610 H 1314.05 -2.27844 -1.94236 0
M  V30 13611 H 1311.6 -1.09677 -0.933105 0
M  V30 13612 H 1313.55 -1.09089 -4.07035 0
M  V30 13613 H 1312.28 -0.146446 -3.26272 0
M  V30 13614 H 1310.93 -2.24727 -2.89644 0
M  V30 13615 H 1310.58 -0.87009 -4.95417 0
M  V30 13616 H 1310.28 -2.59734 -5.27079 0
M  V30 13617 H 1311.81 -1.84439 -5.82078 0
M  V30 13618 H 1313.22 -3.63977 -4.42937 0
M  V30 13619 H 1311.62 -4.36648 -4.11653 0
M  V30 13620 H 1312.69 -3.99123 -2.75371 0
M  V30 13621 N 1314.03 1.01274 -1.20754 0
M  V30 13622 C 1315.26 1.7906 -1.04653 0
M  V30 13623 C 1315.68 1.83806 0.399632 0
M  V30 13624 O 1315.04 1.27596 1.28798 0
M  V30 13625 C 1315.09 3.21187 -1.63925 0
M  V30 13626 O 1314.19 4.02913 -0.879486 0
M  V30 13627 H 1313.53 0.552147 -0.368823 0
M  V30 13628 H 1316.06 1.27356 -1.6013 0
M  V30 13629 H 1316.07 3.71887 -1.67822 0
M  V30 13630 H 1314.75 3.17048 -2.69172 0
M  V30 13631 H 1313.32 3.61499 -0.915019 0
M  V30 13632 N 1315.51 1.01404 1.20644 0
M  V30 13633 C 1316.93 0.728446 1.42006 0
M  V30 13634 C 1317.13 -0.692894 1.89212 0
M  V30 13635 O 1316.18 -1.46101 2.05939 0
M  V30 13636 C 1317.49 1.75198 2.44389 0
M  V30 13637 C 1319.04 1.76983 2.58159 0
M  V30 13638 C 1319.52 2.78256 3.63782 0
M  V30 13639 N 1321.01 2.7698 3.71263 0
M  V30 13640 C 1321.74 3.51999 4.52641 0
M  V30 13641 N 1321.24 4.36687 5.37844 0
M  V30 13642 N 1323.03 3.40608 4.47149 0
M  V30 13643 H 1315.18 1.93168 0.883172 0
M  V30 13644 H 1317.45 0.834287 0.450187 0
M  V30 13645 H 1317.15 2.77013 2.16695 0
M  V30 13646 H 1317.03 1.56203 3.43337 0
M  V30 13647 H 1319.41 0.758551 2.85184 0
M  V30 13648 H 1319.49 2.00051 1.59415 0
M  V30 13649 H 1319.14 3.79546 3.37501 0
M  V30 13650 H 1319.07 2.5245 4.62143 0
M  V30 13651 H 1321.56 2.15546 3.104 0
M  V30 13652 H 1321.87 4.90703 5.97018 0
M  V30 13653 H 1320.22 4.40766 5.37355 0
M  V30 13654 H 1323.41 2.73872 3.79621 0
M  V30 13655 H 1323.58 3.99327 5.10335 0
M  V30 13656 N 1316.99 -1.36373 0.789944 0
M  V30 13657 C 1318.23 -1.99523 0.363119 0
M  V30 13658 C 1318.57 -1.6255 -1.0626 0
M  V30 13659 O 1317.84 -0.880551 -1.73426 0
M  V30 13660 C 1318.12 -3.56215 0.527526 0
M  V30 13661 C 1317.98 -4.0304 1.99697 0
M  V30 13662 C 1319.3 -4.40063 -0.0571079 0
M  V30 13663 H 1316.42 -0.724824 0.133412 0
M  V30 13664 H 1319.06 -1.61778 0.996381 0
M  V30 13665 H 1317.21 -3.88498 -0.0115636 0
M  V30 13666 H 1318.88 -3.81241 2.59717 0
M  V30 13667 H 1317.12 -3.54561 2.49939 0
M  V30 13668 H 1317.79 -5.12001 2.06297 0
M  V30 13669 H 1320.27 -4.14143 0.403082 0
M  V30 13670 H 1319.15 -5.4883 0.0879494 0
M  V30 13671 H 1319.41 -4.26901 -1.14926 0
M  V30 13672 N 1318.47 -0.542005 -1.47987 0
M  V30 13673 C 1319.38 0.217677 -2.33588 0
M  V30 13674 C 1320.39 0.927093 -1.47245 0
M  V30 13675 O 1321.57 0.899378 -1.80203 0
M  V30 13676 C 1318.63 1.24376 -3.23622 0
M  V30 13677 C 1317.69 0.543407 -4.25847 0
M  V30 13678 C 1316.93 1.5206 -5.11579 0
M  V30 13679 O 1317.15 2.75425 -4.99497 0
M  V30 13680 O 1316.08 1.05341 -5.9261 0
M  V30 13681 H 1319.91 -0.484089 -2.99817 0
M  V30 13682 H 1317.49 -0.302783 -1.463 0
M  V30 13683 H 1319.38 1.83644 -3.7928 0
M  V30 13684 H 1318.05 1.92772 -2.6004 0
M  V30 13685 H 1316.96 -0.090074 -3.73992 0
M  V30 13686 H 1318.29 -0.0988264 -4.92101 0
M  V30 13687 N 1319.94 1.55134 -0.277709 0
M  V30 13688 C 1320.87 2.256 0.602232 0
M  V30 13689 C 1321.85 1.24708 1.15681 0
M  V30 13690 O 1323.04 1.53433 1.19046 0
M  V30 13691 C 1320.17 2.97907 1.78519 0
M  V30 13692 C 1319.12 4.0575 1.36203 0
M  V30 13693 C 1318.45 4.65644 2.62829 0
M  V30 13694 C 1319.75 5.19801 0.510327 0
M  V30 13695 H 1321.44 2.99396 0.0145622 0
M  V30 13696 H 1318.99 1.43999 0.00556389 0
M  V30 13697 H 1320.94 3.45915 2.40668 0
M  V30 13698 H 1319.67 2.21649 2.39873 0
M  V30 13699 H 1318.33 3.58557 0.763726 0
M  V30 13700 H 1317.97 3.86053 3.22447 0
M  V30 13701 H 1317.67 5.38463 2.35227 0
M  V30 13702 H 1319.2 5.16403 3.25823 0
M  V30 13703 H 1320.61 5.63845 1.03689 0
M  V30 13704 H 1319.01 5.99197 0.329073 0
M  V30 13705 H 1320.08 4.82614 -0.470273 0
M  V30 13706 N 1321.42 0.00503138 1.57599 0
M  V30 13707 C 1322.37 -0.984754 2.08737 0
M  V30 13708 C 1323.34 -1.33822 0.983915 0
M  V30 13709 O 1324.52 -1.43572 1.25665 0
M  V30 13710 C 1321.66 -2.26984 2.59946 0
M  V30 13711 C 1320.78 -1.97496 3.84212 0
M  V30 13712 C 1319.91 -3.20123 4.23904 0
M  V30 13713 C 1318.95 -2.86344 5.40993 0
M  V30 13714 N 1318.09 -4.01524 5.75954 0
M  V30 13715 H 1322.93 -0.541737 2.93034 0
M  V30 13716 H 1320.46 -0.255834 1.44858 0
M  V30 13717 H 1322.42 -3.02117 2.87717 0
M  V30 13718 H 1321.05 -2.68946 1.78516 0
M  V30 13719 H 1320.1 -1.12709 3.63319 0
M  V30 13720 H 1321.42 -1.68602 4.69441 0
M  V30 13721 H 1320.57 -4.03598 4.52983 0
M  V30 13722 H 1319.31 -3.5216 3.37394 0
M  V30 13723 H 1318.31 -2.01278 5.11632 0
M  V30 13724 H 1319.54 -2.5555 6.29183 0
M  V30 13725 H 1317.49 -4.33447 4.92402 0
M  V30 13726 H 1317.4 -3.76171 6.55768 0
M  V30 13727 H 1318.67 -4.85772 6.09628 0
M  V30 13728 N 1322.9 -1.55308 -0.267798 0
M  V30 13729 C 1324.32 -1.47264 -0.61526 0
M  V30 13730 C 1324.52 -0.691025 -1.8928 0
M  V30 13731 O 1323.57 -0.211964 -2.51609 0
M  V30 13732 C 1324.88 -2.91519 -0.73739 0
M  V30 13733 C 1326.43 -3.01764 -0.831102 0
M  V30 13734 C 1326.91 -4.47283 -0.984965 0
M  V30 13735 N 1328.4 -4.51134 -1.05036 0
M  V30 13736 C 1329.13 -5.60952 -1.1883 0
M  V30 13737 N 1328.63 -6.80625 -1.29311 0
M  V30 13738 N 1330.42 -5.48705 -1.21982 0
M  V30 13739 H 1322.57 -2.04577 0.57114 0
M  V30 13740 H 1324.84 -0.927908 0.194141 0
M  V30 13741 H 1324.54 -3.51456 0.130974 0
M  V30 13742 H 1324.42 -3.40829 -1.61603 0
M  V30 13743 H 1326.8 -2.4192 -1.68993 0
M  V30 13744 H 1326.88 -2.55698 0.0722509 0
M  V30 13745 H 1326.53 -5.07732 -0.130776 0
M  V30 13746 H 1326.46 -4.91011 -1.90305 0
M  V30 13747 H 1328.95 -3.6493 -0.981551 0
M  V30 13748 H 1329.26 -7.60071 -1.39685 0
M  V30 13749 H 1327.61 -6.83426 -1.26306 0
M  V30 13750 H 1330.8 -4.5415 -1.13428 0
M  V30 13751 H 1330.97 -6.34332 -1.32388 0
M  V30 13752 N 1324.38 0.532545 -1.4833 0
M  V30 13753 C 1325.31 1.64662 -1.65555 0
M  V30 13754 C 1326.29 1.62447 -0.50447 0
M  V30 13755 O 1327.47 1.79684 -0.736712 0
M  V30 13756 C 1324.6 3.03256 -1.69272 0
M  V30 13757 C 1323.56 3.20329 -2.83854 0
M  V30 13758 C 1322.88 4.59958 -2.72659 0
M  V30 13759 C 1324.18 3.03345 -4.25181 0
M  V30 13760 H 1325.88 1.50502 -2.58823 0
M  V30 13761 H 1323.42 0.722612 -1.24556 0
M  V30 13762 H 1325.38 3.81064 -1.79911 0
M  V30 13763 H 1324.1 3.18433 -0.725805 0
M  V30 13764 H 1322.76 2.44937 -2.72766 0
M  V30 13765 H 1322.41 4.71967 -1.73942 0
M  V30 13766 H 1322.11 4.72327 -3.49544 0
M  V30 13767 H 1323.63 5.39869 -2.85262 0
M  V30 13768 H 1325.05 3.70948 -4.37116 0
M  V30 13769 H 1323.44 3.27208 -5.03045 0
M  V30 13770 H 1324.51 1.998 -4.41824 0
M  V30 13771 N 1325.86 1.36875 0.78122 0
M  V30 13772 C 1327.1 1.32949 1.55254 0
M  V30 13773 C 1327.46 -0.0879862 1.91798 0
M  V30 13774 O 1328.66 -0.251878 2.67617 0
M  V30 13775 C 1326.93 2.23382 2.78989 0
M  V30 13776 S 1328.49 2.37218 3.69152 0
M  V30 13777 H 1325.31 0.472105 0.531637 0
M  V30 13778 H 1327.91 1.72529 0.91945 0
M  V30 13779 H 1326.61 3.25307 2.50207 0
M  V30 13780 H 1326.15 1.84852 3.47266 0
M  V30 13781 H 1328.16 1.57575 4.70515 0
M  V30 13782 N 1327.33 -1.00632 1.21289 0
M  V30 13783 C 1328.24 -2.12829 0.986957 0
M  V30 13784 C 1329.26 -1.73895 -0.0605152 0
M  V30 13785 O 1330.44 -2.00985 0.129238 0
M  V30 13786 C 1327.5 -3.4226 0.553089 0
M  V30 13787 C 1326.56 -3.95376 1.67262 0
M  V30 13788 C 1325.79 -5.18629 1.25936 0
M  V30 13789 O 1326.02 -5.70246 0.132402 0
M  V30 13790 O 1324.95 -5.65157 2.07077 0
M  V30 13791 H 1328.78 -2.34765 1.92663 0
M  V30 13792 H 1326.36 -1.11208 0.997654 0
M  V30 13793 H 1328.24 -4.20177 0.320856 0
M  V30 13794 H 1326.92 -3.21716 -0.357881 0
M  V30 13795 H 1325.83 -3.18692 1.95924 0
M  V30 13796 H 1327.16 -4.20328 2.56097 0
M  V30 13797 N 1328.81 -1.02043 -1.20104 0
M  V30 13798 C 1330.06 -0.707271 -1.88893 0
M  V30 13799 C 1330.37 0.766617 -1.79951 0
M  V30 13800 O 1331.58 1.19248 -2.4391 0
M  V30 13801 C 1330.04 -1.2147 -3.38782 0
M  V30 13802 C 1329.64 -2.71576 -3.56301 0
M  V30 13803 C 1331.39 -0.977146 -4.13101 0
M  V30 13804 C 1329.29 -3.15781 -5.00037 0
M  V30 13805 H 1328.22 -0.26086 -0.707438 0
M  V30 13806 H 1330.88 -1.23361 -1.35846 0
M  V30 13807 H 1329.26 -0.616315 -3.91175 0
M  V30 13808 H 1330.43 -3.36997 -3.14276 0
M  V30 13809 H 1328.75 -2.93517 -2.95359 0
M  V30 13810 H 1331.34 -1.28278 -5.19085 0
M  V30 13811 H 1331.69 0.0862909 -4.16211 0
M  V30 13812 H 1332.22 -1.5391 -3.6682 0
M  V30 13813 H 1328.96 -4.21417 -5.02084 0
M  V30 13814 H 1328.48 -2.55083 -5.42856 0
M  V30 13815 H 1330.16 -3.08637 -5.6864 0
M  V30 13816 N 1330.29 1.35952 -0.797165 0
M  V30 13817 C 1331.54 1.99032 -0.373142 0
M  V30 13818 C 1331.87 1.63257 1.05723 0
M  V30 13819 O 1331.12 0.883022 1.74646 0
M  V30 13820 C 1331.42 3.53986 -0.492805 0
M  V30 13821 C 1331.09 4.09603 -1.88511 0
M  V30 13822 C 1329.75 4.24505 -2.26604 0
M  V30 13823 C 1332.1 4.39829 -2.79643 0
M  V30 13824 C 1329.43 4.66946 -3.55215 0
M  V30 13825 C 1331.78 4.83706 -4.0769 0
M  V30 13826 C 1330.44 4.96813 -4.45795 0
M  V30 13827 H 1329.71 0.728311 -0.136542 0
M  V30 13828 H 1332.36 1.62318 -1.01613 0
M  V30 13829 H 1330.67 3.91103 0.233661 0
M  V30 13830 H 1332.36 4.00735 -0.145638 0
M  V30 13831 H 1328.95 3.98449 -1.57912 0
M  V30 13832 H 1333.14 4.27878 -2.51464 0
M  V30 13833 H 1328.39 4.75282 -3.84599 0
M  V30 13834 H 1332.57 5.06057 -4.78414 0
M  V30 13835 H 1330.19 5.29458 -5.45507 0
M  V30 13836 N 1331.77 0.549846 1.47697 0
M  V30 13837 C 1333 0.0276889 2.06881 0
M  V30 13838 C 1333.41 -1.26273 1.40359 0
M  V30 13839 O 1332.77 -1.75584 0.497644 0
M  V30 13840 C 1332.82 -0.179291 3.61055 0
M  V30 13841 O 1332.54 1.06002 4.25083 0
M  V30 13842 C 1334.04 -0.739571 4.37087 0
M  V30 13843 H 1331.26 0.0425016 0.669653 0
M  V30 13844 H 1333.81 0.761158 1.89807 0
M  V30 13845 H 1331.96 -0.862867 3.77668 0
M  V30 13846 H 1332.37 0.853137 5.17515 0
M  V30 13847 H 1333.85 -0.833722 5.45668 0
M  V30 13848 H 1334.33 -1.74915 4.02867 0
M  V30 13849 H 1334.93 -0.0919294 4.25201 0
M  V30 13850 N 1333.25 -1.54984 0.285932 0
M  V30 13851 C 1334.66 -1.59455 -0.0679061 0
M  V30 13852 C 1334.86 -1.30308 -1.53695 0
M  V30 13853 O 1333.92 -1.06918 -2.28746 0
M  V30 13854 C 1335.23 -2.9903 0.316469 0
M  V30 13855 C 1336.78 -3.11885 0.263982 0
M  V30 13856 C 1337.25 -4.53744 0.622956 0
M  V30 13857 N 1338.75 -4.59618 0.574917 0
M  V30 13858 C 1339.48 -5.67429 0.825339 0
M  V30 13859 N 1338.98 -6.83341 1.14094 0
M  V30 13860 N 1340.77 -5.57028 0.75341 0
M  V30 13861 H 1332.92 -1.72194 1.2435 0
M  V30 13862 H 1335.18 -0.80348 0.503114 0
M  V30 13863 H 1334.89 -3.25232 1.33855 0
M  V30 13864 H 1334.76 -3.75688 -0.337371 0
M  V30 13865 H 1337.15 -2.85441 -0.748832 0
M  V30 13866 H 1337.23 -2.37416 0.952233 0
M  V30 13867 H 1336.88 -4.80915 1.63351 0
M  V30 13868 H 1336.81 -5.26528 -0.0872039 0
M  V30 13869 H 1339.3 -3.76356 0.341305 0
M  V30 13870 H 1339.61 -7.61471 1.3184 0
M  V30 13871 H 1337.95 -6.8493 1.17883 0
M  V30 13872 H 1341.15 -4.6535 0.506611 0
M  V30 13873 H 1341.32 -6.4097 0.95195 0
M  V30 13874 N 1334.72 -0.0133892 -1.57594 0
M  V30 13875 C 1335.66 1.00798 -2.04731 0
M  V30 13876 C 1336.64 1.32686 -0.93985 0
M  V30 13877 O 1337.82 1.44622 -1.209 0
M  V30 13878 C 1334.95 2.33216 -2.45618 0
M  V30 13879 C 1333.99 2.16898 -3.67229 0
M  V30 13880 S 1334.83 1.48248 -5.14571 0
M  V30 13881 C 1335.98 2.82068 -5.58738 0
M  V30 13882 H 1336.21 0.606673 -2.91044 0
M  V30 13883 H 1333.75 0.197865 -1.53127 0
M  V30 13884 H 1335.71 3.09348 -2.69841 0
M  V30 13885 H 1334.37 2.70483 -1.59679 0
M  V30 13886 H 1333.56 3.14753 -3.93632 0
M  V30 13887 H 1333.16 1.4891 -3.43077 0
M  V30 13888 H 1335.45 3.78343 -5.62017 0
M  V30 13889 H 1336.4 2.60348 -6.58502 0
M  V30 13890 H 1336.8 2.86592 -4.86338 0
M  V30 13891 N 1336.2 1.55448 0.259558 0
M  V30 13892 C 1337.45 1.76686 0.98935 0
M  V30 13893 C 1337.78 0.575434 1.85793 0
M  V30 13894 O 1337.03 -0.441676 1.90651 0
M  V30 13895 C 1337.33 3.03292 1.89073 0
M  V30 13896 C 1337 4.35225 1.17855 0
M  V30 13897 C 1335.66 4.7108 0.981675 0
M  V30 13898 C 1338.01 5.16839 0.6728 0
M  V30 13899 C 1335.34 5.86094 0.266551 0
M  V30 13900 C 1337.69 6.32593 -0.0287965 0
M  V30 13901 C 1336.36 6.67078 -0.23726 0
M  V30 13902 H 1335.63 0.646542 0.362029 0
M  V30 13903 H 1338.27 1.8972 0.260488 0
M  V30 13904 H 1336.58 2.85217 2.68624 0
M  V30 13905 H 1338.27 3.16923 2.45685 0
M  V30 13906 H 1334.86 4.07051 1.34192 0
M  V30 13907 H 1339.05 4.89604 0.812481 0
M  V30 13908 H 1334.3 6.11327 0.0944447 0
M  V30 13909 H 1338.48 6.95081 -0.428378 0
M  V30 13910 H 1336.11 7.56049 -0.793358 0
M  V30 13911 N 1337.68 -0.524672 1.4861 0
M  V30 13912 C 1338.64 -1.61092 1.63039 0
M  V30 13913 C 1339.64 -1.52718 0.503387 0
M  V30 13914 O 1340.83 -1.56293 0.769304 0
M  V30 13915 C 1337.97 -3.00722 1.60558 0
M  V30 13916 H 1339.16 -1.49636 2.59902 0
M  V30 13917 H 1336.71 -0.747135 1.37287 0
M  V30 13918 H 1337.45 -3.1768 0.651926 0
M  V30 13919 H 1337.23 -3.0821 2.42382 0
M  V30 13920 H 1338.72 -3.79688 1.73859 0
M  V30 13921 N 1339.16 -1.37287 -0.77395 0
M  V30 13922 C 1340.44 -1.2291 -1.52159 0
M  V30 13923 C 1340.82 0.178249 -2.10346 0
M  V30 13924 O 1340.16 1.18564 -1.95333 0
M  V30 13925 C 1340.37 -2.32337 -2.60424 0
M  V30 13926 C 1341.72 -2.69769 -3.27887 0
M  V30 13927 O 1342.75 -2.31497 -2.70717 0
M  V30 13928 O 1341.6 -3.35699 -4.31241 0
M  V30 13929 H 1338.7 -0.47948 -0.673816 0
M  V30 13930 H 1341.24 -1.49061 -0.811105 0
M  V30 13931 H 1340.02 -3.26591 -2.15532 0
M  V30 13932 H 1339.64 -2.07638 -3.39076 0
M  V30 13933 N 1340.64 0.999871 -1.21821 0
M  V30 13934 C 1342.05 1.5529 -1.03642 0
M  V30 13935 C 1342.4 1.92032 0.402246 0
M  V30 13936 O 1341.52 1.74027 1.28622 0
M  V30 13937 C 1342.12 2.82177 -1.87514 0
M  V30 13938 C 1340.68 3.33949 -1.73653 0
M  V30 13939 C 1339.82 2.07095 -1.84409 0
M  V30 13940 H 1342.78 0.821751 -1.35768 0
M  V30 13941 H 1342.8 3.54264 -1.38842 0
M  V30 13942 H 1342.31 2.55405 -2.92216 0
M  V30 13943 H 1340.41 3.65645 -0.716554 0
M  V30 13944 H 1340.52 4.05022 -2.55918 0
M  V30 13945 H 1338.89 2.20332 -1.27773 0
M  V30 13946 H 1339.67 1.82728 -2.90629 0
M  V30 13947 N 1342.11 1.02678 1.19562 0
M  V30 13948 C 1343.06 0.576385 2.20594 0
M  V30 13949 C 1344.05 -0.373747 1.56499 0
M  V30 13950 O 1345.24 -0.195058 1.75922 0
M  V30 13951 C 1342.37 -0.0735507 3.43221 0
M  V30 13952 C 1341.46 0.898896 4.14464 0
M  V30 13953 N 1341.85 2.06048 4.61928 0
M  V30 13954 C 1340.14 0.721889 4.40119 0
M  V30 13955 C 1340.85 2.67364 5.16615 0
M  V30 13956 N 1339.82 1.95344 5.07289 0
M  V30 13957 H 1343.62 1.46179 2.54968 0
M  V30 13958 H 1341.14 0.893484 1.35612 0
M  V30 13959 H 1343.13 -0.413825 4.14841 0
M  V30 13960 H 1341.79 -0.954671 3.10348 0
M  V30 13961 H 1342.81 2.43999 4.5682 0
M  V30 13962 H 1339.48 -0.110317 4.17354 0
M  V30 13963 H 1340.87 3.65726 5.63644 0
M  V30 13964 N 1343.59 -1.35528 0.804364 0
M  V30 13965 C 1344.82 -2.03604 0.395013 0
M  V30 13966 C 1345.24 -1.60225 -0.985371 0
M  V30 13967 O 1344.6 -0.777844 -1.63766 0
M  V30 13968 C 1344.65 -3.57337 0.484011 0
M  V30 13969 O 1343.75 -4.09316 -0.503395 0
M  V30 13970 H 1343.09 -0.643089 0.165325 0
M  V30 13971 H 1345.62 -1.73171 1.08963 0
M  V30 13972 H 1345.63 -4.0647 0.353009 0
M  V30 13973 H 1344.31 -3.8826 1.49088 0
M  V30 13974 H 1342.89 -3.71412 -0.332817 0
M  V30 13975 N 1345.07 -0.557671 -1.47404 0
M  V30 13976 C 1346.02 0.189765 -2.30019 0
M  V30 13977 C 1346.99 0.907923 -1.3909 0
M  V30 13978 O 1348.17 0.903528 -1.68051 0
M  V30 13979 C 1345.31 1.21348 -3.23061 0
M  V30 13980 C 1344.43 0.501343 -4.29081 0
M  V30 13981 C 1343.56 1.51039 -5.09275 0
M  V30 13982 C 1342.6 0.783254 -6.07068 0
M  V30 13983 N 1341.74 1.73916 -6.80219 0
M  V30 13984 H 1346.58 -0.520856 -2.93413 0
M  V30 13985 H 1344.11 -0.268686 -1.44625 0
M  V30 13986 H 1346.07 1.81961 -3.75428 0
M  V30 13987 H 1344.7 1.89213 -2.61531 0
M  V30 13988 H 1343.75 -0.219317 -3.79767 0
M  V30 13989 H 1345.07 -0.0682656 -4.98753 0
M  V30 13990 H 1344.22 2.19004 -5.65793 0
M  V30 13991 H 1342.96 2.11392 -4.39505 0
M  V30 13992 H 1341.96 0.0896883 -5.49727 0
M  V30 13993 H 1343.19 0.185464 -6.78847 0
M  V30 13994 H 1341.14 2.33125 -6.13179 0
M  V30 13995 H 1341.05 1.22171 -7.46063 0
M  V30 13996 H 1342.32 2.40993 -7.41311 0
M  V30 13997 N 1346.55 1.54831 -0.294147 0
M  V30 13998 C 1347.97 1.59489 0.0594489 0
M  V30 13999 C 1348.17 1.31121 1.53002 0
M  V30 14000 O 1347.22 1.08129 2.28176 0
M  V30 14001 C 1348.53 2.98858 -0.332323 0
M  V30 14002 C 1350.08 3.1174 -0.280518 0
M  V30 14003 C 1350.56 4.53407 -0.64701 0
M  V30 14004 N 1352.05 4.59307 -0.599284 0
M  V30 14005 C 1352.78 5.66983 -0.85542 0
M  V30 14006 N 1352.28 6.82726 -1.17717 0
M  V30 14007 N 1354.07 5.56621 -0.78294 0
M  V30 14008 H 1346.22 1.71532 -1.25262 0
M  V30 14009 H 1348.49 0.800801 -0.507368 0
M  V30 14010 H 1348.19 3.24517 -1.35578 0
M  V30 14011 H 1348.07 3.75862 0.317443 0
M  V30 14012 H 1350.45 2.85834 0.733683 0
M  V30 14013 H 1350.53 2.36907 -0.96481 0
M  V30 14014 H 1350.18 4.80042 -1.65899 0
M  V30 14015 H 1350.11 5.26567 0.0592796 0
M  V30 14016 H 1352.6 3.76169 -0.361259 0
M  V30 14017 H 1352.91 7.60761 -1.35877 0
M  V30 14018 H 1351.26 6.84295 -1.21513 0
M  V30 14019 H 1354.45 4.65075 -0.531282 0
M  V30 14020 H 1354.62 6.40456 -0.985929 0
M  V30 14021 N 1348.03 0.0217466 1.57585 0
M  V30 14022 C 1349.27 -0.659463 1.91778 0
M  V30 14023 C 1349.61 -1.72201 0.897801 0
M  V30 14024 O 1348.88 -1.94333 -0.080509 0
M  V30 14025 C 1349.16 -1.28269 3.36481 0
M  V30 14026 C 1349.02 -0.230201 4.49211 0
M  V30 14027 C 1350.34 -2.20279 3.81005 0
M  V30 14028 H 1347.46 -0.238263 0.697424 0
M  V30 14029 H 1350.1 0.0774967 1.89842 0
M  V30 14030 H 1348.25 -1.9108 3.38262 0
M  V30 14031 H 1349.92 0.399901 4.59563 0
M  V30 14032 H 1348.16 0.445157 4.3151 0
M  V30 14033 H 1348.83 -0.705732 5.4747 0
M  V30 14034 H 1351.31 -1.67463 3.80914 0
M  V30 14035 H 1350.19 -2.60842 4.82962 0
M  V30 14036 H 1350.45 -3.09092 3.16093 0
M  V30 14037 N 1349.51 -1.55583 -0.251311 0
M  V30 14038 C 1350.75 -1.77209 -0.979966 0
M  V30 14039 C 1351.08 -0.585279 -1.85485 0
M  V30 14040 O 1350.34 0.431559 -1.90882 0
M  V30 14041 C 1350.63 -3.04291 -1.87461 0
M  V30 14042 C 1350.3 -4.35844 -1.15545 0
M  V30 14043 C 1348.96 -4.71594 -0.956679 0
M  V30 14044 C 1351.31 -5.17189 -0.645381 0
M  V30 14045 C 1348.64 -5.86227 -0.235465 0
M  V30 14046 C 1350.99 -6.32569 0.0623441 0
M  V30 14047 C 1349.66 -6.66943 0.272634 0
M  V30 14048 H 1348.93 -0.648452 -0.358595 0
M  V30 14049 H 1351.58 -1.89856 -0.250423 0
M  V30 14050 H 1349.88 -2.86637 -2.67108 0
M  V30 14051 H 1351.58 -3.18221 -2.44001 0
M  V30 14052 H 1348.17 -4.07757 -1.32031 0
M  V30 14053 H 1352.35 -4.90028 -0.786505 0
M  V30 14054 H 1347.61 -6.11369 -0.0620232 0
M  V30 14055 H 1351.78 -6.94844 0.465234 0
M  V30 14056 H 1349.41 -7.55617 0.833442 0
M  V30 14057 N 1350.98 0.516783 -1.48886 0
M  V30 14058 C 1352.21 1.30103 -1.61518 0
M  V30 14059 C 1352.63 1.85996 -0.28055 0
M  V30 14060 O 1351.99 1.65075 0.749671 0
M  V30 14061 C 1352.04 2.41837 -2.67483 0
M  V30 14062 O 1351.14 3.45249 -2.25559 0
M  V30 14063 H 1350.48 0.384774 -0.541152 0
M  V30 14064 H 1353.01 0.620424 -1.94966 0
M  V30 14065 H 1353.02 2.87832 -2.89165 0
M  V30 14066 H 1351.7 2.00519 -3.64369 0
M  V30 14067 H 1350.28 3.05281 -2.14144 0
M  V30 14068 N 1352.46 1.37696 0.766659 0
M  V30 14069 C 1353.39 1.28241 1.88758 0
M  V30 14070 C 1354.37 0.161948 1.61791 0
M  V30 14071 O 1355.56 0.337034 1.85462 0
M  V30 14072 C 1352.68 0.983972 3.24092 0
M  V30 14073 C 1351.73 2.12202 3.69963 0
M  V30 14074 S 1352.56 3.74225 3.83035 0
M  V30 14075 C 1353.72 3.46542 5.2121 0
M  V30 14076 H 1353.95 2.23113 1.96489 0
M  V30 14077 H 1351.48 1.23378 0.92829 0
M  V30 14078 H 1353.44 0.818612 4.02255 0
M  V30 14079 H 1352.1 0.0526544 3.14056 0
M  V30 14080 H 1351.3 1.86834 4.68091 0
M  V30 14081 H 1350.9 2.24778 2.98916 0
M  V30 14082 H 1353.19 3.01845 6.06544 0
M  V30 14083 H 1354.13 4.44016 5.51593 0
M  V30 14084 H 1354.54 2.81353 4.89388 0
M  V30 14085 N 1353.94 -0.993397 1.22349 0
M  V30 14086 C 1355.19 -1.73287 1.04775 0
M  V30 14087 C 1355.51 -1.89973 -0.417201 0
M  V30 14088 O 1354.77 -1.43966 -1.32561 0
M  V30 14089 C 1355.07 -3.14191 1.70349 0
M  V30 14090 C 1354.73 -3.17421 3.20241 0
M  V30 14091 C 1353.4 -3.1801 3.61141 0
M  V30 14092 C 1355.75 -3.13751 4.16185 0
M  V30 14093 C 1353.08 -3.12628 4.96468 0
M  V30 14094 C 1355.43 -3.09911 5.51487 0
M  V30 14095 C 1354.09 -3.08815 5.91768 0
M  V30 14096 H 1353.36 -0.634102 0.3834 0
M  V30 14097 H 1356.01 -1.16346 1.52105 0
M  V30 14098 H 1354.31 -3.74437 1.15343 0
M  V30 14099 H 1356.01 -3.70149 1.54242 0
M  V30 14100 H 1352.6 -3.17713 2.87674 0
M  V30 14101 H 1356.79 -3.12446 3.85605 0
M  V30 14102 H 1352.04 -3.10125 5.26909 0
M  V30 14103 H 1356.22 -3.06026 6.25556 0
M  V30 14104 H 1353.84 -3.044 6.96595 0
M  V30 14105 N 1355.42 -1.03311 -1.19015 0
M  V30 14106 C 1356.35 -0.638279 -2.24607 0
M  V30 14107 C 1357.33 0.354795 -1.66359 0
M  V30 14108 O 1358.51 0.236574 -1.92754 0
M  V30 14109 C 1355.64 0.00737316 -3.47299 0
M  V30 14110 C 1354.6 -0.908431 -4.18248 0
M  V30 14111 C 1353.92 -0.127658 -5.34548 0
M  V30 14112 C 1355.22 -2.2241 -4.72579 0
M  V30 14113 H 1356.92 -1.52099 -2.57888 0
M  V30 14114 H 1354.46 -0.732779 -1.23961 0
M  V30 14115 H 1356.42 0.295256 -4.20364 0
M  V30 14116 H 1355.14 0.924912 -3.1323 0
M  V30 14117 H 1353.8 -1.18058 -3.47071 0
M  V30 14118 H 1353.45 0.792048 -4.96725 0
M  V30 14119 H 1353.15 -0.737702 -5.82951 0
M  V30 14120 H 1354.67 0.153385 -6.10407 0
M  V30 14121 H 1356.09 -1.99745 -5.37378 0
M  V30 14122 H 1354.48 -2.78644 -5.31486 0
M  V30 14123 H 1355.55 -2.87584 -3.90415 0
M  V30 14124 N 1356.9 1.35099 -0.81154 0
M  V30 14125 C 1357.81 2.33499 -0.22705 0
M  V30 14126 C 1358.82 1.62095 0.632562 0
M  V30 14127 O 1360 1.93938 0.543147 0
M  V30 14128 C 1357.06 3.41279 0.610687 0
M  V30 14129 C 1356.12 4.2845 -0.269994 0
M  V30 14130 C 1355.36 5.31083 0.527854 0
M  V30 14131 O 1355.58 5.42499 1.76213 0
M  V30 14132 O 1354.51 6.01842 -0.083862 0
M  V30 14133 H 1358.34 2.85294 -1.04119 0
M  V30 14134 H 1355.92 1.37957 -0.573432 0
M  V30 14135 H 1357.81 4.07121 1.08768 0
M  V30 14136 H 1356.48 2.91746 1.40235 0
M  V30 14137 H 1355.39 3.65572 -0.794234 0
M  V30 14138 H 1356.72 4.81394 -1.02572 0
M  V30 14139 N 1358.37 0.56548 1.47106 0
M  V30 14140 C 1359.6 0.0496298 2.0684 0
M  V30 14141 C 1360.02 -1.24777 1.4169 0
M  V30 14142 O 1359.37 -1.75046 0.516239 0
M  V30 14143 C 1359.42 -0.140987 3.61225 0
M  V30 14144 O 1359.15 1.10504 4.23934 0
M  V30 14145 C 1360.65 -0.693171 4.37847 0
M  V30 14146 H 1357.87 0.0496018 0.669164 0
M  V30 14147 H 1360.41 0.781247 1.88989 0
M  V30 14148 H 1358.57 -0.822762 3.78562 0
M  V30 14149 H 1358.98 0.907978 5.16581 0
M  V30 14150 H 1360.45 -0.7758 5.46521 0
M  V30 14151 H 1360.93 -1.70632 4.04699 0
M  V30 14152 H 1361.54 -0.046826 4.25274 0
M  V30 14153 N 1359.85 -1.54672 0.302354 0
M  V30 14154 C 1360.78 -2.2653 -0.566265 0
M  V30 14155 C 1361.76 -1.26532 -1.13682 0
M  V30 14156 O 1362.95 -1.55307 -1.1659 0
M  V30 14157 C 1360.08 -3.00709 -1.73757 0
M  V30 14158 C 1359.03 -4.07865 -1.29731 0
M  V30 14159 C 1358.36 -4.69767 -2.55388 0
M  V30 14160 C 1359.66 -5.20547 -0.427567 0
M  V30 14161 H 1361.35 -2.99382 0.033071 0
M  V30 14162 H 1358.9 -1.4399 0.0173458 0
M  V30 14163 H 1360.85 -3.497 -2.35134 0
M  V30 14164 H 1359.58 -2.25437 -2.36317 0
M  V30 14165 H 1358.23 -3.59726 -0.706586 0
M  V30 14166 H 1357.88 -3.91134 -3.16265 0
M  V30 14167 H 1357.58 -5.42137 -2.26631 0
M  V30 14168 H 1359.11 -5.21521 -3.17566 0
M  V30 14169 H 1360.52 -5.65424 -0.947053 0
M  V30 14170 H 1358.92 -5.99645 -0.233704 0
M  V30 14171 H 1359.99 -4.81805 0.546993 0
M  V30 14172 N 1361.33 -0.0301034 -1.57571 0
M  V30 14173 C 1362.58 0.649283 -1.92125 0
M  V30 14174 C 1362.91 1.71722 -0.90692 0
M  V30 14175 O 1362.18 1.94373 0.0702019 0
M  V30 14176 C 1362.47 1.26482 -3.37156 0
M  V30 14177 C 1362.32 0.206375 -4.49326 0
M  V30 14178 C 1363.64 2.18256 -3.82168 0
M  V30 14179 H 1360.76 0.234561 -0.698678 0
M  V30 14180 H 1363.4 -0.0875634 -1.89798 0
M  V30 14181 H 1361.55 1.89283 -3.3927 0
M  V30 14182 H 1363.22 -0.424268 -4.59345 0
M  V30 14183 H 1361.47 -0.468035 -4.31268 0
M  V30 14184 H 1362.14 0.676689 -5.47837 0
M  V30 14185 H 1364.61 1.65441 -3.81797 0
M  V30 14186 H 1363.49 2.58277 -4.84339 0
M  V30 14187 H 1363.75 3.07411 -3.17727 0
M  V30 14188 N 1362.81 1.55714 0.243056 0
M  V30 14189 C 1364.09 1.68483 0.993614 0
M  V30 14190 C 1364.47 0.571112 2.03228 0
M  V30 14191 O 1363.81 -0.42491 2.24515 0
M  V30 14192 C 1364.02 3.0894 1.62349 0
M  V30 14193 C 1365.37 3.67663 2.12389 0
M  V30 14194 O 1366.4 3.11764 1.72283 0
M  V30 14195 O 1365.25 4.65664 2.8604 0
M  V30 14196 H 1362.35 0.685415 0.462747 0
M  V30 14197 H 1364.89 1.68043 0.236538 0
M  V30 14198 H 1363.67 3.81451 0.87241 0
M  V30 14199 H 1363.29 3.13407 2.44667 0
M  V30 14200 N 1364.29 -0.50888 1.49158 0
M  V30 14201 C 1365.53 -1.2635 1.58247 0
M  V30 14202 C 1365.86 -1.92677 0.265654 0
M  V30 14203 O 1365.12 -1.80931 -0.745818 0
M  V30 14204 C 1365.42 -2.35875 2.6851 0
M  V30 14205 C 1365.08 -1.87059 4.10268 0
M  V30 14206 C 1363.74 -1.73464 4.48847 0
M  V30 14207 C 1366.1 -1.50429 4.9902 0
M  V30 14208 C 1363.42 -1.21606 5.73959 0
M  V30 14209 C 1365.78 -1.00026 6.24642 0
M  V30 14210 C 1364.44 -0.850646 6.62058 0
M  V30 14211 H 1363.71 -0.462346 0.579066 0
M  V30 14212 H 1366.36 -0.565528 1.82959 0
M  V30 14213 H 1364.66 -3.11428 2.37739 0
M  V30 14214 H 1366.36 -2.9395 2.72753 0
M  V30 14215 H 1362.95 -1.98597 3.79812 0
M  V30 14216 H 1367.13 -1.59782 4.69876 0
M  V30 14217 H 1362.39 -1.08728 6.01655 0
M  V30 14218 H 1366.56 -0.707608 6.92796 0
M  V30 14219 H 1364.19 -0.446627 7.58887 0
M  V30 14220 N 1365.76 -1.381 -0.759346 0
M  V30 14221 C 1367.01 -1.33311 -1.51364 0
M  V30 14222 C 1367.33 0.0761325 -1.95452 0
M  V30 14223 O 1368.53 0.246541 -2.70378 0
M  V30 14224 C 1366.99 -2.34067 -2.73387 0
M  V30 14225 C 1366.6 -3.80583 -2.36348 0
M  V30 14226 C 1368.34 -2.38311 -3.51295 0
M  V30 14227 C 1366.25 -4.73039 -3.54948 0
M  V30 14228 H 1365.18 -0.495512 -0.568317 0
M  V30 14229 H 1367.83 -1.63625 -0.830602 0
M  V30 14230 H 1366.21 -1.96788 -3.43643 0
M  V30 14231 H 1367.38 -4.26769 -1.73796 0
M  V30 14232 H 1365.7 -3.79403 -1.71587 0
M  V30 14233 H 1368.3 -3.04586 -4.39467 0
M  V30 14234 H 1368.64 -1.40034 -3.92041 0
M  V30 14235 H 1369.17 -2.74361 -2.88047 0
M  V30 14236 H 1365.91 -5.7249 -3.19273 0
M  V30 14237 H 1365.43 -4.3155 -4.16563 0
M  V30 14238 H 1367.11 -4.90775 -4.21603 0
M  V30 14239 N 1367.24 0.986894 -1.22875 0
M  V30 14240 C 1368.49 1.72152 -1.05103 0
M  V30 14241 C 1368.8 1.91185 0.413248 0
M  V30 14242 O 1370.01 2.62031 0.710759 0
M  V30 14243 C 1368.47 3.09771 -1.8322 0
M  V30 14244 C 1368.07 2.98648 -3.33936 0
M  V30 14245 C 1369.82 3.87238 -1.73917 0
M  V30 14246 C 1367.73 4.31459 -4.04471 0
M  V30 14247 H 1366.66 0.645498 -0.389677 0
M  V30 14248 H 1369.31 1.10125 -1.46781 0
M  V30 14249 H 1367.69 3.72515 -1.34345 0
M  V30 14250 H 1368.86 2.45033 -3.9025 0
M  V30 14251 H 1367.18 2.34661 -3.43982 0
M  V30 14252 H 1369.77 4.85549 -2.23933 0
M  V30 14253 H 1370.12 4.1036 -0.700711 0
M  V30 14254 H 1370.65 3.31183 -2.20369 0
M  V30 14255 H 1367.39 4.13534 -5.08596 0
M  V30 14256 H 1366.91 4.84964 -3.52944 0
M  V30 14257 H 1368.59 5.00179 -4.10403 0
M  V30 14258 N 1368.72 1.0394 1.18466 0
M  V30 14259 C 1369.97 0.737233 1.87744 0
M  V30 14260 C 1370.28 -0.737891 1.81148 0
M  V30 14261 O 1371.49 -1.15353 2.45776 0
M  V30 14262 C 1369.94 1.26844 3.36806 0
M  V30 14263 C 1369.55 2.7721 3.51935 0
M  V30 14264 C 1371.3 1.04274 4.11494 0
M  V30 14265 C 1369.2 3.23696 4.9495 0
M  V30 14266 H 1368.13 0.272082 0.703198 0
M  V30 14267 H 1370.78 1.25507 1.33866 0
M  V30 14268 H 1369.17 0.67847 3.90145 0
M  V30 14269 H 1370.34 3.41954 3.08875 0
M  V30 14270 H 1368.66 2.98179 2.90652 0
M  V30 14271 H 1371.25 1.3652 5.16978 0
M  V30 14272 H 1371.6 -0.0200645 4.16295 0
M  V30 14273 H 1372.13 1.59726 3.64325 0
M  V30 14274 H 1368.87 4.29351 4.95316 0
M  V30 14275 H 1368.39 2.63687 5.38729 0
M  V30 14276 H 1370.07 3.17645 5.63658 0
M  V30 14277 N 1370.2 -1.34667 0.818693 0
M  V30 14278 C 1371.15 -2.27031 0.210001 0
M  V30 14279 C 1372.13 -1.48338 -0.623258 0
M  V30 14280 O 1373.32 -1.70409 -0.478531 0
M  V30 14281 C 1370.45 -3.37457 -0.63069 0
M  V30 14282 C 1369.54 -4.23565 0.212964 0
M  V30 14283 N 1369.93 -4.89286 1.28191 0
M  V30 14284 C 1368.23 -4.46 -0.00340477 0
M  V30 14285 C 1368.93 -5.53216 1.79798 0
M  V30 14286 N 1367.91 -5.32302 1.10253 0
M  V30 14287 H 1371.71 -2.75345 1.02773 0
M  V30 14288 H 1369.22 -1.48336 0.661071 0
M  V30 14289 H 1371.22 -4.0259 -1.0829 0
M  V30 14290 H 1369.88 -2.90694 -1.44663 0
M  V30 14291 H 1370.89 -4.90417 1.66467 0
M  V30 14292 H 1367.57 -4.10005 -0.787516 0
M  V30 14293 H 1368.96 -6.15613 2.69203 0
M  V30 14294 N 1371.68 -0.573274 -1.46804 0
M  V30 14295 C 1372.62 0.165358 -2.30207 0
M  V30 14296 C 1373.59 0.89312 -1.40045 0
M  V30 14297 O 1374.78 0.885653 -1.68999 0
M  V30 14298 C 1371.92 1.17915 -3.2433 0
M  V30 14299 C 1371.03 0.455805 -4.29589 0
M  V30 14300 C 1370.17 1.45629 -5.10848 0
M  V30 14301 C 1369.21 0.718822 -6.07865 0
M  V30 14302 N 1368.34 1.66691 -6.82025 0
M  V30 14303 H 1373.18 -0.551947 -2.92844 0
M  V30 14304 H 1370.72 -0.28401 -1.44332 0
M  V30 14305 H 1372.68 1.77969 -3.77337 0
M  V30 14306 H 1371.31 1.86429 -2.63523 0
M  V30 14307 H 1370.36 -0.259584 -3.79513 0
M  V30 14308 H 1371.67 -0.121161 -4.98653 0
M  V30 14309 H 1370.83 2.1299 -5.68084 0
M  V30 14310 H 1369.56 2.06718 -4.41723 0
M  V30 14311 H 1368.57 0.0313773 -5.49791 0
M  V30 14312 H 1369.79 0.113452 -6.79005 0
M  V30 14313 H 1367.74 2.26608 -6.15617 0
M  V30 14314 H 1367.66 1.14251 -7.47317 0
M  V30 14315 H 1368.93 2.33117 -7.43826 0
M  V30 14316 N 1373.15 1.5451 -0.310553 0
M  V30 14317 C 1374.43 1.92452 0.34951 0
M  V30 14318 C 1374.81 1.23881 1.70929 0
M  V30 14319 O 1374.16 0.377898 2.25353 0
M  V30 14320 C 1374.37 3.46026 0.454675 0
M  V30 14321 C 1375.72 4.18432 0.721071 0
M  V30 14322 O 1376.74 3.52112 0.538112 0
M  V30 14323 O 1375.6 5.3586 1.07314 0
M  V30 14324 H 1372.69 0.803168 0.197103 0
M  V30 14325 H 1375.24 1.65852 -0.359313 0
M  V30 14326 H 1374.01 3.88081 -0.500853 0
M  V30 14327 H 1373.64 3.7869 1.21159 0
M  V30 14328 N 1374.63 0.0384594 1.57553 0
M  V30 14329 C 1375.91 -0.677308 1.83499 0
M  V30 14330 C 1376.29 -1.89789 0.924294 0
M  V30 14331 O 1375.64 -2.28493 -0.0178185 0
M  V30 14332 C 1375.85 -1.04667 3.32935 0
M  V30 14333 C 1377.2 -1.43436 3.99639 0
M  V30 14334 O 1378.22 -1.13938 3.37486 0
M  V30 14335 O 1377.08 -1.98435 5.09201 0
M  V30 14336 H 1374.17 -0.333131 0.756936 0
M  V30 14337 H 1376.72 0.066854 1.69568 0
M  V30 14338 H 1375.49 -0.178349 3.90893 0
M  V30 14339 H 1375.11 -1.8487 3.52007 0
M  V30 14340 N 1376.11 -1.55841 -0.234795 0
M  V30 14341 C 1377.04 -1.94344 -1.29432 0
M  V30 14342 C 1378.02 -0.809912 -1.49581 0
M  V30 14343 O 1379.21 -1.07117 -1.61986 0
M  V30 14344 C 1376.34 -2.24866 -2.64675 0
M  V30 14345 C 1375.29 -3.40584 -2.59203 0
M  V30 14346 C 1374.62 -3.56678 -3.98353 0
M  V30 14347 C 1375.92 -4.75935 -2.15135 0
M  V30 14348 H 1377.61 -2.83096 -0.97454 0
M  V30 14349 H 1375.16 -1.36205 -0.467355 0
M  V30 14350 H 1377.11 -2.50392 -3.38942 0
M  V30 14351 H 1375.83 -1.32953 -2.98314 0
M  V30 14352 H 1374.49 -3.15087 -1.87393 0
M  V30 14353 H 1374.14 -2.62164 -4.29277 0
M  V30 14354 H 1373.84 -4.34503 -3.95577 0
M  V30 14355 H 1375.37 -3.84538 -4.74302 0
M  V30 14356 H 1376.78 -5.00753 -2.7914 0
M  V30 14357 H 1375.18 -5.56949 -2.23446 0
M  V30 14358 H 1376.25 -4.72182 -1.10328 0
M  V30 14359 N 1377.59 0.500963 -1.49426 0
M  V30 14360 C 1378.52 1.6192 -1.62217 0
M  V30 14361 C 1379.53 1.54774 -0.504868 0
M  V30 14362 O 1380.72 1.60705 -0.776919 0
M  V30 14363 C 1377.82 3.0071 -1.56291 0
M  V30 14364 C 1377 3.3304 -2.83555 0
M  V30 14365 C 1376.06 4.51241 -2.7068 0
M  V30 14366 O 1375.08 4.53023 -3.44615 0
M  V30 14367 N 1376.28 5.51156 -1.82228 0
M  V30 14368 H 1379.05 1.51374 -2.58662 0
M  V30 14369 H 1376.61 0.688837 -1.46515 0
M  V30 14370 H 1378.6 3.77705 -1.45332 0
M  V30 14371 H 1377.17 3.0518 -0.677043 0
M  V30 14372 H 1376.39 2.44942 -3.08865 0
M  V30 14373 H 1377.68 3.51437 -3.67926 0
M  V30 14374 H 1377.08 5.52516 -1.21417 0
M  V30 14375 H 1375.63 6.27253 -1.77192 0
M  V30 14376 N 1379.07 1.38501 0.752011 0
M  V30 14377 C 1380.34 1.25315 1.50185 0
M  V30 14378 C 1380.72 -0.144762 2.10603 0
M  V30 14379 O 1380.07 -1.15441 1.97194 0
M  V30 14380 C 1380.28 2.36451 2.56694 0
M  V30 14381 C 1381.63 2.74952 3.23553 0
M  V30 14382 O 1382.65 2.35774 2.67 0
M  V30 14383 O 1381.51 3.42517 4.25845 0
M  V30 14384 H 1378.61 0.490139 0.666103 0
M  V30 14385 H 1381.15 1.50333 0.787288 0
M  V30 14386 H 1379.93 3.29978 2.10309 0
M  V30 14387 H 1379.55 2.13006 3.35729 0
M  V30 14388 N 1380.55 -0.980364 1.23396 0
M  V30 14389 C 1381.79 -1.72501 1.07772 0
M  V30 14390 C 1382.15 -1.88581 -0.381434 0
M  V30 14391 O 1381.44 -1.42702 -1.27854 0
M  V30 14392 C 1381.63 -3.12367 1.73671 0
M  V30 14393 C 1381.46 -3.09928 3.25844 0
M  V30 14394 C 1380.23 -3.15117 3.95006 0
M  V30 14395 C 1382.43 -2.93093 4.22612 0
M  V30 14396 N 1380.41 -3.02564 5.34161 0
M  V30 14397 C 1381.78 -2.88703 5.48681 0
M  V30 14398 C 1383.84 -2.77578 4.13346 0
M  V30 14399 C 1382.54 -2.70386 6.66546 0
M  V30 14400 C 1384.57 -2.60625 5.30875 0
M  V30 14401 C 1383.93 -2.56933 6.55869 0
M  V30 14402 H 1380.03 -0.640325 0.448897 0
M  V30 14403 H 1382.61 -1.16332 1.56125 0
M  V30 14404 H 1380.78 -3.66754 1.27851 0
M  V30 14405 H 1382.52 -3.75465 1.51023 0
M  V30 14406 H 1379.27 -3.23298 3.46086 0
M  V30 14407 H 1379.69 -2.99563 6.07117 0
M  V30 14408 H 1384.34 -2.79223 3.17481 0
M  V30 14409 H 1382.05 -2.67486 7.62546 0
M  V30 14410 H 1385.64 -2.49584 5.25547 0
M  V30 14411 H 1384.52 -2.43979 7.45281 0
M  V30 14412 N 1382.02 -1.04567 -1.17913 0
M  V30 14413 C 1382.95 -0.662066 -2.23917 0
M  V30 14414 C 1383.93 0.33713 -1.66726 0
M  V30 14415 O 1385.12 0.216116 -1.92994 0
M  V30 14416 C 1382.25 -0.029463 -3.47288 0
M  V30 14417 C 1381.2 -0.95274 -4.17261 0
M  V30 14418 C 1380.53 -0.184347 -5.34382 0
M  V30 14419 C 1381.83 -2.2741 -4.70194 0
M  V30 14420 H 1383.52 -1.54826 -2.5626 0
M  V30 14421 H 1381.07 -0.745886 -1.23177 0
M  V30 14422 H 1383.02 0.250654 -4.20654 0
M  V30 14423 H 1381.75 0.891638 -3.14193 0
M  V30 14424 H 1380.41 -1.21732 -3.45799 0
M  V30 14425 H 1380.05 0.73932 -4.97537 0
M  V30 14426 H 1379.75 -0.79949 -5.82136 0
M  V30 14427 H 1381.28 0.0886344 -6.10536 0
M  V30 14428 H 1382.69 -2.05433 -5.35229 0
M  V30 14429 H 1381.09 -2.84265 -5.28501 0
M  V30 14430 H 1382.16 -2.91708 -3.87342 0
M  V30 14431 N 1383.5 1.34231 -0.825823 0
M  V30 14432 C 1384.75 1.98196 -0.415276 0
M  V30 14433 C 1385.08 1.65463 1.02236 0
M  V30 14434 O 1384.33 0.919868 1.72734 0
M  V30 14435 C 1384.63 3.52861 -0.56778 0
M  V30 14436 C 1384.3 4.05512 -1.97157 0
M  V30 14437 C 1382.96 4.19602 -2.35557 0
M  V30 14438 C 1385.31 4.33798 -2.88909 0
M  V30 14439 C 1382.64 4.59307 -3.6504 0
M  V30 14440 C 1384.99 4.74949 -4.17859 0
M  V30 14441 C 1383.65 4.87245 -4.56233 0
M  V30 14442 H 1382.92 0.725251 -0.15196 0
M  V30 14443 H 1385.57 1.60126 -1.05033 0
M  V30 14444 H 1383.88 3.9151 0.15065 0
M  V30 14445 H 1385.57 4.00336 -0.230608 0
M  V30 14446 H 1382.16 3.9501 -1.66328 0
M  V30 14447 H 1386.35 4.22448 -2.60483 0
M  V30 14448 H 1381.6 4.67017 -3.94594 0
M  V30 14449 H 1385.78 4.95795 -4.8904 0
M  V30 14450 H 1383.4 5.17768 -5.56615 0
M  V30 14451 N 1384.98 0.581051 1.46498 0
M  V30 14452 C 1386.23 0.0660934 2.02692 0
M  V30 14453 C 1386.56 -1.28985 1.45178 0
M  V30 14454 O 1385.83 -1.84479 0.616247 0
M  V30 14455 C 1386.12 -0.00145411 3.601 0
M  V30 14456 C 1385.97 1.38327 4.28002 0
M  V30 14457 C 1387.29 -0.702914 4.3445 0
M  V30 14458 H 1384.41 0.0254923 0.736559 0
M  V30 14459 H 1387.05 0.74793 1.7466 0
M  V30 14460 H 1385.2 -0.582118 3.84114 0
M  V30 14461 H 1386.87 2.00897 4.15257 0
M  V30 14462 H 1385.11 1.95144 3.87429 0
M  V30 14463 H 1385.79 1.28849 5.36751 0
M  V30 14464 H 1388.26 -0.209641 4.15572 0
M  V30 14465 H 1387.14 -0.719202 5.44168 0
M  V30 14466 H 1387.4 -1.76389 4.05388 0
M  V30 14467 N 1386.46 -1.54343 0.318742 0
M  V30 14468 C 1387.39 -2.27118 -0.542206 0
M  V30 14469 C 1388.37 -1.27731 -1.12334 0
M  V30 14470 O 1389.55 -1.56535 -1.14937 0
M  V30 14471 C 1386.68 -3.02535 -1.70558 0
M  V30 14472 C 1385.64 -4.09218 -1.25398 0
M  V30 14473 C 1384.96 -4.72449 -2.50391 0
M  V30 14474 C 1386.26 -5.20971 -0.372332 0
M  V30 14475 H 1387.96 -2.9933 0.0648226 0
M  V30 14476 H 1385.5 -1.43963 0.0326168 0
M  V30 14477 H 1387.46 -3.52174 -2.31412 0
M  V30 14478 H 1386.18 -2.27931 -2.33912 0
M  V30 14479 H 1384.84 -3.60455 -0.668392 0
M  V30 14480 H 1384.49 -3.94466 -3.12099 0
M  V30 14481 H 1384.19 -5.4451 -2.20868 0
M  V30 14482 H 1385.71 -5.2486 -3.12016 0
M  V30 14483 H 1387.13 -5.66396 -0.887029 0
M  V30 14484 H 1385.52 -5.99859 -0.17009 0
M  V30 14485 H 1386.59 -4.81198 0.598064 0
M  V30 14486 N 1387.94 -0.0468143 -1.5753 0
M  V30 14487 C 1388.87 0.927092 -2.14306 0
M  V30 14488 C 1389.85 1.32745 -1.06362 0
M  V30 14489 O 1391.03 1.40293 -1.34281 0
M  V30 14490 C 1388.16 2.20343 -2.68452 0
M  V30 14491 C 1387.12 1.94328 -3.81341 0
M  V30 14492 C 1386.44 3.28379 -4.21985 0
M  V30 14493 C 1387.74 1.26835 -5.06666 0
M  V30 14494 H 1389.44 0.454199 -2.95935 0
M  V30 14495 H 1386.98 0.217029 -1.42355 0
M  V30 14496 H 1388.93 2.8887 -3.0681 0
M  V30 14497 H 1387.66 2.6983 -1.84009 0
M  V30 14498 H 1386.32 1.28214 -3.43448 0
M  V30 14499 H 1385.97 3.75658 -3.34499 0
M  V30 14500 H 1385.67 3.11772 -4.98068 0
M  V30 14501 H 1387.19 3.98145 -4.6294 0
M  V30 14502 H 1388.6 1.85389 -5.42498 0
M  V30 14503 H 1387 1.20569 -5.87863 0
M  V30 14504 H 1388.07 0.243759 -4.84287 0
M  V30 14505 N 1389.41 1.55964 0.226527 0
M  V30 14506 C 1390.64 1.82823 0.968673 0
M  V30 14507 C 1391.06 0.625281 1.78145 0
M  V30 14508 O 1390.41 -0.40617 1.77923 0
M  V30 14509 C 1390.47 3.08143 1.89024 0
M  V30 14510 O 1390.19 4.23797 1.11032 0
M  V30 14511 C 1391.69 3.47954 2.74669 0
M  V30 14512 H 1388.91 0.607876 0.284126 0
M  V30 14513 H 1391.45 2.03048 0.243258 0
M  V30 14514 H 1389.61 2.89908 2.56967 0
M  V30 14515 H 1390.02 4.94957 1.73546 0
M  V30 14516 H 1391.49 4.38691 3.35044 0
M  V30 14517 H 1391.97 2.69476 3.46813 0
M  V30 14518 H 1392.58 3.6861 2.12147 0
M  V30 14519 N 1390.89 -0.493031 1.4969 0
M  V30 14520 C 1391.82 -1.61058 1.63074 0
M  V30 14521 C 1392.84 -1.54504 0.513069 0
M  V30 14522 O 1394.03 -1.60291 0.785431 0
M  V30 14523 C 1391.13 -2.99877 1.57883 0
M  V30 14524 C 1390.3 -3.31531 2.85317 0
M  V30 14525 C 1389.36 -4.49799 2.7307 0
M  V30 14526 O 1388.38 -4.51189 3.47012 0
M  V30 14527 N 1389.59 -5.50182 1.85148 0
M  V30 14528 H 1392.35 -1.5 2.59461 0
M  V30 14529 H 1389.91 -0.681057 1.46878 0
M  V30 14530 H 1391.9 -3.76928 1.47333 0
M  V30 14531 H 1390.47 -3.04817 0.693218 0
M  V30 14532 H 1389.69 -2.433 3.10159 0
M  V30 14533 H 1390.98 -3.49481 3.69784 0
M  V30 14534 H 1390.38 -5.51865 1.24345 0
M  V30 14535 H 1388.94 -6.26305 1.80516 0
M  V30 14536 N 1392.37 -1.38898 -0.744656 0
M  V30 14537 C 1393.3 -1.39571 -1.87195 0
M  V30 14538 C 1394.28 -0.260372 -1.68095 0
M  V30 14539 O 1395.47 -0.464776 -1.88556 0
M  V30 14540 C 1392.6 -1.22889 -3.24832 0
M  V30 14541 C 1391.55 -2.33721 -3.58551 0
M  V30 14542 C 1390.88 -2.02136 -4.9502 0
M  V30 14543 C 1392.18 -3.7601 -3.62511 0
M  V30 14544 H 1393.87 -2.33908 -1.86889 0
M  V30 14545 H 1391.42 -1.12591 -0.897739 0
M  V30 14546 H 1393.37 -1.21983 -4.03359 0
M  V30 14547 H 1392.09 -0.250172 -3.2564 0
M  V30 14548 H 1390.75 -2.33828 -2.82348 0
M  V30 14549 H 1390.4 -1.02726 -4.92399 0
M  V30 14550 H 1390.1 -2.76371 -5.18549 0
M  V30 14551 H 1391.62 -2.02864 -5.75915 0
M  V30 14552 H 1393.04 -3.77885 -4.31133 0
M  V30 14553 H 1391.44 -4.49524 -3.97553 0
M  V30 14554 H 1392.51 -4.07682 -2.62533 0
M  V30 14555 N 1393.85 0.973806 -1.23914 0
M  V30 14556 C 1394.78 2.08526 -1.05068 0
M  V30 14557 C 1395.76 1.70065 0.0344761 0
M  V30 14558 O 1396.94 1.93755 -0.131432 0
M  V30 14559 C 1394.07 3.41198 -0.648165 0
M  V30 14560 C 1393.03 3.9359 -1.6814 0
M  V30 14561 C 1392.35 5.22534 -1.13414 0
M  V30 14562 C 1393.65 4.22116 -3.07597 0
M  V30 14563 H 1395.35 2.24551 -1.98034 0
M  V30 14564 H 1392.89 1.07905 -0.953546 0
M  V30 14565 H 1394.85 4.18383 -0.50334 0
M  V30 14566 H 1393.57 3.25056 0.317182 0
M  V30 14567 H 1392.23 3.18555 -1.81434 0
M  V30 14568 H 1391.88 5.02747 -0.159578 0
M  V30 14569 H 1391.58 5.58555 -1.82456 0
M  V30 14570 H 1393.1 6.02334 -1.0013 0
M  V30 14571 H 1394.52 4.90027 -2.97567 0
M  V30 14572 H 1392.91 4.69352 -3.73937 0
M  V30 14573 H 1393.98 3.29128 -3.56094 0
M  V30 14574 N 1395.33 1.05191 1.17357 0
M  V30 14575 C 1396.27 0.652868 2.21374 0
M  V30 14576 C 1397.24 -0.344974 1.62478 0
M  V30 14577 O 1398.43 -0.23639 1.8933 0
M  V30 14578 C 1395.57 0.0337737 3.45083 0
M  V30 14579 C 1394.68 1.08045 4.18271 0
M  V30 14580 C 1393.82 0.428673 5.29468 0
M  V30 14581 C 1392.86 1.45966 5.94441 0
M  V30 14582 N 1391.99 0.832042 6.97152 0
M  V30 14583 H 1396.83 1.54434 2.54861 0
M  V30 14584 H 1394.37 0.772365 1.25192 0
M  V30 14585 H 1396.33 -0.342607 4.15791 0
M  V30 14586 H 1394.96 -0.821159 3.12181 0
M  V30 14587 H 1394.01 1.57466 3.46278 0
M  V30 14588 H 1395.32 1.86305 4.62701 0
M  V30 14589 H 1394.48 -0.00129344 6.067 0
M  V30 14590 H 1393.21 -0.385919 4.86171 0
M  V30 14591 H 1392.22 1.89964 5.1594 0
M  V30 14592 H 1393.44 2.27615 6.39819 0
M  V30 14593 H 1391.39 0.0379612 6.55989 0
M  V30 14594 H 1391.31 1.55219 7.39894 0
M  V30 14595 H 1392.58 0.42685 7.7833 0
M  V30 14596 N 1396.8 -1.33791 0.83293 0
M  V30 14597 C 1397.75 -2.29332 0.25989 0
M  V30 14598 C 1398.72 -1.54056 -0.620965 0
M  V30 14599 O 1399.91 -1.82382 -0.560492 0
M  V30 14600 C 1397.05 -3.40461 -0.563964 0
M  V30 14601 C 1396.16 -4.30658 0.34025 0
M  V30 14602 C 1395.29 -5.28897 -0.494134 0
M  V30 14603 C 1394.33 -6.10733 0.408842 0
M  V30 14604 N 1393.47 -7.01032 -0.38706 0
M  V30 14605 H 1398.31 -2.77743 1.07996 0
M  V30 14606 H 1395.85 -1.3667 0.544043 0
M  V30 14607 H 1397.81 -4.03587 -1.05704 0
M  V30 14608 H 1396.44 -2.93258 -1.34905 0
M  V30 14609 H 1395.49 -3.68305 0.9516 0
M  V30 14610 H 1396.8 -4.87962 1.03415 0
M  V30 14611 H 1395.95 -5.97522 -1.05128 0
M  V30 14612 H 1394.69 -4.72155 -1.2215 0
M  V30 14613 H 1393.7 -5.41031 0.978046 0
M  V30 14614 H 1394.92 -6.69557 1.13448 0
M  V30 14615 H 1392.87 -6.46747 -1.09792 0
M  V30 14616 H 1392.79 -7.55592 0.248249 0
M  V30 14617 H 1394.05 -7.73973 -0.926631 0
M  V30 14618 N 1398.28 -0.588812 -1.46187 0
M  V30 14619 C 1399.22 0.189417 -2.27413 0
M  V30 14620 C 1400.19 0.891224 -1.36 0
M  V30 14621 O 1401.38 0.903883 -1.65415 0
M  V30 14622 C 1398.5 1.27233 -3.13894 0
M  V30 14623 C 1397.55 0.675705 -4.21113 0
M  V30 14624 S 1398.38 -0.502093 -5.33141 0
M  V30 14625 C 1399.54 0.581875 -6.23189 0
M  V30 14626 H 1399.77 -0.499754 -2.9307 0
M  V30 14627 H 1397.31 -0.375854 -1.49755 0
M  V30 14628 H 1399.26 1.89233 -3.64282 0
M  V30 14629 H 1397.92 1.93348 -2.47538 0
M  V30 14630 H 1397.12 1.48991 -4.81475 0
M  V30 14631 H 1396.72 0.131249 -3.7377 0
M  V30 14632 H 1399.01 1.46594 -6.6145 0
M  V30 14633 H 1399.95 0.0148739 -7.08098 0
M  V30 14634 H 1400.36 0.888764 -5.5746 0
M  V30 14635 N 1399.76 1.54172 -0.326923 0
M  V30 14636 C 1401.01 2.00233 0.274098 0
M  V30 14637 C 1401.33 1.21665 1.5239 0
M  V30 14638 O 1400.6 0.319359 1.93279 0
M  V30 14639 H 1399.18 0.739687 0.104271 0
M  V30 14640 H 1401.84 1.8977 -0.444244 0
M  V30 14641 H 1400.94 3.07599 0.528154 0
M  V30 14642 N 1401.24 0.0551678 1.57503 0
M  V30 14643 C 1402.2 -0.903065 2.10659 0
M  V30 14644 C 1403.2 -1.23728 1.02703 0
M  V30 14645 O 1404.39 -1.17331 1.2876 0
M  V30 14646 C 1401.52 -2.21171 2.59415 0
M  V30 14647 H 1402.72 -0.442197 2.96622 0
M  V30 14648 H 1400.27 -0.193297 1.551 0
M  V30 14649 H 1401 -2.71831 1.76858 0
M  V30 14650 H 1400.79 -1.98216 3.38309 0
M  V30 14651 H 1402.28 -2.89802 3.00674 0
M  V30 14652 N 1402.72 -1.56081 -0.218252 0
M  V30 14653 C 1403.99 -1.70043 -0.966684 0
M  V30 14654 C 1404.37 -0.603372 -2.02293 0
M  V30 14655 O 1403.72 0.389138 -2.25162 0
M  V30 14656 C 1403.93 -3.11484 -1.57413 0
M  V30 14657 C 1405.28 -3.70995 -2.06513 0
M  V30 14658 O 1406.3 -3.14466 -1.67301 0
M  V30 14659 O 1405.16 -4.70156 -2.78596 0
M  V30 14660 H 1402.26 -0.692691 -0.451784 0
M  V30 14661 H 1404.8 -1.68398 -0.209774 0
M  V30 14662 H 1403.57 -3.8279 -0.811614 0
M  V30 14663 H 1403.2 -3.1726 -2.3965 0
M  V30 14664 N 1404.2 0.485086 -1.49949 0
M  V30 14665 C 1405.13 1.59312 -1.7071 0
M  V30 14666 C 1406.11 1.6076 -0.555896 0
M  V30 14667 O 1407.29 1.77249 -0.793504 0
M  V30 14668 C 1404.42 2.97718 -1.78834 0
M  V30 14669 C 1403.38 3.11136 -2.93902 0
M  V30 14670 C 1402.7 4.51051 -2.87154 0
M  V30 14671 C 1404 2.89665 -4.34617 0
M  V30 14672 H 1405.7 1.42192 -2.6348 0
M  V30 14673 H 1403.24 0.68262 -1.26792 0
M  V30 14674 H 1405.19 3.75148 -1.91943 0
M  V30 14675 H 1403.92 3.15963 -0.826744 0
M  V30 14676 H 1402.58 2.36135 -2.80421 0
M  V30 14677 H 1402.23 4.66195 -1.88869 0
M  V30 14678 H 1401.93 4.60967 -3.64394 0
M  V30 14679 H 1403.45 5.3052 -3.02293 0
M  V30 14680 H 1404.86 3.56853 -4.48697 0
M  V30 14681 H 1403.26 3.11039 -5.13201 0
M  V30 14682 H 1404.33 1.85642 -4.47956 0
M  V30 14683 N 1405.67 1.39291 0.737279 0
M  V30 14684 C 1406.6 1.40562 1.86452 0
M  V30 14685 C 1407.58 0.269283 1.67955 0
M  V30 14686 O 1408.77 0.474769 1.88307 0
M  V30 14687 C 1405.9 1.2461 3.24175 0
M  V30 14688 C 1404.85 2.35619 3.57306 0
M  V30 14689 C 1404.18 2.04758 4.93941 0
M  V30 14690 C 1405.48 3.77927 3.60512 0
M  V30 14691 H 1407.17 2.34896 1.85646 0
M  V30 14692 H 1404.72 1.13065 0.891756 0
M  V30 14693 H 1406.67 1.2412 4.02706 0
M  V30 14694 H 1405.4 0.267438 3.25503 0
M  V30 14695 H 1404.06 2.35322 2.81104 0
M  V30 14696 H 1403.7 1.05336 4.91847 0
M  V30 14697 H 1403.4 2.79117 5.17076 0
M  V30 14698 H 1404.93 2.05915 5.74832 0
M  V30 14699 H 1406.34 3.80166 4.29123 0
M  V30 14700 H 1404.74 4.51626 3.95164 0
M  V30 14701 H 1405.81 4.09068 2.60368 0
M  V30 14702 N 1407.15 -0.967221 1.24429 0
M  V30 14703 C 1408.4 -1.70688 1.08213 0
M  V30 14704 C 1408.72 -1.91268 -0.379693 0
M  V30 14705 O 1407.99 -1.49077 -1.27094 0
M  V30 14706 H 1406.57 -0.632489 0.39745 0
M  V30 14707 H 1409.23 -1.16356 1.56356 0
M  V30 14708 H 1408.33 -2.69119 1.58055 0
M  V30 14709 N 1408.63 -1.05812 -1.16797 0
M  V30 14710 C 1409.85 -0.792518 -1.91661 0
M  V30 14711 C 1410.28 0.646598 -1.76637 0
M  V30 14712 O 1409.64 1.44998 -1.08836 0
M  V30 14713 C 1409.69 -1.18585 -3.40544 0
M  V30 14714 O 1408.79 -0.321716 -4.11143 0
M  V30 14715 H 1408.13 -0.290066 -0.597292 0
M  V30 14716 H 1410.66 -1.41263 -1.48007 0
M  V30 14717 H 1410.67 -1.1553 -3.91301 0
M  V30 14718 H 1409.35 -2.23413 -3.50798 0
M  V30 14719 H 1407.92 -0.413403 -3.70601 0
M  V30 14720 N 1410.11 1.33347 -0.840014 0
M  V30 14721 C 1411.35 1.98037 -0.43692 0
M  V30 14722 C 1411.69 1.66382 1.00154 0
M  V30 14723 O 1410.96 0.944311 1.70038 0
M  V30 14724 C 1411.24 3.54012 -0.65937 0
M  V30 14725 C 1411.1 3.9535 -2.14518 0
M  V30 14726 C 1412.42 4.39972 -0.106258 0
M  V30 14727 H 1409.54 0.719373 -0.160221 0
M  V30 14728 H 1412.18 1.57969 -1.05574 0
M  V30 14729 H 1410.33 3.88274 -0.132633 0
M  V30 14730 H 1412 3.7134 -2.73687 0
M  V30 14731 H 1410.24 3.4504 -2.62926 0
M  V30 14732 H 1410.91 5.03992 -2.25158 0
M  V30 14733 H 1413.39 4.12362 -0.556511 0
M  V30 14734 H 1412.27 5.48125 -0.291583 0
M  V30 14735 H 1412.53 4.30872 0.990032 0
M  V30 14736 N 1411.59 0.596556 1.45873 0
M  V30 14737 C 1412.52 -0.166704 2.28593 0
M  V30 14738 C 1413.53 -0.84231 1.39316 0
M  V30 14739 O 1414.72 -0.709548 1.63792 0
M  V30 14740 C 1411.82 -1.25641 3.1475 0
M  V30 14741 C 1410.99 -0.67006 4.32237 0
M  V30 14742 C 1410.05 -1.64924 4.99686 0
M  V30 14743 O 1409.08 -1.17986 5.56838 0
M  V30 14744 N 1410.28 -2.98355 4.9796 0
M  V30 14745 H 1413.04 0.543045 2.94739 0
M  V30 14746 H 1410.61 0.435274 1.55939 0
M  V30 14747 H 1412.6 -1.91104 3.56737 0
M  V30 14748 H 1411.17 -1.86883 2.50586 0
M  V30 14749 H 1410.39 0.162375 3.93865 0
M  V30 14750 H 1411.68 -0.258345 5.08144 0
M  V30 14751 H 1411.07 -3.39101 4.52799 0
M  V30 14752 H 1409.63 -3.5927 5.43846 0
M  V30 14753 N 1413.06 -1.53996 0.335095 0
M  V30 14754 C 1414.03 -2.23385 -0.513015 0
M  V30 14755 C 1415.03 -1.23117 -1.03435 0
M  V30 14756 O 1416.22 -1.47616 -0.924944 0
M  V30 14757 C 1413.35 -2.94691 -1.71377 0
M  V30 14758 H 1414.54 -2.99753 0.0937306 0
M  V30 14759 H 1412.09 -1.56061 0.086326 0
M  V30 14760 H 1412.83 -2.22488 -2.35944 0
M  V30 14761 H 1412.61 -3.68228 -1.34723 0
M  V30 14762 H 1414.1 -3.47525 -2.31552 0
M  V30 14763 N 1414.54 -0.0635198 -1.57472 0
M  V30 14764 C 1415.49 0.906604 -2.12248 0
M  V30 14765 C 1416.46 1.30078 -1.0329 0
M  V30 14766 O 1417.64 1.38809 -1.30907 0
M  V30 14767 C 1414.78 2.1718 -2.68192 0
M  V30 14768 C 1413.9 1.831 -3.91278 0
M  V30 14769 C 1413.03 3.0417 -4.35493 0
M  V30 14770 C 1412.07 2.66069 -5.51248 0
M  V30 14771 N 1411.21 3.79871 -5.9046 0
M  V30 14772 H 1416.05 0.432606 -2.94843 0
M  V30 14773 H 1413.58 0.201895 -1.45708 0
M  V30 14774 H 1415.54 2.91231 -2.98732 0
M  V30 14775 H 1414.17 2.62135 -1.88375 0
M  V30 14776 H 1413.22 0.991473 -3.67252 0
M  V30 14777 H 1414.54 1.51063 -4.75375 0
M  V30 14778 H 1413.69 3.86507 -4.6765 0
M  V30 14779 H 1412.43 3.39395 -3.50232 0
M  V30 14780 H 1411.43 1.82151 -5.1875 0
M  V30 14781 H 1412.66 2.32023 -6.38234 0
M  V30 14782 H 1410.61 4.14873 -5.0815 0
M  V30 14783 H 1410.52 3.51573 -6.69277 0
M  V30 14784 H 1411.79 4.62811 -6.27237 0
M  V30 14785 N 1416.02 1.56195 0.209972 0
M  V30 14786 C 1417.27 1.80011 0.93402 0
M  V30 14787 C 1417.6 0.635109 1.83521 0
M  V30 14788 O 1416.87 -0.365099 1.91043 0
M  V30 14789 C 1417.16 3.13989 1.76304 0
M  V30 14790 C 1417.01 4.40956 0.887567 0
M  V30 14791 C 1418.33 3.44514 2.73857 0
M  V30 14792 H 1415.45 0.654859 0.338125 0
M  V30 14793 H 1418.09 1.88921 0.20221 0
M  V30 14794 H 1416.24 3.06524 2.38695 0
M  V30 14795 H 1417.91 4.60452 0.279507 0
M  V30 14796 H 1416.15 4.33368 0.193533 0
M  V30 14797 H 1416.83 5.31164 1.50228 0
M  V30 14798 H 1419.3 3.52182 2.216 0
M  V30 14799 H 1418.18 4.39407 3.28957 0
M  V30 14800 H 1418.44 2.6726 3.52171 0
M  V30 14801 N 1417.5 -0.477127 1.50204 0
M  V30 14802 C 1418.43 -1.59319 1.64773 0
M  V30 14803 C 1419.44 -1.53951 0.529427 0
M  V30 14804 O 1420.63 -1.59449 0.802388 0
M  V30 14805 C 1417.73 -2.98185 1.61055 0
M  V30 14806 C 1416.9 -3.28486 2.88817 0
M  V30 14807 C 1415.96 -4.46878 2.77825 0
M  V30 14808 O 1414.99 -4.47483 3.51778 0
M  V30 14809 N 1416.19 -5.48187 1.90974 0
M  V30 14810 H 1418.96 -1.4724 2.61037 0
M  V30 14811 H 1416.52 -0.66544 1.47592 0
M  V30 14812 H 1418.51 -3.75345 1.51323 0
M  V30 14813 H 1417.08 -3.04064 0.725509 0
M  V30 14814 H 1416.3 -2.39997 3.12722 0
M  V30 14815 H 1417.59 -3.4554 3.7347 0
M  V30 14816 H 1416.99 -5.50515 1.30192 0
M  V30 14817 H 1415.54 -6.24355 1.87148 0
M  V30 14818 N 1418.98 -1.3968 -0.729882 0
M  V30 14819 C 1419.92 -1.38808 -1.84393 0
M  V30 14820 C 1420.89 -0.247035 -1.64253 0
M  V30 14821 O 1422.08 -0.44293 -1.85588 0
M  V30 14822 C 1419.22 -1.2424 -3.2196 0
M  V30 14823 C 1418.33 -2.47932 -3.53771 0
M  V30 14824 C 1417.47 -2.25913 -4.80767 0
M  V30 14825 C 1416.51 -3.45254 -5.05436 0
M  V30 14826 N 1415.64 -3.2252 -6.23638 0
M  V30 14827 H 1420.48 -2.34038 -1.84473 0
M  V30 14828 H 1418.02 -1.16252 -0.901332 0
M  V30 14829 H 1419.98 -1.13804 -4.01378 0
M  V30 14830 H 1418.61 -0.326375 -3.21146 0
M  V30 14831 H 1417.66 -2.68952 -2.69015 0
M  V30 14832 H 1418.97 -3.36806 -3.67917 0
M  V30 14833 H 1418.13 -2.12748 -5.68175 0
M  V30 14834 H 1416.86 -1.34441 -4.68804 0
M  V30 14835 H 1415.87 -3.58912 -4.16488 0
M  V30 14836 H 1417.09 -4.37634 -5.19282 0
M  V30 14837 H 1415.04 -2.33718 -6.12953 0
M  V30 14838 H 1414.96 -4.04954 -6.38395 0
M  V30 14839 H 1416.23 -3.1306 -7.13872 0
M  V30 14840 N 1420.45 0.960609 -1.2494 0
M  V30 14841 C 1421.42 2.03791 -1.04891 0
M  V30 14842 C 1422.42 1.608 -0.00375792 0
M  V30 14843 O 1423.61 1.72463 -0.24539 0
M  V30 14844 C 1420.74 3.35733 -0.591309 0
M  V30 14845 H 1421.93 2.2301 -2.00516 0
M  V30 14846 H 1419.49 1.13686 -1.07263 0
M  V30 14847 H 1420.22 3.22207 0.367816 0
M  V30 14848 H 1420.01 3.68283 -1.34574 0
M  V30 14849 H 1421.5 4.14921 -0.472283 0
M  V30 14850 N 1421.93 1.0643 1.16234 0
M  V30 14851 C 1422.86 0.697605 2.22836 0
M  V30 14852 C 1423.84 -0.310563 1.67241 0
M  V30 14853 O 1425.03 -0.185385 1.93313 0
M  V30 14854 C 1422.16 0.0847097 3.47197 0
M  V30 14855 C 1421.11 1.019 4.15693 0
M  V30 14856 C 1420.44 0.269339 5.34021 0
M  V30 14857 C 1421.74 2.34861 4.66516 0
M  V30 14858 H 1423.43 1.58883 2.53765 0
M  V30 14859 H 1420.98 0.765388 1.21975 0
M  V30 14860 H 1422.93 -0.1837 4.20999 0
M  V30 14861 H 1421.66 -0.84154 3.15572 0
M  V30 14862 H 1420.31 1.27218 3.43818 0
M  V30 14863 H 1419.96 -0.660072 4.9865 0
M  V30 14864 H 1419.66 0.892001 5.8079 0
M  V30 14865 H 1421.19 0.00850775 6.10599 0
M  V30 14866 H 1422.6 2.13922 5.31893 0
M  V30 14867 H 1421 2.92637 5.23912 0
M  V30 14868 H 1422.07 2.97834 3.82653 0
M  V30 14869 N 1423.41 -1.329 0.847073 0
M  V30 14870 C 1424.69 -1.921 0.368351 0
M  V30 14871 C 1425.07 -1.77205 -1.14724 0
M  V30 14872 O 1424.42 -1.16547 -1.96543 0
M  V30 14873 C 1424.63 -3.39125 0.824326 0
M  V30 14874 C 1425.97 -4.16267 0.837097 0
M  V30 14875 O 1427 -3.47812 0.768466 0
M  V30 14876 O 1425.86 -5.38487 0.932389 0
M  V30 14877 H 1422.95 -0.820187 0.105936 0
M  V30 14878 H 1425.5 -1.41719 0.933471 0
M  V30 14879 H 1424.27 -3.43875 1.86723 0
M  V30 14880 H 1423.89 -3.96898 0.236233 0
M  V30 14881 N 1424.89 -0.604284 -1.45555 0
M  V30 14882 C 1426.13 -0.0983316 -2.02561 0
M  V30 14883 C 1426.47 1.26659 -1.47211 0
M  V30 14884 O 1425.74 1.83476 -0.645519 0
M  V30 14885 C 1426.03 -0.0558349 -3.60057 0
M  V30 14886 C 1425.88 -1.45119 -4.25747 0
M  V30 14887 C 1427.2 0.633708 -4.35514 0
M  V30 14888 H 1424.32 -0.0372071 -0.73606 0
M  V30 14889 H 1426.96 -0.775623 -1.73448 0
M  V30 14890 H 1425.11 0.520935 -3.84992 0
M  V30 14891 H 1426.78 -2.07478 -4.12008 0
M  V30 14892 H 1425.02 -2.01283 -3.84275 0
M  V30 14893 H 1425.69 -1.37372 -5.34633 0
M  V30 14894 H 1428.17 0.143501 -4.15852 0
M  V30 14895 H 1427.05 0.632538 -5.45243 0
M  V30 14896 H 1427.31 1.69917 -4.08143 0
M  V30 14897 N 1426.37 1.53816 -0.343257 0
M  V30 14898 C 1427.59 2.05326 0.254744 0
M  V30 14899 C 1428.01 1.21824 1.44237 0
M  V30 14900 O 1427.37 0.253507 1.80731 0
M  V30 14901 C 1427.42 3.55235 0.670075 0
M  V30 14902 O 1427.14 4.35568 -0.470322 0
M  V30 14903 C 1428.64 4.22915 1.32882 0
M  V30 14904 H 1425.86 0.669191 0.0492324 0
M  V30 14905 H 1428.4 1.98415 -0.495159 0
M  V30 14906 H 1426.56 3.6237 1.36992 0
M  V30 14907 H 1426.97 5.24315 -0.139303 0
M  V30 14908 H 1428.45 5.29197 1.57019 0
M  V30 14909 H 1428.92 3.75244 2.28229 0
M  V30 14910 H 1429.53 4.19973 0.67102 0
M  V30 14911 N 1427.84 0.0718701 1.57436 0
M  V30 14912 C 1429.26 -0.28476 1.57039 0
M  V30 14913 C 1429.46 -1.70032 1.08127 0
M  V30 14914 O 1428.52 -2.41191 0.747189 0
M  V30 14915 C 1429.83 -0.0943482 3.00552 0
M  V30 14916 C 1431.38 -0.163879 3.12571 0
M  V30 14917 C 1431.85 -0.00174658 4.58 0
M  V30 14918 N 1433.34 -0.0573489 4.63164 0
M  V30 14919 C 1434.08 0.0436849 5.73383 0
M  V30 14920 N 1433.57 0.198243 6.92516 0
M  V30 14921 N 1435.37 -0.0133856 5.62098 0
M  V30 14922 H 1427.52 0.99702 1.87545 0
M  V30 14923 H 1429.78 0.388822 0.864593 0
M  V30 14924 H 1429.49 0.882445 3.40449 0
M  V30 14925 H 1429.36 -0.846636 3.67576 0
M  V30 14926 H 1431.75 -1.13116 2.7256 0
M  V30 14927 H 1431.83 0.619513 2.48185 0
M  V30 14928 H 1431.47 0.9623 4.98701 0
M  V30 14929 H 1431.4 -0.804543 5.20418 0
M  V30 14930 H 1433.89 -0.175212 3.77494 0
M  V30 14931 H 1434.21 0.267479 7.72337 0
M  V30 14932 H 1432.55 0.233606 6.94607 0
M  V30 14933 H 1435.74 -0.132835 4.67911 0
M  V30 14934 H 1435.92 0.0688076 6.47963 0
M  V30 14935 N 1429.32 -1.56304 -0.201686 0
M  V30 14936 C 1430.6 -1.71059 -0.948595 0
M  V30 14937 C 1430.98 -0.624794 -2.01642 0
M  V30 14938 O 1430.33 0.365235 -2.25562 0
M  V30 14939 C 1430.54 -3.13136 -1.54101 0
M  V30 14940 C 1431.89 -3.73165 -2.02567 0
M  V30 14941 O 1432.91 -3.16223 -1.63956 0
M  V30 14942 O 1431.77 -4.73084 -2.73594 0
M  V30 14943 H 1428.86 -0.697443 -0.444412 0
M  V30 14944 H 1431.41 -1.68611 -0.191901 0
M  V30 14945 H 1430.18 -3.8363 -0.770968 0
M  V30 14946 H 1429.8 -3.19784 -2.36271 0
M  V30 14947 N 1430.8 0.469154 -1.50455 0
M  V30 14948 C 1432.03 1.24899 -1.65575 0
M  V30 14949 C 1432.45 1.85009 -0.339581 0
M  V30 14950 O 1431.81 1.67376 0.696774 0
M  V30 14951 C 1431.86 2.33205 -2.75041 0
M  V30 14952 O 1430.96 3.37898 -2.36429 0
M  V30 14953 H 1430.3 0.367362 -0.553119 0
M  V30 14954 H 1432.83 0.558083 -1.96842 0
M  V30 14955 H 1432.84 2.78487 -2.98176 0
M  V30 14956 H 1431.52 1.88826 -3.70564 0
M  V30 14957 H 1430.09 2.98314 -2.23748 0
M  V30 14958 N 1432.28 1.40065 0.722464 0
M  V30 14959 C 1433.53 1.3797 1.48224 0
M  V30 14960 C 1433.85 -0.0202588 1.94489 0
M  V30 14961 O 1433.11 -1.0035 1.68013 0
M  V30 14962 C 1433.41 2.30949 2.72759 0
M  V30 14963 C 1433.07 3.7834 2.45295 0
M  V30 14964 C 1431.74 4.18497 2.37515 0
M  V30 14965 C 1434.09 4.71509 2.221 0
M  V30 14966 C 1431.42 5.4987 2.04598 0
M  V30 14967 C 1433.77 6.03173 1.90697 0
M  V30 14968 C 1432.43 6.4238 1.81394 0
M  V30 14969 H 1431.7 0.504869 0.542392 0
M  V30 14970 H 1434.35 1.72667 0.828149 0
M  V30 14971 H 1432.65 1.89413 3.42972 0
M  V30 14972 H 1434.35 2.26615 3.30827 0
M  V30 14973 H 1430.94 3.46519 2.52235 0
M  V30 14974 H 1435.12 4.41308 2.27071 0
M  V30 14975 H 1430.38 5.79157 1.95928 0
M  V30 14976 H 1434.55 6.74886 1.71761 0
M  V30 14977 H 1432.18 7.44094 1.55654 0
M  V30 14978 N 1433.76 -0.95397 1.25448 0
M  V30 14979 C 1435.17 -1.51337 1.09335 0
M  V30 14980 C 1435.52 -1.93393 -0.330698 0
M  V30 14981 O 1434.64 -1.78681 -1.22074 0
M  V30 14982 C 1435.24 -2.75024 1.97857 0
M  V30 14983 C 1433.8 -3.27274 1.85927 0
M  V30 14984 C 1432.95 -2.00108 1.91969 0
M  V30 14985 H 1435.9 -0.770795 1.38724 0
M  V30 14986 H 1435.92 -3.48867 1.51894 0
M  V30 14987 H 1435.43 -2.44383 3.01494 0
M  V30 14988 H 1433.53 -3.62734 0.851767 0
M  V30 14989 H 1433.64 -3.95245 2.70773 0
M  V30 14990 H 1432.01 -2.15438 1.35862 0
M  V30 14991 H 1432.79 -1.71816 2.97211 0
M  V30 14992 N 1435.24 -1.07045 -1.15668 0
M  V30 14993 C 1436.48 -0.791735 -1.86381 0
M  V30 14994 C 1436.81 0.682084 -1.82148 0
M  V30 14995 O 1436.07 1.51617 -1.23737 0
M  V30 14996 C 1436.36 -1.24127 -3.35153 0
M  V30 14997 C 1436.03 -2.72051 -3.59582 0
M  V30 14998 C 1434.69 -3.12455 -3.65958 0
M  V30 14999 C 1437.04 -3.67547 -3.69538 0
M  V30 15000 C 1434.37 -4.4718 -3.79799 0
M  V30 15001 C 1436.72 -5.02029 -3.84902 0
M  V30 15002 C 1435.39 -5.42059 -3.89523 0
M  V30 15003 H 1434.66 -0.289717 -0.682016 0
M  V30 15004 H 1437.31 -1.34091 -1.36718 0
M  V30 15005 H 1435.61 -0.611428 -3.87 0
M  V30 15006 H 1437.31 -1.00256 -3.88265 0
M  V30 15007 H 1433.9 -2.39771 -3.55257 0
M  V30 15008 H 1438.08 -3.3746 -3.63915 0
M  V30 15009 H 1433.34 -4.77668 -3.81632 0
M  V30 15010 H 1437.51 -5.75902 -3.91548 0
M  V30 15011 H 1435.14 -6.46455 -4 0
M  V30 15012 N 1436.71 1.32449 -0.85411 0
M  V30 15013 C 1437.99 1.91902 -0.378533 0
M  V30 15014 C 1438.37 1.77811 1.13782 0
M  V30 15015 O 1437.72 1.17588 1.95922 0
M  V30 15016 C 1437.93 3.38683 -0.842299 0
M  V30 15017 C 1439.28 4.15817 -0.859161 0
M  V30 15018 O 1440.3 3.47399 -0.786901 0
M  V30 15019 O 1439.16 5.37985 -0.960933 0
M  V30 15020 H 1436.25 0.819614 -0.110284 0
M  V30 15021 H 1438.8 1.41222 -0.940974 0
M  V30 15022 H 1437.57 3.4288 -1.88544 0
M  V30 15023 H 1437.19 3.96767 -0.257278 0
M  V30 15024 N 1438.19 0.611994 1.45232 0
M  V30 15025 C 1439.12 -0.142449 2.28757 0
M  V30 15026 C 1440.14 -0.827486 1.40202 0
M  V30 15027 O 1441.33 -0.692136 1.64535 0
M  V30 15028 C 1438.43 -1.22296 3.16065 0
M  V30 15029 C 1437.6 -0.624178 4.32924 0
M  V30 15030 C 1436.66 -1.59615 5.01408 0
M  V30 15031 O 1435.68 -1.12073 5.58058 0
M  V30 15032 N 1436.89 -2.93057 5.01097 0
M  V30 15033 H 1439.65 0.574276 2.94147 0
M  V30 15034 H 1437.21 0.451789 1.55469 0
M  V30 15035 H 1439.2 -1.87309 3.58744 0
M  V30 15036 H 1437.77 -1.84215 2.52554 0
M  V30 15037 H 1436.99 0.204141 3.93671 0
M  V30 15038 H 1438.28 -0.204435 5.08389 0
M  V30 15039 H 1437.68 -3.3428 4.5637 0
M  V30 15040 H 1436.24 -3.53481 5.47626 0
M  V30 15041 N 1439.67 -1.53632 0.351409 0
M  V30 15042 C 1440.6 -2.2284 -0.536204 0
M  V30 15043 C 1441.61 -1.23765 -1.05764 0
M  V30 15044 O 1442.8 -1.50073 -0.966449 0
M  V30 15045 C 1439.9 -2.9013 -1.75151 0
M  V30 15046 C 1439.08 -4.15588 -1.36401 0
M  V30 15047 C 1438.14 -4.66217 -2.43984 0
M  V30 15048 O 1437.16 -5.3024 -2.06964 0
M  V30 15049 N 1438.36 -4.42817 -3.75358 0
M  V30 15050 H 1441.13 -2.99647 0.0565368 0
M  V30 15051 H 1438.69 -1.60942 0.175905 0
M  V30 15052 H 1440.68 -3.20913 -2.4657 0
M  V30 15053 H 1439.25 -2.16862 -2.25144 0
M  V30 15054 H 1438.47 -3.91264 -0.480258 0
M  V30 15055 H 1439.76 -4.97179 -1.08121 0
M  V30 15056 H 1439.16 -3.9163 -4.08218 0
M  V30 15057 H 1437.71 -4.78186 -4.42924 0
M  V30 15058 N 1441.15 -0.0802183 -1.57396 0
M  V30 15059 C 1442.39 0.586962 -1.93807 0
M  V30 15060 C 1442.72 1.69107 -0.960887 0
M  V30 15061 O 1441.98 1.95688 0.0220779 0
M  V30 15062 C 1442.28 1.19551 -3.36812 0
M  V30 15063 C 1441.94 0.216701 -4.50379 0
M  V30 15064 C 1440.6 -0.0525552 -4.81171 0
M  V30 15065 C 1442.96 -0.452467 -5.19232 0
M  V30 15066 C 1440.28 -0.997923 -5.78151 0
M  V30 15067 C 1442.64 -1.38621 -6.17225 0
M  V30 15068 C 1441.3 -1.66385 -6.4643 0
M  V30 15069 H 1440.57 0.214785 -0.709189 0
M  V30 15070 H 1443.22 -0.152888 -1.90889 0
M  V30 15071 H 1441.52 2.01129 -3.36236 0
M  V30 15072 H 1443.22 1.71918 -3.62278 0
M  V30 15073 H 1439.81 0.436747 -4.26369 0
M  V30 15074 H 1443.99 -0.257573 -4.95631 0
M  V30 15075 H 1439.25 -1.22019 -5.991 0
M  V30 15076 H 1443.42 -1.91063 -6.69677 0
M  V30 15077 H 1441.05 -2.39799 -7.21388 0
M  V30 15078 N 1442.63 1.56409 0.193394 0
M  V30 15079 C 1443.57 1.95572 1.25914 0
M  V30 15080 C 1444.57 0.841384 1.47028 0
M  V30 15081 O 1445.77 1.0264 1.47868 0
M  V30 15082 H 1442.15 0.621914 0.422761 0
M  V30 15083 H 1444.12 2.84446 0.901827 0
M  V30 15084 C 1442.87 2.31293 2.59613 0
M  V30 15085 H 1442.19 3.16568 2.44182 0
M  V30 15086 H 1443.63 2.62558 3.32926 0
M  V30 15087 C 1442.09 1.14818 3.16731 0
M  V30 15088 O 1442.62 0.424105 3.99455 0
M  V30 15089 N 1440.83 0.924536 2.75501 0
M  V30 15090 H 1440.37 1.51509 2.08334 0
M  V30 15091 H 1440.33 0.147006 3.14056 0
M  V30 15092 N 1444.1 -0.461169 1.50702 0
M  V30 15093 C 1445.35 -1.20934 1.61425 0
M  V30 15094 C 1445.67 -1.92884 0.32481 0
M  V30 15095 O 1446.87 -2.69712 0.311081 0
M  V30 15096 C 1445.33 -2.19797 2.84987 0
M  V30 15097 C 1444.94 -1.53604 4.20844 0
M  V30 15098 C 1446.68 -2.95194 3.05059 0
M  V30 15099 C 1444.59 -2.50811 5.35582 0
M  V30 15100 H 1443.52 -0.455088 0.601174 0
M  V30 15101 H 1446.17 -0.478771 1.77144 0
M  V30 15102 H 1444.55 -2.96187 2.62848 0
M  V30 15103 H 1445.72 -0.829345 4.53275 0
M  V30 15104 H 1444.04 -0.904504 4.06457 0
M  V30 15105 H 1446.64 -3.67965 3.87951 0
M  V30 15106 H 1446.98 -3.5516 2.1718 0
M  V30 15107 H 1447.51 -2.25915 3.27425 0
M  V30 15108 H 1444.25 -1.9557 6.25646 0
M  V30 15109 H 1443.77 -3.19604 5.07556 0
M  V30 15110 H 1445.45 -3.12437 5.66561 0
M  V30 15111 N 1445.58 -1.40446 -0.715026 0
M  V30 15112 C 1446.51 -1.43511 -1.84193 0
M  V30 15113 C 1447.49 -0.295969 -1.67505 0
M  V30 15114 O 1448.68 -0.504667 -1.87528 0
M  V30 15115 C 1445.81 -1.29751 -3.22152 0
M  V30 15116 C 1444.76 -2.41274 -3.53512 0
M  V30 15117 C 1444.09 -2.12591 -4.90621 0
M  V30 15118 C 1445.39 -3.83614 -3.54454 0
M  V30 15119 H 1447.08 -2.37819 -1.81885 0
M  V30 15120 H 1444.63 -1.14469 -0.873655 0
M  V30 15121 H 1446.58 -1.30511 -4.0068 0
M  V30 15122 H 1445.3 -0.319189 -3.25037 0
M  V30 15123 H 1443.96 -2.39764 -2.77324 0
M  V30 15124 H 1443.61 -1.13148 -4.90109 0
M  V30 15125 H 1443.31 -2.87308 -5.1257 0
M  V30 15126 H 1444.84 -2.15034 -5.71483 0
M  V30 15127 H 1446.25 -3.86945 -4.23021 0
M  V30 15128 H 1444.65 -4.57855 -3.87929 0
M  V30 15129 H 1445.72 -4.13159 -2.53827 0
M  V30 15130 N 1447.06 0.947303 -1.25952 0
M  V30 15131 C 1447.99 2.04485 -1.01297 0
M  V30 15132 C 1448.97 1.62488 0.06024 0
M  V30 15133 O 1450.15 1.88326 -0.0809237 0
M  V30 15134 C 1447.28 3.34484 -0.532733 0
M  V30 15135 C 1446.33 3.95449 -1.59758 0
M  V30 15136 S 1447.16 4.30498 -3.18484 0
M  V30 15137 C 1448.32 5.63605 -2.72213 0
M  V30 15138 H 1448.55 2.25084 -1.94228 0
M  V30 15139 H 1446.08 1.0879 -1.09564 0
M  V30 15140 H 1448.04 4.09661 -0.262309 0
M  V30 15141 H 1446.7 3.11839 0.376192 0
M  V30 15142 H 1445.89 4.892 -1.21243 0
M  V30 15143 H 1445.5 3.26781 -1.81907 0
M  V30 15144 H 1447.79 6.42046 -2.16295 0
M  V30 15145 H 1448.73 6.07 -3.64633 0
M  V30 15146 H 1449.14 5.2319 -2.11974 0
M  V30 15147 N 1448.54 1.07657 1.15099 0
M  V30 15148 C 1449.95 0.802696 1.37945 0
M  V30 15149 C 1450.15 -0.591622 1.92619 0
M  V30 15150 O 1449.21 -1.34979 2.13394 0
M  V30 15151 C 1450.52 1.87907 2.34759 0
M  V30 15152 C 1452.07 1.90418 2.48415 0
M  V30 15153 C 1452.55 2.97148 3.48521 0
M  V30 15154 N 1454.04 2.96271 3.56059 0
M  V30 15155 C 1454.77 3.75498 4.33346 0
M  V30 15156 N 1454.27 4.64583 5.1394 0
M  V30 15157 N 1456.06 3.63831 4.28466 0
M  V30 15158 H 1448.21 1.97578 0.779537 0
M  V30 15159 H 1450.48 0.856978 0.405331 0
M  V30 15160 H 1450.18 2.8811 2.01707 0
M  V30 15161 H 1450.06 1.74183 3.34575 0
M  V30 15162 H 1452.44 0.908655 2.80762 0
M  V30 15163 H 1452.52 2.0822 1.48586 0
M  V30 15164 H 1452.17 3.96903 3.16908 0
M  V30 15165 H 1452.1 2.76593 4.48112 0
M  V30 15166 H 1454.59 2.31697 2.98538 0
M  V30 15167 H 1454.9 5.2166 5.70167 0
M  V30 15168 H 1453.25 4.6863 5.13236 0
M  V30 15169 H 1456.44 2.93609 3.6457 0
M  V30 15170 H 1456.61 4.25818 4.8845 0
M  V30 15171 N 1450.02 -1.31994 0.861122 0
M  V30 15172 C 1451.26 -1.97025 0.467678 0
M  V30 15173 C 1451.59 -1.68116 -0.978129 0
M  V30 15174 O 1450.85 -0.965342 -1.70234 0
M  V30 15175 C 1451.15 -3.51232 0.661135 0
M  V30 15176 C 1450.81 -4.00142 2.07839 0
M  V30 15177 C 1449.47 -4.1321 2.466 0
M  V30 15178 C 1451.83 -4.25986 3.00309 0
M  V30 15179 C 1449.15 -4.49467 3.7709 0
M  V30 15180 C 1451.51 -4.63704 4.30304 0
M  V30 15181 C 1450.17 -4.74978 4.68991 0
M  V30 15182 H 1449.44 -0.720967 0.171136 0
M  V30 15183 H 1452.09 -1.57285 1.09242 0
M  V30 15184 H 1450.39 -3.91772 -0.0467947 0
M  V30 15185 H 1452.09 -3.99584 0.336669 0
M  V30 15186 H 1448.68 -3.90461 1.76743 0
M  V30 15187 H 1452.86 -4.15393 2.71592 0
M  V30 15188 H 1448.12 -4.56391 4.06838 0
M  V30 15189 H 1452.29 -4.82654 5.02014 0
M  V30 15190 H 1449.92 -5.02828 5.70147 0
M  V30 15191 N 1451.49 -0.619688 -1.44906 0
M  V30 15192 C 1452.74 -0.117147 -2.0136 0
M  V30 15193 C 1453.06 1.2644 -1.49239 0
M  V30 15194 O 1454.26 1.86034 -1.97747 0
M  V30 15195 C 1452.72 -0.15871 -3.5955 0
M  V30 15196 C 1452.33 -1.54086 -4.20668 0
M  V30 15197 C 1454.07 0.287961 -4.23522 0
M  V30 15198 C 1451.98 -1.53816 -5.71047 0
M  V30 15199 H 1450.91 -0.040028 -0.752937 0
M  V30 15200 H 1453.56 -0.776802 -1.66247 0
M  V30 15201 H 1451.94 0.56783 -3.91908 0
M  V30 15202 H 1453.11 -2.29007 -3.99865 0
M  V30 15203 H 1451.43 -1.93065 -3.68938 0
M  V30 15204 H 1454.03 0.309351 -5.33804 0
M  V30 15205 H 1454.37 1.31305 -3.9505 0
M  V30 15206 H 1454.9 -0.385707 -3.95926 0
M  V30 15207 H 1451.64 -2.54124 -6.04236 0
M  V30 15208 H 1451.16 -0.831708 -5.94006 0
M  V30 15209 H 1452.84 -1.26708 -6.34472 0
M  V30 15210 N 1452.97 1.53444 -0.359552 0
M  V30 15211 C 1454.22 2.01464 0.232366 0
M  V30 15212 C 1454.55 1.24656 1.48911 0
M  V30 15213 O 1453.83 0.338574 1.9153 0
M  V30 15214 C 1454.11 3.56172 0.530403 0
M  V30 15215 C 1453.96 4.43678 -0.739556 0
M  V30 15216 C 1455.28 4.19412 1.33347 0
M  V30 15217 H 1452.4 0.732314 0.0829802 0
M  V30 15218 H 1455.04 1.83752 -0.483253 0
M  V30 15219 H 1453.19 3.71396 1.14004 0
M  V30 15220 H 1454.86 4.40263 -1.37719 0
M  V30 15221 H 1453.11 4.11892 -1.36117 0
M  V30 15222 H 1453.78 5.49856 -0.486062 0
M  V30 15223 H 1456.25 4.07984 0.817816 0
M  V30 15224 H 1455.13 5.277 1.51075 0
M  V30 15225 H 1455.39 3.7508 2.34024 0
M  V30 15226 N 1454.45 0.0885642 1.57351 0
M  V30 15227 C 1455.73 -0.618587 1.85561 0
M  V30 15228 C 1456.11 -1.86753 0.984206 0
M  V30 15229 O 1455.46 -2.28434 0.0548839 0
M  V30 15230 C 1455.67 -0.940222 3.36096 0
M  V30 15231 C 1457.01 -1.30649 4.04 0
M  V30 15232 O 1458.04 -1.03144 3.4094 0
M  V30 15233 O 1456.9 -1.82135 5.15256 0
M  V30 15234 H 1453.99 -0.308881 0.767152 0
M  V30 15235 H 1456.54 0.120767 1.6927 0
M  V30 15236 H 1455.31 -0.0538991 3.91263 0
M  V30 15237 H 1454.93 -1.73577 3.5771 0
M  V30 15238 N 1455.93 -1.56509 -0.185096 0
M  V30 15239 C 1456.86 -1.91878 -1.25361 0
M  V30 15240 C 1457.87 -0.810443 -1.41194 0
M  V30 15241 O 1459.06 -1.08887 -1.41442 0
M  V30 15242 C 1456.16 -2.14433 -2.62434 0
M  V30 15243 C 1455.34 -3.45618 -2.6808 0
M  V30 15244 C 1454.39 -3.57165 -3.86419 0
M  V30 15245 O 1453.42 -4.29904 -3.73056 0
M  V30 15246 N 1454.62 -2.90993 -5.02298 0
M  V30 15247 H 1457.39 -2.84133 -0.953328 0
M  V30 15248 H 1454.95 -1.57498 -0.374955 0
M  V30 15249 H 1456.94 -2.19437 -3.40044 0
M  V30 15250 H 1455.51 -1.28629 -2.84909 0
M  V30 15251 H 1454.73 -3.52394 -1.76669 0
M  V30 15252 H 1456.02 -4.31968 -2.68851 0
M  V30 15253 H 1455.42 -2.31743 -5.16054 0
M  V30 15254 H 1453.97 -3.01611 -5.77819 0
M  V30 15255 N 1457.41 0.45317 -1.50944 0
M  V30 15256 C 1458.63 1.22672 -1.66611 0
M  V30 15257 C 1459.05 1.85398 -0.356814 0
M  V30 15258 O 1458.41 1.70026 0.663122 0
M  V30 15259 C 1458.46 2.32238 -2.77034 0
M  V30 15260 O 1458.18 1.72081 -4.02889 0
M  V30 15261 C 1459.68 3.22802 -3.03832 0
M  V30 15262 H 1456.9 0.370337 -0.559546 0
M  V30 15263 H 1459.44 0.538884 -1.97272 0
M  V30 15264 H 1457.6 2.96765 -2.49017 0
M  V30 15265 H 1458.01 2.4437 -4.64095 0
M  V30 15266 H 1459.49 3.95851 -3.84716 0
M  V30 15267 H 1459.96 3.82636 -2.15608 0
M  V30 15268 H 1460.57 2.63993 -3.33449 0
M  V30 15269 N 1458.88 1.40823 0.707568 0
M  V30 15270 C 1459.82 1.37646 1.83265 0
M  V30 15271 C 1460.83 0.280547 1.60365 0
M  V30 15272 O 1462.02 0.541453 1.7009 0
M  V30 15273 C 1459.12 1.12121 3.19816 0
M  V30 15274 C 1458.29 2.33522 3.69846 0
M  V30 15275 C 1457.35 2.04035 4.85032 0
M  V30 15276 O 1456.38 2.76971 4.97268 0
M  V30 15277 N 1457.58 1.02322 5.71411 0
M  V30 15278 H 1460.34 2.34612 1.86486 0
M  V30 15279 H 1457.9 1.35281 0.889424 0
M  V30 15280 H 1459.9 0.903663 3.94482 0
M  V30 15281 H 1458.47 0.237941 3.11693 0
M  V30 15282 H 1457.69 2.71055 2.86221 0
M  V30 15283 H 1458.97 3.14436 4.00009 0
M  V30 15284 H 1458.37 0.419311 5.64144 0
M  V30 15285 H 1456.93 0.865571 6.46027 0
M  V30 15286 N 1460.36 -0.94061 1.26453 0
M  V30 15287 C 1461.59 -1.72123 1.1481 0
M  V30 15288 C 1462.01 -1.86456 -0.296604 0
M  V30 15289 O 1461.36 -1.37234 -1.20304 0
M  V30 15290 C 1461.41 -3.1277 1.81266 0
M  V30 15291 O 1461.13 -2.99122 3.2009 0
M  V30 15292 C 1462.64 -4.07045 1.75584 0
M  V30 15293 H 1459.86 -0.538908 0.399774 0
M  V30 15294 H 1462.4 -1.17913 1.67083 0
M  V30 15295 H 1460.55 -3.6388 1.32928 0
M  V30 15296 H 1460.97 -3.87946 3.52984 0
M  V30 15297 H 1462.44 -5.03292 2.26719 0
M  V30 15298 H 1462.92 -4.33217 0.722466 0
M  V30 15299 H 1463.53 -3.61855 2.23475 0
M  V30 15300 N 1461.84 -1.08266 -1.14527 0
M  V30 15301 C 1463.25 -0.832702 -1.67102 0
M  V30 15302 C 1463.6 0.640776 -1.85441 0
M  V30 15303 O 1462.73 1.49505 -1.56452 0
M  V30 15304 C 1463.32 -1.50502 -3.03537 0
M  V30 15305 C 1461.88 -1.30234 -3.53152 0
M  V30 15306 C 1461.03 -1.56873 -2.28661 0
M  V30 15307 H 1463.98 -1.24344 -0.986118 0
M  V30 15308 H 1464 -0.931426 -3.68924 0
M  V30 15309 H 1463.51 -2.57741 -2.90157 0
M  V30 15310 H 1461.61 -0.250582 -3.71756 0
M  V30 15311 H 1461.73 -2.02898 -4.34015 0
M  V30 15312 H 1460.09 -0.990214 -2.34663 0
M  V30 15313 H 1460.87 -2.65316 -2.17859 0
M  V30 15314 N 1463.32 1.31536 -0.86811 0
M  V30 15315 C 1464.27 2.30504 -0.311581 0
M  V30 15316 C 1465.26 1.59439 0.572332 0
M  V30 15317 O 1466.47 1.74059 0.458639 0
M  V30 15318 H 1462.84 0.747508 -0.0820745 0
M  V30 15319 H 1464.81 2.74919 -1.16026 0
M  V30 15320 C 1463.56 3.44459 0.473622 0
M  V30 15321 H 1462.89 3.99313 -0.197259 0
M  V30 15322 H 1464.33 4.15829 0.828393 0
M  V30 15323 C 1462.78 2.92929 1.66416 0
M  V30 15324 O 1463.31 2.91543 2.76344 0
M  V30 15325 N 1461.52 2.49154 1.49568 0
M  V30 15326 H 1461.07 2.50481 0.601408 0
M  V30 15327 H 1461.03 2.15032 2.29366 0
M  V30 15328 N 1464.8 0.627364 1.44575 0
M  V30 15329 C 1465.73 -0.066735 2.33405 0
M  V30 15330 C 1466.71 -0.838666 1.47988 0
M  V30 15331 O 1467.89 -0.805296 1.76716 0
M  V30 15332 C 1465.02 -1.05148 3.31 0
M  V30 15333 C 1463.98 -0.391433 4.26206 0
M  V30 15334 C 1463.3 -1.48581 5.13642 0
M  V30 15335 C 1464.6 0.699942 5.17589 0
M  V30 15336 H 1466.3 0.675029 2.91691 0
M  V30 15337 H 1463.84 0.326066 1.4026 0
M  V30 15338 H 1465.8 -1.54576 3.92026 0
M  V30 15339 H 1464.52 -1.82408 2.70915 0
M  V30 15340 H 1463.18 0.0821694 3.66508 0
M  V30 15341 H 1462.83 -2.2492 4.49911 0
M  V30 15342 H 1462.53 -1.04957 5.7815 0
M  V30 15343 H 1464.05 -1.98198 5.77538 0
M  V30 15344 H 1465.47 0.288911 5.72572 0
M  V30 15345 H 1463.86 1.0591 5.9068 0
M  V30 15346 H 1464.93 1.5686 4.58828 0
M  V30 15347 N 1466.28 -1.53251 0.367684 0
M  V30 15348 C 1467.22 -2.258 -0.477802 0
M  V30 15349 C 1468.19 -1.26554 -1.07579 0
M  V30 15350 O 1469.38 -1.5534 -1.10788 0
M  V30 15351 C 1466.52 -3.05216 -1.6105 0
M  V30 15352 C 1465.63 -4.19357 -1.03748 0
M  V30 15353 C 1464.77 -4.86211 -2.13945 0
M  V30 15354 C 1463.8 -5.9238 -1.5412 0
M  V30 15355 N 1462.94 -6.52916 -2.58158 0
M  V30 15356 H 1467.78 -2.97635 0.147367 0
M  V30 15357 H 1465.32 -1.46857 0.084495 0
M  V30 15358 H 1467.28 -3.49536 -2.27772 0
M  V30 15359 H 1465.91 -2.35632 -2.20629 0
M  V30 15360 H 1464.96 -3.79507 -0.260476 0
M  V30 15361 H 1466.27 -4.95645 -0.560105 0
M  V30 15362 H 1465.42 -5.33725 -2.88483 0
M  V30 15363 H 1464.16 -4.09399 -2.65035 0
M  V30 15364 H 1463.17 -5.44225 -0.780968 0
M  V30 15365 H 1464.39 -6.71112 -1.03852 0
M  V30 15366 H 1462.34 -5.78956 -3.08457 0
M  V30 15367 H 1462.26 -7.2475 -2.15113 0
M  V30 15368 H 1463.52 -7.05079 -3.32392 0
M  V30 15369 N 1467.75 -0.0969077 -1.57302 0
M  V30 15370 C 1469 0.567212 -1.94706 0
M  V30 15371 C 1469.33 1.67721 -0.978937 0
M  V30 15372 O 1468.61 1.94496 -0.0123016 0
M  V30 15373 C 1468.89 1.12069 -3.42217 0
M  V30 15374 C 1468.74 0.015615 -4.49797 0
M  V30 15375 C 1470.06 2.0185 -3.91081 0
M  V30 15376 H 1467.18 0.204716 -0.707997 0
M  V30 15377 H 1469.82 -0.167984 -1.89256 0
M  V30 15378 H 1467.97 1.74723 -3.46993 0
M  V30 15379 H 1469.65 -0.61871 -4.57132 0
M  V30 15380 H 1467.89 -0.650529 -4.28895 0
M  V30 15381 H 1468.56 0.443724 -5.50214 0
M  V30 15382 H 1471.04 1.49098 -3.8847 0
M  V30 15383 H 1469.91 2.37502 -4.94858 0
M  V30 15384 H 1470.17 2.93659 -3.3048 0
M  V30 15385 N 1469.23 1.56605 0.176793 0
M  V30 15386 C 1470.18 1.95985 1.21896 0
M  V30 15387 C 1471.15 0.822983 1.44278 0
M  V30 15388 O 1472.33 1.08266 1.57109 0
M  V30 15389 C 1469.47 2.32029 2.55454 0
M  V30 15390 C 1468.59 3.58867 2.40497 0
M  V30 15391 C 1467.72 3.84148 3.66884 0
M  V30 15392 C 1466.76 5.04352 3.46837 0
M  V30 15393 N 1465.9 5.25794 4.6528 0
M  V30 15394 H 1470.74 2.84829 0.876137 0
M  V30 15395 H 1468.27 1.4094 0.421221 0
M  V30 15396 H 1470.23 2.50947 3.33289 0
M  V30 15397 H 1468.86 1.46301 2.87743 0
M  V30 15398 H 1467.91 3.47893 1.53866 0
M  V30 15399 H 1469.23 4.46859 2.21627 0
M  V30 15400 H 1468.38 4.03404 4.53155 0
M  V30 15401 H 1467.12 2.9452 3.88727 0
M  V30 15402 H 1466.12 4.84999 2.58952 0
M  V30 15403 H 1467.35 5.95505 3.26421 0
M  V30 15404 H 1465.3 4.39117 4.87352 0
M  V30 15405 H 1465.21 6.07999 4.49303 0
M  V30 15406 H 1466.48 5.49524 5.5285 0
M  V30 15407 N 1470.71 -0.445159 1.51182 0
M  V30 15408 C 1471.96 -1.19701 1.63705 0
M  V30 15409 C 1472.29 -1.91047 0.348511 0
M  V30 15410 O 1471.56 -1.83264 -0.651497 0
M  V30 15411 C 1471.85 -2.22021 2.83511 0
M  V30 15412 C 1471.7 -1.54809 4.2232 0
M  V30 15413 C 1473.02 -3.23083 2.9884 0
M  V30 15414 H 1470.14 -0.433818 0.595795 0
M  V30 15415 H 1472.78 -0.487276 1.83645 0
M  V30 15416 H 1470.93 -2.82551 2.66641 0
M  V30 15417 H 1472.6 -0.976774 4.5084 0
M  V30 15418 H 1470.84 -0.850596 4.25379 0
M  V30 15419 H 1471.52 -2.29289 5.02126 0
M  V30 15420 H 1473.99 -2.72601 3.14369 0
M  V30 15421 H 1472.87 -3.91978 3.84246 0
M  V30 15422 H 1473.13 -3.88732 2.1057 0
M  V30 15423 N 1472.19 -1.41197 -0.700089 0
M  V30 15424 C 1473.15 -1.42419 -1.79582 0
M  V30 15425 C 1474.15 -0.31551 -1.57674 0
M  V30 15426 O 1475.34 -0.575173 -1.64431 0
M  V30 15427 C 1472.47 -1.23114 -3.17893 0
M  V30 15428 H 1473.67 -2.39956 -1.79892 0
M  V30 15429 H 1471.22 -1.27273 -0.907271 0
M  V30 15430 H 1471.95 -0.263992 -3.23224 0
M  V30 15431 H 1471.74 -2.03437 -3.35195 0
M  V30 15432 H 1473.23 -1.26793 -3.97886 0
M  V30 15433 N 1473.67 0.933891 -1.2695 0
M  V30 15434 C 1474.91 1.67539 -1.1231 0
M  V30 15435 C 1475.23 1.92765 0.331788 0
M  V30 15436 O 1476.43 2.6481 0.598983 0
M  V30 15437 C 1474.89 3.01722 -1.96194 0
M  V30 15438 C 1474.5 2.84216 -3.46302 0
M  V30 15439 C 1476.24 3.79513 -1.90185 0
M  V30 15440 C 1474.15 4.13916 -4.22407 0
M  V30 15441 H 1473.08 0.62839 -0.416704 0
M  V30 15442 H 1475.73 1.03801 -1.5132 0
M  V30 15443 H 1474.11 3.66482 -1.50023 0
M  V30 15444 H 1475.29 2.28261 -4.00292 0
M  V30 15445 H 1473.6 2.1986 -3.53625 0
M  V30 15446 H 1476.2 4.75615 -2.44325 0
M  V30 15447 H 1476.54 4.07019 -0.874129 0
M  V30 15448 H 1477.07 3.21539 -2.34217 0
M  V30 15449 H 1473.81 3.91591 -5.25677 0
M  V30 15450 H 1473.33 4.69558 -3.73196 0
M  V30 15451 H 1475.01 4.82322 -4.31248 0
M  V30 15452 N 1475.14 1.08871 1.13951 0
M  V30 15453 C 1476.07 0.744715 2.21306 0
M  V30 15454 C 1477.05 -0.275019 1.67862 0
M  V30 15455 O 1478.24 -0.144339 1.93663 0
M  V30 15456 C 1475.37 0.158336 3.46939 0
M  V30 15457 C 1474.32 1.10695 4.13438 0
M  V30 15458 C 1473.65 0.382552 5.3333 0
M  V30 15459 C 1474.95 2.44704 4.61429 0
M  V30 15460 H 1476.64 1.6423 2.50337 0
M  V30 15461 H 1474.19 0.791088 1.20324 0
M  V30 15462 H 1476.14 -0.0943587 4.21294 0
M  V30 15463 H 1474.87 -0.774413 3.17286 0
M  V30 15464 H 1473.53 1.34482 3.41043 0
M  V30 15465 H 1473.17 -0.554153 4.99938 0
M  V30 15466 H 1472.87 1.01499 5.78767 0
M  V30 15467 H 1474.4 0.138023 6.10444 0
M  V30 15468 H 1475.81 2.25156 5.27236 0
M  V30 15469 H 1474.21 3.03684 5.17586 0
M  V30 15470 H 1475.28 3.05883 3.76249 0
M  V30 15471 N 1476.62 -1.31073 0.875073 0
M  V30 15472 C 1477.57 -2.28389 0.332718 0
M  V30 15473 C 1478.54 -1.55954 -0.571639 0
M  V30 15474 O 1479.72 -1.84073 -0.502185 0
M  V30 15475 C 1476.86 -3.42083 -0.455364 0
M  V30 15476 C 1475.98 -4.29358 0.477088 0
M  V30 15477 C 1475.11 -5.30201 -0.325619 0
M  V30 15478 C 1474.15 -6.09123 0.602935 0
M  V30 15479 N 1473.29 -7.01909 -0.163836 0
M  V30 15480 H 1478.13 -2.74166 1.16777 0
M  V30 15481 H 1475.66 -1.3487 0.587248 0
M  V30 15482 H 1477.62 -4.06746 -0.928104 0
M  V30 15483 H 1476.25 -2.97402 -1.25507 0
M  V30 15484 H 1475.3 -3.65091 1.06829 0
M  V30 15485 H 1476.62 -4.84425 1.18887 0
M  V30 15486 H 1475.77 -6.00565 -0.860647 0
M  V30 15487 H 1474.51 -4.75802 -1.07067 0
M  V30 15488 H 1473.51 -5.37645 1.14968 0
M  V30 15489 H 1474.74 -6.65609 1.34692 0
M  V30 15490 H 1472.69 -6.49913 -0.891604 0
M  V30 15491 H 1472.6 -7.5442 0.48851 0
M  V30 15492 H 1473.87 -7.76529 -0.679929 0
M  V30 15493 N 1478.1 -0.635022 -1.4424 0
M  V30 15494 C 1479.33 -0.148045 -2.06069 0
M  V30 15495 C 1479.74 1.1842 -1.47558 0
M  V30 15496 O 1479.08 1.73817 -0.594425 0
M  V30 15497 C 1479.14 0.0369593 -3.59481 0
M  V30 15498 C 1478.81 -1.21773 -4.40478 0
M  V30 15499 C 1479.8 -2.14233 -4.73709 0
M  V30 15500 C 1477.49 -1.45423 -4.80788 0
M  V30 15501 C 1479.48 -3.2865 -5.46139 0
M  V30 15502 C 1477.17 -2.60136 -5.52967 0
M  V30 15503 C 1478.17 -3.51576 -5.85562 0
M  V30 15504 O 1477.86 -4.64289 -6.5627 0
M  V30 15505 H 1477.59 -0.0787231 -0.671401 0
M  V30 15506 H 1480.14 -0.870639 -1.86035 0
M  V30 15507 H 1478.37 0.814739 -3.7802 0
M  V30 15508 H 1480.06 0.478984 -4.03064 0
M  V30 15509 H 1480.83 -1.97196 -4.43101 0
M  V30 15510 H 1476.71 -0.751378 -4.54835 0
M  V30 15511 H 1480.25 -4.00043 -5.71499 0
M  V30 15512 H 1476.15 -2.77114 -5.82991 0
M  V30 15513 H 1476.92 -4.6332 -6.74742 0
M  V30 15514 N 1479.58 1.53054 -0.375806 0
M  V30 15515 C 1480.83 2.00584 0.211847 0
M  V30 15516 C 1481.14 1.26692 1.49025 0
M  V30 15517 O 1482.35 1.64863 2.15713 0
M  V30 15518 C 1480.8 3.57345 0.428074 0
M  V30 15519 C 1480.41 4.40125 -0.836299 0
M  V30 15520 C 1482.15 4.13203 0.972825 0
M  V30 15521 C 1480.06 5.88459 -0.589093 0
M  V30 15522 H 1478.99 0.749424 0.0829412 0
M  V30 15523 H 1481.64 1.76666 -0.496126 0
M  V30 15524 H 1480.02 3.77458 1.19756 0
M  V30 15525 H 1481.2 4.31782 -1.60936 0
M  V30 15526 H 1479.51 3.95422 -1.30501 0
M  V30 15527 H 1482.11 5.21669 1.17326 0
M  V30 15528 H 1482.45 3.68441 1.93797 0
M  V30 15529 H 1482.99 3.96928 0.263249 0
M  V30 15530 H 1479.73 6.37517 -1.52485 0
M  V30 15531 H 1479.25 5.99624 0.145285 0
M  V30 15532 H 1480.92 6.46631 -0.218485 0
M  V30 15533 N 1481.06 0.105248 1.57248 0
M  V30 15534 C 1481.97 -0.864007 2.1811 0
M  V30 15535 C 1482.98 -1.30282 1.15337 0
M  V30 15536 O 1484.16 -1.36864 1.4775 0
M  V30 15537 C 1481.22 -2.1014 2.75757 0
M  V30 15538 C 1480.28 -1.71583 3.9352 0
M  V30 15539 C 1479.52 -2.89424 4.48408 0
M  V30 15540 O 1479.74 -4.04449 4.02215 0
M  V30 15541 O 1478.67 -2.67303 5.39289 0
M  V30 15542 H 1482.5 -0.376131 3.01362 0
M  V30 15543 H 1480.09 -0.119643 1.4892 0
M  V30 15544 H 1481.97 -2.82638 3.1256 0
M  V30 15545 H 1480.64 -2.57961 1.95545 0
M  V30 15546 H 1479.55 -0.962347 3.6151 0
M  V30 15547 H 1480.88 -1.28517 4.75126 0
M  V30 15548 N 1482.53 -1.56697 -0.168486 0
M  V30 15549 C 1483.76 -1.86652 -0.904195 0
M  V30 15550 C 1484.18 -0.691906 -1.74912 0
M  V30 15551 O 1483.54 0.358971 -1.77711 0
M  V30 15552 C 1483.59 -3.15043 -1.75442 0
M  V30 15553 O 1482.69 -2.97466 -2.85636 0
M  V30 15554 H 1482.04 -0.613859 -0.253128 0
M  V30 15555 H 1484.57 -2.03927 -0.165773 0
M  V30 15556 H 1484.58 -3.4652 -2.15378 0
M  V30 15557 H 1483.25 -4.00147 -1.13381 0
M  V30 15558 H 1481.83 -2.7735 -2.49262 0
M  V30 15559 N 1484.01 0.437135 -1.51416 0
M  V30 15560 C 1484.94 1.538 -1.75692 0
M  V30 15561 C 1485.92 1.5891 -0.606759 0
M  V30 15562 O 1487.11 1.74635 -0.849492 0
M  V30 15563 C 1484.24 2.91877 -1.88215 0
M  V30 15564 C 1483.19 3.01628 -3.03652 0
M  V30 15565 C 1482.52 4.41687 -3.01358 0
M  V30 15566 C 1483.82 2.75691 -4.43612 0
M  V30 15567 H 1485.51 1.33737 -2.67871 0
M  V30 15568 H 1483.06 0.641936 -1.289 0
M  V30 15569 H 1485.01 3.68851 -2.03781 0
M  V30 15570 H 1483.74 3.13173 -0.926847 0
M  V30 15571 H 1482.39 2.27094 -2.87791 0
M  V30 15572 H 1482.04 4.5995 -2.03605 0
M  V30 15573 H 1481.74 4.49141 -3.78875 0
M  V30 15574 H 1483.27 5.20634 -3.19018 0
M  V30 15575 H 1484.68 3.42398 -4.59822 0
M  V30 15576 H 1483.08 2.94554 -5.22836 0
M  V30 15577 H 1484.15 1.71297 -4.53636 0
M  V30 15578 N 1485.49 1.41566 0.692592 0
M  V30 15579 C 1486.45 1.43369 1.78824 0
M  V30 15580 C 1487.45 0.323867 1.57505 0
M  V30 15581 O 1488.64 0.583885 1.64123 0
M  V30 15582 C 1485.78 1.24798 3.17235 0
M  V30 15583 H 1486.97 2.40906 1.78617 0
M  V30 15584 H 1484.52 1.27752 0.900508 0
M  V30 15585 H 1485.26 0.281129 3.23079 0
M  V30 15586 H 1485.04 2.05212 3.34111 0
M  V30 15587 H 1486.53 1.28902 3.97208 0
M  V30 15588 N 1486.97 -0.927146 1.27443 0
M  V30 15589 C 1488.38 -1.20319 1.0486 0
M  V30 15590 C 1488.58 -2.00323 -0.217491 0
M  V30 15591 O 1487.64 -2.35032 -0.922833 0
M  V30 15592 C 1488.95 -1.9508 2.28833 0
M  V30 15593 C 1490.5 -2.08016 2.33877 0
M  V30 15594 C 1490.98 -2.86183 3.5758 0
M  V30 15595 N 1492.47 -2.93751 3.58141 0
M  V30 15596 C 1493.2 -3.54698 4.5053 0
M  V30 15597 N 1492.7 -4.17032 5.53223 0
M  V30 15598 N 1494.49 -3.52107 4.38152 0
M  V30 15599 H 1486.64 -0.392671 2.08739 0
M  V30 15600 H 1488.91 -0.236323 0.918072 0
M  V30 15601 H 1488.61 -1.43712 3.20998 0
M  V30 15602 H 1488.49 -2.95692 2.34193 0
M  V30 15603 H 1490.87 -2.5857 1.42217 0
M  V30 15604 H 1490.95 -1.06622 2.3252 0
M  V30 15605 H 1490.6 -2.36312 4.49576 0
M  V30 15606 H 1490.53 -3.87863 3.56188 0
M  V30 15607 H 1493.02 -2.49449 2.83872 0
M  V30 15608 H 1493.33 -4.61477 6.19886 0
M  V30 15609 H 1491.68 -4.15576 5.57065 0
M  V30 15610 H 1494.87 -3.02611 3.57134 0
M  V30 15611 H 1495.04 -3.99315 5.10344 0
M  V30 15612 N 1488.45 -1.09474 -1.13372 0
M  V30 15613 C 1489.38 -0.692446 -2.1849 0
M  V30 15614 C 1490.39 0.265942 -1.60613 0
M  V30 15615 O 1491.58 0.0519189 -1.78424 0
M  V30 15616 C 1488.68 0.000306083 -3.389 0
M  V30 15617 C 1487.85 -0.979745 -4.26286 0
M  V30 15618 C 1486.91 -0.320309 -5.25224 0
M  V30 15619 O 1485.94 -0.968089 -5.60907 0
M  V30 15620 N 1487.14 0.92536 -5.73077 0
M  V30 15621 H 1489.91 -1.59681 -2.53618 0
M  V30 15622 H 1487.47 -0.982256 -1.28699 0
M  V30 15623 H 1489.46 0.45268 -4.0216 0
M  V30 15624 H 1488.03 0.806927 -3.02006 0
M  V30 15625 H 1487.25 -1.61067 -3.59793 0
M  V30 15626 H 1488.54 -1.64348 -4.81526 0
M  V30 15627 H 1487.93 1.47119 -5.46235 0
M  V30 15628 H 1486.49 1.32105 -6.38272 0
M  V30 15629 N 1489.92 1.30607 -0.882012 0
M  V30 15630 C 1490.86 2.26334 -0.291222 0
M  V30 15631 C 1491.84 1.51653 0.586522 0
M  V30 15632 O 1493.02 1.80681 0.537275 0
M  V30 15633 C 1490.15 3.33584 0.586482 0
M  V30 15634 C 1489.19 4.25924 -0.221535 0
M  V30 15635 S 1490.03 5.10791 -1.6079 0
M  V30 15636 C 1491.18 6.2155 -0.736638 0
M  V30 15637 H 1491.41 2.76096 -1.10265 0
M  V30 15638 H 1488.95 1.38558 -0.681255 0
M  V30 15639 H 1490.91 3.95842 1.08715 0
M  V30 15640 H 1489.57 2.82552 1.37198 0
M  V30 15641 H 1488.76 5.02004 0.448139 0
M  V30 15642 H 1488.36 3.68225 -0.654722 0
M  V30 15643 H 1490.65 6.77483 0.0476549 0
M  V30 15644 H 1491.6 6.92696 -1.46894 0
M  V30 15645 H 1492 5.63708 -0.298853 0
M  V30 15646 N 1491.4 0.642663 1.43901 0
M  V30 15647 C 1492.68 0.0821715 1.95427 0
M  V30 15648 C 1493.06 -1.3951 1.58431 0
M  V30 15649 O 1492.41 -2.11531 0.864118 0
M  V30 15650 C 1492.62 0.317229 3.47555 0
M  V30 15651 C 1493.97 0.216547 4.24047 0
M  V30 15652 O 1494.99 0.249216 3.55327 0
M  V30 15653 O 1493.85 0.131269 5.46342 0
M  V30 15654 H 1490.94 -0.0156936 0.826851 0
M  V30 15655 H 1493.49 0.715168 1.53894 0
M  V30 15656 H 1492.26 1.34184 3.67574 0
M  V30 15657 H 1491.88 -0.349348 3.96062 0
M  V30 15658 N 1492.88 -1.52852 0.383918 0
M  V30 15659 C 1494.29 -1.86477 -0.0912997 0
M  V30 15660 C 1494.64 -1.30382 -1.46611 0
M  V30 15661 O 1493.77 -0.633042 -2.06934 0
M  V30 15662 C 1494.36 -3.38361 -0.172447 0
M  V30 15663 C 1492.92 -3.71716 -0.591948 0
M  V30 15664 C 1492.07 -2.76176 0.24945 0
M  V30 15665 H 1495.02 -1.46839 0.602006 0
M  V30 15666 H 1495.04 -3.67325 -0.992603 0
M  V30 15667 H 1494.55 -3.79158 0.8283 0
M  V30 15668 H 1492.65 -3.36486 -1.60026 0
M  V30 15669 H 1492.77 -4.77792 -0.353835 0
M  V30 15670 H 1491.13 -2.53106 -0.284469 0
M  V30 15671 H 1491.91 -3.19809 1.24808 0
M  V30 15672 N 1494.36 -0.113586 -1.5719 0
M  V30 15673 C 1495.59 0.553592 -1.99356 0
M  V30 15674 C 1496 1.60567 -0.993154 0
M  V30 15675 O 1495.36 1.82494 0.0147252 0
M  V30 15676 C 1495.41 1.18462 -3.41539 0
M  V30 15677 O 1495.13 0.174602 -4.37752 0
M  V30 15678 C 1496.63 1.93564 -3.98808 0
M  V30 15679 H 1493.85 0.146998 -0.6547 0
M  V30 15680 H 1496.4 -0.198329 -2.03536 0
M  V30 15681 H 1494.55 1.88736 -3.38316 0
M  V30 15682 H 1494.97 0.632395 -5.20674 0
M  V30 15683 H 1496.44 2.33051 -5.00391 0
M  V30 15684 H 1496.92 2.80874 -3.37648 0
M  V30 15685 H 1497.52 1.28066 -4.0556 0
M  V30 15686 N 1495.84 1.56784 0.160173 0
M  V30 15687 C 1497.11 1.73513 0.902908 0
M  V30 15688 C 1497.49 0.678036 1.99915 0
M  V30 15689 O 1496.84 -0.305302 2.26451 0
M  V30 15690 C 1497.05 3.17111 1.45744 0
M  V30 15691 C 1498.4 3.78404 1.92602 0
M  V30 15692 O 1499.42 3.20459 1.55515 0
M  V30 15693 O 1498.28 4.80172 2.60954 0
M  V30 15694 H 1495.38 0.708981 0.425764 0
M  V30 15695 H 1497.92 1.69061 0.147129 0
M  V30 15696 H 1496.7 3.85539 0.668985 0
M  V30 15697 H 1496.32 3.25936 2.2771 0
M  V30 15698 N 1497.32 -0.429099 1.51646 0
M  V30 15699 C 1498.56 -1.17784 1.64722 0
M  V30 15700 C 1498.89 -1.90998 0.367415 0
M  V30 15701 O 1498.15 -1.8463 -0.648862 0
M  V30 15702 C 1498.44 -2.2131 2.80636 0
M  V30 15703 C 1498.11 -1.65048 4.19607 0
M  V30 15704 C 1496.77 -1.49428 4.57411 0
M  V30 15705 C 1499.12 -1.23765 5.06292 0
M  V30 15706 C 1496.45 -0.910109 5.79598 0
M  V30 15707 C 1498.8 -0.667743 6.29066 0
M  V30 15708 C 1497.47 -0.498507 6.65636 0
M  V30 15709 H 1496.74 -0.431001 0.60276 0
M  V30 15710 H 1499.39 -0.46775 1.857 0
M  V30 15711 H 1497.69 -2.98388 2.53913 0
M  V30 15712 H 1499.39 -2.79079 2.87951 0
M  V30 15713 H 1495.98 -1.78185 3.89805 0
M  V30 15714 H 1500.16 -1.3465 4.77685 0
M  V30 15715 H 1495.42 -0.766825 6.06572 0
M  V30 15716 H 1499.59 -0.339377 6.95573 0
M  V30 15717 H 1497.22 -0.0437292 7.60187 0
M  V30 15718 N 1498.79 -1.41931 -0.685074 0
M  V30 15719 C 1500.04 -1.42062 -1.44728 0
M  V30 15720 C 1500.37 -0.0332072 -1.94172 0
M  V30 15721 O 1499.65 0.940835 -1.70231 0
M  V30 15722 C 1499.93 -2.43634 -2.65168 0
M  V30 15723 C 1499.78 -3.91525 -2.21423 0
M  V30 15724 C 1501.1 -2.42325 -3.67378 0
M  V30 15725 H 1498.22 -0.517321 -0.524927 0
M  V30 15726 H 1500.86 -1.73277 -0.779419 0
M  V30 15727 H 1499.01 -2.17146 -3.22149 0
M  V30 15728 H 1500.69 -4.28956 -1.69689 0
M  V30 15729 H 1498.93 -4.05886 -1.53099 0
M  V30 15730 H 1499.6 -4.58158 -3.07889 0
M  V30 15731 H 1502.08 -2.65857 -3.20093 0
M  V30 15732 H 1500.95 -3.15391 -4.49243 0
M  V30 15733 H 1501.21 -1.44555 -4.17799 0
M  V30 15734 N 1500.27 0.920374 -1.27933 0
M  V30 15735 C 1501.22 2.04331 -1.11138 0
M  V30 15736 C 1502.21 1.69369 -0.0324493 0
M  V30 15737 O 1503.42 1.78987 -0.190723 0
M  V30 15738 H 1499.79 0.669381 -0.342685 0
M  V30 15739 H 1501.77 2.15641 -2.06256 0
M  V30 15740 C 1500.51 3.38768 -0.783049 0
M  V30 15741 H 1499.84 3.6616 -1.60521 0
M  V30 15742 H 1501.28 4.1809 -0.705448 0
M  V30 15743 C 1499.74 3.32972 0.512927 0
M  V30 15744 O 1500.27 3.70792 1.54519 0
M  V30 15745 N 1498.47 2.86068 0.511232 0
M  V30 15746 H 1498.02 2.55487 -0.329229 0
M  V30 15747 H 1497.98 2.82573 1.3784 0
M  V30 15748 N 1501.75 1.10074 1.1279 0
M  V30 15749 C 1502.97 0.863106 1.88587 0
M  V30 15750 C 1503.4 -0.580595 1.78915 0
M  V30 15751 O 1502.76 -1.40859 1.14142 0
M  V30 15752 C 1502.81 1.31142 3.35908 0
M  V30 15753 O 1501.91 0.474088 4.09666 0
M  V30 15754 H 1501.25 0.312034 0.586115 0
M  V30 15755 H 1503.78 1.46659 1.42662 0
M  V30 15756 H 1503.79 1.29974 3.86744 0
M  V30 15757 H 1502.47 2.36279 3.42265 0
M  V30 15758 H 1501.04 0.550665 3.68812 0
M  V30 15759 N 1503.23 -1.30138 0.888926 0
M  V30 15760 C 1504.45 -2.00679 0.523697 0
M  V30 15761 C 1504.88 -1.66167 -0.881479 0
M  V30 15762 O 1504.24 -0.880418 -1.58488 0
M  V30 15763 C 1504.28 -3.53535 0.710284 0
M  V30 15764 O 1503.39 -4.11689 -0.242066 0
M  V30 15765 H 1502.73 -0.631273 0.205888 0
M  V30 15766 H 1505.26 -1.65891 1.19756 0
M  V30 15767 H 1505.27 -4.03402 0.610794 0
M  V30 15768 H 1503.94 -3.77992 1.73478 0
M  V30 15769 H 1502.52 -3.72777 -0.0959393 0
M  V30 15770 N 1504.71 -0.650285 -1.43559 0
M  V30 15771 C 1505.62 0.0438076 -2.34559 0
M  V30 15772 C 1506.63 0.815316 -1.53716 0
M  V30 15773 O 1507.81 0.76323 -1.86378 0
M  V30 15774 C 1504.87 1.00028 -3.31957 0
M  V30 15775 C 1503.93 0.226027 -4.28705 0
M  V30 15776 C 1503.17 1.13694 -5.21449 0
M  V30 15777 O 1503.39 2.37614 -5.18551 0
M  V30 15778 O 1502.32 0.610924 -5.98792 0
M  V30 15779 H 1506.15 -0.705152 -2.954 0
M  V30 15780 H 1503.73 -0.410471 -1.43651 0
M  V30 15781 H 1505.62 1.55004 -3.91857 0
M  V30 15782 H 1504.29 1.72952 -2.73623 0
M  V30 15783 H 1503.2 -0.367244 -3.72293 0
M  V30 15784 H 1504.53 -0.463582 -4.90012 0
M  V30 15785 N 1506.18 1.52647 -0.392018 0
M  V30 15786 C 1507.41 2.06032 0.189293 0
M  V30 15787 C 1507.83 1.26351 1.40288 0
M  V30 15788 O 1507.18 0.310877 1.79833 0
M  V30 15789 C 1507.23 3.57187 0.55672 0
M  V30 15790 O 1506.96 4.33851 -0.608657 0
M  V30 15791 C 1508.46 4.26929 1.1936 0
M  V30 15792 H 1505.68 0.670419 0.0279177 0
M  V30 15793 H 1508.22 1.96739 -0.558033 0
M  V30 15794 H 1506.38 3.66545 1.25394 0
M  V30 15795 H 1506.79 5.23606 -0.306039 0
M  V30 15796 H 1508.26 5.33924 1.40104 0
M  V30 15797 H 1508.74 3.82315 2.16175 0
M  V30 15798 H 1509.35 4.21895 0.537069 0
M  V30 15799 N 1507.66 0.121921 1.57128 0
M  V30 15800 C 1509.08 -0.234655 1.57866 0
M  V30 15801 C 1509.28 -1.66506 1.13482 0
M  V30 15802 O 1508.33 -2.38692 0.823544 0
M  V30 15803 C 1509.65 0.00131784 3.007 0
M  V30 15804 C 1511.2 -0.0643537 3.12934 0
M  V30 15805 C 1511.67 0.143964 4.57774 0
M  V30 15806 N 1513.16 0.0900323 4.63112 0
M  V30 15807 C 1513.9 0.22608 5.72954 0
M  V30 15808 N 1513.39 0.418461 6.91535 0
M  V30 15809 N 1515.19 0.165449 5.61856 0
M  V30 15810 H 1507.34 1.05618 1.84279 0
M  V30 15811 H 1509.6 0.416132 0.851785 0
M  V30 15812 H 1509.31 0.99031 3.3747 0
M  V30 15813 H 1509.18 -0.729266 3.70083 0
M  V30 15814 H 1511.57 -1.04387 2.7602 0
M  V30 15815 H 1511.65 0.698157 2.46088 0
M  V30 15816 H 1511.29 1.12047 4.95387 0
M  V30 15817 H 1511.22 -0.638569 5.22714 0
M  V30 15818 H 1513.71 -0.0550269 3.7786 0
M  V30 15819 H 1514.03 0.513057 7.71095 0
M  V30 15820 H 1512.37 0.454471 6.93512 0
M  V30 15821 H 1515.56 0.0160945 4.68097 0
M  V30 15822 H 1515.73 0.274917 6.47417 0
M  V30 15823 N 1509.14 -1.56867 -0.151857 0
M  V30 15824 C 1510.07 -2.00932 -1.18949 0
M  V30 15825 C 1511.05 -0.888062 -1.45077 0
M  V30 15826 O 1512.24 -1.15553 -1.56081 0
M  V30 15827 C 1509.37 -2.3858 -2.52383 0
M  V30 15828 C 1508.32 -3.53845 -2.40785 0
M  V30 15829 C 1507.65 -3.77292 -3.78886 0
M  V30 15830 C 1508.95 -4.8667 -1.89605 0
M  V30 15831 H 1510.64 -2.87863 -0.823107 0
M  V30 15832 H 1508.19 -1.38491 -0.394499 0
M  V30 15833 H 1510.14 -2.68006 -3.25193 0
M  V30 15834 H 1508.86 -1.48579 -2.90847 0
M  V30 15835 H 1507.52 -3.24577 -1.70427 0
M  V30 15836 H 1507.17 -2.84551 -4.14777 0
M  V30 15837 H 1506.87 -4.54861 -3.71989 0
M  V30 15838 H 1508.39 -4.09139 -4.53252 0
M  V30 15839 H 1509.81 -5.14846 -2.52204 0
M  V30 15840 H 1508.21 -5.6801 -1.93609 0
M  V30 15841 H 1509.28 -4.77366 -0.851438 0
M  V30 15842 N 1510.62 0.421051 -1.51871 0
M  V30 15843 C 1511.58 1.49478 -1.73749 0
M  V30 15844 C 1512.58 1.48887 -0.607395 0
M  V30 15845 O 1513.77 1.50622 -0.875143 0
M  V30 15846 C 1510.9 2.88947 -1.80893 0
M  V30 15847 H 1512.1 1.31377 -2.69593 0
M  V30 15848 H 1509.65 0.650786 -1.42107 0
M  V30 15849 H 1510.38 3.12434 -0.86922 0
M  V30 15850 H 1510.17 2.90781 -2.63038 0
M  V30 15851 H 1511.66 3.66809 -1.99602 0
M  V30 15852 N 1512.1 1.42293 0.677538 0
M  V30 15853 C 1513.34 1.42827 1.43973 0
M  V30 15854 C 1513.68 0.0435041 1.94151 0
M  V30 15855 O 1512.95 -0.931794 1.70727 0
M  V30 15856 C 1513.23 2.45037 2.63873 0
M  V30 15857 C 1513.09 3.92694 2.19344 0
M  V30 15858 C 1514.41 2.4427 3.66087 0
M  V30 15859 H 1511.52 0.520097 0.522176 0
M  V30 15860 H 1514.17 1.73688 0.770219 0
M  V30 15861 H 1512.32 2.18851 3.20993 0
M  V30 15862 H 1513.99 4.2985 1.67412 0
M  V30 15863 H 1512.23 4.06692 1.50944 0
M  V30 15864 H 1512.9 4.59784 3.05455 0
M  V30 15865 H 1515.38 2.67551 3.18678 0
M  V30 15866 H 1514.25 3.17769 4.47564 0
M  V30 15867 H 1514.52 1.46769 4.17027 0
M  V30 15868 N 1513.57 -0.913576 1.28419 0
M  V30 15869 C 1514.8 -1.70178 1.18551 0
M  V30 15870 C 1515.22 -1.864 -0.252307 0
M  V30 15871 O 1514.58 -1.37427 -1.18252 0
M  V30 15872 C 1514.63 -3.07145 1.8893 0
M  V30 15873 O 1513.73 -3.9465 1.19688 0
M  V30 15874 H 1513.08 -0.521092 0.411533 0
M  V30 15875 H 1515.61 -1.14228 1.69744 0
M  V30 15876 H 1515.62 -3.57375 1.96843 0
M  V30 15877 H 1514.29 -2.94655 2.93515 0
M  V30 15878 H 1512.87 -3.53085 1.19939 0
M  V30 15879 N 1515.05 -1.1067 -1.12204 0
M  V30 15880 C 1516.47 -0.838988 -1.35769 0
M  V30 15881 C 1516.67 0.540345 -1.9412 0
M  V30 15882 O 1515.72 1.29274 -2.16897 0
M  V30 15883 C 1517.04 -1.94065 -2.29694 0
M  V30 15884 C 1518.59 -1.96938 -2.43279 0
M  V30 15885 C 1519.06 -3.06284 -3.4052 0
M  V30 15886 N 1520.55 -3.05607 -3.48079 0
M  V30 15887 C 1521.29 -3.86855 -4.23238 0
M  V30 15888 N 1520.78 -4.78046 -5.01442 0
M  V30 15889 N 1522.58 -3.75064 -4.18669 0
M  V30 15890 H 1514.73 -1.99575 -0.726878 0
M  V30 15891 H 1516.99 -0.867423 -0.382467 0
M  V30 15892 H 1516.7 -2.93356 -1.93997 0
M  V30 15893 H 1516.57 -1.82992 -3.29839 0
M  V30 15894 H 1518.96 -0.982774 -2.78254 0
M  V30 15895 H 1519.04 -2.12087 -1.43014 0
M  V30 15896 H 1518.68 -4.05165 -3.06273 0
M  V30 15897 H 1518.61 -2.88376 -4.40621 0
M  V30 15898 H 1521.1 -2.39531 -2.9229 0
M  V30 15899 H 1521.42 -5.36594 -5.56136 0
M  V30 15900 H 1519.76 -4.82073 -5.0063 0
M  V30 15901 H 1522.95 -3.03172 -3.56657 0
M  V30 15902 H 1523.12 -4.38618 -4.76988 0
M  V30 15903 N 1516.53 1.29665 -0.895815 0
M  V30 15904 C 1517.78 1.94995 -0.515749 0
M  V30 15905 C 1518.09 1.71427 0.94192 0
M  V30 15906 O 1519.3 2.3083 1.42933 0
M  V30 15907 C 1517.75 3.4919 -0.871468 0
M  V30 15908 C 1517.36 3.81562 -2.34764 0
M  V30 15909 C 1519.11 4.20775 -0.561123 0
M  V30 15910 C 1517.01 5.28984 -2.64442 0
M  V30 15911 H 1515.94 0.729889 -0.189151 0
M  V30 15912 H 1518.59 1.4745 -1.09228 0
M  V30 15913 H 1516.98 3.95366 -0.223908 0
M  V30 15914 H 1518.15 3.46258 -3.04043 0
M  V30 15915 H 1516.47 3.23107 -2.62661 0
M  V30 15916 H 1519.06 5.29275 -0.759755 0
M  V30 15917 H 1519.41 4.13285 0.500129 0
M  V30 15918 H 1519.94 3.80317 -1.16635 0
M  V30 15919 H 1516.68 5.41535 -3.69351 0
M  V30 15920 H 1516.2 5.6555 -1.99784 0
M  V30 15921 H 1517.88 5.96536 -2.50506 0
M  V30 15922 N 1518.01 0.657889 1.43212 0
M  V30 15923 C 1519.26 0.170493 2.00978 0
M  V30 15924 C 1519.57 -1.22439 1.52539 0
M  V30 15925 O 1520.78 -1.80725 2.02609 0
M  V30 15926 C 1519.23 0.253982 3.59003 0
M  V30 15927 C 1518.84 1.65185 4.16435 0
M  V30 15928 C 1520.58 -0.17557 4.24137 0
M  V30 15929 C 1518.49 1.68902 5.66768 0
M  V30 15930 H 1517.42 0.0599767 0.751611 0
M  V30 15931 H 1520.07 0.820606 1.64129 0
M  V30 15932 H 1518.45 -0.463723 3.93275 0
M  V30 15933 H 1519.63 2.39529 3.93653 0
M  V30 15934 H 1517.94 2.02779 3.63689 0
M  V30 15935 H 1520.54 -0.167714 5.34437 0
M  V30 15936 H 1520.88 -1.20784 3.98393 0
M  V30 15937 H 1521.42 0.490544 3.94764 0
M  V30 15938 H 1518.16 2.70055 5.97286 0
M  V30 15939 H 1517.68 0.988906 5.91592 0
M  V30 15940 H 1519.35 1.43485 6.30889 0
M  V30 15941 N 1519.49 -1.52437 0.400108 0
M  V30 15942 C 1520.71 -2.0613 -0.178364 0
M  V30 15943 C 1521.13 -1.27094 -1.39616 0
M  V30 15944 O 1520.49 -0.320409 -1.79665 0
M  V30 15945 C 1520.54 -3.57478 -0.53777 0
M  V30 15946 O 1520.26 -4.33522 0.631657 0
M  V30 15947 C 1521.76 -4.27556 -1.17094 0
M  V30 15948 H 1518.98 -0.670558 -0.0243619 0
M  V30 15949 H 1521.52 -1.9644 0.568459 0
M  V30 15950 H 1519.68 -3.67205 -1.23449 0
M  V30 15951 H 1520.09 -5.23437 0.333803 0
M  V30 15952 H 1521.57 -5.3466 -1.3727 0
M  V30 15953 H 1522.04 -3.83456 -2.14145 0
M  V30 15954 H 1522.65 -4.22174 -0.514687 0
M  V30 15955 N 1520.96 -0.130252 -1.57061 0
M  V30 15956 C 1522.21 0.519478 -1.96654 0
M  V30 15957 C 1522.57 1.63568 -1.01308 0
M  V30 15958 O 1521.86 1.91547 -0.0450944 0
M  V30 15959 C 1522.05 1.08776 -3.40445 0
M  V30 15960 C 1521.88 0.0281442 -4.49691 0
M  V30 15961 C 1520.65 -0.407544 -5.03654 0
M  V30 15962 C 1522.85 -0.757073 -5.08697 0
M  V30 15963 N 1520.83 -1.45175 -5.96488 0
M  V30 15964 C 1522.2 -1.65219 -5.97581 0
M  V30 15965 C 1524.26 -0.806718 -4.91321 0
M  V30 15966 C 1522.96 -2.59266 -6.7095 0
M  V30 15967 C 1524.99 -1.73494 -5.65379 0
M  V30 15968 C 1524.35 -2.61761 -6.53957 0
M  V30 15969 H 1520.45 0.159387 -0.765585 0
M  V30 15970 H 1523.03 -0.220978 -1.93442 0
M  V30 15971 H 1521.2 1.79788 -3.44283 0
M  V30 15972 H 1522.93 1.70273 -3.67137 0
M  V30 15973 H 1519.69 -0.0129839 -4.73598 0
M  V30 15974 H 1520.11 -1.97311 -6.47609 0
M  V30 15975 H 1524.76 -0.138406 -4.22573 0
M  V30 15976 H 1522.47 -3.27105 -7.38937 0
M  V30 15977 H 1526.06 -1.77894 -5.53936 0
M  V30 15978 H 1524.94 -3.32418 -7.10259 0
M  V30 15979 N 1522.44 1.56945 0.143535 0
M  V30 15980 C 1523.67 1.87701 0.870401 0
M  V30 15981 C 1524.09 0.718833 1.7458 0
M  V30 15982 O 1523.44 -0.311286 1.79826 0
M  V30 15983 C 1523.49 3.1773 1.72424 0
M  V30 15984 O 1523.22 4.29086 0.884115 0
M  V30 15985 C 1524.72 3.62024 2.55839 0
M  V30 15986 H 1521.94 0.622083 0.251504 0
M  V30 15987 H 1524.48 2.04052 0.135285 0
M  V30 15988 H 1522.64 3.03122 2.41238 0
M  V30 15989 H 1523.05 5.0346 1.47065 0
M  V30 15990 H 1524.52 4.55834 3.11319 0
M  V30 15991 H 1525 2.87481 3.32041 0
M  V30 15992 H 1525.61 3.79338 1.9231 0
M  V30 15993 N 1523.92 -0.412991 1.52093 0
M  V30 15994 C 1525.15 -1.18212 1.69805 0
M  V30 15995 C 1525.56 -1.84386 0.405844 0
M  V30 15996 O 1524.92 -1.71725 -0.617809 0
M  V30 15997 C 1524.97 -2.24811 2.83094 0
M  V30 15998 O 1524.69 -1.61338 4.0731 0
M  V30 15999 C 1526.19 -3.14633 3.12283 0
M  V30 16000 H 1523.41 -0.355371 0.569168 0
M  V30 16001 H 1525.96 -0.486392 1.98632 0
M  V30 16002 H 1524.11 -2.90058 2.56797 0
M  V30 16003 H 1524.53 -2.31979 4.7041 0
M  V30 16004 H 1526 -3.85511 3.95076 0
M  V30 16005 H 1526.48 -3.76785 2.25677 0
M  V30 16006 H 1527.08 -2.55059 3.40331 0
M  V30 16007 N 1525.4 -1.4265 -0.669982 0
M  V30 16008 C 1526.31 -1.48916 -1.81276 0
M  V30 16009 C 1527.33 -0.377523 -1.69855 0
M  V30 16010 O 1528.5 -0.629151 -1.91321 0
M  V30 16011 C 1525.57 -1.39376 -3.17451 0
M  V30 16012 C 1524.63 -2.61072 -3.40793 0
M  V30 16013 C 1523.86 -2.51976 -4.70472 0
M  V30 16014 O 1524.08 -1.55827 -5.48702 0
M  V30 16015 O 1523.02 -3.42193 -4.95164 0
M  V30 16016 H 1526.84 -2.45382 -1.78945 0
M  V30 16017 H 1524.43 -1.24467 -0.826342 0
M  V30 16018 H 1526.31 -1.36435 -3.98702 0
M  V30 16019 H 1524.99 -0.460376 -3.20409 0
M  V30 16020 H 1523.89 -2.69587 -2.59372 0
M  V30 16021 H 1525.23 -3.53325 -3.42669 0
M  V30 16022 N 1526.88 0.906753 -1.28902 0
M  V30 16023 C 1528.29 1.47175 -1.14876 0
M  V30 16024 C 1528.64 1.94487 0.258693 0
M  V30 16025 O 1527.76 1.83088 1.15359 0
M  V30 16026 C 1528.36 2.67491 -2.07928 0
M  V30 16027 C 1526.92 3.20148 -1.97946 0
M  V30 16028 C 1526.07 1.92846 -1.99263 0
M  V30 16029 H 1529.02 0.718777 -1.4149 0
M  V30 16030 H 1529.04 3.42989 -1.64738 0
M  V30 16031 H 1528.55 2.33025 -3.10356 0
M  V30 16032 H 1526.65 3.59322 -0.985806 0
M  V30 16033 H 1526.76 3.84923 -2.85256 0
M  V30 16034 H 1525.13 2.10247 -1.43765 0
M  V30 16035 H 1525.91 1.60666 -3.03383 0
M  V30 16036 N 1528.36 1.11264 1.11616 0
M  V30 16037 C 1529.3 0.769295 2.17602 0
M  V30 16038 C 1530.27 -0.258362 1.64078 0
M  V30 16039 O 1531.46 -0.135698 1.90317 0
M  V30 16040 C 1528.6 0.216647 3.44419 0
M  V30 16041 C 1527.71 1.30064 4.11955 0
M  V30 16042 C 1526.85 0.708729 5.26451 0
M  V30 16043 C 1525.88 1.7727 5.85868 0
M  V30 16044 N 1525.02 1.20042 6.91762 0
M  V30 16045 H 1529.86 1.67727 2.46316 0
M  V30 16046 H 1527.4 0.83764 1.20921 0
M  V30 16047 H 1529.36 -0.121724 4.17022 0
M  V30 16048 H 1527.99 -0.654525 3.16095 0
M  V30 16049 H 1527.04 1.756 3.37445 0
M  V30 16050 H 1528.35 2.1057 4.52174 0
M  V30 16051 H 1527.5 0.320307 6.05854 0
M  V30 16052 H 1526.24 -0.127668 4.87533 0
M  V30 16053 H 1525.25 2.17046 5.05145 0
M  V30 16054 H 1526.47 2.6121 6.26854 0
M  V30 16055 H 1524.42 0.385633 6.54866 0
M  V30 16056 H 1524.34 1.94221 7.30626 0
M  V30 16057 H 1525.6 0.838825 7.74974 0
M  V30 16058 N 1529.83 -1.29188 0.902679 0
M  V30 16059 C 1531.06 -2.00113 0.544953 0
M  V30 16060 C 1531.48 -1.67093 -0.863805 0
M  V30 16061 O 1530.84 -0.897179 -1.57545 0
M  V30 16062 C 1530.89 -3.52762 0.747741 0
M  V30 16063 O 1529.99 -4.11923 -0.198388 0
M  V30 16064 H 1529.33 -0.629054 0.212572 0
M  V30 16065 H 1531.86 -1.64611 1.21508 0
M  V30 16066 H 1531.87 -4.02732 0.653546 0
M  V30 16067 H 1530.55 -3.76131 1.77478 0
M  V30 16068 H 1529.13 -3.72857 -0.0563959 0
M  V30 16069 N 1531.31 -0.665475 -1.42861 0
M  V30 16070 C 1532.54 -0.190399 -2.06524 0
M  V30 16071 C 1532.96 1.13995 -1.49622 0
M  V30 16072 O 1532.32 1.70695 -0.610981 0
M  V30 16073 C 1532.37 -0.12594 -3.6038 0
M  V30 16074 O 1531.47 0.908299 -4.02273 0
M  V30 16075 H 1530.81 -0.100495 -0.656351 0
M  V30 16076 H 1533.34 -0.911858 -1.83156 0
M  V30 16077 H 1533.35 0.0533153 -4.07965 0
M  V30 16078 H 1532.03 -1.09703 -4.01171 0
M  V30 16079 H 1530.6 0.700841 -3.66255 0
M  V30 16080 N 1532.79 1.52222 -0.408187 0
M  V30 16081 C 1534.07 1.94285 0.22641 0
M  V30 16082 C 1534.45 1.34501 1.62705 0
M  V30 16083 O 1533.79 0.52045 2.22494 0
M  V30 16084 C 1534 3.48217 0.233695 0
M  V30 16085 C 1535.35 4.22171 0.453504 0
M  V30 16086 O 1536.38 3.54821 0.313093 0
M  V30 16087 O 1535.24 5.416 0.730183 0
M  V30 16088 H 1532.33 0.814078 0.145625 0
M  V30 16089 H 1534.88 1.63232 -0.464062 0
M  V30 16090 H 1533.65 3.84111 -0.746644 0
M  V30 16091 H 1533.27 3.85629 0.968305 0
M  V30 16092 N 1534.27 0.138579 1.5699 0
M  V30 16093 C 1535.51 -0.51539 1.96142 0
M  V30 16094 C 1535.85 -1.65067 1.02306 0
M  V30 16095 O 1535.12 -1.94395 0.0638645 0
M  V30 16096 C 1535.4 -1.02956 3.45068 0
M  V30 16097 C 1535.26 0.103646 4.49681 0
M  V30 16098 C 1536.58 -1.91411 3.96295 0
M  V30 16099 H 1533.7 -0.185873 0.713176 0
M  V30 16100 H 1536.34 0.218103 1.88744 0
M  V30 16101 H 1534.49 -1.65462 3.51503 0
M  V30 16102 H 1536.16 0.739693 4.55331 0
M  V30 16103 H 1534.4 0.764014 4.27019 0
M  V30 16104 H 1535.07 -0.297688 5.51197 0
M  V30 16105 H 1537.55 -1.38746 3.92286 0
M  V30 16106 H 1536.43 -2.24298 5.0098 0
M  V30 16107 H 1536.69 -2.84793 3.38149 0
M  V30 16108 N 1535.75 -1.57019 -0.13521 0
M  V30 16109 C 1537.16 -1.51949 -0.48824 0
M  V30 16110 C 1537.36 -0.848955 -1.82743 0
M  V30 16111 O 1536.42 -0.424441 -2.48907 0
M  V30 16112 C 1537.73 -2.96719 -0.487673 0
M  V30 16113 C 1539.28 -3.07722 -0.572365 0
M  V30 16114 C 1539.75 -4.54022 -0.602347 0
M  V30 16115 N 1541.24 -4.58413 -0.664242 0
M  V30 16116 C 1541.98 -5.69005 -0.70862 0
M  V30 16117 N 1541.48 -6.89135 -0.711626 0
M  V30 16118 N 1543.27 -5.57069 -0.750399 0
M  V30 16119 H 1535.42 -1.99001 0.742465 0
M  V30 16120 H 1537.68 -0.908116 0.272083 0
M  V30 16121 H 1537.39 -3.49082 0.428363 0
M  V30 16122 H 1537.26 -3.53299 -1.32136 0
M  V30 16123 H 1539.65 -2.55372 -1.47882 0
M  V30 16124 H 1539.73 -2.54166 0.288696 0
M  V30 16125 H 1539.37 -5.07013 0.3 0
M  V30 16126 H 1539.3 -5.05373 -1.48006 0
M  V30 16127 H 1541.8 -3.71936 -0.668739 0
M  V30 16128 H 1542.11 -7.69175 -0.747663 0
M  V30 16129 H 1540.45 -6.91672 -0.679311 0
M  V30 16130 H 1543.64 -4.62129 -0.745301 0
M  V30 16131 H 1543.82 -6.4327 -0.781518 0
M  V30 16132 N 1537.22 0.404919 -1.52309 0
M  V30 16133 C 1538.17 1.49363 -1.75953 0
M  V30 16134 C 1539.14 1.54802 -0.60212 0
M  V30 16135 O 1540.33 1.71308 -0.840128 0
M  V30 16136 C 1537.47 2.86767 -1.91987 0
M  V30 16137 C 1536.58 2.90603 -3.19646 0
M  V30 16138 C 1535.71 4.19333 -3.26088 0
M  V30 16139 C 1534.75 4.17161 -4.47932 0
M  V30 16140 N 1533.89 5.37469 -4.51743 0
M  V30 16141 H 1538.73 1.28503 -2.6887 0
M  V30 16142 H 1536.27 0.623684 -1.33224 0
M  V30 16143 H 1538.23 3.66536 -1.99267 0
M  V30 16144 H 1536.86 3.06112 -1.02447 0
M  V30 16145 H 1535.91 2.033 -3.21517 0
M  V30 16146 H 1537.22 2.84864 -4.09456 0
M  V30 16147 H 1536.37 5.07497 -3.32463 0
M  V30 16148 H 1535.11 4.27774 -2.34224 0
M  V30 16149 H 1534.12 3.27386 -4.417 0
M  V30 16150 H 1535.34 4.10356 -5.41096 0
M  V30 16151 H 1533.29 5.46569 -3.62764 0
M  V30 16152 H 1533.21 5.3374 -5.35404 0
M  V30 16153 H 1534.47 6.27575 -4.62353 0
M  V30 16154 N 1538.7 1.43003 0.662408 0
M  V30 16155 C 1539.67 1.4713 1.75743 0
M  V30 16156 C 1540.67 0.357203 1.56782 0
M  V30 16157 O 1541.86 0.618566 1.62848 0
M  V30 16158 C 1538.99 1.31499 3.14517 0
M  V30 16159 H 1540.18 2.44641 1.73467 0
M  V30 16160 H 1537.73 1.29633 0.873208 0
M  V30 16161 H 1538.47 0.349596 3.2241 0
M  V30 16162 H 1538.25 2.12253 3.29683 0
M  V30 16163 H 1539.74 1.37298 3.94384 0
M  V30 16164 N 1540.18 -0.899904 1.29381 0
M  V30 16165 C 1541.14 -1.98554 1.14494 0
M  V30 16166 C 1542.14 -1.60599 0.0804732 0
M  V30 16167 O 1543.33 -1.71096 0.327395 0
M  V30 16168 C 1540.47 -3.32529 0.750818 0
M  V30 16169 H 1541.66 -2.13189 2.10928 0
M  V30 16170 H 1539.21 -1.08438 1.12565 0
M  V30 16171 H 1539.95 -3.23595 -0.213668 0
M  V30 16172 H 1539.73 -3.61443 1.51992 0
M  V30 16173 H 1541.22 -4.12195 0.669709 0
M  V30 16174 N 1541.66 -1.11854 -1.11024 0
M  V30 16175 C 1542.59 -0.738635 -2.16972 0
M  V30 16176 C 1543.6 0.231814 -1.61141 0
M  V30 16177 O 1544.79 0.0140607 -1.78494 0
M  V30 16178 C 1541.89 -0.0715797 -3.38824 0
M  V30 16179 C 1541.07 -1.06995 -4.24112 0
M  V30 16180 C 1540.12 -0.431644 -5.24427 0
M  V30 16181 O 1539.15 -1.08685 -5.58727 0
M  V30 16182 N 1540.35 0.803593 -5.74911 0
M  V30 16183 H 1543.12 -1.65025 -2.50174 0
M  V30 16184 H 1540.68 -1.00933 -1.26586 0
M  V30 16185 H 1542.67 0.367274 -4.0303 0
M  V30 16186 H 1541.24 0.742686 -3.03649 0
M  V30 16187 H 1540.46 -1.68662 -3.56296 0
M  V30 16188 H 1541.75 -1.74525 -4.77931 0
M  V30 16189 H 1541.15 1.355 -5.49232 0
M  V30 16190 H 1539.7 1.18536 -6.40931 0
M  V30 16191 N 1543.14 1.28707 -0.909517 0
M  V30 16192 C 1544.39 1.94437 -0.536401 0
M  V30 16193 C 1544.7 1.72416 0.923685 0
M  V30 16194 O 1545.9 2.32333 1.40477 0
M  V30 16195 C 1544.36 3.48246 -0.908455 0
M  V30 16196 C 1543.97 3.79051 -2.38798 0
M  V30 16197 C 1545.71 4.20156 -0.605721 0
M  V30 16198 C 1543.62 5.2615 -2.70038 0
M  V30 16199 H 1542.55 0.727842 -0.196882 0
M  V30 16200 H 1545.2 1.46283 -1.10786 0
M  V30 16201 H 1543.58 3.95107 -0.265829 0
M  V30 16202 H 1544.76 3.43014 -3.07698 0
M  V30 16203 H 1543.07 3.20303 -2.66074 0
M  V30 16204 H 1545.67 5.28439 -0.815849 0
M  V30 16205 H 1546.01 4.13792 0.456266 0
M  V30 16206 H 1546.54 3.79059 -1.20662 0
M  V30 16207 H 1543.28 5.37587 -3.75073 0
M  V30 16208 H 1542.8 5.63399 -2.05771 0
M  V30 16209 H 1544.48 5.93846 -2.56819 0
M  V30 16210 N 1544.61 0.673042 1.42506 0
M  V30 16211 C 1545.86 0.194864 2.01862 0
M  V30 16212 C 1546.19 -1.19491 1.53087 0
M  V30 16213 O 1545.47 -1.80187 0.732322 0
M  V30 16214 C 1545.75 0.227559 3.5938 0
M  V30 16215 C 1545.6 1.65266 4.18338 0
M  V30 16216 C 1546.92 -0.425197 4.38041 0
M  V30 16217 H 1544.04 0.0722831 0.733447 0
M  V30 16218 H 1546.68 0.857493 1.6955 0
M  V30 16219 H 1544.83 -0.336658 3.87039 0
M  V30 16220 H 1546.51 2.26899 4.0164 0
M  V30 16221 H 1544.75 2.19388 3.74234 0
M  V30 16222 H 1545.42 1.62724 5.2747 0
M  V30 16223 H 1547.9 0.0550709 4.16064 0
M  V30 16224 H 1546.77 -0.371675 5.4764 0
M  V30 16225 H 1547.03 -1.50251 4.15785 0
M  V30 16226 N 1546.09 -1.52004 0.416254 0
M  V30 16227 C 1547.02 -2.30106 -0.396671 0
M  V30 16228 C 1548 -1.34616 -1.03983 0
M  V30 16229 O 1549.19 -1.63528 -1.04749 0
M  V30 16230 C 1546.32 -3.12769 -1.50972 0
M  V30 16231 C 1545.27 -4.16365 -0.99119 0
M  V30 16232 C 1544.6 -4.87417 -2.19838 0
M  V30 16233 C 1545.9 -5.22284 -0.0402599 0
M  V30 16234 H 1547.59 -2.98312 0.255054 0
M  V30 16235 H 1545.14 -1.43464 0.124106 0
M  V30 16236 H 1547.09 -3.66178 -2.08547 0
M  V30 16237 H 1545.82 -2.42346 -2.18943 0
M  V30 16238 H 1544.47 -3.63976 -0.437803 0
M  V30 16239 H 1544.12 -4.13516 -2.8638 0
M  V30 16240 H 1543.82 -5.57454 -1.85792 0
M  V30 16241 H 1545.35 -5.43641 -2.78006 0
M  V30 16242 H 1546.76 -5.70891 -0.525027 0
M  V30 16243 H 1545.16 -5.99726 0.211742 0
M  V30 16244 H 1546.23 -4.7642 0.902877 0
M  V30 16245 N 1547.57 -0.146903 -1.56914 0
M  V30 16246 C 1548.82 0.504195 -1.95297 0
M  V30 16247 C 1549.13 1.66019 -1.03426 0
M  V30 16248 O 1550.34 2.37591 -1.31388 0
M  V30 16249 C 1548.79 0.948348 -3.47181 0
M  V30 16250 C 1548.4 -0.18071 -4.47635 0
M  V30 16251 C 1550.15 1.56924 -3.9443 0
M  V30 16252 C 1548.05 0.281707 -5.90729 0
M  V30 16253 H 1546.98 0.192127 -0.729111 0
M  V30 16254 H 1549.63 -0.231232 -1.82037 0
M  V30 16255 H 1548.02 1.73903 -3.55772 0
M  V30 16256 H 1549.19 -0.957645 -4.50739 0
M  V30 16257 H 1547.51 -0.710007 -4.10302 0
M  V30 16258 H 1550.1 1.92684 -4.98776 0
M  V30 16259 H 1550.45 2.45816 -3.35976 0
M  V30 16260 H 1550.98 0.843456 -3.88755 0
M  V30 16261 H 1547.72 -0.571839 -6.53001 0
M  V30 16262 H 1547.24 1.02452 -5.90985 0
M  V30 16263 H 1548.92 0.733746 -6.42826 0
M  V30 16264 N 1549.05 1.57088 0.126881 0
M  V30 16265 C 1550.27 1.88984 0.854389 0
M  V30 16266 C 1550.7 0.738037 1.73016 0
M  V30 16267 O 1550.06 -0.311728 1.786 0
M  V30 16268 C 1550.1 3.19584 1.67028 0
M  V30 16269 O 1549.21 3.04935 2.77648 0
M  V30 16270 H 1548.55 0.620354 0.236763 0
M  V30 16271 H 1551.08 2.04295 0.111647 0
M  V30 16272 H 1551.09 3.52109 2.06115 0
M  V30 16273 H 1549.76 4.03012 1.02732 0
M  V30 16274 H 1548.34 2.83861 2.41821 0
M  V30 16275 N 1550.53 -0.396836 1.52522 0
M  V30 16276 C 1551.46 -1.49088 1.79708 0
M  V30 16277 C 1552.44 -1.57246 0.648678 0
M  V30 16278 O 1553.62 -1.72321 0.895495 0
M  V30 16279 C 1550.75 -2.86785 1.95887 0
M  V30 16280 C 1549.71 -2.93472 3.11542 0
M  V30 16281 C 1549.03 -4.33542 3.12963 0
M  V30 16282 C 1550.33 -2.63832 4.50766 0
M  V30 16283 H 1552.03 -1.26588 2.71322 0
M  V30 16284 H 1549.57 -0.607535 1.30557 0
M  V30 16285 H 1551.53 -3.63319 2.13489 0
M  V30 16286 H 1550.25 -3.10605 1.00955 0
M  V30 16287 H 1548.91 -2.19384 2.93711 0
M  V30 16288 H 1548.56 -4.5439 2.15729 0
M  V30 16289 H 1548.26 -4.38938 3.9065 0
M  V30 16290 H 1549.78 -5.11993 3.32709 0
M  V30 16291 H 1551.19 -3.30086 4.68739 0
M  V30 16292 H 1549.59 -2.80589 5.30462 0
M  V30 16293 H 1550.66 -1.59209 4.58018 0
M  V30 16294 N 1552.01 -1.43353 -0.654814 0
M  V30 16295 C 1553.25 -1.44885 -1.41473 0
M  V30 16296 C 1553.58 -0.0725577 -1.94365 0
M  V30 16297 O 1552.84 0.9222 -1.72609 0
M  V30 16298 C 1553.13 -2.437 -2.61429 0
M  V30 16299 C 1552.8 -3.89612 -2.26965 0
M  V30 16300 C 1551.46 -4.29353 -2.17278 0
M  V30 16301 C 1553.81 -4.81569 -1.99351 0
M  V30 16302 C 1551.14 -5.59005 -1.7813 0
M  V30 16303 C 1553.49 -6.11584 -1.61702 0
M  V30 16304 C 1552.16 -6.50303 -1.50539 0
M  V30 16305 H 1551.43 -0.530172 -0.517686 0
M  V30 16306 H 1554.08 -1.76422 -0.744824 0
M  V30 16307 H 1552.38 -2.05561 -3.33544 0
M  V30 16308 H 1554.08 -2.42141 -3.19638 0
M  V30 16309 H 1550.67 -3.58159 -2.35414 0
M  V30 16310 H 1554.85 -4.51639 -2.05757 0
M  V30 16311 H 1550.11 -5.87845 -1.68072 0
M  V30 16312 H 1554.28 -6.82312 -1.39365 0
M  V30 16313 H 1551.91 -7.50673 -1.19975 0
M  V30 16314 N 1553.48 0.89303 -1.29857 0
M  V30 16315 C 1554.39 2.03079 -1.17457 0
M  V30 16316 C 1555.41 1.73733 -0.0962941 0
M  V30 16317 O 1556.59 1.99005 -0.309667 0
M  V30 16318 C 1553.65 3.3589 -0.858991 0
M  V30 16319 C 1552.71 3.78711 -2.0218 0
M  V30 16320 C 1551.94 5.05184 -1.72118 0
M  V30 16321 O 1552.17 5.66738 -0.645276 0
M  V30 16322 O 1551.1 5.44218 -2.57119 0
M  V30 16323 H 1554.93 2.16465 -2.13017 0
M  V30 16324 H 1552.51 1.01774 -1.09373 0
M  V30 16325 H 1554.39 4.15582 -0.697852 0
M  V30 16326 H 1553.07 3.23631 0.0667756 0
M  V30 16327 H 1551.98 2.99758 -2.23822 0
M  V30 16328 H 1553.31 3.95563 -2.929 0
M  V30 16329 N 1554.96 1.12442 1.10429 0
M  V30 16330 C 1555.89 0.814745 2.18824 0
M  V30 16331 C 1556.87 -0.221476 1.68652 0
M  V30 16332 O 1558.06 -0.0826537 1.94024 0
M  V30 16333 C 1555.19 0.268632 3.4626 0
M  V30 16334 C 1554.14 1.23792 4.09707 0
M  V30 16335 C 1553.47 0.552034 5.31843 0
M  V30 16336 C 1554.77 2.5926 4.53411 0
M  V30 16337 H 1556.46 1.72111 2.44986 0
M  V30 16338 H 1554.01 0.828968 1.17746 0
M  V30 16339 H 1555.96 0.0397207 4.21381 0
M  V30 16340 H 1554.68 -0.673079 3.19589 0
M  V30 16341 H 1553.34 1.45264 3.36592 0
M  V30 16342 H 1552.99 -0.394821 5.01448 0
M  V30 16343 H 1552.69 1.19861 5.75245 0
M  V30 16344 H 1554.22 0.332161 6.09696 0
M  V30 16345 H 1555.63 2.41816 5.19806 0
M  V30 16346 H 1554.03 3.19997 5.07663 0
M  V30 16347 H 1555.1 3.17699 3.66327 0
M  V30 16348 N 1556.44 -1.28223 0.91633 0
M  V30 16349 C 1557.39 -2.29188 0.396916 0
M  V30 16350 C 1558.38 -1.61453 -0.512763 0
M  V30 16351 O 1559.59 -1.75641 -0.393723 0
M  V30 16352 H 1555.96 -0.743947 0.109761 0
M  V30 16353 H 1557.93 -2.70423 1.2615 0
M  V30 16354 C 1556.68 -3.4598 -0.345452 0
M  V30 16355 H 1556.01 -3.98306 0.345326 0
M  V30 16356 H 1557.45 -4.18617 -0.67349 0
M  V30 16357 C 1555.9 -2.98904 -1.55429 0
M  V30 16358 O 1556.43 -3.01598 -2.65333 0
M  V30 16359 N 1554.64 -2.54534 -1.40217 0
M  V30 16360 H 1554.19 -2.52541 -0.508029 0
M  V30 16361 H 1554.15 -2.23397 -2.21227 0
M  V30 16362 N 1557.92 -0.68059 -1.42147 0
M  V30 16363 C 1559.15 -0.213839 -2.05792 0
M  V30 16364 C 1559.56 1.13123 -1.51158 0
M  V30 16365 O 1558.92 1.7039 -0.653708 0
M  V30 16366 C 1558.97 -0.146507 -3.61203 0
M  V30 16367 O 1558.69 -1.43843 -4.13813 0
M  V30 16368 C 1560.19 0.343043 -4.41971 0
M  V30 16369 H 1557.41 -0.10262 -0.663106 0
M  V30 16370 H 1559.95 -0.928957 -1.82183 0
M  V30 16371 H 1558.11 0.519335 -3.83903 0
M  V30 16372 H 1558.52 -1.31561 -5.07732 0
M  V30 16373 H 1560 0.339053 -5.50958 0
M  V30 16374 H 1560.47 1.37933 -4.16979 0
M  V30 16375 H 1561.08 -0.291267 -4.24301 0
M  V30 16376 N 1559.4 1.51781 -0.424309 0
M  V30 16377 C 1560.81 1.86653 0.0418266 0
M  V30 16378 C 1561.16 1.34224 1.43103 0
M  V30 16379 O 1560.28 0.687684 2.05183 0
M  V30 16380 C 1560.88 3.38699 0.0826759 0
M  V30 16381 C 1559.44 3.73155 0.493186 0
M  V30 16382 C 1558.58 2.75417 -0.322586 0
M  V30 16383 H 1561.53 1.45191 -0.640726 0
M  V30 16384 H 1561.56 3.69828 0.894864 0
M  V30 16385 H 1561.07 3.76829 -0.928536 0
M  V30 16386 H 1559.17 3.4061 1.51048 0
M  V30 16387 H 1559.28 4.78562 0.227032 0
M  V30 16388 H 1557.65 2.53772 0.217262 0
M  V30 16389 H 1558.43 3.16388 -1.33243 0
M  V30 16390 N 1560.87 0.155222 1.56834 0
M  V30 16391 C 1561.78 -0.794179 2.20749 0
M  V30 16392 C 1562.8 -1.26546 1.19424 0
M  V30 16393 O 1563.98 -1.32094 1.5203 0
M  V30 16394 C 1561.04 -2.01261 2.82303 0
M  V30 16395 C 1560.1 -1.58976 3.98779 0
M  V30 16396 C 1559.33 -2.75011 4.57389 0
M  V30 16397 O 1559.56 -3.91449 4.14879 0
M  V30 16398 O 1558.49 -2.50011 5.4752 0
M  V30 16399 H 1562.32 -0.280064 3.02406 0
M  V30 16400 H 1559.9 -0.0722048 1.49225 0
M  V30 16401 H 1561.78 -2.72551 3.21394 0
M  V30 16402 H 1560.46 -2.51609 2.03653 0
M  V30 16403 H 1559.37 -0.846848 3.64389 0
M  V30 16404 H 1560.7 -1.13336 4.78974 0
M  V30 16405 N 1562.35 -1.57153 -0.118549 0
M  V30 16406 C 1563.6 -1.84876 -0.826255 0
M  V30 16407 C 1563.93 -0.740373 -1.79858 0
M  V30 16408 O 1563.18 0.268233 -1.93853 0
M  V30 16409 C 1563.48 -3.19084 -1.60998 0
M  V30 16410 C 1563.15 -4.44069 -0.781911 0
M  V30 16411 C 1561.81 -4.78005 -0.553559 0
M  V30 16412 C 1564.16 -5.20798 -0.204739 0
M  V30 16413 C 1561.49 -5.86114 0.262212 0
M  V30 16414 C 1563.84 -6.29765 0.598225 0
M  V30 16415 C 1562.5 -6.62233 0.83689 0
M  V30 16416 H 1561.77 -0.676511 -0.302348 0
M  V30 16417 H 1564.42 -1.91295 -0.0886182 0
M  V30 16418 H 1562.73 -3.08243 -2.41854 0
M  V30 16419 H 1564.42 -3.37755 -2.16153 0
M  V30 16420 H 1561.01 -4.1748 -0.969984 0
M  V30 16421 H 1565.2 -4.94931 -0.368374 0
M  V30 16422 H 1560.45 -6.09695 0.456338 0
M  V30 16423 H 1564.63 -6.88401 1.05244 0
M  V30 16424 H 1562.25 -7.45835 1.47083 0
M  V30 16425 N 1563.83 0.388742 -1.5273 0
M  V30 16426 C 1565.06 1.15495 -1.71664 0
M  V30 16427 C 1565.47 1.83717 -0.435127 0
M  V30 16428 O 1564.83 1.72686 0.590411 0
M  V30 16429 C 1564.88 2.20279 -2.86635 0
M  V30 16430 O 1564.6 1.54838 -4.09825 0
M  V30 16431 C 1566.1 3.09625 -3.1725 0
M  V30 16432 H 1563.32 0.346271 -0.57475 0
M  V30 16433 H 1565.87 0.454729 -1.9938 0
M  V30 16434 H 1564.02 2.85936 -2.61379 0
M  V30 16435 H 1564.44 2.24466 -4.74042 0
M  V30 16436 H 1565.91 3.79177 -4.01159 0
M  V30 16437 H 1566.39 3.73147 -2.31643 0
M  V30 16438 H 1566.99 2.49612 -3.44345 0
M  V30 16439 N 1565.31 1.43698 0.647203 0
M  V30 16440 C 1566.24 1.43777 1.7721 0
M  V30 16441 C 1567.22 0.298484 1.59837 0
M  V30 16442 O 1568.4 0.493002 1.81939 0
M  V30 16443 C 1565.53 1.2551 3.14587 0
M  V30 16444 C 1564.58 2.42793 3.50647 0
M  V30 16445 S 1565.41 4.05341 3.49941 0
M  V30 16446 C 1566.56 3.89468 4.89965 0
M  V30 16447 H 1566.8 2.38963 1.76873 0
M  V30 16448 H 1564.33 1.30801 0.820387 0
M  V30 16449 H 1566.29 1.15658 3.9387 0
M  V30 16450 H 1564.95 0.318629 3.1248 0
M  V30 16451 H 1564.14 2.25832 4.50573 0
M  V30 16452 H 1563.74 2.49302 2.78791 0
M  V30 16453 H 1566.04 3.52164 5.7878 0
M  V30 16454 H 1566.98 4.89167 5.11978 0
M  V30 16455 H 1567.39 3.21816 4.63783 0
M  V30 16456 N 1566.79 -0.886131 1.30328 0
M  V30 16457 C 1567.72 -2.00793 1.19183 0
M  V30 16458 C 1568.7 -1.69899 0.08276 0
M  V30 16459 O 1569.88 -1.92389 0.264593 0
M  V30 16460 C 1567.01 -3.35922 0.881669 0
M  V30 16461 C 1565.97 -3.81072 1.94855 0
M  V30 16462 C 1565.29 -5.1348 1.4914 0
M  V30 16463 C 1566.59 -3.99923 3.35944 0
M  V30 16464 H 1568.29 -2.10375 2.13032 0
M  V30 16465 H 1565.83 -1.0108 1.02561 0
M  V30 16466 H 1567.79 -4.13922 0.790359 0
M  V30 16467 H 1566.51 -3.26469 -0.0925037 0
M  V30 16468 H 1565.17 -3.053 2.02947 0
M  V30 16469 H 1564.82 -5.00453 0.50553 0
M  V30 16470 H 1564.52 -5.44659 2.205 0
M  V30 16471 H 1566.04 -5.94005 1.41386 0
M  V30 16472 H 1567.45 -4.68364 3.30617 0
M  V30 16473 H 1565.85 -4.42477 4.05381 0
M  V30 16474 H 1566.92 -3.03816 3.77921 0
M  V30 16475 N 1568.26 -1.13026 -1.09832 0
M  V30 16476 C 1569.19 -0.826338 -2.18389 0
M  V30 16477 C 1570.18 0.212529 -1.68767 0
M  V30 16478 O 1571.36 0.072363 -1.94065 0
M  V30 16479 C 1568.49 -0.286991 -3.46112 0
M  V30 16480 C 1567.44 -1.25963 -4.09044 0
M  V30 16481 C 1566.77 -0.580231 -5.31542 0
M  V30 16482 C 1568.07 -2.61661 -4.5203 0
M  V30 16483 H 1569.76 -1.73408 -2.4407 0
M  V30 16484 H 1567.31 -0.835201 -1.17305 0
M  V30 16485 H 1569.26 -0.062067 -4.21354 0
M  V30 16486 H 1567.99 0.656121 -3.19942 0
M  V30 16487 H 1566.65 -1.47047 -3.35816 0
M  V30 16488 H 1566.29 0.368222 -5.0165 0
M  V30 16489 H 1565.99 -1.2291 -5.74601 0
M  V30 16490 H 1567.52 -0.36449 -6.09511 0
M  V30 16491 H 1568.93 -2.44569 -5.18516 0
M  V30 16492 H 1567.33 -3.22685 -5.05959 0
M  V30 16493 H 1568.4 -3.19637 -3.64637 0
M  V30 16494 N 1569.74 1.27735 -0.923117 0
M  V30 16495 C 1570.99 1.94185 -0.56004 0
M  V30 16496 C 1571.31 1.72945 0.90084 0
M  V30 16497 O 1570.58 1.07453 1.63801 0
M  V30 16498 H 1569.16 0.718568 -0.204129 0
M  V30 16499 H 1571.82 1.55535 -1.17451 0
M  V30 16500 H 1570.92 3.02644 -0.762424 0
M  V30 16501 N 1571.22 0.688118 1.41784 0
M  V30 16502 C 1572.18 0.0271411 2.29184 0
M  V30 16503 C 1573.18 -0.715537 1.44002 0
M  V30 16504 O 1574.37 -0.551542 1.65238 0
M  V30 16505 C 1571.51 -0.97206 3.26747 0
M  V30 16506 H 1572.7 0.79658 2.89127 0
M  V30 16507 H 1570.25 0.451198 1.49646 0
M  V30 16508 H 1570.99 -1.76953 2.71769 0
M  V30 16509 H 1570.77 -0.442746 3.89592 0
M  V30 16510 H 1572.26 -1.43256 3.92259 0
M  V30 16511 N 1572.7 -1.51554 0.432352 0
M  V30 16512 C 1573.63 -2.30514 -0.372243 0
M  V30 16513 C 1574.61 -1.35712 -1.02549 0
M  V30 16514 O 1575.79 -1.6463 -1.03009 0
M  V30 16515 C 1572.92 -3.14353 -1.47646 0
M  V30 16516 C 1571.88 -4.17392 -0.946974 0
M  V30 16517 C 1571.2 -4.89721 -2.14656 0
M  V30 16518 C 1572.5 -5.22298 0.0151377 0
M  V30 16519 H 1574.2 -2.98024 0.28668 0
M  V30 16520 H 1571.74 -1.43325 0.139315 0
M  V30 16521 H 1573.7 -3.68369 -2.04651 0
M  V30 16522 H 1572.42 -2.44654 -2.1636 0
M  V30 16523 H 1571.08 -3.6442 -0.399174 0
M  V30 16524 H 1570.73 -4.1653 -2.81978 0
M  V30 16525 H 1570.43 -5.59393 -1.79869 0
M  V30 16526 H 1571.95 -5.46559 -2.72224 0
M  V30 16527 H 1573.37 -5.71416 -0.464447 0
M  V30 16528 H 1571.76 -5.99468 0.275339 0
M  V30 16529 H 1572.83 -4.75436 0.953357 0
M  V30 16530 N 1574.18 -0.163538 -1.56749 0
M  V30 16531 C 1575.59 0.354516 -1.83303 0
M  V30 16532 C 1575.94 1.63601 -1.08301 0
M  V30 16533 O 1575.06 2.13814 -0.333546 0
M  V30 16534 C 1575.66 0.649983 -3.32507 0
M  V30 16535 C 1574.22 1.1125 -3.59584 0
M  V30 16536 C 1573.36 0.144257 -2.76925 0
M  V30 16537 H 1576.32 -0.387945 -1.53885 0
M  V30 16538 H 1576.34 1.5029 -3.49562 0
M  V30 16539 H 1575.85 -0.282886 -3.87068 0
M  V30 16540 H 1573.95 2.06074 -3.10426 0
M  V30 16541 H 1574.06 1.02704 -4.67962 0
M  V30 16542 H 1572.43 0.640116 -2.46525 0
M  V30 16543 H 1573.21 -0.782495 -3.34263 0
M  V30 16544 N 1575.65 1.57214 0.110213 0
M  V30 16545 C 1576.6 2.00978 1.13474 0
M  V30 16546 C 1577.57 0.883436 1.40658 0
M  V30 16547 O 1578.76 1.14832 1.52376 0
M  V30 16548 C 1575.9 2.42654 2.45383 0
M  V30 16549 C 1575.01 3.68744 2.2506 0
M  V30 16550 C 1574.14 3.99363 3.50261 0
M  V30 16551 C 1573.18 5.18608 3.25133 0
M  V30 16552 N 1572.32 5.45055 4.42561 0
M  V30 16553 H 1577.16 2.88289 0.754543 0
M  V30 16554 H 1574.7 1.426 0.361064 0
M  V30 16555 H 1576.66 2.64857 3.22345 0
M  V30 16556 H 1575.29 1.58374 2.81278 0
M  V30 16557 H 1574.34 3.54106 1.38972 0
M  V30 16558 H 1575.65 4.55857 2.02475 0
M  V30 16559 H 1574.8 4.22261 4.35638 0
M  V30 16560 H 1573.54 3.10743 3.75886 0
M  V30 16561 H 1572.55 4.95546 2.38148 0
M  V30 16562 H 1573.77 6.08814 3.0087 0
M  V30 16563 H 1571.72 4.59392 4.6829 0
M  V30 16564 H 1571.64 6.26508 4.23111 0
M  V30 16565 H 1572.9 5.72478 5.29046 0
M  V30 16566 N 1577.13 -0.380637 1.52934 0
M  V30 16567 C 1578.36 -1.14583 1.72274 0
M  V30 16568 C 1578.78 -1.83484 0.444864 0
M  V30 16569 O 1578.13 -1.72997 -0.581245 0
M  V30 16570 C 1578.18 -2.18756 2.87799 0
M  V30 16571 O 1577.9 -1.52662 4.10641 0
M  V30 16572 C 1579.41 -3.07938 3.18887 0
M  V30 16573 H 1576.63 -0.343218 0.576578 0
M  V30 16574 H 1579.17 -0.444149 1.99619 0
M  V30 16575 H 1577.32 -2.84546 2.62892 0
M  V30 16576 H 1577.74 -2.21949 4.75225 0
M  V30 16577 H 1579.21 -3.77045 4.03164 0
M  V30 16578 H 1579.69 -3.71913 2.33618 0
M  V30 16579 H 1580.3 -2.47783 3.45664 0
M  V30 16580 N 1578.61 -1.44039 -0.639573 0
M  V30 16581 C 1579.86 -1.46377 -1.39928 0
M  V30 16582 C 1580.19 -0.0931685 -1.94277 0
M  V30 16583 O 1579.44 0.903841 -1.73578 0
M  V30 16584 C 1579.74 -2.46459 -2.5883 0
M  V30 16585 C 1579.41 -3.91998 -2.2282 0
M  V30 16586 C 1578.07 -4.31633 -2.12712 0
M  V30 16587 C 1580.42 -4.83656 -1.94232 0
M  V30 16588 C 1577.75 -5.60863 -1.72191 0
M  V30 16589 C 1580.1 -6.13265 -1.55206 0
M  V30 16590 C 1578.76 -6.51863 -1.43633 0
M  V30 16591 H 1578.03 -0.535633 -0.512034 0
M  V30 16592 H 1580.68 -1.77202 -0.72607 0
M  V30 16593 H 1578.99 -2.09087 -3.31345 0
M  V30 16594 H 1580.68 -2.45518 -3.17052 0
M  V30 16595 H 1577.27 -3.60636 -2.31602 0
M  V30 16596 H 1581.46 -4.53796 -2.00955 0
M  V30 16597 H 1576.71 -5.89595 -1.61828 0
M  V30 16598 H 1580.89 -6.83752 -1.32121 0
M  V30 16599 H 1578.51 -7.51903 -1.12006 0
M  V30 16600 N 1580.09 0.879207 -1.30796 0
M  V30 16601 C 1581.02 1.99134 -1.13482 0
M  V30 16602 C 1582.03 1.6262 -0.0764492 0
M  V30 16603 O 1583.22 1.75553 -0.323038 0
M  V30 16604 C 1580.32 3.31386 -0.709706 0
M  V30 16605 C 1579.5 3.963 -1.85108 0
M  V30 16606 C 1578.55 5.06858 -1.41356 0
M  V30 16607 O 1577.58 5.28178 -2.12172 0
M  V30 16608 N 1578.78 5.79746 -0.295789 0
M  V30 16609 H 1581.55 2.14536 -2.09271 0
M  V30 16610 H 1579.11 1.05264 -1.23009 0
M  V30 16611 H 1581.1 4.02719 -0.399903 0
M  V30 16612 H 1579.67 3.12209 0.156309 0
M  V30 16613 H 1578.89 3.18065 -2.3287 0
M  V30 16614 H 1580.18 4.36408 -2.61582 0
M  V30 16615 H 1579.58 5.64935 0.294166 0
M  V30 16616 H 1578.13 6.51784 -0.0454707 0
M  V30 16617 N 1581.57 1.13606 1.09231 0
M  V30 16618 C 1582.84 0.81012 1.78035 0
M  V30 16619 C 1583.22 -0.697953 1.99228 0
M  V30 16620 O 1582.57 -1.63592 1.5953 0
M  V30 16621 C 1582.78 1.59932 3.10198 0
M  V30 16622 C 1584.13 1.79328 3.84872 0
M  V30 16623 O 1585.15 1.56547 3.19955 0
M  V30 16624 O 1584.01 2.17355 5.01417 0
M  V30 16625 H 1581.11 0.295995 0.772215 0
M  V30 16626 H 1583.65 1.24079 1.15769 0
M  V30 16627 H 1582.43 2.6241 2.9027 0
M  V30 16628 H 1582.05 1.16371 3.80189 0
M  V30 16629 N 1583.05 -1.27244 0.929878 0
M  V30 16630 C 1584.29 -1.93886 0.570331 0
M  V30 16631 C 1584.61 -1.7342 -0.891656 0
M  V30 16632 O 1583.88 -1.0832 -1.63228 0
M  V30 16633 H 1582.46 -0.717476 0.207937 0
M  V30 16634 H 1585.13 -1.5491 1.18275 0
M  V30 16635 H 1584.22 -3.02236 0.778463 0
M  V30 16636 N 1584.52 -0.695628 -1.41417 0
M  V30 16637 C 1585.49 -0.0392949 -2.29166 0
M  V30 16638 C 1586.49 0.70789 -1.4438 0
M  V30 16639 O 1587.68 0.542771 -1.65528 0
M  V30 16640 C 1584.81 0.954719 -3.27258 0
M  V30 16641 H 1586 -0.811902 -2.88701 0
M  V30 16642 H 1583.55 -0.459128 -1.49405 0
M  V30 16643 H 1584.29 1.75509 -2.72703 0
M  V30 16644 H 1584.07 0.422079 -3.89822 0
M  V30 16645 H 1585.56 1.41174 -3.93014 0
M  V30 16646 N 1586 1.51322 -0.440383 0
M  V30 16647 C 1587.23 2.0653 0.123649 0
M  V30 16648 C 1587.64 1.30751 1.36197 0
M  V30 16649 O 1587 0.367932 1.78753 0
M  V30 16650 C 1587.05 3.58778 0.442802 0
M  V30 16651 O 1586.77 4.31695 -0.746375 0
M  V30 16652 C 1588.27 4.3051 1.05717 0
M  V30 16653 H 1585.49 0.670968 0.00657466 0
M  V30 16654 H 1588.04 1.94864 -0.620341 0
M  V30 16655 H 1586.19 3.70349 1.13669 0
M  V30 16656 H 1586.61 5.22368 -0.472466 0
M  V30 16657 H 1588.08 5.38111 1.23046 0
M  V30 16658 H 1588.56 3.88999 2.03903 0
M  V30 16659 H 1589.16 4.2339 0.402574 0
M  V30 16660 N 1587.48 0.171848 1.5666 0
M  V30 16661 C 1588.43 -0.758237 2.17989 0
M  V30 16662 C 1589.4 -1.22654 1.12006 0
M  V30 16663 O 1590.58 -1.29461 1.40159 0
M  V30 16664 C 1587.72 -1.98189 2.82516 0
M  V30 16665 C 1586.83 -1.55711 4.02962 0
M  V30 16666 C 1585.97 -2.73447 4.55412 0
M  V30 16667 C 1585.01 -2.27462 5.68267 0
M  V30 16668 N 1584.15 -3.38293 6.15225 0
M  V30 16669 H 1588.99 -0.228467 2.97123 0
M  V30 16670 H 1586.52 -0.10104 1.46753 0
M  V30 16671 H 1588.48 -2.6996 3.18084 0
M  V30 16672 H 1587.11 -2.48536 2.05985 0
M  V30 16673 H 1586.16 -0.736126 3.7321 0
M  V30 16674 H 1587.47 -1.17957 4.84652 0
M  V30 16675 H 1586.63 -3.53374 4.93165 0
M  V30 16676 H 1585.37 -3.14462 3.7278 0
M  V30 16677 H 1584.37 -1.45982 5.30065 0
M  V30 16678 H 1585.6 -1.87505 6.52701 0
M  V30 16679 H 1583.54 -3.78882 5.35522 0
M  V30 16680 H 1583.46 -3.04633 6.91907 0
M  V30 16681 H 1584.73 -4.18503 6.57629 0
M  V30 16682 N 1588.96 -1.5727 -0.101874 0
M  V30 16683 C 1589.89 -2.04614 -1.12496 0
M  V30 16684 C 1590.87 -0.933768 -1.42179 0
M  V30 16685 O 1592.05 -1.2046 -1.52325 0
M  V30 16686 C 1589.18 -2.46488 -2.44665 0
M  V30 16687 C 1588.14 -3.61327 -2.29406 0
M  V30 16688 C 1587.46 -3.89155 -3.66691 0
M  V30 16689 C 1588.76 -4.92455 -1.74026 0
M  V30 16690 H 1590.46 -2.90336 -0.731109 0
M  V30 16691 H 1588 -1.39676 -0.350239 0
M  V30 16692 H 1589.96 -2.78216 -3.16502 0
M  V30 16693 H 1588.68 -1.57757 -2.85972 0
M  V30 16694 H 1587.34 -3.29835 -1.60015 0
M  V30 16695 H 1586.99 -2.97603 -4.05514 0
M  V30 16696 H 1586.69 -4.66465 -3.57329 0
M  V30 16697 H 1588.21 -4.23352 -4.40006 0
M  V30 16698 H 1589.63 -5.22609 -2.35697 0
M  V30 16699 H 1588.02 -5.73882 -1.75441 0
M  V30 16700 H 1589.09 -4.79833 -0.699136 0
M  V30 16701 N 1590.44 0.372521 -1.53134 0
M  V30 16702 C 1591.37 1.4621 -1.82057 0
M  V30 16703 C 1592.35 1.56194 -0.673612 0
M  V30 16704 O 1593.53 1.70875 -0.922797 0
M  V30 16705 C 1590.66 2.83632 -2.00425 0
M  V30 16706 C 1589.62 2.88478 -3.16171 0
M  V30 16707 C 1588.94 4.28508 -3.19821 0
M  V30 16708 C 1590.24 2.56628 -4.54906 0
M  V30 16709 H 1591.94 1.22256 -2.73302 0
M  V30 16710 H 1589.48 0.586688 -1.31507 0
M  V30 16711 H 1591.43 3.59876 -2.19242 0
M  V30 16712 H 1590.16 3.0896 -1.05884 0
M  V30 16713 H 1588.82 2.14684 -2.97164 0
M  V30 16714 H 1588.47 4.509 -2.2293 0
M  V30 16715 H 1588.17 4.32667 -3.97584 0
M  V30 16716 H 1589.69 5.06635 -3.40813 0
M  V30 16717 H 1591.1 3.22587 -4.73931 0
M  V30 16718 H 1589.5 2.72114 -5.34859 0
M  V30 16719 H 1590.57 1.51902 -4.60493 0
M  V30 16720 N 1591.91 1.44376 0.631925 0
M  V30 16721 C 1592.86 1.47617 1.73762 0
M  V30 16722 C 1593.85 0.342055 1.57222 0
M  V30 16723 O 1595.04 0.587306 1.66972 0
M  V30 16724 C 1592.17 1.42245 3.12444 0
M  V30 16725 C 1591.25 2.60767 3.34457 0
M  V30 16726 N 1591.65 3.86017 3.2684 0
M  V30 16727 C 1589.94 2.55946 3.6525 0
M  V30 16728 C 1590.64 4.64986 3.49519 0
M  V30 16729 N 1589.62 3.96047 3.72354 0
M  V30 16730 H 1593.42 2.42305 1.6633 0
M  V30 16731 H 1590.94 1.39328 0.834362 0
M  V30 16732 H 1592.93 1.4265 3.91735 0
M  V30 16733 H 1591.59 0.485942 3.21043 0
M  V30 16734 H 1592.6 4.17997 3.05776 0
M  V30 16735 H 1589.28 1.71087 3.80835 0
M  V30 16736 H 1590.67 5.74011 3.49229 0
M  V30 16737 N 1593.39 -0.872258 1.31261 0
M  V30 16738 C 1594.34 -2.00065 1.18645 0
M  V30 16739 C 1595.33 -1.69132 0.0952872 0
M  V30 16740 O 1596.54 -1.78156 0.257022 0
M  V30 16741 H 1592.91 -0.656201 0.367293 0
M  V30 16742 H 1594.89 -2.07837 2.14117 0
M  V30 16743 C 1593.63 -3.35628 0.908241 0
M  V30 16744 H 1592.96 -3.5995 1.74 0
M  V30 16745 H 1594.4 -4.15184 0.860134 0
M  V30 16746 C 1592.86 -3.34647 -0.388993 0
M  V30 16747 O 1593.39 -3.76271 -1.40651 0
M  V30 16748 N 1591.59 -2.87768 -0.404708 0
M  V30 16749 H 1591.14 -2.5409 0.423824 0
M  V30 16750 H 1591.1 -2.87494 -1.27258 0
M  V30 16751 N 1594.87 -1.14184 -1.08627 0
M  V30 16752 C 1595.82 -0.795361 -2.13677 0
M  V30 16753 C 1596.8 0.214426 -1.59465 0
M  V30 16754 O 1598 0.0171053 -1.76992 0
M  V30 16755 C 1595.12 -0.272074 -3.4222 0
M  V30 16756 C 1594.21 -1.31125 -4.0332 0
M  V30 16757 N 1594.6 -2.51469 -4.38859 0
M  V30 16758 C 1592.9 -1.16095 -4.30625 0
M  V30 16759 C 1593.6 -3.17975 -4.871 0
M  V30 16760 N 1592.58 -2.45382 -4.85066 0
M  V30 16761 H 1596.38 -1.71086 -2.38971 0
M  V30 16762 H 1593.89 -1.02537 -1.25936 0
M  V30 16763 H 1595.89 -0.00556906 -4.169 0
M  V30 16764 H 1594.55 0.637644 -3.18377 0
M  V30 16765 H 1595.56 -2.88714 -4.29959 0
M  V30 16766 H 1592.24 -0.310066 -4.16347 0
M  V30 16767 H 1593.63 -4.20569 -5.23996 0
M  V30 16768 N 1596.35 1.26749 -0.936613 0
M  V30 16769 C 1597.28 2.2892 -0.460213 0
M  V30 16770 C 1598.26 1.63065 0.484135 0
M  V30 16771 O 1599.44 1.90305 0.386973 0
M  V30 16772 C 1596.57 3.46172 0.279648 0
M  V30 16773 C 1595.53 4.24083 -0.57771 0
M  V30 16774 C 1594.85 5.33903 0.291843 0
M  V30 16775 C 1596.15 4.88562 -1.84673 0
M  V30 16776 H 1597.85 2.69019 -1.31412 0
M  V30 16777 H 1595.39 1.29325 -0.633333 0
M  V30 16778 H 1597.35 4.16755 0.623931 0
M  V30 16779 H 1596.07 3.05014 1.16765 0
M  V30 16780 H 1594.73 3.55258 -0.904824 0
M  V30 16781 H 1594.38 4.88986 1.17906 0
M  V30 16782 H 1594.08 5.8694 -0.278372 0
M  V30 16783 H 1595.6 6.07326 0.631498 0
M  V30 16784 H 1597.02 5.51384 -1.56997 0
M  V30 16785 H 1595.41 5.51697 -2.36115 0
M  V30 16786 H 1596.48 4.11761 -2.56088 0
M  V30 16787 N 1597.83 0.703118 1.41046 0
M  V30 16788 C 1598.77 0.0425767 2.30761 0
M  V30 16789 C 1599.74 -0.763406 1.47517 0
M  V30 16790 O 1600.93 -0.7299 1.76287 0
M  V30 16791 C 1598.07 -0.882353 3.33629 0
M  V30 16792 C 1597.18 -0.0671799 4.31948 0
M  V30 16793 C 1596.32 -0.990443 5.21885 0
M  V30 16794 C 1595.36 -0.168622 6.11868 0
M  V30 16795 N 1594.49 -1.04609 6.94263 0
M  V30 16796 H 1599.33 0.813363 2.86685 0
M  V30 16797 H 1596.87 0.412804 1.41189 0
M  V30 16798 H 1598.83 -1.43273 3.91827 0
M  V30 16799 H 1597.46 -1.61946 2.79237 0
M  V30 16800 H 1596.51 0.600219 3.75635 0
M  V30 16801 H 1597.82 0.569624 4.95537 0
M  V30 16802 H 1596.98 -1.60979 5.84954 0
M  V30 16803 H 1595.71 -1.66109 4.5854 0
M  V30 16804 H 1594.72 0.463746 5.47841 0
M  V30 16805 H 1595.94 0.49834 6.77269 0
M  V30 16806 H 1593.89 -1.70262 6.33519 0
M  V30 16807 H 1593.81 -0.465036 7.54568 0
M  V30 16808 H 1595.08 -1.65201 7.61793 0
M  V30 16809 N 1599.3 -1.51086 0.448402 0
M  V30 16810 C 1600.25 -2.29611 -0.371711 0
M  V30 16811 C 1601.25 -1.35926 -1.01096 0
M  V30 16812 O 1602.45 -1.53219 -0.944663 0
M  V30 16813 H 1598.83 -0.739099 -0.138694 0
M  V30 16814 H 1600.8 -2.96772 0.311275 0
M  V30 16815 C 1599.55 -3.1583 -1.45418 0
M  V30 16816 H 1598.87 -3.87813 -0.971661 0
M  V30 16817 H 1600.31 -3.7381 -2.00105 0
M  V30 16818 C 1598.77 -2.31927 -2.44359 0
M  V30 16819 O 1599.3 -1.98655 -3.4914 0
M  V30 16820 N 1597.51 -1.94938 -2.15517 0
M  V30 16821 H 1597.05 -2.22195 -1.30335 0
M  V30 16822 H 1597.01 -1.39098 -2.81956 0
M  V30 16823 N 1600.78 -0.180154 -1.56567 0
M  V30 16824 C 1602.01 0.471692 -2.01965 0
M  V30 16825 C 1602.43 1.5542 -1.05954 0
M  V30 16826 O 1601.79 1.81255 -0.0405307 0
M  V30 16827 C 1601.84 1.01883 -3.45908 0
M  V30 16828 O 1600.94 2.13245 -3.52988 0
M  V30 16829 H 1600.28 0.11197 -0.654491 0
M  V30 16830 H 1602.81 -0.286642 -2.02582 0
M  V30 16831 H 1602.82 1.33922 -3.85395 0
M  V30 16832 H 1601.5 0.226299 -4.15284 0
M  V30 16833 H 1600.08 1.82184 -3.25367 0
M  V30 16834 N 1602.26 1.57322 0.0935319 0
M  V30 16835 C 1603.49 1.90754 0.814111 0
M  V30 16836 C 1603.91 0.774571 1.71412 0
M  V30 16837 O 1603.27 -0.273775 1.79221 0
M  V30 16838 C 1603.32 3.23055 1.60211 0
M  V30 16839 O 1602.42 3.10755 2.71118 0
M  V30 16840 H 1601.76 0.625237 0.223552 0
M  V30 16841 H 1604.29 2.04486 0.068288 0
M  V30 16842 H 1604.3 3.56401 1.986 0
M  V30 16843 H 1602.98 4.05101 0.941607 0
M  V30 16844 H 1601.55 2.88926 2.35745 0
M  V30 16845 N 1603.74 -0.364395 1.53329 0
M  V30 16846 C 1604.69 -1.46678 1.80523 0
M  V30 16847 C 1605.68 -1.55396 0.674421 0
M  V30 16848 O 1606.89 -1.58268 0.857385 0
M  V30 16849 H 1603.26 -0.488652 0.571597 0
M  V30 16850 H 1605.23 -1.20947 2.7279 0
M  V30 16851 C 1603.98 -2.83496 2.01309 0
M  V30 16852 H 1603.3 -2.77546 2.87764 0
M  V30 16853 H 1604.74 -3.59805 2.24313 0
M  V30 16854 C 1603.2 -3.27445 0.792539 0
M  V30 16855 O 1603.73 -4.01696 -0.0181965 0
M  V30 16856 N 1601.94 -2.84004 0.615643 0
M  V30 16857 H 1601.49 -2.23746 1.27654 0
M  V30 16858 H 1601.44 -3.13766 -0.199604 0
M  V30 16859 N 1605.22 -1.44709 -0.62426 0
M  V30 16860 C 1606.44 -1.51348 -1.41072 0
M  V30 16861 C 1606.86 -0.140576 -1.88276 0
M  V30 16862 O 1606.22 0.854821 -1.61242 0
M  V30 16863 C 1606.27 -2.48396 -2.62643 0
M  V30 16864 O 1605.99 -3.8035 -2.17406 0
M  V30 16865 C 1607.49 -2.64568 -3.55694 0
M  V30 16866 H 1604.71 -0.513092 -0.432409 0
M  V30 16867 H 1607.25 -1.89739 -0.762841 0
M  V30 16868 H 1605.41 -2.13122 -3.23508 0
M  V30 16869 H 1605.82 -4.32809 -2.96272 0
M  V30 16870 H 1607.3 -3.36486 -4.37585 0
M  V30 16871 H 1607.77 -1.70031 -4.04952 0
M  V30 16872 H 1608.38 -3.00771 -3.00694 0
M  V30 16873 N 1606.69 0.865285 -1.31722 0
M  V30 16874 C 1607.92 1.65661 -1.24785 0
M  V30 16875 C 1608.34 1.87208 0.182952 0
M  V30 16876 O 1607.7 1.41721 1.1307 0
M  V30 16877 C 1607.75 2.99921 -2.00199 0
M  V30 16878 O 1606.85 3.89936 -1.34253 0
M  V30 16879 H 1606.2 0.505459 -0.430589 0
M  V30 16880 H 1608.73 1.0785 -1.73867 0
M  V30 16881 H 1608.74 3.49823 -2.09971 0
M  V30 16882 H 1607.41 2.83559 -3.04249 0
M  V30 16883 H 1605.99 3.4839 -1.32961 0
M  V30 16884 N 1608.17 1.14759 1.0802 0
M  V30 16885 C 1609.42 0.919609 1.80751 0
M  V30 16886 C 1609.75 -0.552268 1.86182 0
M  V30 16887 O 1609.03 -1.40922 1.34057 0
M  V30 16888 C 1609.31 1.52611 3.26162 0
M  V30 16889 C 1609.16 3.06811 3.28918 0
M  V30 16890 C 1610.48 1.20625 4.23246 0
M  V30 16891 H 1607.6 0.33551 0.656203 0
M  V30 16892 H 1610.24 1.41816 1.26444 0
M  V30 16893 H 1608.39 1.10213 3.72539 0
M  V30 16894 H 1610.06 3.58068 2.90835 0
M  V30 16895 H 1608.31 3.41055 2.68075 0
M  V30 16896 H 1608.98 3.44357 4.31419 0
M  V30 16897 H 1611.45 1.57287 3.85227 0
M  V30 16898 H 1610.33 1.65689 5.23296 0
M  V30 16899 H 1610.59 0.122177 4.41931 0
M  V30 16900 N 1609.65 -1.26251 0.943322 0
M  V30 16901 C 1610.9 -1.9327 0.590863 0
M  V30 16902 C 1611.22 -1.74356 -0.873212 0
M  V30 16903 O 1610.49 -1.10046 -1.6207 0
M  V30 16904 H 1609.07 -0.71523 0.215535 0
M  V30 16905 H 1611.73 -1.53647 1.19911 0
M  V30 16906 H 1610.83 -3.01393 0.810475 0
M  V30 16907 N 1611.13 -0.710588 -1.40671 0
M  V30 16908 C 1612.35 -0.256007 -2.05814 0
M  V30 16909 C 1612.78 1.09178 -1.53173 0
M  V30 16910 O 1612.14 1.68665 -0.664977 0
M  V30 16911 C 1612.19 -0.240528 -3.59797 0
M  V30 16912 O 1611.29 0.779859 -4.04959 0
M  V30 16913 H 1610.63 -0.121326 -0.652822 0
M  V30 16914 H 1613.16 -0.969667 -1.80163 0
M  V30 16915 H 1613.17 -0.0765027 -4.07928 0
M  V30 16916 H 1611.85 -1.22411 -3.97478 0
M  V30 16917 H 1610.42 0.583965 -3.68299 0
M  V30 16918 N 1612.61 1.50847 -0.456408 0
M  V30 16919 C 1614.02 1.867 0.00222532 0
M  V30 16920 C 1614.37 1.37229 1.40224 0
M  V30 16921 O 1613.49 0.731052 2.03678 0
M  V30 16922 C 1614.09 3.38798 0.0108142 0
M  V30 16923 C 1612.65 3.74117 0.413924 0
M  V30 16924 C 1611.8 2.74671 -0.380933 0
M  V30 16925 H 1614.75 1.43799 -0.671379 0
M  V30 16926 H 1614.77 3.71642 0.816217 0
M  V30 16927 H 1614.28 3.74774 -1.00826 0
M  V30 16928 H 1612.38 3.43737 1.43789 0
M  V30 16929 H 1612.49 4.78936 0.125471 0
M  V30 16930 H 1610.86 2.54175 0.163385 0
M  V30 16931 H 1611.64 3.1349 -1.39924 0
M  V30 16932 N 1614.09 0.188454 1.56469 0
M  V30 16933 C 1615.31 -0.460975 2.02212 0
M  V30 16934 C 1615.74 -1.54856 1.06777 0
M  V30 16935 O 1615.09 -1.81231 0.0501425 0
M  V30 16936 C 1615.14 -1.00047 3.46443 0
M  V30 16937 O 1614.25 -2.1137 3.54114 0
M  V30 16938 H 1613.59 -0.108497 0.655076 0
M  V30 16939 H 1616.12 0.297381 2.02427 0
M  V30 16940 H 1616.13 -1.31876 3.86099 0
M  V30 16941 H 1614.8 -0.204273 4.15398 0
M  V30 16942 H 1613.38 -1.80456 3.26328 0
M  V30 16943 N 1615.56 -1.5737 -0.0851874 0
M  V30 16944 C 1616.51 -2.03781 -1.12142 0
M  V30 16945 C 1617.51 -0.940669 -1.40882 0
M  V30 16946 O 1618.71 -1.12582 -1.40447 0
M  V30 16947 H 1615.09 -0.64956 -0.378914 0
M  V30 16948 H 1617.06 -2.89983 -0.703736 0
M  V30 16949 C 1615.81 -2.48628 -2.43062 0
M  V30 16950 H 1615.13 -3.32637 -2.21795 0
M  V30 16951 H 1616.57 -2.84869 -3.14048 0
M  V30 16952 C 1615.03 -1.36364 -3.08069 0
M  V30 16953 O 1615.56 -0.698273 -3.95584 0
M  V30 16954 N 1613.76 -1.11213 -2.68477 0
M  V30 16955 H 1613.31 -1.655 -1.97402 0
M  V30 16956 H 1613.27 -0.363003 -3.12297 0
M  V30 16957 N 1617.04 0.356258 -1.53521 0
M  V30 16958 C 1618.27 1.11828 -1.74075 0
M  V30 16959 C 1618.68 1.82753 -0.473998 0
M  V30 16960 O 1618.04 1.73899 0.553649 0
M  V30 16961 C 1618.09 2.14149 -2.91243 0
M  V30 16962 O 1617.81 1.4611 -4.13017 0
M  V30 16963 C 1619.31 3.02826 -3.23746 0
M  V30 16964 H 1616.53 0.334002 -0.581965 0
M  V30 16965 H 1619.08 0.412336 -2.003 0
M  V30 16966 H 1617.23 2.80328 -2.67386 0
M  V30 16967 H 1617.65 2.1436 -4.78696 0
M  V30 16968 H 1619.12 3.70583 -4.09112 0
M  V30 16969 H 1619.6 3.68149 -2.39505 0
M  V30 16970 H 1620.2 2.42252 -3.49563 0
M  V30 16971 N 1618.52 1.45038 0.616577 0
M  V30 16972 C 1619.77 1.47861 1.37186 0
M  V30 16973 C 1620.08 0.120862 1.95226 0
M  V30 16974 O 1621.29 0.0266872 2.71487 0
M  V30 16975 C 1619.74 2.6038 2.48455 0
M  V30 16976 C 1619.35 4.02428 1.96866 0
M  V30 16977 C 1621.1 2.7244 3.25541 0
M  V30 16978 C 1619 5.06345 3.05563 0
M  V30 16979 H 1617.93 0.550166 0.51559 0
M  V30 16980 H 1620.58 1.71151 0.661796 0
M  V30 16981 H 1618.97 2.30357 3.22105 0
M  V30 16982 H 1620.14 4.42087 1.29985 0
M  V30 16983 H 1618.45 3.94739 1.32552 0
M  V30 16984 H 1621.05 3.47248 4.06599 0
M  V30 16985 H 1621.39 1.7876 3.75966 0
M  V30 16986 H 1621.93 3.01944 2.58988 0
M  V30 16987 H 1618.67 6.01703 2.60065 0
M  V30 16988 H 1618.19 4.71264 3.7104 0
M  V30 16989 H 1619.87 5.30695 3.70097 0
M  V30 16990 N 1620 -0.858287 1.32179 0
M  V30 16991 C 1621.25 -1.60902 1.2229 0
M  V30 16992 C 1621.57 -1.93797 -0.216227 0
M  V30 16993 O 1620.84 -1.59312 -1.14002 0
M  V30 16994 H 1619.42 -0.596529 0.449624 0
M  V30 16995 H 1622.08 -1.02686 1.65655 0
M  V30 16996 H 1621.17 -2.54755 1.80295 0
M  V30 16997 N 1621.48 -1.1533 -1.07409 0
M  V30 16998 C 1622.89 -0.895817 -1.32088 0
M  V30 16999 C 1623.09 0.457526 -1.96237 0
M  V30 17000 O 1622.15 1.19958 -2.22185 0
M  V30 17001 C 1623.46 -2.03632 -2.21256 0
M  V30 17002 C 1625.01 -2.07079 -2.34707 0
M  V30 17003 C 1625.48 -3.20451 -3.27223 0
M  V30 17004 N 1626.97 -3.20095 -3.34804 0
M  V30 17005 C 1627.71 -4.04458 -4.0645 0
M  V30 17006 N 1627.21 -4.98883 -4.80715 0
M  V30 17007 N 1629 -3.92483 -4.02385 0
M  V30 17008 H 1621.15 -2.02478 -0.641578 0
M  V30 17009 H 1623.41 -0.882864 -0.345332 0
M  V30 17010 H 1623.12 -3.0132 -1.81381 0
M  V30 17011 H 1622.99 -1.96817 -3.21781 0
M  V30 17012 H 1625.38 -1.09991 -2.73836 0
M  V30 17013 H 1625.46 -2.17962 -1.3389 0
M  V30 17014 H 1625.1 -4.17791 -2.88813 0
M  V30 17015 H 1625.03 -3.06805 -4.27993 0
M  V30 17016 H 1627.53 -2.51712 -2.81868 0
M  V30 17017 H 1627.84 -5.59698 -5.32877 0
M  V30 17018 H 1626.18 -5.02872 -4.79734 0
M  V30 17019 H 1629.37 -3.18026 -3.43478 0
M  V30 17020 H 1629.55 -4.58454 -4.57956 0
M  V30 17021 N 1622.95 1.25748 -0.950004 0
M  V30 17022 C 1624.18 1.97413 -0.61933 0
M  V30 17023 C 1624.6 1.70656 0.807591 0
M  V30 17024 O 1623.95 0.979899 1.53962 0
M  V30 17025 C 1624 3.51053 -0.862801 0
M  V30 17026 O 1623.73 3.76884 -2.23361 0
M  V30 17027 C 1625.23 4.39951 -0.543879 0
M  V30 17028 H 1622.45 0.629394 -0.232603 0
M  V30 17029 H 1624.99 1.60037 -1.27312 0
M  V30 17030 H 1623.15 3.86557 -0.255493 0
M  V30 17031 H 1623.56 4.71368 -2.30026 0
M  V30 17032 H 1625.03 5.46676 -0.764804 0
M  V30 17033 H 1625.51 4.36094 0.521421 0
M  V30 17034 H 1626.12 4.10005 -1.1303 0
M  V30 17035 N 1624.43 0.718038 1.40292 0
M  V30 17036 C 1625.84 0.330675 1.83748 0
M  V30 17037 C 1626.19 -1.13511 1.6003 0
M  V30 17038 O 1625.32 -1.87381 1.08247 0
M  V30 17039 C 1625.91 0.593398 3.33563 0
M  V30 17040 C 1624.47 0.259717 3.75503 0
M  V30 17041 C 1623.62 0.864537 2.63479 0
M  V30 17042 H 1626.57 0.917 1.29525 0
M  V30 17043 H 1626.59 -0.140544 3.8024 0
M  V30 17044 H 1626.1 1.66028 3.50794 0
M  V30 17045 H 1624.2 -0.802011 3.63866 0
M  V30 17046 H 1624.32 0.730427 4.73499 0
M  V30 17047 H 1622.68 0.292399 2.53016 0
M  V30 17048 H 1623.46 1.93574 2.83521 0
M  V30 17049 N 1625.91 -1.50602 0.464402 0
M  V30 17050 C 1627.14 -2.07191 -0.0930678 0
M  V30 17051 C 1627.56 -1.32675 -1.33338 0
M  V30 17052 O 1626.92 -0.372453 -1.77433 0
M  V30 17053 C 1626.97 -3.5873 -0.366775 0
M  V30 17054 O 1626.07 -3.86125 -1.44849 0
M  V30 17055 H 1625.41 -0.663924 0.0100336 0
M  V30 17056 H 1627.94 -1.93882 0.653522 0
M  V30 17057 H 1627.95 -4.03425 -0.609258 0
M  V30 17058 H 1626.63 -4.12385 0.539608 0
M  V30 17059 H 1625.2 -3.53273 -1.19384 0
M  V30 17060 N 1627.39 -0.19675 -1.56367 0
M  V30 17061 C 1628.8 0.159068 -1.58805 0
M  V30 17062 C 1629 1.60902 -1.21297 0
M  V30 17063 O 1628.06 2.34491 -0.93649 0
M  V30 17064 C 1629.37 -0.144784 -3.00351 0
M  V30 17065 C 1630.92 -0.0850243 -3.12884 0
M  V30 17066 C 1631.4 -0.362209 -4.56565 0
M  V30 17067 N 1632.89 -0.310887 -4.62156 0
M  V30 17068 C 1633.62 -0.499187 -5.71223 0
M  V30 17069 N 1633.12 -0.747925 -6.88751 0
M  V30 17070 N 1634.91 -0.433329 -5.60427 0
M  V30 17071 H 1627.06 -1.1429 -1.79029 0
M  V30 17072 H 1629.33 -0.456298 -0.830961 0
M  V30 17073 H 1629.03 -1.15019 -3.3236 0
M  V30 17074 H 1628.91 0.551864 -3.73141 0
M  V30 17075 H 1631.29 0.910992 -2.80687 0
M  V30 17076 H 1631.37 -0.814774 -2.42477 0
M  V30 17077 H 1631.02 -1.35555 -4.89477 0
M  V30 17078 H 1630.95 0.388448 -5.25165 0
M  V30 17079 H 1633.44 -0.125318 -3.77692 0
M  V30 17080 H 1633.75 -0.880372 -7.67769 0
M  V30 17081 H 1632.1 -0.784838 -6.90554 0
M  V30 17082 H 1635.29 -0.239411 -4.67487 0
M  V30 17083 H 1635.46 -0.583495 -6.45368 0
M  V30 17084 N 1628.87 1.57413 0.0768405 0
M  V30 17085 C 1629.82 1.99785 1.09864 0
M  V30 17086 C 1630.8 0.879104 1.34761 0
M  V30 17087 O 1631.99 1.143 1.35146 0
M  V30 17088 C 1629.12 2.44111 2.41381 0
M  V30 17089 C 1628.21 3.62709 2.1978 0
M  V30 17090 N 1628.6 4.77051 1.68094 0
M  V30 17091 C 1626.9 3.6916 2.50273 0
M  V30 17092 C 1627.6 5.58921 1.6119 0
M  V30 17093 N 1626.57 5.0262 2.07061 0
M  V30 17094 H 1630.38 2.85631 0.692257 0
M  V30 17095 H 1627.89 1.59898 0.283993 0
M  V30 17096 H 1629.89 2.72703 3.15339 0
M  V30 17097 H 1628.55 1.59649 2.82741 0
M  V30 17098 H 1629.56 4.99443 1.3703 0
M  V30 17099 H 1626.23 2.95401 2.95033 0
M  V30 17100 H 1627.62 6.60708 1.22125 0
M  V30 17101 N 1630.34 -0.348112 1.53707 0
M  V30 17102 C 1631.57 -1.10903 1.74666 0
M  V30 17103 C 1631.99 -1.82499 0.483683 0
M  V30 17104 O 1631.34 -1.74191 -0.544419 0
M  V30 17105 C 1631.4 -2.12602 2.92374 0
M  V30 17106 O 1631.12 -1.43918 4.13787 0
M  V30 17107 C 1632.62 -3.01105 3.25347 0
M  V30 17108 H 1629.84 -0.330911 0.583728 0
M  V30 17109 H 1632.38 -0.401707 2.00516 0
M  V30 17110 H 1630.54 -2.78906 2.68869 0
M  V30 17111 H 1630.95 -2.11818 4.79826 0
M  V30 17112 H 1632.42 -3.68408 4.11071 0
M  V30 17113 H 1632.9 -3.66874 2.41455 0
M  V30 17114 H 1633.51 -2.40395 3.50842 0
M  V30 17115 N 1631.82 -1.45363 -0.608876 0
M  V30 17116 C 1633.05 -1.53066 -1.39949 0
M  V30 17117 C 1633.47 -0.16369 -1.87386 0
M  V30 17118 O 1632.83 0.851432 -1.60064 0
M  V30 17119 C 1632.88 -2.51836 -2.58091 0
M  V30 17120 O 1631.98 -2.03528 -3.58678 0
M  V30 17121 H 1631.32 -0.516031 -0.417861 0
M  V30 17122 H 1633.85 -1.90705 -0.74113 0
M  V30 17123 H 1633.86 -2.706 -3.05352 0
M  V30 17124 H 1632.54 -3.51117 -2.22912 0
M  V30 17125 H 1631.12 -1.94634 -3.18075 0
M  V30 17126 N 1633.3 0.851265 -1.32632 0
M  V30 17127 C 1634.53 1.64328 -1.26535 0
M  V30 17128 C 1634.95 1.87392 0.163086 0
M  V30 17129 O 1634.31 1.42913 1.1156 0
M  V30 17130 C 1634.36 2.97781 -2.03369 0
M  V30 17131 O 1633.46 3.8849 -1.38381 0
M  V30 17132 H 1632.8 0.500864 -0.435926 0
M  V30 17133 H 1635.33 1.06 -1.75001 0
M  V30 17134 H 1635.34 3.47576 -2.1367 0
M  V30 17135 H 1634.02 2.80316 -3.07239 0
M  V30 17136 H 1632.59 3.4696 -1.36649 0
M  V30 17137 N 1634.78 1.15898 1.06796 0
M  V30 17138 C 1636.19 0.902809 1.31611 0
M  V30 17139 C 1636.39 -0.447112 1.96477 0
M  V30 17140 O 1635.45 -1.18778 2.22818 0
M  V30 17141 C 1636.76 2.04803 2.20173 0
M  V30 17142 C 1638.31 2.08321 2.33605 0
M  V30 17143 C 1638.79 3.22182 3.25519 0
M  V30 17144 N 1640.28 3.21866 3.33101 0
M  V30 17145 C 1641.01 4.06608 4.04299 0
M  V30 17146 N 1640.51 5.01426 4.78063 0
M  V30 17147 N 1642.3 3.94612 4.00297 0
M  V30 17148 H 1634.45 2.02816 0.630831 0
M  V30 17149 H 1636.72 0.884683 0.340646 0
M  V30 17150 H 1636.42 3.02278 1.7978 0
M  V30 17151 H 1636.3 1.98521 3.20732 0
M  V30 17152 H 1638.68 1.11441 2.73249 0
M  V30 17153 H 1638.76 2.18668 1.32732 0
M  V30 17154 H 1638.41 4.19317 2.86594 0
M  V30 17155 H 1638.34 3.0907 4.2636 0
M  V30 17156 H 1640.83 2.53203 2.80529 0
M  V30 17157 H 1641.14 5.62517 5.29901 0
M  V30 17158 H 1639.49 5.0541 4.7706 0
M  V30 17159 H 1642.68 3.19843 3.41786 0
M  V30 17160 H 1642.85 4.60877 4.55518 0
M  V30 17161 N 1636.26 -1.25243 0.956659 0
M  V30 17162 C 1637.48 -1.97082 0.629791 0
M  V30 17163 C 1637.9 -1.71082 -0.798529 0
M  V30 17164 O 1637.26 -0.98805 -1.5344 0
M  V30 17165 C 1637.31 -3.5059 0.881406 0
M  V30 17166 O 1637.03 -3.75694 2.25356 0
M  V30 17167 C 1638.53 -4.39656 0.567203 0
M  V30 17168 H 1635.75 -0.628152 0.235938 0
M  V30 17169 H 1638.29 -1.5936 1.28159 0
M  V30 17170 H 1636.45 -3.86416 0.27599 0
M  V30 17171 H 1636.86 -4.70142 2.32523 0
M  V30 17172 H 1638.34 -5.46263 0.793785 0
M  V30 17173 H 1638.81 -4.36364 -0.498287 0
M  V30 17174 H 1639.42 -4.094 1.15203 0
M  V30 17175 N 1637.73 -0.725468 -1.3991 0
M  V30 17176 C 1638.96 -0.277821 -2.05531 0
M  V30 17177 C 1639.38 1.07547 -1.54322 0
M  V30 17178 O 1638.74 1.6795 -0.682828 0
M  V30 17179 C 1638.79 -0.278676 -3.59522 0
M  V30 17180 O 1637.89 0.736864 -4.05764 0
M  V30 17181 H 1637.24 -0.128243 -0.651498 0
M  V30 17182 H 1639.77 -0.988721 -1.79124 0
M  V30 17183 H 1639.78 -0.119765 -4.07824 0
M  V30 17184 H 1638.45 -1.2662 -3.96157 0
M  V30 17185 H 1637.03 0.544869 -3.68898 0
M  V30 17186 N 1639.21 1.50354 -0.472382 0
M  V30 17187 C 1640.62 1.86692 -0.0175768 0
M  V30 17188 C 1640.97 1.38708 1.3876 0
M  V30 17189 O 1640.1 0.752614 2.02891 0
M  V30 17190 C 1640.69 3.38791 -0.0251205 0
M  V30 17191 C 1639.25 3.74535 0.37422 0
M  V30 17192 C 1638.4 2.74252 -0.410045 0
M  V30 17193 H 1641.35 1.43079 -0.686593 0
M  V30 17194 H 1641.37 3.72487 0.776754 0
M  V30 17195 H 1640.88 3.73684 -1.04795 0
M  V30 17196 H 1638.99 3.45243 1.40135 0
M  V30 17197 H 1639.1 4.79042 0.0746666 0
M  V30 17198 H 1637.46 2.54334 0.136417 0
M  V30 17199 H 1638.25 3.11989 -1.43241 0
M  V30 17200 N 1640.69 0.205039 1.56261 0
M  V30 17201 C 1641.62 -0.706815 2.22545 0
M  V30 17202 C 1642.6 -1.21372 1.19176 0
M  V30 17203 O 1643.79 -1.26074 1.47712 0
M  V30 17204 C 1640.92 -1.92221 2.89255 0
M  V30 17205 C 1639.87 -1.54982 3.98954 0
M  V30 17206 C 1639.2 -2.84265 4.52877 0
M  V30 17207 C 1640.5 -0.75225 5.16854 0
M  V30 17208 H 1642.19 -0.15421 2.99003 0
M  V30 17209 H 1639.74 -0.0727309 1.43816 0
M  V30 17210 H 1641.69 -2.56542 3.34311 0
M  V30 17211 H 1640.41 -2.49952 2.10218 0
M  V30 17212 H 1639.07 -0.930155 3.54604 0
M  V30 17213 H 1638.72 -3.40105 3.70591 0
M  V30 17214 H 1638.42 -2.60089 5.26904 0
M  V30 17215 H 1639.95 -3.49557 5.00642 0
M  V30 17216 H 1641.36 -1.29878 5.58395 0
M  V30 17217 H 1639.76 -0.60823 5.9701 0
M  V30 17218 H 1640.83 0.24463 4.84283 0
M  V30 17219 N 1642.17 -1.57451 -0.0684915 0
M  V30 17220 C 1643.4 -1.9164 -0.779855 0
M  V30 17221 C 1643.81 -0.801309 -1.70952 0
M  V30 17222 O 1643.17 0.225134 -1.81106 0
M  V30 17223 C 1643.22 -3.25594 -1.57068 0
M  V30 17224 O 1642.94 -4.32816 -0.678385 0
M  V30 17225 C 1644.44 -3.73818 -2.38275 0
M  V30 17226 H 1641.66 -0.633374 -0.221537 0
M  V30 17227 H 1644.21 -2.04465 -0.0377746 0
M  V30 17228 H 1642.36 -3.14287 -2.26501 0
M  V30 17229 H 1642.78 -5.09903 -1.22877 0
M  V30 17230 H 1644.25 -4.70168 -2.89216 0
M  V30 17231 H 1644.73 -3.02995 -3.17947 0
M  V30 17232 H 1645.33 -3.88081 -1.73992 0
M  V30 17233 N 1643.65 0.339955 -1.5389 0
M  V30 17234 C 1644.87 1.10417 -1.75564 0
M  V30 17235 C 1645.3 1.81466 -0.495156 0
M  V30 17236 O 1644.66 1.72679 0.552415 0
M  V30 17237 C 1644.7 2.09056 -2.93816 0
M  V30 17238 O 1643.81 3.16645 -2.64215 0
M  V30 17239 H 1643.15 0.319164 -0.582263 0
M  V30 17240 H 1645.68 0.389251 -2.00863 0
M  V30 17241 H 1645.69 2.52215 -3.20705 0
M  V30 17242 H 1644.36 1.56741 -3.85234 0
M  V30 17243 H 1642.94 2.78278 -2.48225 0
M  V30 17244 N 1645.13 1.45684 0.601159 0
M  V30 17245 C 1646.54 1.44423 1.18317 0
M  V30 17246 C 1646.89 0.17524 1.95416 0
M  V30 17247 O 1646.01 -0.722816 2.03971 0
M  V30 17248 C 1646.61 2.61651 2.1523 0
M  V30 17249 C 1645.17 2.6349 2.68793 0
M  V30 17250 C 1644.31 2.36787 1.44317 0
M  V30 17251 H 1647.26 1.53831 0.390108 0
M  V30 17252 H 1647.29 2.36117 2.98377 0
M  V30 17253 H 1646.8 3.53995 1.59088 0
M  V30 17254 H 1644.9 1.7517 3.28856 0
M  V30 17255 H 1645.01 3.62906 3.12787 0
M  V30 17256 H 1643.38 1.86472 1.73494 0
M  V30 17257 H 1644.16 3.31284 0.900327 0
M  V30 17258 N 1646.6 -0.84422 1.33082 0
M  V30 17259 C 1647.83 -1.63133 1.27261 0
M  V30 17260 C 1648.25 -1.88142 -0.157479 0
M  V30 17261 O 1647.6 -1.4578 -1.09793 0
M  V30 17262 C 1647.65 -2.98462 2.03967 0
M  V30 17263 O 1647.38 -2.74555 3.41396 0
M  V30 17264 C 1648.88 -3.92899 2.05293 0
M  V30 17265 H 1646.1 -0.507769 0.438647 0
M  V30 17266 H 1648.64 -1.05194 1.75369 0
M  V30 17267 H 1646.8 -3.53017 1.59554 0
M  V30 17268 H 1647.21 -3.60694 3.80789 0
M  V30 17269 H 1648.68 -4.85088 2.63427 0
M  V30 17270 H 1649.16 -4.26665 1.04183 0
M  V30 17271 H 1649.77 -3.44281 2.49701 0
M  V30 17272 N 1648.08 -1.16463 -1.0618 0
M  V30 17273 C 1649.03 -0.868264 -2.15787 0
M  V30 17274 C 1650.02 0.163135 -1.68613 0
M  V30 17275 O 1651.23 0.0170117 -1.79992 0
M  V30 17276 H 1647.6 -0.263184 -0.704442 0
M  V30 17277 H 1649.58 -1.80005 -2.37993 0
M  V30 17278 C 1648.32 -0.387052 -3.45539 0
M  V30 17279 H 1647.65 -1.17212 -3.82232 0
M  V30 17280 H 1649.09 -0.218471 -4.23437 0
M  V30 17281 C 1647.55 0.893588 -3.24833 0
M  V30 17282 O 1648.08 1.96259 -3.50493 0
M  V30 17283 N 1646.28 0.8378 -2.78261 0
M  V30 17284 H 1645.83 -0.0323251 -2.5758 0
M  V30 17285 H 1645.79 1.69515 -2.64787 0
M  V30 17286 N 1649.56 1.24734 -0.963288 0
M  V30 17287 C 1650.8 1.94431 -0.630554 0
M  V30 17288 C 1651.16 1.7368 0.818489 0
M  V30 17289 O 1652.36 2.37374 1.26123 0
M  V30 17290 C 1650.64 3.43421 -0.989774 0
M  V30 17291 S 1652.19 4.31975 -0.770922 0
M  V30 17292 H 1649.01 0.672265 -0.231474 0
M  V30 17293 H 1651.61 1.512 -1.2393 0
M  V30 17294 H 1650.32 3.5603 -2.04135 0
M  V30 17295 H 1649.85 3.91641 -0.371622 0
M  V30 17296 H 1651.86 4.94936 0.35396 0
M  V30 17297 N 1651.04 0.732878 1.39523 0
M  V30 17298 C 1652.26 0.288717 2.05381 0
M  V30 17299 C 1652.69 -1.06727 1.5489 0
M  V30 17300 O 1652.05 -1.67585 0.691726 0
M  V30 17301 C 1652.09 0.297738 3.59369 0
M  V30 17302 O 1651.2 -0.715335 4.06149 0
M  V30 17303 H 1650.54 0.131696 0.650809 0
M  V30 17304 H 1653.07 0.998206 1.78597 0
M  V30 17305 H 1653.08 0.141391 4.07755 0
M  V30 17306 H 1651.75 1.28719 3.9548 0
M  V30 17307 H 1650.33 -0.525298 3.69182 0
M  V30 17308 N 1652.52 -1.50101 0.480349 0
M  V30 17309 C 1653.47 -2.25631 -0.327823 0
M  V30 17310 C 1654.45 -1.29605 -0.953492 0
M  V30 17311 O 1655.64 -1.54451 -0.86451 0
M  V30 17312 C 1652.77 -3.13284 -1.40386 0
M  V30 17313 C 1651.86 -4.16763 -0.785461 0
M  V30 17314 N 1652.25 -5.05702 0.0997266 0
M  V30 17315 C 1650.55 -4.33503 -1.04838 0
M  V30 17316 C 1651.25 -5.79944 0.45163 0
M  V30 17317 N 1650.22 -5.43317 -0.175455 0
M  V30 17318 H 1654.02 -2.91761 0.353929 0
M  V30 17319 H 1651.54 -1.59697 0.295085 0
M  V30 17320 H 1653.54 -3.66008 -1.9961 0
M  V30 17321 H 1652.2 -2.48703 -2.08751 0
M  V30 17322 H 1653.21 -5.1577 0.469184 0
M  V30 17323 H 1649.88 -3.80138 -1.72631 0
M  V30 17324 H 1651.27 -6.61554 1.17458 0
M  V30 17325 N 1653.99 -0.213323 -1.5615 0
M  V30 17326 C 1655.24 0.419767 -1.97693 0
M  V30 17327 C 1655.56 1.60878 -1.10197 0
M  V30 17328 O 1654.83 1.95097 -0.177185 0
M  V30 17329 H 1653.41 0.158075 -0.730083 0
M  V30 17330 H 1656.07 -0.304303 -1.9251 0
M  V30 17331 H 1655.17 0.751645 -3.02914 0
M  V30 17332 N 1655.47 1.57485 0.0601405 0
M  V30 17333 C 1656.72 1.87445 0.755575 0
M  V30 17334 C 1657.04 0.806915 1.77522 0
M  V30 17335 O 1656.31 -0.163139 1.9522 0
M  V30 17336 H 1654.89 0.691708 0.282044 0
M  V30 17337 H 1657.55 1.94871 0.0334616 0
M  V30 17338 H 1656.65 2.85334 1.26455 0
M  V30 17339 N 1656.95 -0.331789 1.54068 0
M  V30 17340 C 1657.88 -1.41332 1.8587 0
M  V30 17341 C 1658.86 -1.54353 0.714787 0
M  V30 17342 O 1660.05 -1.68368 0.967777 0
M  V30 17343 C 1657.18 -2.78218 2.07875 0
M  V30 17344 C 1656.13 -2.79994 3.23709 0
M  V30 17345 C 1655.46 -4.19878 3.31069 0
M  V30 17346 C 1656.76 -2.44476 4.6155 0
M  V30 17347 H 1658.45 -1.14966 2.76447 0
M  V30 17348 H 1656 -0.551615 1.33016 0
M  V30 17349 H 1657.95 -3.53937 2.28706 0
M  V30 17350 H 1656.67 -3.06044 1.14038 0
M  V30 17351 H 1655.33 -2.0673 3.02751 0
M  V30 17352 H 1654.98 -4.44831 2.34807 0
M  V30 17353 H 1654.68 -4.21974 4.08915 0
M  V30 17354 H 1656.2 -4.97421 3.54125 0
M  V30 17355 H 1657.62 -3.09908 4.82317 0
M  V30 17356 H 1656.02 -2.57837 5.41886 0
M  V30 17357 H 1657.09 -1.3964 4.64358 0
M  V30 17358 N 1658.43 -1.46001 -0.593424 0
M  V30 17359 C 1659.65 -1.54541 -1.38318 0
M  V30 17360 C 1660.08 -0.183555 -1.87202 0
M  V30 17361 O 1659.44 0.834407 -1.60958 0
M  V30 17362 C 1659.48 -2.54559 -2.55405 0
M  V30 17363 O 1658.59 -2.07321 -3.56499 0
M  V30 17364 H 1657.93 -0.520434 -0.412364 0
M  V30 17365 H 1660.46 -1.9148 -0.720862 0
M  V30 17366 H 1660.47 -2.73823 -3.02465 0
M  V30 17367 H 1659.14 -3.53461 -2.19176 0
M  V30 17368 H 1657.72 -1.97997 -3.15993 0
M  V30 17369 N 1659.91 0.83715 -1.33527 0
M  V30 17370 C 1661.32 1.40878 -1.22516 0
M  V30 17371 C 1661.67 1.95585 0.155236 0
M  V30 17372 O 1660.79 1.88946 1.05491 0
M  V30 17373 C 1661.39 2.56093 -2.21815 0
M  V30 17374 C 1659.95 3.09205 -2.14638 0
M  V30 17375 C 1659.09 1.82012 -2.09205 0
M  V30 17376 H 1662.05 0.642766 -1.45101 0
M  V30 17377 H 1662.07 3.33775 -1.82687 0
M  V30 17378 H 1661.58 2.16246 -3.22272 0
M  V30 17379 H 1659.68 3.53592 -1.17489 0
M  V30 17380 H 1659.79 3.69261 -3.05259 0
M  V30 17381 H 1658.16 2.02331 -1.54707 0
M  V30 17382 H 1658.94 1.44359 -3.11473 0
M  V30 17383 N 1661.38 1.17024 1.05561 0
M  V30 17384 C 1662.61 0.981293 1.82717 0
M  V30 17385 C 1663.03 -0.465636 1.82246 0
M  V30 17386 O 1662.39 -1.33315 1.22869 0
M  V30 17387 C 1662.44 1.52239 3.26888 0
M  V30 17388 O 1661.54 0.73366 4.05822 0
M  V30 17389 H 1660.89 0.348677 0.565084 0
M  V30 17390 H 1663.42 1.55435 1.33046 0
M  V30 17391 H 1663.43 1.54306 3.77695 0
M  V30 17392 H 1662.1 2.57567 3.26545 0
M  V30 17393 H 1660.68 0.784101 3.64563 0
M  V30 17394 N 1662.86 -1.24221 0.969889 0
M  V30 17395 C 1664.28 -1.4454 0.676778 0
M  V30 17396 C 1664.48 -1.86591 -0.760656 0
M  V30 17397 O 1663.53 -2.00538 -1.5343 0
M  V30 17398 C 1664.85 -2.50546 1.66274 0
M  V30 17399 C 1666.4 -2.64372 1.67561 0
M  V30 17400 C 1666.87 -3.73577 2.6496 0
M  V30 17401 N 1668.36 -3.81007 2.63416 0
M  V30 17402 C 1669.1 -4.65037 3.35452 0
M  V30 17403 N 1668.59 -5.53238 4.17013 0
M  V30 17404 N 1670.39 -4.59138 3.24266 0
M  V30 17405 H 1662.54 -0.952237 1.89858 0
M  V30 17406 H 1664.8 -0.479972 0.817515 0
M  V30 17407 H 1664.51 -2.26541 2.6902 0
M  V30 17408 H 1664.38 -3.48745 1.43724 0
M  V30 17409 H 1666.77 -2.87733 0.655247 0
M  V30 17410 H 1666.85 -1.66523 1.94174 0
M  V30 17411 H 1666.49 -3.50965 3.67132 0
M  V30 17412 H 1666.42 -4.70944 2.35626 0
M  V30 17413 H 1668.91 -3.17969 2.04216 0
M  V30 17414 H 1669.23 -6.1432 4.68861 0
M  V30 17415 H 1667.57 -5.52896 4.21107 0
M  V30 17416 H 1670.76 -3.89247 2.60008 0
M  V30 17417 H 1670.93 -5.24399 3.8067 0
M  V30 17418 N 1664.34 -0.740267 -1.39132 0
M  V30 17419 C 1665.27 -0.118951 -2.33197 0
M  V30 17420 C 1666.25 0.718416 -1.54184 0
M  V30 17421 O 1667.44 0.662322 -1.82557 0
M  V30 17422 C 1664.57 0.78512 -3.38309 0
M  V30 17423 C 1663.52 0.0515093 -4.27969 0
M  V30 17424 C 1662.85 1.07295 -5.23824 0
M  V30 17425 C 1664.15 -1.10903 -5.1039 0
M  V30 17426 H 1665.84 -0.904687 -2.85405 0
M  V30 17427 H 1663.39 -0.436493 -1.37225 0
M  V30 17428 H 1665.34 1.22935 -4.03069 0
M  V30 17429 H 1664.06 1.60303 -2.84553 0
M  V30 17430 H 1662.72 -0.373156 -3.64696 0
M  V30 17431 H 1662.37 1.88456 -4.66362 0
M  V30 17432 H 1662.07 0.586827 -5.84662 0
M  V30 17433 H 1663.59 1.51677 -5.91461 0
M  V30 17434 H 1665.01 -0.742993 -5.68465 0
M  V30 17435 H 1663.41 -1.52513 -5.80396 0
M  V30 17436 H 1664.48 -1.92825 -4.44912 0
M  V30 17437 N 1665.82 1.49844 -0.488302 0
M  V30 17438 C 1667.06 2.03331 0.052835 0
M  V30 17439 C 1667.42 1.3624 1.35854 0
M  V30 17440 O 1666.71 0.484818 1.85365 0
M  V30 17441 C 1666.91 3.56342 0.274851 0
M  V30 17442 C 1666.74 4.38262 -1.00779 0
M  V30 17443 C 1665.51 4.80746 -1.55599 0
M  V30 17444 C 1667.7 4.77608 -1.90774 0
M  V30 17445 N 1665.69 5.4705 -2.78586 0
M  V30 17446 C 1667.06 5.43499 -2.98343 0
M  V30 17447 C 1669.11 4.59556 -1.91606 0
M  V30 17448 C 1667.81 5.93249 -4.06753 0
M  V30 17449 C 1669.84 5.10258 -2.98983 0
M  V30 17450 C 1669.2 5.76138 -4.0527 0
M  V30 17451 H 1665.3 0.781715 -0.021128 0
M  V30 17452 H 1667.89 1.8316 -0.66034 0
M  V30 17453 H 1666.06 3.76424 0.957074 0
M  V30 17454 H 1667.79 3.96473 0.811862 0
M  V30 17455 H 1664.54 4.6058 -1.10284 0
M  V30 17456 H 1664.97 5.84796 -3.4109 0
M  V30 17457 H 1669.61 4.08039 -1.10744 0
M  V30 17458 H 1667.33 6.43794 -4.88421 0
M  V30 17459 H 1670.91 4.98109 -3.00631 0
M  V30 17460 H 1669.79 6.14663 -4.8699 0
M  V30 17461 N 1667.3 0.221601 1.56034 0
M  V30 17462 C 1668.54 -0.409277 1.97912 0
M  V30 17463 C 1668.87 -1.60291 1.11049 0
M  V30 17464 O 1668.14 -1.95 0.187529 0
M  V30 17465 H 1666.72 -0.154201 0.730911 0
M  V30 17466 H 1669.38 0.314508 1.92346 0
M  V30 17467 H 1668.47 -0.73557 3.03308 0
M  V30 17468 N 1668.77 -1.57515 -0.0517878 0
M  V30 17469 C 1670.02 -1.8935 -0.742852 0
M  V30 17470 C 1670.38 -0.817645 -1.74162 0
M  V30 17471 O 1669.67 0.176157 -1.90788 0
M  V30 17472 C 1669.86 -3.25625 -1.4732 0
M  V30 17473 C 1669.69 -4.46365 -0.546677 0
M  V30 17474 C 1668.46 -5.04993 -0.176143 0
M  V30 17475 C 1670.66 -5.14034 0.165236 0
M  V30 17476 N 1668.64 -6.09252 0.75401 0
M  V30 17477 C 1670.01 -6.1265 0.95185 0
M  V30 17478 C 1672.07 -4.97347 0.234592 0
M  V30 17479 C 1670.77 -6.96378 1.80141 0
M  V30 17480 C 1672.8 -5.81618 1.07119 0
M  V30 17481 C 1672.16 -6.79786 1.8458 0
M  V30 17482 H 1668.26 -0.742089 -0.246634 0
M  V30 17483 H 1670.84 -1.947 -0.00363349 0
M  V30 17484 H 1669.01 -3.21246 -2.18301 0
M  V30 17485 H 1670.74 -3.45045 -2.11485 0
M  V30 17486 H 1667.5 -4.70587 -0.5334 0
M  V30 17487 H 1667.92 -6.66046 1.21292 0
M  V30 17488 H 1672.57 -4.21349 -0.349957 0
M  V30 17489 H 1670.28 -7.71736 2.39685 0
M  V30 17490 H 1673.87 -5.70758 1.1281 0
M  V30 17491 H 1672.75 -7.43862 2.48271 0
M  V30 17492 N 1670.25 0.323614 -1.54242 0
M  V30 17493 C 1671.48 1.08548 -1.76726 0
M  V30 17494 C 1671.9 1.8093 -0.514375 0
M  V30 17495 O 1671.26 1.73255 0.534069 0
M  V30 17496 C 1671.31 2.05928 -2.96017 0
M  V30 17497 O 1670.41 3.13825 -2.67559 0
M  V30 17498 H 1669.75 0.31297 -0.585616 0
M  V30 17499 H 1672.28 0.367925 -2.01265 0
M  V30 17500 H 1672.29 2.48799 -3.23362 0
M  V30 17501 H 1670.97 1.52646 -3.86875 0
M  V30 17502 H 1669.55 2.7563 -2.51163 0
M  V30 17503 N 1671.73 1.46313 0.585673 0
M  V30 17504 C 1672.69 1.56239 1.67696 0
M  V30 17505 C 1673.69 0.439808 1.54668 0
M  V30 17506 O 1674.88 0.704019 1.5934 0
M  V30 17507 C 1672.02 1.47986 3.07104 0
M  V30 17508 H 1673.21 2.53492 1.60255 0
M  V30 17509 H 1670.76 1.3408 0.803264 0
M  V30 17510 H 1671.5 0.520007 3.20104 0
M  V30 17511 H 1671.28 2.2943 3.17969 0
M  V30 17512 H 1672.77 1.5801 3.86552 0
M  V30 17513 N 1673.21 -0.830057 1.33969 0
M  V30 17514 C 1674.49 -1.57112 1.16513 0
M  V30 17515 C 1674.87 -2.09429 -0.265075 0
M  V30 17516 O 1674.21 -1.90263 -1.26539 0
M  V30 17517 C 1674.42 -2.69808 2.2137 0
M  V30 17518 C 1675.77 -3.38761 2.55981 0
M  V30 17519 O 1676.8 -2.80058 2.20104 0
M  V30 17520 O 1675.66 -4.44753 3.1758 0
M  V30 17521 H 1672.75 -0.693066 0.451207 0
M  V30 17522 H 1675.3 -0.872048 1.4558 0
M  V30 17523 H 1674.07 -2.28852 3.17399 0
M  V30 17524 H 1673.69 -3.47372 1.93439 0
M  V30 17525 N 1674.69 -1.17582 -1.04939 0
M  V30 17526 C 1675.94 -0.96387 -1.77634 0
M  V30 17527 C 1676.26 0.508548 -1.88252 0
M  V30 17528 O 1675.53 1.36913 -1.40113 0
M  V30 17529 H 1674.11 -0.353636 -0.65799 0
M  V30 17530 H 1676.77 -1.48104 -1.26693 0
M  V30 17531 H 1675.86 -1.39438 -2.79219 0
M  V30 17532 N 1676.17 1.23705 -0.976463 0
M  V30 17533 C 1677.1 2.2734 -0.532809 0
M  V30 17534 C 1678.08 1.64523 0.432012 0
M  V30 17535 O 1679.26 1.9144 0.326233 0
M  V30 17536 C 1676.39 3.46887 0.169374 0
M  V30 17537 C 1675.35 4.22031 -0.712336 0
M  V30 17538 C 1674.67 5.34561 0.121838 0
M  V30 17539 C 1675.97 4.8244 -2.00123 0
M  V30 17540 H 1677.67 2.64702 -1.39904 0
M  V30 17541 H 1675.21 1.27244 -0.674156 0
M  V30 17542 H 1677.16 4.18529 0.491028 0
M  V30 17543 H 1675.89 3.08574 1.07002 0
M  V30 17544 H 1674.55 3.522 -1.01739 0
M  V30 17545 H 1674.2 4.92489 1.0229 0
M  V30 17546 H 1673.9 5.85758 -0.464962 0
M  V30 17547 H 1675.42 6.09027 0.437963 0
M  V30 17548 H 1676.83 5.46111 -1.7446 0
M  V30 17549 H 1675.23 5.43906 -2.53548 0
M  V30 17550 H 1676.3 4.03405 -2.69059 0
M  V30 17551 N 1677.64 0.747635 1.38738 0
M  V30 17552 C 1678.61 0.124321 2.28863 0
M  V30 17553 C 1679.61 -0.653816 1.46908 0
M  V30 17554 O 1680.8 -0.480963 1.67429 0
M  V30 17555 C 1677.93 -0.832601 3.30576 0
M  V30 17556 H 1679.12 0.918492 2.85489 0
M  V30 17557 H 1676.67 0.514262 1.47598 0
M  V30 17558 H 1677.41 -1.65267 2.79029 0
M  V30 17559 H 1677.19 -0.277109 3.9112 0
M  V30 17560 H 1678.68 -1.2649 3.97982 0
M  V30 17561 N 1679.12 -1.49583 0.496242 0
M  V30 17562 C 1680.07 -2.29037 -0.284716 0
M  V30 17563 C 1681.04 -1.35217 -0.964661 0
M  V30 17564 O 1682.22 -1.64171 -0.972244 0
M  V30 17565 C 1679.36 -3.17767 -1.34603 0
M  V30 17566 C 1678.48 -4.26641 -0.67834 0
M  V30 17567 C 1677.61 -5.02594 -1.71969 0
M  V30 17568 C 1676.65 -6.0331 -1.03361 0
M  V30 17569 N 1675.79 -6.72446 -2.01894 0
M  V30 17570 H 1680.63 -2.95316 0.399084 0
M  V30 17571 H 1678.16 -1.45613 0.208653 0
M  V30 17572 H 1680.12 -3.67583 -1.97329 0
M  V30 17573 H 1678.75 -2.53483 -1.99866 0
M  V30 17574 H 1677.8 -3.80349 0.0620953 0
M  V30 17575 H 1679.12 -4.98609 -0.138028 0
M  V30 17576 H 1678.27 -5.56254 -2.42212 0
M  V30 17577 H 1677.01 -4.30388 -2.29385 0
M  V30 17578 H 1676.01 -5.48886 -0.316925 0
M  V30 17579 H 1677.24 -6.77499 -0.466009 0
M  V30 17580 H 1675.19 -6.03015 -2.58281 0
M  V30 17581 H 1675.1 -7.40373 -1.52916 0
M  V30 17582 H 1676.37 -7.30712 -2.7144 0
M  V30 17583 N 1680.6 -0.229873 -1.55915 0
M  V30 17584 C 1681.55 0.690362 -2.17297 0
M  V30 17585 C 1682.53 1.15155 -1.12375 0
M  V30 17586 O 1683.73 1.10416 -1.38338 0
M  V30 17587 C 1680.85 1.89461 -2.86286 0
M  V30 17588 C 1679.94 1.45271 -3.98443 0
M  V30 17589 N 1680.33 0.723932 -5.00593 0
M  V30 17590 C 1678.63 1.73935 -4.10686 0
M  V30 17591 C 1679.33 0.497439 -5.79569 0
M  V30 17592 N 1678.31 1.05662 -5.33232 0
M  V30 17593 H 1682.11 0.12522 -2.93633 0
M  V30 17594 H 1679.62 -0.0314724 -1.6237 0
M  V30 17595 H 1681.62 2.5647 -3.28677 0
M  V30 17596 H 1680.28 2.46414 -2.11448 0
M  V30 17597 H 1681.29 0.375765 -5.16535 0
M  V30 17598 H 1677.97 2.32149 -3.47006 0
M  V30 17599 H 1679.36 -0.0831841 -6.71849 0
M  V30 17600 N 1682.08 1.5754 0.0434337 0
M  V30 17601 C 1683.49 1.77071 0.591836 0
M  V30 17602 C 1683.84 0.85911 1.76391 0
M  V30 17603 O 1682.96 0.0502725 2.16342 0
M  V30 17604 C 1683.56 3.21111 1.08041 0
M  V30 17605 C 1682.12 3.41889 1.57445 0
M  V30 17606 C 1681.27 2.72641 0.506166 0
M  V30 17607 H 1684.22 1.57644 -0.182792 0
M  V30 17608 H 1684.24 3.26834 1.94833 0
M  V30 17609 H 1683.75 3.87435 0.227153 0
M  V30 17610 H 1681.85 2.80721 2.45003 0
M  V30 17611 H 1681.96 4.50452 1.63185 0
M  V30 17612 H 1680.33 2.36002 0.957878 0
M  V30 17613 H 1681.11 3.41638 -0.337389 0
M  V30 17614 N 1683.56 -0.31543 1.54411 0
M  V30 17615 C 1684.97 -0.889358 1.64156 0
M  V30 17616 C 1685.32 -1.88598 0.54087 0
M  V30 17617 O 1684.44 -2.13947 -0.324904 0
M  V30 17618 C 1685.04 -1.61985 2.97567 0
M  V30 17619 C 1683.6 -2.14239 3.09481 0
M  V30 17620 C 1682.74 -0.970382 2.59767 0
M  V30 17621 H 1685.69 -0.092797 1.58428 0
M  V30 17622 H 1685.72 -2.48457 2.88183 0
M  V30 17623 H 1685.23 -0.89425 3.77657 0
M  V30 17624 H 1683.33 -2.8989 2.34082 0
M  V30 17625 H 1683.44 -2.38681 4.15413 0
M  V30 17626 H 1681.81 -1.35187 2.15863 0
M  V30 17627 H 1682.59 -0.258968 3.42322 0
M  V30 17628 N 1685.03 -1.46622 -0.577906 0
M  V30 17629 C 1686.45 -1.46287 -1.16004 0
M  V30 17630 C 1686.8 -0.206307 -1.95112 0
M  V30 17631 O 1685.92 0.690275 -2.05096 0
M  V30 17632 C 1686.52 -2.65042 -2.1104 0
M  V30 17633 C 1685.08 -2.67733 -2.64567 0
M  V30 17634 C 1684.22 -2.39053 -1.40531 0
M  V30 17635 H 1687.17 -1.54432 -0.365585 0
M  V30 17636 H 1687.19 -2.40834 -2.94583 0
M  V30 17637 H 1686.71 -3.56481 -1.53436 0
M  V30 17638 H 1684.81 -1.80379 -3.26028 0
M  V30 17639 H 1684.92 -3.67836 -3.06974 0
M  V30 17640 H 1683.28 -1.89209 -1.70506 0
M  V30 17641 H 1684.07 -3.32674 -0.847509 0
M  V30 17642 N 1686.51 0.822941 -1.34408 0
M  V30 17643 C 1687.76 1.57916 -1.26763 0
M  V30 17644 C 1688.09 1.93821 0.162408 0
M  V30 17645 O 1687.34 1.60226 1.12366 0
M  V30 17646 C 1687.64 2.88915 -2.10388 0
M  V30 17647 C 1687.31 2.72302 -3.59392 0
M  V30 17648 C 1685.97 2.67479 -4.00011 0
M  V30 17649 C 1688.32 2.5598 -4.54008 0
M  V30 17650 C 1685.65 2.44255 -5.33438 0
M  V30 17651 C 1688 2.34288 -5.87615 0
M  V30 17652 C 1686.67 2.27877 -6.27398 0
M  V30 17653 H 1685.94 0.577854 -0.46386 0
M  V30 17654 H 1688.58 0.95218 -1.6615 0
M  V30 17655 H 1686.89 3.55903 -1.63829 0
M  V30 17656 H 1688.58 3.46511 -2.01819 0
M  V30 17657 H 1685.17 2.76896 -3.27149 0
M  V30 17658 H 1689.36 2.5873 -4.23524 0
M  V30 17659 H 1684.61 2.37749 -5.63281 0
M  V30 17660 H 1688.79 2.20646 -6.60521 0
M  V30 17661 H 1686.42 2.09643 -7.30722 0
M  V30 17662 N 1687.99 1.18137 1.04314 0
M  V30 17663 C 1689.22 1.00062 1.81666 0
M  V30 17664 C 1689.64 -0.446281 1.82729 0
M  V30 17665 O 1689 -1.32004 1.24277 0
M  V30 17666 C 1689.05 1.55698 3.25255 0
M  V30 17667 O 1688.15 0.776662 4.05021 0
M  V30 17668 H 1687.49 0.354651 0.561354 0
M  V30 17669 H 1690.02 1.56837 1.3139 0
M  V30 17670 H 1690.03 1.58303 3.76037 0
M  V30 17671 H 1688.71 2.61016 3.23795 0
M  V30 17672 H 1687.28 0.822723 3.63711 0
M  V30 17673 N 1689.47 -1.23186 0.98301 0
M  V30 17674 C 1690.4 -2.24044 0.483426 0
M  V30 17675 C 1691.41 -1.57392 -0.416143 0
M  V30 17676 O 1692.6 -1.77141 -0.219861 0
M  V30 17677 C 1689.7 -3.37388 -0.319733 0
M  V30 17678 C 1688.88 -4.33623 0.57359 0
M  V30 17679 C 1687.93 -5.25905 -0.176165 0
M  V30 17680 O 1686.96 -5.67535 0.435099 0
M  V30 17681 N 1688.16 -5.61804 -1.46139 0
M  V30 17682 H 1690.93 -2.67539 1.35066 0
M  V30 17683 H 1688.49 -1.37384 0.856579 0
M  V30 17684 H 1690.48 -3.96103 -0.829719 0
M  V30 17685 H 1689.05 -2.93056 -1.08799 0
M  V30 17686 H 1688.27 -3.73373 1.26437 0
M  V30 17687 H 1689.56 -4.94873 1.18231 0
M  V30 17688 H 1688.96 -5.29936 -1.97949 0
M  V30 17689 H 1687.51 -6.22979 -1.91676 0
M  V30 17690 N 1690.95 -0.754982 -1.38339 0
M  V30 17691 C 1692.36 -0.379276 -1.82807 0
M  V30 17692 C 1692.71 1.09228 -1.62984 0
M  V30 17693 O 1691.83 1.84445 -1.13177 0
M  V30 17694 C 1692.43 -0.681628 -3.31872 0
M  V30 17695 C 1690.99 -0.359183 -3.74682 0
M  V30 17696 C 1690.13 -0.93409 -2.61094 0
M  V30 17697 H 1693.09 -0.951019 -1.27048 0
M  V30 17698 H 1693.11 0.0396803 -3.80479 0
M  V30 17699 H 1692.62 -1.75271 -3.46268 0
M  V30 17700 H 1690.72 0.705257 -3.65865 0
M  V30 17701 H 1690.83 -0.85571 -4.71396 0
M  V30 17702 H 1689.2 -0.359379 -2.52152 0
M  V30 17703 H 1689.98 -2.01023 -2.78289 0
M  V30 17704 N 1692.42 1.49318 -0.504168 0
M  V30 17705 C 1693.37 2.30832 0.286237 0
M  V30 17706 C 1694.37 1.39585 0.959818 0
M  V30 17707 O 1695.57 1.5662 0.887146 0
M  V30 17708 H 1691.95 0.743738 0.111167 0
M  V30 17709 H 1693.92 2.95412 -0.421206 0
M  V30 17710 C 1692.67 3.2101 1.33596 0
M  V30 17711 H 1691.99 3.91152 0.827057 0
M  V30 17712 H 1693.43 3.8098 1.86093 0
M  V30 17713 C 1691.89 2.40836 2.35583 0
M  V30 17714 O 1692.42 2.11476 3.41527 0
M  V30 17715 N 1690.63 2.02802 2.08134 0
M  V30 17716 H 1690.17 2.26879 1.21999 0
M  V30 17717 H 1690.13 1.49467 2.76599 0
M  V30 17718 N 1693.9 0.238138 1.5579 0
M  V30 17719 C 1695.13 -0.396409 2.03576 0
M  V30 17720 C 1695.55 -1.5138 1.11649 0
M  V30 17721 O 1694.91 -1.80979 0.107774 0
M  V30 17722 C 1694.96 -0.889749 3.49451 0
M  V30 17723 O 1694.06 -1.99997 3.60659 0
M  V30 17724 H 1693.4 -0.0876017 0.658196 0
M  V30 17725 H 1695.93 0.361632 2.01379 0
M  V30 17726 H 1695.94 -1.19526 3.901 0
M  V30 17727 H 1694.62 -0.0720136 4.15838 0
M  V30 17728 H 1693.2 -1.69983 3.31904 0
M  V30 17729 N 1695.38 -1.57561 -0.0350783 0
M  V30 17730 C 1696.63 -1.88177 -0.726105 0
M  V30 17731 C 1696.94 -0.835856 -1.76841 0
M  V30 17732 O 1698.15 -1.03105 -2.51161 0
M  V30 17733 C 1696.6 -3.33924 -1.34249 0
M  V30 17734 C 1696.21 -4.46732 -0.336845 0
M  V30 17735 C 1697.96 -3.73696 -2.01374 0
M  V30 17736 C 1695.86 -5.83536 -0.961234 0
M  V30 17737 H 1694.79 -0.702082 -0.274948 0
M  V30 17738 H 1697.44 -1.83489 0.0197081 0
M  V30 17739 H 1695.83 -3.33337 -2.13781 0
M  V30 17740 H 1697 -4.58777 0.431323 0
M  V30 17741 H 1695.32 -4.15753 0.231983 0
M  V30 17742 H 1697.91 -4.7322 -2.48931 0
M  V30 17743 H 1698.26 -3.05379 -2.8293 0
M  V30 17744 H 1698.79 -3.76431 -1.28626 0
M  V30 17745 H 1695.53 -6.55238 -0.185217 0
M  V30 17746 H 1695.05 -5.75223 -1.69938 0
M  V30 17747 H 1696.73 -6.30071 -1.47035 0
M  V30 17748 N 1696.86 0.307236 -1.54576 0
M  V30 17749 C 1698.27 0.88064 -1.64626 0
M  V30 17750 C 1698.62 1.88308 -0.550865 0
M  V30 17751 O 1697.75 2.14116 0.313553 0
M  V30 17752 C 1698.34 1.60405 -2.98422 0
M  V30 17753 C 1696.9 2.12595 -3.10613 0
M  V30 17754 C 1696.05 0.956593 -2.60278 0
M  V30 17755 H 1699 0.0843939 -1.58475 0
M  V30 17756 H 1699.02 2.46925 -2.89496 0
M  V30 17757 H 1698.53 0.874209 -3.78126 0
M  V30 17758 H 1696.63 2.88644 -2.35617 0
M  V30 17759 H 1696.74 2.36475 -4.16673 0
M  V30 17760 H 1695.11 1.3404 -2.16576 0
M  V30 17761 H 1695.89 0.24081 -3.42454 0
M  V30 17762 N 1698.34 1.46926 0.570122 0
M  V30 17763 C 1699.56 1.5648 1.35358 0
M  V30 17764 C 1699.98 0.210356 1.87624 0
M  V30 17765 O 1699.34 -0.794388 1.64304 0
M  V30 17766 C 1699.39 2.57973 2.53243 0
M  V30 17767 O 1699.11 3.88157 2.03139 0
M  V30 17768 C 1700.61 2.77587 3.4563 0
M  V30 17769 H 1697.83 0.528787 0.413068 0
M  V30 17770 H 1700.37 1.9244 0.691895 0
M  V30 17771 H 1698.53 2.24982 3.15375 0
M  V30 17772 H 1698.94 4.43506 2.80004 0
M  V30 17773 H 1700.42 3.52495 4.24795 0
M  V30 17774 H 1700.89 1.84944 3.98362 0
M  V30 17775 H 1701.5 3.11724 2.89324 0
M  V30 17776 N 1699.82 -0.815801 1.34842 0
M  V30 17777 C 1700.78 -1.90871 1.2689 0
M  V30 17778 C 1701.78 -1.59762 0.182445 0
M  V30 17779 O 1702.97 -1.68667 0.435543 0
M  V30 17780 C 1700.1 -3.27081 0.960774 0
M  V30 17781 H 1701.29 -1.99343 2.24059 0
M  V30 17782 H 1698.85 -1.0106 1.19233 0
M  V30 17783 H 1699.58 -3.24299 -0.00744059 0
M  V30 17784 H 1699.37 -3.51045 1.74671 0
M  V30 17785 H 1700.86 -4.07101 0.930494 0
M  V30 17786 N 1701.29 -1.18689 -1.03686 0
M  V30 17787 C 1702.7 -0.988182 -1.58404 0
M  V30 17788 C 1703.06 0.461107 -1.90705 0
M  V30 17789 O 1702.18 1.33912 -1.6999 0
M  V30 17790 C 1702.78 -1.78748 -2.8781 0
M  V30 17791 C 1701.33 -1.63301 -3.39131 0
M  V30 17792 C 1700.48 -1.77954 -2.12668 0
M  V30 17793 H 1703.43 -1.33177 -0.863112 0
M  V30 17794 H 1703.45 -1.27882 -3.58366 0
M  V30 17795 H 1702.97 -2.84224 -2.6427 0
M  V30 17796 H 1701.07 -0.603777 -3.67676 0
M  V30 17797 H 1701.18 -2.43342 -4.127 0
M  V30 17798 H 1699.54 -1.20937 -2.24157 0
M  V30 17799 H 1700.33 -2.84873 -1.91579 0
M  V30 17800 N 1702.77 1.22662 -0.989529 0
M  V30 17801 C 1704 1.95883 -0.681511 0
M  V30 17802 C 1704.42 1.72646 0.746646 0
M  V30 17803 O 1703.78 1.00358 1.5099 0
M  V30 17804 C 1703.83 3.46773 -0.988975 0
M  V30 17805 O 1702.93 4.12311 -0.0858485 0
M  V30 17806 H 1702.27 0.612916 -0.255401 0
M  V30 17807 H 1704.8 1.5585 -1.32559 0
M  V30 17808 H 1704.81 3.97273 -0.929426 0
M  V30 17809 H 1703.49 3.63011 -2.02967 0
M  V30 17810 H 1702.06 3.7236 -0.200592 0
M  V30 17811 N 1704.25 0.762308 1.37937 0
M  V30 17812 C 1705.2 0.115944 2.27705 0
M  V30 17813 C 1706.18 -0.684063 1.45634 0
M  V30 17814 O 1707.38 -0.548586 1.68284 0
M  V30 17815 C 1704.5 -0.76969 3.3456 0
M  V30 17816 C 1703.59 0.0376368 4.24083 0
M  V30 17817 N 1703.98 1.07849 4.94168 0
M  V30 17818 C 1702.28 -0.187824 4.45604 0
M  V30 17819 C 1702.98 1.56769 5.60177 0
M  V30 17820 N 1701.96 0.881477 5.36406 0
M  V30 17821 H 1705.76 0.912994 2.79359 0
M  V30 17822 H 1703.27 0.599168 1.50943 0
M  V30 17823 H 1705.27 -1.24844 3.97768 0
M  V30 17824 H 1703.93 -1.56559 2.84463 0
M  V30 17825 H 1704.94 1.46046 4.96881 0
M  V30 17826 H 1701.62 -0.95638 4.06398 0
M  V30 17827 H 1703.01 2.43517 6.26218 0
M  V30 17828 N 1705.73 -1.49049 0.51208 0
M  V30 17829 C 1706.67 -2.29326 -0.260408 0
M  V30 17830 C 1707.64 -1.36232 -0.950265 0
M  V30 17831 O 1708.83 -1.65193 -0.954777 0
M  V30 17832 C 1705.97 -3.19177 -1.31225 0
M  V30 17833 C 1705.08 -4.27336 -0.63305 0
M  V30 17834 C 1704.22 -5.04389 -1.66628 0
M  V30 17835 C 1703.26 -6.04372 -0.969561 0
M  V30 17836 N 1702.39 -6.74549 -1.94751 0
M  V30 17837 H 1707.23 -2.94876 0.430384 0
M  V30 17838 H 1704.77 -1.45383 0.224086 0
M  V30 17839 H 1706.73 -3.69655 -1.9342 0
M  V30 17840 H 1705.36 -2.55588 -1.97166 0
M  V30 17841 H 1704.41 -3.80262 0.102433 0
M  V30 17842 H 1705.72 -4.98727 -0.0851363 0
M  V30 17843 H 1704.88 -5.58791 -2.36299 0
M  V30 17844 H 1703.62 -4.32797 -2.24807 0
M  V30 17845 H 1702.62 -5.49191 -0.25869 0
M  V30 17846 H 1703.85 -6.77955 -0.394125 0
M  V30 17847 H 1701.79 -6.0572 -2.5187 0
M  V30 17848 H 1701.71 -7.41954 -1.45055 0
M  V30 17849 H 1702.98 -7.3355 -2.63675 0
M  V30 17850 N 1707.21 -0.246397 -1.55662 0
M  V30 17851 C 1708.17 0.640041 -2.20082 0
M  V30 17852 C 1709.17 1.10313 -1.16994 0
M  V30 17853 O 1710.36 1.00792 -1.42079 0
M  V30 17854 C 1707.49 1.87964 -2.84398 0
M  V30 17855 H 1708.68 0.0780034 -2.99799 0
M  V30 17856 H 1706.24 0.00314588 -1.563 0
M  V30 17857 H 1706.97 2.48292 -2.08618 0
M  V30 17858 H 1706.76 1.5558 -3.59913 0
M  V30 17859 H 1708.25 2.51065 -3.33701 0
M  V30 17860 N 1708.68 1.57577 0.026722 0
M  V30 17861 C 1709.61 2.09748 1.02605 0
M  V30 17862 C 1710.59 1.00054 1.37562 0
M  V30 17863 O 1711.78 1.2759 1.46405 0
M  V30 17864 C 1708.91 2.57881 2.32626 0
M  V30 17865 C 1707.86 3.7186 2.11905 0
M  V30 17866 C 1707.19 4.06208 3.47706 0
M  V30 17867 C 1708.49 5.00198 1.50332 0
M  V30 17868 H 1710.18 2.93494 0.591753 0
M  V30 17869 H 1707.73 1.41188 0.283199 0
M  V30 17870 H 1709.68 2.93 3.02868 0
M  V30 17871 H 1708.41 1.71222 2.7812 0
M  V30 17872 H 1707.07 3.37094 1.44096 0
M  V30 17873 H 1706.71 3.16611 3.90853 0
M  V30 17874 H 1706.41 4.82982 3.34667 0
M  V30 17875 H 1707.94 4.43863 4.19306 0
M  V30 17876 H 1709.35 5.33259 2.10494 0
M  V30 17877 H 1707.75 5.81599 1.4786 0
M  V30 17878 H 1708.82 4.82623 0.469405 0
M  V30 17879 N 1710.16 -0.299034 1.54737 0
M  V30 17880 C 1711.58 -0.644805 1.45995 0
M  V30 17881 C 1711.78 -1.90634 0.652749 0
M  V30 17882 O 1710.83 -2.51985 0.161228 0
M  V30 17883 C 1712.15 -0.795974 2.89974 0
M  V30 17884 C 1713.69 -0.891731 3.00029 0
M  V30 17885 C 1714.17 -1.07488 4.45208 0
M  V30 17886 N 1715.66 -1.14104 4.48926 0
M  V30 17887 C 1716.4 -1.30108 5.58444 0
M  V30 17888 N 1715.89 -1.42998 6.77882 0
M  V30 17889 N 1717.68 -1.33012 5.46136 0
M  V30 17890 H 1709.84 0.529806 2.05686 0
M  V30 17891 H 1712.1 0.175406 0.931631 0
M  V30 17892 H 1711.8 0.0601375 3.51649 0
M  V30 17893 H 1711.68 -1.68437 3.37504 0
M  V30 17894 H 1714.07 -1.73833 2.38466 0
M  V30 17895 H 1714.15 0.0207194 2.55792 0
M  V30 17896 H 1713.79 -0.233045 5.07365 0
M  V30 17897 H 1713.72 -2.00159 4.87077 0
M  V30 17898 H 1716.21 -1.05488 3.62878 0
M  V30 17899 H 1716.52 -1.5497 7.57102 0
M  V30 17900 H 1714.87 -1.4005 6.80743 0
M  V30 17901 H 1718.06 -1.22555 4.51772 0
M  V30 17902 H 1718.23 -1.45141 6.31536 0
M  V30 17903 N 1711.64 -1.47227 -0.562322 0
M  V30 17904 C 1713.06 -1.32632 -0.887745 0
M  V30 17905 C 1713.26 -0.312972 -1.99055 0
M  V30 17906 O 1712.31 0.277309 -2.50973 0
M  V30 17907 C 1713.62 -2.71822 -1.28581 0
M  V30 17908 C 1715.17 -2.80068 -1.39753 0
M  V30 17909 C 1715.65 -4.19887 -1.82917 0
M  V30 17910 N 1717.14 -4.22404 -1.90077 0
M  V30 17911 C 1717.87 -5.27499 -2.24793 0
M  V30 17912 N 1717.37 -6.42904 -2.58159 0
M  V30 17913 N 1719.16 -5.14874 -2.25523 0
M  V30 17914 H 1711.31 -2.11752 0.165835 0
M  V30 17915 H 1713.58 -0.94793 0.0115238 0
M  V30 17916 H 1713.28 -3.47383 -0.549361 0
M  V30 17917 H 1713.16 -3.0326 -2.24306 0
M  V30 17918 H 1715.54 -2.04783 -2.1248 0
M  V30 17919 H 1715.62 -2.5229 -0.422286 0
M  V30 17920 H 1715.27 -4.95676 -1.10761 0
M  V30 17921 H 1715.2 -4.45086 -2.81436 0
M  V30 17922 H 1717.69 -3.39146 -1.66698 0
M  V30 17923 H 1718 -7.18857 -2.83662 0
M  V30 17924 H 1716.35 -6.46232 -2.55751 0
M  V30 17925 H 1719.54 -4.23745 -1.98892 0
M  V30 17926 H 1719.71 -5.96887 -2.5225 0
M  V30 17927 N 1713.12 0.808639 -1.35273 0
M  V30 17928 C 1714.34 1.60219 -1.31699 0
M  V30 17929 C 1714.77 1.87816 0.103386 0
M  V30 17930 O 1714.13 1.46389 1.06957 0
M  V30 17931 C 1714.17 2.9116 -2.12739 0
M  V30 17932 O 1713.28 3.83891 -1.5067 0
M  V30 17933 H 1712.62 0.486742 -0.45164 0
M  V30 17934 H 1715.15 1.00378 -1.78284 0
M  V30 17935 H 1715.16 3.40602 -2.2462 0
M  V30 17936 H 1713.83 2.70399 -3.16002 0
M  V30 17937 H 1712.41 3.42437 -1.47618 0
M  V30 17938 N 1714.6 1.19237 1.03055 0
M  V30 17939 C 1715.83 1.01769 1.79796 0
M  V30 17940 C 1716.23 -0.436738 1.8409 0
M  V30 17941 O 1715.58 -1.31514 1.28257 0
M  V30 17942 C 1715.64 1.50866 3.26312 0
M  V30 17943 C 1715.3 2.98949 3.45657 0
M  V30 17944 C 1716.3 3.96725 3.36014 0
M  V30 17945 C 1713.99 3.37605 3.71925 0
M  V30 17946 C 1715.98 5.31151 3.5236 0
M  V30 17947 C 1713.67 4.7219 3.87918 0
M  V30 17948 C 1714.66 5.68772 3.78137 0
M  V30 17949 O 1714.35 7.00919 3.9366 0
M  V30 17950 H 1714.08 0.359119 0.572721 0
M  V30 17951 H 1716.64 1.58449 1.30702 0
M  V30 17952 H 1714.87 0.885599 3.76423 0
M  V30 17953 H 1716.56 1.29633 3.84643 0
M  V30 17954 H 1717.32 3.68206 3.15672 0
M  V30 17955 H 1713.2 2.62982 3.78631 0
M  V30 17956 H 1716.75 6.06521 3.44643 0
M  V30 17957 H 1712.64 5.00405 4.07756 0
M  V30 17958 H 1713.41 7.07968 4.10761 0
M  V30 17959 N 1716.07 -1.22136 0.99602 0
M  V30 17960 C 1717.3 -1.95519 0.69189 0
M  V30 17961 C 1717.72 -1.7304 -0.73748 0
M  V30 17962 O 1717.08 -1.01157 -1.50456 0
M  V30 17963 C 1717.13 -3.46244 1.00735 0
M  V30 17964 O 1716.23 -4.12259 0.107713 0
M  V30 17965 H 1715.58 -0.611553 0.258648 0
M  V30 17966 H 1718.11 -1.55145 1.33384 0
M  V30 17967 H 1718.12 -3.96774 0.950482 0
M  V30 17968 H 1716.79 -3.6193 2.04889 0
M  V30 17969 H 1715.37 -3.72248 0.220336 0
M  V30 17970 N 1717.55 -0.769612 -1.37531 0
M  V30 17971 C 1718.96 -0.398644 -1.82394 0
M  V30 17972 C 1719.31 1.07493 -1.64133 0
M  V30 17973 O 1718.44 1.83234 -1.15127 0
M  V30 17974 C 1719.03 -0.716789 -3.31131 0
M  V30 17975 C 1717.59 -0.398903 -3.7428 0
M  V30 17976 C 1716.74 -0.96173 -2.60089 0
M  V30 17977 H 1719.69 -0.964441 -1.26033 0
M  V30 17978 H 1719.71 -0.00067688 -3.805 0
M  V30 17979 H 1719.22 -1.78933 -3.4439 0
M  V30 17980 H 1717.33 0.666412 -3.66592 0
M  V30 17981 H 1717.44 -0.90566 -4.70462 0
M  V30 17982 H 1715.8 -0.386103 -2.51757 0
M  V30 17983 H 1716.59 -2.03963 -2.76141 0
M  V30 17984 N 1719.03 1.48775 -0.519977 0
M  V30 17985 C 1720.26 2.07394 0.0161061 0
M  V30 17986 C 1720.68 1.37532 1.28322 0
M  V30 17987 O 1720.04 0.438049 1.75928 0
M  V30 17988 C 1720.09 3.59844 0.233382 0
M  V30 17989 O 1719.19 3.91235 1.30418 0
M  V30 17990 H 1718.53 0.663094 -0.0346678 0
M  V30 17991 H 1721.06 1.91323 -0.725029 0
M  V30 17992 H 1721.07 4.05409 0.45911 0
M  V30 17993 H 1719.75 4.10098 -0.69229 0
M  V30 17994 H 1718.32 3.5746 1.0619 0
M  V30 17995 N 1720.51 0.254649 1.55529 0
M  V30 17996 C 1721.44 -0.682459 2.17756 0
M  V30 17997 C 1722.42 -1.16722 1.13202 0
M  V30 17998 O 1723.6 -1.24395 1.41627 0
M  V30 17999 C 1720.73 -1.92837 2.78445 0
M  V30 18000 C 1719.78 -1.58082 3.96121 0
M  V30 18001 S 1720.61 -0.676715 5.31207 0
M  V30 18002 C 1721.77 -1.93146 5.95353 0
M  V30 18003 H 1722 -0.153664 2.96903 0
M  V30 18004 H 1719.53 0.0390444 1.54351 0
M  V30 18005 H 1721.49 -2.6436 3.14045 0
M  V30 18006 H 1720.15 -2.4283 1.9923 0
M  V30 18007 H 1719.34 -2.50738 4.37203 0
M  V30 18008 H 1718.95 -0.945965 3.61839 0
M  V30 18009 H 1721.24 -2.87783 6.13341 0
M  V30 18010 H 1722.18 -1.564 6.90612 0
M  V30 18011 H 1722.59 -2.08708 5.24501 0
M  V30 18012 N 1721.99 -1.57589 -0.0183649 0
M  V30 18013 C 1722.92 -2.1029 -1.01492 0
M  V30 18014 C 1723.9 -1.00782 -1.37029 0
M  V30 18015 O 1725.08 -1.28365 -1.45726 0
M  V30 18016 C 1722.21 -2.59111 -2.31255 0
M  V30 18017 C 1721.17 -3.72979 -2.0993 0
M  V30 18018 C 1720.49 -4.08046 -3.45547 0
M  V30 18019 C 1721.79 -5.00988 -1.47677 0
M  V30 18020 H 1723.49 -2.93804 -0.57618 0
M  V30 18021 H 1721.03 -1.41336 -0.275708 0
M  V30 18022 H 1722.99 -2.94602 -3.0131 0
M  V30 18023 H 1721.71 -1.72694 -2.77208 0
M  V30 18024 H 1720.37 -3.37853 -1.42306 0
M  V30 18025 H 1720.02 -3.1868 -3.89169 0
M  V30 18026 H 1719.72 -4.8475 -3.32101 0
M  V30 18027 H 1721.24 -4.46081 -4.16947 0
M  V30 18028 H 1722.65 -5.34368 -2.07663 0
M  V30 18029 H 1721.05 -5.82375 -1.44774 0
M  V30 18030 H 1722.12 -4.82865 -0.443804 0
M  V30 18031 N 1723.46 0.290824 -1.54893 0
M  V30 18032 C 1724.74 1.04495 -1.65348 0
M  V30 18033 C 1725.12 2.04888 -0.508348 0
M  V30 18034 O 1724.47 2.23102 0.493749 0
M  V30 18035 C 1724.68 1.71772 -3.03801 0
M  V30 18036 C 1726.03 2.23595 -3.60958 0
M  V30 18037 O 1727.05 1.81788 -3.06319 0
M  V30 18038 O 1725.91 3.00225 -4.56648 0
M  V30 18039 H 1723 0.483605 -0.670862 0
M  V30 18040 H 1725.55 0.288101 -1.67237 0
M  V30 18041 H 1724.32 0.989296 -3.78588 0
M  V30 18042 H 1723.95 2.54188 -3.05735 0
M  V30 18043 N 1724.94 1.47523 0.554506 0
M  V30 18044 C 1726.17 1.57678 1.33496 0
M  V30 18045 C 1726.58 0.226976 1.87834 0
M  V30 18046 O 1725.92 -0.790327 1.6583 0
M  V30 18047 C 1725.99 2.54423 2.53987 0
M  V30 18048 C 1725.65 4.00056 2.20916 0
M  V30 18049 C 1726.65 4.88462 1.78048 0
M  V30 18050 C 1724.33 4.45412 2.32192 0
M  V30 18051 C 1726.33 6.20244 1.46889 0
M  V30 18052 C 1724.01 5.77221 2.00646 0
M  V30 18053 C 1725.01 6.64459 1.58062 0
M  V30 18054 O 1724.7 7.93818 1.26917 0
M  V30 18055 H 1724.43 0.535053 0.413152 0
M  V30 18056 H 1726.98 1.93878 0.678279 0
M  V30 18057 H 1725.21 2.13296 3.22555 0
M  V30 18058 H 1726.9 2.54676 3.16061 0
M  V30 18059 H 1727.67 4.54667 1.68827 0
M  V30 18060 H 1723.55 3.77715 2.64296 0
M  V30 18061 H 1727.09 6.88292 1.13578 0
M  V30 18062 H 1722.99 6.10557 2.095 0
M  V30 18063 H 1723.76 8.06347 1.40525 0
M  V30 18064 N 1726.42 -0.801453 1.357 0
M  V30 18065 C 1727.7 -1.54605 1.19819 0
M  V30 18066 C 1728.08 -2.09944 -0.220593 0
M  V30 18067 O 1727.43 -1.92904 -1.22475 0
M  V30 18068 C 1727.64 -2.65052 2.27043 0
M  V30 18069 C 1728.98 -3.33255 2.63109 0
M  V30 18070 O 1730.01 -2.75326 2.25995 0
M  V30 18071 O 1728.87 -4.37917 3.26942 0
M  V30 18072 H 1725.96 -0.68334 0.465807 0
M  V30 18073 H 1728.51 -0.840972 1.47397 0
M  V30 18074 H 1727.28 -2.22068 3.22182 0
M  V30 18075 H 1726.9 -3.4319 2.00764 0
M  V30 18076 N 1727.9 -1.19782 -1.02421 0
M  V30 18077 C 1729.13 -1.02871 -1.79514 0
M  V30 18078 C 1729.54 0.422387 -1.84014 0
M  V30 18079 O 1728.9 1.29335 -1.28758 0
M  V30 18080 C 1728.95 -1.59634 -3.24344 0
M  V30 18081 O 1728.67 -2.99064 -3.20144 0
M  V30 18082 C 1730.17 -1.47571 -4.18016 0
M  V30 18083 H 1727.39 -0.362301 -0.564782 0
M  V30 18084 H 1729.94 -1.58701 -1.28974 0
M  V30 18085 H 1728.09 -1.07942 -3.72058 0
M  V30 18086 H 1728.5 -3.25859 -4.10994 0
M  V30 18087 H 1729.98 -1.92061 -5.1751 0
M  V30 18088 H 1730.46 -0.426967 -4.3712 0
M  V30 18089 H 1731.06 -1.98417 -3.76179 0
M  V30 18090 N 1729.38 1.21606 -1.00248 0
M  V30 18091 C 1730.29 2.2757 -0.570004 0
M  V30 18092 C 1731.3 1.69669 0.385788 0
M  V30 18093 O 1732.48 1.99839 0.250246 0
M  V30 18094 C 1729.54 3.46558 0.0990566 0
M  V30 18095 C 1728.61 4.19741 -0.9009 0
M  V30 18096 C 1727.84 5.33048 -0.263673 0
M  V30 18097 O 1728.06 5.62599 0.940131 0
M  V30 18098 O 1727 5.93978 -0.973342 0
M  V30 18099 H 1730.82 2.66751 -1.45182 0
M  V30 18100 H 1728.41 1.27955 -0.771224 0
M  V30 18101 H 1730.29 4.18733 0.47339 0
M  V30 18102 H 1728.96 3.09283 0.955285 0
M  V30 18103 H 1727.87 3.49798 -1.32634 0
M  V30 18104 H 1729.2 4.60921 -1.72664 0
M  V30 18105 N 1730.86 0.776895 1.37121 0
M  V30 18106 C 1731.8 0.154521 2.32086 0
M  V30 18107 C 1732.8 -0.679155 1.5519 0
M  V30 18108 O 1734 -0.575641 1.70547 0
M  V30 18109 H 1730.38 0.0311849 0.751353 0
M  V30 18110 H 1732.35 0.971125 2.82156 0
M  V30 18111 C 1731.1 -0.706165 3.40454 0
M  V30 18112 H 1730.42 -0.0740341 3.99731 0
M  V30 18113 H 1731.86 -1.10853 4.09253 0
M  V30 18114 C 1730.32 -1.85901 2.80967 0
M  V30 18115 O 1730.85 -2.95482 2.72128 0
M  V30 18116 N 1729.06 -1.66122 2.38436 0
M  V30 18117 H 1728.6 -0.769915 2.45825 0
M  V30 18118 H 1728.56 -2.43422 1.9898 0
M  V30 18119 N 1732.33 -1.48497 0.527859 0
M  V30 18120 C 1733.26 -2.32414 -0.224891 0
M  V30 18121 C 1734.24 -1.41959 -0.93711 0
M  V30 18122 O 1735.43 -1.70847 -0.923302 0
M  V30 18123 C 1732.56 -3.23106 -1.27356 0
M  V30 18124 C 1731.51 -4.2257 -0.679611 0
M  V30 18125 C 1730.84 -5.02381 -1.83077 0
M  V30 18126 C 1732.14 -5.21144 0.347269 0
M  V30 18127 H 1733.83 -2.95598 0.475632 0
M  V30 18128 H 1731.38 -1.42148 0.230182 0
M  V30 18129 H 1733.33 -3.80639 -1.8081 0
M  V30 18130 H 1732.06 -2.57919 -2.00363 0
M  V30 18131 H 1730.72 -3.66221 -0.166608 0
M  V30 18132 H 1730.36 -4.3362 -2.54918 0
M  V30 18133 H 1730.06 -5.697 -1.43929 0
M  V30 18134 H 1731.59 -5.62765 -2.36914 0
M  V30 18135 H 1733 -5.73213 -0.100107 0
M  V30 18136 H 1731.4 -5.96503 0.656021 0
M  V30 18137 H 1732.47 -4.6841 1.25379 0
M  V30 18138 N 1733.81 -0.262893 -1.55392 0
M  V30 18139 C 1734.76 0.645946 -2.23451 0
M  V30 18140 C 1735.75 1.16753 -1.2274 0
M  V30 18141 O 1736.96 1.12257 -1.40706 0
M  V30 18142 H 1733.33 0.226829 -0.716975 0
M  V30 18143 H 1735.31 0.0489539 -2.9836 0
M  V30 18144 C 1734.05 1.82451 -2.95985 0
M  V30 18145 H 1733.38 1.43233 -3.73262 0
M  V30 18146 H 1734.82 2.43731 -3.46945 0
M  V30 18147 C 1733.28 2.7055 -2.0076 0
M  V30 18148 O 1733.81 3.70552 -1.55093 0
M  V30 18149 N 1732.01 2.37457 -1.67519 0
M  V30 18150 H 1731.56 1.56184 -2.04852 0
M  V30 18151 H 1731.52 2.96675 -1.04074 0
M  V30 18152 N 1735.29 1.57597 0.0100073 0
M  V30 18153 C 1736.51 1.94801 0.711852 0
M  V30 18154 C 1736.94 0.864343 1.67065 0
M  V30 18155 O 1736.3 -0.178388 1.8042 0
M  V30 18156 C 1736.35 3.31094 1.42862 0
M  V30 18157 O 1735.45 3.2469 2.54264 0
M  V30 18158 H 1734.79 0.636207 0.190095 0
M  V30 18159 H 1737.32 2.04561 -0.0402016 0
M  V30 18160 H 1737.33 3.66428 1.79429 0
M  V30 18161 H 1736.01 4.09522 0.725549 0
M  V30 18162 H 1734.58 3.01017 2.20099 0
M  V30 18163 N 1736.77 -0.282606 1.55045 0
M  V30 18164 C 1737.68 -1.37129 1.90349 0
M  V30 18165 C 1738.69 -1.54537 0.799639 0
M  V30 18166 O 1739.87 -1.68849 1.09782 0
M  V30 18167 C 1736.93 -2.71211 2.15975 0
M  V30 18168 C 1736 -2.62632 3.39592 0
M  V30 18169 C 1735.23 -3.90319 3.63987 0
M  V30 18170 O 1735.45 -4.90551 2.9106 0
M  V30 18171 O 1734.39 -3.91102 4.57518 0
M  V30 18172 H 1738.21 -1.10189 2.83006 0
M  V30 18173 H 1735.8 -0.480293 1.41469 0
M  V30 18174 H 1737.68 -3.50509 2.33926 0
M  V30 18175 H 1736.35 -2.97958 1.26503 0
M  V30 18176 H 1735.26 -1.81743 3.26987 0
M  V30 18177 H 1736.59 -2.40836 4.29254 0
M  V30 18178 N 1738.25 -1.47815 -0.546675 0
M  V30 18179 C 1739.16 -1.63744 -1.68003 0
M  V30 18180 C 1740.17 -0.520118 -1.66044 0
M  V30 18181 O 1741.35 -0.789033 -1.853 0
M  V30 18182 C 1738.41 -1.65778 -3.04497 0
M  V30 18183 C 1737.47 -2.89015 -3.17441 0
M  V30 18184 C 1736.71 -2.90943 -4.47424 0
M  V30 18185 O 1736.93 -2.01769 -5.33522 0
M  V30 18186 O 1735.86 -3.82927 -4.64382 0
M  V30 18187 H 1739.69 -2.59665 -1.57505 0
M  V30 18188 H 1737.27 -1.31022 -0.717883 0
M  V30 18189 H 1739.16 -1.69734 -3.85705 0
M  V30 18190 H 1737.83 -0.730268 -3.15355 0
M  V30 18191 H 1736.74 -2.90599 -2.35591 0
M  V30 18192 H 1738.07 -3.81095 -3.11492 0
M  V30 18193 N 1739.72 0.794246 -1.36123 0
M  V30 18194 C 1740.97 1.54708 -1.29416 0
M  V30 18195 C 1741.29 1.95195 0.125849 0
M  V30 18196 O 1742.49 2.69663 0.315271 0
M  V30 18197 C 1740.95 2.79256 -2.27034 0
M  V30 18198 C 1740.56 2.45957 -3.74445 0
M  V30 18199 C 1742.3 3.57246 -2.29294 0
M  V30 18200 C 1740.21 3.66871 -4.63853 0
M  V30 18201 H 1739.14 0.580743 -0.480888 0
M  V30 18202 H 1741.79 0.871975 -1.61458 0
M  V30 18203 H 1740.17 3.4854 -1.87979 0
M  V30 18204 H 1741.34 1.846 -4.22208 0
M  V30 18205 H 1739.66 1.81187 -3.74913 0
M  V30 18206 H 1742.26 4.47076 -2.93304 0
M  V30 18207 H 1742.6 3.95478 -1.30011 0
M  V30 18208 H 1743.13 2.94936 -2.66941 0
M  V30 18209 H 1739.87 3.33739 -5.6418 0
M  V30 18210 H 1739.39 4.27411 -4.20809 0
M  V30 18211 H 1741.07 4.33957 -4.79886 0
M  V30 18212 N 1741.2 1.20323 1.01785 0
M  V30 18213 C 1742.43 1.03671 1.78706 0
M  V30 18214 C 1742.84 -0.417188 1.84543 0
M  V30 18215 O 1742.18 -1.30146 1.29645 0
M  V30 18216 C 1742.24 1.54318 3.24694 0
M  V30 18217 C 1741.91 3.02598 3.42466 0
M  V30 18218 C 1742.91 4.00267 3.31787 0
M  V30 18219 C 1740.59 3.41531 3.68323 0
M  V30 18220 C 1742.58 5.34858 3.46707 0
M  V30 18221 C 1740.27 4.76278 3.82887 0
M  V30 18222 C 1741.27 5.7275 3.72083 0
M  V30 18223 O 1740.96 7.05055 3.86203 0
M  V30 18224 H 1740.69 0.365174 0.56888 0
M  V30 18225 H 1743.24 1.59826 1.29014 0
M  V30 18226 H 1741.47 0.925474 3.75462 0
M  V30 18227 H 1743.16 1.33705 3.83246 0
M  V30 18228 H 1743.93 3.71534 3.11749 0
M  V30 18229 H 1739.81 2.66983 3.75821 0
M  V30 18230 H 1743.35 6.10142 3.3819 0
M  V30 18231 H 1739.25 5.04702 4.02425 0
M  V30 18232 H 1740.02 7.12284 4.03228 0
M  V30 18233 N 1742.68 -1.21073 1.00892 0
M  V30 18234 C 1743.9 -1.94774 0.712588 0
M  V30 18235 C 1744.33 -1.73812 -0.719085 0
M  V30 18236 O 1743.69 -1.02747 -1.49374 0
M  V30 18237 C 1743.74 -3.45156 1.04402 0
M  V30 18238 O 1742.84 -4.12122 0.151433 0
M  V30 18239 H 1742.18 -0.608775 0.26512 0
M  V30 18240 H 1744.71 -1.53721 1.35022 0
M  V30 18241 H 1744.72 -3.95744 0.992511 0
M  V30 18242 H 1743.4 -3.59736 2.08716 0
M  V30 18243 H 1741.97 -3.71994 0.259805 0
M  V30 18244 N 1744.16 -0.784156 -1.36707 0
M  V30 18245 C 1745.38 -0.364744 -2.04168 0
M  V30 18246 C 1745.81 1.00905 -1.58745 0
M  V30 18247 O 1745.17 1.64903 -0.753447 0
M  V30 18248 C 1745.21 -0.43091 -3.58016 0
M  V30 18249 O 1744.32 0.564103 -4.08524 0
M  V30 18250 H 1743.66 -0.15576 -0.645473 0
M  V30 18251 H 1746.19 -1.0638 -1.74769 0
M  V30 18252 H 1746.2 -0.292629 -4.06949 0
M  V30 18253 H 1744.87 -1.43308 -3.9043 0
M  V30 18254 H 1743.45 0.387917 -3.70877 0
M  V30 18255 N 1745.64 1.48215 -0.535727 0
M  V30 18256 C 1746.57 2.3253 0.212562 0
M  V30 18257 C 1747.55 1.42454 0.929568 0
M  V30 18258 O 1748.73 1.71334 0.914228 0
M  V30 18259 C 1745.86 3.23777 1.25641 0
M  V30 18260 C 1744.82 4.22924 0.657191 0
M  V30 18261 C 1744.14 5.03345 1.80411 0
M  V30 18262 C 1745.44 5.20953 -0.374902 0
M  V30 18263 H 1747.14 2.95341 -0.491301 0
M  V30 18264 H 1744.68 1.42024 -0.237718 0
M  V30 18265 H 1746.64 3.81592 1.78789 0
M  V30 18266 H 1745.36 2.58978 1.98993 0
M  V30 18267 H 1744.02 3.66304 0.147184 0
M  V30 18268 H 1743.67 4.34965 2.52615 0
M  V30 18269 H 1743.37 5.70455 1.40906 0
M  V30 18270 H 1744.89 5.64013 2.33926 0
M  V30 18271 H 1746.3 5.73258 0.0697072 0
M  V30 18272 H 1744.7 5.96147 -0.687646 0
M  V30 18273 H 1745.77 4.67739 -1.27861 0
M  V30 18274 N 1747.11 0.27113 1.5525 0
M  V30 18275 C 1748.53 -0.0831186 1.59383 0
M  V30 18276 C 1748.73 -1.54931 1.28835 0
M  V30 18277 O 1747.79 -2.29756 1.0473 0
M  V30 18278 C 1749.1 0.287921 2.99318 0
M  V30 18279 C 1750.65 0.234209 3.12123 0
M  V30 18280 C 1751.12 0.57963 4.54317 0
M  V30 18281 N 1752.61 0.531033 4.60146 0
M  V30 18282 C 1753.35 0.771156 5.68191 0
M  V30 18283 N 1752.84 1.07569 6.84398 0
M  V30 18284 N 1754.64 0.700223 5.57722 0
M  V30 18285 H 1746.79 1.22702 1.73373 0
M  V30 18286 H 1749.05 0.495424 0.808244 0
M  V30 18287 H 1748.76 1.30746 3.26494 0
M  V30 18288 H 1748.63 -0.373205 3.75349 0
M  V30 18289 H 1751.02 -0.776035 2.84713 0
M  V30 18290 H 1751.1 0.929535 2.38313 0
M  V30 18291 H 1750.74 1.58754 4.82452 0
M  V30 18292 H 1750.67 -0.137442 5.26421 0
M  V30 18293 H 1753.16 0.305377 3.76664 0
M  V30 18294 H 1753.48 1.24568 7.62694 0
M  V30 18295 H 1751.82 1.11342 6.86023 0
M  V30 18296 H 1755.01 0.462183 4.65813 0
M  V30 18297 H 1755.19 0.890744 6.41849 0
M  V30 18298 N 1748.59 -1.576 -0.00164943 0
M  V30 18299 C 1749.84 -1.9012 -0.685486 0
M  V30 18300 C 1750.16 -0.872245 -1.74404 0
M  V30 18301 O 1749.43 0.090572 -1.95691 0
M  V30 18302 H 1748.01 -0.701699 -0.256177 0
M  V30 18303 H 1750.67 -1.94861 0.0388866 0
M  V30 18304 H 1749.77 -2.89831 -1.15778 0
M  V30 18305 N 1750.07 0.274379 -1.55193 0
M  V30 18306 C 1751.32 1.00766 -1.75995 0
M  V30 18307 C 1751.65 1.8599 -0.558679 0
M  V30 18308 O 1750.92 1.8937 0.443784 0
M  V30 18309 C 1751.21 1.89137 -3.0643 0
M  V30 18310 C 1751.06 1.06914 -4.36909 0
M  V30 18311 C 1752.38 2.87869 -3.32896 0
M  V30 18312 H 1749.5 0.364915 -0.640317 0
M  V30 18313 H 1752.14 0.280156 -1.87923 0
M  V30 18314 H 1750.29 2.51166 -2.96391 0
M  V30 18315 H 1751.96 0.469666 -4.58903 0
M  V30 18316 H 1750.21 0.372566 -4.32197 0
M  V30 18317 H 1750.88 1.72063 -5.24498 0
M  V30 18318 H 1753.35 2.35974 -3.42718 0
M  V30 18319 H 1752.23 3.46845 -4.25429 0
M  V30 18320 H 1752.49 3.62921 -2.52469 0
M  V30 18321 N 1751.55 1.48103 0.538828 0
M  V30 18322 C 1752.78 1.59316 1.32008 0
M  V30 18323 C 1753.19 0.250107 1.87136 0
M  V30 18324 O 1752.55 -0.759358 1.65952 0
M  V30 18325 C 1752.6 2.63287 2.47714 0
M  V30 18326 O 1752.32 3.92379 1.9486 0
M  V30 18327 C 1753.82 2.84856 3.39664 0
M  V30 18328 H 1751.04 0.53743 0.401758 0
M  V30 18329 H 1753.59 1.93864 0.65092 0
M  V30 18330 H 1751.74 2.31621 3.10532 0
M  V30 18331 H 1752.15 4.49346 2.70534 0
M  V30 18332 H 1753.63 3.61426 4.17223 0
M  V30 18333 H 1754.11 1.93352 3.9435 0
M  V30 18334 H 1754.71 3.17791 2.82647 0
M  V30 18335 N 1753.03 -0.787016 1.36542 0
M  V30 18336 C 1753.94 -1.93103 1.33223 0
M  V30 18337 C 1754.95 -1.72419 0.234047 0
M  V30 18338 O 1756.13 -1.95915 0.466828 0
M  V30 18339 C 1753.19 -3.28002 1.12319 0
M  V30 18340 C 1752.25 -3.61447 2.31635 0
M  V30 18341 C 1751.49 -4.89909 2.11719 0
M  V30 18342 O 1751.71 -5.59818 1.0936 0
M  V30 18343 O 1750.64 -5.22065 2.99552 0
M  V30 18344 H 1754.47 -1.98853 2.29545 0
M  V30 18345 H 1752.06 -0.92761 1.17114 0
M  V30 18346 H 1753.94 -4.08722 1.02589 0
M  V30 18347 H 1752.61 -3.23138 0.19061 0
M  V30 18348 H 1751.52 -2.81024 2.46934 0
M  V30 18349 H 1752.85 -3.71037 3.23407 0
M  V30 18350 N 1754.5 -1.20861 -1.01145 0
M  V30 18351 C 1755.47 -0.963742 -2.07954 0
M  V30 18352 C 1756.47 0.0627362 -1.60678 0
M  V30 18353 O 1757.66 -0.173867 -1.7333 0
M  V30 18354 C 1754.79 -0.451977 -3.3789 0
M  V30 18355 H 1755.98 -1.91123 -2.3111 0
M  V30 18356 H 1753.54 -1.0247 -1.18024 0
M  V30 18357 H 1754.27 0.500735 -3.20411 0
M  V30 18358 H 1754.06 -1.19231 -3.73532 0
M  V30 18359 H 1755.55 -0.300308 -4.16519 0
M  V30 18360 N 1755.98 1.20536 -1.01532 0
M  V30 18361 C 1757.23 1.89191 -0.699258 0
M  V30 18362 C 1757.54 1.79624 0.774238 0
M  V30 18363 O 1758.75 2.43402 1.20281 0
M  V30 18364 C 1757.21 3.39294 -1.20033 0
M  V30 18365 C 1756.81 3.57449 -2.70064 0
M  V30 18366 C 1758.56 4.13511 -0.959626 0
M  V30 18367 C 1756.47 5.01371 -3.13658 0
M  V30 18368 H 1755.4 0.708537 -0.257859 0
M  V30 18369 H 1758.05 1.36368 -1.22785 0
M  V30 18370 H 1756.43 3.91432 -0.599728 0
M  V30 18371 H 1757.6 3.15702 -3.35662 0
M  V30 18372 H 1755.92 2.966 -2.92262 0
M  V30 18373 H 1758.51 5.19624 -1.26077 0
M  V30 18374 H 1758.86 4.1617 0.103934 0
M  V30 18375 H 1759.39 3.67469 -1.52354 0
M  V30 18376 H 1756.13 5.03866 -4.19285 0
M  V30 18377 H 1755.65 5.43933 -2.52779 0
M  V30 18378 H 1757.33 5.69944 -3.06224 0
M  V30 18379 N 1757.46 0.791395 1.36289 0
M  V30 18380 C 1758.37 0.192362 2.3381 0
M  V30 18381 C 1759.39 -0.656556 1.61138 0
M  V30 18382 O 1760.56 -0.571877 1.9311 0
M  V30 18383 C 1757.63 -0.661283 3.40335 0
M  V30 18384 C 1756.69 0.206361 4.28804 0
M  V30 18385 C 1755.92 -0.606636 5.30241 0
M  V30 18386 O 1756.14 -1.84247 5.39823 0
M  V30 18387 O 1755.08 -0.00549116 6.019 0
M  V30 18388 H 1758.9 0.998723 2.86809 0
M  V30 18389 H 1756.49 0.552889 1.38793 0
M  V30 18390 H 1758.37 -1.148 4.05461 0
M  V30 18391 H 1757.05 -1.4455 2.89632 0
M  V30 18392 H 1755.95 0.739877 3.66711 0
M  V30 18393 H 1757.29 0.954142 4.82863 0
M  V30 18394 N 1758.94 -1.47929 0.54358 0
M  V30 18395 C 1759.89 -2.29827 -0.211706 0
M  V30 18396 C 1760.86 -1.38217 -0.921154 0
M  V30 18397 O 1762.04 -1.67181 -0.919522 0
M  V30 18398 C 1759.18 -3.21889 -1.24425 0
M  V30 18399 C 1758.29 -4.28583 -0.542264 0
M  V30 18400 C 1757.43 -5.0781 -1.55892 0
M  V30 18401 C 1756.47 -6.06293 -0.841146 0
M  V30 18402 N 1755.61 -6.78528 -1.80399 0
M  V30 18403 H 1760.45 -2.93896 0.492835 0
M  V30 18404 H 1757.98 -1.44875 0.254873 0
M  V30 18405 H 1759.94 -3.73674 -1.85535 0
M  V30 18406 H 1758.57 -2.59713 -1.917 0
M  V30 18407 H 1757.62 -3.79959 0.183069 0
M  V30 18408 H 1758.93 -4.98796 0.0206703 0
M  V30 18409 H 1758.09 -5.63678 -2.24393 0
M  V30 18410 H 1756.83 -4.37468 -2.15576 0
M  V30 18411 H 1755.83 -5.49616 -0.14214 0
M  V30 18412 H 1757.06 -6.78639 -0.250232 0
M  V30 18413 H 1755 -6.10927 -2.38965 0
M  V30 18414 H 1754.92 -7.44863 -1.29285 0
M  V30 18415 H 1756.19 -7.38978 -2.48056 0
M  V30 18416 N 1760.42 -0.27936 -1.55104 0
M  V30 18417 C 1761.66 0.336205 -1.9969 0
M  V30 18418 C 1761.99 1.55542 -1.16777 0
M  V30 18419 O 1761.25 1.94385 -0.226497 0
M  V30 18420 C 1761.55 0.758312 -3.49263 0
M  V30 18421 C 1761.21 -0.356741 -4.49487 0
M  V30 18422 C 1759.87 -0.662905 -4.76612 0
M  V30 18423 C 1762.23 -1.10789 -5.09289 0
M  V30 18424 C 1759.55 -1.72373 -5.60807 0
M  V30 18425 C 1761.91 -2.15847 -5.94637 0
M  V30 18426 C 1760.57 -2.47094 -6.20081 0
M  V30 18427 H 1759.84 0.123026 -0.730716 0
M  V30 18428 H 1762.49 -0.393956 -1.87404 0
M  V30 18429 H 1760.79 1.56822 -3.59046 0
M  V30 18430 H 1762.49 1.24541 -3.8117 0
M  V30 18431 H 1759.08 -0.107997 -4.28464 0
M  V30 18432 H 1763.26 -0.884619 -4.88353 0
M  V30 18433 H 1758.52 -1.97079 -5.78766 0
M  V30 18434 H 1762.69 -2.74523 -6.40008 0
M  V30 18435 H 1760.32 -3.29428 -6.85114 0
M  V30 18436 N 1761.9 1.57599 -0.0067085 0
M  V30 18437 C 1763.12 1.95545 0.69115 0
M  V30 18438 C 1763.55 0.882014 1.66139 0
M  V30 18439 O 1762.9 -0.159242 1.80599 0
M  V30 18440 C 1762.95 3.3259 1.39342 0
M  V30 18441 O 1762.06 3.27368 2.50806 0
M  V30 18442 H 1761.4 0.638188 0.183336 0
M  V30 18443 H 1763.93 2.04506 -0.0618957 0
M  V30 18444 H 1763.94 3.6831 1.75532 0
M  V30 18445 H 1762.61 4.10269 0.682072 0
M  V30 18446 H 1761.19 3.03334 2.16894 0
M  V30 18447 N 1763.37 -0.266145 1.55336 0
M  V30 18448 C 1764.62 -0.996831 1.76265 0
M  V30 18449 C 1764.95 -1.86035 0.567553 0
M  V30 18450 O 1764.2 -1.90462 -0.449754 0
M  V30 18451 C 1764.5 -1.90357 3.02488 0
M  V30 18452 C 1764.17 -1.19699 4.34722 0
M  V30 18453 C 1762.83 -1.00164 4.7066 0
M  V30 18454 C 1765.18 -0.694703 5.16549 0
M  V30 18455 C 1762.51 -0.291394 5.85976 0
M  V30 18456 C 1764.86 0.00198006 6.326 0
M  V30 18457 C 1763.53 0.20898 6.67173 0
M  V30 18458 H 1762.8 -0.364766 0.645001 0
M  V30 18459 H 1765.44 -0.268528 1.89608 0
M  V30 18460 H 1763.75 -2.69831 2.84075 0
M  V30 18461 H 1765.45 -2.47026 3.15878 0
M  V30 18462 H 1762.04 -1.35916 4.06479 0
M  V30 18463 H 1766.22 -0.833229 4.89256 0
M  V30 18464 H 1761.48 -0.120359 6.11282 0
M  V30 18465 H 1765.65 0.398909 6.95257 0
M  V30 18466 H 1763.28 0.761301 7.56378 0
M  V30 18467 N 1764.85 -1.48386 -0.530967 0
M  V30 18468 C 1766.27 -1.34485 -0.859412 0
M  V30 18469 C 1766.47 -0.355124 -1.98346 0
M  V30 18470 O 1765.52 0.224012 -2.51504 0
M  V30 18471 C 1766.84 -2.74488 -1.22787 0
M  V30 18472 C 1768.38 -2.82969 -1.33781 0
M  V30 18473 C 1768.86 -4.23673 -1.7397 0
M  V30 18474 N 1770.35 -4.26341 -1.81074 0
M  V30 18475 C 1771.09 -5.32149 -2.13554 0
M  V30 18476 N 1770.58 -6.48235 -2.44464 0
M  V30 18477 N 1772.37 -5.19542 -2.14551 0
M  V30 18478 H 1764.53 -2.11352 0.210713 0
M  V30 18479 H 1766.79 -0.947472 0.0316283 0
M  V30 18480 H 1766.49 -3.4847 -0.475552 0
M  V30 18481 H 1766.37 -3.0795 -2.17823 0
M  V30 18482 H 1768.76 -2.09244 -2.08089 0
M  V30 18483 H 1768.84 -2.53129 -0.368677 0
M  V30 18484 H 1768.48 -4.97914 -1.00222 0
M  V30 18485 H 1768.41 -4.50956 -2.71931 0
M  V30 18486 H 1770.9 -3.42606 -1.59467 0
M  V30 18487 H 1771.21 -7.24712 -2.6835 0
M  V30 18488 H 1769.56 -6.51512 -2.41986 0
M  V30 18489 H 1772.75 -4.27868 -1.89859 0
M  V30 18490 H 1772.92 -6.02103 -2.39532 0
M  V30 18491 N 1766.33 0.779763 -1.36958 0
M  V30 18492 C 1767.55 1.57389 -1.35068 0
M  V30 18493 C 1767.98 1.87993 0.0635244 0
M  V30 18494 O 1767.34 1.48625 1.03828 0
M  V30 18495 C 1767.39 2.86582 -2.18868 0
M  V30 18496 O 1766.49 3.80609 -1.58779 0
M  V30 18497 H 1765.83 0.477052 -0.461863 0
M  V30 18498 H 1768.36 0.965741 -1.80373 0
M  V30 18499 H 1768.37 3.35761 -2.31794 0
M  V30 18500 H 1767.05 2.63635 -3.21666 0
M  V30 18501 H 1765.62 3.39229 -1.54848 0
M  V30 18502 N 1767.81 1.21396 1.00503 0
M  V30 18503 C 1768.74 0.930982 2.09441 0
M  V30 18504 C 1769.75 -0.0857912 1.62574 0
M  V30 18505 O 1770.94 0.146701 1.77896 0
M  V30 18506 C 1768.04 0.376344 3.36804 0
M  V30 18507 C 1767.21 1.44744 4.12756 0
M  V30 18508 C 1766.27 0.902051 5.18411 0
M  V30 18509 O 1765.3 1.58548 5.46673 0
M  V30 18510 N 1766.5 -0.282718 5.79811 0
M  V30 18511 H 1769.27 1.86879 2.343 0
M  V30 18512 H 1766.83 1.1192 1.16985 0
M  V30 18513 H 1768.82 -0.00292068 4.047 0
M  V30 18514 H 1767.39 -0.466283 3.09103 0
M  V30 18515 H 1766.61 2.00056 3.39664 0
M  V30 18516 H 1767.9 2.16846 4.60277 0
M  V30 18517 H 1767.3 -0.855 5.59201 0
M  V30 18518 H 1765.85 -0.603494 6.49 0
M  V30 18519 N 1769.29 -1.19996 1.0217 0
M  V30 18520 C 1770.2 -2.26634 0.606136 0
M  V30 18521 C 1771.21 -1.70262 -0.358746 0
M  V30 18522 O 1772.39 -2.00212 -0.218422 0
M  V30 18523 C 1769.45 -3.46672 -0.0439096 0
M  V30 18524 C 1768.51 -4.18254 0.967563 0
M  V30 18525 C 1767.75 -5.32561 0.348443 0
M  V30 18526 O 1767.97 -5.64024 -0.850508 0
M  V30 18527 O 1766.9 -5.92354 1.06772 0
M  V30 18528 H 1770.73 -2.64407 1.49407 0
M  V30 18529 H 1768.31 -1.26712 0.791483 0
M  V30 18530 H 1770.2 -4.19433 -0.406714 0
M  V30 18531 H 1768.87 -3.10764 -0.90596 0
M  V30 18532 H 1767.78 -3.47644 1.38183 0
M  V30 18533 H 1769.11 -4.58116 1.79975 0
M  V30 18534 N 1770.76 -0.798611 -1.35867 0
M  V30 18535 C 1772.04 -0.298858 -1.93303 0
M  V30 18536 C 1772.42 1.21038 -1.72954 0
M  V30 18537 O 1771.77 2.00617 -1.09386 0
M  V30 18538 C 1771.98 -0.701532 -3.41876 0
M  V30 18539 C 1773.33 -0.686486 -4.19014 0
M  V30 18540 O 1774.35 -0.642577 -3.50356 0
M  V30 18541 O 1773.21 -0.737653 -5.41499 0
M  V30 18542 H 1770.3 -0.0762987 -0.823473 0
M  V30 18543 H 1772.85 -0.881773 -1.44993 0
M  V30 18544 H 1771.62 -1.74204 -3.50383 0
M  V30 18545 H 1771.24 -0.092994 -3.97491 0
M  V30 18546 N 1772.24 1.47639 -0.551417 0
M  V30 18547 C 1773.17 2.32743 0.187887 0
M  V30 18548 C 1774.15 1.43432 0.914407 0
M  V30 18549 O 1775.34 1.72295 0.896005 0
M  V30 18550 C 1772.47 3.25092 1.22199 0
M  V30 18551 C 1771.42 4.23598 0.612298 0
M  V30 18552 C 1770.75 5.0523 1.75062 0
M  V30 18553 C 1772.05 5.20526 -0.430135 0
M  V30 18554 H 1773.74 2.94804 -0.522598 0
M  V30 18555 H 1771.29 1.41764 -0.252768 0
M  V30 18556 H 1773.24 3.83467 1.74731 0
M  V30 18557 H 1771.96 2.61074 1.96235 0
M  V30 18558 H 1770.62 3.6644 0.108324 0
M  V30 18559 H 1770.27 4.3762 2.47987 0
M  V30 18560 H 1769.97 5.71918 1.34848 0
M  V30 18561 H 1771.5 5.66463 2.27931 0
M  V30 18562 H 1772.91 5.73299 0.00890168 0
M  V30 18563 H 1771.31 5.95384 -0.750836 0
M  V30 18564 H 1772.38 4.66356 -1.32815 0
M  V30 18565 N 1773.72 0.287581 1.54954 0
M  V30 18566 C 1774.67 -0.610315 2.2445 0
M  V30 18567 C 1775.66 -1.14786 1.24582 0
M  V30 18568 O 1776.87 -1.10005 1.42474 0
M  V30 18569 H 1773.24 -0.215394 0.720493 0
M  V30 18570 H 1775.21 -0.00148121 2.984 0
M  V30 18571 C 1773.96 -1.77719 2.9885 0
M  V30 18572 H 1773.29 -1.37277 3.75493 0
M  V30 18573 H 1774.73 -2.38181 3.50779 0
M  V30 18574 C 1773.19 -2.67321 2.05039 0
M  V30 18575 O 1773.72 -3.68038 1.60968 0
M  V30 18576 N 1771.92 -2.34761 1.71276 0
M  V30 18577 H 1771.47 -1.52905 2.07311 0
M  V30 18578 H 1771.43 -2.94981 1.08781 0
M  V30 18579 N 1775.2 -1.57593 0.0150662 0
M  V30 18580 C 1776.11 -2.12807 -0.987437 0
M  V30 18581 C 1777.12 -1.07691 -1.3667 0
M  V30 18582 O 1778.3 -1.39674 -1.45097 0
M  V30 18583 C 1775.37 -2.63276 -2.2558 0
M  V30 18584 C 1774.43 -3.83053 -1.93827 0
M  V30 18585 C 1773.66 -4.31106 -3.14616 0
M  V30 18586 O 1773.88 -3.78405 -4.26809 0
M  V30 18587 O 1772.82 -5.23104 -2.97734 0
M  V30 18588 H 1776.64 -2.98715 -0.548015 0
M  V30 18589 H 1774.23 -1.47991 -0.20469 0
M  V30 18590 H 1776.11 -2.95869 -3.00066 0
M  V30 18591 H 1774.78 -1.80459 -2.68731 0
M  V30 18592 H 1773.69 -3.55409 -1.1677 0
M  V30 18593 H 1775.02 -4.6699 -1.55502 0
M  V30 18594 N 1776.68 0.257904 -1.55475 0
M  V30 18595 C 1778.09 0.82782 -1.67344 0
M  V30 18596 C 1778.44 1.8646 -0.610494 0
M  V30 18597 O 1777.56 2.15005 0.245275 0
M  V30 18598 C 1778.16 1.5083 -3.03374 0
M  V30 18599 C 1776.72 2.02605 -3.17219 0
M  V30 18600 C 1775.86 0.873303 -2.63189 0
M  V30 18601 H 1778.82 0.0339334 -1.58664 0
M  V30 18602 H 1778.84 2.3759 -2.97205 0
M  V30 18603 H 1778.35 0.753469 -3.80716 0
M  V30 18604 H 1776.45 2.81002 -2.4468 0
M  V30 18605 H 1776.56 2.23099 -4.23985 0
M  V30 18606 H 1774.93 1.27082 -2.20731 0
M  V30 18607 H 1775.71 0.131739 -3.43047 0
M  V30 18608 N 1778.15 1.48666 0.52309 0
M  V30 18609 C 1779.4 1.56286 1.27505 0
M  V30 18610 C 1779.72 0.244774 1.94062 0
M  V30 18611 O 1780.92 0.199289 2.70768 0
M  V30 18612 C 1779.38 2.75654 2.31393 0
M  V30 18613 C 1778.99 4.14133 1.70874 0
M  V30 18614 C 1780.73 2.92591 3.07556 0
M  V30 18615 C 1778.64 5.24752 2.72743 0
M  V30 18616 H 1777.57 0.581842 0.479558 0
M  V30 18617 H 1780.22 1.75013 0.551611 0
M  V30 18618 H 1778.6 2.50376 3.06803 0
M  V30 18619 H 1779.77 4.49458 1.01607 0
M  V30 18620 H 1778.09 4.0237 1.0718 0
M  V30 18621 H 1780.69 3.72403 3.83692 0
M  V30 18622 H 1781.03 2.02308 3.63837 0
M  V30 18623 H 1781.56 3.17804 2.39261 0
M  V30 18624 H 1778.3 6.17024 2.21273 0
M  V30 18625 H 1777.82 4.93907 3.40318 0
M  V30 18626 H 1779.5 5.53158 3.35598 0
M  V30 18627 N 1779.63 -0.772489 1.37369 0
M  V30 18628 C 1780.58 -1.88575 1.33073 0
M  V30 18629 C 1781.55 -1.64935 0.19641 0
M  V30 18630 O 1782.73 -1.86862 0.385651 0
M  V30 18631 C 1779.87 -3.25628 1.14281 0
M  V30 18632 C 1778.99 -3.61227 2.36936 0
M  V30 18633 C 1778.12 -4.87486 2.11023 0
M  V30 18634 C 1777.16 -5.15814 3.29548 0
M  V30 18635 N 1776.3 -6.33261 3.03191 0
M  V30 18636 H 1781.14 -1.91583 2.28255 0
M  V30 18637 H 1778.68 -0.936654 1.13425 0
M  V30 18638 H 1780.63 -4.04688 1.01407 0
M  V30 18639 H 1779.26 -3.21998 0.227467 0
M  V30 18640 H 1778.32 -2.77158 2.60552 0
M  V30 18641 H 1779.63 -3.781 3.25333 0
M  V30 18642 H 1778.78 -5.74449 1.95176 0
M  V30 18643 H 1777.52 -4.72716 1.19962 0
M  V30 18644 H 1776.53 -4.27328 3.45935 0
M  V30 18645 H 1777.75 -5.32493 4.21459 0
M  V30 18646 H 1775.7 -6.19851 2.14759 0
M  V30 18647 H 1775.61 -6.50546 3.85131 0
M  V30 18648 H 1776.88 -7.23162 2.9096 0
M  V30 18649 N 1781.11 -1.21927 -0.998575 0
M  V30 18650 C 1782.53 -0.978007 -1.26124 0
M  V30 18651 C 1782.73 0.3318 -1.98749 0
M  V30 18652 O 1781.78 1.05585 -2.29364 0
M  V30 18653 C 1783.1 -2.17291 -2.07858 0
M  V30 18654 C 1784.64 -2.21586 -2.21062 0
M  V30 18655 C 1785.12 -3.40613 -3.06181 0
M  V30 18656 N 1786.61 -3.40739 -3.13769 0
M  V30 18657 C 1787.34 -4.29488 -3.79905 0
M  V30 18658 N 1786.84 -5.28445 -4.48015 0
M  V30 18659 N 1788.63 -4.17279 -3.76609 0
M  V30 18660 H 1780.78 -2.06149 -0.51151 0
M  V30 18661 H 1783.05 -0.903039 -0.288487 0
M  V30 18662 H 1782.75 -3.12246 -1.61851 0
M  V30 18663 H 1782.63 -2.16883 -3.08612 0
M  V30 18664 H 1785.01 -1.27183 -2.66286 0
M  V30 18665 H 1785.1 -2.26035 -1.19757 0
M  V30 18666 H 1784.74 -4.35313 -2.61659 0
M  V30 18667 H 1784.67 -3.33403 -4.07615 0
M  V30 18668 H 1787.16 -2.69128 -2.65289 0
M  V30 18669 H 1787.47 -5.92454 -4.96203 0
M  V30 18670 H 1785.82 -5.32364 -4.46782 0
M  V30 18671 H 1789.01 -3.39226 -3.22557 0
M  V30 18672 H 1789.18 -4.86651 -4.27873 0
M  V30 18673 N 1782.59 1.19452 -1.02805 0
M  V30 18674 C 1783.87 1.84878 -0.638707 0
M  V30 18675 C 1784.25 1.91763 0.882627 0
M  V30 18676 O 1783.59 1.43401 1.779 0
M  V30 18677 C 1783.8 3.23891 -1.29982 0
M  V30 18678 C 1785.15 4.00061 -1.42254 0
M  V30 18679 O 1786.18 3.33286 -1.25693 0
M  V30 18680 O 1785.03 5.19671 -1.69127 0
M  V30 18681 H 1782.13 0.796676 -0.221892 0
M  V30 18682 H 1784.67 1.26949 -1.12615 0
M  V30 18683 H 1783.45 3.13711 -2.33883 0
M  V30 18684 H 1783.07 3.89465 -0.800186 0
M  V30 18685 N 1784.07 0.805805 1.35442 0
M  V30 18686 C 1785.31 0.385046 1.98398 0
M  V30 18687 C 1785.64 -1.05114 1.64244 0
M  V30 18688 O 1784.91 -1.72711 0.924532 0
M  V30 18689 H 1783.49 0.139386 0.733881 0
M  V30 18690 H 1786.15 1.03147 1.65368 0
M  V30 18691 H 1785.24 0.490126 3.08227 0
M  V30 18692 N 1785.54 -1.47344 0.559239 0
M  V30 18693 C 1786.49 -2.30039 -0.187317 0
M  V30 18694 C 1787.46 -1.39186 -0.906443 0
M  V30 18695 O 1788.65 -1.68147 -0.901739 0
M  V30 18696 C 1785.79 -3.2319 -1.21004 0
M  V30 18697 C 1784.9 -4.29134 -0.496776 0
M  V30 18698 C 1784.03 -5.09435 -1.50497 0
M  V30 18699 C 1783.07 -6.07151 -0.776794 0
M  V30 18700 N 1782.21 -6.80404 -1.73192 0
M  V30 18701 H 1787.05 -2.93357 0.523978 0
M  V30 18702 H 1784.59 -1.44597 0.270225 0
M  V30 18703 H 1786.55 -3.75621 -1.81561 0
M  V30 18704 H 1785.18 -2.61732 -1.88935 0
M  V30 18705 H 1784.23 -3.79744 0.223359 0
M  V30 18706 H 1785.54 -4.98746 0.0735731 0
M  V30 18707 H 1784.69 -5.66026 -2.18402 0
M  V30 18708 H 1783.43 -4.3973 -2.10924 0
M  V30 18709 H 1782.44 -5.49736 -0.0838382 0
M  V30 18710 H 1783.66 -6.78866 -0.178239 0
M  V30 18711 H 1781.61 -6.13427 -2.32472 0
M  V30 18712 H 1781.53 -7.46193 -1.21377 0
M  V30 18713 H 1782.79 -7.41567 -2.40204 0
M  V30 18714 N 1787.02 -0.295795 -1.54799 0
M  V30 18715 C 1787.97 0.582614 -2.23325 0
M  V30 18716 C 1788.94 1.13365 -1.21398 0
M  V30 18717 O 1790.12 1.17914 -1.50003 0
M  V30 18718 C 1787.26 1.75112 -2.97371 0
M  V30 18719 C 1786.38 1.23197 -4.14061 0
M  V30 18720 C 1785.51 2.36393 -4.75701 0
M  V30 18721 C 1784.55 1.81585 -5.84545 0
M  V30 18722 N 1783.69 2.88334 -6.40162 0
M  V30 18723 H 1788.53 -0.00836451 -2.97999 0
M  V30 18724 H 1786.07 -0.0158966 -1.47091 0
M  V30 18725 H 1788.02 2.4383 -3.38531 0
M  V30 18726 H 1786.65 2.31381 -2.25084 0
M  V30 18727 H 1785.71 0.437226 -3.77879 0
M  V30 18728 H 1787.02 0.790706 -4.92493 0
M  V30 18729 H 1786.17 3.13067 -5.19687 0
M  V30 18730 H 1784.91 2.83844 -3.9659 0
M  V30 18731 H 1783.92 1.03399 -5.3999 0
M  V30 18732 H 1785.14 1.35045 -6.65537 0
M  V30 18733 H 1783.09 3.35129 -5.63937 0
M  V30 18734 H 1783 2.48687 -7.13926 0
M  V30 18735 H 1784.27 3.64921 -6.88805 0
M  V30 18736 N 1788.5 1.57583 -0.0234236 0
M  V30 18737 C 1789.41 2.13328 0.976138 0
M  V30 18738 C 1790.43 1.08414 1.36097 0
M  V30 18739 O 1791.6 1.40441 1.44354 0
M  V30 18740 C 1788.67 2.64469 2.24181 0
M  V30 18741 C 1787.73 3.84076 1.91793 0
M  V30 18742 C 1786.96 4.32768 3.12326 0
M  V30 18743 O 1787.19 3.80663 4.24797 0
M  V30 18744 O 1786.12 5.24676 2.94956 0
M  V30 18745 H 1789.95 2.99001 0.532166 0
M  V30 18746 H 1787.53 1.48098 0.196838 0
M  V30 18747 H 1789.41 2.97456 2.98492 0
M  V30 18748 H 1788.09 1.81881 2.6777 0
M  V30 18749 H 1786.99 3.56023 1.14883 0
M  V30 18750 H 1788.33 4.67808 1.53024 0
M  V30 18751 N 1789.98 -0.249655 1.5561 0
M  V30 18752 C 1791.22 -0.985467 1.79075 0
M  V30 18753 C 1791.58 -1.82629 0.592503 0
M  V30 18754 O 1792.78 -2.59366 0.705869 0
M  V30 18755 C 1791.06 -1.82549 3.07263 0
M  V30 18756 S 1792.61 -2.62078 3.51939 0
M  V30 18757 H 1789.43 -0.331525 0.628977 0
M  V30 18758 H 1792.03 -0.253591 1.93848 0
M  V30 18759 H 1790.74 -1.19744 3.92542 0
M  V30 18760 H 1790.27 -2.60017 2.9522 0
M  V30 18761 H 1792.28 -3.84983 3.13054 0
M  V30 18762 N 1791.46 -1.48941 -0.515198 0
M  V30 18763 C 1792.73 -1.48205 -1.27651 0
M  V30 18764 C 1793.11 -0.201866 -2.10133 0
M  V30 18765 O 1792.46 0.816115 -2.13429 0
M  V30 18766 C 1792.67 -2.75274 -2.14535 0
M  V30 18767 C 1794.02 -3.24198 -2.74192 0
M  V30 18768 O 1795.04 -2.76293 -2.24813 0
M  V30 18769 O 1793.9 -4.07593 -3.64047 0
M  V30 18770 H 1791 -0.592546 -0.576904 0
M  V30 18771 H 1793.54 -1.6119 -0.530636 0
M  V30 18772 H 1792.32 -3.59949 -1.53469 0
M  V30 18773 H 1791.94 -2.6508 -2.96342 0
M  V30 18774 N 1792.94 0.765193 -1.37777 0
M  V30 18775 C 1794.18 1.51928 -1.32668 0
M  V30 18776 C 1794.5 1.95418 0.0844172 0
M  V30 18777 O 1795.7 2.70271 0.258001 0
M  V30 18778 C 1794.16 2.74377 -2.32906 0
M  V30 18779 C 1793.77 2.37959 -3.79578 0
M  V30 18780 C 1795.51 3.52302 -2.3682 0
M  V30 18781 C 1793.42 3.5695 -4.7153 0
M  V30 18782 H 1792.35 0.570412 -0.493098 0
M  V30 18783 H 1795 0.837531 -1.63272 0
M  V30 18784 H 1793.38 3.44474 -1.95329 0
M  V30 18785 H 1794.56 1.75603 -4.26028 0
M  V30 18786 H 1792.87 1.73194 -3.78672 0
M  V30 18787 H 1795.47 4.40754 -3.02721 0
M  V30 18788 H 1795.81 3.92631 -1.38371 0
M  V30 18789 H 1796.34 2.89207 -2.73137 0
M  V30 18790 H 1793.08 3.21697 -5.71132 0
M  V30 18791 H 1792.6 4.18388 -4.2978 0
M  V30 18792 H 1794.28 4.2368 -4.88983 0
M  V30 18793 N 1794.41 1.22455 0.992094 0
M  V30 18794 C 1795.66 1.05115 1.73432 0
M  V30 18795 C 1795.99 -0.412642 1.89765 0
M  V30 18796 O 1795.27 -1.3059 1.44141 0
M  V30 18797 C 1795.55 1.76385 3.13943 0
M  V30 18798 C 1795.4 3.30364 3.05253 0
M  V30 18799 C 1796.72 1.51688 4.13133 0
M  V30 18800 H 1793.84 0.383261 0.629508 0
M  V30 18801 H 1796.48 1.50805 1.15576 0
M  V30 18802 H 1794.63 1.37544 3.63337 0
M  V30 18803 H 1796.31 3.78655 2.63474 0
M  V30 18804 H 1794.55 3.6 2.42038 0
M  V30 18805 H 1795.22 3.75409 4.04687 0
M  V30 18806 H 1797.7 1.85429 3.72499 0
M  V30 18807 H 1796.57 2.04049 5.09564 0
M  V30 18808 H 1796.83 0.449654 4.39807 0
M  V30 18809 N 1795.89 -1.18905 1.03437 0
M  V30 18810 C 1797.12 -1.93219 0.753743 0
M  V30 18811 C 1797.54 -1.75299 -0.682055 0
M  V30 18812 O 1796.9 -1.05892 -1.47161 0
M  V30 18813 C 1796.95 -3.42864 1.117 0
M  V30 18814 O 1796.05 -4.11708 0.238816 0
M  V30 18815 H 1795.39 -0.603015 0.277973 0
M  V30 18816 H 1797.92 -1.50823 1.38252 0
M  V30 18817 H 1797.93 -3.9355 1.07623 0
M  V30 18818 H 1796.61 -3.55228 2.163 0
M  V30 18819 H 1795.18 -3.71359 0.338652 0
M  V30 18820 N 1797.37 -0.812977 -1.35013 0
M  V30 18821 C 1798.79 -0.497497 -1.51648 0
M  V30 18822 C 1798.99 0.980162 -1.76054 0
M  V30 18823 O 1798.04 1.76498 -1.80567 0
M  V30 18824 C 1799.35 -1.3484 -2.68772 0
M  V30 18825 C 1800.9 -1.3445 -2.82652 0
M  V30 18826 C 1801.38 -2.17966 -4.02808 0
M  V30 18827 N 1802.87 -2.15537 -4.09998 0
M  V30 18828 C 1803.6 -2.76912 -5.02103 0
M  V30 18829 N 1803.1 -3.47239 -5.99497 0
M  V30 18830 N 1804.89 -2.66519 -4.94898 0
M  V30 18831 H 1797.04 -1.76987 -1.17429 0
M  V30 18832 H 1799.31 -0.753654 -0.575073 0
M  V30 18833 H 1799.01 -2.39732 -2.57336 0
M  V30 18834 H 1798.89 -1.0061 -3.63535 0
M  V30 18835 H 1801.27 -0.303409 -2.93536 0
M  V30 18836 H 1801.35 -1.72671 -1.88728 0
M  V30 18837 H 1801 -3.2212 -3.92685 0
M  V30 18838 H 1800.93 -1.77102 -4.95926 0
M  V30 18839 H 1803.42 -1.64373 -3.40279 0
M  V30 18840 H 1803.73 -3.91341 -6.66387 0
M  V30 18841 H 1802.08 -3.51344 -5.99652 0
M  V30 18842 H 1805.27 -2.1116 -4.17767 0
M  V30 18843 H 1805.44 -3.14639 -5.66486 0
M  V30 18844 N 1798.85 1.47045 -0.567045 0
M  V30 18845 C 1800.12 1.9559 0.0194544 0
M  V30 18846 C 1800.5 1.5097 1.47551 0
M  V30 18847 O 1799.85 0.753072 2.15734 0
M  V30 18848 C 1800.06 3.48734 -0.136263 0
M  V30 18849 C 1801.41 4.246 0.00401745 0
M  V30 18850 O 1802.43 3.56142 -0.0643042 0
M  V30 18851 O 1801.29 5.46287 0.152706 0
M  V30 18852 H 1798.39 0.82492 0.0586233 0
M  V30 18853 H 1800.93 1.57401 -0.634262 0
M  V30 18854 H 1799.71 3.74048 -1.14909 0
M  V30 18855 H 1799.33 3.93713 0.554612 0
M  V30 18856 N 1800.33 0.304 1.5464 0
M  V30 18857 C 1801.57 -0.303793 1.99804 0
M  V30 18858 C 1801.89 -1.54179 1.19389 0
M  V30 18859 O 1801.16 -1.93732 0.290631 0
M  V30 18860 H 1799.74 -0.115241 0.738057 0
M  V30 18861 H 1802.41 0.416024 1.90408 0
M  V30 18862 H 1801.5 -0.573759 3.06781 0
M  V30 18863 N 1801.8 -1.57568 0.0317802 0
M  V30 18864 C 1803.05 -1.91531 -0.645004 0
M  V30 18865 C 1803.37 -0.909042 -1.72515 0
M  V30 18866 O 1802.64 0.0490427 -1.95839 0
M  V30 18867 H 1801.22 -0.706976 -0.241236 0
M  V30 18868 H 1803.88 -1.94735 0.0802108 0
M  V30 18869 H 1802.98 -2.92221 -1.09604 0
M  V30 18870 N 1803.28 0.241399 -1.5574 0
M  V30 18871 C 1804.25 1.28236 -1.89969 0
M  V30 18872 C 1805.25 1.40804 -0.776582 0
M  V30 18873 O 1806.44 1.3941 -1.04453 0
M  V30 18874 C 1803.57 2.65926 -2.13299 0
M  V30 18875 H 1804.76 0.991011 -2.83053 0
M  V30 18876 H 1802.31 0.480939 -1.48717 0
M  V30 18877 H 1803.05 3.00192 -1.22701 0
M  V30 18878 H 1802.83 2.58184 -2.95099 0
M  V30 18879 H 1804.32 3.4108 -2.40944 0
M  V30 18880 N 1804.76 1.49212 0.507292 0
M  V30 18881 C 1805.72 1.64908 1.59179 0
M  V30 18882 C 1806.72 0.521176 1.5212 0
M  V30 18883 O 1807.91 0.787492 1.55384 0
M  V30 18884 C 1805.05 1.64057 2.98828 0
M  V30 18885 H 1806.24 2.6163 1.46593 0
M  V30 18886 H 1803.79 1.38149 0.731062 0
M  V30 18887 H 1804.53 0.688956 3.16897 0
M  V30 18888 H 1804.31 2.45963 3.0536 0
M  V30 18889 H 1805.8 1.78279 3.77633 0
M  V30 18890 N 1806.24 -0.757876 1.38181 0
M  V30 18891 C 1807.46 -1.55221 1.37555 0
M  V30 18892 C 1807.89 -1.8807 -0.0336083 0
M  V30 18893 O 1807.25 -1.50258 -1.0145 0
M  V30 18894 C 1807.29 -2.83064 2.23399 0
M  V30 18895 O 1806.4 -3.78034 1.64814 0
M  V30 18896 H 1805.74 -0.469644 0.469394 0
M  V30 18897 H 1808.27 -0.936923 1.81887 0
M  V30 18898 H 1808.28 -3.32031 2.37106 0
M  V30 18899 H 1806.95 -2.58485 3.2582 0
M  V30 18900 H 1805.53 -3.36723 1.60225 0
M  V30 18901 N 1807.72 -1.22979 -0.985586 0
M  V30 18902 C 1809.13 -1.05448 -1.5407 0
M  V30 18903 C 1809.48 0.379808 -1.92489 0
M  V30 18904 O 1808.6 1.26582 -1.75516 0
M  V30 18905 C 1809.2 -1.90794 -2.7997 0
M  V30 18906 C 1807.76 -1.77538 -3.31899 0
M  V30 18907 C 1806.9 -1.86814 -2.04929 0
M  V30 18908 H 1809.86 -1.36718 -0.80585 0
M  V30 18909 H 1809.88 -1.42967 -3.5262 0
M  V30 18910 H 1809.39 -2.95177 -2.51977 0
M  V30 18911 H 1807.49 -0.759177 -3.64784 0
M  V30 18912 H 1807.6 -2.60627 -4.02008 0
M  V30 18913 H 1805.97 -1.30336 -2.18826 0
M  V30 18914 H 1806.75 -2.92742 -1.79324 0
M  V30 18915 N 1809.19 1.18355 -1.04066 0
M  V30 18916 C 1810.16 2.20195 -0.636148 0
M  V30 18917 C 1811.16 1.57853 0.306457 0
M  V30 18918 O 1812.35 1.73958 0.0918576 0
M  V30 18919 C 1809.48 3.40833 0.0673423 0
M  V30 18920 H 1810.67 2.57497 -1.53738 0
M  V30 18921 H 1808.23 1.32239 -0.833214 0
M  V30 18922 H 1808.96 3.09063 0.982371 0
M  V30 18923 H 1808.75 3.87324 -0.610145 0
M  V30 18924 H 1810.24 4.16239 0.336869 0
M  V30 18925 N 1810.67 0.820125 1.3458 0
M  V30 18926 C 1811.9 0.419764 2.02597 0
M  V30 18927 C 1812.32 -0.973439 1.6177 0
M  V30 18928 O 1811.67 -1.6295 0.821791 0
M  V30 18929 C 1811.72 0.509104 3.57897 0
M  V30 18930 O 1811.44 1.84739 3.97244 0
M  V30 18931 C 1812.95 0.103283 4.4318 0
M  V30 18932 H 1810.17 0.168803 0.64942 0
M  V30 18933 H 1812.71 1.10751 1.71914 0
M  V30 18934 H 1810.86 -0.130526 3.8718 0
M  V30 18935 H 1811.28 1.81967 4.91923 0
M  V30 18936 H 1812.75 0.216884 5.51574 0
M  V30 18937 H 1813.23 -0.952888 4.28738 0
M  V30 18938 H 1813.84 0.716601 4.19219 0
M  V30 18939 N 1812.15 -1.46743 0.574835 0
M  V30 18940 C 1813.06 -2.34015 -0.16559 0
M  V30 18941 C 1814.08 -1.49273 -0.894064 0
M  V30 18942 O 1815.25 -1.82162 -0.859013 0
M  V30 18943 C 1812.32 -3.26313 -1.17136 0
M  V30 18944 C 1811.38 -4.26952 -0.448413 0
M  V30 18945 C 1810.61 -5.1484 -1.40627 0
M  V30 18946 O 1810.83 -5.05508 -2.6423 0
M  V30 18947 O 1809.77 -5.9481 -0.921143 0
M  V30 18948 H 1813.59 -2.98664 0.550754 0
M  V30 18949 H 1811.18 -1.45589 0.335297 0
M  V30 18950 H 1813.06 -3.83276 -1.75149 0
M  V30 18951 H 1811.74 -2.64269 -1.86931 0
M  V30 18952 H 1810.64 -3.73698 0.17336 0
M  V30 18953 H 1811.98 -4.91759 0.208419 0
M  V30 18954 N 1813.63 -0.312197 -1.54477 0
M  V30 18955 C 1814.88 0.293192 -1.99962 0
M  V30 18956 C 1815.2 1.53544 -1.20205 0
M  V30 18957 O 1814.47 1.93575 -0.300901 0
M  V30 18958 H 1813.05 0.111325 -0.738658 0
M  V30 18959 H 1815.71 -0.426116 -1.90185 0
M  V30 18960 H 1814.81 0.557482 -3.07081 0
M  V30 18961 N 1815.11 1.57549 -0.040136 0
M  V30 18962 C 1816.52 1.56434 0.316341 0
M  V30 18963 C 1816.72 1.04679 1.72176 0
M  V30 18964 O 1815.78 0.698444 2.42648 0
M  V30 18965 C 1817.09 3.00301 0.154883 0
M  V30 18966 C 1818.64 3.12177 0.226821 0
M  V30 18967 C 1819.11 4.57903 0.0940219 0
M  V30 18968 N 1820.61 4.62955 0.150654 0
M  V30 18969 C 1821.34 5.73355 0.0718466 0
M  V30 18970 N 1820.84 6.92775 -0.0586777 0
M  V30 18971 N 1822.63 5.61957 0.126632 0
M  V30 18972 H 1814.78 1.89516 -0.959032 0
M  V30 18973 H 1817.04 0.872251 -0.371324 0
M  V30 18974 H 1816.75 3.42158 -0.813674 0
M  V30 18975 H 1816.62 3.65795 0.920521 0
M  V30 18976 H 1819.01 2.70225 1.18584 0
M  V30 18977 H 1819.09 2.49383 -0.569384 0
M  V30 18978 H 1818.74 5.00538 -0.861629 0
M  V30 18979 H 1818.67 5.18691 0.909231 0
M  V30 18980 H 1821.16 3.77064 0.251232 0
M  V30 18981 H 1821.47 7.72719 -0.111818 0
M  V30 18982 H 1819.81 6.94937 -0.0936119 0
M  V30 18983 H 1823.01 4.67549 0.227081 0
M  V30 18984 H 1823.18 6.47971 0.0617551 0
M  V30 18985 N 1816.58 -0.233136 1.55866 0
M  V30 18986 C 1817.83 -0.957324 1.77988 0
M  V30 18987 C 1818.15 -1.85325 0.606593 0
M  V30 18988 O 1817.42 -1.92237 -0.377047 0
M  V30 18989 H 1816 -0.356474 0.656457 0
M  V30 18990 H 1818.67 -0.247774 1.93319 0
M  V30 18991 H 1817.76 -1.57096 2.6968 0
M  V30 18992 N 1818.06 -1.49479 -0.499372 0
M  V30 18993 C 1819.31 -1.58734 -1.25092 0
M  V30 18994 C 1819.63 -0.276701 -1.93027 0
M  V30 18995 O 1818.9 0.704058 -1.82811 0
M  V30 18996 H 1817.48 -0.584857 -0.464706 0
M  V30 18997 H 1820.14 -1.86113 -0.578608 0
M  V30 18998 H 1819.24 -2.38422 -2.01399 0
M  V30 18999 N 1819.54 0.750537 -1.38581 0
M  V30 19000 C 1820.77 1.54489 -1.38376 0
M  V30 19001 C 1821.19 1.88085 0.023634 0
M  V30 19002 O 1820.55 1.50794 1.00652 0
M  V30 19003 C 1820.6 2.81875 -2.24897 0
M  V30 19004 O 1819.7 3.77155 -1.66817 0
M  V30 19005 H 1819.04 0.467148 -0.471878 0
M  V30 19006 H 1821.57 0.927264 -1.82381 0
M  V30 19007 H 1821.58 3.30769 -2.38864 0
M  V30 19008 H 1820.26 2.56753 -3.27186 0
M  V30 19009 H 1818.83 3.35868 -1.62009 0
M  V30 19010 N 1821.02 1.235 0.979051 0
M  V30 19011 C 1821.93 1.03412 2.10578 0
M  V30 19012 C 1822.95 -0.0217644 1.73986 0
M  V30 19013 O 1824.12 0.173977 2.00647 0
M  V30 19014 C 1821.19 0.629192 3.40943 0
M  V30 19015 C 1820.25 1.76028 3.91552 0
M  V30 19016 C 1819.48 1.37457 5.15695 0
M  V30 19017 O 1819.7 0.259393 5.6981 0
M  V30 19018 O 1818.64 2.19614 5.60404 0
M  V30 19019 H 1822.46 1.97845 2.30415 0
M  V30 19020 H 1820.05 1.02218 1.08958 0
M  V30 19021 H 1821.93 0.414372 4.19358 0
M  V30 19022 H 1820.61 -0.286128 3.22433 0
M  V30 19023 H 1819.51 2.02975 3.14248 0
M  V30 19024 H 1820.85 2.65396 4.14519 0
M  V30 19025 N 1822.5 -1.17802 1.04693 0
M  V30 19026 C 1823.74 -1.88217 0.755141 0
M  V30 19027 C 1824.08 -1.8053 -0.715731 0
M  V30 19028 O 1823.35 -1.20987 -1.52291 0
M  V30 19029 C 1823.63 -3.38447 1.22986 0
M  V30 19030 C 1823.49 -3.54911 2.7633 0
M  V30 19031 C 1824.81 -4.323 0.824891 0
M  V30 19032 H 1821.93 -0.683452 0.275795 0
M  V30 19033 H 1824.57 -1.38561 1.30004 0
M  V30 19034 H 1822.72 -3.80868 0.7663 0
M  V30 19035 H 1824.39 -3.2154 3.30771 0
M  V30 19036 H 1822.63 -2.97357 3.1585 0
M  V30 19037 H 1823.3 -4.60347 3.04606 0
M  V30 19038 H 1825.78 -3.97694 1.22389 0
M  V30 19039 H 1824.66 -5.35962 1.18472 0
M  V30 19040 H 1824.92 -4.41265 -0.27151 0
M  V30 19041 N 1823.98 -0.827251 -1.34143 0
M  V30 19042 C 1824.89 -0.254285 -2.33218 0
M  V30 19043 C 1825.9 0.613602 -1.62822 0
M  V30 19044 O 1827.08 0.520477 -1.94558 0
M  V30 19045 C 1824.14 0.570817 -3.41969 0
M  V30 19046 C 1823.2 -0.319978 -4.28106 0
M  V30 19047 C 1822.44 0.465839 -5.31663 0
M  V30 19048 O 1822.66 1.6987 -5.44518 0
M  V30 19049 O 1821.59 -0.154094 -6.01703 0
M  V30 19050 H 1825.42 -1.07441 -2.8406 0
M  V30 19051 H 1823 -0.589493 -1.37278 0
M  V30 19052 H 1824.89 1.04009 -4.08363 0
M  V30 19053 H 1823.56 1.3682 -2.93363 0
M  V30 19054 H 1822.47 -0.836843 -3.6462 0
M  V30 19055 H 1823.8 -1.08183 -4.80164 0
M  V30 19056 N 1825.45 1.46436 -0.582609 0
M  V30 19057 C 1826.7 2.01986 -0.0680147 0
M  V30 19058 C 1827.02 1.45654 1.29653 0
M  V30 19059 O 1826.29 0.641203 1.85109 0
M  V30 19060 H 1824.87 0.746671 -0.022153 0
M  V30 19061 H 1827.53 1.79541 -0.758367 0
M  V30 19062 H 1826.63 3.121 0.00106001 0
M  V30 19063 N 1826.93 0.320385 1.54309 0
M  V30 19064 C 1828.18 -0.282584 2.00115 0
M  V30 19065 C 1828.5 -1.52904 1.21018 0
M  V30 19066 O 1827.77 -1.93413 0.311163 0
M  V30 19067 H 1826.35 -0.107406 0.739238 0
M  V30 19068 H 1829.01 0.436196 1.89956 0
M  V30 19069 H 1828.11 -0.541189 3.07372 0
M  V30 19070 N 1828.41 -1.57525 0.0484906 0
M  V30 19071 C 1829.83 -1.56599 -0.308041 0
M  V30 19072 C 1830.03 -1.05591 -1.71618 0
M  V30 19073 O 1829.08 -0.711302 -2.42274 0
M  V30 19074 C 1830.39 -3.00379 -0.138955 0
M  V30 19075 C 1831.94 -3.12293 -0.210262 0
M  V30 19076 C 1832.42 -4.57947 -0.0697369 0
M  V30 19077 N 1833.91 -4.63028 -0.1261 0
M  V30 19078 C 1834.64 -5.73385 -0.0414392 0
M  V30 19079 N 1834.14 -6.92734 0.0954164 0
M  V30 19080 N 1835.93 -5.62017 -0.0968281 0
M  V30 19081 H 1828.08 -1.89005 0.969069 0
M  V30 19082 H 1830.35 -0.87027 0.375944 0
M  V30 19083 H 1830.05 -3.41722 0.831808 0
M  V30 19084 H 1829.93 -3.66278 -0.901109 0
M  V30 19085 H 1832.31 -2.7085 -1.1715 0
M  V30 19086 H 1832.39 -2.49077 0.582601 0
M  V30 19087 H 1832.04 -5.00074 0.888161 0
M  V30 19088 H 1831.97 -5.19166 -0.881711 0
M  V30 19089 H 1834.46 -3.77192 -0.231232 0
M  V30 19090 H 1834.77 -7.72649 0.152796 0
M  V30 19091 H 1833.12 -6.94878 0.130465 0
M  V30 19092 H 1836.31 -4.67663 -0.202283 0
M  V30 19093 H 1836.48 -6.47994 -0.0273908 0
M  V30 19094 N 1829.89 0.224867 -1.55988 0
M  V30 19095 C 1831.12 0.966727 -1.82926 0
M  V30 19096 C 1831.53 1.78078 -0.627177 0
M  V30 19097 O 1830.89 1.77966 0.404277 0
M  V30 19098 C 1830.94 1.88696 -3.08344 0
M  V30 19099 O 1830.66 1.10581 -4.23914 0
M  V30 19100 C 1832.16 2.74299 -3.48246 0
M  V30 19101 H 1829.38 0.283479 -0.608178 0
M  V30 19102 H 1831.92 0.241097 -2.03074 0
M  V30 19103 H 1830.08 2.56658 -2.90182 0
M  V30 19104 H 1830.49 1.73019 -4.95141 0
M  V30 19105 H 1831.97 3.34577 -4.39047 0
M  V30 19106 H 1832.44 3.46526 -2.69845 0
M  V30 19107 H 1833.05 2.11755 -3.68836 0
M  V30 19108 N 1831.37 1.49742 0.491438 0
M  V30 19109 C 1832.33 1.66587 1.57421 0
M  V30 19110 C 1833.33 0.537281 1.51558 0
M  V30 19111 O 1834.52 0.803928 1.5454 0
M  V30 19112 C 1831.65 1.67217 2.97071 0
M  V30 19113 H 1832.84 2.63171 1.4381 0
M  V30 19114 H 1830.4 1.38917 0.716368 0
M  V30 19115 H 1831.13 0.722529 3.16149 0
M  V30 19116 H 1830.92 2.49187 3.02734 0
M  V30 19117 H 1832.41 1.82274 3.75721 0
M  V30 19118 N 1832.84 -0.743177 1.38977 0
M  V30 19119 C 1833.77 -1.87047 1.3977 0
M  V30 19120 C 1834.76 -1.68068 0.262161 0
M  V30 19121 O 1835.94 -1.88507 0.466782 0
M  V30 19122 C 1833.07 -3.24701 1.23234 0
M  V30 19123 C 1832.02 -3.58302 2.34102 0
M  V30 19124 C 1831.35 -4.94805 2.02663 0
M  V30 19125 C 1832.65 -3.62111 3.76395 0
M  V30 19126 H 1834.34 -1.8664 2.34107 0
M  V30 19127 H 1831.89 -0.896541 1.12686 0
M  V30 19128 H 1833.84 -4.03228 1.22412 0
M  V30 19129 H 1832.57 -3.25614 0.253638 0
M  V30 19130 H 1831.23 -2.82099 2.34128 0
M  V30 19131 H 1830.87 -4.92289 1.0325 0
M  V30 19132 H 1830.57 -5.18254 2.76922 0
M  V30 19133 H 1832.1 -5.75699 2.03477 0
M  V30 19134 H 1833.51 -4.30731 3.78343 0
M  V30 19135 H 1831.91 -3.97075 4.49946 0
M  V30 19136 H 1832.98 -2.62099 4.07961 0
M  V30 19137 N 1834.32 -1.24018 -0.972487 0
M  V30 19138 C 1835.6 -0.985099 -1.68983 0
M  V30 19139 C 1835.98 0.494006 -2.05238 0
M  V30 19140 O 1835.33 1.46715 -1.75177 0
M  V30 19141 C 1835.54 -1.90324 -2.92537 0
M  V30 19142 C 1836.89 -2.17134 -3.64881 0
M  V30 19143 O 1837.91 -1.87938 -3.02585 0
M  V30 19144 O 1836.77 -2.66691 -4.7701 0
M  V30 19145 H 1833.86 -0.372172 -0.738524 0
M  V30 19146 H 1836.41 -1.35095 -1.027 0
M  V30 19147 H 1835.18 -2.90278 -2.62401 0
M  V30 19148 H 1834.8 -1.54025 -3.66554 0
M  V30 19149 N 1835.8 1.17245 -1.05316 0
M  V30 19150 C 1836.75 2.23357 -0.649174 0
M  V30 19151 C 1837.74 1.66152 0.33015 0
M  V30 19152 O 1838.95 1.78929 0.196078 0
M  V30 19153 H 1835.32 0.727139 -0.191762 0
M  V30 19154 H 1837.29 2.54728 -1.55423 0
M  V30 19155 C 1836.04 3.47676 -0.0412049 0
M  V30 19156 H 1835.37 3.92 -0.785858 0
M  V30 19157 H 1836.81 4.23509 0.204073 0
M  V30 19158 C 1835.27 3.14326 1.21247 0
M  V30 19159 O 1835.8 3.29218 2.3017 0
M  V30 19160 N 1834 2.68541 1.1106 0
M  V30 19161 H 1833.55 2.56622 0.224212 0
M  V30 19162 H 1833.51 2.466 1.95028 0
M  V30 19163 N 1837.28 0.834353 1.33702 0
M  V30 19164 C 1838.23 0.26233 2.29304 0
M  V30 19165 C 1839.2 -0.619326 1.54122 0
M  V30 19166 O 1840.38 -0.558551 1.82441 0
M  V30 19167 C 1837.52 -0.560341 3.4052 0
M  V30 19168 C 1836.63 0.344832 4.30622 0
M  V30 19169 C 1835.77 -0.488505 5.28949 0
M  V30 19170 C 1834.81 0.415341 6.10689 0
M  V30 19171 N 1833.94 -0.3796 7.01073 0
M  V30 19172 H 1838.78 1.08291 2.77628 0
M  V30 19173 H 1836.32 0.545497 1.36612 0
M  V30 19174 H 1838.28 -1.05274 4.03699 0
M  V30 19175 H 1836.91 -1.34593 2.93402 0
M  V30 19176 H 1835.96 0.955519 3.68204 0
M  V30 19177 H 1837.27 1.03935 4.87851 0
M  V30 19178 H 1836.43 -1.04492 5.97634 0
M  V30 19179 H 1835.17 -1.21648 4.72285 0
M  V30 19180 H 1834.17 0.983803 5.40926 0
M  V30 19181 H 1835.4 1.1416 6.69436 0
M  V30 19182 H 1833.34 -1.09103 6.46864 0
M  V30 19183 H 1833.26 0.25629 7.55565 0
M  V30 19184 H 1834.53 -0.918394 7.74071 0
M  V30 19185 N 1838.76 -1.46125 0.590367 0
M  V30 19186 C 1839.98 -2.06726 0.0847301 0
M  V30 19187 C 1840.4 -1.43788 -1.22354 0
M  V30 19188 O 1839.76 -0.545876 -1.74145 0
M  V30 19189 C 1839.81 -3.61412 -0.079655 0
M  V30 19190 O 1839.53 -4.21998 1.17684 0
M  V30 19191 C 1841.03 -4.38961 -0.618754 0
M  V30 19192 H 1838.25 -0.668226 0.0609525 0
M  V30 19193 H 1840.79 -1.87636 0.813212 0
M  V30 19194 H 1838.95 -3.79904 -0.758389 0
M  V30 19195 H 1839.36 -5.14966 0.995528 0
M  V30 19196 H 1840.84 -5.47759 -0.682926 0
M  V30 19197 H 1841.31 -4.07537 -1.63739 0
M  V30 19198 H 1841.92 -4.25292 0.0253632 0
M  V30 19199 N 1840.23 -0.328564 -1.54137 0
M  V30 19200 C 1841.46 0.277044 -2.05541 0
M  V30 19201 C 1841.88 1.44613 -1.20285 0
M  V30 19202 O 1841.24 1.80043 -0.213107 0
M  V30 19203 C 1841.29 0.684495 -3.54044 0
M  V30 19204 O 1840.39 1.78629 -3.71706 0
M  V30 19205 H 1839.74 0.049078 -0.662184 0
M  V30 19206 H 1842.27 -0.478426 -1.98928 0
M  V30 19207 H 1842.28 0.965784 -3.96405 0
M  V30 19208 H 1840.95 -0.170554 -4.1555 0
M  V30 19209 H 1839.53 1.50343 -3.4125 0
M  V30 19210 N 1841.71 1.57497 -0.0568439 0
M  V30 19211 C 1842.64 2.14892 0.913427 0
M  V30 19212 C 1843.62 1.07205 1.32065 0
M  V30 19213 O 1844.81 1.35172 1.39435 0
M  V30 19214 C 1841.94 2.69849 2.18629 0
M  V30 19215 C 1840.89 3.8257 1.91896 0
M  V30 19216 C 1840.22 4.24068 3.25685 0
M  V30 19217 C 1841.52 5.07463 1.23606 0
M  V30 19218 H 1843.21 2.96218 0.435347 0
M  V30 19219 H 1840.76 1.4249 0.20796 0
M  V30 19220 H 1842.71 3.08643 2.86911 0
M  V30 19221 H 1841.44 1.85723 2.68653 0
M  V30 19222 H 1840.09 3.44258 1.26024 0
M  V30 19223 H 1839.74 3.36884 3.73521 0
M  V30 19224 H 1839.44 5.00043 3.08594 0
M  V30 19225 H 1840.97 4.65466 3.95189 0
M  V30 19226 H 1842.38 5.43667 1.81931 0
M  V30 19227 H 1840.78 5.88619 1.16823 0
M  V30 19228 H 1841.85 4.84432 0.212918 0
M  V30 19229 N 1843.19 -0.216591 1.56105 0
M  V30 19230 C 1844.12 -1.27155 1.95841 0
M  V30 19231 C 1845.1 -1.48626 0.827313 0
M  V30 19232 O 1846.29 -1.60725 1.09 0
M  V30 19233 C 1843.42 -2.62032 2.27939 0
M  V30 19234 C 1842.37 -2.55211 3.43586 0
M  V30 19235 C 1841.7 -3.94163 3.61303 0
M  V30 19236 C 1843 -2.09566 4.78413 0
M  V30 19237 H 1844.69 -0.941435 2.84214 0
M  V30 19238 H 1842.24 -0.451427 1.36741 0
M  V30 19239 H 1844.19 -3.35997 2.5433 0
M  V30 19240 H 1842.91 -2.96742 1.36426 0
M  V30 19241 H 1841.57 -1.83703 3.17252 0
M  V30 19242 H 1841.22 -4.26188 2.67156 0
M  V30 19243 H 1840.92 -3.90479 4.3909 0
M  V30 19244 H 1842.44 -4.69782 3.90047 0
M  V30 19245 H 1843.86 -2.73277 5.03977 0
M  V30 19246 H 1842.26 -2.16931 5.59518 0
M  V30 19247 H 1843.33 -1.0481 4.73437 0
M  V30 19248 N 1844.67 -1.5 -0.48349 0
M  V30 19249 C 1845.62 -1.68467 -1.6038 0
M  V30 19250 C 1846.61 -0.550508 -1.60205 0
M  V30 19251 O 1847.82 -0.730656 -1.64504 0
M  V30 19252 H 1844.19 -0.531525 -0.531964 0
M  V30 19253 H 1846.16 -2.62468 -1.41962 0
M  V30 19254 C 1844.91 -1.78462 -2.98407 0
M  V30 19255 H 1844.23 -2.65117 -2.99254 0
M  V30 19256 H 1845.67 -1.95413 -3.76284 0
M  V30 19257 C 1844.13 -0.533368 -3.32651 0
M  V30 19258 O 1844.66 0.333087 -4.00317 0
M  V30 19259 N 1842.87 -0.391077 -2.87957 0
M  V30 19260 H 1842.42 -1.09719 -2.33066 0
M  V30 19261 H 1842.37 0.444995 -3.11235 0
M  V30 19262 N 1846.15 0.735796 -1.39369 0
M  V30 19263 C 1847.37 1.52504 -1.39822 0
M  V30 19264 C 1847.79 1.88799 0.00747346 0
M  V30 19265 O 1847.15 1.54044 0.978611 0
M  V30 19266 C 1847.2 2.8131 -2.27039 0
M  V30 19267 O 1846.92 2.46557 -3.62134 0
M  V30 19268 C 1848.42 3.75343 -2.35866 0
M  V30 19269 H 1845.64 0.471306 -0.47761 0
M  V30 19270 H 1848.18 0.909257 -1.83174 0
M  V30 19271 H 1846.34 3.39222 -1.87102 0
M  V30 19272 H 1846.75 3.29294 -4.08247 0
M  V30 19273 H 1848.23 4.6262 -3.01142 0
M  V30 19274 H 1848.7 4.17036 -1.37758 0
M  V30 19275 H 1849.31 3.2335 -2.7627 0
M  V30 19276 N 1847.63 1.24532 0.965897 0
M  V30 19277 C 1848.56 0.997143 2.06373 0
M  V30 19278 C 1849.57 -0.0340261 1.62764 0
M  V30 19279 O 1850.76 0.203223 1.77339 0
M  V30 19280 C 1847.86 0.483305 3.35436 0
M  V30 19281 C 1847.03 1.57803 4.07942 0
M  V30 19282 C 1846.09 1.06652 5.15278 0
M  V30 19283 O 1845.12 1.75859 5.41352 0
M  V30 19284 N 1846.32 -0.0981119 5.80417 0
M  V30 19285 H 1849.08 1.94238 2.28236 0
M  V30 19286 H 1846.65 1.15586 1.13365 0
M  V30 19287 H 1848.64 0.125833 4.04504 0
M  V30 19288 H 1847.21 -0.367709 3.1043 0
M  V30 19289 H 1846.43 2.1076 3.33127 0
M  V30 19290 H 1847.72 2.3138 4.53146 0
M  V30 19291 H 1847.11 -0.676662 5.61638 0
M  V30 19292 H 1845.67 -0.396714 6.50592 0
M  V30 19293 N 1849.1 -1.16685 1.05936 0
M  V30 19294 C 1850.51 -1.68745 0.798866 0
M  V30 19295 C 1850.87 -1.84113 -0.678008 0
M  V30 19296 O 1849.99 -1.53408 -1.52627 0
M  V30 19297 C 1850.59 -3.06508 1.44356 0
M  V30 19298 C 1849.14 -3.55704 1.23092 0
M  V30 19299 C 1848.29 -2.31776 1.52235 0
M  V30 19300 H 1851.24 -1.01097 1.22332 0
M  V30 19301 H 1851.26 -3.70725 0.856908 0
M  V30 19302 H 1850.78 -2.95291 2.51843 0
M  V30 19303 H 1848.88 -3.72186 0.175632 0
M  V30 19304 H 1848.99 -4.38015 1.94112 0
M  V30 19305 H 1847.35 -2.36611 0.942734 0
M  V30 19306 H 1848.14 -2.2316 2.60873 0
M  V30 19307 N 1850.58 -0.841432 -1.33258 0
M  V30 19308 C 1851.99 -0.494767 -1.80025 0
M  V30 19309 C 1852.34 0.986416 -1.696 0
M  V30 19310 O 1851.47 1.76874 -1.24678 0
M  V30 19311 C 1852.06 -0.891306 -3.26866 0
M  V30 19312 C 1850.62 -0.59674 -3.7164 0
M  V30 19313 C 1849.77 -1.09825 -2.54625 0
M  V30 19314 H 1852.72 -1.02989 -1.20743 0
M  V30 19315 H 1852.74 -0.202371 -3.79961 0
M  V30 19316 H 1852.25 -1.96937 -3.34421 0
M  V30 19317 H 1850.35 0.471153 -3.69609 0
M  V30 19318 H 1850.47 -1.15377 -4.65 0
M  V30 19319 H 1848.83 -0.519011 -2.49356 0
M  V30 19320 H 1849.61 -2.18314 -2.64941 0
M  V30 19321 N 1852.06 1.4581 -0.598108 0
M  V30 19322 C 1853.48 1.57452 -0.260993 0
M  V30 19323 C 1853.68 1.59093 1.2366 0
M  V30 19324 O 1852.73 1.51614 2.01915 0
M  V30 19325 C 1854.04 2.86158 -0.923801 0
M  V30 19326 C 1855.59 2.99817 -0.89883 0
M  V30 19327 C 1856.07 4.3128 -1.54147 0
M  V30 19328 N 1857.56 4.38016 -1.50652 0
M  V30 19329 C 1858.29 5.38387 -1.973 0
M  V30 19330 N 1857.79 6.45347 -2.51991 0
M  V30 19331 N 1859.58 5.29684 -1.88124 0
M  V30 19332 H 1851.73 1.42988 -1.57061 0
M  V30 19333 H 1854 0.683038 -0.657391 0
M  V30 19334 H 1853.7 2.90812 -1.97791 0
M  V30 19335 H 1853.58 3.74609 -0.441318 0
M  V30 19336 H 1855.96 2.94735 0.146702 0
M  V30 19337 H 1856.04 2.12801 -1.41949 0
M  V30 19338 H 1855.69 4.3712 -2.58628 0
M  V30 19339 H 1855.62 5.17097 -0.995911 0
M  V30 19340 H 1858.11 3.61326 -1.1069 0
M  V30 19341 H 1858.42 7.18168 -2.85403 0
M  V30 19342 H 1856.77 6.46124 -2.56025 0
M  V30 19343 H 1859.96 4.45029 -1.45144 0
M  V30 19344 H 1860.13 6.0776 -2.24793 0
M  V30 19345 N 1853.54 0.336733 1.53961 0
M  V30 19346 C 1854.5 -0.510638 2.23439 0
M  V30 19347 C 1855.5 -1.03304 1.23227 0
M  V30 19348 O 1856.69 -0.923373 1.47714 0
M  V30 19349 C 1853.82 -1.71063 2.94873 0
M  V30 19350 H 1855.02 0.0969205 2.99743 0
M  V30 19351 H 1852.57 0.0879867 1.56052 0
M  V30 19352 H 1853.3 -2.35707 2.22739 0
M  V30 19353 H 1853.09 -1.34331 3.68371 0
M  V30 19354 H 1854.58 -2.31182 3.47771 0
M  V30 19355 N 1855.02 -1.57465 0.0651956 0
M  V30 19356 C 1856.26 -1.93238 -0.605428 0
M  V30 19357 C 1856.59 -0.944707 -1.70016 0
M  V30 19358 O 1855.85 0.0407499 -1.95658 0
M  V30 19359 C 1856.14 -3.35656 -1.2276 0
M  V30 19360 C 1855.81 -4.50152 -0.259667 0
M  V30 19361 C 1854.47 -4.812 0.0066384 0
M  V30 19362 C 1856.82 -5.1964 0.4029 0
M  V30 19363 C 1854.15 -5.79077 0.942709 0
M  V30 19364 C 1856.5 -6.1852 1.32725 0
M  V30 19365 C 1855.17 -6.47989 1.60209 0
M  V30 19366 H 1854.44 -0.707107 -0.221542 0
M  V30 19367 H 1857.09 -1.91026 0.134666 0
M  V30 19368 H 1855.39 -3.34301 -2.04328 0
M  V30 19369 H 1857.09 -3.60621 -1.75367 0
M  V30 19370 H 1853.68 -4.25933 -0.477412 0
M  V30 19371 H 1857.86 -4.95854 0.210267 0
M  V30 19372 H 1853.12 -6.00238 1.16296 0
M  V30 19373 H 1857.29 -6.7147 1.84664 0
M  V30 19374 H 1854.92 -7.23643 2.32904 0
M  V30 19375 N 1856.49 0.20831 -1.56217 0
M  V30 19376 C 1857.9 0.774162 -1.69893 0
M  V30 19377 C 1858.26 1.84424 -0.669506 0
M  V30 19378 O 1857.38 2.15677 0.176748 0
M  V30 19379 C 1857.98 1.41102 -3.08019 0
M  V30 19380 C 1856.53 1.9241 -3.23505 0
M  V30 19381 C 1855.68 0.789129 -2.65835 0
M  V30 19382 H 1858.63 -0.0165614 -1.58691 0
M  V30 19383 H 1858.65 2.28015 -3.04614 0
M  V30 19384 H 1858.17 0.631966 -3.8292 0
M  V30 19385 H 1856.27 2.73076 -2.53496 0
M  V30 19386 H 1856.38 2.09497 -4.30868 0
M  V30 19387 H 1854.74 1.19995 -2.24663 0
M  V30 19388 H 1855.53 0.0225345 -3.43293 0
M  V30 19389 N 1857.97 1.50255 0.475528 0
M  V30 19390 C 1859.22 1.60704 1.22551 0
M  V30 19391 C 1859.54 0.307375 1.92562 0
M  V30 19392 O 1858.81 -0.674885 1.83908 0
M  V30 19393 H 1857.39 0.592176 0.455343 0
M  V30 19394 H 1860.05 1.8701 0.548926 0
M  V30 19395 H 1859.15 2.41596 1.9758 0
M  V30 19396 N 1859.45 -0.728395 1.39758 0
M  V30 19397 C 1860.86 -1.30697 1.33323 0
M  V30 19398 C 1861.21 -1.962 0.000676614 0
M  V30 19399 O 1860.34 -1.96731 -0.90143 0
M  V30 19400 C 1860.93 -2.37656 2.41464 0
M  V30 19401 C 1859.49 -2.91171 2.3853 0
M  V30 19402 C 1858.64 -1.64812 2.23007 0
M  V30 19403 H 1861.59 -0.525429 1.4975 0
M  V30 19404 H 1861.61 -3.18202 2.08633 0
M  V30 19405 H 1861.12 -1.89953 3.38437 0
M  V30 19406 H 1859.22 -3.43137 1.45216 0
M  V30 19407 H 1859.34 -3.43836 3.33637 0
M  V30 19408 H 1857.7 -1.89397 1.70296 0
M  V30 19409 H 1858.48 -1.19151 3.21959 0
M  V30 19410 N 1860.93 -1.25042 -0.959279 0
M  V30 19411 C 1862.34 -1.01764 -1.22948 0
M  V30 19412 C 1862.54 0.268402 -1.99704 0
M  V30 19413 O 1861.6 0.982348 -2.32607 0
M  V30 19414 C 1862.91 -2.23794 -2.0084 0
M  V30 19415 C 1864.46 -2.28507 -2.13901 0
M  V30 19416 C 1864.94 -3.50181 -2.9519 0
M  V30 19417 N 1866.43 -3.50549 -3.0277 0
M  V30 19418 C 1867.16 -4.41357 -3.66049 0
M  V30 19419 N 1866.66 -5.42431 -4.30976 0
M  V30 19420 N 1868.45 -4.29049 -3.63143 0
M  V30 19421 H 1860.6 -2.07672 -0.445667 0
M  V30 19422 H 1862.86 -0.91176 -0.259611 0
M  V30 19423 H 1862.57 -3.17237 -1.51835 0
M  V30 19424 H 1862.44 -2.26592 -3.01556 0
M  V30 19425 H 1864.83 -1.3559 -2.62105 0
M  V30 19426 H 1864.91 -2.29731 -1.12505 0
M  V30 19427 H 1864.56 -4.43417 -2.47677 0
M  V30 19428 H 1864.49 -3.46202 -3.96802 0
M  V30 19429 H 1866.98 -2.77432 -2.56593 0
M  V30 19430 H 1867.29 -6.07941 -4.77104 0
M  V30 19431 H 1865.64 -5.46308 -4.29619 0
M  V30 19432 H 1868.83 -3.49317 -3.11601 0
M  V30 19433 H 1869 -5.00017 -4.12174 0
M  V30 19434 N 1862.41 1.16121 -1.06553 0
M  V30 19435 C 1863.37 2.18796 -0.682711 0
M  V30 19436 C 1864.37 1.58467 0.272905 0
M  V30 19437 O 1865.56 1.74113 0.0549379 0
M  V30 19438 C 1862.69 3.409 -0.00496866 0
M  V30 19439 H 1863.88 2.54178 -1.59165 0
M  V30 19440 H 1861.44 1.30442 -0.861077 0
M  V30 19441 H 1862.17 3.11077 0.916593 0
M  V30 19442 H 1861.96 3.85942 -0.692165 0
M  V30 19443 H 1863.45 4.1686 0.248503 0
M  V30 19444 N 1863.88 0.848487 1.3281 0
M  V30 19445 C 1865.3 0.537529 1.50276 0
M  V30 19446 C 1865.5 -0.93314 1.78591 0
M  V30 19447 O 1864.56 -1.71649 1.85184 0
M  V30 19448 C 1865.87 1.41919 2.65103 0
M  V30 19449 C 1867.42 1.41897 2.78988 0
M  V30 19450 C 1867.89 2.2857 3.96888 0
M  V30 19451 N 1869.38 2.26331 4.04139 0
M  V30 19452 C 1870.12 2.90127 4.94585 0
M  V30 19453 N 1869.61 3.63011 5.9008 0
M  V30 19454 N 1871.41 2.79547 4.87658 0
M  V30 19455 H 1863.56 1.80038 1.12695 0
M  V30 19456 H 1865.82 0.768636 0.554889 0
M  V30 19457 H 1865.53 2.4647 2.50889 0
M  V30 19458 H 1865.4 1.10213 3.60739 0
M  V30 19459 H 1867.79 0.381128 2.92628 0
M  V30 19460 H 1867.87 1.77614 1.84084 0
M  V30 19461 H 1867.51 3.32418 3.84006 0
M  V30 19462 H 1867.44 1.90188 4.91056 0
M  V30 19463 H 1869.93 1.73337 3.35802 0
M  V30 19464 H 1870.25 4.08872 6.55777 0
M  V30 19465 H 1868.59 3.67119 5.90126 0
M  V30 19466 H 1871.78 2.22162 4.12021 0
M  V30 19467 H 1871.96 3.29548 5.57944 0
M  V30 19468 N 1865.36 -1.4549 0.605832 0
M  V30 19469 C 1866.64 -1.95573 0.0324098 0
M  V30 19470 C 1867.02 -1.54829 -1.43496 0
M  V30 19471 O 1866.37 -0.810005 -2.13661 0
M  V30 19472 C 1866.58 -3.4825 0.228676 0
M  V30 19473 C 1867.93 -4.24461 0.108559 0
M  V30 19474 O 1868.95 -3.55846 0.158706 0
M  V30 19475 O 1867.81 -5.46499 -0.00781404 0
M  V30 19476 H 1864.9 -0.826184 -0.0367314 0
M  V30 19477 H 1867.45 -1.55664 0.675771 0
M  V30 19478 H 1866.22 -3.70869 1.24786 0
M  V30 19479 H 1865.84 -3.95045 -0.450031 0
M  V30 19480 N 1866.84 -0.344893 -1.5378 0
M  V30 19481 C 1868.07 0.252193 -2.05055 0
M  V30 19482 C 1868.48 1.44657 -1.21947 0
M  V30 19483 O 1867.82 1.82018 -0.248012 0
M  V30 19484 C 1867.88 0.729619 -3.52018 0
M  V30 19485 C 1867.55 -0.345284 -4.55694 0
M  V30 19486 C 1868.54 -1.18843 -5.06135 0
M  V30 19487 C 1866.23 -0.499596 -4.99809 0
M  V30 19488 C 1868.22 -2.17141 -5.99273 0
M  V30 19489 C 1865.91 -1.48598 -5.92758 0
M  V30 19490 C 1866.91 -2.32033 -6.42378 0
M  V30 19491 O 1866.6 -3.28992 -7.33498 0
M  V30 19492 H 1866.33 0.0522523 -0.673978 0
M  V30 19493 H 1868.88 -0.495473 -1.99334 0
M  V30 19494 H 1867.11 1.52855 -3.55207 0
M  V30 19495 H 1868.8 1.2474 -3.86257 0
M  V30 19496 H 1869.57 -1.0803 -4.72816 0
M  V30 19497 H 1865.45 0.14 -4.60787 0
M  V30 19498 H 1868.99 -2.82303 -6.37927 0
M  V30 19499 H 1864.89 -1.59466 -6.25493 0
M  V30 19500 H 1865.66 -3.24479 -7.51436 0
M  V30 19501 N 1868.32 1.57428 -0.0735454 0
M  V30 19502 C 1869.27 2.14028 0.910749 0
M  V30 19503 C 1870.26 1.07761 1.30705 0
M  V30 19504 O 1871.47 1.26139 1.28409 0
M  V30 19505 H 1867.84 0.684381 0.311652 0
M  V30 19506 H 1869.81 2.95591 0.408468 0
M  V30 19507 C 1868.56 2.71817 2.1682 0
M  V30 19508 H 1867.88 3.5326 1.87209 0
M  V30 19509 H 1869.32 3.15014 2.83799 0
M  V30 19510 C 1867.78 1.66661 2.92789 0
M  V30 19511 O 1868.31 1.09266 3.86554 0
M  V30 19512 N 1866.52 1.37655 2.55929 0
M  V30 19513 H 1866.07 1.84518 1.79752 0
M  V30 19514 H 1866.02 0.675307 3.07062 0
M  V30 19515 N 1869.8 -0.200022 1.56326 0
M  V30 19516 C 1871.21 -0.765141 1.70301 0
M  V30 19517 C 1871.56 -1.84066 0.679277 0
M  V30 19518 O 1870.68 -2.15768 -0.165308 0
M  V30 19519 C 1871.28 -1.39466 3.08763 0
M  V30 19520 C 1869.84 -1.90692 3.2452 0
M  V30 19521 C 1868.98 -0.77502 2.66249 0
M  V30 19522 H 1871.94 0.024977 1.5868 0
M  V30 19523 H 1871.96 -2.26396 3.05819 0
M  V30 19524 H 1871.47 -0.61165 3.8325 0
M  V30 19525 H 1869.57 -2.71728 2.54941 0
M  V30 19526 H 1869.68 -2.0721 4.31973 0
M  V30 19527 H 1868.05 -1.18802 2.25296 0
M  V30 19528 H 1868.83 -0.00432851 3.433 0
M  V30 19529 N 1871.27 -1.50505 -0.467553 0
M  V30 19530 C 1872.5 -1.65193 -1.24076 0
M  V30 19531 C 1872.91 -0.336102 -1.86191 0
M  V30 19532 O 1872.26 0.692299 -1.70156 0
M  V30 19533 C 1872.32 -2.68798 -2.38721 0
M  V30 19534 C 1871.98 -4.12256 -1.97216 0
M  V30 19535 C 1872.98 -4.98012 -1.49267 0
M  V30 19536 C 1870.66 -4.58192 -2.05829 0
M  V30 19537 C 1872.66 -6.27753 -1.10477 0
M  V30 19538 C 1870.34 -5.87938 -1.66651 0
M  V30 19539 C 1871.34 -6.72544 -1.19053 0
M  V30 19540 O 1871.03 -7.99867 -0.804197 0
M  V30 19541 H 1870.76 -0.55823 -0.381254 0
M  V30 19542 H 1873.32 -1.97502 -0.564089 0
M  V30 19543 H 1871.55 -2.31739 -3.09571 0
M  V30 19544 H 1873.24 -2.7267 -3.00675 0
M  V30 19545 H 1874 -4.63737 -1.42031 0
M  V30 19546 H 1869.88 -3.92482 -2.41825 0
M  V30 19547 H 1873.42 -6.93743 -0.732554 0
M  V30 19548 H 1869.32 -6.21733 -1.73546 0
M  V30 19549 H 1870.09 -8.13168 -0.932733 0
M  V30 19550 N 1872.75 0.720973 -1.40142 0
M  V30 19551 C 1874.16 1.29988 -1.34015 0
M  V30 19552 C 1874.51 1.96197 -0.0110816 0
M  V30 19553 O 1873.64 1.97207 0.890984 0
M  V30 19554 C 1874.23 2.36373 -2.42721 0
M  V30 19555 C 1872.79 2.89902 -2.40071 0
M  V30 19556 C 1871.94 1.63627 -2.23878 0
M  V30 19557 H 1874.89 0.51748 -1.50026 0
M  V30 19558 H 1874.91 3.17091 -2.10317 0
M  V30 19559 H 1874.42 1.88156 -3.39439 0
M  V30 19560 H 1872.53 3.42362 -1.47033 0
M  V30 19561 H 1872.64 3.42062 -3.35456 0
M  V30 19562 H 1871 1.88491 -1.71298 0
M  V30 19563 H 1871.79 1.17442 -3.22587 0
M  V30 19564 N 1874.23 1.25549 0.952634 0
M  V30 19565 C 1875.46 1.12998 1.7296 0
M  V30 19566 C 1875.87 -0.318779 1.86495 0
M  V30 19567 O 1875.21 -1.23091 1.36361 0
M  V30 19568 C 1875.27 1.71313 3.16057 0
M  V30 19569 C 1874.94 3.20326 3.25945 0
M  V30 19570 C 1875.93 4.17291 3.10103 0
M  V30 19571 C 1873.62 3.60574 3.49702 0
M  V30 19572 C 1875.61 5.52484 3.17868 0
M  V30 19573 C 1873.3 4.95904 3.57103 0
M  V30 19574 C 1874.3 5.91668 3.412 0
M  V30 19575 O 1873.99 7.24535 3.48287 0
M  V30 19576 H 1873.72 0.394815 0.548723 0
M  V30 19577 H 1876.27 1.66441 1.20361 0
M  V30 19578 H 1874.5 1.1232 3.70029 0
M  V30 19579 H 1876.19 1.53832 3.7562 0
M  V30 19580 H 1876.96 3.87537 2.91617 0
M  V30 19581 H 1872.84 2.86529 3.6114 0
M  V30 19582 H 1876.38 6.27211 3.05373 0
M  V30 19583 H 1872.28 5.25324 3.75106 0
M  V30 19584 H 1873.05 7.32657 3.64905 0
M  V30 19585 N 1875.71 -1.15554 1.07168 0
M  V30 19586 C 1876.93 -1.90723 0.814832 0
M  V30 19587 C 1877.36 -1.7738 -0.62594 0
M  V30 19588 O 1876.72 -1.10521 -1.43718 0
M  V30 19589 C 1876.76 -3.39137 1.22551 0
M  V30 19590 O 1875.87 -4.1074 0.369677 0
M  V30 19591 H 1875.21 -0.593866 0.297017 0
M  V30 19592 H 1877.74 -1.46348 1.42981 0
M  V30 19593 H 1877.75 -3.89926 1.20089 0
M  V30 19594 H 1876.42 -3.48167 2.27492 0
M  V30 19595 H 1875 -3.70094 0.456626 0
M  V30 19596 N 1877.19 -0.855519 -1.32358 0
M  V30 19597 C 1878.46 -0.380575 -1.91862 0
M  V30 19598 C 1878.84 1.13593 -1.77932 0
M  V30 19599 O 1878.19 1.95797 -1.17796 0
M  V30 19600 C 1878.4 -0.845902 -3.38593 0
M  V30 19601 C 1879.75 -0.863586 -4.15725 0
M  V30 19602 O 1880.77 -0.790597 -3.47315 0
M  V30 19603 O 1879.63 -0.966658 -5.37883 0
M  V30 19604 H 1876.73 -0.111156 -0.819496 0
M  V30 19605 H 1879.27 -0.942476 -1.41122 0
M  V30 19606 H 1878.05 -1.88909 -3.42679 0
M  V30 19607 H 1877.67 -0.2615 -3.96739 0
M  V30 19608 N 1878.67 1.45167 -0.61354 0
M  V30 19609 C 1879.63 2.29016 0.0919454 0
M  V30 19610 C 1880.63 1.40091 0.789373 0
M  V30 19611 O 1881.82 1.6215 0.636631 0
M  V30 19612 C 1878.95 3.21257 1.14048 0
M  V30 19613 H 1880.14 2.92875 -0.645317 0
M  V30 19614 H 1877.7 1.51788 -0.372855 0
M  V30 19615 H 1878.43 2.6221 1.90831 0
M  V30 19616 H 1878.22 3.86766 0.644523 0
M  V30 19617 H 1879.71 3.84288 1.63439 0
M  V30 19618 N 1880.14 0.353044 1.53595 0
M  V30 19619 C 1881.39 -0.2416 2.00248 0
M  V30 19620 C 1881.71 -1.5089 1.24465 0
M  V30 19621 O 1882.91 -2.18137 1.61643 0
M  V30 19622 C 1881.37 -0.481075 3.5667 0
M  V30 19623 C 1880.98 0.77087 4.41318 0
M  V30 19624 C 1882.72 -1.03406 4.11713 0
M  V30 19625 C 1880.63 0.501671 5.89268 0
M  V30 19626 H 1879.56 -0.0940573 0.74811 0
M  V30 19627 H 1882.21 0.469845 1.77383 0
M  V30 19628 H 1880.59 -1.25346 3.75639 0
M  V30 19629 H 1881.76 1.54509 4.34124 0
M  V30 19630 H 1880.08 1.24617 3.97315 0
M  V30 19631 H 1882.68 -1.25058 5.1987 0
M  V30 19632 H 1883.02 -1.99245 3.65523 0
M  V30 19633 H 1883.55 -0.322144 3.96493 0
M  V30 19634 H 1880.29 1.43005 6.39711 0
M  V30 19635 H 1879.81 -0.234284 5.99342 0
M  V30 19636 H 1881.49 0.122468 6.46884 0
M  V30 19637 N 1881.62 -1.57387 0.0818932 0
M  V30 19638 C 1882.57 -2.14508 -0.899386 0
M  V30 19639 C 1883.56 -1.08453 -1.30132 0
M  V30 19640 O 1884.77 -1.26818 -1.27739 0
M  V30 19641 H 1881.14 -0.686024 -0.308018 0
M  V30 19642 H 1883.12 -2.95804 -0.392786 0
M  V30 19643 C 1881.86 -2.72963 -2.15375 0
M  V30 19644 H 1881.19 -3.54248 -1.85333 0
M  V30 19645 H 1882.63 -3.16515 -2.82125 0
M  V30 19646 C 1881.09 -1.68212 -2.91901 0
M  V30 19647 O 1881.62 -1.11314 -3.85969 0
M  V30 19648 N 1879.82 -1.3901 -2.55195 0
M  V30 19649 H 1879.37 -1.85468 -1.78771 0
M  V30 19650 H 1879.33 -0.691582 -3.06699 0
M  V30 19651 N 1883.1 0.191729 -1.56429 0
M  V30 19652 C 1884.33 0.927708 -1.84936 0
M  V30 19653 C 1884.74 1.76708 -0.664809 0
M  V30 19654 O 1884.1 1.78783 0.366436 0
M  V30 19655 C 1884.15 1.82113 -3.12277 0
M  V30 19656 O 1883.87 1.01564 -4.26165 0
M  V30 19657 C 1885.37 2.6685 -3.53986 0
M  V30 19658 H 1882.59 0.270514 -0.614055 0
M  V30 19659 H 1885.14 0.197968 -2.0354 0
M  V30 19660 H 1883.29 2.50445 -2.9556 0
M  V30 19661 H 1883.71 1.62478 -4.987 0
M  V30 19662 H 1885.18 3.25189 -4.46045 0
M  V30 19663 H 1885.66 3.40725 -2.77134 0
M  V30 19664 H 1886.26 2.03884 -3.73245 0
M  V30 19665 N 1884.58 1.50751 0.459565 0
M  V30 19666 C 1885.81 1.65848 1.23198 0
M  V30 19667 C 1886.22 0.345972 1.8601 0
M  V30 19668 O 1885.56 -0.683265 1.7052 0
M  V30 19669 C 1885.62 2.7006 2.37292 0
M  V30 19670 C 1885.28 4.13296 1.95027 0
M  V30 19671 C 1886.28 4.98796 1.46623 0
M  V30 19672 C 1883.97 4.59277 2.03396 0
M  V30 19673 C 1885.96 6.2833 1.07147 0
M  V30 19674 C 1883.65 5.88813 1.6353 0
M  V30 19675 C 1884.65 6.73166 1.15485 0
M  V30 19676 O 1884.33 8.00283 0.761767 0
M  V30 19677 H 1884.07 0.560244 0.378289 0
M  V30 19678 H 1886.62 1.97799 0.553607 0
M  V30 19679 H 1884.85 2.33377 3.08338 0
M  V30 19680 H 1886.54 2.74261 2.99225 0
M  V30 19681 H 1887.3 4.64484 1.3957 0
M  V30 19682 H 1883.18 3.93759 2.3974 0
M  V30 19683 H 1886.73 6.94122 0.695753 0
M  V30 19684 H 1882.62 6.22645 1.70247 0
M  V30 19685 H 1883.39 8.13651 0.889596 0
M  V30 19686 N 1886.06 -0.713531 1.40522 0
M  V30 19687 C 1887.33 -1.46672 1.29409 0
M  V30 19688 C 1887.71 -2.10922 -0.0866293 0
M  V30 19689 O 1887.06 -2.00303 -1.09959 0
M  V30 19690 C 1887.27 -2.50076 2.4344 0
M  V30 19691 C 1888.62 -3.15848 2.8377 0
M  V30 19692 O 1889.64 -2.60396 2.43048 0
M  V30 19693 O 1888.5 -4.16238 3.5413 0
M  V30 19694 H 1885.6 -0.652333 0.508322 0
M  V30 19695 H 1888.14 -0.745531 1.52446 0
M  V30 19696 H 1886.91 -2.01129 3.35653 0
M  V30 19697 H 1886.54 -3.29728 2.22183 0
M  V30 19698 N 1887.53 -1.26053 -0.945962 0
M  V30 19699 C 1888.48 -1.07194 -2.04397 0
M  V30 19700 C 1889.45 0.0215796 -1.66086 0
M  V30 19701 O 1890.64 -0.137272 -1.90306 0
M  V30 19702 C 1887.78 -0.705915 -3.37803 0
M  V30 19703 C 1886.89 -1.87519 -3.89179 0
M  V30 19704 C 1886.02 -1.45272 -5.1095 0
M  V30 19705 C 1885.06 -2.59059 -5.54576 0
M  V30 19706 N 1884.2 -2.17527 -6.67552 0
M  V30 19707 H 1889.04 -2.01159 -2.19861 0
M  V30 19708 H 1886.58 -1.00162 -1.07731 0
M  V30 19709 H 1888.53 -0.474611 -4.14492 0
M  V30 19710 H 1887.16 0.196761 -3.222 0
M  V30 19711 H 1886.22 -2.21956 -3.08933 0
M  V30 19712 H 1887.53 -2.7294 -4.17499 0
M  V30 19713 H 1886.68 -1.18158 -5.95083 0
M  V30 19714 H 1885.42 -0.569345 -4.84365 0
M  V30 19715 H 1884.43 -2.86908 -4.69003 0
M  V30 19716 H 1885.65 -3.47989 -5.83164 0
M  V30 19717 H 1883.6 -1.31618 -6.42661 0
M  V30 19718 H 1883.51 -2.96493 -6.95433 0
M  V30 19719 H 1884.78 -1.93612 -7.55073 0
M  V30 19720 N 1889.01 1.14984 -1.07779 0
M  V30 19721 C 1890.24 1.89747 -0.824844 0
M  V30 19722 C 1890.65 1.78246 0.622385 0
M  V30 19723 O 1890.01 1.13739 1.42723 0
M  V30 19724 C 1890.06 3.39946 -1.2296 0
M  V30 19725 O 1889.78 3.5112 -2.62005 0
M  V30 19726 C 1891.28 4.31721 -1.00658 0
M  V30 19727 H 1888.5 0.601232 -0.297928 0
M  V30 19728 H 1891.05 1.4566 -1.43539 0
M  V30 19729 H 1889.2 3.81679 -0.663292 0
M  V30 19730 H 1889.62 4.44367 -2.78636 0
M  V30 19731 H 1891.09 5.35507 -1.33925 0
M  V30 19732 H 1891.57 4.39163 0.0568131 0
M  V30 19733 H 1892.17 3.95735 -1.55801 0
M  V30 19734 N 1890.49 0.862526 1.31902 0
M  V30 19735 C 1891.45 0.317836 2.26986 0
M  V30 19736 C 1892.45 -0.526959 1.5192 0
M  V30 19737 O 1893.64 -0.337336 1.70903 0
M  V30 19738 C 1890.77 -0.549441 3.36443 0
M  V30 19739 H 1891.97 1.15714 2.76677 0
M  V30 19740 H 1889.52 0.637501 1.42708 0
M  V30 19741 H 1890.26 -1.41024 2.92032 0
M  V30 19742 H 1890.04 0.0553642 3.92061 0
M  V30 19743 H 1891.53 -0.923059 4.07271 0
M  V30 19744 N 1891.97 -1.4484 0.62123 0
M  V30 19745 C 1892.9 -2.33374 -0.0766286 0
M  V30 19746 C 1893.88 -1.47631 -0.844932 0
M  V30 19747 O 1895.06 -1.76373 -0.81278 0
M  V30 19748 C 1892.19 -3.30552 -1.0655 0
M  V30 19749 C 1891.15 -4.26037 -0.409496 0
M  V30 19750 C 1890.47 -5.13007 -1.50757 0
M  V30 19751 C 1891.77 -5.17881 0.677994 0
M  V30 19752 H 1893.47 -2.91975 0.662658 0
M  V30 19753 H 1891.01 -1.40397 0.320117 0
M  V30 19754 H 1892.97 -3.91367 -1.56237 0
M  V30 19755 H 1891.69 -2.70139 -1.83555 0
M  V30 19756 H 1890.35 -3.66539 0.0666321 0
M  V30 19757 H 1890 -4.48954 -2.26825 0
M  V30 19758 H 1889.7 -5.777 -1.07407 0
M  V30 19759 H 1891.22 -5.76692 -2.00645 0
M  V30 19760 H 1892.64 -5.72689 0.264637 0
M  V30 19761 H 1891.03 -5.91124 1.03405 0
M  V30 19762 H 1892.1 -4.59488 1.54914 0
M  V30 19763 N 1893.45 -0.361184 -1.53405 0
M  V30 19764 C 1894.39 0.487369 -2.25596 0
M  V30 19765 C 1895.36 1.08114 -1.26097 0
M  V30 19766 O 1896.55 1.11446 -1.54869 0
M  V30 19767 C 1893.69 1.62342 -3.04531 0
M  V30 19768 C 1892.8 1.05525 -4.18914 0
M  V30 19769 C 1891.94 2.16004 -4.853 0
M  V30 19770 C 1890.98 1.5663 -5.91721 0
M  V30 19771 N 1890.11 2.60923 -6.51816 0
M  V30 19772 H 1894.95 -0.134748 -2.97695 0
M  V30 19773 H 1892.49 -0.0782688 -1.46892 0
M  V30 19774 H 1894.45 2.29252 -3.48568 0
M  V30 19775 H 1893.08 2.21626 -2.34695 0
M  V30 19776 H 1892.13 0.276561 -3.79393 0
M  V30 19777 H 1893.44 0.581111 -4.95403 0
M  V30 19778 H 1892.6 2.90743 -5.32497 0
M  V30 19779 H 1891.33 2.66768 -4.08272 0
M  V30 19780 H 1890.34 0.804031 -5.43889 0
M  V30 19781 H 1891.56 1.06696 -6.70666 0
M  V30 19782 H 1889.51 3.10909 -5.77643 0
M  V30 19783 H 1889.43 2.18184 -7.23831 0
M  V30 19784 H 1890.7 3.35378 -7.03663 0
M  V30 19785 N 1894.92 1.57341 -0.0902386 0
M  V30 19786 C 1895.83 2.17276 0.88478 0
M  V30 19787 C 1896.85 1.14089 1.31376 0
M  V30 19788 O 1898.03 1.46438 1.38268 0
M  V30 19789 C 1895.09 2.73739 2.12762 0
M  V30 19790 C 1894.15 3.91865 1.7533 0
M  V30 19791 C 1893.39 4.45626 2.93689 0
M  V30 19792 O 1893.61 3.98337 4.08269 0
M  V30 19793 O 1892.54 5.36714 2.72437 0
M  V30 19794 H 1896.37 3.00989 0.40487 0
M  V30 19795 H 1893.95 1.48799 0.133848 0
M  V30 19796 H 1895.84 3.09849 2.85608 0
M  V30 19797 H 1894.51 1.93075 2.59815 0
M  V30 19798 H 1893.42 3.60576 0.996799 0
M  V30 19799 H 1894.75 4.73878 1.33045 0
M  V30 19800 N 1896.4 -0.183431 1.56529 0
M  V30 19801 C 1897.37 -1.21097 1.94597 0
M  V30 19802 C 1898.37 -1.37825 0.828305 0
M  V30 19803 O 1899.56 -1.35438 1.09555 0
M  V30 19804 C 1896.69 -2.57826 2.23021 0
M  V30 19805 H 1897.88 -0.885275 2.86536 0
M  V30 19806 H 1895.43 -0.425412 1.50399 0
M  V30 19807 H 1896.17 -2.95431 1.33758 0
M  V30 19808 H 1895.95 -2.47054 3.04478 0
M  V30 19809 H 1897.44 -3.31902 2.53437 0
M  V30 19810 N 1897.88 -1.50992 -0.451564 0
M  V30 19811 C 1899.13 -1.63197 -1.20394 0
M  V30 19812 C 1899.46 -0.340409 -1.91193 0
M  V30 19813 O 1898.73 0.65926 -1.82986 0
M  V30 19814 C 1899.02 -2.82567 -2.23221 0
M  V30 19815 C 1898.87 -4.2166 -1.56598 0
M  V30 19816 C 1900.19 -2.97468 -3.24347 0
M  V30 19817 H 1897.31 -0.59395 -0.43634 0
M  V30 19818 H 1899.95 -1.83437 -0.495056 0
M  V30 19819 H 1898.1 -2.65441 -2.83678 0
M  V30 19820 H 1899.77 -4.50422 -0.995877 0
M  V30 19821 H 1898.02 -4.25015 -0.86862 0
M  V30 19822 H 1898.69 -5.0115 -2.31415 0
M  V30 19823 H 1901.16 -3.13211 -2.73931 0
M  V30 19824 H 1900.04 -3.82581 -3.93603 0
M  V30 19825 H 1900.3 -2.08921 -3.89621 0
M  V30 19826 N 1899.36 0.706069 -1.40899 0
M  V30 19827 C 1900.61 1.46604 -1.39691 0
M  V30 19828 C 1900.93 1.945 -0.00244032 0
M  V30 19829 O 1900.19 1.69172 0.983828 0
M  V30 19830 C 1900.49 2.70045 -2.34116 0
M  V30 19831 C 1900.15 2.40863 -3.81177 0
M  V30 19832 C 1898.82 2.32615 -4.21241 0
M  V30 19833 C 1901.17 2.16582 -4.74069 0
M  V30 19834 C 1898.5 1.98167 -5.5222 0
M  V30 19835 C 1900.85 1.83645 -6.05357 0
M  V30 19836 C 1899.51 1.73885 -6.44454 0
M  V30 19837 H 1898.78 0.536463 -0.511164 0
M  V30 19838 H 1901.43 0.807941 -1.73622 0
M  V30 19839 H 1899.73 3.40738 -1.93403 0
M  V30 19840 H 1901.43 3.2816 -2.3046 0
M  V30 19841 H 1898.02 2.48173 -3.49439 0
M  V30 19842 H 1902.2 2.21905 -4.43928 0
M  V30 19843 H 1897.46 1.89155 -5.81404 0
M  V30 19844 H 1901.63 1.63873 -6.76845 0
M  V30 19845 H 1899.26 1.46959 -7.4586 0
M  V30 19846 N 1900.84 1.26553 0.939264 0
M  V30 19847 C 1902.11 1.02956 1.66312 0
M  V30 19848 C 1902.49 -0.439417 2.06476 0
M  V30 19849 O 1901.84 -1.42019 1.79005 0
M  V30 19850 C 1902.05 1.98013 2.87388 0
M  V30 19851 C 1903.4 2.26732 3.58996 0
M  V30 19852 O 1904.42 1.95894 2.97496 0
M  V30 19853 O 1903.28 2.79244 4.69771 0
M  V30 19854 H 1900.38 0.391621 0.728397 0
M  V30 19855 H 1902.92 1.37771 0.990824 0
M  V30 19856 H 1901.69 2.97133 2.54613 0
M  V30 19857 H 1901.32 1.63689 3.62342 0
M  V30 19858 N 1902.31 -1.14411 1.08387 0
M  V30 19859 C 1903.59 -1.8162 0.726188 0
M  V30 19860 C 1903.97 -1.95755 -0.790129 0
M  V30 19861 O 1903.32 -1.51725 -1.70856 0
M  V30 19862 C 1903.53 -3.17321 1.45287 0
M  V30 19863 C 1904.88 -3.92818 1.6118 0
M  V30 19864 O 1905.9 -3.2691 1.41451 0
M  V30 19865 O 1904.76 -5.1101 1.93728 0
M  V30 19866 H 1901.85 -0.785182 0.25965 0
M  V30 19867 H 1904.4 -1.21431 1.18544 0
M  V30 19868 H 1903.17 -3.02195 2.48584 0
M  V30 19869 H 1902.8 -3.85203 0.985093 0
M  V30 19870 N 1903.79 -0.869509 -1.31443 0
M  V30 19871 C 1905.07 -0.400903 -1.91447 0
M  V30 19872 C 1905.45 1.117 -1.79127 0
M  V30 19873 O 1904.8 1.94536 -1.19866 0
M  V30 19874 C 1905.01 -0.881767 -3.37677 0
M  V30 19875 C 1906.36 -0.90763 -4.14786 0
M  V30 19876 O 1907.38 -0.82739 -3.46457 0
M  V30 19877 O 1906.24 -1.02365 -5.36827 0
M  V30 19878 H 1903.33 -0.119842 -0.818271 0
M  V30 19879 H 1905.88 -0.957391 -1.40115 0
M  V30 19880 H 1904.65 -1.92533 -3.40657 0
M  V30 19881 H 1904.27 -0.303565 -3.96439 0
M  V30 19882 N 1905.27 1.44508 -0.628902 0
M  V30 19883 C 1906.2 2.27848 0.126632 0
M  V30 19884 C 1907.18 1.38406 0.85338 0
M  V30 19885 O 1908.37 1.67845 0.857923 0
M  V30 19886 C 1905.49 3.17283 1.18529 0
M  V30 19887 C 1904.54 4.22817 0.559317 0
M  V30 19888 S 1905.37 5.31554 -0.648926 0
M  V30 19889 C 1906.53 6.24557 0.409797 0
M  V30 19890 H 1906.76 2.9158 -0.580384 0
M  V30 19891 H 1904.29 1.48662 -0.417009 0
M  V30 19892 H 1906.25 3.69362 1.79115 0
M  V30 19893 H 1904.91 2.52776 1.86449 0
M  V30 19894 H 1904.11 4.854 1.35656 0
M  V30 19895 H 1903.71 3.73989 0.0281246 0
M  V30 19896 H 1906 6.65241 1.28298 0
M  V30 19897 H 1906.94 7.0787 -0.180404 0
M  V30 19898 H 1907.35 5.59699 0.734695 0
M  V30 19899 N 1906.75 0.369315 1.53212 0
M  V30 19900 C 1907.66 -0.483226 2.29569 0
M  V30 19901 C 1908.68 -1.08931 1.35684 0
M  V30 19902 O 1909.85 -1.09944 1.68743 0
M  V30 19903 C 1906.92 -1.60549 3.07286 0
M  V30 19904 C 1905.98 -1.02656 4.16846 0
M  V30 19905 C 1905.21 -2.09534 4.90847 0
M  V30 19906 O 1905.43 -3.30709 4.64745 0
M  V30 19907 O 1904.37 -1.72382 5.76687 0
M  V30 19908 H 1908.19 0.138246 3.03385 0
M  V30 19909 H 1905.78 0.133589 1.48802 0
M  V30 19910 H 1907.66 -2.25789 3.55805 0
M  V30 19911 H 1906.34 -2.21229 2.36303 0
M  V30 19912 H 1905.24 -0.337963 3.7257 0
M  V30 19913 H 1906.58 -0.464259 4.90006 0
M  V30 19914 N 1908.23 -1.57291 0.0985816 0
M  V30 19915 C 1909.16 -2.11249 -0.889184 0
M  V30 19916 C 1910.17 -1.05051 -1.24371 0
M  V30 19917 O 1911.36 -1.32488 -1.19621 0
M  V30 19918 C 1908.46 -2.58021 -2.19724 0
M  V30 19919 C 1907.63 -3.88091 -2.01752 0
M  V30 19920 C 1906.69 -4.20674 -3.16101 0
M  V30 19921 O 1905.72 -4.89837 -2.89911 0
M  V30 19922 N 1906.92 -3.76356 -4.41969 0
M  V30 19923 H 1909.69 -2.96624 -0.42832 0
M  V30 19924 H 1907.25 -1.61669 -0.0864254 0
M  V30 19925 H 1909.24 -2.76861 -2.95178 0
M  V30 19926 H 1907.81 -1.77638 -2.57223 0
M  V30 19927 H 1907.03 -3.78364 -1.10608 0
M  V30 19928 H 1908.32 -4.7318 -1.87026 0
M  V30 19929 H 1907.72 -3.20533 -4.66128 0
M  V30 19930 H 1906.27 -4.00344 -5.14361 0
M  V30 19931 N 1909.71 0.175127 -1.56624 0
M  V30 19932 C 1910.64 1.21918 -1.99144 0
M  V30 19933 C 1911.62 1.4638 -0.866428 0
M  V30 19934 O 1912.8 1.57779 -1.13223 0
M  V30 19935 C 1909.93 2.55897 -2.34807 0
M  V30 19936 C 1908.89 2.46011 -3.50232 0
M  V30 19937 C 1908.21 3.84445 -3.71626 0
M  V30 19938 C 1909.51 1.96808 -4.83801 0
M  V30 19939 H 1911.21 0.86575 -2.8661 0
M  V30 19940 H 1908.75 0.415014 -1.3789 0
M  V30 19941 H 1910.7 3.29136 -2.63149 0
M  V30 19942 H 1909.43 2.9302 -1.44245 0
M  V30 19943 H 1908.09 1.75227 -3.22011 0
M  V30 19944 H 1907.74 4.18955 -2.78362 0
M  V30 19945 H 1907.44 3.787 -4.49288 0
M  V30 19946 H 1908.96 4.59276 -4.02366 0
M  V30 19947 H 1910.37 2.59819 -5.11045 0
M  V30 19948 H 1908.77 2.0202 -5.65073 0
M  V30 19949 H 1909.84 0.922209 -4.7605 0
M  V30 19950 N 1911.18 1.5123 0.44355 0
M  V30 19951 C 1912.6 1.39267 0.779541 0
M  V30 19952 C 1912.8 0.470162 1.95938 0
M  V30 19953 O 1911.86 -0.0769965 2.52383 0
M  V30 19954 C 1913.17 2.8118 1.06574 0
M  V30 19955 C 1914.72 2.90288 1.17055 0
M  V30 19956 C 1915.19 4.33095 1.48973 0
M  V30 19957 N 1916.68 4.36173 1.55909 0
M  V30 19958 C 1917.42 5.43694 1.82165 0
M  V30 19959 N 1916.91 6.61386 2.06255 0
M  V30 19960 N 1918.71 5.31167 1.83896 0
M  V30 19961 H 1910.86 2.09764 -0.333579 0
M  V30 19962 H 1913.12 0.944017 -0.0868148 0
M  V30 19963 H 1912.83 3.5065 0.271575 0
M  V30 19964 H 1912.7 3.20125 1.99498 0
M  V30 19965 H 1915.09 2.2102 1.95535 0
M  V30 19966 H 1915.17 2.54848 0.220468 0
M  V30 19967 H 1914.81 5.0291 0.710222 0
M  V30 19968 H 1914.74 4.66043 2.45177 0
M  V30 19969 H 1917.23 3.5132 1.39221 0
M  V30 19970 H 1917.55 7.39125 2.25641 0
M  V30 19971 H 1915.89 6.64512 2.0359 0
M  V30 19972 H 1919.08 4.38209 1.64591 0
M  V30 19973 H 1919.26 6.15044 2.0402 0
M  V30 19974 N 1912.66 -0.698586 1.41271 0
M  V30 19975 C 1913.94 -1.45291 1.30957 0
M  V30 19976 C 1914.32 -2.11002 -0.0642533 0
M  V30 19977 O 1913.67 -2.01458 -1.07829 0
M  V30 19978 C 1913.88 -2.4748 2.46078 0
M  V30 19979 C 1915.22 -3.1282 2.87104 0
M  V30 19980 O 1916.25 -2.57804 2.45796 0
M  V30 19981 O 1915.11 -4.12458 3.58525 0
M  V30 19982 H 1912.2 -0.646905 0.515212 0
M  V30 19983 H 1914.75 -0.72932 1.53229 0
M  V30 19984 H 1913.52 -1.97558 3.37767 0
M  V30 19985 H 1913.14 -3.27353 2.25668 0
M  V30 19986 N 1914.14 -1.27049 -0.93254 0
M  V30 19987 C 1915.39 -1.1327 -1.68219 0
M  V30 19988 C 1915.72 0.321632 -1.91518 0
M  V30 19989 O 1914.99 1.23564 -1.50207 0
M  V30 19990 C 1915.28 -1.91162 -3.0517 0
M  V30 19991 C 1915.13 -3.44552 -2.89143 0
M  V30 19992 C 1916.45 -1.71227 -4.05425 0
M  V30 19993 H 1913.57 -0.412859 -0.610505 0
M  V30 19994 H 1916.21 -1.56148 -1.08249 0
M  V30 19995 H 1914.36 -1.54722 -3.56361 0
M  V30 19996 H 1916.03 -3.90794 -2.45107 0
M  V30 19997 H 1914.27 -3.71138 -2.24586 0
M  V30 19998 H 1914.95 -3.9429 -3.86315 0
M  V30 19999 H 1917.42 -2.0299 -3.63227 0
M  V30 20000 H 1916.3 -2.28129 -4.99248 0
M  V30 20001 H 1916.56 -0.65898 -4.37161 0
M  V30 20002 N 1915.62 1.13835 -1.08993 0
M  V30 20003 C 1917.03 1.66568 -0.843325 0
M  V30 20004 C 1917.38 1.85846 0.628955 0
M  V30 20005 O 1916.5 1.57401 1.48506 0
M  V30 20006 C 1917.1 3.02573 -1.52431 0
M  V30 20007 C 1915.66 3.52315 -1.3248 0
M  V30 20008 C 1914.81 2.27658 -1.58326 0
M  V30 20009 H 1917.76 0.978181 -1.24969 0
M  V30 20010 H 1917.78 3.68323 -0.954898 0
M  V30 20011 H 1917.29 2.8851 -2.59584 0
M  V30 20012 H 1915.39 3.71589 -0.274248 0
M  V30 20013 H 1915.5 4.32715 -2.05657 0
M  V30 20014 H 1913.87 2.34028 -1.00514 0
M  V30 20015 H 1914.65 2.16165 -2.66698 0
M  V30 20016 N 1917.1 0.876467 1.3098 0
M  V30 20017 C 1918.34 0.486745 1.95739 0
M  V30 20018 C 1918.66 -0.967265 1.7001 0
M  V30 20019 O 1919.86 -1.46344 2.28683 0
M  V30 20020 C 1918.32 0.819534 3.50445 0
M  V30 20021 C 1917.93 2.29074 3.85005 0
M  V30 20022 C 1919.67 0.498597 4.21562 0
M  V30 20023 C 1917.58 2.5656 5.32851 0
M  V30 20024 H 1916.51 0.178295 0.732616 0
M  V30 20025 H 1919.16 1.07027 1.49055 0
M  V30 20026 H 1917.54 0.165191 3.95655 0
M  V30 20027 H 1918.72 2.98869 3.50733 0
M  V30 20028 H 1917.03 2.57836 3.2697 0
M  V30 20029 H 1919.63 0.6811 5.30344 0
M  V30 20030 H 1919.97 -0.561426 4.12497 0
M  V30 20031 H 1920.5 1.10976 3.82007 0
M  V30 20032 H 1917.24 3.61271 5.46959 0
M  V30 20033 H 1916.76 1.91366 5.68453 0
M  V30 20034 H 1918.44 2.41623 6.00189 0
M  V30 20035 N 1918.57 -1.44173 0.636557 0
M  V30 20036 C 1919.85 -1.9546 0.0738864 0
M  V30 20037 C 1920.23 -1.57838 -1.4018 0
M  V30 20038 O 1919.58 -0.855144 -2.11895 0
M  V30 20039 C 1919.79 -3.47687 0.302493 0
M  V30 20040 C 1921.14 -4.24135 0.198569 0
M  V30 20041 O 1922.16 -3.5543 0.234151 0
M  V30 20042 O 1921.02 -5.46393 0.108108 0
M  V30 20043 H 1918.11 -0.826777 -0.0191985 0
M  V30 20044 H 1920.66 -1.54196 0.708638 0
M  V30 20045 H 1919.43 -3.68139 1.32625 0
M  V30 20046 H 1919.05 -3.95911 -0.366134 0
M  V30 20047 N 1920.05 -0.377435 -1.53014 0
M  V30 20048 C 1921 0.480105 -2.22888 0
M  V30 20049 C 1921.99 1.0392 -1.22839 0
M  V30 20050 O 1923.18 0.967277 -1.48232 0
M  V30 20051 C 1920.31 1.61312 -3.0304 0
M  V30 20052 C 1919.39 1.06633 -4.10476 0
M  V30 20053 N 1919.78 0.243501 -5.05214 0
M  V30 20054 C 1918.08 1.33999 -4.25394 0
M  V30 20055 C 1918.78 -0.0572358 -5.81672 0
M  V30 20056 N 1917.76 0.543562 -5.40876 0
M  V30 20057 H 1921.56 -0.155223 -2.9349 0
M  V30 20058 H 1919.07 -0.18609 -1.6133 0
M  V30 20059 H 1921.07 2.23975 -3.51626 0
M  V30 20060 H 1919.73 2.25138 -2.33972 0
M  V30 20061 H 1920.74 -0.118276 -5.17765 0
M  V30 20062 H 1917.42 1.98017 -3.67553 0
M  V30 20063 H 1918.81 -0.72317 -6.67997 0
M  V30 20064 N 1921.53 1.57237 -0.106922 0
M  V30 20065 C 1922.76 1.99545 0.565392 0
M  V30 20066 C 1923.18 0.985887 1.60193 0
M  V30 20067 O 1922.54 -0.0440657 1.81246 0
M  V30 20068 C 1922.59 3.40779 1.17908 0
M  V30 20069 O 1921.69 3.42656 2.29479 0
M  V30 20070 H 1921.03 0.648556 0.142379 0
M  V30 20071 H 1923.56 2.03699 -0.191829 0
M  V30 20072 H 1923.57 3.78728 1.51754 0
M  V30 20073 H 1922.25 4.13776 0.419776 0
M  V30 20074 H 1920.82 3.16514 1.97164 0
M  V30 20075 N 1923.01 -0.166818 1.56715 0
M  V30 20076 C 1924.29 -0.910255 1.73129 0
M  V30 20077 C 1924.67 -2.002 0.669555 0
M  V30 20078 O 1924.01 -2.2632 -0.314899 0
M  V30 20079 C 1924.22 -1.47087 3.16491 0
M  V30 20080 C 1925.57 -1.94204 3.77584 0
M  V30 20081 O 1926.6 -1.56872 3.19796 0
M  V30 20082 O 1925.45 -2.62988 4.79061 0
M  V30 20083 H 1922.55 -0.428766 0.70717 0
M  V30 20084 H 1925.09 -0.154295 1.68997 0
M  V30 20085 H 1923.87 -0.685322 3.85252 0
M  V30 20086 H 1923.49 -2.29089 3.24967 0
M  V30 20087 N 1924.49 -1.51463 -0.435524 0
M  V30 20088 C 1925.42 -1.75856 -1.53613 0
M  V30 20089 C 1926.4 -0.608449 -1.58846 0
M  V30 20090 O 1927.58 -0.85135 -1.74544 0
M  V30 20091 C 1924.71 -1.88525 -2.91677 0
M  V30 20092 C 1923.67 -3.03972 -3.01305 0
M  V30 20093 C 1922.99 -3.01828 -4.41366 0
M  V30 20094 C 1924.29 -4.43905 -2.75219 0
M  V30 20095 H 1925.99 -2.68013 -1.33452 0
M  V30 20096 H 1923.53 -1.28968 -0.640564 0
M  V30 20097 H 1925.49 -2.04173 -3.68634 0
M  V30 20098 H 1924.21 -0.930179 -3.13074 0
M  V30 20099 H 1922.87 -2.88033 -2.26788 0
M  V30 20100 H 1922.52 -2.04095 -4.59733 0
M  V30 20101 H 1922.22 -3.79353 -4.48737 0
M  V30 20102 H 1923.74 -3.19572 -5.20294 0
M  V30 20103 H 1925.15 -4.60187 -3.41908 0
M  V30 20104 H 1923.55 -5.2315 -2.93998 0
M  V30 20105 H 1924.62 -4.53818 -1.70814 0
M  V30 20106 N 1925.96 0.691085 -1.4164 0
M  V30 20107 C 1927.21 1.45329 -1.41447 0
M  V30 20108 C 1927.54 1.94184 -0.0249758 0
M  V30 20109 O 1926.82 1.69831 0.948043 0
M  V30 20110 C 1927.1 2.66199 -2.42508 0
M  V30 20111 C 1926.95 2.23081 -3.90583 0
M  V30 20112 C 1928.27 3.68402 -2.40766 0
M  V30 20113 H 1925.39 0.527115 -0.515091 0
M  V30 20114 H 1928.03 0.786758 -1.72945 0
M  V30 20115 H 1926.18 3.23066 -2.15778 0
M  V30 20116 H 1927.86 1.71506 -4.28233 0
M  V30 20117 H 1926.1 1.54818 -4.05233 0
M  V30 20118 H 1926.77 3.09828 -4.56848 0
M  V30 20119 H 1929.25 3.21217 -2.64497 0
M  V30 20120 H 1928.12 4.50576 -3.13484 0
M  V30 20121 H 1928.38 4.18408 -1.42783 0
M  V30 20122 N 1927.44 1.27542 0.925789 0
M  V30 20123 C 1928.41 1.10471 2.0082 0
M  V30 20124 C 1929.41 0.0481002 1.60728 0
M  V30 20125 O 1930.6 0.292857 1.71721 0
M  V30 20126 C 1927.73 0.683669 3.33974 0
M  V30 20127 H 1928.92 2.0659 2.17395 0
M  V30 20128 H 1926.47 1.10357 1.10684 0
M  V30 20129 H 1927.21 -0.278821 3.23099 0
M  V30 20130 H 1926.99 1.44679 3.64431 0
M  V30 20131 H 1928.48 0.586526 4.13461 0
M  V30 20132 N 1928.92 -1.13255 1.09595 0
M  V30 20133 C 1930.2 -1.8084 0.74541 0
M  V30 20134 C 1930.58 -1.96582 -0.769323 0
M  V30 20135 O 1929.93 -1.53529 -1.69237 0
M  V30 20136 C 1930.14 -3.15762 1.48645 0
M  V30 20137 C 1931.48 -3.91087 1.65337 0
M  V30 20138 O 1932.51 -3.25391 1.4491 0
M  V30 20139 O 1931.37 -5.08927 1.99137 0
M  V30 20140 H 1928.46 -0.782384 0.267963 0
M  V30 20141 H 1931.01 -1.20167 1.19825 0
M  V30 20142 H 1929.78 -2.99541 2.51775 0
M  V30 20143 H 1929.4 -3.84137 1.02589 0
M  V30 20144 N 1930.4 -0.883401 -1.30514 0
M  V30 20145 C 1931.33 -0.36516 -2.30627 0
M  V30 20146 C 1932.31 0.551149 -1.60923 0
M  V30 20147 O 1933.49 0.465333 -1.88543 0
M  V30 20148 C 1930.62 0.422552 -3.4472 0
M  V30 20149 C 1929.58 -0.401856 -4.26109 0
M  V30 20150 C 1928.9 0.512363 -5.3224 0
M  V30 20151 C 1930.2 -1.64313 -4.95781 0
M  V30 20152 H 1931.9 -1.20175 -2.74223 0
M  V30 20153 H 1929.44 -0.579315 -1.31833 0
M  V30 20154 H 1931.4 0.795726 -4.13819 0
M  V30 20155 H 1930.12 1.29278 -2.99925 0
M  V30 20156 H 1928.78 -0.75715 -3.58696 0
M  V30 20157 H 1928.43 1.38025 -4.83692 0
M  V30 20158 H 1928.13 -0.0354331 -5.87589 0
M  V30 20159 H 1929.65 0.882088 -6.04195 0
M  V30 20160 H 1931.07 -1.34063 -5.57405 0
M  V30 20161 H 1929.46 -2.13101 -5.60989 0
M  V30 20162 H 1930.53 -2.38843 -4.21998 0
M  V30 20163 N 1931.88 1.43833 -0.644194 0
M  V30 20164 C 1932.81 2.33467 0.0394911 0
M  V30 20165 C 1933.79 1.48957 0.821339 0
M  V30 20166 O 1934.97 1.77644 0.784618 0
M  V30 20167 C 1932.1 3.32205 1.01277 0
M  V30 20168 C 1931.06 4.26634 0.341666 0
M  V30 20169 C 1930.38 5.15341 1.42577 0
M  V30 20170 C 1931.68 5.16737 -0.760299 0
M  V30 20171 H 1933.38 2.90883 -0.709025 0
M  V30 20172 H 1930.92 1.3987 -0.342413 0
M  V30 20173 H 1932.88 3.93803 1.49991 0
M  V30 20174 H 1931.6 2.73025 1.79234 0
M  V30 20175 H 1930.26 3.66387 -0.124937 0
M  V30 20176 H 1929.91 4.52505 2.19654 0
M  V30 20177 H 1929.61 5.79336 0.98203 0
M  V30 20178 H 1931.13 5.79811 1.91444 0
M  V30 20179 H 1932.54 5.72195 -0.355713 0
M  V30 20180 H 1930.94 5.89404 -1.12796 0
M  V30 20181 H 1932.01 4.56966 -1.62204 0
M  V30 20182 N 1933.35 0.385544 1.52811 0
M  V30 20183 C 1934.3 -0.451417 2.26342 0
M  V30 20184 C 1935.27 -1.06094 1.27801 0
M  V30 20185 O 1936.46 -1.08968 1.56623 0
M  V30 20186 C 1933.6 -1.57477 3.07075 0
M  V30 20187 C 1932.71 -0.988468 4.20539 0
M  V30 20188 C 1931.84 -2.08256 4.88675 0
M  V30 20189 C 1930.88 -1.47196 5.94138 0
M  V30 20190 N 1930.02 -2.5052 6.55884 0
M  V30 20191 H 1934.86 0.182092 2.97443 0
M  V30 20192 H 1932.4 0.101628 1.46749 0
M  V30 20193 H 1934.36 -2.23677 3.52171 0
M  V30 20194 H 1932.99 -2.17864 2.38191 0
M  V30 20195 H 1932.04 -0.216168 3.79785 0
M  V30 20196 H 1933.35 -0.502223 4.96265 0
M  V30 20197 H 1932.5 -2.82235 5.37055 0
M  V30 20198 H 1931.24 -2.60239 4.12464 0
M  V30 20199 H 1930.25 -0.717401 5.45099 0
M  V30 20200 H 1931.47 -0.960124 6.72279 0
M  V30 20201 H 1929.42 -3.0168 5.82516 0
M  V30 20202 H 1929.34 -2.0664 7.27211 0
M  V30 20203 H 1930.6 -3.24141 7.0891 0
M  V30 20204 N 1934.83 -1.57178 0.115259 0
M  V30 20205 C 1935.74 -2.18656 -0.850101 0
M  V30 20206 C 1936.76 -1.16164 -1.29545 0
M  V30 20207 O 1937.93 -1.48619 -1.35921 0
M  V30 20208 C 1935 -2.77089 -2.0838 0
M  V30 20209 C 1934.06 -3.94604 -1.69074 0
M  V30 20210 C 1933.29 -4.50242 -2.86563 0
M  V30 20211 O 1933.52 -4.04782 -4.0188 0
M  V30 20212 O 1932.45 -5.4098 -2.63864 0
M  V30 20213 H 1936.28 -3.01595 -0.356934 0
M  V30 20214 H 1933.86 -1.48993 -0.110158 0
M  V30 20215 H 1935.74 -3.14353 -2.80642 0
M  V30 20216 H 1934.42 -1.97184 -2.56711 0
M  V30 20217 H 1933.33 -3.62116 -0.939308 0
M  V30 20218 H 1934.66 -4.75934 -1.25489 0
M  V30 20219 N 1936.31 0.158505 -1.56801 0
M  V30 20220 C 1937.24 1.19799 -2.00426 0
M  V30 20221 C 1938.22 1.45453 -0.881905 0
M  V30 20222 O 1939.41 1.56569 -1.1489 0
M  V30 20223 C 1936.54 2.53392 -2.37508 0
M  V30 20224 C 1935.49 2.42283 -3.52822 0
M  V30 20225 C 1934.82 3.80482 -3.75683 0
M  V30 20226 C 1936.12 1.91666 -4.85862 0
M  V30 20227 H 1937.81 0.835303 -2.87512 0
M  V30 20228 H 1935.36 0.400366 -1.38322 0
M  V30 20229 H 1937.31 3.26326 -2.66625 0
M  V30 20230 H 1936.03 2.91474 -1.47345 0
M  V30 20231 H 1934.69 1.71801 -3.23852 0
M  V30 20232 H 1934.34 4.15979 -2.8279 0
M  V30 20233 H 1934.04 3.73913 -4.5328 0
M  V30 20234 H 1935.57 4.54982 -4.07214 0
M  V30 20235 H 1936.98 2.54384 -5.13772 0
M  V30 20236 H 1935.38 1.96016 -5.67184 0
M  V30 20237 H 1936.45 0.871666 -4.77001 0
M  V30 20238 N 1937.79 1.51692 0.427485 0
M  V30 20239 C 1939.01 1.68956 1.20285 0
M  V30 20240 C 1939.44 0.390472 1.84003 0
M  V30 20241 O 1938.8 -0.650352 1.69234 0
M  V30 20242 C 1938.85 2.81368 2.25532 0
M  V30 20243 O 1937.95 2.45657 3.3125 0
M  V30 20244 H 1937.29 0.56304 0.351969 0
M  V30 20245 H 1939.82 1.98306 0.503588 0
M  V30 20246 H 1939.83 3.05742 2.70158 0
M  V30 20247 H 1938.51 3.7563 1.78535 0
M  V30 20248 H 1937.08 2.31889 2.9203 0
M  V30 20249 N 1939.27 -0.683564 1.42004 0
M  V30 20250 C 1940.22 -1.81859 1.45018 0
M  V30 20251 C 1941.21 -1.66217 0.326852 0
M  V30 20252 O 1942.42 -1.72932 0.499454 0
M  V30 20253 H 1938.79 -0.599489 0.454001 0
M  V30 20254 H 1940.76 -1.76435 2.40652 0
M  V30 20255 C 1939.51 -3.19959 1.36094 0
M  V30 20256 H 1938.83 -3.32618 2.21823 0
M  V30 20257 H 1940.27 -3.99421 1.42263 0
M  V30 20258 C 1938.73 -3.36817 0.074666 0
M  V30 20259 O 1939.26 -3.92032 -0.875984 0
M  V30 20260 N 1937.47 -2.906 -0.00533406 0
M  V30 20261 H 1937.02 -2.45853 0.769044 0
M  V30 20262 H 1936.97 -3.02257 -0.865343 0
M  V30 20263 N 1940.75 -1.28031 -0.919012 0
M  V30 20264 C 1941.7 -1.08151 -2.00717 0
M  V30 20265 C 1942.68 -0.00679124 -1.60899 0
M  V30 20266 O 1943.87 -0.226329 -1.75547 0
M  V30 20267 C 1941 -0.739868 -3.35233 0
M  V30 20268 C 1940.09 -1.85317 -3.81469 0
M  V30 20269 N 1940.48 -3.09403 -4.00129 0
M  V30 20270 C 1938.78 -1.74182 -4.10581 0
M  V30 20271 C 1939.48 -3.81909 -4.38772 0
M  V30 20272 N 1938.45 -3.09725 -4.46734 0
M  V30 20273 H 1942.25 -2.02308 -2.13187 0
M  V30 20274 H 1939.77 -1.18873 -1.10648 0
M  V30 20275 H 1941.77 -0.578538 -4.12866 0
M  V30 20276 H 1940.43 0.193987 -3.2412 0
M  V30 20277 H 1941.44 -3.45071 -3.86195 0
M  V30 20278 H 1938.11 -0.879386 -4.08134 0
M  V30 20279 H 1939.5 -4.886 -4.61216 0
M  V30 20280 N 1942.22 1.12672 -1.10194 0
M  V30 20281 C 1943.17 2.20403 -0.743323 0
M  V30 20282 C 1944.17 1.67402 0.259382 0
M  V30 20283 O 1945.37 1.79599 0.120012 0
M  V30 20284 H 1941.75 0.718351 -0.22243 0
M  V30 20285 H 1943.72 2.47907 -1.66087 0
M  V30 20286 C 1942.47 3.47188 -0.188629 0
M  V30 20287 H 1941.79 3.88315 -0.951411 0
M  V30 20288 H 1943.23 4.23993 0.0242649 0
M  V30 20289 C 1941.69 3.19186 1.07806 0
M  V30 20290 O 1942.22 3.38684 2.16 0
M  V30 20291 N 1940.42 2.73009 0.995705 0
M  V30 20292 H 1939.97 2.57342 0.115168 0
M  V30 20293 H 1939.93 2.54649 1.84394 0
M  V30 20294 N 1943.7 0.89031 1.30043 0
M  V30 20295 C 1944.61 0.365266 2.31739 0
M  V30 20296 C 1945.63 -0.535219 1.65564 0
M  V30 20297 O 1946.8 -0.427058 1.9682 0
M  V30 20298 C 1943.87 -0.407009 3.44303 0
M  V30 20299 C 1942.93 0.523869 4.26092 0
M  V30 20300 C 1942.16 -0.211645 5.3328 0
M  V30 20301 O 1942.39 -1.43697 5.52003 0
M  V30 20302 O 1941.32 0.440999 6.00282 0
M  V30 20303 H 1945.15 1.20872 2.7861 0
M  V30 20304 H 1942.73 0.654319 1.34309 0
M  V30 20305 H 1944.61 -0.844074 4.1286 0
M  V30 20306 H 1943.29 -1.22668 2.99557 0
M  V30 20307 H 1942.19 1.00986 3.60212 0
M  V30 20308 H 1943.53 1.30969 4.74455 0
M  V30 20309 N 1945.18 -1.43489 0.651812 0
M  V30 20310 C 1946.6 -1.56374 0.31925 0
M  V30 20311 C 1946.8 -1.63573 -1.1767 0
M  V30 20312 O 1945.85 -1.59003 -1.96149 0
M  V30 20313 C 1947.16 -2.82532 1.02937 0
M  V30 20314 C 1948.71 -2.96274 1.00949 0
M  V30 20315 C 1949.19 -4.25262 1.70047 0
M  V30 20316 N 1950.68 -4.32123 1.66805 0
M  V30 20317 C 1951.41 -5.30693 2.17146 0
M  V30 20318 N 1950.91 -6.3555 2.75769 0
M  V30 20319 N 1952.7 -5.22337 2.07654 0
M  V30 20320 H 1944.85 -1.3706 1.6226 0
M  V30 20321 H 1947.12 -0.658169 0.682289 0
M  V30 20322 H 1946.82 -2.83271 2.08448 0
M  V30 20323 H 1946.7 -3.72713 0.580047 0
M  V30 20324 H 1949.08 -2.95077 -0.0372118 0
M  V30 20325 H 1949.16 -2.07386 1.49749 0
M  V30 20326 H 1948.81 -4.2722 2.74673 0
M  V30 20327 H 1948.74 -5.13044 1.18714 0
M  V30 20328 H 1951.23 -3.56968 1.24024 0
M  V30 20329 H 1951.54 -7.0708 3.11861 0
M  V30 20330 H 1949.89 -6.36177 2.79829 0
M  V30 20331 H 1953.08 -4.39336 1.61561 0
M  V30 20332 H 1953.25 -5.98998 2.47195 0
M  V30 20333 N 1946.66 -0.393643 -1.52605 0
M  V30 20334 C 1947.9 0.187431 -2.01932 0
M  V30 20335 C 1948.24 1.46098 -1.27942 0
M  V30 20336 O 1947.51 1.90729 -0.381154 0
M  V30 20337 C 1947.79 0.450933 -3.57265 0
M  V30 20338 C 1947.65 -0.838204 -4.41921 0
M  V30 20339 C 1948.97 1.23971 -4.22278 0
M  V30 20340 H 1946.09 0.0666471 -0.73398 0
M  V30 20341 H 1948.73 -0.524064 -1.8263 0
M  V30 20342 H 1946.88 1.05703 -3.73844 0
M  V30 20343 H 1948.55 -1.47492 -4.37086 0
M  V30 20344 H 1946.79 -1.45258 -4.08757 0
M  V30 20345 H 1947.46 -0.608424 -5.48637 0
M  V30 20346 H 1949.94 0.726733 -4.09705 0
M  V30 20347 H 1948.82 1.39283 -5.30935 0
M  V30 20348 H 1949.08 2.25611 -3.802 0
M  V30 20349 N 1948.14 1.57115 -0.123593 0
M  V30 20350 C 1949.05 2.19104 0.838493 0
M  V30 20351 C 1950.06 1.1685 1.28927 0
M  V30 20352 O 1951.24 1.49337 1.35131 0
M  V30 20353 C 1948.3 2.78191 2.06908 0
M  V30 20354 C 1947.36 3.95495 1.66979 0
M  V30 20355 C 1946.6 4.51755 2.84171 0
M  V30 20356 O 1946.82 4.06908 3.99728 0
M  V30 20357 O 1945.75 5.42372 2.60991 0
M  V30 20358 H 1949.58 3.0178 0.340935 0
M  V30 20359 H 1947.16 1.4905 0.102255 0
M  V30 20360 H 1949.05 3.15837 2.78971 0
M  V30 20361 H 1947.72 1.98542 2.55661 0
M  V30 20362 H 1946.63 3.62609 0.920091 0
M  V30 20363 H 1947.96 4.76593 1.22963 0
M  V30 20364 N 1949.61 -0.150187 1.56883 0
M  V30 20365 C 1950.52 -1.20504 2.01286 0
M  V30 20366 C 1951.54 -1.47204 0.927733 0
M  V30 20367 O 1952.72 -1.58937 1.23697 0
M  V30 20368 C 1949.78 -2.51932 2.38184 0
M  V30 20369 C 1948.84 -2.32906 3.60629 0
M  V30 20370 C 1948.07 -3.58067 3.95757 0
M  V30 20371 O 1948.3 -4.64119 3.31587 0
M  V30 20372 O 1947.23 -3.5092 4.89018 0
M  V30 20373 H 1951.06 -0.858075 2.91326 0
M  V30 20374 H 1948.64 -0.358669 1.45031 0
M  V30 20375 H 1950.52 -3.29423 2.6279 0
M  V30 20376 H 1949.2 -2.86165 1.513 0
M  V30 20377 H 1948.11 -1.53377 3.41213 0
M  V30 20378 H 1949.44 -2.0359 4.4812 0
M  V30 20379 N 1951.09 -1.51916 -0.419434 0
M  V30 20380 C 1952.51 -1.4049 -0.757287 0
M  V30 20381 C 1952.71 -0.501274 -1.95165 0
M  V30 20382 O 1951.76 0.0368349 -2.52473 0
M  V30 20383 C 1953.08 -2.8284 -1.02088 0
M  V30 20384 C 1954.63 -2.92113 -1.12422 0
M  V30 20385 C 1955.1 -4.3541 -1.42064 0
M  V30 20386 N 1956.59 -4.38598 -1.4895 0
M  V30 20387 C 1957.33 -5.46524 -1.73492 0
M  V30 20388 N 1956.82 -6.64583 -1.95706 0
M  V30 20389 N 1958.62 -5.34026 -1.75422 0
M  V30 20390 H 1950.77 -2.09207 0.366909 0
M  V30 20391 H 1953.03 -0.942516 0.101822 0
M  V30 20392 H 1952.74 -3.51038 -0.215755 0
M  V30 20393 H 1952.61 -3.23259 -1.9438 0
M  V30 20394 H 1955 -2.24103 -1.91994 0
M  V30 20395 H 1955.08 -2.55167 -0.179896 0
M  V30 20396 H 1954.72 -5.03976 -0.630123 0
M  V30 20397 H 1954.65 -4.69884 -2.37731 0
M  V30 20398 H 1957.14 -3.53491 -1.33614 0
M  V30 20399 H 1957.46 -7.42621 -2.13854 0
M  V30 20400 H 1955.8 -6.67667 -1.92992 0
M  V30 20401 H 1958.99 -4.40773 -1.57598 0
M  V30 20402 H 1959.16 -6.18212 -1.9421 0
M  V30 20403 N 1952.57 0.676023 -1.42365 0
M  V30 20404 C 1953.52 1.78959 -1.45747 0
M  V30 20405 C 1954.49 1.6319 -0.309563 0
M  V30 20406 O 1955.67 1.83761 -0.51346 0
M  V30 20407 C 1952.81 3.16982 -1.36441 0
M  V30 20408 C 1951.93 3.44047 -2.61257 0
M  V30 20409 C 1951.06 4.71791 -2.44103 0
M  V30 20410 C 1950.1 4.91887 -3.64299 0
M  V30 20411 N 1949.24 6.10871 -3.46094 0
M  V30 20412 H 1954.08 1.75403 -2.4091 0
M  V30 20413 H 1951.61 0.856293 -1.19608 0
M  V30 20414 H 1953.57 3.96741 -1.29044 0
M  V30 20415 H 1952.2 3.19666 -0.448744 0
M  V30 20416 H 1951.25 2.58551 -2.79026 0
M  V30 20417 H 1952.57 3.5479 -3.50607 0
M  V30 20418 H 1951.72 5.59639 -2.34285 0
M  V30 20419 H 1950.46 4.63329 -1.52241 0
M  V30 20420 H 1949.46 4.02482 -3.74551 0
M  V30 20421 H 1950.69 5.02195 -4.5714 0
M  V30 20422 H 1948.63 6.03584 -2.56949 0
M  V30 20423 H 1948.55 6.2247 -4.29031 0
M  V30 20424 H 1949.82 7.014 -3.40085 0
M  V30 20425 N 1954.05 1.28517 0.912209 0
M  V30 20426 C 1955.3 1.15532 1.65822 0
M  V30 20427 C 1955.62 -0.296177 1.92738 0
M  V30 20428 O 1954.89 -1.20492 1.54462 0
M  V30 20429 H 1953.47 0.424573 0.614611 0
M  V30 20430 H 1956.13 1.61267 1.09448 0
M  V30 20431 H 1955.23 1.69606 2.61993 0
M  V30 20432 N 1955.53 -1.12086 1.1079 0
M  V30 20433 C 1956.49 -2.16111 0.763446 0
M  V30 20434 C 1957.49 -1.59371 -0.213903 0
M  V30 20435 O 1958.68 -1.74197 0.00972099 0
M  V30 20436 C 1955.81 -3.40646 0.131488 0
M  V30 20437 H 1957 -2.48096 1.68489 0
M  V30 20438 H 1954.56 -1.27156 0.908896 0
M  V30 20439 H 1955.29 -3.14265 -0.800507 0
M  V30 20440 H 1955.08 -3.83108 0.834928 0
M  V30 20441 H 1956.57 -4.17495 -0.0936165 0
M  V30 20442 N 1957 -0.897194 -1.29569 0
M  V30 20443 C 1957.93 -0.389601 -2.30227 0
M  V30 20444 C 1958.92 0.53405 -1.61499 0
M  V30 20445 O 1960.1 0.44531 -1.89025 0
M  V30 20446 C 1957.23 0.385966 -3.45149 0
M  V30 20447 C 1956.18 -0.447028 -4.25659 0
M  V30 20448 C 1955.51 0.455883 -5.32753 0
M  V30 20449 C 1956.81 -1.69562 -4.9401 0
M  V30 20450 H 1958.5 -1.23077 -2.72933 0
M  V30 20451 H 1956.05 -0.593265 -1.31211 0
M  V30 20452 H 1958 0.751791 -4.1464 0
M  V30 20453 H 1956.73 1.26089 -3.01279 0
M  V30 20454 H 1955.39 -0.795152 -3.57873 0
M  V30 20455 H 1955.03 1.32887 -4.85129 0
M  V30 20456 H 1954.73 -0.0977528 -5.87519 0
M  V30 20457 H 1956.26 0.817956 -6.05097 0
M  V30 20458 H 1957.67 -1.39968 -5.55951 0
M  V30 20459 H 1956.07 -2.19039 -5.58697 0
M  V30 20460 H 1957.14 -2.43305 -4.19441 0
M  V30 20461 N 1958.48 1.43142 -0.659413 0
M  V30 20462 C 1959.41 2.33495 0.0147266 0
M  V30 20463 C 1960.39 1.49819 0.805493 0
M  V30 20464 O 1961.58 1.78466 0.765732 0
M  V30 20465 C 1958.71 3.33261 0.977483 0
M  V30 20466 C 1957.66 4.26972 0.296396 0
M  V30 20467 C 1956.99 5.16824 1.37103 0
M  V30 20468 C 1958.29 5.15901 -0.815063 0
M  V30 20469 H 1959.98 2.90115 -0.739837 0
M  V30 20470 H 1957.53 1.39499 -0.357229 0
M  V30 20471 H 1959.48 3.95372 1.45805 0
M  V30 20472 H 1958.21 2.74911 1.76328 0
M  V30 20473 H 1956.86 3.66234 -0.16379 0
M  V30 20474 H 1956.51 4.5481 2.14842 0
M  V30 20475 H 1956.21 5.80345 0.920528 0
M  V30 20476 H 1957.74 5.81809 1.85284 0
M  V30 20477 H 1959.15 5.71786 -0.416382 0
M  V30 20478 H 1957.55 5.88175 -1.19041 0
M  V30 20479 H 1958.62 4.5522 -1.67042 0
M  V30 20480 N 1959.96 0.40173 1.52394 0
M  V30 20481 C 1960.87 -0.434422 2.30543 0
M  V30 20482 C 1961.89 -1.06028 1.37964 0
M  V30 20483 O 1963.06 -1.0634 1.71037 0
M  V30 20484 C 1960.13 -1.53995 3.10623 0
M  V30 20485 C 1959.19 -0.93791 4.18929 0
M  V30 20486 C 1958.42 -1.99075 4.95182 0
M  V30 20487 O 1958.64 -3.20777 4.71655 0
M  V30 20488 O 1957.58 -1.60111 5.80214 0
M  V30 20489 H 1961.4 0.202567 3.03024 0
M  V30 20490 H 1958.99 0.165122 1.48485 0
M  V30 20491 H 1960.87 -2.18191 3.60514 0
M  V30 20492 H 1959.55 -2.16167 2.40943 0
M  V30 20493 H 1958.45 -0.25886 3.73203 0
M  V30 20494 H 1959.79 -0.360217 4.9088 0
M  V30 20495 N 1961.44 -1.57047 0.131923 0
M  V30 20496 C 1962.37 -2.19006 -0.809859 0
M  V30 20497 C 1963.35 -1.13384 -1.26799 0
M  V30 20498 O 1964.53 -1.4167 -1.32827 0
M  V30 20499 C 1961.66 -2.79973 -2.05505 0
M  V30 20500 C 1960.62 -3.9129 -1.73424 0
M  V30 20501 C 1959.94 -4.39123 -3.05081 0
M  V30 20502 C 1961.24 -5.12783 -0.992535 0
M  V30 20503 H 1962.94 -2.97958 -0.293522 0
M  V30 20504 H 1960.48 -1.4332 -0.13974 0
M  V30 20505 H 1962.44 -3.2198 -2.71858 0
M  V30 20506 H 1961.16 -1.9833 -2.59486 0
M  V30 20507 H 1959.82 -3.49879 -1.09456 0
M  V30 20508 H 1959.47 -3.54322 -3.57022 0
M  V30 20509 H 1959.17 -5.14197 -2.84385 0
M  V30 20510 H 1960.69 -4.8379 -3.72531 0
M  V30 20511 H 1962.11 -5.51728 -1.55785 0
M  V30 20512 H 1960.5 -5.93522 -0.886062 0
M  V30 20513 H 1961.57 -4.84896 0.0184538 0
M  V30 20514 N 1962.92 0.141865 -1.5696 0
M  V30 20515 C 1963.85 1.17667 -2.01685 0
M  V30 20516 C 1964.83 1.44509 -0.897282 0
M  V30 20517 O 1966.01 1.55342 -1.16544 0
M  V30 20518 C 1963.14 2.50859 -2.40182 0
M  V30 20519 C 1962.1 2.38527 -3.55371 0
M  V30 20520 C 1961.42 3.76476 -3.79697 0
M  V30 20521 C 1962.72 1.86502 -4.87867 0
M  V30 20522 H 1964.42 0.804761 -2.88382 0
M  V30 20523 H 1961.96 0.385672 -1.38739 0
M  V30 20524 H 1963.92 3.2348 -2.70071 0
M  V30 20525 H 1962.64 2.89895 -1.50428 0
M  V30 20526 H 1961.3 1.68357 -3.25656 0
M  V30 20527 H 1960.95 4.12957 -2.87186 0
M  V30 20528 H 1960.65 3.69085 -4.5722 0
M  V30 20529 H 1962.17 4.50638 -4.12017 0
M  V30 20530 H 1963.58 2.48921 -5.16441 0
M  V30 20531 H 1961.98 1.89989 -5.69231 0
M  V30 20532 H 1963.05 0.821025 -4.77899 0
M  V30 20533 N 1964.39 1.52136 0.411372 0
M  V30 20534 C 1965.34 1.75318 1.50107 0
M  V30 20535 C 1966.31 0.595552 1.55056 0
M  V30 20536 O 1967.5 0.832859 1.71663 0
M  V30 20537 C 1964.64 1.9077 2.87578 0
M  V30 20538 C 1963.75 3.18411 2.91956 0
M  V30 20539 C 1962.88 3.24307 4.20712 0
M  V30 20540 C 1961.92 4.4616 4.19056 0
M  V30 20541 N 1961.06 4.49461 5.39379 0
M  V30 20542 H 1965.9 2.68323 1.29642 0
M  V30 20543 H 1963.44 1.32958 0.629326 0
M  V30 20544 H 1965.4 1.97711 3.67377 0
M  V30 20545 H 1964.03 1.01148 3.06543 0
M  V30 20546 H 1963.08 3.20652 2.04661 0
M  V30 20547 H 1964.39 4.08245 2.86597 0
M  V30 20548 H 1963.54 3.30308 5.08902 0
M  V30 20549 H 1962.28 2.32408 4.28763 0
M  V30 20550 H 1961.29 4.40308 3.29255 0
M  V30 20551 H 1962.51 5.39351 4.12646 0
M  V30 20552 H 1960.46 3.60444 5.48102 0
M  V30 20553 H 1960.38 5.33136 5.36005 0
M  V30 20554 H 1961.64 4.59688 6.29529 0
M  V30 20555 N 1965.87 -0.668464 1.42721 0
M  V30 20556 C 1967.12 -1.42428 1.42819 0
M  V30 20557 C 1967.44 -1.95535 0.0504025 0
M  V30 20558 O 1968.64 -2.71407 -0.0712036 0
M  V30 20559 C 1967.1 -2.57681 2.51254 0
M  V30 20560 C 1966.71 -2.11246 3.95069 0
M  V30 20561 C 1968.45 -3.35151 2.60527 0
M  V30 20562 C 1966.36 -3.23619 4.95 0
M  V30 20563 H 1965.29 -0.535089 0.531221 0
M  V30 20564 H 1967.94 -0.723067 1.68653 0
M  V30 20565 H 1966.32 -3.302 2.18595 0
M  V30 20566 H 1967.49 -1.45838 4.37113 0
M  V30 20567 H 1965.81 -1.46697 3.89704 0
M  V30 20568 H 1968.41 -4.18853 3.32364 0
M  V30 20569 H 1968.75 -3.82166 1.6509 0
M  V30 20570 H 1969.28 -2.69705 2.92411 0
M  V30 20571 H 1966.02 -2.81588 5.91936 0
M  V30 20572 H 1965.54 -3.87788 4.57581 0
M  V30 20573 H 1967.22 -3.88988 5.17008 0
M  V30 20574 N 1967.35 -1.28999 -0.905381 0
M  V30 20575 C 1968.58 -1.19512 -1.68892 0
M  V30 20576 C 1968.99 0.245073 -1.87203 0
M  V30 20577 O 1968.35 1.16474 -1.405 0
M  V30 20578 C 1968.4 -1.89822 -3.07652 0
M  V30 20579 O 1968.12 -3.28217 -2.90181 0
M  V30 20580 C 1969.62 -1.86742 -4.02048 0
M  V30 20581 H 1966.84 -0.414483 -0.527678 0
M  V30 20582 H 1969.39 -1.70271 -1.1326 0
M  V30 20583 H 1967.54 -1.42913 -3.60076 0
M  V30 20584 H 1967.96 -3.63549 -3.78064 0
M  V30 20585 H 1969.43 -2.40512 -4.96848 0
M  V30 20586 H 1969.91 -0.841659 -4.3106 0
M  V30 20587 H 1970.51 -2.33369 -3.55555 0
M  V30 20588 N 1968.83 1.11497 -1.11383 0
M  V30 20589 C 1970.25 1.35232 -0.847616 0
M  V30 20590 C 1970.45 1.9446 0.527973 0
M  V30 20591 O 1969.5 2.17716 1.2789 0
M  V30 20592 C 1970.81 2.28454 -1.95523 0
M  V30 20593 C 1972.36 2.4202 -1.98483 0
M  V30 20594 C 1972.84 3.38563 -3.08446 0
M  V30 20595 N 1974.33 3.46126 -3.07817 0
M  V30 20596 C 1975.06 4.20766 -3.89542 0
M  V30 20597 N 1974.56 4.98388 -4.81229 0
M  V30 20598 N 1976.35 4.16272 -3.77722 0
M  V30 20599 H 1968.5 0.714156 -2.00034 0
M  V30 20600 H 1970.77 0.376936 -0.869841 0
M  V30 20601 H 1970.47 1.92126 -2.94586 0
M  V30 20602 H 1970.35 3.28667 -1.85089 0
M  V30 20603 H 1972.73 2.77623 -1.00047 0
M  V30 20604 H 1972.81 1.4166 -2.12993 0
M  V30 20605 H 1972.46 3.03687 -4.07107 0
M  V30 20606 H 1972.39 4.38776 -2.91176 0
M  V30 20607 H 1974.88 2.90759 -2.41387 0
M  V30 20608 H 1975.19 5.52708 -5.40124 0
M  V30 20609 H 1973.54 4.97551 -4.85251 0
M  V30 20610 H 1976.73 3.54719 -3.05437 0
M  V30 20611 H 1976.9 4.74186 -4.41647 0
M  V30 20612 N 1970.31 0.904053 1.29092 0
M  V30 20613 C 1971.22 0.389825 2.31339 0
M  V30 20614 C 1972.23 -0.517628 1.66122 0
M  V30 20615 O 1973.41 -0.406158 1.97262 0
M  V30 20616 C 1970.47 -0.370468 3.44715 0
M  V30 20617 C 1969.54 0.569032 4.25512 0
M  V30 20618 C 1968.77 -0.155071 5.33475 0
M  V30 20619 O 1968.99 -1.37834 5.53496 0
M  V30 20620 O 1967.93 0.504642 5.99781 0
M  V30 20621 H 1971.75 1.2382 2.77313 0
M  V30 20622 H 1969.34 0.668528 1.33608 0
M  V30 20623 H 1971.22 -0.800237 4.13732 0
M  V30 20624 H 1969.89 -1.19484 3.00841 0
M  V30 20625 H 1968.8 1.048 3.59121 0
M  V30 20626 H 1970.13 1.35994 4.7304 0
M  V30 20627 N 1971.79 -1.4279 0.666995 0
M  V30 20628 C 1973.06 -1.9526 0.11533 0
M  V30 20629 C 1973.44 -1.60776 -1.36801 0
M  V30 20630 O 1972.79 -0.899897 -2.10034 0
M  V30 20631 C 1973 -3.46967 0.376175 0
M  V30 20632 C 1974.35 -4.23619 0.28849 0
M  V30 20633 O 1975.37 -3.54853 0.30949 0
M  V30 20634 O 1974.23 -5.46041 0.223982 0
M  V30 20635 H 1971.33 -0.826998 -0.00165705 0
M  V30 20636 H 1973.87 -1.52658 0.741186 0
M  V30 20637 H 1972.64 -3.65243 1.40404 0
M  V30 20638 H 1972.27 -3.96598 -0.282074 0
M  V30 20639 N 1973.26 -0.409806 -1.52179 0
M  V30 20640 C 1974.49 0.167702 -2.06721 0
M  V30 20641 C 1974.91 1.38034 -1.27782 0
M  V30 20642 O 1974.27 1.7866 -0.308244 0
M  V30 20643 C 1974.32 0.495862 -3.57174 0
M  V30 20644 O 1973.42 1.58675 -3.80652 0
M  V30 20645 H 1972.76 0.013908 -0.663854 0
M  V30 20646 H 1975.29 -0.583201 -1.96112 0
M  V30 20647 H 1975.3 0.754301 -4.00967 0
M  V30 20648 H 1973.98 -0.390588 -4.14062 0
M  V30 20649 H 1972.56 1.32042 -3.48739 0
M  V30 20650 N 1974.74 1.56975 -0.14025 0
M  V30 20651 C 1975.67 2.19432 0.798233 0
M  V30 20652 C 1976.65 1.14055 1.26196 0
M  V30 20653 O 1977.84 1.42373 1.32074 0
M  V30 20654 C 1974.97 2.81059 2.04018 0
M  V30 20655 C 1973.92 3.92204 1.71347 0
M  V30 20656 C 1973.25 4.40735 3.02748 0
M  V30 20657 C 1974.55 5.13302 0.965327 0
M  V30 20658 H 1976.24 2.98109 0.277716 0
M  V30 20659 H 1973.79 1.43392 0.132137 0
M  V30 20660 H 1975.74 3.23417 2.70147 0
M  V30 20661 H 1974.46 1.99703 2.5843 0
M  V30 20662 H 1973.12 3.50454 1.07599 0
M  V30 20663 H 1972.77 3.5621 3.55138 0
M  V30 20664 H 1972.47 5.15698 2.81654 0
M  V30 20665 H 1974 4.85759 3.6996 0
M  V30 20666 H 1975.41 5.52547 1.52857 0
M  V30 20667 H 1973.81 5.93984 0.854574 0
M  V30 20668 H 1974.88 4.8488 -0.0441688 0
M  V30 20669 N 1976.22 -0.133539 1.57033 0
M  V30 20670 C 1977.47 -0.842192 1.83716 0
M  V30 20671 C 1977.79 -1.81092 0.723225 0
M  V30 20672 O 1977.06 -1.94246 -0.254028 0
M  V30 20673 H 1975.64 -0.314004 0.677798 0
M  V30 20674 H 1978.3 -0.124329 1.94503 0
M  V30 20675 H 1977.4 -1.39628 2.79125 0
M  V30 20676 N 1977.7 -1.52352 -0.403298 0
M  V30 20677 C 1978.94 -1.66944 -1.15141 0
M  V30 20678 C 1979.28 -0.401064 -1.90013 0
M  V30 20679 O 1978.55 0.60071 -1.84991 0
M  V30 20680 C 1978.83 -2.89526 -2.14118 0
M  V30 20681 C 1978.69 -4.26428 -1.43104 0
M  V30 20682 C 1980.01 -3.07636 -3.14719 0
M  V30 20683 H 1977.13 -0.607531 -0.417223 0
M  V30 20684 H 1979.77 -1.84919 -0.436447 0
M  V30 20685 H 1977.92 -2.74332 -2.7509 0
M  V30 20686 H 1979.59 -4.53362 -0.852075 0
M  V30 20687 H 1977.83 -4.27563 -0.732965 0
M  V30 20688 H 1978.5 -5.08258 -2.15355 0
M  V30 20689 H 1980.98 -3.21767 -2.63828 0
M  V30 20690 H 1979.86 -3.94909 -3.81232 0
M  V30 20691 H 1980.12 -2.2121 -3.82777 0
M  V30 20692 N 1979.18 0.660885 -1.43074 0
M  V30 20693 C 1980.42 1.42136 -1.45495 0
M  V30 20694 C 1980.78 1.92253 -0.0751598 0
M  V30 20695 O 1980.07 1.68881 0.904973 0
M  V30 20696 C 1980.26 2.6246 -2.42589 0
M  V30 20697 C 1980.09 2.24119 -3.89873 0
M  V30 20698 C 1978.86 2.12811 -4.58301 0
M  V30 20699 C 1981.06 1.84886 -4.79918 0
M  V30 20700 N 1979.04 1.6772 -5.90545 0
M  V30 20701 C 1980.41 1.50819 -6.01376 0
M  V30 20702 C 1982.47 1.72001 -4.67247 0
M  V30 20703 C 1981.17 1.05159 -7.11572 0
M  V30 20704 C 1983.2 1.27746 -5.77438 0
M  V30 20705 C 1982.56 0.946114 -6.98017 0
M  V30 20706 H 1978.66 0.516063 -0.58754 0
M  V30 20707 H 1981.24 0.761285 -1.792 0
M  V30 20708 H 1979.41 3.26138 -2.10924 0
M  V30 20709 H 1981.15 3.29124 -2.35499 0
M  V30 20710 H 1977.9 2.32325 -4.12701 0
M  V30 20711 H 1978.32 1.47558 -6.60724 0
M  V30 20712 H 1982.97 1.9626 -3.74489 0
M  V30 20713 H 1980.68 0.796478 -8.04165 0
M  V30 20714 H 1984.27 1.18277 -5.69651 0
M  V30 20715 H 1983.15 0.608883 -7.81833 0
M  V30 20716 N 1980.65 1.29477 0.898527 0
M  V30 20717 C 1981.56 1.16595 2.03575 0
M  V30 20718 C 1982.58 0.0889285 1.73773 0
M  V30 20719 O 1983.76 0.301228 1.99135 0
M  V30 20720 C 1980.82 0.844745 3.36251 0
M  V30 20721 C 1979.88 2.00573 3.79564 0
M  V30 20722 C 1979.12 1.69975 5.05909 0
M  V30 20723 O 1979.34 0.621246 5.67007 0
M  V30 20724 O 1978.27 2.54809 5.45303 0
M  V30 20725 H 1982.1 2.12098 2.17367 0
M  V30 20726 H 1979.68 1.0894 1.02237 0
M  V30 20727 H 1981.57 0.680229 4.15874 0
M  V30 20728 H 1980.24 -0.080494 3.236 0
M  V30 20729 H 1979.15 2.22549 3.00704 0
M  V30 20730 H 1980.48 2.91221 3.96801 0
M  V30 20731 N 1982.13 -1.10905 1.11972 0
M  V30 20732 C 1983.04 -2.20682 0.796029 0
M  V30 20733 C 1984.06 -1.72689 -0.213158 0
M  V30 20734 O 1985.23 -2.01343 -0.047955 0
M  V30 20735 C 1982.3 -3.45797 0.250055 0
M  V30 20736 C 1981.36 -4.08549 1.31855 0
M  V30 20737 C 1980.59 -5.27692 0.798538 0
M  V30 20738 O 1980.82 -5.69202 -0.369435 0
M  V30 20739 O 1979.75 -5.81174 1.5659 0
M  V30 20740 H 1983.58 -2.50794 1.71278 0
M  V30 20741 H 1981.16 -1.19548 0.896024 0
M  V30 20742 H 1983.04 -4.21371 -0.0497791 0
M  V30 20743 H 1981.72 -3.17324 -0.639327 0
M  V30 20744 H 1980.63 -3.34682 1.67148 0
M  V30 20745 H 1981.96 -4.41215 2.18153 0
M  V30 20746 N 1983.61 -0.910886 -1.2861 0
M  V30 20747 C 1984.56 -0.368294 -2.25006 0
M  V30 20748 C 1985.54 0.517969 -1.52335 0
M  V30 20749 O 1986.74 0.358159 -1.73338 0
M  V30 20750 C 1983.87 0.393096 -3.41042 0
M  V30 20751 C 1982.95 -0.508724 -4.21038 0
M  V30 20752 N 1983.34 -1.62102 -4.79121 0
M  V30 20753 C 1981.64 -0.308578 -4.44931 0
M  V30 20754 C 1982.34 -2.18055 -5.39284 0
M  V30 20755 N 1981.32 -1.47217 -5.23286 0
M  V30 20756 H 1985.12 -1.21781 -2.67482 0
M  V30 20757 H 1982.63 -0.763212 -1.43349 0
M  V30 20758 H 1984.63 0.798636 -4.09179 0
M  V30 20759 H 1983.29 1.23975 -3.00101 0
M  V30 20760 H 1984.3 -2.00364 -4.77572 0
M  V30 20761 H 1980.98 0.49879 -4.1451 0
M  V30 20762 H 1982.37 -3.11606 -5.95274 0
M  V30 20763 N 1985.09 1.42434 -0.674558 0
M  V30 20764 C 1986.34 2.01542 -0.196721 0
M  V30 20765 C 1986.66 1.53331 1.19666 0
M  V30 20766 O 1985.92 0.726066 1.81733 0
M  V30 20767 C 1986.22 3.56948 -0.179695 0
M  V30 20768 C 1985.88 4.2459 -1.51771 0
M  V30 20769 C 1984.55 4.42782 -1.88407 0
M  V30 20770 C 1986.9 4.6271 -2.39893 0
M  V30 20771 C 1984.23 4.96367 -3.12789 0
M  V30 20772 C 1986.58 5.17675 -3.63587 0
M  V30 20773 C 1985.24 5.34081 -4.00392 0
M  V30 20774 H 1984.51 0.737495 -0.0719853 0
M  V30 20775 H 1987.16 1.70622 -0.869495 0
M  V30 20776 H 1985.46 3.87534 0.576588 0
M  V30 20777 H 1987.16 4.00464 0.207226 0
M  V30 20778 H 1983.75 4.10789 -1.22271 0
M  V30 20779 H 1987.93 4.48328 -2.12874 0
M  V30 20780 H 1983.19 5.07254 -3.41326 0
M  V30 20781 H 1987.36 5.46156 -4.32072 0
M  V30 20782 H 1984.99 5.75366 -4.96848 0
M  V30 20783 N 1986.57 0.417871 1.51959 0
M  V30 20784 C 1987.51 -0.403305 2.27249 0
M  V30 20785 C 1988.48 -1.0336 1.30023 0
M  V30 20786 O 1989.67 -1.05621 1.58899 0
M  V30 20787 C 1986.81 -1.50928 3.10346 0
M  V30 20788 C 1985.92 -0.899043 4.22541 0
M  V30 20789 C 1985.06 -1.97844 4.92982 0
M  V30 20790 C 1984.1 -1.3456 5.97126 0
M  V30 20791 N 1983.23 -2.36552 6.6105 0
M  V30 20792 H 1988.07 0.245143 2.9699 0
M  V30 20793 H 1985.61 0.132733 1.465 0
M  V30 20794 H 1987.57 -2.16157 3.56836 0
M  V30 20795 H 1986.2 -2.12763 2.42759 0
M  V30 20796 H 1985.25 -0.135561 3.80158 0
M  V30 20797 H 1986.56 -0.396845 4.97219 0
M  V30 20798 H 1985.72 -2.7078 5.42921 0
M  V30 20799 H 1984.45 -2.51432 4.17892 0
M  V30 20800 H 1983.46 -0.601616 5.46499 0
M  V30 20801 H 1984.68 -0.817308 6.74164 0
M  V30 20802 H 1982.63 -2.89256 5.88784 0
M  V30 20803 H 1982.55 -1.91169 7.3143 0
M  V30 20804 H 1983.82 -3.09031 7.15626 0
M  V30 20805 N 1988.04 -1.56898 0.148573 0
M  V30 20806 C 1989.27 -2.0054 -0.509047 0
M  V30 20807 C 1989.69 -1.02867 -1.58315 0
M  V30 20808 O 1989.04 -0.0259297 -1.82482 0
M  V30 20809 C 1989.1 -3.44093 -1.10825 0
M  V30 20810 O 1988.82 -4.38032 -0.077048 0
M  V30 20811 C 1990.32 -4.03021 -1.84633 0
M  V30 20812 H 1987.54 -0.657812 -0.132378 0
M  V30 20813 H 1990.08 -2.03044 0.243618 0
M  V30 20814 H 1988.24 -3.42436 -1.81153 0
M  V30 20815 H 1988.65 -5.21953 -0.516256 0
M  V30 20816 H 1990.12 -5.05458 -2.21847 0
M  V30 20817 H 1990.6 -3.43821 -2.73283 0
M  V30 20818 H 1991.21 -4.08313 -1.19 0
M  V30 20819 N 1989.52 0.125209 -1.57102 0
M  V30 20820 C 1990.77 0.832627 -1.83712 0
M  V30 20821 C 1991.08 1.81336 -0.733261 0
M  V30 20822 O 1992.29 2.56651 -0.885592 0
M  V30 20823 C 1990.75 1.53143 -3.25692 0
M  V30 20824 C 1990.35 0.592004 -4.44071 0
M  V30 20825 C 1992.1 2.22435 -3.61556 0
M  V30 20826 C 1990.01 1.29368 -5.77077 0
M  V30 20827 H 1988.94 0.314685 -0.685193 0
M  V30 20828 H 1991.59 0.0853544 -1.83301 0
M  V30 20829 H 1989.97 2.32511 -3.20554 0
M  V30 20830 H 1991.14 -0.16801 -4.60494 0
M  V30 20831 H 1989.46 0.00637692 -4.164 0
M  V30 20832 H 1992.05 2.75611 -4.58195 0
M  V30 20833 H 1992.4 2.99947 -2.88683 0
M  V30 20834 H 1992.93 1.49962 -3.68451 0
M  V30 20835 H 1989.67 0.559975 -6.53104 0
M  V30 20836 H 1989.19 2.02586 -5.64552 0
M  V30 20837 H 1990.87 1.8286 -6.20622 0
M  V30 20838 N 1991 1.52564 0.395213 0
M  V30 20839 C 1991.93 1.79867 1.48897 0
M  V30 20840 C 1992.91 0.650351 1.57176 0
M  V30 20841 O 1994.1 0.897328 1.72226 0
M  V30 20842 C 1991.23 1.96192 2.86576 0
M  V30 20843 C 1990.18 3.11854 2.9314 0
M  V30 20844 C 1989.51 3.13424 4.33208 0
M  V30 20845 C 1990.81 4.51046 2.63353 0
M  V30 20846 H 1992.5 2.71457 1.26299 0
M  V30 20847 H 1990.05 1.30621 0.606145 0
M  V30 20848 H 1992 2.13875 3.63091 0
M  V30 20849 H 1990.72 1.01286 3.10498 0
M  V30 20850 H 1989.38 2.93944 2.19072 0
M  V30 20851 H 1989.03 2.16212 4.5416 0
M  V30 20852 H 1988.73 3.91117 4.38522 0
M  V30 20853 H 1990.25 3.33254 5.11639 0
M  V30 20854 H 1991.67 4.6909 3.29587 0
M  V30 20855 H 1990.07 5.3076 2.80024 0
M  V30 20856 H 1991.14 4.58187 1.58722 0
M  V30 20857 N 1992.48 -0.653289 1.43422 0
M  V30 20858 C 1993.41 -1.77779 1.51383 0
M  V30 20859 C 1994.39 -1.6606 0.368515 0
M  V30 20860 O 1995.57 -1.85157 0.585721 0
M  V30 20861 C 1992.7 -3.16206 1.43635 0
M  V30 20862 C 1991.66 -3.42688 2.56415 0
M  V30 20863 C 1990.98 -4.80915 2.3372 0
M  V30 20864 C 1992.28 -3.3744 3.98662 0
M  V30 20865 H 1993.98 -1.71374 2.45502 0
M  V30 20866 H 1991.52 -0.823062 1.1816 0
M  V30 20867 H 1993.48 -3.94627 1.47808 0
M  V30 20868 H 1992.2 -3.23341 0.460202 0
M  V30 20869 H 1990.86 -2.66638 2.51594 0
M  V30 20870 H 1990.51 -4.84726 1.34349 0
M  V30 20871 H 1990.21 -4.99594 3.09321 0
M  V30 20872 H 1991.73 -5.61594 2.39677 0
M  V30 20873 H 1993.15 -4.05798 4.0497 0
M  V30 20874 H 1991.54 -3.67656 4.74288 0
M  V30 20875 H 1992.61 -2.35624 4.23803 0
M  V30 20876 N 1993.96 -1.29952 -0.891648 0
M  V30 20877 C 1994.89 -1.18331 -2.01296 0
M  V30 20878 C 1995.87 -0.0755571 -1.69932 0
M  V30 20879 O 1997.05 -0.256435 -1.92499 0
M  V30 20880 C 1994.18 -0.867421 -3.36293 0
M  V30 20881 C 1993.14 -1.93237 -3.81894 0
M  V30 20882 C 1992.46 -1.46962 -5.14107 0
M  V30 20883 C 1993.76 -3.34246 -4.01344 0
M  V30 20884 H 1995.46 -2.12138 -2.11276 0
M  V30 20885 H 1993 -1.02132 -1.01514 0
M  V30 20886 H 1994.96 -0.772806 -4.14253 0
M  V30 20887 H 1993.68 0.106342 -3.26427 0
M  V30 20888 H 1992.34 -2.01651 -3.06157 0
M  V30 20889 H 1991.99 -0.484311 -5.00663 0
M  V30 20890 H 1991.69 -2.1819 -5.45589 0
M  V30 20891 H 1993.21 -1.38866 -5.94599 0
M  V30 20892 H 1994.62 -3.28629 -4.69762 0
M  V30 20893 H 1993.02 -4.03502 -4.44192 0
M  V30 20894 H 1994.09 -3.76629 -3.05415 0
M  V30 20895 N 1995.44 1.1031 -1.12559 0
M  V30 20896 C 1996.37 2.18738 -0.817073 0
M  V30 20897 C 1997.35 1.68675 0.219681 0
M  V30 20898 O 1998.53 1.94033 0.0805889 0
M  V30 20899 C 1995.66 3.46231 -0.272317 0
M  V30 20900 C 1994.62 4.09575 -1.24228 0
M  V30 20901 C 1993.94 5.31784 -0.557693 0
M  V30 20902 C 1995.24 4.53135 -2.59743 0
M  V30 20903 H 1996.94 2.44802 -1.72372 0
M  V30 20904 H 1994.48 1.17658 -0.830221 0
M  V30 20905 H 1996.43 4.21377 -0.0442049 0
M  V30 20906 H 1995.16 3.19661 0.669677 0
M  V30 20907 H 1993.82 3.36437 -1.45622 0
M  V30 20908 H 1993.47 5.0149 0.389484 0
M  V30 20909 H 1993.17 5.75117 -1.20473 0
M  V30 20910 H 1994.69 6.0966 -0.338649 0
M  V30 20911 H 1996.1 5.19548 -2.42369 0
M  V30 20912 H 1994.5 5.07322 -3.20537 0
M  V30 20913 H 1995.57 3.65989 -3.18088 0
M  V30 20914 N 1996.91 0.917694 1.28125 0
M  V30 20915 C 1997.84 0.426179 2.29578 0
M  V30 20916 C 1998.82 -0.508289 1.62328 0
M  V30 20917 O 2000.01 -0.415181 1.8971 0
M  V30 20918 C 1997.14 -0.331007 3.45719 0
M  V30 20919 C 1996.09 0.51469 4.24894 0
M  V30 20920 C 1995.42 -0.371069 5.33411 0
M  V30 20921 C 1996.72 1.774 4.9125 0
M  V30 20922 H 1998.41 1.27403 2.7094 0
M  V30 20923 H 1995.96 0.614065 1.30251 0
M  V30 20924 H 1997.91 -0.68573 4.15783 0
M  V30 20925 H 1996.64 -1.2128 3.03247 0
M  V30 20926 H 1995.3 0.851986 3.56562 0
M  V30 20927 H 1994.94 -1.25152 4.87182 0
M  V30 20928 H 1994.64 0.19121 5.87289 0
M  V30 20929 H 1996.17 -0.721587 6.06321 0
M  V30 20930 H 1997.58 1.48795 5.53654 0
M  V30 20931 H 1995.98 2.27899 5.55141 0
M  V30 20932 H 1997.05 2.49947 4.15517 0
M  V30 20933 N 1998.39 -1.42074 0.682102 0
M  V30 20934 C 1999.3 -2.34598 0.00845226 0
M  V30 20935 C 2000.32 -1.55494 -0.780873 0
M  V30 20936 O 2001.49 -1.88032 -0.721524 0
M  V30 20937 C 1998.56 -3.34103 -0.926085 0
M  V30 20938 C 1997.62 -4.29102 -0.130475 0
M  V30 20939 C 1996.85 -5.23853 -1.0205 0
M  V30 20940 O 1997.08 -5.23716 -2.26004 0
M  V30 20941 O 1996.01 -6.00004 -0.47739 0
M  V30 20942 H 1999.84 -2.93756 0.770779 0
M  V30 20943 H 1997.42 -1.42701 0.442368 0
M  V30 20944 H 1999.3 -3.95212 -1.46236 0
M  V30 20945 H 1997.98 -2.77408 -1.66814 0
M  V30 20946 H 1996.88 -3.71383 0.450082 0
M  V30 20947 H 1998.22 -4.88858 0.57262 0
M  V30 20948 N 1999.87 -0.425924 -1.51735 0
M  V30 20949 C 2001.1 0.143351 -2.06403 0
M  V30 20950 C 2001.51 1.37439 -1.29445 0
M  V30 20951 O 2000.87 1.79096 -0.350858 0
M  V30 20952 C 2000.92 0.477017 -3.58339 0
M  V30 20953 O 2000.64 -0.705148 -4.32388 0
M  V30 20954 C 2002.14 1.09821 -4.29481 0
M  V30 20955 H 1999.36 0.0129769 -0.670875 0
M  V30 20956 H 2001.91 -0.601719 -1.95447 0
M  V30 20957 H 2000.06 1.17198 -3.69247 0
M  V30 20958 H 2000.48 -0.422599 -5.22795 0
M  V30 20959 H 2001.95 1.28175 -5.36913 0
M  V30 20960 H 2002.43 2.07605 -3.87036 0
M  V30 20961 H 2003.03 0.442957 -4.22987 0
M  V30 20962 N 2001.35 1.56817 -0.156891 0
M  V30 20963 C 2002.28 2.20266 0.774915 0
M  V30 20964 C 2003.26 1.15387 1.24979 0
M  V30 20965 O 2004.44 1.43766 1.30557 0
M  V30 20966 C 2001.57 2.83207 2.01025 0
M  V30 20967 C 2000.53 3.94 1.67177 0
M  V30 20968 C 1999.85 4.43921 2.98057 0
M  V30 20969 C 2001.15 5.14297 0.91083 0
M  V30 20970 H 2002.85 2.98387 0.246082 0
M  V30 20971 H 2000.39 1.43525 0.116921 0
M  V30 20972 H 2002.35 3.26264 2.66701 0
M  V30 20973 H 2001.07 2.02433 2.56298 0
M  V30 20974 H 1999.73 3.51576 1.03876 0
M  V30 20975 H 1999.38 3.59957 3.5134 0
M  V30 20976 H 1999.08 5.18657 2.76169 0
M  V30 20977 H 2000.6 4.89656 3.64787 0
M  V30 20978 H 2002.02 5.54137 1.46988 0
M  V30 20979 H 2000.41 5.94857 0.791526 0
M  V30 20980 H 2001.48 4.84806 -0.0955943 0
M  V30 20981 N 2002.83 -0.116876 1.57166 0
M  V30 20982 C 2004.07 -0.822659 1.84599 0
M  V30 20983 C 2004.39 -1.80315 0.742392 0
M  V30 20984 O 2003.66 -1.94505 -0.233411 0
M  V30 20985 H 2002.24 -0.306797 0.681091 0
M  V30 20986 H 2004.91 -0.103693 1.94624 0
M  V30 20987 H 2004 -1.36659 2.8059 0
M  V30 20988 N 2004.3 -1.52772 -0.387116 0
M  V30 20989 C 2005.58 -1.5849 -1.14631 0
M  V30 20990 C 2005.96 -0.379228 -2.07666 0
M  V30 20991 O 2005.31 0.632297 -2.19577 0
M  V30 20992 C 2005.52 -2.92465 -1.90434 0
M  V30 20993 C 2006.87 -3.46269 -2.45729 0
M  V30 20994 O 2007.89 -2.94352 -2.00588 0
M  V30 20995 O 2006.75 -4.3698 -3.28193 0
M  V30 20996 H 2003.84 -0.639307 -0.52461 0
M  V30 20997 H 2006.39 -1.65108 -0.392117 0
M  V30 20998 H 2005.16 -3.7166 -1.22411 0
M  V30 20999 H 2004.78 -2.89241 -2.7281 0
M  V30 21000 N 2005.78 0.645673 -1.43767 0
M  V30 21001 C 2006.73 1.75828 -1.4951 0
M  V30 21002 C 2007.7 1.62496 -0.344109 0
M  V30 21003 O 2008.88 1.82631 -0.552323 0
M  V30 21004 C 2006.02 3.14017 -1.43134 0
M  V30 21005 C 2005.14 3.38428 -2.68496 0
M  V30 21006 C 2004.27 4.66507 -2.54056 0
M  V30 21007 C 2003.31 4.84049 -3.74651 0
M  V30 21008 N 2002.45 6.03392 -3.58974 0
M  V30 21009 H 2007.29 1.70254 -2.44576 0
M  V30 21010 H 2004.82 0.830729 -1.21397 0
M  V30 21011 H 2006.78 3.93915 -1.37431 0
M  V30 21012 H 2005.41 3.18642 -0.516449 0
M  V30 21013 H 2004.46 2.52574 -2.84448 0
M  V30 21014 H 2005.78 3.47274 -3.58054 0
M  V30 21015 H 2004.93 5.54543 -2.46103 0
M  V30 21016 H 2003.67 4.59996 -1.62035 0
M  V30 21017 H 2002.67 3.94447 -3.83004 0
M  V30 21018 H 2003.9 4.92385 -4.67689 0
M  V30 21019 H 2001.85 5.97998 -2.69694 0
M  V30 21020 H 2001.76 6.13229 -4.42138 0
M  V30 21021 H 2003.03 6.94029 -3.54887 0
M  V30 21022 N 2007.26 1.30423 0.884744 0
M  V30 21023 C 2008.54 1.09917 1.61795 0
M  V30 21024 C 2008.92 -0.351448 2.08154 0
M  V30 21025 O 2008.26 -1.34299 1.84868 0
M  V30 21026 C 2008.47 2.10024 2.78731 0
M  V30 21027 C 2009.82 2.41754 3.49056 0
M  V30 21028 O 2010.85 2.08336 2.8892 0
M  V30 21029 O 2009.71 2.98918 4.57505 0
M  V30 21030 H 2006.8 0.422163 0.711131 0
M  V30 21031 H 2009.35 1.41849 0.9315 0
M  V30 21032 H 2008.12 3.07665 2.41781 0
M  V30 21033 H 2007.74 1.7891 3.55073 0
M  V30 21034 N 2008.74 -1.09711 1.13142 0
M  V30 21035 C 2009.69 -2.14427 0.774935 0
M  V30 21036 C 2010.67 -1.59253 -0.229633 0
M  V30 21037 O 2011.86 -1.76967 -0.0339935 0
M  V30 21038 C 2008.99 -3.42464 0.239406 0
M  V30 21039 C 2008.08 -4.04553 1.27271 0
M  V30 21040 N 2008.47 -4.41238 2.4727 0
M  V30 21041 C 2006.77 -4.31713 1.11981 0
M  V30 21042 C 2007.47 -4.90112 3.13313 0
M  V30 21043 N 2006.44 -4.87385 2.40742 0
M  V30 21044 H 2010.25 -2.40592 1.68798 0
M  V30 21045 H 2007.76 -1.26909 1.0133 0
M  V30 21046 H 2009.76 -4.16886 -0.0342127 0
M  V30 21047 H 2008.42 -3.17754 -0.667996 0
M  V30 21048 H 2009.43 -4.32694 2.84598 0
M  V30 21049 H 2006.11 -4.16624 0.270323 0
M  V30 21050 H 2007.5 -5.27985 4.1555 0
M  V30 21051 N 2010.22 -0.924476 -1.27637 0
M  V30 21052 C 2011.44 -0.57884 -1.99159 0
M  V30 21053 C 2011.87 0.83532 -1.68535 0
M  V30 21054 O 2011.22 1.55999 -0.92379 0
M  V30 21055 C 2011.27 -0.807508 -3.51442 0
M  V30 21056 O 2010.38 0.128443 -4.122 0
M  V30 21057 H 2009.72 -0.223218 -0.625356 0
M  V30 21058 H 2012.25 -1.24285 -1.62525 0
M  V30 21059 H 2012.26 -0.721808 -4.01564 0
M  V30 21060 H 2010.93 -1.83836 -3.73064 0
M  V30 21061 H 2009.51 -0.00689785 -3.72899 0
M  V30 21062 N 2011.69 1.41711 -0.689627 0
M  V30 21063 C 2012.94 2.00548 -0.215219 0
M  V30 21064 C 2013.26 1.55228 1.19011 0
M  V30 21065 O 2014.46 2.06585 1.76167 0
M  V30 21066 C 2012.92 3.58348 -0.333888 0
M  V30 21067 C 2012.53 4.12652 -1.74421 0
M  V30 21068 C 2014.27 4.24423 0.0810486 0
M  V30 21069 C 2012.18 5.62865 -1.81485 0
M  V30 21070 H 2011.11 0.750088 -0.0767043 0
M  V30 21071 H 2013.76 1.6226 -0.856963 0
M  V30 21072 H 2012.14 3.94211 0.376004 0
M  V30 21073 H 2013.31 3.8822 -2.48238 0
M  V30 21074 H 2011.63 3.59082 -2.1083 0
M  V30 21075 H 2014.23 5.34678 0.0486243 0
M  V30 21076 H 2014.57 4.00984 1.1188 0
M  V30 21077 H 2015.1 3.93573 -0.578357 0
M  V30 21078 H 2011.84 5.91122 -2.83292 0
M  V30 21079 H 2011.36 5.89242 -1.12044 0
M  V30 21080 H 2013.04 6.27536 -1.57503 0
M  V30 21081 N 2013.17 0.433965 1.51507 0
M  V30 21082 C 2014.59 0.0860823 1.59368 0
M  V30 21083 C 2014.79 -1.40421 1.44513 0
M  V30 21084 O 2013.84 -2.17377 1.28465 0
M  V30 21085 C 2015.16 0.603181 2.94588 0
M  V30 21086 C 2016.71 0.563326 3.07889 0
M  V30 21087 C 2017.18 1.05734 4.45628 0
M  V30 21088 N 2018.67 1.01519 4.51938 0
M  V30 21089 C 2019.41 1.36835 5.56834 0
M  V30 21090 N 2018.9 1.79419 6.69164 0
M  V30 21091 N 2020.7 1.28673 5.47174 0
M  V30 21092 H 2012.85 1.40366 1.59408 0
M  V30 21093 H 2015.11 0.578206 0.751253 0
M  V30 21094 H 2014.82 1.64576 3.10818 0
M  V30 21095 H 2014.69 0.0262621 3.77191 0
M  V30 21096 H 2017.08 -0.470257 2.91329 0
M  V30 21097 H 2017.16 1.17661 2.27134 0
M  V30 21098 H 2016.8 2.08938 4.62934 0
M  V30 21099 H 2016.73 0.420634 5.24917 0
M  V30 21100 H 2019.22 0.702422 3.71314 0
M  V30 21101 H 2019.54 2.04612 7.45221 0
M  V30 21102 H 2017.88 1.83343 6.70381 0
M  V30 21103 H 2021.07 0.952726 4.58302 0
M  V30 21104 H 2021.24 1.56524 6.28812 0
M  V30 21105 N 2014.65 -1.56732 0.165206 0
M  V30 21106 C 2015.61 -2.1646 -0.753498 0
M  V30 21107 C 2016.61 -1.11106 -1.16241 0
M  V30 21108 O 2017.8 -1.36652 -1.08037 0
M  V30 21109 C 2014.94 -2.7425 -2.02483 0
M  V30 21110 H 2016.13 -2.98989 -0.233629 0
M  V30 21111 H 2013.68 -1.56072 -0.0843317 0
M  V30 21112 H 2014.42 -1.95439 -2.58794 0
M  V30 21113 H 2014.2 -3.51345 -1.74065 0
M  V30 21114 H 2015.69 -3.20209 -2.6806 0
M  V30 21115 N 2016.13 0.10854 -1.57226 0
M  V30 21116 C 2017.06 1.13362 -2.04135 0
M  V30 21117 C 2018.04 1.42573 -0.927733 0
M  V30 21118 O 2019.22 1.52835 -1.19813 0
M  V30 21119 C 2016.35 2.45708 -2.45449 0
M  V30 21120 C 2015.31 2.30935 -3.60351 0
M  V30 21121 C 2014.63 3.68337 -3.87597 0
M  V30 21122 C 2015.93 1.76112 -4.91713 0
M  V30 21123 H 2017.63 0.74341 -2.90024 0
M  V30 21124 H 2015.17 0.356157 -1.39526 0
M  V30 21125 H 2017.13 3.17679 -2.76872 0
M  V30 21126 H 2015.85 2.86639 -1.56544 0
M  V30 21127 H 2014.51 1.61411 -3.29153 0
M  V30 21128 H 2014.16 4.06772 -2.95881 0
M  V30 21129 H 2013.86 3.59303 -4.64946 0
M  V30 21130 H 2015.38 4.41797 -4.21483 0
M  V30 21131 H 2016.8 2.3791 -5.21605 0
M  V30 21132 H 2015.19 1.77872 -5.73133 0
M  V30 21133 H 2016.26 0.71947 -4.79533 0
M  V30 21134 N 2017.61 1.52975 0.379009 0
M  V30 21135 C 2018.57 1.77806 1.4463 0
M  V30 21136 C 2019.57 0.648223 1.47155 0
M  V30 21137 O 2020.76 0.916347 1.48151 0
M  V30 21138 C 2017.89 1.88792 2.83849 0
M  V30 21139 H 2019.08 2.73113 1.23892 0
M  V30 21140 H 2016.64 1.43848 0.61135 0
M  V30 21141 H 2017.37 0.955049 3.09918 0
M  V30 21142 H 2017.16 2.70957 2.83416 0
M  V30 21143 H 2018.65 2.09642 3.61165 0
M  V30 21144 N 2019.08 -0.63804 1.44107 0
M  V30 21145 C 2020.01 -1.76164 1.5326 0
M  V30 21146 C 2021 -1.6566 0.386107 0
M  V30 21147 O 2022.18 -1.84525 0.605326 0
M  V30 21148 C 2019.31 -3.14665 1.4698 0
M  V30 21149 C 2018.26 -3.39949 2.60035 0
M  V30 21150 C 2017.59 -4.78409 2.38808 0
M  V30 21151 C 2018.89 -3.33193 4.02219 0
M  V30 21152 H 2020.58 -1.6876 2.47306 0
M  V30 21153 H 2018.13 -0.810483 1.19026 0
M  V30 21154 H 2020.08 -3.93037 1.51986 0
M  V30 21155 H 2018.81 -3.22835 0.494471 0
M  V30 21156 H 2017.47 -2.63955 2.54408 0
M  V30 21157 H 2017.11 -4.83274 1.39483 0
M  V30 21158 H 2016.81 -4.96285 3.14602 0
M  V30 21159 H 2018.34 -5.5902 2.4562 0
M  V30 21160 H 2019.75 -4.0148 4.09252 0
M  V30 21161 H 2018.15 -3.62605 4.78161 0
M  V30 21162 H 2019.22 -2.31116 4.26279 0
M  V30 21163 N 2020.56 -1.3089 -0.877815 0
M  V30 21164 C 2021.98 -1.09377 -1.16228 0
M  V30 21165 C 2022.18 0.140854 -2.01007 0
M  V30 21166 O 2021.23 0.83243 -2.38384 0
M  V30 21167 C 2022.55 -2.36114 -1.86201 0
M  V30 21168 C 2024.1 -2.41648 -1.98936 0
M  V30 21169 C 2024.57 -3.68245 -2.72322 0
M  V30 21170 N 2026.06 -3.69094 -2.79863 0
M  V30 21171 C 2026.8 -4.63743 -3.37239 0
M  V30 21172 N 2026.29 -5.68741 -3.95607 0
M  V30 21173 N 2028.09 -4.51275 -3.35122 0
M  V30 21174 H 2020.24 -2.10086 -0.312693 0
M  V30 21175 H 2022.5 -0.926425 -0.201101 0
M  V30 21176 H 2022.21 -3.26251 -1.31352 0
M  V30 21177 H 2022.08 -2.45311 -2.86535 0
M  V30 21178 H 2024.47 -1.51985 -2.52952 0
M  V30 21179 H 2024.55 -2.36421 -0.976675 0
M  V30 21180 H 2024.19 -4.58271 -2.18976 0
M  V30 21181 H 2024.12 -3.70736 -3.73982 0
M  V30 21182 H 2026.61 -2.93189 -2.3843 0
M  V30 21183 H 2026.93 -6.37052 -4.37475 0
M  V30 21184 H 2025.27 -5.72525 -3.94006 0
M  V30 21185 H 2028.46 -3.68426 -2.88755 0
M  V30 21186 H 2028.63 -5.25217 -3.7954 0
M  V30 21187 N 2022.04 1.0911 -1.13723 0
M  V30 21188 C 2023.29 1.81621 -0.902319 0
M  V30 21189 C 2023.62 1.85646 0.570009 0
M  V30 21190 O 2022.89 1.32706 1.42195 0
M  V30 21191 C 2023.18 3.27604 -1.49492 0
M  V30 21192 C 2023.03 3.3183 -3.03659 0
M  V30 21193 C 2024.35 4.24378 -1.16581 0
M  V30 21194 H 2021.47 0.659374 -0.329233 0
M  V30 21195 H 2024.11 1.27792 -1.40603 0
M  V30 21196 H 2022.26 3.73574 -1.06653 0
M  V30 21197 H 2023.93 2.94239 -3.55276 0
M  V30 21198 H 2022.18 2.71317 -3.38481 0
M  V30 21199 H 2022.85 4.34686 -3.40224 0
M  V30 21200 H 2025.32 3.8671 -1.53604 0
M  V30 21201 H 2024.2 5.24853 -1.60688 0
M  V30 21202 H 2024.46 4.42028 -0.0800013 0
M  V30 21203 N 2023.52 0.931232 1.27145 0
M  V30 21204 C 2024.45 0.450505 2.29113 0
M  V30 21205 C 2025.43 -0.491043 1.62858 0
M  V30 21206 O 2026.61 -0.395036 1.9014 0
M  V30 21207 C 2023.74 -0.29432 3.46051 0
M  V30 21208 C 2022.7 0.559727 4.24324 0
M  V30 21209 C 2022.02 -0.314473 5.33774 0
M  V30 21210 C 2023.32 1.826 4.89341 0
M  V30 21211 H 2025.02 1.3027 2.69574 0
M  V30 21212 H 2022.56 0.627845 1.29592 0
M  V30 21213 H 2024.52 -0.641592 4.16487 0
M  V30 21214 H 2023.24 -1.18057 3.04516 0
M  V30 21215 H 2021.9 0.889756 3.55639 0
M  V30 21216 H 2021.55 -1.19978 4.88482 0
M  V30 21217 H 2021.25 0.253489 5.87053 0
M  V30 21218 H 2022.77 -0.657238 6.07053 0
M  V30 21219 H 2024.19 1.54659 5.52045 0
M  V30 21220 H 2022.58 2.33775 5.52693 0
M  V30 21221 H 2023.65 2.5434 4.12842 0
M  V30 21222 N 2025 -1.41343 0.697132 0
M  V30 21223 C 2026.41 -1.5528 0.368838 0
M  V30 21224 C 2026.61 -1.67234 -1.12406 0
M  V30 21225 O 2025.67 -1.65163 -1.90991 0
M  V30 21226 C 2026.98 -2.79114 1.11873 0
M  V30 21227 C 2028.53 -2.92913 1.10323 0
M  V30 21228 C 2029.01 -4.19637 1.83491 0
M  V30 21229 N 2030.5 -4.26598 1.80468 0
M  V30 21230 C 2031.23 -5.23516 2.33919 0
M  V30 21231 N 2030.73 -6.26455 2.95849 0
M  V30 21232 N 2032.52 -5.15467 2.24166 0
M  V30 21233 H 2024.67 -1.31829 1.66538 0
M  V30 21234 H 2026.93 -0.636129 0.702882 0
M  V30 21235 H 2026.64 -2.76496 2.17354 0
M  V30 21236 H 2026.51 -3.70679 0.69833 0
M  V30 21237 H 2028.9 -2.95046 0.0566834 0
M  V30 21238 H 2028.98 -2.02517 1.56271 0
M  V30 21239 H 2028.63 -4.18265 2.88126 0
M  V30 21240 H 2028.56 -5.09008 1.34976 0
M  V30 21241 H 2031.05 -3.52842 1.35318 0
M  V30 21242 H 2031.36 -6.96801 3.34198 0
M  V30 21243 H 2029.71 -6.26952 2.99927 0
M  V30 21244 H 2032.9 -4.33973 1.75456 0
M  V30 21245 H 2033.07 -5.90831 2.66126 0
M  V30 21246 N 2026.48 -0.441993 -1.51275 0
M  V30 21247 C 2027.39 0.373145 -2.31613 0
M  V30 21248 C 2028.4 1.02333 -1.40726 0
M  V30 21249 O 2029.58 1.01768 -1.73796 0
M  V30 21250 C 2026.64 1.45705 -3.14597 0
M  V30 21251 C 2025.7 0.826508 -4.21269 0
M  V30 21252 C 2024.94 1.85876 -5.00286 0
M  V30 21253 O 2025.16 3.08159 -4.79994 0
M  V30 21254 O 2024.09 1.44671 -5.84255 0
M  V30 21255 H 2027.92 -0.282837 -3.0238 0
M  V30 21256 H 2025.5 -0.204432 -1.47995 0
M  V30 21257 H 2027.39 2.08556 -3.66172 0
M  V30 21258 H 2026.06 2.09703 -2.46589 0
M  V30 21259 H 2024.97 0.15982 -3.73758 0
M  V30 21260 H 2026.3 0.229942 -4.91663 0
M  V30 21261 N 2027.95 1.56642 -0.173515 0
M  V30 21262 C 2029.2 1.96124 0.470974 0
M  V30 21263 C 2029.52 1.06229 1.6424 0
M  V30 21264 O 2030.72 1.35402 2.35327 0
M  V30 21265 C 2029.18 3.4874 0.889284 0
M  V30 21266 C 2028.79 4.47264 -0.256662 0
M  V30 21267 C 2030.53 3.97037 1.50207 0
M  V30 21268 C 2028.44 5.91122 0.181401 0
M  V30 21269 H 2027.37 0.732267 0.179724 0
M  V30 21270 H 2030.02 1.81619 -0.262096 0
M  V30 21271 H 2028.4 3.58672 1.6784 0
M  V30 21272 H 2029.57 4.49049 -1.03401 0
M  V30 21273 H 2027.89 4.09038 -0.779546 0
M  V30 21274 H 2030.49 5.01974 1.8419 0
M  V30 21275 H 2030.83 3.401 2.40078 0
M  V30 21276 H 2031.36 3.90131 0.777351 0
M  V30 21277 H 2028.1 6.51936 -0.682591 0
M  V30 21278 H 2027.62 5.92639 0.924063 0
M  V30 21279 H 2029.3 6.43979 0.624532 0
M  V30 21280 N 2029.43 -0.1002 1.57281 0
M  V30 21281 C 2030.36 -1.12278 2.04734 0
M  V30 21282 C 2031.34 -1.42079 0.935281 0
M  V30 21283 O 2032.53 -1.52197 1.20622 0
M  V30 21284 C 2029.66 -2.44402 2.46748 0
M  V30 21285 C 2028.61 -2.29021 3.61571 0
M  V30 21286 C 2027.94 -3.66276 3.89545 0
M  V30 21287 C 2029.24 -1.73501 4.9264 0
M  V30 21288 H 2030.93 -0.728019 2.90414 0
M  V30 21289 H 2028.48 -0.348753 1.39713 0
M  V30 21290 H 2030.43 -3.16206 2.78553 0
M  V30 21291 H 2029.15 -2.85804 1.58061 0
M  V30 21292 H 2027.81 -1.59664 3.30005 0
M  V30 21293 H 2027.46 -4.05197 2.98034 0
M  V30 21294 H 2027.16 -3.56833 4.66845 0
M  V30 21295 H 2028.69 -4.39555 4.2382 0
M  V30 21296 H 2030.1 -2.35141 5.22859 0
M  V30 21297 H 2028.5 -1.7483 5.74068 0
M  V30 21298 H 2029.57 -0.69403 4.79908 0
M  V30 21299 N 2030.91 -1.53174 -0.370891 0
M  V30 21300 C 2032.33 -1.42828 -0.712207 0
M  V30 21301 C 2032.53 -0.563111 -1.93472 0
M  V30 21302 O 2031.58 -0.0435062 -2.52463 0
M  V30 21303 C 2032.89 -2.85945 -0.930375 0
M  V30 21304 C 2034.44 -2.95542 -1.03072 0
M  V30 21305 C 2034.92 -4.39709 -1.28139 0
M  V30 21306 N 2036.41 -4.43115 -1.34921 0
M  V30 21307 C 2037.14 -5.51766 -1.56017 0
M  V30 21308 N 2036.64 -6.70473 -1.74464 0
M  V30 21309 N 2038.43 -5.39336 -1.58344 0
M  V30 21310 H 2030.58 -2.07934 0.433281 0
M  V30 21311 H 2032.85 -0.938799 0.131756 0
M  V30 21312 H 2032.55 -3.51546 -0.103966 0
M  V30 21313 H 2032.43 -3.29279 -1.83997 0
M  V30 21314 H 2034.81 -2.30098 -1.84768 0
M  V30 21315 H 2034.89 -2.5561 -0.0986256 0
M  V30 21316 H 2034.54 -5.05726 -0.469468 0
M  V30 21317 H 2034.47 -4.7721 -2.22662 0
M  V30 21318 H 2036.96 -3.57563 -1.223 0
M  V30 21319 H 2037.27 -7.49049 -1.90119 0
M  V30 21320 H 2035.62 -6.73469 -1.71653 0
M  V30 21321 H 2038.81 -4.45563 -1.43496 0
M  V30 21322 H 2038.98 -6.24078 -1.74443 0
M  V30 21323 N 2032.39 0.630389 -1.44443 0
M  V30 21324 C 2033.34 1.76351 -1.51667 0
M  V30 21325 C 2034.33 1.64889 -0.388317 0
M  V30 21326 O 2035.54 1.70959 -0.563293 0
M  V30 21327 H 2031.91 0.582226 -0.475937 0
M  V30 21328 H 2033.88 1.67382 -2.47034 0
M  V30 21329 C 2032.63 3.14688 -1.47875 0
M  V30 21330 H 2031.95 3.24156 -2.34015 0
M  V30 21331 H 2033.39 3.93866 -1.5699 0
M  V30 21332 C 2031.85 3.36308 -0.199622 0
M  V30 21333 O 2032.38 3.95013 0.72988 0
M  V30 21334 N 2030.59 2.90419 -0.102524 0
M  V30 21335 H 2030.14 2.42829 -0.859761 0
M  V30 21336 H 2030.09 3.0526 0.752566 0
M  V30 21337 N 2033.87 1.31354 0.870861 0
M  V30 21338 C 2034.8 1.14748 1.98408 0
M  V30 21339 C 2035.81 0.0868023 1.62568 0
M  V30 21340 O 2037 0.334209 1.75343 0
M  V30 21341 C 2034.1 0.730792 3.30927 0
M  V30 21342 C 2033.27 1.87628 3.95113 0
M  V30 21343 C 2032.33 1.44581 5.05948 0
M  V30 21344 O 2031.36 2.15531 5.26816 0
M  V30 21345 N 2032.56 0.332698 5.79546 0
M  V30 21346 H 2035.32 2.10633 2.13199 0
M  V30 21347 H 2032.89 1.23676 1.04479 0
M  V30 21348 H 2034.88 0.425538 4.02457 0
M  V30 21349 H 2033.45 -0.136426 3.12302 0
M  V30 21350 H 2032.67 2.3489 3.16576 0
M  V30 21351 H 2033.96 2.64356 4.34734 0
M  V30 21352 H 2033.35 -0.258188 5.65111 0
M  V30 21353 H 2031.91 0.0869715 6.51742 0
M  V30 21354 N 2035.34 -1.08505 1.143 0
M  V30 21355 C 2036.75 -1.62355 0.921836 0
M  V30 21356 C 2037.11 -1.88635 -0.539569 0
M  V30 21357 O 2036.23 -1.64307 -1.40827 0
M  V30 21358 C 2036.83 -2.94955 1.66694 0
M  V30 21359 C 2035.38 -3.45593 1.49139 0
M  V30 21360 C 2034.53 -2.19845 1.69008 0
M  V30 21361 H 2037.48 -0.917442 1.29494 0
M  V30 21362 H 2037.5 -3.63348 1.12954 0
M  V30 21363 H 2037.02 -2.75796 2.73053 0
M  V30 21364 H 2035.12 -3.69858 0.451226 0
M  V30 21365 H 2035.23 -4.2241 2.26068 0
M  V30 21366 H 2033.59 -2.28966 1.11565 0
M  V30 21367 H 2034.38 -2.03194 2.76707 0
M  V30 21368 N 2036.82 -0.937962 -1.26649 0
M  V30 21369 C 2037.78 -0.449635 -2.24746 0
M  V30 21370 C 2038.78 0.437489 -1.54734 0
M  V30 21371 O 2039.97 0.237121 -1.72579 0
M  V30 21372 C 2037.11 0.35235 -3.39074 0
M  V30 21373 H 2038.3 -1.31648 -2.6946 0
M  V30 21374 H 2035.85 -0.71962 -1.38749 0
M  V30 21375 H 2036.59 1.23758 -2.99757 0
M  V30 21376 H 2036.37 -0.283853 -3.91071 0
M  V30 21377 H 2037.86 0.684038 -4.1196 0
M  V30 21378 N 2038.3 1.40971 -0.704618 0
M  V30 21379 C 2039.72 1.55082 -0.377067 0
M  V30 21380 C 2039.92 1.67827 1.11518 0
M  V30 21381 O 2038.97 1.66173 1.90112 0
M  V30 21382 C 2040.28 2.78517 -1.13352 0
M  V30 21383 C 2041.83 2.92323 -1.11875 0
M  V30 21384 C 2042.31 4.18658 -1.85714 0
M  V30 21385 N 2043.8 4.25635 -1.82728 0
M  V30 21386 C 2044.53 5.22268 -2.36693 0
M  V30 21387 N 2044.03 6.24877 -2.99167 0
M  V30 21388 N 2045.82 5.14271 -2.26897 0
M  V30 21389 H 2037.97 1.30944 -1.67235 0
M  V30 21390 H 2040.24 0.632393 -0.706246 0
M  V30 21391 H 2039.94 2.75339 -2.18818 0
M  V30 21392 H 2039.82 3.70304 -0.717978 0
M  V30 21393 H 2042.2 2.95011 -0.0723296 0
M  V30 21394 H 2042.28 2.01685 -1.57343 0
M  V30 21395 H 2041.93 4.16732 -2.9034 0
M  V30 21396 H 2041.86 5.08285 -1.37674 0
M  V30 21397 H 2044.35 3.52119 -1.37187 0
M  V30 21398 H 2044.66 6.95019 -3.37889 0
M  V30 21399 H 2043.01 6.25353 -3.03247 0
M  V30 21400 H 2046.2 4.33037 -1.77755 0
M  V30 21401 H 2046.37 5.89411 -2.69256 0
M  V30 21402 N 2039.78 0.45001 1.51039 0
M  V30 21403 C 2041.03 -0.11219 2.02189 0
M  V30 21404 C 2041.35 -1.416 1.3334 0
M  V30 21405 O 2040.61 -1.90663 0.44113 0
M  V30 21406 C 2040.91 -0.365449 3.55527 0
M  V30 21407 C 2040.57 0.854084 4.42737 0
M  V30 21408 C 2039.24 1.1885 4.66292 0
M  V30 21409 C 2041.59 1.66705 4.93821 0
M  V30 21410 C 2038.92 2.33632 5.38176 0
M  V30 21411 C 2041.27 2.80597 5.66964 0
M  V30 21412 C 2039.93 3.14478 5.88778 0
M  V30 21413 H 2039.2 -0.0410534 0.739862 0
M  V30 21414 H 2041.85 0.599793 1.81865 0
M  V30 21415 H 2040.15 -1.15946 3.74251 0
M  V30 21416 H 2041.85 -0.81407 3.9265 0
M  V30 21417 H 2038.44 0.583517 4.24609 0
M  V30 21418 H 2042.62 1.42189 4.75496 0
M  V30 21419 H 2037.88 2.60181 5.53277 0
M  V30 21420 H 2042.05 3.43952 6.05533 0
M  V30 21421 H 2039.68 4.0353 6.44257 0
M  V30 21422 N 2041.26 -1.56548 0.18182 0
M  V30 21423 C 2042.2 -2.18468 -0.744342 0
M  V30 21424 C 2043.17 -1.12785 -1.21938 0
M  V30 21425 O 2044.36 -1.4098 -1.28566 0
M  V30 21426 C 2041.5 -2.83772 -1.96386 0
M  V30 21427 C 2040.61 -4.03945 -1.53142 0
M  V30 21428 C 2039.75 -4.57144 -2.70542 0
M  V30 21429 C 2038.79 -5.69704 -2.23839 0
M  V30 21430 N 2037.92 -6.17367 -3.34369 0
M  V30 21431 H 2042.76 -2.97262 -0.209544 0
M  V30 21432 H 2040.3 -1.46814 -0.0916937 0
M  V30 21433 H 2042.26 -3.19797 -2.67929 0
M  V30 21434 H 2040.89 -2.07564 -2.47219 0
M  V30 21435 H 2039.94 -3.73671 -0.712347 0
M  V30 21436 H 2041.25 -4.85393 -1.14868 0
M  V30 21437 H 2040.41 -4.95405 -3.50226 0
M  V30 21438 H 2039.14 -3.74775 -3.12082 0
M  V30 21439 H 2038.15 -5.30984 -1.42604 0
M  V30 21440 H 2039.37 -6.53882 -1.83345 0
M  V30 21441 H 2037.32 -5.37924 -3.75465 0
M  V30 21442 H 2037.24 -6.93832 -3.00221 0
M  V30 21443 H 2038.51 -6.6028 -4.14307 0
M  V30 21444 N 2042.73 0.0918577 -1.57332 0
M  V30 21445 C 2043.68 1.13005 -2.03304 0
M  V30 21446 C 2044.68 1.4128 -0.934688 0
M  V30 21447 O 2045.88 1.40923 -1.11986 0
M  V30 21448 H 2042.26 0.381664 -0.647948 0
M  V30 21449 H 2044.23 0.716022 -2.89682 0
M  V30 21450 C 2042.98 2.44114 -2.47595 0
M  V30 21451 H 2042.3 2.23203 -3.31694 0
M  V30 21452 H 2043.74 3.15252 -2.83535 0
M  V30 21453 C 2042.2 3.08644 -1.35057 0
M  V30 21454 O 2042.73 3.95877 -0.681498 0
M  V30 21455 N 2040.94 2.68946 -1.10074 0
M  V30 21456 H 2040.48 1.98101 -1.64662 0
M  V30 21457 H 2040.44 3.12448 -0.349761 0
M  V30 21458 N 2044.21 1.53368 0.362763 0
M  V30 21459 C 2045.44 1.73348 1.12402 0
M  V30 21460 C 2045.85 0.463567 1.83433 0
M  V30 21461 O 2045.19 -0.573438 1.7452 0
M  V30 21462 C 2045.26 2.84605 2.19637 0
M  V30 21463 C 2044.92 4.24862 1.68348 0
M  V30 21464 C 2045.92 5.07111 1.14605 0
M  V30 21465 C 2043.6 4.71283 1.73776 0
M  V30 21466 C 2045.6 6.33872 0.669702 0
M  V30 21467 C 2043.28 5.98021 1.25753 0
M  V30 21468 C 2044.28 6.79148 0.724405 0
M  V30 21469 O 2043.97 8.03507 0.251275 0
M  V30 21470 H 2043.7 0.583168 0.341893 0
M  V30 21471 H 2046.25 2.00919 0.426694 0
M  V30 21472 H 2044.48 2.52514 2.92871 0
M  V30 21473 H 2046.17 2.92735 2.81177 0
M  V30 21474 H 2046.94 4.7242 1.09748 0
M  V30 21475 H 2042.82 4.08208 2.14213 0
M  V30 21476 H 2046.36 6.97141 0.252909 0
M  V30 21477 H 2042.26 6.32211 1.30304 0
M  V30 21478 H 2043.03 8.17662 0.370343 0
M  V30 21479 N 2045.69 -0.62272 1.44776 0
M  V30 21480 C 2046.65 -1.71618 1.5192 0
M  V30 21481 C 2047.65 -1.55738 0.400303 0
M  V30 21482 O 2048.84 -1.6108 0.66324 0
M  V30 21483 C 2045.98 -3.10771 1.40122 0
M  V30 21484 H 2047.17 -1.66655 2.49332 0
M  V30 21485 H 2044.72 -0.837126 1.31992 0
M  V30 21486 H 2045.46 -3.21323 0.438374 0
M  V30 21487 H 2045.24 -3.23705 2.21264 0
M  V30 21488 H 2046.73 -3.90448 1.48122 0
M  V30 21489 N 2047.17 -1.31814 -0.863883 0
M  V30 21490 C 2048.08 -1.21951 -2.00412 0
M  V30 21491 C 2049.09 -0.13497 -1.73476 0
M  V30 21492 O 2050.27 -0.35392 -1.98266 0
M  V30 21493 C 2047.34 -0.933599 -3.33893 0
M  V30 21494 C 2046.4 -2.10565 -3.74113 0
M  V30 21495 C 2045.63 -1.83329 -5.01225 0
M  V30 21496 O 2045.85 -0.77136 -5.6516 0
M  V30 21497 O 2044.79 -2.69178 -5.38356 0
M  V30 21498 H 2048.61 -2.17786 -2.11667 0
M  V30 21499 H 2046.2 -1.11613 -0.993126 0
M  V30 21500 H 2048.08 -0.790251 -4.13924 0
M  V30 21501 H 2046.75 -0.00533113 -3.237 0
M  V30 21502 H 2045.66 -2.30443 -2.94698 0
M  V30 21503 H 2046.99 -3.01639 -3.88941 0
M  V30 21504 N 2048.65 1.07897 -1.14873 0
M  V30 21505 C 2049.58 2.16955 -0.863287 0
M  V30 21506 C 2050.56 1.69103 0.183853 0
M  V30 21507 O 2051.74 1.9416 0.0394136 0
M  V30 21508 C 2048.87 3.45575 -0.345696 0
M  V30 21509 C 2047.83 4.06847 -1.32888 0
M  V30 21510 C 2047.15 5.30481 -0.670367 0
M  V30 21511 C 2048.45 4.47523 -2.69296 0
M  V30 21512 H 2050.15 2.41091 -1.77526 0
M  V30 21513 H 2047.69 1.1587 -0.854991 0
M  V30 21514 H 2049.65 4.21188 -0.133575 0
M  V30 21515 H 2048.37 3.21009 0.601722 0
M  V30 21516 H 2047.03 3.33272 -1.52726 0
M  V30 21517 H 2046.68 5.02203 0.283023 0
M  V30 21518 H 2046.38 5.72433 -1.32645 0
M  V30 21519 H 2047.9 6.08805 -0.467891 0
M  V30 21520 H 2049.31 5.1429 -2.53335 0
M  V30 21521 H 2047.71 5.00409 -3.31226 0
M  V30 21522 H 2048.78 3.59159 -3.2578 0
M  V30 21523 N 2050.12 0.944665 1.2615 0
M  V30 21524 C 2051.35 0.610956 1.97674 0
M  V30 21525 C 2051.77 -0.814818 1.70312 0
M  V30 21526 O 2051.12 -1.54376 0.973364 0
M  V30 21527 C 2051.18 0.847912 3.51415 0
M  V30 21528 O 2050.9 2.21761 3.77827 0
M  V30 21529 C 2052.4 0.525225 4.40178 0
M  V30 21530 H 2049.62 0.229933 0.630374 0
M  V30 21531 H 2052.16 1.26632 1.60576 0
M  V30 21532 H 2050.32 0.239105 3.86661 0
M  V30 21533 H 2050.73 2.28026 4.72339 0
M  V30 21534 H 2052.2 0.741624 5.46995 0
M  V30 21535 H 2052.68 -0.539903 4.35869 0
M  V30 21536 H 2053.29 1.11291 4.10481 0
M  V30 21537 N 2051.6 -1.40596 0.712085 0
M  V30 21538 C 2052.85 -2.00181 0.247097 0
M  V30 21539 C 2053.16 -1.57102 -1.16526 0
M  V30 21540 O 2054.37 -2.09361 -1.72858 0
M  V30 21541 C 2052.83 -3.57771 0.390856 0
M  V30 21542 C 2052.43 -4.09825 1.80964 0
M  V30 21543 C 2054.18 -4.24498 -0.0135164 0
M  V30 21544 C 2052.09 -5.59907 1.90417 0
M  V30 21545 H 2051.02 -0.748773 0.0886278 0
M  V30 21546 H 2053.67 -1.60876 0.882669 0
M  V30 21547 H 2052.05 -3.94759 -0.313241 0
M  V30 21548 H 2053.22 -3.84221 2.54383 0
M  V30 21549 H 2051.54 -3.55682 2.16516 0
M  V30 21550 H 2054.13 -5.34688 0.0364444 0
M  V30 21551 H 2054.48 -4.02714 -1.05487 0
M  V30 21552 H 2055.01 -3.92603 0.640898 0
M  V30 21553 H 2051.75 -5.86541 2.92661 0
M  V30 21554 H 2051.27 -5.87385 1.21404 0
M  V30 21555 H 2052.95 -6.24951 1.67466 0
M  V30 21556 N 2053.08 -0.458013 -1.50798 0
M  V30 21557 C 2054.01 0.38861 -2.24867 0
M  V30 21558 C 2054.99 1.00734 -1.27638 0
M  V30 21559 O 2056.18 1.04581 -1.56828 0
M  V30 21560 C 2053.3 1.54336 -3.01493 0
M  V30 21561 C 2052.35 1.0433 -4.13543 0
M  V30 21562 S 2053.18 -0.0314457 -5.35491 0
M  V30 21563 C 2054.34 1.12749 -6.15661 0
M  V30 21564 H 2054.57 -0.240171 -2.96328 0
M  V30 21565 H 2052.1 -0.242743 -1.5248 0
M  V30 21566 H 2054.06 2.20525 -3.46235 0
M  V30 21567 H 2052.72 2.14362 -2.29582 0
M  V30 21568 H 2051.92 1.90742 -4.66512 0
M  V30 21569 H 2051.52 0.459335 -3.71169 0
M  V30 21570 H 2053.81 2.04177 -6.46001 0
M  V30 21571 H 2054.75 0.637331 -7.05226 0
M  V30 21572 H 2055.16 1.37541 -5.47488 0
M  V30 21573 N 2054.56 1.56449 -0.190119 0
M  V30 21574 C 2055.51 2.1886 0.732745 0
M  V30 21575 C 2056.48 1.1343 1.21338 0
M  V30 21576 O 2057.66 1.4166 1.27817 0
M  V30 21577 C 2054.8 2.84809 1.94878 0
M  V30 21578 C 2053.91 4.04751 1.50998 0
M  V30 21579 C 2053.05 4.58572 2.68114 0
M  V30 21580 C 2052.09 5.70883 2.20815 0
M  V30 21581 N 2051.23 6.19132 3.3109 0
M  V30 21582 H 2056.07 2.97369 0.193776 0
M  V30 21583 H 2053.6 1.46861 0.0839065 0
M  V30 21584 H 2055.56 3.21213 2.66229 0
M  V30 21585 H 2054.19 2.08872 2.46115 0
M  V30 21586 H 2053.24 3.74043 0.69252 0
M  V30 21587 H 2054.55 4.85996 1.12292 0
M  V30 21588 H 2053.71 4.97256 3.47594 0
M  V30 21589 H 2052.45 3.76425 3.1009 0
M  V30 21590 H 2051.45 5.31733 1.39786 0
M  V30 21591 H 2052.68 6.54845 1.79875 0
M  V30 21592 H 2050.62 5.39908 3.72607 0
M  V30 21593 H 2050.54 6.95415 2.96538 0
M  V30 21594 H 2051.81 6.62468 4.108 0
M  V30 21595 N 2056.04 -0.0835127 1.57379 0
M  V30 21596 C 2057.27 -0.798106 1.90887 0
M  V30 21597 C 2057.68 -1.71709 0.78496 0
M  V30 21598 O 2057.04 -1.80883 -0.242406 0
M  V30 21599 C 2057.09 -1.60168 3.24081 0
M  V30 21600 O 2056.81 -0.719655 4.32149 0
M  V30 21601 C 2058.31 -2.41831 3.71527 0
M  V30 21602 H 2055.53 -0.227571 0.631231 0
M  V30 21603 H 2058.07 -0.0572834 2.0442 0
M  V30 21604 H 2056.23 -2.2949 3.12111 0
M  V30 21605 H 2056.64 -1.27737 5.08708 0
M  V30 21606 H 2058.12 -2.93689 4.67387 0
M  V30 21607 H 2058.59 -3.20824 2.99948 0
M  V30 21608 H 2059.2 -1.77687 3.86403 0
M  V30 21609 N 2057.52 -1.53558 -0.354624 0
M  V30 21610 C 2058.45 -1.83751 -1.44076 0
M  V30 21611 C 2059.43 -0.691795 -1.55397 0
M  V30 21612 O 2060.61 -0.942676 -1.69786 0
M  V30 21613 C 2057.74 -2.03721 -2.81274 0
M  V30 21614 C 2056.7 -3.19517 -2.84769 0
M  V30 21615 C 2056.02 -3.248 -4.24746 0
M  V30 21616 C 2057.32 -4.5787 -2.51301 0
M  V30 21617 H 2059.02 -2.7471 -1.19058 0
M  V30 21618 H 2056.56 -1.32182 -0.5713 0
M  V30 21619 H 2058.51 -2.23427 -3.57293 0
M  V30 21620 H 2057.24 -1.09482 -3.07703 0
M  V30 21621 H 2055.9 -2.99649 -2.11201 0
M  V30 21622 H 2055.55 -2.28177 -4.48268 0
M  V30 21623 H 2055.25 -4.02606 -4.27998 0
M  V30 21624 H 2056.77 -3.46702 -5.02623 0
M  V30 21625 H 2058.18 -4.77663 -3.17034 0
M  V30 21626 H 2056.58 -5.37998 -2.65853 0
M  V30 21627 H 2057.65 -4.62234 -1.46518 0
M  V30 21628 N 2058.99 0.615033 -1.45104 0
M  V30 21629 C 2059.9 1.75459 -1.55728 0
M  V30 21630 C 2060.92 1.6829 -0.442095 0
M  V30 21631 O 2062.1 1.88779 -0.701735 0
M  V30 21632 C 2059.16 3.11899 -1.51394 0
M  V30 21633 C 2058.22 3.30578 -2.73892 0
M  V30 21634 C 2057.45 4.60509 -2.69754 0
M  V30 21635 O 2057.68 5.42353 -1.76662 0
M  V30 21636 O 2056.61 4.81739 -3.60848 0
M  V30 21637 H 2060.44 1.69447 -2.52035 0
M  V30 21638 H 2058.02 0.778221 -1.27531 0
M  V30 21639 H 2059.9 3.93203 -1.51557 0
M  V30 21640 H 2058.58 3.18418 -0.582365 0
M  V30 21641 H 2057.49 2.48891 -2.79292 0
M  V30 21642 H 2058.82 3.2893 -3.6615 0
M  V30 21643 N 2060.47 1.3227 0.85688 0
M  V30 21644 C 2061.43 1.2096 1.94682 0
M  V30 21645 C 2062.43 0.133231 1.60247 0
M  V30 21646 O 2063.62 0.383471 1.69927 0
M  V30 21647 C 2060.76 0.85974 3.29881 0
M  V30 21648 H 2061.95 2.17823 2.06139 0
M  V30 21649 H 2059.5 1.16069 1.04679 0
M  V30 21650 H 2060.24 -0.107161 3.24123 0
M  V30 21651 H 2060.02 1.63794 3.5625 0
M  V30 21652 H 2061.51 0.804868 4.0977 0
M  V30 21653 N 2061.95 -1.07287 1.15444 0
M  V30 21654 C 2062.9 -2.12735 0.820244 0
M  V30 21655 C 2063.88 -1.59704 -0.195801 0
M  V30 21656 O 2065.08 -1.77 0.00355156 0
M  V30 21657 C 2062.2 -3.41879 0.311994 0
M  V30 21658 C 2061.29 -4.01762 1.35823 0
M  V30 21659 N 2061.68 -4.35894 2.56574 0
M  V30 21660 C 2059.98 -4.29241 1.21113 0
M  V30 21661 C 2060.68 -4.83356 3.23638 0
M  V30 21662 N 2059.66 -4.82169 2.51026 0
M  V30 21663 H 2063.46 -2.36958 1.73863 0
M  V30 21664 H 2060.97 -1.24731 1.03999 0
M  V30 21665 H 2062.97 -4.16865 0.0542227 0
M  V30 21666 H 2061.63 -3.191 -0.600445 0
M  V30 21667 H 2062.64 -4.2656 2.93712 0
M  V30 21668 H 2059.32 -4.15957 0.358635 0
M  V30 21669 H 2060.71 -5.19052 4.26655 0
M  V30 21670 N 2063.43 -0.951342 -1.25647 0
M  V30 21671 C 2064.37 -0.467715 -2.26011 0
M  V30 21672 C 2065.34 0.478049 -1.59072 0
M  V30 21673 O 2066.53 0.392024 -1.86729 0
M  V30 21674 C 2063.67 0.251483 -3.44182 0
M  V30 21675 C 2062.78 -0.731135 -4.25768 0
M  V30 21676 C 2061.92 0.0102901 -5.31199 0
M  V30 21677 C 2060.96 -0.963479 -6.0447 0
M  V30 21678 N 2060.09 -0.253142 -7.01643 0
M  V30 21679 H 2064.93 -1.32847 -2.6675 0
M  V30 21680 H 2062.47 -0.666278 -1.31146 0
M  V30 21681 H 2064.43 0.685002 -4.11538 0
M  V30 21682 H 2063.06 1.07631 -3.04328 0
M  V30 21683 H 2062.11 -1.28314 -3.58106 0
M  V30 21684 H 2063.42 -1.47435 -4.76513 0
M  V30 21685 H 2062.58 0.502603 -6.04615 0
M  V30 21686 H 2061.32 0.78632 -4.81319 0
M  V30 21687 H 2060.32 -1.46682 -5.29872 0
M  V30 21688 H 2061.55 -1.73968 -6.56439 0
M  V30 21689 H 2059.49 0.50421 -6.54059 0
M  V30 21690 H 2059.41 -0.935511 -7.50189 0
M  V30 21691 H 2060.68 0.217742 -7.79196 0
M  V30 21692 N 2064.91 1.40216 -0.719531 0
M  V30 21693 C 2066.18 1.94697 -0.18772 0
M  V30 21694 C 2066.56 1.65742 1.30739 0
M  V30 21695 O 2065.91 0.97723 2.06549 0
M  V30 21696 C 2066.12 3.45332 -0.50469 0
M  V30 21697 C 2067.47 4.22256 -0.445515 0
M  V30 21698 O 2068.49 3.5346 -0.440978 0
M  V30 21699 O 2067.35 5.44833 -0.426487 0
M  V30 21700 H 2064.45 0.82649 -0.0290376 0
M  V30 21701 H 2066.99 1.49802 -0.797333 0
M  V30 21702 H 2065.76 3.5978 -1.53863 0
M  V30 21703 H 2065.39 3.97372 0.134684 0
M  V30 21704 N 2066.38 0.466004 1.50553 0
M  V30 21705 C 2067.61 -0.0908629 2.07201 0
M  V30 21706 C 2068.03 -1.33196 1.32817 0
M  V30 21707 O 2067.39 -1.77393 0.374341 0
M  V30 21708 C 2067.44 -0.362957 3.58769 0
M  V30 21709 O 2066.54 -1.44438 3.86279 0
M  V30 21710 H 2065.88 0.0107401 0.663913 0
M  V30 21711 H 2068.41 0.655585 1.93812 0
M  V30 21712 H 2068.42 -0.604965 4.0349 0
M  V30 21713 H 2067.1 0.543996 4.12327 0
M  V30 21714 H 2065.68 -1.19008 3.534 0
M  V30 21715 N 2067.86 -1.56346 0.198413 0
M  V30 21716 C 2068.81 -2.15862 -0.734002 0
M  V30 21717 C 2069.8 -1.10032 -1.17396 0
M  V30 21718 O 2070.99 -1.36085 -1.13181 0
M  V30 21719 C 2068.12 -2.8241 -1.95191 0
M  V30 21720 C 2067.2 -3.95436 -1.53269 0
M  V30 21721 N 2067.59 -4.99032 -0.824642 0
M  V30 21722 C 2065.89 -4.07098 -1.82174 0
M  V30 21723 C 2066.59 -5.78449 -0.614107 0
M  V30 21724 N 2065.57 -5.30995 -1.16384 0
M  V30 21725 H 2069.37 -2.93321 -0.184355 0
M  V30 21726 H 2066.88 -1.624 -0.00124749 0
M  V30 21727 H 2068.88 -3.23443 -2.6304 0
M  V30 21728 H 2067.54 -2.0644 -2.50624 0
M  V30 21729 H 2068.55 -5.15673 -0.479757 0
M  V30 21730 H 2065.23 -3.42258 -2.39093 0
M  V30 21731 H 2066.62 -6.7188 -0.0521937 0
M  V30 21732 N 2069.34 0.0751653 -1.57421 0
M  V30 21733 C 2070.29 1.08969 -2.03456 0
M  V30 21734 C 2071.26 1.38655 -0.914549 0
M  V30 21735 O 2072.44 1.4978 -1.18197 0
M  V30 21736 C 2069.58 2.39917 -2.4806 0
M  V30 21737 C 2068.7 2.1679 -3.73666 0
M  V30 21738 C 2067.83 3.41278 -4.07066 0
M  V30 21739 C 2066.87 3.13501 -5.25722 0
M  V30 21740 N 2066.01 4.30309 -5.54778 0
M  V30 21741 H 2070.85 0.690138 -2.89898 0
M  V30 21742 H 2068.38 0.32921 -1.43369 0
M  V30 21743 H 2070.34 3.16366 -2.71972 0
M  V30 21744 H 2068.97 2.77681 -1.646 0
M  V30 21745 H 2068.02 1.3105 -3.57114 0
M  V30 21746 H 2069.34 1.9227 -4.60254 0
M  V30 21747 H 2068.49 4.26124 -4.31861 0
M  V30 21748 H 2067.23 3.68871 -3.19039 0
M  V30 21749 H 2066.23 2.2705 -5.00728 0
M  V30 21750 H 2067.46 2.87234 -6.15365 0
M  V30 21751 H 2065.4 4.5794 -4.69709 0
M  V30 21752 H 2065.32 4.09051 -6.35778 0
M  V30 21753 H 2066.59 5.16162 -5.84121 0
M  V30 21754 N 2070.82 1.53744 0.346476 0
M  V30 21755 C 2071.73 1.84516 1.44883 0
M  V30 21756 C 2072.74 0.735054 1.57712 0
M  V30 21757 O 2073.92 1.02706 1.73244 0
M  V30 21758 C 2070.99 2.04576 2.7991 0
M  V30 21759 C 2070.05 3.28442 2.7645 0
M  V30 21760 C 2069.28 3.47536 4.05036 0
M  V30 21761 O 2069.5 2.70527 5.02167 0
M  V30 21762 O 2068.44 4.40955 4.09686 0
M  V30 21763 H 2072.26 2.78207 1.21797 0
M  V30 21764 H 2069.85 1.39362 0.53838 0
M  V30 21765 H 2071.73 2.19232 3.59882 0
M  V30 21766 H 2070.4 1.14074 3.02934 0
M  V30 21767 H 2069.31 3.19192 1.95108 0
M  V30 21768 H 2070.64 4.18928 2.5838 0
M  V30 21769 N 2072.3 -0.607329 1.45428 0
M  V30 21770 C 2073.54 -1.36835 1.49679 0
M  V30 21771 C 2073.88 -1.93708 0.138148 0
M  V30 21772 O 2073.15 -1.75069 -0.847414 0
M  V30 21773 C 2073.43 -2.51607 2.57616 0
M  V30 21774 C 2073.29 -1.99929 4.02925 0
M  V30 21775 C 2074.61 -3.53738 2.61835 0
M  V30 21776 H 2071.72 -0.496187 0.544947 0
M  V30 21777 H 2074.37 -0.684587 1.77238 0
M  V30 21778 H 2072.52 -3.09936 2.34247 0
M  V30 21779 H 2074.19 -1.46247 4.37504 0
M  V30 21780 H 2072.43 -1.30929 4.1357 0
M  V30 21781 H 2073.1 -2.82666 4.74135 0
M  V30 21782 H 2075.58 -3.0525 2.82775 0
M  V30 21783 H 2074.45 -4.31533 3.39221 0
M  V30 21784 H 2074.72 -4.09372 1.66935 0
M  V30 21785 N 2073.77 -1.32722 -0.849853 0
M  V30 21786 C 2075.02 -1.23739 -1.60675 0
M  V30 21787 C 2075.35 0.199183 -1.93176 0
M  V30 21788 O 2074.63 1.13761 -1.57761 0
M  V30 21789 C 2074.91 -2.10183 -2.92395 0
M  V30 21790 C 2074.76 -3.62243 -2.66646 0
M  V30 21791 C 2076.08 -1.96664 -3.93715 0
M  V30 21792 H 2073.2 -0.45085 -0.583013 0
M  V30 21793 H 2075.84 -1.62716 -0.980999 0
M  V30 21794 H 2073.99 -1.77072 -3.458 0
M  V30 21795 H 2075.67 -4.05591 -2.19758 0
M  V30 21796 H 2073.91 -3.8467 -2.00529 0
M  V30 21797 H 2074.58 -4.1806 -3.60458 0
M  V30 21798 H 2077.06 -2.25679 -3.49583 0
M  V30 21799 H 2075.93 -2.59417 -4.83729 0
M  V30 21800 H 2076.19 -0.935664 -4.32085 0
M  V30 21801 N 2075.25 1.06673 -1.16011 0
M  V30 21802 C 2076.67 1.31515 -0.90421 0
M  V30 21803 C 2076.87 1.96524 0.445021 0
M  V30 21804 O 2075.92 2.22945 1.18541 0
M  V30 21805 C 2077.24 2.19955 -2.05037 0
M  V30 21806 C 2078.79 2.33384 -2.08569 0
M  V30 21807 C 2079.26 3.25176 -3.22528 0
M  V30 21808 N 2080.75 3.32759 -3.2222 0
M  V30 21809 C 2081.49 4.03866 -4.07038 0
M  V30 21810 N 2080.98 4.77529 -5.01934 0
M  V30 21811 N 2082.78 3.99877 -3.95037 0
M  V30 21812 H 2074.93 0.628672 -2.02883 0
M  V30 21813 H 2077.19 0.339704 -0.885045 0
M  V30 21814 H 2076.9 1.79458 -3.02469 0
M  V30 21815 H 2076.77 3.20521 -1.98862 0
M  V30 21816 H 2079.16 2.7313 -1.11732 0
M  V30 21817 H 2079.24 1.32499 -2.1881 0
M  V30 21818 H 2078.88 2.86147 -4.19622 0
M  V30 21819 H 2078.81 4.26031 -3.09524 0
M  V30 21820 H 2081.3 2.80259 -2.53502 0
M  V30 21821 H 2081.62 5.29302 -5.6308 0
M  V30 21822 H 2079.96 4.76522 -5.05917 0
M  V30 21823 H 2083.15 3.41446 -3.20207 0
M  V30 21824 H 2083.32 4.55027 -4.61361 0
M  V30 21825 N 2076.73 0.957992 1.25141 0
M  V30 21826 C 2077.69 0.485333 2.24003 0
M  V30 21827 C 2078.69 -0.412817 1.55411 0
M  V30 21828 O 2079.88 -0.209635 1.72934 0
M  V30 21829 C 2077.02 -0.298362 3.39592 0
M  V30 21830 H 2078.21 1.35918 2.67332 0
M  V30 21831 H 2075.76 0.741602 1.37586 0
M  V30 21832 H 2076.5 -1.18973 3.01688 0
M  V30 21833 H 2076.28 0.346033 3.9057 0
M  V30 21834 H 2077.77 -0.618412 4.12996 0
M  V30 21835 N 2078.21 -1.39832 0.726957 0
M  V30 21836 C 2079.17 -2.29022 0.0903329 0
M  V30 21837 C 2080.17 -1.45921 -0.675553 0
M  V30 21838 O 2081.36 -1.66696 -0.505765 0
M  V30 21839 C 2078.49 -3.29304 -0.881584 0
M  V30 21840 H 2079.69 -2.86821 0.87601 0
M  V30 21841 H 2077.24 -1.48345 0.492294 0
M  V30 21842 H 2077.97 -2.76545 -1.69391 0
M  V30 21843 H 2077.76 -3.90665 -0.33514 0
M  V30 21844 H 2079.25 -3.96061 -1.32384 0
M  V30 21845 N 2079.69 -0.473982 -1.50304 0
M  V30 21846 C 2080.6 0.323933 -2.32353 0
M  V30 21847 C 2081.61 0.993251 -1.42865 0
M  V30 21848 O 2082.79 0.980589 -1.75916 0
M  V30 21849 C 2079.85 1.38999 -3.17616 0
M  V30 21850 C 2078.91 0.736965 -4.22927 0
M  V30 21851 C 2078.15 1.75223 -5.04116 0
M  V30 21852 O 2078.37 2.97908 -4.86423 0
M  V30 21853 O 2077.3 1.32246 -5.87192 0
M  V30 21854 H 2081.13 -0.346913 -3.01712 0
M  V30 21855 H 2078.72 -0.235777 -1.47528 0
M  V30 21856 H 2080.6 2.00742 -3.70514 0
M  V30 21857 H 2079.27 2.04425 -2.50982 0
M  V30 21858 H 2078.18 0.0805047 -3.74013 0
M  V30 21859 H 2079.51 0.125602 -4.9204 0
M  V30 21860 N 2081.16 1.56239 -0.206702 0
M  V30 21861 C 2082.07 2.2324 0.721172 0
M  V30 21862 C 2083.09 1.2352 1.22552 0
M  V30 21863 O 2084.27 1.56291 1.27025 0
M  V30 21864 C 2081.33 2.88767 1.91871 0
M  V30 21865 C 2080.39 4.03791 1.45779 0
M  V30 21866 C 2079.63 4.66183 2.59825 0
M  V30 21867 O 2079.85 4.27524 3.77597 0
M  V30 21868 O 2078.78 5.55444 2.31874 0
M  V30 21869 H 2082.61 3.03163 0.180488 0
M  V30 21870 H 2080.19 1.49382 0.0231036 0
M  V30 21871 H 2082.08 3.30181 2.61837 0
M  V30 21872 H 2080.75 2.11815 2.44777 0
M  V30 21873 H 2079.66 3.66976 0.726587 0
M  V30 21874 H 2080.99 4.82441 0.975269 0
M  V30 21875 N 2082.64 -0.0668159 1.57458 0
M  V30 21876 C 2083.61 -1.06329 2.03044 0
M  V30 21877 C 2084.61 -1.31301 0.928259 0
M  V30 21878 O 2085.8 -1.26938 1.193 0
M  V30 21879 C 2082.93 -2.40573 2.41532 0
M  V30 21880 H 2084.12 -0.67029 2.92313 0
M  V30 21881 H 2081.67 -0.312678 1.53141 0
M  V30 21882 H 2082.41 -2.84695 1.55303 0
M  V30 21883 H 2082.19 -2.23788 3.21965 0
M  V30 21884 H 2083.68 -3.12189 2.77359 0
M  V30 21885 N 2084.12 -1.53926 -0.338317 0
M  V30 21886 C 2085.08 -1.81578 -1.39865 0
M  V30 21887 C 2086.08 -0.687011 -1.45385 0
M  V30 21888 O 2087.27 -0.955305 -1.45669 0
M  V30 21889 C 2084.41 -1.96252 -2.78744 0
M  V30 21890 H 2085.6 -2.76302 -1.16608 0
M  V30 21891 H 2083.15 -1.45418 -0.572996 0
M  V30 21892 H 2083.89 -1.03688 -3.07277 0
M  V30 21893 H 2083.67 -2.78376 -2.76133 0
M  V30 21894 H 2085.16 -2.19144 -3.5548 0
M  V30 21895 N 2085.6 0.599608 -1.45748 0
M  V30 21896 C 2086.82 1.38971 -1.53954 0
M  V30 21897 C 2087.25 1.87278 -0.175618 0
M  V30 21898 O 2086.61 1.60602 0.841223 0
M  V30 21899 C 2086.66 2.56482 -2.53474 0
M  V30 21900 O 2085.76 3.57375 -2.05808 0
M  V30 21901 H 2085.1 0.414567 -0.518681 0
M  V30 21902 H 2087.63 0.728972 -1.91173 0
M  V30 21903 H 2087.64 3.03623 -2.72539 0
M  V30 21904 H 2086.32 2.20672 -3.52529 0
M  V30 21905 H 2084.89 3.1683 -1.96656 0
M  V30 21906 N 2087.08 1.33171 0.842803 0
M  V30 21907 C 2088.31 1.27434 1.62997 0
M  V30 21908 C 2088.72 -0.155477 1.88159 0
M  V30 21909 O 2088.08 -1.09638 1.45897 0
M  V30 21910 C 2088.13 2.04284 2.98245 0
M  V30 21911 O 2087.85 3.41688 2.74191 0
M  V30 21912 C 2089.35 2.05711 3.9268 0
M  V30 21913 H 2086.57 0.439188 0.507302 0
M  V30 21914 H 2089.11 1.75481 1.05007 0
M  V30 21915 H 2087.27 1.5993 3.52847 0
M  V30 21916 H 2087.68 3.81172 3.60288 0
M  V30 21917 H 2089.16 2.63943 4.84807 0
M  V30 21918 H 2089.63 1.04636 4.26553 0
M  V30 21919 H 2090.24 2.50067 3.44015 0
M  V30 21920 N 2088.56 -1.06056 1.16576 0
M  V30 21921 C 2089.49 -2.15554 0.897693 0
M  V30 21922 C 2090.47 -1.69375 -0.156927 0
M  V30 21923 O 2091.65 -1.94198 -0.00851939 0
M  V30 21924 C 2088.78 -3.44982 0.40063 0
M  V30 21925 C 2087.74 -4.04682 1.39343 0
M  V30 21926 C 2087.06 -5.29347 0.754677 0
M  V30 21927 C 2088.36 -4.43182 2.76381 0
M  V30 21928 H 2090.06 -2.38236 1.81339 0
M  V30 21929 H 2087.6 -1.14495 0.873316 0
M  V30 21930 H 2089.55 -4.20922 0.200566 0
M  V30 21931 H 2088.28 -3.21926 -0.550576 0
M  V30 21932 H 2086.94 -3.308 1.58009 0
M  V30 21933 H 2086.59 -5.0259 -0.203091 0
M  V30 21934 H 2086.29 -5.7025 1.41735 0
M  V30 21935 H 2087.81 -6.07983 0.564687 0
M  V30 21936 H 2089.22 -5.10195 2.61485 0
M  V30 21937 H 2087.62 -4.95076 3.39146 0
M  V30 21938 H 2088.69 -3.53931 3.31453 0
M  V30 21939 N 2090.03 -0.964615 -1.24631 0
M  V30 21940 C 2091 -0.497206 -2.23742 0
M  V30 21941 C 2092 0.404569 -1.55627 0
M  V30 21942 O 2093.19 0.200461 -1.73043 0
M  V30 21943 C 2090.32 0.280348 -3.39745 0
M  V30 21944 H 2091.51 -1.37334 -2.66607 0
M  V30 21945 H 2089.06 -0.748889 -1.37191 0
M  V30 21946 H 2089.8 1.17372 -3.02315 0
M  V30 21947 H 2089.58 -0.366741 -3.90381 0
M  V30 21948 H 2091.07 0.596501 -4.13318 0
M  V30 21949 N 2091.51 1.39445 -0.734362 0
M  V30 21950 C 2092.74 2.0535 -0.290903 0
M  V30 21951 C 2093.16 1.55004 1.06562 0
M  V30 21952 O 2092.52 0.693509 1.67512 0
M  V30 21953 C 2092.57 3.59337 -0.301562 0
M  V30 21954 O 2091.67 4.06225 0.711013 0
M  V30 21955 H 2091.01 0.650668 -0.132389 0
M  V30 21956 H 2093.54 1.78491 -1.00011 0
M  V30 21957 H 2093.55 4.0774 -0.14573 0
M  V30 21958 H 2092.23 3.95343 -1.2914 0
M  V30 21959 H 2090.8 3.69237 0.521369 0
M  V30 21960 N 2092.99 0.481946 1.5005 0
M  V30 21961 C 2094.21 -0.0688814 2.07286 0
M  V30 21962 C 2094.64 -1.3178 1.34222 0
M  V30 21963 O 2094 -1.76986 0.393135 0
M  V30 21964 C 2094.05 -0.324885 3.59133 0
M  V30 21965 O 2093.15 -1.40333 3.87789 0
M  V30 21966 H 2092.49 0.0177812 0.663762 0
M  V30 21967 H 2095.02 0.676104 1.93106 0
M  V30 21968 H 2095.03 -0.562135 4.04109 0
M  V30 21969 H 2093.71 0.587698 4.11727 0
M  V30 21970 H 2092.28 -1.15253 3.54642 0
M  V30 21971 N 2094.47 -1.56127 0.214985 0
M  V30 21972 C 2095.72 -1.97304 -0.41881 0
M  V30 21973 C 2096.03 -1.10547 -1.61366 0
M  V30 21974 O 2097.24 -1.41593 -2.31654 0
M  V30 21975 C 2095.69 -3.50975 -0.796509 0
M  V30 21976 C 2095.3 -4.46426 0.375156 0
M  V30 21977 C 2097.04 -4.0088 -1.39627 0
M  V30 21978 C 2094.95 -5.91395 -0.0246118 0
M  V30 21979 H 2093.88 -0.736775 -0.160246 0
M  V30 21980 H 2096.53 -1.8086 0.310157 0
M  V30 21981 H 2094.91 -3.62996 -1.58271 0
M  V30 21982 H 2096.09 -4.46149 1.15271 0
M  V30 21983 H 2094.4 -4.06827 0.887721 0
M  V30 21984 H 2097 -5.06681 -1.70816 0
M  V30 21985 H 2097.34 -3.46346 -2.30977 0
M  V30 21986 H 2097.88 -3.92055 -0.673641 0
M  V30 21987 H 2094.61 -6.49897 0.855201 0
M  V30 21988 H 2094.13 -5.94881 -0.766611 0
M  V30 21989 H 2095.81 -6.45408 -0.453573 0
M  V30 21990 N 2095.95 0.0584645 -1.57492 0
M  V30 21991 C 2096.9 1.07525 -2.01053 0
M  V30 21992 C 2097.88 1.33726 -0.894772 0
M  V30 21993 O 2099.07 1.33803 -1.15869 0
M  V30 21994 C 2096.2 2.38516 -2.46911 0
M  V30 21995 C 2095.29 2.15532 -3.65249 0
M  V30 21996 N 2095.68 1.62515 -4.78981 0
M  V30 21997 C 2093.98 2.45948 -3.72056 0
M  V30 21998 C 2094.68 1.54656 -5.60764 0
M  V30 21999 N 2093.65 2.01181 -5.05002 0
M  V30 22000 H 2097.45 0.658876 -2.86419 0
M  V30 22001 H 2094.97 0.265312 -1.60218 0
M  V30 22002 H 2096.97 3.12135 -2.76365 0
M  V30 22003 H 2095.63 2.80858 -1.62938 0
M  V30 22004 H 2096.64 1.31192 -5.01008 0
M  V30 22005 H 2093.31 2.91566 -2.98824 0
M  V30 22006 H 2094.7 1.14405 -6.62088 0
M  V30 22007 N 2097.42 1.54103 0.330149 0
M  V30 22008 C 2098.83 1.633 0.904982 0
M  V30 22009 C 2099.19 0.522849 1.89105 0
M  V30 22010 O 2098.31 -0.345304 2.13627 0
M  V30 22011 C 2098.91 2.96008 1.64817 0
M  V30 22012 C 2097.46 3.07423 2.17182 0
M  V30 22013 C 2096.61 2.58829 0.995126 0
M  V30 22014 H 2099.56 1.58333 0.10791 0
M  V30 22015 H 2099.58 2.85799 2.51196 0
M  V30 22016 H 2099.1 3.76786 0.930246 0
M  V30 22017 H 2097.2 2.31306 2.9211 0
M  V30 22018 H 2097.31 4.13117 2.42635 0
M  V30 22019 H 2095.67 2.14563 1.3724 0
M  V30 22020 H 2096.46 3.42059 0.291621 0
M  V30 22021 N 2098.9 -0.59187 1.46064 0
M  V30 22022 C 2099.81 -1.72959 1.585 0
M  V30 22023 C 2100.83 -1.67565 0.468813 0
M  V30 22024 O 2102 -1.87639 0.731679 0
M  V30 22025 C 2099.07 -3.09451 1.56336 0
M  V30 22026 C 2098.13 -3.26179 2.79117 0
M  V30 22027 C 2097.36 -4.56159 2.77046 0
M  V30 22028 O 2097.59 -5.39474 1.85268 0
M  V30 22029 O 2096.52 -4.75937 3.68466 0
M  V30 22030 H 2100.35 -1.65416 2.54699 0
M  V30 22031 H 2097.93 -0.757834 1.28753 0
M  V30 22032 H 2099.81 -3.90742 1.57793 0
M  V30 22033 H 2098.49 -3.17451 0.632949 0
M  V30 22034 H 2097.4 -2.44416 2.83217 0
M  V30 22035 H 2098.73 -3.23064 3.71336 0
M  V30 22036 N 2100.38 -1.33616 -0.835729 0
M  V30 22037 C 2101.31 -1.19968 -1.95296 0
M  V30 22038 C 2102.33 -0.129874 -1.62281 0
M  V30 22039 O 2103.51 -0.380581 -1.74396 0
M  V30 22040 C 2100.61 -0.818275 -3.28873 0
M  V30 22041 C 2099.79 -1.98038 -3.9 0
M  V30 22042 C 2098.85 -1.57944 -5.01936 0
M  V30 22043 O 2097.87 -2.29423 -5.20916 0
M  V30 22044 N 2099.07 -0.486237 -5.7846 0
M  V30 22045 H 2101.84 -2.16212 -2.0754 0
M  V30 22046 H 2099.4 -1.26403 -1.01163 0
M  V30 22047 H 2101.39 -0.532092 -4.01187 0
M  V30 22048 H 2099.96 0.053577 -3.12554 0
M  V30 22049 H 2099.18 -2.43201 -3.10237 0
M  V30 22050 H 2100.47 -2.75789 -4.27572 0
M  V30 22051 H 2099.87 0.108268 -5.65596 0
M  V30 22052 H 2098.43 -0.259739 -6.51282 0
M  V30 22053 N 2101.86 1.05436 -1.17136 0
M  V30 22054 C 2103.1 1.79971 -0.969015 0
M  V30 22055 C 2103.46 1.85543 0.49375 0
M  V30 22056 O 2104.66 2.56144 0.815091 0
M  V30 22057 C 2102.93 3.20104 -1.5896 0
M  V30 22058 S 2104.49 4.11146 -1.53311 0
M  V30 22059 H 2101.31 0.619855 -0.348283 0
M  V30 22060 H 2103.91 1.26524 -1.49037 0
M  V30 22061 H 2102.62 3.13649 -2.64674 0
M  V30 22062 H 2102.15 3.78627 -1.06795 0
M  V30 22063 H 2104.16 4.9326 -0.539375 0
M  V30 22064 N 2103.34 0.971211 1.24118 0
M  V30 22065 C 2104.59 0.630598 1.91589 0
M  V30 22066 C 2104.9 -0.838491 1.76716 0
M  V30 22067 O 2106.1 -1.28978 2.38908 0
M  V30 22068 C 2104.56 1.07723 3.434 0
M  V30 22069 C 2104.17 2.57002 3.66953 0
M  V30 22070 C 2105.91 0.809928 4.16702 0
M  V30 22071 C 2103.82 2.95379 5.12352 0
M  V30 22072 H 2102.75 0.232148 0.717373 0
M  V30 22073 H 2105.4 1.17789 1.40706 0
M  V30 22074 H 2103.78 0.458223 3.9334 0
M  V30 22075 H 2104.96 3.24062 3.27598 0
M  V30 22076 H 2103.27 2.8138 3.06944 0
M  V30 22077 H 2105.87 1.07262 5.23831 0
M  V30 22078 H 2106.21 -0.253899 4.15525 0
M  V30 22079 H 2106.74 1.39007 3.72722 0
M  V30 22080 H 2103.48 4.00847 5.18654 0
M  V30 22081 H 2103 2.33005 5.52692 0
M  V30 22082 H 2104.68 2.85478 5.80613 0
M  V30 22083 N 2104.81 -1.39054 0.741747 0
M  V30 22084 C 2105.76 -2.30556 0.106197 0
M  V30 22085 C 2106.73 -1.49566 -0.722434 0
M  V30 22086 O 2107.92 -1.78233 -0.681008 0
M  V30 22087 C 2105.06 -3.35936 -0.790013 0
M  V30 22088 C 2104.17 -4.31969 0.051964 0
M  V30 22089 C 2103.3 -5.24418 -0.846146 0
M  V30 22090 C 2102.34 -6.121 0.000177444 0
M  V30 22091 N 2101.48 -6.96884 -0.854237 0
M  V30 22092 H 2106.32 -2.84333 0.892113 0
M  V30 22093 H 2103.86 -1.39997 0.451583 0
M  V30 22094 H 2105.82 -3.95629 -1.32413 0
M  V30 22095 H 2104.45 -2.83597 -1.54183 0
M  V30 22096 H 2103.5 -3.73837 0.70358 0
M  V30 22097 H 2104.81 -4.93777 0.706061 0
M  V30 22098 H 2103.96 -5.8917 -1.44786 0
M  V30 22099 H 2102.7 -4.62947 -1.53401 0
M  V30 22100 H 2101.71 -5.46353 0.614648 0
M  V30 22101 H 2102.93 -6.75637 0.684921 0
M  V30 22102 H 2100.88 -6.37974 -1.52727 0
M  V30 22103 H 2100.8 -7.55564 -0.256771 0
M  V30 22104 H 2102.06 -7.66059 -1.4413 0
M  V30 22105 N 2106.29 -0.489897 -1.49792 0
M  V30 22106 C 2107.54 0.0586308 -2.02715 0
M  V30 22107 C 2107.87 1.37665 -1.36974 0
M  V30 22108 O 2107.15 1.87919 -0.501679 0
M  V30 22109 C 2107.43 0.222812 -3.5941 0
M  V30 22110 C 2107.28 -1.11755 -4.35696 0
M  V30 22111 C 2108.6 0.96865 -4.29308 0
M  V30 22112 H 2105.72 0.0198337 -0.736733 0
M  V30 22113 H 2108.36 -0.639149 -1.78927 0
M  V30 22114 H 2106.51 0.81714 -3.79809 0
M  V30 22115 H 2108.18 -1.74991 -4.26821 0
M  V30 22116 H 2106.43 -1.70959 -3.98692 0
M  V30 22117 H 2107.1 -0.956105 -5.43657 0
M  V30 22118 H 2109.57 0.464706 -4.13497 0
M  V30 22119 H 2108.45 1.05235 -5.38718 0
M  V30 22120 H 2108.71 2.00975 -3.93778 0
M  V30 22121 N 2107.77 1.56011 -0.223262 0
M  V30 22122 C 2108.7 2.23355 0.680795 0
M  V30 22123 C 2109.68 1.20584 1.19973 0
M  V30 22124 O 2110.87 1.49174 1.24342 0
M  V30 22125 C 2108 2.91478 1.88833 0
M  V30 22126 C 2106.95 4.00736 1.50316 0
M  V30 22127 C 2106.28 4.56164 2.7896 0
M  V30 22128 C 2107.58 5.17697 0.69188 0
M  V30 22129 H 2109.27 2.99162 0.119304 0
M  V30 22130 H 2106.82 1.43891 0.055942 0
M  V30 22131 H 2108.77 3.37282 2.52623 0
M  V30 22132 H 2107.49 2.13121 2.47481 0
M  V30 22133 H 2106.15 3.55665 0.888708 0
M  V30 22134 H 2105.8 3.74535 3.35757 0
M  V30 22135 H 2105.5 5.29903 2.53922 0
M  V30 22136 H 2107.02 5.04687 3.43691 0
M  V30 22137 H 2108.44 5.59872 1.23353 0
M  V30 22138 H 2106.84 5.97679 0.538515 0
M  V30 22139 H 2107.91 4.83964 -0.301131 0
M  V30 22140 N 2109.25 -0.0501116 1.5752 0
M  V30 22141 C 2110.49 -0.750186 1.90136 0
M  V30 22142 C 2110.85 -1.73631 0.819531 0
M  V30 22143 O 2112.05 -2.48308 1.02939 0
M  V30 22144 C 2110.32 -1.4207 3.27949 0
M  V30 22145 S 2111.88 -2.15284 3.82359 0
M  V30 22146 H 2108.7 -0.249004 0.665972 0
M  V30 22147 H 2111.3 -0.00547796 1.95499 0
M  V30 22148 H 2110.01 -0.689478 4.04567 0
M  V30 22149 H 2109.54 -2.2044 3.25837 0
M  V30 22150 H 2111.55 -3.42131 3.59389 0
M  V30 22151 N 2110.73 -1.54276 -0.321972 0
M  V30 22152 C 2112.14 -1.63778 -0.896309 0
M  V30 22153 C 2112.49 -0.532871 -1.88825 0
M  V30 22154 O 2111.61 0.33397 -2.13807 0
M  V30 22155 C 2112.21 -2.96878 -1.63245 0
M  V30 22156 C 2110.77 -3.0857 -2.15549 0
M  V30 22157 C 2109.91 -2.59353 -0.981385 0
M  V30 22158 H 2112.87 -1.58388 -0.0995121 0
M  V30 22159 H 2112.89 -2.87127 -2.49677 0
M  V30 22160 H 2112.4 -3.77274 -0.910251 0
M  V30 22161 H 2110.5 -2.32851 -2.9088 0
M  V30 22162 H 2110.61 -4.14398 -2.4044 0
M  V30 22163 H 2108.98 -2.15288 -1.361 0
M  V30 22164 H 2109.76 -3.42209 -0.273477 0
M  V30 22165 N 2112.2 0.584116 -1.46376 0
M  V30 22166 C 2113.45 1.33858 -1.5088 0
M  V30 22167 C 2113.77 1.94909 -0.164319 0
M  V30 22168 O 2114.97 2.7136 -0.0871554 0
M  V30 22169 C 2113.43 2.42594 -2.6585 0
M  V30 22170 C 2113.04 1.87853 -4.06713 0
M  V30 22171 C 2114.78 3.19391 -2.79624 0
M  V30 22172 C 2112.69 2.94209 -5.13026 0
M  V30 22173 H 2111.62 0.503207 -0.561515 0
M  V30 22174 H 2114.27 0.623507 -1.72582 0
M  V30 22175 H 2112.65 3.16894 -2.37475 0
M  V30 22176 H 2113.82 1.20105 -4.44872 0
M  V30 22177 H 2112.14 1.23726 -3.97594 0
M  V30 22178 H 2114.74 3.98763 -3.56219 0
M  V30 22179 H 2115.08 3.71891 -1.8709 0
M  V30 22180 H 2115.61 2.52197 -3.07638 0
M  V30 22181 H 2112.35 2.46598 -6.07347 0
M  V30 22182 H 2111.87 3.6045 -4.79412 0
M  V30 22183 H 2113.55 3.58184 -5.38807 0
M  V30 22184 N 2113.68 1.34058 0.828631 0
M  V30 22185 C 2114.93 1.25437 1.57951 0
M  V30 22186 C 2115.25 -0.175484 1.94811 0
M  V30 22187 O 2116.45 -0.383797 2.68774 0
M  V30 22188 C 2114.91 2.19853 2.84943 0
M  V30 22189 C 2114.52 3.68064 2.55407 0
M  V30 22190 C 2116.26 2.20128 3.62966 0
M  V30 22191 C 2114.17 4.54366 3.78557 0
M  V30 22192 H 2113.1 0.465952 0.592794 0
M  V30 22193 H 2115.75 1.59187 0.912783 0
M  V30 22194 H 2114.13 1.79047 3.53211 0
M  V30 22195 H 2115.3 4.17373 1.95286 0
M  V30 22196 H 2113.62 3.70181 1.9067 0
M  V30 22197 H 2116.22 2.81831 4.54396 0
M  V30 22198 H 2116.56 1.19905 3.98658 0
M  V30 22199 H 2117.09 2.59349 3.01634 0
M  V30 22200 H 2113.83 5.55503 3.47989 0
M  V30 22201 H 2113.35 4.09795 4.37982 0
M  V30 22202 H 2115.03 4.68687 4.46029 0
M  V30 22203 N 2115.16 -1.04814 1.17694 0
M  V30 22204 C 2116.09 -2.12661 0.854872 0
M  V30 22205 C 2117.11 -1.62159 -0.144345 0
M  V30 22206 O 2118.3 -1.78309 0.0824726 0
M  V30 22207 C 2115.4 -3.37942 0.254679 0
M  V30 22208 C 2114.57 -4.17706 1.2977 0
M  V30 22209 C 2113.63 -5.21326 0.714573 0
M  V30 22210 O 2112.65 -5.52033 1.38736 0
M  V30 22211 N 2113.86 -5.78415 -0.491561 0
M  V30 22212 H 2116.62 -2.40885 1.7831 0
M  V30 22213 H 2114.18 -1.20943 1.0763 0
M  V30 22214 H 2116.17 -4.04426 -0.148817 0
M  V30 22215 H 2114.74 -3.07221 -0.577415 0
M  V30 22216 H 2113.96 -3.46655 1.8768 0
M  V30 22217 H 2115.25 -4.67796 2.00112 0
M  V30 22218 H 2114.65 -5.55756 -1.05604 0
M  V30 22219 H 2113.21 -6.46403 -0.837072 0
M  V30 22220 N 2116.64 -0.977779 -1.23601 0
M  V30 22221 C 2117.87 -0.663151 -1.95984 0
M  V30 22222 C 2118.28 0.769376 -1.72412 0
M  V30 22223 O 2117.64 1.51741 -1.01395 0
M  V30 22224 C 2117.69 -0.940786 -3.49044 0
M  V30 22225 O 2117.41 -2.31701 -3.71815 0
M  V30 22226 C 2118.91 -0.641745 -4.3863 0
M  V30 22227 H 2116.13 -0.246565 -0.624057 0
M  V30 22228 H 2118.68 -1.30845 -1.57162 0
M  V30 22229 H 2116.83 -0.341537 -3.85892 0
M  V30 22230 H 2117.25 -2.40469 -4.66128 0
M  V30 22231 H 2118.72 -0.886389 -5.44837 0
M  V30 22232 H 2119.2 0.42415 -4.37147 0
M  V30 22233 H 2119.8 -1.22135 -4.07386 0
M  V30 22234 N 2118.12 1.38658 -0.749111 0
M  V30 22235 C 2119.08 2.28849 -0.126757 0
M  V30 22236 C 2120.08 1.46977 0.652253 0
M  V30 22237 O 2121.27 1.6748 0.479181 0
M  V30 22238 C 2118.4 3.30665 0.829083 0
M  V30 22239 H 2119.6 2.85391 -0.921529 0
M  V30 22240 H 2117.15 1.47543 -0.515832 0
M  V30 22241 H 2117.88 2.79205 1.6497 0
M  V30 22242 H 2117.67 3.91149 0.272946 0
M  V30 22243 H 2119.16 3.98117 1.26067 0
M  V30 22244 N 2119.6 0.497834 1.49531 0
M  V30 22245 C 2120.87 -0.110673 1.95287 0
M  V30 22246 C 2121.25 -1.54433 1.43923 0
M  V30 22247 O 2120.6 -2.19012 0.651616 0
M  V30 22248 C 2120.81 -0.0265636 3.4899 0
M  V30 22249 C 2122.16 -0.202082 4.24119 0
M  V30 22250 O 2123.18 -0.1019 3.56054 0
M  V30 22251 O 2122.04 -0.407373 5.4498 0
M  V30 22252 H 2119.14 -0.0970406 0.821287 0
M  V30 22253 H 2121.68 0.560146 1.60189 0
M  V30 22254 H 2120.45 0.973355 3.79001 0
M  V30 22255 H 2120.08 -0.737668 3.90697 0
M  V30 22256 N 2121.07 -1.5589 0.231532 0
M  V30 22257 C 2122.3 -2.02662 -0.401447 0
M  V30 22258 C 2122.71 -1.11044 -1.53186 0
M  V30 22259 O 2122.05 -0.114263 -1.83344 0
M  V30 22260 C 2122.12 -3.45741 -0.985048 0
M  V30 22261 C 2121.78 -4.56999 0.0111732 0
M  V30 22262 C 2122.78 -5.13469 0.815178 0
M  V30 22263 C 2120.46 -5.02124 0.132817 0
M  V30 22264 C 2122.46 -6.13546 1.72743 0
M  V30 22265 C 2120.14 -6.02036 1.0486 0
M  V30 22266 C 2121.14 -6.57624 1.84444 0
M  V30 22267 O 2120.83 -7.55589 2.74481 0
M  V30 22268 H 2120.56 -0.668353 -0.101391 0
M  V30 22269 H 2123.12 -2.02424 0.348401 0
M  V30 22270 H 2121.35 -3.4308 -1.78417 0
M  V30 22271 H 2123.03 -3.76103 -1.52648 0
M  V30 22272 H 2123.8 -4.79449 0.731703 0
M  V30 22273 H 2119.68 -4.5853 -0.476536 0
M  V30 22274 H 2123.22 -6.5686 2.34905 0
M  V30 22275 H 2119.12 -6.35478 1.13305 0
M  V30 22276 H 2119.89 -7.73149 2.68668 0
M  V30 22277 N 2122.55 0.0417572 -1.57545 0
M  V30 22278 C 2123.96 0.589951 -1.77134 0
M  V30 22279 C 2124.31 1.76299 -0.860987 0
M  V30 22280 O 2123.44 2.16336 -0.0525748 0
M  V30 22281 C 2124.03 1.077 -3.21226 0
M  V30 22282 C 2122.59 1.57081 -3.42056 0
M  V30 22283 C 2121.74 0.503265 -2.72695 0
M  V30 22284 H 2124.69 -0.18447 -1.57624 0
M  V30 22285 H 2124.71 1.94485 -3.27041 0
M  V30 22286 H 2124.22 0.22303 -3.87459 0
M  V30 22287 H 2122.32 2.44704 -2.80981 0
M  V30 22288 H 2122.44 1.62706 -4.50626 0
M  V30 22289 H 2120.8 0.955366 -2.36103 0
M  V30 22290 H 2121.58 -0.341024 -3.41602 0
M  V30 22291 N 2124.03 1.54445 0.313786 0
M  V30 22292 C 2125.28 1.72328 1.04814 0
M  V30 22293 C 2125.59 0.509186 1.88856 0
M  V30 22294 O 2126.8 0.569563 2.65459 0
M  V30 22295 C 2125.25 3.04843 1.91309 0
M  V30 22296 C 2124.86 4.33689 1.12331 0
M  V30 22297 C 2126.61 3.32087 2.6442 0
M  V30 22298 C 2124.51 5.5726 1.98028 0
M  V30 22299 H 2123.44 0.642234 0.395033 0
M  V30 22300 H 2126.09 1.80934 0.305823 0
M  V30 22301 H 2124.48 2.90169 2.69477 0
M  V30 22302 H 2125.65 4.59158 0.388648 0
M  V30 22303 H 2123.96 4.13283 0.508577 0
M  V30 22304 H 2126.56 4.21607 3.28864 0
M  V30 22305 H 2126.9 2.50397 3.32577 0
M  V30 22306 H 2127.44 3.47673 1.93308 0
M  V30 22307 H 2124.18 6.41581 1.34364 0
M  V30 22308 H 2123.7 5.35995 2.69201 0
M  V30 22309 H 2125.38 5.94035 2.56382 0
M  V30 22310 N 2125.51 -0.576345 1.46683 0
M  V30 22311 C 2126.46 -1.70601 1.58108 0
M  V30 22312 C 2127.45 -1.63334 0.449247 0
M  V30 22313 O 2128.66 -1.68751 0.626355 0
M  V30 22314 H 2125.03 -0.564161 0.497218 0
M  V30 22315 H 2127 -1.58098 2.53076 0
M  V30 22316 C 2125.75 -3.08983 1.59452 0
M  V30 22317 H 2125.07 -3.15247 2.45885 0
M  V30 22318 H 2126.51 -3.87768 1.715 0
M  V30 22319 C 2124.97 -3.35335 0.324303 0
M  V30 22320 O 2125.5 -3.9745 -0.58277 0
M  V30 22321 N 2123.71 -2.89838 0.21024 0
M  V30 22322 H 2123.26 -2.39471 0.949293 0
M  V30 22323 H 2123.21 -3.07843 -0.638752 0
M  V30 22324 N 2126.99 -1.34495 -0.82151 0
M  V30 22325 C 2127.92 -1.28835 -1.94741 0
M  V30 22326 C 2128.9 -0.165528 -1.69293 0
M  V30 22327 O 2130.08 -0.358115 -1.9087 0
M  V30 22328 C 2127.21 -1.04446 -3.31222 0
M  V30 22329 C 2126.17 -2.13209 -3.71114 0
M  V30 22330 C 2125.49 -1.74007 -5.05594 0
M  V30 22331 C 2126.79 -3.55051 -3.83062 0
M  V30 22332 H 2128.49 -2.23039 -1.99734 0
M  V30 22333 H 2126.03 -1.07369 -0.959573 0
M  V30 22334 H 2127.98 -0.991306 -4.09574 0
M  V30 22335 H 2126.71 -0.0668391 -3.26532 0
M  V30 22336 H 2125.37 -2.17597 -2.95038 0
M  V30 22337 H 2125.02 -0.749021 -4.97392 0
M  V30 22338 H 2124.72 -2.46803 -5.33256 0
M  V30 22339 H 2126.24 -1.7019 -5.86402 0
M  V30 22340 H 2127.65 -3.53068 -4.51681 0
M  V30 22341 H 2126.05 -4.2648 -4.22179 0
M  V30 22342 H 2127.12 -3.92289 -2.85021 0
M  V30 22343 N 2128.46 1.04188 -1.18248 0
M  V30 22344 C 2129.43 2.10339 -0.910507 0
M  V30 22345 C 2130.43 1.60466 0.103607 0
M  V30 22346 O 2131.62 1.73717 -0.129699 0
M  V30 22347 C 2128.75 3.38931 -0.36584 0
M  V30 22348 H 2129.94 2.359 -1.85179 0
M  V30 22349 H 2127.5 1.20593 -0.994332 0
M  V30 22350 H 2128.23 3.19033 0.582115 0
M  V30 22351 H 2128.02 3.76446 -1.09686 0
M  V30 22352 H 2129.51 4.17148 -0.194209 0
M  V30 22353 N 2129.94 0.98432 1.23081 0
M  V30 22354 C 2130.91 0.532738 2.22923 0
M  V30 22355 C 2131.91 -0.379759 1.56251 0
M  V30 22356 O 2133.1 -0.172906 1.7334 0
M  V30 22357 C 2130.23 -0.226262 3.40148 0
M  V30 22358 H 2131.42 1.41558 2.64388 0
M  V30 22359 H 2128.97 0.77062 1.35982 0
M  V30 22360 H 2129.71 -1.12547 3.04144 0
M  V30 22361 H 2129.49 0.428801 3.89748 0
M  V30 22362 H 2130.98 -0.530671 4.14214 0
M  V30 22363 N 2131.42 -1.38259 0.756453 0
M  V30 22364 C 2132.67 -1.99293 0.310658 0
M  V30 22365 C 2132.98 -1.60729 -1.11469 0
M  V30 22366 O 2134.19 -2.14755 -1.6611 0
M  V30 22367 C 2132.64 -3.56347 0.50448 0
M  V30 22368 C 2132.25 -4.0386 1.9391 0
M  V30 22369 C 2134 -4.24326 0.121541 0
M  V30 22370 C 2131.9 -5.53565 2.08133 0
M  V30 22371 H 2130.83 -0.745574 0.112405 0
M  V30 22372 H 2133.48 -1.57987 0.933403 0
M  V30 22373 H 2131.87 -3.95556 -0.187493 0
M  V30 22374 H 2133.04 -3.75934 2.66478 0
M  V30 22375 H 2131.36 -3.48614 2.27722 0
M  V30 22376 H 2133.95 -5.34301 0.206533 0
M  V30 22377 H 2134.3 -4.05866 -0.926213 0
M  V30 22378 H 2134.83 -3.90366 0.765478 0
M  V30 22379 H 2131.57 -5.76933 3.11173 0
M  V30 22380 H 2131.09 -5.83225 1.4003 0
M  V30 22381 H 2132.77 -6.19307 1.87264 0
M  V30 22382 N 2132.9 -0.505757 -1.49264 0
M  V30 22383 C 2133.85 0.270127 -2.29214 0
M  V30 22384 C 2134.82 0.956031 -1.35828 0
M  V30 22385 O 2136 0.961771 -1.64787 0
M  V30 22386 C 2133.14 1.32577 -3.18618 0
M  V30 22387 C 2132.25 0.65116 -4.27064 0
M  V30 22388 C 2131.39 1.68765 -5.03678 0
M  V30 22389 C 2130.43 0.995172 -6.03956 0
M  V30 22390 N 2129.56 1.97608 -6.73718 0
M  V30 22391 H 2134.4 -0.41788 -2.95056 0
M  V30 22392 H 2131.94 -0.217921 -1.45477 0
M  V30 22393 H 2133.9 1.94985 -3.68832 0
M  V30 22394 H 2132.53 1.98248 -2.5475 0
M  V30 22395 H 2131.58 -0.0863124 -3.80302 0
M  V30 22396 H 2132.89 0.106277 -4.98687 0
M  V30 22397 H 2132.05 2.38665 -5.57785 0
M  V30 22398 H 2130.79 2.2664 -4.3184 0
M  V30 22399 H 2129.79 0.281968 -5.49076 0
M  V30 22400 H 2131.02 0.422861 -6.77782 0
M  V30 22401 H 2128.96 2.54436 -6.04647 0
M  V30 22402 H 2128.88 1.48199 -7.41332 0
M  V30 22403 H 2130.15 2.66782 -7.32426 0
M  V30 22404 N 2134.38 1.55765 -0.239796 0
M  V30 22405 C 2135.31 2.17095 0.703207 0
M  V30 22406 C 2136.29 1.12083 1.17797 0
M  V30 22407 O 2137.47 1.40434 1.2574 0
M  V30 22408 C 2134.6 2.76592 1.95486 0
M  V30 22409 C 2133.64 3.94595 1.61855 0
M  V30 22410 S 2134.48 5.30537 0.727373 0
M  V30 22411 C 2135.63 5.93483 1.98818 0
M  V30 22412 H 2135.87 2.96742 0.181988 0
M  V30 22413 H 2133.4 1.54381 -0.0243142 0
M  V30 22414 H 2135.36 3.11508 2.67345 0
M  V30 22415 H 2134.02 1.96904 2.4472 0
M  V30 22416 H 2133.21 4.34791 2.54898 0
M  V30 22417 H 2132.81 3.6092 0.98045 0
M  V30 22418 H 2135.11 6.10567 2.93622 0
M  V30 22419 H 2136.05 6.89088 1.62983 0
M  V30 22420 H 2136.46 5.22486 2.13703 0
M  V30 22421 N 2135.85 -0.0334016 1.57565 0
M  V30 22422 C 2136.79 -1.06286 2.03066 0
M  V30 22423 C 2137.8 -1.32726 0.942744 0
M  V30 22424 O 2138.99 -1.3029 1.22012 0
M  V30 22425 C 2136.09 -2.40547 2.38727 0
M  V30 22426 C 2135.26 -2.33524 3.69845 0
M  V30 22427 C 2134.32 -3.50199 3.92743 0
M  V30 22428 O 2133.35 -3.29889 4.63856 0
M  V30 22429 N 2134.55 -4.71916 3.38047 0
M  V30 22430 H 2137.31 -0.675062 2.91998 0
M  V30 22431 H 2134.87 -0.221423 1.60379 0
M  V30 22432 H 2136.87 -3.17313 2.51186 0
M  V30 22433 H 2135.44 -2.71187 1.55488 0
M  V30 22434 H 2134.66 -1.41885 3.6778 0
M  V30 22435 H 2135.94 -2.2597 4.55867 0
M  V30 22436 H 2135.34 -4.91318 2.80398 0
M  V30 22437 H 2133.9 -5.46062 3.55893 0
M  V30 22438 N 2137.33 -1.54609 -0.305591 0
M  V30 22439 C 2138.56 -1.77658 -1.06044 0
M  V30 22440 C 2138.98 -0.533827 -1.81096 0
M  V30 22441 O 2138.33 0.496175 -1.75626 0
M  V30 22442 C 2138.38 -2.98126 -2.04458 0
M  V30 22443 O 2138.1 -4.17598 -1.32452 0
M  V30 22444 C 2139.61 -3.33527 -2.92018 0
M  V30 22445 H 2136.83 -0.592632 -0.314688 0
M  V30 22446 H 2139.37 -2.01547 -0.346258 0
M  V30 22447 H 2137.52 -2.76458 -2.71385 0
M  V30 22448 H 2137.94 -4.85485 -1.98506 0
M  V30 22449 H 2139.41 -4.21074 -3.56932 0
M  V30 22450 H 2139.89 -2.5148 -3.60076 0
M  V30 22451 H 2140.5 -3.57338 -2.30628 0
M  V30 22452 N 2138.81 0.568558 -1.46987 0
M  V30 22453 C 2139.76 1.67655 -1.5862 0
M  V30 22454 C 2140.73 1.60444 -0.429761 0
M  V30 22455 O 2141.91 1.79446 -0.648355 0
M  V30 22456 C 2139.05 3.05988 -1.59578 0
M  V30 22457 C 2138.17 3.2372 -2.86058 0
M  V30 22458 C 2137.3 4.52385 -2.78427 0
M  V30 22459 C 2136.34 4.63509 -3.99782 0
M  V30 22460 N 2135.48 5.83515 -3.90454 0
M  V30 22461 H 2140.32 1.5705 -2.53257 0
M  V30 22462 H 2137.85 0.765211 -1.2563 0
M  V30 22463 H 2139.81 3.86076 -1.58118 0
M  V30 22464 H 2138.44 3.15456 -0.684628 0
M  V30 22465 H 2137.49 2.37141 -2.97436 0
M  V30 22466 H 2138.81 3.27806 -3.75959 0
M  V30 22467 H 2137.96 5.40718 -2.75152 0
M  V30 22468 H 2136.7 4.5076 -1.86191 0
M  V30 22469 H 2135.7 3.7359 -4.03374 0
M  V30 22470 H 2136.93 4.66902 -4.93132 0
M  V30 22471 H 2134.87 5.82861 -3.01013 0
M  V30 22472 H 2134.79 5.8893 -4.74022 0
M  V30 22473 H 2136.06 6.74241 -3.91177 0
M  V30 22474 N 2140.29 1.34929 0.814366 0
M  V30 22475 C 2141.53 1.27956 1.57338 0
M  V30 22476 C 2141.87 -0.147896 1.93636 0
M  V30 22477 O 2141.14 -1.09539 1.60722 0
M  V30 22478 C 2141.43 2.17862 2.8672 0
M  V30 22479 C 2141.28 3.69185 2.56948 0
M  V30 22480 C 2142.6 2.07033 3.88362 0
M  V30 22481 H 2139.72 0.466149 0.570854 0
M  V30 22482 H 2142.36 1.65259 0.937513 0
M  V30 22483 H 2140.51 1.86178 3.40984 0
M  V30 22484 H 2142.18 4.11275 2.08927 0
M  V30 22485 H 2140.42 3.89851 1.90259 0
M  V30 22486 H 2141.09 4.2747 3.49247 0
M  V30 22487 H 2143.57 2.34869 3.43476 0
M  V30 22488 H 2142.45 2.72151 4.76681 0
M  V30 22489 H 2142.71 1.04989 4.29453 0
M  V30 22490 N 2141.77 -1.0356 1.18799 0
M  V30 22491 C 2143.01 -1.77109 0.987945 0
M  V30 22492 C 2143.35 -1.88154 -0.480786 0
M  V30 22493 O 2142.62 -1.39339 -1.35702 0
M  V30 22494 C 2142.9 -3.20098 1.64952 0
M  V30 22495 C 2142.76 -3.16964 3.19145 0
M  V30 22496 C 2144.08 -4.18333 1.36696 0
M  V30 22497 H 2141.19 -0.642915 0.360318 0
M  V30 22498 H 2143.84 -1.20938 1.4654 0
M  V30 22499 H 2141.99 -3.6806 1.24356 0
M  V30 22500 H 2143.66 -2.76953 3.6891 0
M  V30 22501 H 2141.9 -2.54859 3.5104 0
M  V30 22502 H 2142.57 -4.17958 3.60576 0
M  V30 22503 H 2145.05 -3.78941 1.7188 0
M  V30 22504 H 2143.92 -5.16589 1.85546 0
M  V30 22505 H 2144.19 -4.41143 0.290807 0
M  V30 22506 N 2143.25 -0.990834 -1.22557 0
M  V30 22507 C 2144.16 -0.548263 -2.28104 0
M  V30 22508 C 2145.17 0.401961 -1.69293 0
M  V30 22509 O 2146.35 0.269304 -1.99591 0
M  V30 22510 C 2143.41 0.132121 -3.46448 0
M  V30 22511 C 2142.47 -0.860806 -4.20581 0
M  V30 22512 C 2141.71 -0.212796 -5.33276 0
M  V30 22513 O 2141.93 0.993773 -5.61676 0
M  V30 22514 O 2140.86 -0.916619 -5.9488 0
M  V30 22515 H 2144.69 -1.4263 -2.68124 0
M  V30 22516 H 2142.27 -0.758979 -1.28685 0
M  V30 22517 H 2144.16 0.513325 -4.18262 0
M  V30 22518 H 2142.83 0.984754 -3.08357 0
M  V30 22519 H 2141.74 -1.2929 -3.51048 0
M  V30 22520 H 2143.07 -1.68257 -4.62548 0
M  V30 22521 N 2144.72 1.37856 -0.763775 0
M  V30 22522 C 2146.14 1.53343 -0.442503 0
M  V30 22523 C 2146.34 1.72406 1.04299 0
M  V30 22524 O 2145.4 1.74087 1.82893 0
M  V30 22525 C 2146.71 2.73459 -1.25063 0
M  V30 22526 C 2148.26 2.87315 -1.24173 0
M  V30 22527 C 2148.73 4.10404 -2.03303 0
M  V30 22528 N 2150.22 4.17501 -2.00616 0
M  V30 22529 C 2150.96 5.11759 -2.58631 0
M  V30 22530 N 2150.45 6.11626 -3.25401 0
M  V30 22531 N 2152.25 5.04184 -2.48505 0
M  V30 22532 H 2144.4 1.23733 -1.72638 0
M  V30 22533 H 2146.66 0.601869 -0.732432 0
M  V30 22534 H 2146.37 2.65811 -2.30299 0
M  V30 22535 H 2146.24 3.66925 -0.87439 0
M  V30 22536 H 2148.63 2.94439 -0.197389 0
M  V30 22537 H 2148.71 1.9483 -1.65755 0
M  V30 22538 H 2148.35 4.04042 -3.07754 0
M  V30 22539 H 2148.28 5.01988 -1.59108 0
M  V30 22540 H 2150.77 3.45984 -1.51998 0
M  V30 22541 H 2151.09 6.80062 -3.67063 0
M  V30 22542 H 2149.43 6.11928 -3.29498 0
M  V30 22543 H 2152.62 4.25108 -1.95962 0
M  V30 22544 H 2152.8 5.7746 -2.94013 0
M  V30 22545 N 2146.2 0.513665 1.48994 0
M  V30 22546 C 2147.45 -0.0282469 2.0168 0
M  V30 22547 C 2147.76 -1.36865 1.3974 0
M  V30 22548 O 2148.97 -1.99799 1.83828 0
M  V30 22549 C 2147.43 -0.100776 3.59759 0
M  V30 22550 C 2147.03 1.23375 4.30677 0
M  V30 22551 C 2148.78 -0.592381 4.20346 0
M  V30 22552 C 2146.68 1.12269 5.80646 0
M  V30 22553 H 2145.61 -0.0143288 0.753864 0
M  V30 22554 H 2148.27 0.654994 1.71412 0
M  V30 22555 H 2146.65 -0.848743 3.86798 0
M  V30 22556 H 2147.82 1.996 4.15327 0
M  V30 22557 H 2146.14 1.65979 3.8189 0
M  V30 22558 H 2148.73 -0.69318 5.30188 0
M  V30 22559 H 2149.08 -1.59429 3.84562 0
M  V30 22560 H 2149.61 0.0994202 3.97676 0
M  V30 22561 H 2146.35 2.09925 6.20976 0
M  V30 22562 H 2145.87 0.401536 5.98454 0
M  V30 22563 H 2147.55 0.806614 6.41952 0
M  V30 22564 N 2147.68 -1.55636 0.248053 0
M  V30 22565 C 2148.64 -2.2015 -0.637698 0
M  V30 22566 C 2149.64 -1.17112 -1.10188 0
M  V30 22567 O 2150.83 -1.42187 -1.00641 0
M  V30 22568 C 2147.96 -2.84598 -1.87661 0
M  V30 22569 H 2149.16 -2.99807 -0.0748129 0
M  V30 22570 H 2146.71 -1.563 -0.00148259 0
M  V30 22571 H 2147.45 -2.08882 -2.4807 0
M  V30 22572 H 2147.23 -3.60078 -1.55197 0
M  V30 22573 H 2148.72 -3.33968 -2.50709 0
M  V30 22574 N 2149.16 0.0250451 -1.5758 0
M  V30 22575 C 2150.1 1.02441 -2.0682 0
M  V30 22576 C 2151.07 1.35675 -0.958198 0
M  V30 22577 O 2152.26 1.45944 -1.22903 0
M  V30 22578 C 2149.4 2.31904 -2.55567 0
M  V30 22579 C 2148.51 2.04792 -3.80374 0
M  V30 22580 C 2147.65 3.28155 -4.17718 0
M  V30 22581 C 2146.69 2.96616 -5.3543 0
M  V30 22582 N 2145.82 4.12442 -5.68187 0
M  V30 22583 H 2150.66 0.59756 -2.91947 0
M  V30 22584 H 2148.2 0.283432 -1.44344 0
M  V30 22585 H 2150.16 3.07553 -2.81899 0
M  V30 22586 H 2148.79 2.72304 -1.73351 0
M  V30 22587 H 2147.84 1.19622 -3.61102 0
M  V30 22588 H 2149.15 1.7753 -4.66138 0
M  V30 22589 H 2148.31 4.12169 -4.45199 0
M  V30 22590 H 2147.05 3.58534 -3.30612 0
M  V30 22591 H 2146.05 2.11005 -5.07698 0
M  V30 22592 H 2147.28 2.67511 -6.24191 0
M  V30 22593 H 2145.22 4.42765 -4.84041 0
M  V30 22594 H 2145.14 3.88617 -6.4847 0
M  V30 22595 H 2146.41 4.97317 -6.00246 0
M  V30 22596 N 2150.64 1.54769 0.297388 0
M  V30 22597 C 2151.55 1.89032 1.38939 0
M  V30 22598 C 2152.56 0.784856 1.55293 0
M  V30 22599 O 2153.74 1.08166 1.69888 0
M  V30 22600 C 2150.8 2.13378 2.7326 0
M  V30 22601 C 2149.86 3.37071 2.6586 0
M  V30 22602 C 2149.1 3.60246 3.93775 0
M  V30 22603 O 2149.32 2.86366 4.93306 0
M  V30 22604 O 2148.25 4.53765 3.9545 0
M  V30 22605 H 2152.08 2.81941 1.12884 0
M  V30 22606 H 2149.66 1.41004 0.493771 0
M  V30 22607 H 2151.55 2.30571 3.52725 0
M  V30 22608 H 2150.22 1.23654 2.99151 0
M  V30 22609 H 2149.13 3.25238 1.84855 0
M  V30 22610 H 2150.46 4.26936 2.44921 0
M  V30 22611 N 2152.11 -0.560755 1.47286 0
M  V30 22612 C 2153.34 -1.34841 1.57584 0
M  V30 22613 C 2153.76 -1.86747 0.22521 0
M  V30 22614 O 2153.12 -1.62776 -0.798346 0
M  V30 22615 C 2153.17 -2.49671 2.60186 0
M  V30 22616 O 2152.27 -3.51793 2.1521 0
M  V30 22617 H 2151.61 -0.400669 0.529491 0
M  V30 22618 H 2154.14 -0.67803 1.93039 0
M  V30 22619 H 2154.15 -2.9629 2.80493 0
M  V30 22620 H 2152.83 -2.11248 3.58256 0
M  V30 22621 H 2151.41 -3.11504 2.04987 0
M  V30 22622 N 2153.59 -1.35359 -0.807199 0
M  V30 22623 C 2154.52 -1.30893 -1.93363 0
M  V30 22624 C 2155.5 -0.183475 -1.69108 0
M  V30 22625 O 2156.69 -0.378339 -1.90479 0
M  V30 22626 C 2153.82 -1.07954 -3.30096 0
M  V30 22627 C 2152.77 -2.17133 -3.68832 0
M  V30 22628 C 2152.1 -1.7936 -5.0372 0
M  V30 22629 C 2153.4 -3.59094 -3.79274 0
M  V30 22630 H 2155.09 -2.25145 -1.97357 0
M  V30 22631 H 2152.64 -1.08381 -0.948131 0
M  V30 22632 H 2154.59 -1.03469 -4.085 0
M  V30 22633 H 2153.31 -0.101468 -3.26442 0
M  V30 22634 H 2151.97 -2.20714 -2.92713 0
M  V30 22635 H 2151.62 -0.801733 -4.96569 0
M  V30 22636 H 2151.32 -2.52445 -5.30608 0
M  V30 22637 H 2152.85 -1.764 -5.84564 0
M  V30 22638 H 2154.26 -3.57839 -4.47911 0
M  V30 22639 H 2152.66 -4.30934 -4.17632 0
M  V30 22640 H 2153.73 -3.9529 -2.80845 0
M  V30 22641 N 2155.07 1.02928 -1.19346 0
M  V30 22642 C 2156 2.13099 -0.954528 0
M  V30 22643 C 2156.98 1.69731 0.111965 0
M  V30 22644 O 2158.17 1.94152 -0.0429718 0
M  V30 22645 C 2155.3 3.43798 -0.491955 0
M  V30 22646 C 2154.25 4.00845 -1.50024 0
M  V30 22647 C 2153.58 5.2716 -0.894759 0
M  V30 22648 C 2154.88 4.35699 -2.88035 0
M  V30 22649 H 2156.57 2.33345 -1.87592 0
M  V30 22650 H 2154.12 1.1214 -0.903366 0
M  V30 22651 H 2156.07 4.20243 -0.312095 0
M  V30 22652 H 2154.79 3.23272 0.46503 0
M  V30 22653 H 2153.45 3.26495 -1.66724 0
M  V30 22654 H 2153.1 5.02952 0.0697668 0
M  V30 22655 H 2152.8 5.66291 -1.56805 0
M  V30 22656 H 2154.32 6.06272 -0.725685 0
M  V30 22657 H 2155.74 5.03083 -2.7492 0
M  V30 22658 H 2154.13 4.8591 -3.52152 0
M  V30 22659 H 2155.2 3.45019 -3.4072 0
M  V30 22660 N 2156.55 0.997319 1.2203 0
M  V30 22661 C 2157.48 0.50954 2.23464 0
M  V30 22662 C 2158.49 -0.397746 1.57866 0
M  V30 22663 O 2159.68 -0.199173 1.77385 0
M  V30 22664 C 2156.78 -0.280337 3.37739 0
M  V30 22665 C 2155.95 0.624157 4.32924 0
M  V30 22666 C 2155.01 -0.114778 5.26075 0
M  V30 22667 O 2154.04 0.501303 5.66988 0
M  V30 22668 N 2155.24 -1.39573 5.63471 0
M  V30 22669 H 2158.01 1.38179 2.65945 0
M  V30 22670 H 2155.57 0.872554 1.36375 0
M  V30 22671 H 2157.56 -0.783436 3.97045 0
M  V30 22672 H 2156.13 -1.05371 2.94305 0
M  V30 22673 H 2155.35 1.30786 3.71872 0
M  V30 22674 H 2156.64 1.23998 4.93459 0
M  V30 22675 H 2156.04 -1.91751 5.3221 0
M  V30 22676 H 2154.59 -1.84393 6.25174 0
M  V30 22677 N 2158.03 -1.37449 0.771075 0
M  V30 22678 C 2158.96 -2.32874 0.170867 0
M  V30 22679 C 2159.94 -1.55746 -0.683892 0
M  V30 22680 O 2161.12 -1.83987 -0.621492 0
M  V30 22681 C 2158.25 -3.39974 -0.709566 0
M  V30 22682 C 2157.21 -4.27978 0.0438353 0
M  V30 22683 C 2156.53 -5.26084 -0.955998 0
M  V30 22684 C 2157.83 -5.07793 1.22245 0
M  V30 22685 H 2159.53 -2.83319 0.968038 0
M  V30 22686 H 2157.07 -1.36219 0.466952 0
M  V30 22687 H 2159.03 -4.05708 -1.13926 0
M  V30 22688 H 2157.75 -2.88053 -1.53925 0
M  V30 22689 H 2156.41 -3.63774 0.454301 0
M  V30 22690 H 2156.06 -4.70444 -1.78021 0
M  V30 22691 H 2155.76 -5.85824 -0.456445 0
M  V30 22692 H 2157.28 -5.94693 -1.38465 0
M  V30 22693 H 2158.69 -5.66669 0.869436 0
M  V30 22694 H 2157.09 -5.76855 1.65404 0
M  V30 22695 H 2158.16 -4.40506 2.02688 0
M  V30 22696 N 2159.5 -0.52156 -1.4872 0
M  V30 22697 C 2160.43 0.234741 -2.32317 0
M  V30 22698 C 2161.42 0.943119 -1.4156 0
M  V30 22699 O 2162.6 0.930536 -1.70454 0
M  V30 22700 C 2159.73 1.28724 -3.22564 0
M  V30 22701 C 2158.68 0.697518 -4.22278 0
M  V30 22702 C 2158.01 1.85205 -5.016 0
M  V30 22703 C 2159.31 -0.325174 -5.21287 0
M  V30 22704 H 2161 -0.463097 -2.95797 0
M  V30 22705 H 2158.55 -0.224154 -1.42245 0
M  V30 22706 H 2160.5 1.82422 -3.79869 0
M  V30 22707 H 2159.23 2.01455 -2.57067 0
M  V30 22708 H 2157.89 0.182131 -3.66147 0
M  V30 22709 H 2157.53 2.56754 -4.32535 0
M  V30 22710 H 2157.23 1.46343 -5.69085 0
M  V30 22711 H 2158.76 2.39297 -5.61755 0
M  V30 22712 H 2160.17 0.124406 -5.73165 0
M  V30 22713 H 2158.57 -0.630729 -5.96776 0
M  V30 22714 H 2159.64 -1.23392 -4.68938 0
M  V30 22715 N 2160.98 1.55502 -0.256304 0
M  V30 22716 C 2162.23 1.99463 0.366354 0
M  V30 22717 C 2162.56 1.14436 1.56902 0
M  V30 22718 O 2161.84 0.209944 1.93364 0
M  V30 22719 C 2162.12 3.51836 0.767016 0
M  V30 22720 C 2161.97 4.47626 -0.441687 0
M  V30 22721 C 2163.29 4.09574 1.61051 0
M  V30 22722 H 2160.41 0.72514 0.131688 0
M  V30 22723 H 2163.05 1.86568 -0.359494 0
M  V30 22724 H 2161.2 3.62956 1.38546 0
M  V30 22725 H 2162.87 4.48475 -1.08018 0
M  V30 22726 H 2161.12 4.2006 -1.08313 0
M  V30 22727 H 2161.79 5.51874 -0.117869 0
M  V30 22728 H 2164.26 4.01614 1.08838 0
M  V30 22729 H 2163.14 5.16436 1.85969 0
M  V30 22730 H 2163.4 3.58619 2.58544 0
M  V30 22731 N 2162.46 -0.0166879 1.57591 0
M  V30 22732 C 2163.74 -0.741095 1.81017 0
M  V30 22733 C 2164.12 -1.92907 0.857326 0
M  V30 22734 O 2163.47 -2.28291 -0.0977513 0
M  V30 22735 C 2163.68 -1.16252 3.29069 0
M  V30 22736 C 2165.02 -1.57331 3.94376 0
M  V30 22737 O 2166.05 -1.25676 3.33292 0
M  V30 22738 O 2164.91 -2.16129 5.01947 0
M  V30 22739 H 2162 -0.35941 0.744818 0
M  V30 22740 H 2164.55 0.00748551 1.69698 0
M  V30 22741 H 2163.32 -0.315003 3.9003 0
M  V30 22742 H 2162.94 -1.97072 3.45323 0
M  V30 22743 N 2163.94 -1.54924 -0.289176 0
M  V30 22744 C 2165.19 -1.73974 -1.02059 0
M  V30 22745 C 2165.5 -0.539167 -1.88022 0
M  V30 22746 O 2166.71 -0.611723 -2.64519 0
M  V30 22747 C 2165.16 -3.07847 -1.86435 0
M  V30 22748 C 2164.77 -4.35421 -1.05417 0
M  V30 22749 C 2166.51 -3.36252 -2.59104 0
M  V30 22750 C 2164.42 -5.6034 -1.89138 0
M  V30 22751 H 2163.35 -0.648438 -0.384766 0
M  V30 22752 H 2166 -1.81397 -0.276999 0
M  V30 22753 H 2164.38 -2.94419 -2.64827 0
M  V30 22754 H 2165.56 -4.59718 -0.315551 0
M  V30 22755 H 2163.87 -4.14039 -0.442763 0
M  V30 22756 H 2166.47 -4.26785 -3.22115 0
M  V30 22757 H 2166.81 -2.55656 -3.28551 0
M  V30 22758 H 2167.35 -3.50705 -1.87753 0
M  V30 22759 H 2164.09 -6.43638 -1.2414 0
M  V30 22760 H 2163.61 -5.4021 -2.6064 0
M  V30 22761 H 2165.28 -5.98038 -2.46899 0
M  V30 22762 N 2165.42 0.552936 -1.47582 0
M  V30 22763 C 2166.67 1.30628 -1.53685 0
M  V30 22764 C 2166.98 1.94516 -0.205625 0
M  V30 22765 O 2168.18 2.71114 -0.144695 0
M  V30 22766 C 2166.64 2.369 -2.70936 0
M  V30 22767 C 2166.25 1.79183 -4.10606 0
M  V30 22768 C 2167.99 3.13388 -2.86336 0
M  V30 22769 C 2165.9 2.8326 -5.19151 0
M  V30 22770 H 2164.83 0.491183 -0.572062 0
M  V30 22771 H 2167.48 0.58676 -1.73866 0
M  V30 22772 H 2165.86 3.11785 -2.44143 0
M  V30 22773 H 2167.04 1.10641 -4.4732 0
M  V30 22774 H 2165.35 1.15265 -4.00129 0
M  V30 22775 H 2167.95 3.91117 -3.64597 0
M  V30 22776 H 2168.29 3.67839 -1.94936 0
M  V30 22777 H 2168.82 2.45615 -3.12919 0
M  V30 22778 H 2165.56 2.3366 -6.12441 0
M  V30 22779 H 2165.08 3.502 -4.8695 0
M  V30 22780 H 2166.76 3.46674 -5.46284 0
M  V30 22781 N 2166.89 1.35785 0.800009 0
M  V30 22782 C 2168.31 1.26354 1.37446 0
M  V30 22783 C 2168.66 -0.101241 1.95939 0
M  V30 22784 O 2167.78 -1.00241 1.91783 0
M  V30 22785 C 2168.38 2.28793 2.49878 0
M  V30 22786 C 2166.94 2.23083 3.03168 0
M  V30 22787 C 2166.08 2.14145 1.76174 0
M  V30 22788 H 2169.03 1.46818 0.602508 0
M  V30 22789 H 2169.05 1.91822 3.2861 0
M  V30 22790 H 2168.57 3.28113 2.07277 0
M  V30 22791 H 2166.67 1.27195 3.50217 0
M  V30 22792 H 2166.78 3.15326 3.60703 0
M  V30 22793 H 2165.14 1.60228 1.97987 0
M  V30 22794 H 2165.93 3.15335 1.35715 0
M  V30 22795 N 2168.37 -1.02294 1.19891 0
M  V30 22796 C 2169.62 -1.75443 1.0032 0
M  V30 22797 C 2169.94 -1.89338 -0.466488 0
M  V30 22798 O 2169.21 -1.43128 -1.33758 0
M  V30 22799 H 2167.79 -0.649949 0.368205 0
M  V30 22800 H 2170.45 -1.23363 1.50889 0
M  V30 22801 H 2169.55 -2.76044 1.45623 0
M  V30 22802 N 2169.85 -1.00378 -1.21499 0
M  V30 22803 C 2170.78 -0.583318 -2.26097 0
M  V30 22804 C 2171.76 0.395257 -1.65444 0
M  V30 22805 O 2172.95 0.283508 -1.92119 0
M  V30 22806 C 2170.08 0.0920619 -3.47178 0
M  V30 22807 C 2169.03 -0.806168 -4.20339 0
M  V30 22808 C 2168.36 0.0027323 -5.347 0
M  V30 22809 C 2169.66 -2.1082 -4.77862 0
M  V30 22810 H 2171.35 -1.45765 -2.6152 0
M  V30 22811 H 2168.9 -0.702333 -1.25711 0
M  V30 22812 H 2170.85 0.397677 -4.19519 0
M  V30 22813 H 2169.57 1.00102 -3.10881 0
M  V30 22814 H 2168.23 -1.09559 -3.49846 0
M  V30 22815 H 2167.88 0.912942 -4.94646 0
M  V30 22816 H 2167.58 -0.595326 -5.84576 0
M  V30 22817 H 2169.1 0.302191 -6.09852 0
M  V30 22818 H 2170.52 -1.86581 -5.42089 0
M  V30 22819 H 2168.92 -2.656 -5.38123 0
M  V30 22820 H 2169.99 -2.77978 -3.97311 0
M  V30 22821 N 2171.33 1.37038 -0.778354 0
M  V30 22822 C 2172.26 2.3278 -0.183215 0
M  V30 22823 C 2173.24 1.56107 0.675623 0
M  V30 22824 O 2174.42 1.84314 0.611726 0
M  V30 22825 C 2171.55 3.40346 0.691526 0
M  V30 22826 C 2170.51 4.27948 -0.0665313 0
M  V30 22827 C 2169.83 5.26584 0.928085 0
M  V30 22828 C 2171.13 5.07137 -1.24936 0
M  V30 22829 H 2172.83 2.82801 -0.983049 0
M  V30 22830 H 2170.37 1.35969 -0.474169 0
M  V30 22831 H 2172.33 4.06306 1.11773 0
M  V30 22832 H 2171.05 2.88866 1.52395 0
M  V30 22833 H 2169.71 3.63528 -0.473586 0
M  V30 22834 H 2169.36 4.71381 1.75524 0
M  V30 22835 H 2169.06 5.86058 0.425371 0
M  V30 22836 H 2170.58 5.95419 1.35309 0
M  V30 22837 H 2172 5.662 -0.899476 0
M  V30 22838 H 2170.39 5.7597 -1.68461 0
M  V30 22839 H 2171.46 4.39425 -2.05021 0
M  V30 22840 N 2172.81 0.529439 1.48441 0
M  V30 22841 C 2173.74 -0.270735 2.27595 0
M  V30 22842 C 2174.75 -0.904942 1.35332 0
M  V30 22843 O 2175.94 -0.783475 1.60387 0
M  V30 22844 C 2173.04 -1.39858 3.08695 0
M  V30 22845 C 2172.21 -0.8664 4.28733 0
M  V30 22846 C 2171.27 -1.87531 4.91649 0
M  V30 22847 O 2170.3 -1.43247 5.5088 0
M  V30 22848 N 2171.5 -3.20745 4.83842 0
M  V30 22849 H 2174.27 0.408123 2.96908 0
M  V30 22850 H 2171.83 0.363736 1.57761 0
M  V30 22851 H 2173.82 -2.07167 3.47655 0
M  V30 22852 H 2172.39 -1.98112 2.41807 0
M  V30 22853 H 2171.61 -0.0173382 3.94196 0
M  V30 22854 H 2172.9 -0.489715 5.06438 0
M  V30 22855 H 2172.3 -3.5939 4.3687 0
M  V30 22856 H 2170.85 -3.83688 5.26903 0
M  V30 22857 N 2174.29 -1.55364 0.264547 0
M  V30 22858 C 2175.53 -1.98966 -0.354543 0
M  V30 22859 C 2175.85 -1.15427 -1.57168 0
M  V30 22860 O 2175.12 -0.241233 -1.94409 0
M  V30 22861 H 2173.7 -0.734885 -0.133986 0
M  V30 22862 H 2176.37 -1.91405 0.367431 0
M  V30 22863 H 2175.46 -3.05221 -0.651647 0
M  V30 22864 N 2175.76 0.00833021 -1.57598 0
M  V30 22865 C 2176.99 0.705099 -1.94196 0
M  V30 22866 C 2177.4 1.68297 -0.864461 0
M  V30 22867 O 2176.74 1.82948 0.166002 0
M  V30 22868 C 2176.81 1.49958 -3.2673 0
M  V30 22869 C 2176.47 0.684223 -4.51849 0
M  V30 22870 C 2177.47 -0.0245096 -5.19894 0
M  V30 22871 C 2175.15 0.632648 -4.983 0
M  V30 22872 C 2177.15 -0.773893 -6.32684 0
M  V30 22873 C 2174.83 -0.120466 -6.10981 0
M  V30 22874 C 2175.83 -0.822478 -6.7803 0
M  V30 22875 O 2175.52 -1.56332 -7.88553 0
M  V30 22876 H 2175.25 0.201893 -0.645148 0
M  V30 22877 H 2177.81 -0.0363833 -2.05368 0
M  V30 22878 H 2176.04 2.28536 -3.11943 0
M  V30 22879 H 2177.72 2.08091 -3.48501 0
M  V30 22880 H 2178.49 0.0062356 -4.85 0
M  V30 22881 H 2174.37 1.16859 -4.45943 0
M  V30 22882 H 2177.91 -1.32237 -6.84952 0
M  V30 22883 H 2173.81 -0.153062 -6.45319 0
M  V30 22884 H 2174.58 -1.47916 -8.05024 0
M  V30 22885 N 2177.24 1.55075 0.280956 0
M  V30 22886 C 2178.52 1.6601 1.0344 0
M  V30 22887 C 2178.9 0.521384 2.0456 0
M  V30 22888 O 2178.25 -0.479533 2.23412 0
M  V30 22889 C 2178.46 3.04889 1.69834 0
M  V30 22890 C 2179.8 3.62374 2.21292 0
M  V30 22891 O 2180.83 3.07471 1.79834 0
M  V30 22892 O 2179.69 4.5855 2.97311 0
M  V30 22893 H 2176.78 0.673927 0.479324 0
M  V30 22894 H 2179.33 1.67417 0.277446 0
M  V30 22895 H 2178.1 3.7921 0.96517 0
M  V30 22896 H 2177.72 3.07347 2.52237 0
M  V30 22897 N 2178.72 -0.545102 1.47873 0
M  V30 22898 C 2179.67 -1.67209 1.61691 0
M  V30 22899 C 2180.66 -1.62345 0.483792 0
M  V30 22900 O 2181.87 -1.67384 0.662009 0
M  V30 22901 H 2178.24 -0.553487 0.509073 0
M  V30 22902 H 2180.21 -1.52694 2.56373 0
M  V30 22903 C 2178.96 -3.05531 1.65971 0
M  V30 22904 H 2178.29 -3.09961 2.52516 0
M  V30 22905 H 2179.73 -3.84043 1.79686 0
M  V30 22906 C 2178.18 -3.34572 0.39536 0
M  V30 22907 O 2178.71 -3.98597 -0.498334 0
M  V30 22908 N 2176.92 -2.89327 0.271672 0
M  V30 22909 H 2176.47 -2.37403 0.999874 0
M  V30 22910 H 2176.43 -3.09129 -0.573311 0
M  V30 22911 N 2180.2 -1.36208 -0.792797 0
M  V30 22912 C 2181.43 -1.33396 -1.58155 0
M  V30 22913 C 2181.84 0.0855356 -1.88606 0
M  V30 22914 O 2181.2 1.04147 -1.49865 0
M  V30 22915 C 2181.25 -2.15213 -2.90458 0
M  V30 22916 O 2180.97 -3.51629 -2.61321 0
M  V30 22917 C 2182.47 -2.20144 -3.84775 0
M  V30 22918 H 2179.69 -0.457713 -0.490652 0
M  V30 22919 H 2182.23 -1.79258 -0.984222 0
M  V30 22920 H 2180.39 -1.72915 -3.46669 0
M  V30 22921 H 2180.8 -3.94282 -3.45893 0
M  V30 22922 H 2182.28 -2.81755 -4.74677 0
M  V30 22923 H 2182.75 -1.20396 -4.22376 0
M  V30 22924 H 2183.36 -2.62663 -3.34497 0
M  V30 22925 N 2181.68 1.01656 -1.20431 0
M  V30 22926 C 2182.59 2.13658 -0.968877 0
M  V30 22927 C 2183.6 1.73837 0.075256 0
M  V30 22928 O 2184.78 2.01087 -0.112194 0
M  V30 22929 C 2181.84 3.42716 -0.524052 0
M  V30 22930 C 2180.9 3.9678 -1.63904 0
M  V30 22931 C 2180.14 5.19678 -1.21534 0
M  V30 22932 O 2180.36 5.70338 -0.0840508 0
M  V30 22933 O 2179.29 5.66893 -2.02278 0
M  V30 22934 H 2183.12 2.3639 -1.90666 0
M  V30 22935 H 2180.7 1.1205 -0.98819 0
M  V30 22936 H 2182.59 4.20434 -0.285221 0
M  V30 22937 H 2181.26 3.21401 0.385143 0
M  V30 22938 H 2180.17 3.20341 -1.93215 0
M  V30 22939 H 2181.5 4.22484 -2.52524 0
M  V30 22940 N 2183.15 1.01021 1.20965 0
M  V30 22941 C 2184.38 0.714661 1.94698 0
M  V30 22942 C 2184.8 -0.717235 1.73889 0
M  V30 22943 O 2184.16 -1.49265 1.02906 0
M  V30 22944 C 2184.21 1.04769 3.45045 0
M  V30 22945 O 2183.31 0.155818 4.12106 0
M  V30 22946 H 2182.65 0.265768 0.608493 0
M  V30 22947 H 2185.18 1.35186 1.53577 0
M  V30 22948 H 2185.19 0.996722 3.95638 0
M  V30 22949 H 2183.87 2.09099 3.59514 0
M  V30 22950 H 2182.45 0.263764 3.71966 0
M  V30 22951 N 2184.63 -1.36623 0.78561 0
M  V30 22952 C 2185.86 -2.04129 0.366917 0
M  V30 22953 C 2186.28 -1.58852 -1.00736 0
M  V30 22954 O 2185.64 -0.755202 -1.64822 0
M  V30 22955 C 2185.69 -3.5797 0.43472 0
M  V30 22956 O 2184.79 -4.08584 -0.559755 0
M  V30 22957 H 2184.13 -0.645306 0.156447 0
M  V30 22958 H 2186.66 -1.74656 1.06566 0
M  V30 22959 H 2186.67 -4.06918 0.296959 0
M  V30 22960 H 2185.35 -3.90277 1.43724 0
M  V30 22961 H 2183.92 -3.70918 -0.38397 0
M  V30 22962 N 2186.11 -0.537304 -1.48158 0
M  V30 22963 C 2187.36 -0.00589118 -2.02799 0
M  V30 22964 C 2187.69 1.33238 -1.41285 0
M  V30 22965 O 2186.96 1.86228 -0.56121 0
M  V30 22966 C 2187.25 0.108356 -3.59937 0
M  V30 22967 C 2187.1 -1.2556 -4.3192 0
M  V30 22968 C 2188.42 0.831579 -4.32172 0
M  V30 22969 H 2185.54 -0.00361491 -0.736991 0
M  V30 22970 H 2188.18 -0.69575 -1.76803 0
M  V30 22971 H 2186.33 0.695893 -3.82217 0
M  V30 22972 H 2188 -1.88481 -4.21038 0
M  V30 22973 H 2186.24 -1.83557 -3.93051 0
M  V30 22974 H 2186.92 -1.12858 -5.4034 0
M  V30 22975 H 2189.39 0.332919 -4.14766 0
M  V30 22976 H 2188.27 0.880431 -5.41793 0
M  V30 22977 H 2188.53 1.88346 -3.99973 0
M  V30 22978 N 2187.59 1.55221 -0.272782 0
M  V30 22979 C 2189 1.59392 0.0814225 0
M  V30 22980 C 2189.2 1.29 1.54794 0
M  V30 22981 O 2188.26 1.04975 2.29644 0
M  V30 22982 C 2189.57 2.99288 -0.291106 0
M  V30 22983 C 2191.12 3.12097 -0.23753 0
M  V30 22984 C 2191.6 4.54255 -0.584464 0
M  V30 22985 N 2193.09 4.60089 -0.53593 0
M  V30 22986 C 2193.82 5.68108 -0.777202 0
M  V30 22987 N 2193.32 6.84283 -1.08297 0
M  V30 22988 N 2195.11 5.57647 -0.706157 0
M  V30 22989 H 2187.26 1.73242 -1.22886 0
M  V30 22990 H 2189.53 0.807717 -0.496284 0
M  V30 22991 H 2189.23 3.26355 -1.31093 0
M  V30 22992 H 2189.11 3.75389 0.36921 0
M  V30 22993 H 2191.49 2.84796 0.773005 0
M  V30 22994 H 2191.57 2.38214 -0.93207 0
M  V30 22995 H 2191.22 4.82282 -1.59267 0
M  V30 22996 H 2191.15 5.26435 0.13184 0
M  V30 22997 H 2193.64 3.76631 -0.309385 0
M  V30 22998 H 2193.95 7.62561 -1.2538 0
M  V30 22999 H 2192.3 6.85904 -1.12072 0
M  V30 23000 H 2195.49 4.65763 -0.46714 0
M  V30 23001 H 2195.66 6.41754 -0.897574 0
M  V30 23002 N 2189.07 2.77022e-05 1.576 0
M  V30 23003 C 2190.01 -0.991376 2.08424 0
M  V30 23004 C 2190.98 -1.34134 0.979661 0
M  V30 23005 O 2192.17 -1.4397 1.25209 0
M  V30 23006 C 2189.31 -2.27808 2.59224 0
M  V30 23007 C 2188.42 -1.98715 3.83584 0
M  V30 23008 C 2187.56 -3.21468 4.22885 0
M  V30 23009 C 2186.6 -2.88061 5.40081 0
M  V30 23010 N 2185.73 -4.0335 5.74676 0
M  V30 23011 H 2190.57 -0.551038 2.92861 0
M  V30 23012 H 2188.11 -0.260432 1.44776 0
M  V30 23013 H 2190.07 -3.03029 2.86756 0
M  V30 23014 H 2188.7 -2.69511 1.77661 0
M  V30 23015 H 2187.75 -1.13862 3.62959 0
M  V30 23016 H 2189.06 -1.70092 4.68903 0
M  V30 23017 H 2188.22 -4.05034 4.517 0
M  V30 23018 H 2186.95 -3.53229 3.36275 0
M  V30 23019 H 2185.96 -2.02902 5.1099 0
M  V30 23020 H 2187.18 -2.57547 6.28368 0
M  V30 23021 H 2185.13 -4.35008 4.91023 0
M  V30 23022 H 2185.05 -3.78251 6.5457 0
M  V30 23023 H 2186.32 -4.87705 6.08082 0
M  V30 23024 N 2190.54 -1.55222 -0.272728 0
M  V30 23025 C 2191.51 -1.87346 -1.32038 0
M  V30 23026 C 2192.51 -0.748055 -1.4234 0
M  V30 23027 O 2193.7 -1.01623 -1.41487 0
M  V30 23028 C 2190.83 -2.07898 -2.70169 0
M  V30 23029 H 2192.02 -2.80999 -1.04784 0
M  V30 23030 H 2189.58 -1.47718 -0.510804 0
M  V30 23031 H 2190.31 -1.16628 -3.02603 0
M  V30 23032 H 2190.1 -2.89837 -2.64077 0
M  V30 23033 H 2191.59 -2.34024 -3.45865 0
M  V30 23034 N 2192.02 0.537252 -1.4816 0
M  V30 23035 C 2193.25 1.32317 -1.59709 0
M  V30 23036 C 2193.67 1.86365 -0.254891 0
M  V30 23037 O 2193.03 1.64026 0.772349 0
M  V30 23038 C 2193.08 2.45501 -2.64125 0
M  V30 23039 O 2192.18 3.48325 -2.2078 0
M  V30 23040 H 2191.52 0.392195 -0.535798 0
M  V30 23041 H 2194.05 0.647233 -1.94093 0
M  V30 23042 H 2194.06 2.9179 -2.85171 0
M  V30 23043 H 2192.74 2.05522 -3.61571 0
M  V30 23044 H 2191.32 3.08204 -2.09917 0
M  V30 23045 N 2193.5 1.36626 0.785562 0
M  V30 23046 C 2194.75 1.31264 1.54588 0
M  V30 23047 C 2195.08 -0.106789 1.93906 0
M  V30 23048 O 2194.35 -1.06105 1.63009 0
M  V30 23049 C 2194.64 2.23894 2.82034 0
M  V30 23050 C 2194.49 3.74553 2.49059 0
M  V30 23051 C 2195.81 2.15224 3.83884 0
M  V30 23052 H 2192.93 0.478152 0.560838 0
M  V30 23053 H 2195.57 1.67211 0.902248 0
M  V30 23054 H 2193.72 1.93369 3.36958 0
M  V30 23055 H 2195.39 4.15614 2.00157 0
M  V30 23056 H 2193.64 3.93799 1.81947 0
M  V30 23057 H 2194.31 4.34782 3.40101 0
M  V30 23058 H 2196.78 2.42101 3.38417 0
M  V30 23059 H 2195.66 2.82201 4.70801 0
M  V30 23060 H 2195.92 1.14075 4.27129 0
M  V30 23061 N 2194.98 -1.01016 1.20969 0
M  V30 23062 C 2196.23 -1.74714 1.02377 0
M  V30 23063 C 2196.55 -1.8938 -0.443342 0
M  V30 23064 O 2195.81 -1.42125 -1.34532 0
M  V30 23065 C 2196.11 -3.16509 1.66003 0
M  V30 23066 C 2195.77 -3.21804 3.15837 0
M  V30 23067 C 2194.44 -3.22957 3.56725 0
M  V30 23068 C 2196.79 -3.19456 4.11822 0
M  V30 23069 C 2194.12 -3.19441 4.92112 0
M  V30 23070 C 2196.47 -3.17482 5.47164 0
M  V30 23071 C 2195.13 -3.16941 5.87456 0
M  V30 23072 H 2194.4 -0.639325 0.374625 0
M  V30 23073 H 2197.05 -1.18431 1.50487 0
M  V30 23074 H 2195.35 -3.75991 1.10172 0
M  V30 23075 H 2197.05 -3.7224 1.49126 0
M  V30 23076 H 2193.64 -3.21647 2.83269 0
M  V30 23077 H 2197.82 -3.17731 3.81262 0
M  V30 23078 H 2193.08 -3.17357 5.22585 0
M  V30 23079 H 2197.25 -3.14618 6.2128 0
M  V30 23080 H 2194.88 -3.13971 6.92334 0
M  V30 23081 N 2196.46 -1.01661 -1.20428 0
M  V30 23082 C 2197.7 -0.714489 -1.91506 0
M  V30 23083 C 2198.06 0.742205 -1.77074 0
M  V30 23084 O 2199.26 1.15684 -2.42633 0
M  V30 23085 C 2197.53 -1.13815 -3.38793 0
M  V30 23086 S 2199.09 -0.958001 -4.28215 0
M  V30 23087 H 2195.91 -0.260483 -0.661566 0
M  V30 23088 H 2198.51 -1.30387 -1.45669 0
M  V30 23089 H 2197.22 -2.19421 -3.46818 0
M  V30 23090 H 2196.75 -0.541543 -3.89655 0
M  V30 23091 H 2198.76 0.138444 -4.96007 0
M  V30 23092 N 2197.93 1.36205 -0.792844 0
M  V30 23093 C 2198.86 2.32573 -0.207894 0
M  V30 23094 C 2199.85 1.56815 0.659028 0
M  V30 23095 O 2201.03 1.84952 0.592143 0
M  V30 23096 C 2198.16 3.4106 0.655389 0
M  V30 23097 C 2197.11 4.27854 -0.111917 0
M  V30 23098 C 2196.44 5.27539 0.872181 0
M  V30 23099 C 2197.74 5.05784 -1.30308 0
M  V30 23100 H 2199.43 2.81743 -1.01299 0
M  V30 23101 H 2196.98 1.35459 -0.488564 0
M  V30 23102 H 2198.93 4.07469 1.07457 0
M  V30 23103 H 2197.66 2.90466 1.49323 0
M  V30 23104 H 2196.32 3.63005 -0.512116 0
M  V30 23105 H 2195.96 4.73217 1.70514 0
M  V30 23106 H 2195.66 5.86477 0.363188 0
M  V30 23107 H 2197.19 5.96821 1.28986 0
M  V30 23108 H 2198.6 5.65214 -0.959478 0
M  V30 23109 H 2197 5.7415 -1.7456 0
M  V30 23110 H 2198.07 4.37226 -2.0967 0
M  V30 23111 N 2199.41 0.545154 1.47871 0
M  V30 23112 C 2200.66 0.016646 2.02793 0
M  V30 23113 C 2200.99 -1.32487 1.41989 0
M  V30 23114 O 2200.27 -1.85927 0.571078 0
M  V30 23115 C 2200.55 -0.0892662 3.59989 0
M  V30 23116 C 2200.4 1.27849 4.31248 0
M  V30 23117 C 2201.72 -0.808648 4.32607 0
M  V30 23118 H 2198.84 0.00752331 0.736962 0
M  V30 23119 H 2201.48 0.705116 1.76432 0
M  V30 23120 H 2199.63 -0.675614 3.8258 0
M  V30 23121 H 2201.3 1.90711 4.20032 0
M  V30 23122 H 2199.55 1.85639 3.92072 0
M  V30 23123 H 2200.22 1.15722 5.39734 0
M  V30 23124 H 2202.69 -0.310919 4.14937 0
M  V30 23125 H 2201.57 -0.851686 5.42252 0
M  V30 23126 H 2201.83 -1.86222 4.00966 0
M  V30 23127 N 2200.89 -1.55074 0.28101 0
M  V30 23128 C 2201.85 -2.21453 -0.590858 0
M  V30 23129 C 2202.85 -1.19423 -1.07679 0
M  V30 23130 O 2204.04 -1.44289 -0.976025 0
M  V30 23131 C 2201.18 -2.88515 -1.81582 0
M  V30 23132 H 2202.37 -2.99898 -0.0112027 0
M  V30 23133 H 2199.92 -1.56268 0.0316713 0
M  V30 23134 H 2200.66 -2.14097 -2.43584 0
M  V30 23135 H 2200.44 -3.63289 -1.47524 0
M  V30 23136 H 2201.93 -3.39211 -2.43569 0
M  V30 23137 N 2202.37 -0.00838561 -1.57598 0
M  V30 23138 C 2203.62 0.673935 -1.90108 0
M  V30 23139 C 2203.93 1.74469 -0.884306 0
M  V30 23140 O 2205.14 2.48222 -1.09992 0
M  V30 23141 C 2203.59 1.24989 -3.37499 0
M  V30 23142 C 2203.2 0.213522 -4.47491 0
M  V30 23143 C 2204.95 1.90992 -3.79107 0
M  V30 23144 C 2202.85 0.799947 -5.85965 0
M  V30 23145 H 2201.78 0.255482 -0.709398 0
M  V30 23146 H 2204.43 -0.0703015 -1.83365 0
M  V30 23147 H 2202.82 2.04507 -3.39106 0
M  V30 23148 H 2203.99 -0.557676 -4.57413 0
M  V30 23149 H 2202.3 -0.346547 -4.14955 0
M  V30 23150 H 2204.9 2.35787 -4.79905 0
M  V30 23151 H 2205.24 2.74401 -3.13065 0
M  V30 23152 H 2205.78 1.18196 -3.79835 0
M  V30 23153 H 2202.52 0.00445186 -6.555 0
M  V30 23154 H 2202.04 1.54011 -5.7969 0
M  V30 23155 H 2203.72 1.29604 -6.33886 0
M  V30 23156 N 2203.85 1.55365 0.264492 0
M  V30 23157 C 2205.08 1.80145 1.0115 0
M  V30 23158 C 2205.49 0.579285 1.80114 0
M  V30 23159 O 2204.83 -0.461288 1.77814 0
M  V30 23160 C 2204.89 2.97997 2.01093 0
M  V30 23161 C 2204.55 4.34709 1.40988 0
M  V30 23162 C 2205.55 5.13373 0.821226 0
M  V30 23163 C 2203.24 4.8138 1.43452 0
M  V30 23164 C 2205.23 6.36848 0.265227 0
M  V30 23165 C 2202.92 6.04808 0.874665 0
M  V30 23166 C 2203.92 6.8238 0.291026 0
M  V30 23167 O 2203.6 8.03479 -0.260235 0
M  V30 23168 H 2203.34 0.603731 0.304114 0
M  V30 23169 H 2205.89 2.03226 0.298053 0
M  V30 23170 H 2204.12 2.70628 2.7622 0
M  V30 23171 H 2205.81 3.10025 2.61991 0
M  V30 23172 H 2206.57 4.78443 0.794819 0
M  V30 23173 H 2202.45 4.21005 1.87819 0
M  V30 23174 H 2206 6.97339 -0.190959 0
M  V30 23175 H 2201.89 6.39218 0.89834 0
M  V30 23176 H 2202.66 8.18362 -0.150409 0
M  V30 23177 N 2205.33 -0.529387 1.48443 0
M  V30 23178 C 2206.55 -1.31468 1.60409 0
M  V30 23179 C 2206.98 -1.86227 0.264771 0
M  V30 23180 O 2206.33 -1.64433 -0.763639 0
M  V30 23181 C 2206.38 -2.44096 2.65423 0
M  V30 23182 O 2205.49 -3.47149 2.22624 0
M  V30 23183 H 2204.83 -0.389348 0.53787 0
M  V30 23184 H 2207.36 -0.636931 1.94433 0
M  V30 23185 H 2207.37 -2.90274 2.86715 0
M  V30 23186 H 2206.04 -2.03601 3.62656 0
M  V30 23187 H 2204.62 -3.07086 2.11548 0
M  V30 23188 N 2206.8 -1.37041 -0.778305 0
M  V30 23189 C 2208.05 -1.32082 -1.5389 0
M  V30 23190 C 2208.38 0.0965045 -1.9396 0
M  V30 23191 O 2207.66 1.05239 -1.6357 0
M  V30 23192 C 2207.94 -2.25387 -2.80843 0
M  V30 23193 C 2207.79 -3.75868 -2.47069 0
M  V30 23194 C 2209.11 -2.17257 -3.82737 0
M  V30 23195 H 2206.23 -0.48112 -0.558294 0
M  V30 23196 H 2208.87 -1.67687 -0.893368 0
M  V30 23197 H 2207.02 -1.95153 -3.35928 0
M  V30 23198 H 2208.7 -4.1667 -1.9795 0
M  V30 23199 H 2206.94 -3.94758 -1.79856 0
M  V30 23200 H 2207.61 -4.36579 -3.3779 0
M  V30 23201 H 2210.09 -2.43893 -3.37128 0
M  V30 23202 H 2208.96 -2.84694 -4.69298 0
M  V30 23203 H 2209.22 -1.16339 -4.26518 0
M  V30 23204 N 2208.28 1.00373 -1.21503 0
M  V30 23205 C 2209.53 1.73584 -1.02721 0
M  V30 23206 C 2209.84 1.90597 0.439556 0
M  V30 23207 O 2211.05 2.61027 0.746802 0
M  V30 23208 C 2209.51 3.12267 -1.78934 0
M  V30 23209 C 2209.11 3.03222 -3.29789 0
M  V30 23210 C 2210.86 3.89598 -1.68564 0
M  V30 23211 C 2208.76 4.36992 -3.98487 0
M  V30 23212 H 2207.69 0.650807 -0.380744 0
M  V30 23213 H 2210.35 1.12137 -1.4525 0
M  V30 23214 H 2208.73 3.74331 -1.29198 0
M  V30 23215 H 2209.9 2.50388 -3.86837 0
M  V30 23216 H 2208.22 2.39379 -3.40715 0
M  V30 23217 H 2210.81 4.88589 -2.1722 0
M  V30 23218 H 2211.16 4.11287 -0.644093 0
M  V30 23219 H 2211.69 3.34189 -2.15784 0
M  V30 23220 H 2208.43 4.20504 -5.02848 0
M  V30 23221 H 2207.95 4.89782 -3.46227 0
M  V30 23222 H 2209.63 5.05787 -4.03471 0
M  V30 23223 N 2209.76 1.02298 1.19887 0
M  V30 23224 C 2211.01 0.714591 1.89045 0
M  V30 23225 C 2211.33 -0.758649 1.79637 0
M  V30 23226 O 2210.6 -1.54616 1.20294 0
M  V30 23227 H 2209.18 0.261329 0.699797 0
M  V30 23228 H 2211.84 1.29595 1.45572 0
M  V30 23229 H 2210.94 1.00365 2.95522 0
M  V30 23230 N 2211.24 -1.35782 0.800057 0
M  V30 23231 C 2212.15 -2.33683 0.207245 0
M  V30 23232 C 2213.16 -1.61552 -0.646282 0
M  V30 23233 O 2214.34 -1.9347 -0.55957 0
M  V30 23234 C 2211.4 -3.40749 -0.639599 0
M  V30 23235 C 2210.47 -4.28664 0.23366 0
M  V30 23236 C 2209.7 -5.30617 -0.572861 0
M  V30 23237 O 2209.92 -5.40986 -1.80806 0
M  V30 23238 O 2208.86 -6.01891 0.0328343 0
M  V30 23239 H 2212.68 -2.86167 1.01697 0
M  V30 23240 H 2210.27 -1.38438 0.561715 0
M  V30 23241 H 2212.15 -4.06184 -1.12216 0
M  V30 23242 H 2210.82 -2.90547 -1.42703 0
M  V30 23243 H 2209.73 -3.66232 0.763212 0
M  V30 23244 H 2211.06 -4.82246 0.984869 0
M  V30 23245 N 2212.72 -0.552988 -1.4758 0
M  V30 23246 C 2213.99 0.0381172 -1.95563 0
M  V30 23247 C 2214.37 1.48985 -1.49555 0
M  V30 23248 O 2213.72 2.16443 -0.732452 0
M  V30 23249 C 2213.93 -0.10298 -3.48848 0
M  V30 23250 C 2215.28 0.0445335 -4.24577 0
M  V30 23251 O 2216.3 -0.0303175 -3.56187 0
M  V30 23252 O 2215.16 0.204827 -5.46116 0
M  V30 23253 H 2212.26 0.0664922 -0.824323 0
M  V30 23254 H 2214.8 -0.619213 -1.57999 0
M  V30 23255 H 2213.57 -1.11335 -3.75127 0
M  V30 23256 H 2213.2 0.592155 -3.93166 0
M  V30 23257 N 2214.19 1.54923 -0.28923 0
M  V30 23258 C 2215.12 2.26041 0.58545 0
M  V30 23259 C 2216.1 1.25564 1.14751 0
M  V30 23260 O 2217.29 1.54313 1.17903 0
M  V30 23261 C 2214.42 2.99225 1.763 0
M  V30 23262 C 2213.37 4.06751 1.33184 0
M  V30 23263 C 2212.7 4.67585 2.59362 0
M  V30 23264 C 2214 5.20166 0.471684 0
M  V30 23265 H 2215.69 2.99399 -0.00768794 0
M  V30 23266 H 2213.24 1.43999 -0.0051376 0
M  V30 23267 H 2215.19 3.47694 2.38091 0
M  V30 23268 H 2213.92 2.23426 2.38219 0
M  V30 23269 H 2212.58 3.59114 0.737058 0
M  V30 23270 H 2212.22 3.88438 3.1957 0
M  V30 23271 H 2211.92 5.40196 2.31219 0
M  V30 23272 H 2213.45 5.1881 3.21976 0
M  V30 23273 H 2214.86 5.646 0.994956 0
M  V30 23274 H 2213.26 5.99425 0.284534 0
M  V30 23275 H 2214.33 4.82251 -0.506126 0
M  V30 23276 N 2215.67 0.0167433 1.57591 0
M  V30 23277 C 2216.62 -0.969215 2.09463 0
M  V30 23278 C 2217.59 -1.33087 0.993833 0
M  V30 23279 O 2218.77 -1.42634 1.26729 0
M  V30 23280 C 2215.91 -2.25046 2.61626 0
M  V30 23281 C 2215.03 -1.94636 3.8567 0
M  V30 23282 C 2214.16 -3.16964 4.26271 0
M  V30 23283 C 2213.2 -2.82316 5.43106 0
M  V30 23284 N 2212.34 -3.97232 5.78922 0
M  V30 23285 H 2217.18 -0.519945 2.93429 0
M  V30 23286 H 2214.71 -0.245062 1.45044 0
M  V30 23287 H 2216.67 -2.99971 2.89954 0
M  V30 23288 H 2215.3 -2.67612 1.8051 0
M  V30 23289 H 2214.35 -1.10006 3.64147 0
M  V30 23290 H 2215.67 -1.65109 4.70681 0
M  V30 23291 H 2214.82 -4.0022 4.5597 0
M  V30 23292 H 2213.56 -3.49642 3.40002 0
M  V30 23293 H 2212.56 -1.9747 5.13114 0
M  V30 23294 H 2213.79 -2.50868 6.31064 0
M  V30 23295 H 2211.74 -4.29776 4.95609 0
M  V30 23296 H 2211.65 -3.71287 6.58545 0
M  V30 23297 H 2212.92 -4.81228 6.13221 0
M  V30 23298 N 2217.15 -1.55503 -0.256249 0
M  V30 23299 C 2218.56 -1.67432 -0.826039 0
M  V30 23300 C 2218.91 -0.612478 -1.86395 0
M  V30 23301 O 2218.04 0.242987 -2.15031 0
M  V30 23302 C 2218.63 -3.03535 -1.50507 0
M  V30 23303 C 2217.19 -3.17435 -2.02267 0
M  V30 23304 C 2216.34 -2.63282 -0.870502 0
M  V30 23305 H 2219.29 -1.58667 -0.0322449 0
M  V30 23306 H 2219.31 -2.97458 -2.37274 0
M  V30 23307 H 2218.82 -3.80796 -0.749417 0
M  V30 23308 H 2216.92 -2.44979 -2.80742 0
M  V30 23309 H 2217.04 -4.24223 -2.22648 0
M  V30 23310 H 2215.4 -2.20866 -1.26847 0
M  V30 23311 H 2216.18 -3.43061 -0.128088 0
M  V30 23312 N 2218.63 0.521507 -1.48721 0
M  V30 23313 C 2219.58 1.62163 -1.60272 0
M  V30 23314 C 2220.56 1.54203 -0.459377 0
M  V30 23315 O 2221.75 1.6208 -0.711269 0
M  V30 23316 C 2218.88 3.00856 -1.65349 0
M  V30 23317 C 2217.97 3.13889 -2.85192 0
M  V30 23318 N 2218.36 2.9687 -4.09514 0
M  V30 23319 C 2216.66 3.44958 -2.82701 0
M  V30 23320 C 2217.36 3.13543 -4.89965 0
M  V30 23321 N 2216.34 3.415 -4.2294 0
M  V30 23322 H 2220.14 1.47628 -2.54132 0
M  V30 23323 H 2217.65 0.727169 -1.4521 0
M  V30 23324 H 2219.65 3.79892 -1.71719 0
M  V30 23325 H 2218.31 3.16477 -0.726114 0
M  V30 23326 H 2219.32 2.7346 -4.39818 0
M  V30 23327 H 2216 3.66883 -1.99256 0
M  V30 23328 H 2217.39 3.05051 -5.9866 0
M  V30 23329 N 2220.11 1.37452 0.771027 0
M  V30 23330 C 2221.04 1.35974 1.89825 0
M  V30 23331 C 2222.02 0.228246 1.68562 0
M  V30 23332 O 2223.2 0.428708 1.89409 0
M  V30 23333 C 2220.33 1.16668 3.27118 0
M  V30 23334 C 2219.29 2.26836 3.62946 0
M  V30 23335 C 2218.61 1.92652 4.98788 0
M  V30 23336 C 2219.91 3.69023 3.6962 0
M  V30 23337 H 2221.61 2.30299 1.91319 0
M  V30 23338 H 2219.15 1.10857 0.919062 0
M  V30 23339 H 2221.11 1.14263 4.05613 0
M  V30 23340 H 2219.83 0.187983 3.26059 0
M  V30 23341 H 2218.49 2.28397 2.86759 0
M  V30 23342 H 2218.14 0.933108 4.94269 0
M  V30 23343 H 2217.84 2.66425 5.23729 0
M  V30 23344 H 2219.36 1.91836 5.79682 0
M  V30 23345 H 2220.77 3.69588 4.38266 0
M  V30 23346 H 2219.17 4.41855 4.06059 0
M  V30 23347 H 2220.24 4.02597 2.70266 0
M  V30 23348 N 2221.58 -0.997276 1.22033 0
M  V30 23349 C 2222.55 -2.06815 0.987945 0
M  V30 23350 C 2223.55 -1.6074 -0.0439802 0
M  V30 23351 O 2224.74 -1.73115 0.194083 0
M  V30 23352 C 2221.87 -3.3734 0.49138 0
M  V30 23353 H 2223.06 -2.28864 1.93807 0
M  V30 23354 H 2220.62 -1.1682 1.0384 0
M  V30 23355 H 2221.35 -3.20973 -0.463307 0
M  V30 23356 H 2221.14 -3.72115 1.23582 0
M  V30 23357 H 2222.63 -4.1614 0.348897 0
M  V30 23358 N 2223.06 -1.02932 -1.19343 0
M  V30 23359 C 2223.99 -0.568609 -2.22035 0
M  V30 23360 C 2225.01 0.355751 -1.58866 0
M  V30 23361 O 2226.2 0.152072 -1.77851 0
M  V30 23362 C 2223.3 0.190693 -3.38363 0
M  V30 23363 C 2222.47 -0.738719 -4.31117 0
M  V30 23364 C 2221.53 -0.0247422 -5.26194 0
M  V30 23365 O 2220.55 -0.651454 -5.6546 0
M  V30 23366 N 2221.76 1.24584 -5.66974 0
M  V30 23367 H 2224.52 -1.45181 -2.62188 0
M  V30 23368 H 2222.08 -0.908405 -1.34013 0
M  V30 23369 H 2224.07 0.677891 -3.98982 0
M  V30 23370 H 2222.64 0.975314 -2.96996 0
M  V30 23371 H 2221.86 -1.406 -3.68273 0
M  V30 23372 H 2223.15 -1.37037 -4.89998 0
M  V30 23373 H 2222.55 1.77573 -5.37107 0
M  V30 23374 H 2221.11 1.67753 -6.29843 0
M  V30 23375 N 2224.54 1.35356 -0.807246 0
M  V30 23376 C 2225.47 2.32339 -0.23255 0
M  V30 23377 C 2226.45 1.57505 0.642358 0
M  V30 23378 O 2227.64 1.8557 0.572493 0
M  V30 23379 C 2224.77 3.41736 0.619178 0
M  V30 23380 C 2223.72 4.27711 -0.157291 0
M  V30 23381 C 2223.05 5.28434 0.81618 0
M  V30 23382 C 2224.35 5.04373 -1.35665 0
M  V30 23383 H 2226.04 2.80652 -1.04281 0
M  V30 23384 H 2223.59 1.34933 -0.502904 0
M  V30 23385 H 2225.54 4.08586 1.03129 0
M  V30 23386 H 2224.26 2.92033 1.46233 0
M  V30 23387 H 2222.92 3.62442 -0.550589 0
M  V30 23388 H 2222.57 4.74998 1.65486 0
M  V30 23389 H 2222.27 5.86829 0.300964 0
M  V30 23390 H 2223.79 5.98155 1.22649 0
M  V30 23391 H 2225.21 5.64165 -1.01937 0
M  V30 23392 H 2223.61 5.72267 -1.8064 0
M  V30 23393 H 2224.68 4.34977 -2.14296 0
M  V30 23394 N 2226.02 0.560807 1.47284 0
M  V30 23395 C 2227.25 0.0430626 2.06855 0
M  V30 23396 C 2227.66 -1.25226 1.41293 0
M  V30 23397 O 2227.02 -1.75209 0.510679 0
M  V30 23398 C 2227.07 -0.152455 3.61178 0
M  V30 23399 O 2226.79 1.09158 4.24283 0
M  V30 23400 C 2228.29 -0.707068 4.37625 0
M  V30 23401 H 2225.51 0.047477 0.669318 0
M  V30 23402 H 2228.06 0.775243 1.89236 0
M  V30 23403 H 2226.21 -0.834777 3.78299 0
M  V30 23404 H 2226.62 0.891573 5.16867 0
M  V30 23405 H 2228.1 -0.793148 5.46272 0
M  V30 23406 H 2228.58 -1.71916 4.04155 0
M  V30 23407 H 2229.18 -0.0603279 4.25257 0
M  V30 23408 N 2227.5 -1.54768 0.297442 0
M  V30 23409 C 2228.74 -1.99673 -0.31226 0
M  V30 23410 C 2229.07 -1.18735 -1.54684 0
M  V30 23411 O 2228.34 -0.282416 -1.93854 0
M  V30 23412 H 2226.92 -0.737562 -0.118368 0
M  V30 23413 H 2229.58 -1.90583 0.407949 0
M  V30 23414 H 2228.67 -3.06535 -0.586759 0
M  V30 23415 N 2228.97 -0.0251005 -1.5758 0
M  V30 23416 C 2230.2 0.668282 -1.96338 0
M  V30 23417 C 2230.62 1.65098 -0.901343 0
M  V30 23418 O 2229.98 1.80773 0.138155 0
M  V30 23419 C 2230.03 1.35451 -3.34194 0
M  V30 23420 O 2229.13 2.46968 -3.30273 0
M  V30 23421 H 2228.48 0.175876 -0.640284 0
M  V30 23422 H 2231.01 -0.0857583 -2.0442 0
M  V30 23423 H 2231.02 1.71222 -3.70334 0
M  V30 23424 H 2229.69 0.634146 -4.11037 0
M  V30 23425 H 2228.27 2.13339 -3.05845 0
M  V30 23426 N 2230.45 1.55637 0.247999 0
M  V30 23427 C 2231.4 1.90224 1.30703 0
M  V30 23428 C 2232.37 0.756358 1.4788 0
M  V30 23429 O 2233.55 1.00991 1.61881 0
M  V30 23430 C 2230.69 2.20142 2.65766 0
M  V30 23431 C 2229.81 3.4753 2.56606 0
M  V30 23432 C 2228.94 3.67024 3.84014 0
M  V30 23433 C 2227.98 4.88017 3.69467 0
M  V30 23434 N 2227.12 5.04037 4.88765 0
M  V30 23435 H 2231.96 2.80539 1.00507 0
M  V30 23436 H 2229.5 1.38874 0.485031 0
M  V30 23437 H 2231.45 2.35493 3.44382 0
M  V30 23438 H 2230.08 1.33032 2.94113 0
M  V30 23439 H 2229.14 3.40517 1.69565 0
M  V30 23440 H 2230.45 4.36292 2.41767 0
M  V30 23441 H 2229.6 3.82328 4.71074 0
M  V30 23442 H 2228.34 2.76494 4.01749 0
M  V30 23443 H 2227.35 4.72691 2.80791 0
M  V30 23444 H 2228.57 5.80006 3.53228 0
M  V30 23445 H 2226.52 4.16444 5.06863 0
M  V30 23446 H 2226.43 5.86885 4.76552 0
M  V30 23447 H 2227.7 5.23751 5.77326 0
M  V30 23448 N 2231.93 -0.513613 1.48996 0
M  V30 23449 C 2232.86 -1.63376 1.59322 0
M  V30 23450 C 2233.84 -1.56453 0.442844 0
M  V30 23451 O 2235.03 -1.76692 0.656686 0
M  V30 23452 C 2232.15 -3.01846 1.53645 0
M  V30 23453 C 2231.2 -3.27073 2.73725 0
M  V30 23454 S 2232.03 -3.11563 4.35533 0
M  V30 23455 C 2233.19 -4.5245 4.32481 0
M  V30 23456 H 2233.42 -1.5437 2.54081 0
M  V30 23457 H 2230.95 -0.697824 1.37731 0
M  V30 23458 H 2232.91 -3.81697 1.51056 0
M  V30 23459 H 2231.57 -3.08278 0.601952 0
M  V30 23460 H 2230.77 -4.28128 2.65938 0
M  V30 23461 H 2230.37 -2.54922 2.73662 0
M  V30 23462 H 2232.66 -5.44294 4.03423 0
M  V30 23463 H 2233.6 -4.6529 5.33771 0
M  V30 23464 H 2234.01 -4.32539 3.62726 0
M  V30 23465 N 2233.41 -1.37859 -0.763727 0
M  V30 23466 C 2234.36 -1.34271 -1.87723 0
M  V30 23467 C 2235.33 -0.206908 -1.64806 0
M  V30 23468 O 2236.51 -0.397541 -1.86613 0
M  V30 23469 C 2233.65 -1.16352 -3.24894 0
M  V30 23470 C 2232.76 -2.39231 -3.59711 0
M  V30 23471 C 2231.9 -2.14122 -4.86133 0
M  V30 23472 C 2230.94 -3.32826 -5.13705 0
M  V30 23473 N 2230.08 -3.07217 -6.31318 0
M  V30 23474 H 2234.92 -2.2947 -1.90125 0
M  V30 23475 H 2232.45 -1.14019 -0.929412 0
M  V30 23476 H 2234.41 -1.03982 -4.04034 0
M  V30 23477 H 2233.04 -0.247965 -3.21846 0
M  V30 23478 H 2232.09 -2.62312 -2.75494 0
M  V30 23479 H 2233.4 -3.27734 -3.76021 0
M  V30 23480 H 2232.56 -1.9883 -5.73194 0
M  V30 23481 H 2231.3 -1.22969 -4.71943 0
M  V30 23482 H 2230.3 -3.48649 -4.25116 0
M  V30 23483 H 2231.53 -4.24841 -5.29799 0
M  V30 23484 H 2229.47 -2.18701 -6.18471 0
M  V30 23485 H 2229.39 -3.89265 -6.48081 0
M  V30 23486 H 2230.66 -2.95558 -7.21294 0
M  V30 23487 N 2234.89 0.990791 -1.22561 0
M  V30 23488 C 2235.82 2.09954 -1.02184 0
M  V30 23489 C 2236.8 1.70001 0.0579095 0
M  V30 23490 O 2237.98 1.93917 -0.104718 0
M  V30 23491 C 2235.11 3.42059 -0.601083 0
M  V30 23492 C 2234.07 3.95869 -1.627 0
M  V30 23493 C 2233.39 5.24047 -1.06202 0
M  V30 23494 C 2234.69 4.26315 -3.0175 0
M  V30 23495 H 2236.39 2.27259 -1.9492 0
M  V30 23496 H 2233.93 1.09209 -0.938585 0
M  V30 23497 H 2235.89 4.19037 -0.445634 0
M  V30 23498 H 2234.61 3.24588 0.361948 0
M  V30 23499 H 2233.27 3.21025 -1.77027 0
M  V30 23500 H 2232.92 5.02919 -0.0902787 0
M  V30 23501 H 2232.62 5.61016 -1.74741 0
M  V30 23502 H 2234.14 6.03657 -0.918198 0
M  V30 23503 H 2235.56 4.94081 -2.90786 0
M  V30 23504 H 2233.95 4.74461 -3.67433 0
M  V30 23505 H 2235.02 3.34004 -3.51524 0
M  V30 23506 N 2236.37 1.03564 1.18795 0
M  V30 23507 C 2237.3 0.643058 2.24471 0
M  V30 23508 C 2238.28 -0.351253 1.66434 0
M  V30 23509 O 2239.46 -0.232471 1.92804 0
M  V30 23510 C 2236.59 1.85533e-05 3.473 0
M  V30 23511 C 2235.55 0.91733 4.18054 0
M  V30 23512 C 2234.87 0.139035 5.34519 0
M  V30 23513 C 2236.17 2.23415 4.72105 0
M  V30 23514 H 2237.87 1.52648 2.57564 0
M  V30 23515 H 2235.41 0.735416 1.23805 0
M  V30 23516 H 2237.36 -0.286309 4.20426 0
M  V30 23517 H 2236.09 -0.918243 3.13426 0
M  V30 23518 H 2234.75 1.18796 3.46818 0
M  V30 23519 H 2234.4 -0.781475 4.96892 0
M  V30 23520 H 2234.1 0.750107 5.82793 0
M  V30 23521 H 2235.62 -0.140393 6.10439 0
M  V30 23522 H 2237.03 2.00888 5.36951 0
M  V30 23523 H 2235.43 2.79774 5.30892 0
M  V30 23524 H 2236.5 2.88414 3.89802 0
M  V30 23525 N 2237.84 -1.34926 0.814413 0
M  V30 23526 C 2238.79 -2.31572 0.218465 0
M  V30 23527 C 2239.79 -1.57004 -0.6361 0
M  V30 23528 O 2240.99 -1.7207 -0.52839 0
M  V30 23529 H 2237.37 -0.750207 0.0518931 0
M  V30 23530 H 2239.34 -2.7937 1.04857 0
M  V30 23531 C 2238.09 -3.42271 -0.612009 0
M  V30 23532 H 2237.41 -3.99784 0.0362281 0
M  V30 23533 H 2238.85 -4.12154 -0.995245 0
M  V30 23534 C 2237.31 -2.85987 -1.78082 0
M  V30 23535 O 2237.84 -2.80173 -2.87865 0
M  V30 23536 N 2236.04 -2.42927 -1.59484 0
M  V30 23537 H 2235.59 -2.47855 -0.701831 0
M  V30 23538 H 2235.55 -2.05617 -2.37842 0
M  V30 23539 N 2239.32 -0.56861 -1.46985 0
M  V30 23540 C 2240.25 0.160712 -2.32946 0
M  V30 23541 C 2241.23 0.897605 -1.44489 0
M  V30 23542 O 2242.42 0.875836 -1.73328 0
M  V30 23543 C 2239.55 1.18397 -3.26496 0
M  V30 23544 C 2238.5 0.56282 -4.24283 0
M  V30 23545 C 2237.83 1.69154 -5.07239 0
M  V30 23546 C 2239.13 -0.490853 -5.19988 0
M  V30 23547 H 2240.82 -0.556968 -2.94174 0
M  V30 23548 H 2238.37 -0.269295 -1.4146 0
M  V30 23549 H 2240.32 1.70244 -3.8548 0
M  V30 23550 H 2239.04 1.93174 -2.63346 0
M  V30 23551 H 2237.7 0.0655519 -3.66541 0
M  V30 23552 H 2237.35 2.42863 -4.40485 0
M  V30 23553 H 2237.05 1.28164 -5.73452 0
M  V30 23554 H 2238.58 2.21304 -5.69084 0
M  V30 23555 H 2239.99 -0.0580055 -5.73271 0
M  V30 23556 H 2238.39 -0.820269 -5.94467 0
M  V30 23557 H 2239.46 -1.38248 -4.64775 0
M  V30 23558 N 2240.8 1.54608 -0.305646 0
M  V30 23559 C 2242.03 2.04347 0.304297 0
M  V30 23560 C 2242.44 1.18226 1.47713 0
M  V30 23561 O 2241.78 0.201609 1.8259 0
M  V30 23562 C 2241.84 3.50047 0.818969 0
M  V30 23563 C 2241.51 4.56425 -0.2292 0
M  V30 23564 C 2242.5 5.08995 -1.05923 0
M  V30 23565 C 2240.19 5.00919 -0.372236 0
M  V30 23566 C 2242.18 6.04605 -2.0182 0
M  V30 23567 C 2239.87 5.96348 -1.33464 0
M  V30 23568 C 2240.87 6.48075 -2.1561 0
M  V30 23569 O 2240.56 7.41633 -3.10218 0
M  V30 23570 H 2240.29 0.672429 0.0693877 0
M  V30 23571 H 2242.84 2.00531 -0.444583 0
M  V30 23572 H 2241.07 3.51202 1.61845 0
M  V30 23573 H 2242.76 3.82958 1.3453 0
M  V30 23574 H 2243.53 4.75412 -0.959621 0
M  V30 23575 H 2239.41 4.60282 0.257223 0
M  V30 23576 H 2242.95 6.44905 -2.65977 0
M  V30 23577 H 2238.85 6.29348 -1.43496 0
M  V30 23578 H 2239.61 7.5945 -3.0525 0
M  V30 23579 N 2242.28 0.033457 1.57564 0
M  V30 23580 C 2243.53 -0.643605 1.91156 0
M  V30 23581 C 2243.84 -1.7304 0.91195 0
M  V30 23582 O 2245.05 -2.4644 1.13927 0
M  V30 23583 C 2243.5 -1.19604 3.39445 0
M  V30 23584 C 2243.11 -0.142303 4.47774 0
M  V30 23585 C 2244.85 -1.84937 3.82098 0
M  V30 23586 C 2242.76 -0.706624 5.87163 0
M  V30 23587 H 2241.69 -0.244164 0.713372 0
M  V30 23588 H 2244.34 0.0994645 1.8323 0
M  V30 23589 H 2242.72 -1.99086 3.42317 0
M  V30 23590 H 2243.9 0.630376 4.56468 0
M  V30 23591 H 2242.21 0.412519 4.14352 0
M  V30 23592 H 2244.81 -2.28122 4.83595 0
M  V30 23593 H 2245.15 -2.69386 3.17391 0
M  V30 23594 H 2245.69 -1.12138 3.81667 0
M  V30 23595 H 2242.42 0.099833 6.55424 0
M  V30 23596 H 2241.94 -1.44769 5.82067 0
M  V30 23597 H 2243.62 -1.19503 6.35868 0
M  V30 23598 N 2243.76 -1.55766 -0.239741 0
M  V30 23599 C 2244.7 -1.90915 -1.29693 0
M  V30 23600 C 2245.67 -0.76419 -1.47477 0
M  V30 23601 O 2246.86 -1.01848 -1.61343 0
M  V30 23602 C 2244 -2.21549 -2.64594 0
M  V30 23603 C 2243.11 -3.48886 -2.54759 0
M  V30 23604 C 2242.25 -3.69055 -3.82062 0
M  V30 23605 C 2241.28 -4.89969 -3.66874 0
M  V30 23606 N 2240.42 -5.06622 -4.86085 0
M  V30 23607 H 2245.26 -2.81069 -0.990175 0
M  V30 23608 H 2242.8 -1.39129 -0.477659 0
M  V30 23609 H 2244.76 -2.37316 -3.43128 0
M  V30 23610 H 2243.39 -1.3459 -2.93403 0
M  V30 23611 H 2242.44 -3.41412 -1.67757 0
M  V30 23612 H 2243.75 -4.37568 -2.3945 0
M  V30 23613 H 2242.9 -3.84821 -4.69039 0
M  V30 23614 H 2241.64 -2.78621 -4.00277 0
M  V30 23615 H 2240.65 -4.74173 -2.7828 0
M  V30 23616 H 2241.87 -5.81871 -3.50147 0
M  V30 23617 H 2239.82 -4.19126 -5.04647 0
M  V30 23618 H 2239.74 -5.89404 -4.73433 0
M  V30 23619 H 2241 -5.26806 -5.7454 0
M  V30 23620 N 2245.23 0.505704 -1.49266 0
M  V30 23621 C 2246.65 0.836462 -1.35925 0
M  V30 23622 C 2246.85 1.97715 -0.388739 0
M  V30 23623 O 2245.91 2.51848 0.181291 0
M  V30 23624 C 2247.22 1.1811 -2.76533 0
M  V30 23625 C 2248.77 1.28959 -2.85199 0
M  V30 23626 C 2249.24 1.66754 -4.26564 0
M  V30 23627 N 2250.73 1.73812 -4.29353 0
M  V30 23628 C 2251.47 2.04491 -5.35697 0
M  V30 23629 N 2250.96 2.33427 -6.52291 0
M  V30 23630 N 2252.76 2.05702 -5.23109 0
M  V30 23631 H 2244.91 -0.246556 -2.10964 0
M  V30 23632 H 2247.17 -0.0477053 -0.946799 0
M  V30 23633 H 2246.88 0.416337 -3.49227 0
M  V30 23634 H 2246.75 2.12565 -3.11602 0
M  V30 23635 H 2249.14 2.04507 -2.12746 0
M  V30 23636 H 2249.22 0.32566 -2.53719 0
M  V30 23637 H 2248.86 0.917568 -4.99543 0
M  V30 23638 H 2248.79 2.64238 -4.55506 0
M  V30 23639 H 2251.28 1.53629 -3.45263 0
M  V30 23640 H 2251.6 2.56011 -7.29163 0
M  V30 23641 H 2249.94 2.30893 -6.55525 0
M  V30 23642 H 2253.13 1.8257 -4.31029 0
M  V30 23643 H 2253.31 2.29278 -6.06082 0
M  V30 23644 N 2246.71 1.38262 0.756405 0
M  V30 23645 C 2247.68 1.35068 1.85173 0
M  V30 23646 C 2248.68 0.251731 1.58817 0
M  V30 23647 O 2249.87 0.508462 1.66614 0
M  V30 23648 C 2247 1.10207 3.22595 0
M  V30 23649 H 2248.19 2.32514 1.89413 0
M  V30 23650 H 2245.74 1.23514 0.957808 0
M  V30 23651 H 2246.48 0.133561 3.24025 0
M  V30 23652 H 2246.26 1.89768 3.43119 0
M  V30 23653 H 2247.75 1.10661 4.02671 0
M  V30 23654 N 2248.19 -0.984277 1.23084 0
M  V30 23655 C 2249.12 -2.0783 0.966397 0
M  V30 23656 C 2250.14 -1.62696 -0.0581849 0
M  V30 23657 O 2251.32 -1.77622 0.176875 0
M  V30 23658 C 2248.42 -3.36117 0.433456 0
M  V30 23659 C 2247.6 -4.1024 1.51729 0
M  V30 23660 C 2246.66 -5.16805 0.989912 0
M  V30 23661 O 2245.68 -5.43903 1.67803 0
M  V30 23662 N 2246.88 -5.80207 -0.184265 0
M  V30 23663 H 2249.65 -2.31094 1.90829 0
M  V30 23664 H 2247.21 -1.15068 1.1389 0
M  V30 23665 H 2249.2 -4.04647 0.0657701 0
M  V30 23666 H 2247.77 -3.0985 -0.413752 0
M  V30 23667 H 2246.99 -3.36219 2.05792 0
M  V30 23668 H 2248.28 -4.5653 2.24627 0
M  V30 23669 H 2247.68 -5.60572 -0.759963 0
M  V30 23670 H 2246.24 -6.49931 -0.493252 0
M  V30 23671 N 2249.67 -1.04192 -1.18244 0
M  V30 23672 C 2250.9 -0.766106 -1.92194 0
M  V30 23673 C 2251.31 0.676902 -1.76248 0
M  V30 23674 O 2250.67 1.46153 -1.09296 0
M  V30 23675 C 2250.72 -1.12448 -3.43566 0
M  V30 23676 O 2250.44 -2.51084 -3.5901 0
M  V30 23677 C 2251.94 -0.873351 -4.34612 0
M  V30 23678 H 2249.16 -0.279299 -0.610109 0
M  V30 23679 H 2251.71 -1.38992 -1.50005 0
M  V30 23680 H 2249.86 -0.54561 -3.83539 0
M  V30 23681 H 2250.27 -2.64839 -4.52726 0
M  V30 23682 H 2251.75 -1.17395 -5.39372 0
M  V30 23683 H 2252.23 0.191832 -4.38781 0
M  V30 23684 H 2252.83 -1.43558 -4.00339 0
M  V30 23685 N 2251.15 1.34492 -0.821557 0
M  V30 23686 C 2252.37 2.02552 -0.42192 0
M  V30 23687 C 2252.79 1.61874 0.971717 0
M  V30 23688 O 2252.15 0.823524 1.62863 0
M  V30 23689 C 2252.2 3.57843 -0.512913 0
M  V30 23690 O 2251.92 3.97047 -1.85162 0
M  V30 23691 C 2253.42 4.43168 -0.107999 0
M  V30 23692 H 2250.64 0.64924 -0.169494 0
M  V30 23693 H 2253.18 1.71796 -1.10933 0
M  V30 23694 H 2251.34 3.87194 0.126406 0
M  V30 23695 H 2251.75 4.91729 -1.82491 0
M  V30 23696 H 2253.23 5.5155 -0.222754 0
M  V30 23697 H 2253.7 4.2884 0.948325 0
M  V30 23698 H 2254.31 4.19143 -0.721062 0
M  V30 23699 N 2252.62 0.576397 1.46681 0
M  V30 23700 C 2253.57 -0.173309 2.31953 0
M  V30 23701 C 2254.57 -0.890595 1.441 0
M  V30 23702 O 2255.77 -0.8097 1.6076 0
M  V30 23703 H 2252.15 -0.0747595 0.748275 0
M  V30 23704 H 2254.12 0.564789 2.93006 0
M  V30 23705 C 2252.87 -1.1778 3.27144 0
M  V30 23706 H 2252.19 -0.635291 3.9472 0
M  V30 23707 H 2253.63 -1.67289 3.89603 0
M  V30 23708 C 2252.09 -2.23556 2.5204 0
M  V30 23709 O 2252.62 -3.30806 2.27882 0
M  V30 23710 N 2250.83 -1.97995 2.12712 0
M  V30 23711 H 2250.37 -1.10788 2.32559 0
M  V30 23712 H 2250.33 -2.68979 1.6278 0
M  V30 23713 N 2254.1 -1.54444 0.313841 0
M  V30 23714 C 2255.33 -2.05268 -0.296645 0
M  V30 23715 C 2255.75 -1.189 -1.45755 0
M  V30 23716 O 2255.11 -0.195917 -1.80238 0
M  V30 23717 C 2255.16 -3.53375 -0.718248 0
M  V30 23718 O 2254.26 -3.69985 -1.82168 0
M  V30 23719 H 2253.6 -0.661685 -0.0553944 0
M  V30 23720 H 2256.13 -1.99375 0.459422 0
M  V30 23721 H 2256.14 -3.95465 -1.00357 0
M  V30 23722 H 2254.82 -4.15694 0.130894 0
M  V30 23723 H 2253.4 -3.398 -1.53592 0
M  V30 23724 N 2255.58 -0.0418125 -1.57545 0
M  V30 23725 C 2256.53 0.953686 -2.1215 0
M  V30 23726 C 2257.52 1.3285 -1.05106 0
M  V30 23727 O 2258.73 1.30925 -1.23526 0
M  V30 23728 H 2255.1 0.325377 -0.677963 0
M  V30 23729 H 2257.07 0.467939 -2.94708 0
M  V30 23730 C 2255.82 2.22252 -2.67394 0
M  V30 23731 H 2255.15 1.94288 -3.49417 0
M  V30 23732 H 2256.59 2.90088 -3.09232 0
M  V30 23733 C 2255.05 2.96088 -1.60729 0
M  V30 23734 O 2255.58 3.88677 -1.01455 0
M  V30 23735 N 2253.78 2.5865 -1.32471 0
M  V30 23736 H 2253.33 1.83434 -1.80859 0
M  V30 23737 H 2253.29 3.0836 -0.613304 0
M  V30 23738 N 2257.06 1.55891 0.231477 0
M  V30 23739 C 2258.28 1.82858 0.978657 0
M  V30 23740 C 2258.71 0.620877 1.77558 0
M  V30 23741 O 2258.07 -0.430274 1.7612 0
M  V30 23742 C 2258.11 3.0772 1.87992 0
M  V30 23743 O 2257.22 2.85717 2.97388 0
M  V30 23744 H 2256.56 0.603162 0.277653 0
M  V30 23745 H 2259.09 2.03094 0.247795 0
M  V30 23746 H 2259.1 3.37562 2.29164 0
M  V30 23747 H 2257.77 3.95254 1.2941 0
M  V30 23748 H 2256.35 2.67083 2.60233 0
M  V30 23749 N 2258.54 -0.497781 1.49532 0
M  V30 23750 C 2259.76 -1.28036 1.63161 0
M  V30 23751 C 2260.19 -1.85624 0.304213 0
M  V30 23752 O 2259.54 -1.66016 -0.728589 0
M  V30 23753 C 2259.59 -2.38411 2.70541 0
M  V30 23754 O 2258.7 -3.42349 2.29937 0
M  V30 23755 H 2258.04 -0.377851 0.546008 0
M  V30 23756 H 2260.57 -0.595546 1.95741 0
M  V30 23757 H 2260.58 -2.84127 2.92807 0
M  V30 23758 H 2259.25 -1.95863 3.66893 0
M  V30 23759 H 2257.83 -3.0253 2.18014 0
M  V30 23760 N 2260.01 -1.38661 -0.749062 0
M  V30 23761 C 2261.24 -1.3854 -1.54342 0
M  V30 23762 C 2261.66 0.0216325 -1.88088 0
M  V30 23763 O 2261.02 1.00491 -1.50901 0
M  V30 23764 C 2261.07 -2.25197 -2.81636 0
M  V30 23765 O 2260.17 -1.67218 -3.76977 0
M  V30 23766 H 2259.52 -0.472375 -0.466646 0
M  V30 23767 H 2262.05 -1.8248 -0.925323 0
M  V30 23768 H 2262.06 -2.39215 -3.30515 0
M  V30 23769 H 2260.73 -3.27459 -2.56405 0
M  V30 23770 H 2259.31 -1.62366 -3.35696 0
M  V30 23771 N 2261.49 0.977736 -1.23605 0
M  V30 23772 C 2262.72 1.75989 -1.09738 0
M  V30 23773 C 2263.14 1.84875 0.346825 0
M  V30 23774 O 2262.5 1.31232 1.25091 0
M  V30 23775 C 2262.55 3.1636 -1.73057 0
M  V30 23776 O 2261.65 4.00229 -0.994522 0
M  V30 23777 H 2260.99 0.541357 -0.384485 0
M  V30 23778 H 2263.52 1.22717 -1.63712 0
M  V30 23779 H 2263.53 3.66928 -1.78404 0
M  V30 23780 H 2262.21 3.09208 -2.78142 0
M  V30 23781 H 2260.79 3.5873 -1.01818 0
M  V30 23782 N 2262.97 1.04818 1.1769 0
M  V30 23783 C 2264.2 0.776241 1.92326 0
M  V30 23784 C 2264.62 -0.661551 1.76083 0
M  V30 23785 O 2263.98 -1.45916 1.07603 0
M  V30 23786 C 2264.03 1.15693 3.41537 0
M  V30 23787 O 2263.13 0.286848 4.11401 0
M  V30 23788 H 2262.47 0.284992 0.59973 0
M  V30 23789 H 2265 1.40003 1.49199 0
M  V30 23790 H 2265.01 1.12209 3.92267 0
M  V30 23791 H 2263.69 2.20431 3.5268 0
M  V30 23792 H 2262.26 0.381969 3.70939 0
M  V30 23793 N 2264.45 -1.34055 0.828678 0
M  V30 23794 C 2265.73 -1.9259 0.341842 0
M  V30 23795 C 2266.11 -1.75607 -1.17155 0
M  V30 23796 O 2265.45 -1.13827 -1.9813 0
M  V30 23797 C 2265.66 -3.40229 0.777512 0
M  V30 23798 C 2267.01 -4.17381 0.779652 0
M  V30 23799 O 2268.04 -3.48838 0.720461 0
M  V30 23800 O 2266.9 -5.39721 0.858091 0
M  V30 23801 H 2263.99 -0.821569 0.0946229 0
M  V30 23802 H 2266.54 -1.42992 0.913852 0
M  V30 23803 H 2265.31 -3.46416 1.81966 0
M  V30 23804 H 2264.93 -3.97185 0.181514 0
M  V30 23805 N 2265.93 -0.584167 -1.46374 0
M  V30 23806 C 2267.17 -0.0704072 -2.02678 0
M  V30 23807 C 2267.51 1.28676 -1.45452 0
M  V30 23808 O 2266.78 1.84348 -0.620172 0
M  V30 23809 C 2267.06 -0.00621004 -3.60099 0
M  V30 23810 C 2266.92 -1.39238 -4.27707 0
M  V30 23811 C 2268.24 0.693666 -4.34599 0
M  V30 23812 H 2265.36 -0.0270599 -0.736503 0
M  V30 23813 H 2268 -0.751646 -1.745 0
M  V30 23814 H 2266.15 0.573942 -3.84237 0
M  V30 23815 H 2267.82 -2.01781 -4.14828 0
M  V30 23816 H 2266.06 -1.95969 -3.87013 0
M  V30 23817 H 2266.73 -1.29991 -5.36476 0
M  V30 23818 H 2269.21 0.200796 -4.15615 0
M  V30 23819 H 2268.09 0.707618 -5.4432 0
M  V30 23820 H 2268.35 1.75526 -4.05762 0
M  V30 23821 N 2267.41 1.54275 -0.322027 0
M  V30 23822 C 2268.63 2.05422 0.285755 0
M  V30 23823 C 2269.06 1.19671 1.45122 0
M  V30 23824 O 2268.41 0.205473 1.80132 0
M  V30 23825 C 2268.46 3.5375 0.699497 0
M  V30 23826 O 2267.57 3.70945 1.80203 0
M  V30 23827 H 2266.91 0.66197 0.0518846 0
M  V30 23828 H 2269.44 1.99129 -0.469989 0
M  V30 23829 H 2269.45 3.95992 0.982579 0
M  V30 23830 H 2268.12 4.15619 -0.152937 0
M  V30 23831 H 2266.7 3.40609 1.51788 0
M  V30 23832 N 2268.88 0.0501669 1.5752 0
M  V30 23833 C 2270.11 -0.633457 1.96964 0
M  V30 23834 C 2270.53 -1.64438 0.92766 0
M  V30 23835 O 2269.88 -1.82287 -0.0882344 0
M  V30 23836 C 2269.93 -1.32126 3.36489 0
M  V30 23837 O 2269.66 -0.350817 4.36693 0
M  V30 23838 C 2271.16 -2.09474 3.90686 0
M  V30 23839 H 2268.38 -0.173255 0.648247 0
M  V30 23840 H 2270.92 0.116169 2.0417 0
M  V30 23841 H 2269.08 -2.02212 3.30437 0
M  V30 23842 H 2269.49 -0.841644 5.17703 0
M  V30 23843 H 2270.96 -2.53021 4.90596 0
M  V30 23844 H 2271.44 -2.94249 3.26059 0
M  V30 23845 H 2272.05 -1.443 4.00072 0
M  V30 23846 N 2270.36 -1.56011 -0.223207 0
M  V30 23847 C 2271.31 -1.88676 -1.28005 0
M  V30 23848 C 2272.3 -0.749688 -1.42367 0
M  V30 23849 O 2273.49 -1.01207 -1.4521 0
M  V30 23850 C 2270.62 -2.20553 -2.63081 0
M  V30 23851 C 2269.7 -3.40648 -2.52626 0
M  V30 23852 N 2270.09 -4.5931 -2.11821 0
M  V30 23853 C 2268.39 -3.44229 -2.83588 0
M  V30 23854 C 2269.09 -5.41466 -2.12577 0
M  V30 23855 N 2268.07 -4.81136 -2.53001 0
M  V30 23856 H 2271.87 -2.77936 -0.955438 0
M  V30 23857 H 2269.38 -1.56555 -0.431773 0
M  V30 23858 H 2271.38 -2.42128 -3.39381 0
M  V30 23859 H 2270.04 -1.32604 -2.96389 0
M  V30 23860 H 2271.05 -4.84499 -1.82979 0
M  V30 23861 H 2267.73 -2.66619 -3.21279 0
M  V30 23862 H 2269.12 -6.46451 -1.83168 0
M  V30 23863 N 2271.84 0.489844 -1.49794 0
M  V30 23864 C 2273.06 1.27169 -1.63838 0
M  V30 23865 C 2273.49 1.8546 -0.314053 0
M  V30 23866 O 2272.85 1.664 0.719774 0
M  V30 23867 C 2272.9 2.36973 -2.71801 0
M  V30 23868 O 2272 3.41124 -2.3175 0
M  V30 23869 H 2271.34 0.37495 -0.548004 0
M  V30 23870 H 2273.87 0.585157 -1.96054 0
M  V30 23871 H 2273.88 2.8257 -2.9431 0
M  V30 23872 H 2272.56 1.93915 -3.67927 0
M  V30 23873 H 2271.13 3.01369 -2.19616 0
M  V30 23874 O 2273.36 1.48482 0.635233 0
M  V30 23875 H 2274.05 1.44566 1.2892 0
M  V30 END ATOM
M  V30 BEGIN BOND
M  V30 END BOND
M  V30 END CTAB
M  END
$$$$
