drugbank_target|Q816R0 Molybdenum cofactor biosynthesis protein B (DB03366)
 OpenBabel12092120273D

  0  0  0     0  0            999 V3000
M  V30 BEGIN CTAB
M  V30 COUNTS 2639 2654 0 0 0
M  V30 BEGIN ATOM
M  V30 1 H -0.908 1.98254 -0.117106 0
M  V30 2 N 0 1.576 0 0
M  V30 3 C 0.933 2.03868 1.02534 0
M  V30 4 C 1.911 0.928543 1.3348 0
M  V30 5 O 3.095 1.19667 1.45644 0
M  V30 6 C 0.222 2.43627 2.35294 0
M  V30 7 C -0.732 3.65373 2.2001 0
M  V30 8 S 0.101 5.13292 1.52614 0
M  V30 9 C 1.257 5.56322 2.86805 0
M  V30 10 H 1.49 2.90518 0.631377 0
M  V30 11 H -0.977 1.52953 0.210867 0
M  V30 12 H 0.981 2.67203 3.11629 0
M  V30 13 H -0.358 1.57376 2.7183 0
M  V30 14 H -1.165 3.90944 3.18086 0
M  V30 15 H -1.563 3.418 1.51819 0
M  V30 16 H 0.729 5.58782 3.83104 0
M  V30 17 H 1.672 6.56266 2.65933 0
M  V30 18 H 2.08 4.83886 2.90714 0
M  V30 19 N 1.4781 -0.272755 1.55222 0
M  V30 20 C 2.7031 -1.02683 1.80197 0
M  V30 21 C 3.1281 -1.79142 0.573551 0
M  V30 22 O 2.4861 -1.74917 -0.476849 0
M  V30 23 C 2.5341 -1.9609 3.02624 0
M  V30 24 O 1.6381 -3.04863 2.77727 0
M  V30 25 H 0.9791 -0.293557 0.595584 0
M  V30 26 H 3.5091 -0.30159 2.02365 0
M  V30 27 H 3.5191 -2.38039 3.31363 0
M  V30 28 H 2.1941 -1.39851 3.91682 0
M  V30 29 H 0.7711 -2.67228 2.60084 0
M  V30 30 N 2.9562 -1.48159 -0.537278 0
M  V30 31 C 4.2022 -1.56035 -1.29541 0
M  V30 32 C 4.5352 -0.230377 -1.92829 0
M  V30 33 O 3.8102 0.762952 -1.78911 0
M  V30 34 C 4.0932 -2.69323 -2.39034 0
M  V30 35 C 3.9462 -4.12002 -1.80485 0
M  V30 36 C 5.2652 -2.78408 -3.40847 0
M  V30 37 H 2.3842 -0.567992 -0.469632 0
M  V30 38 H 5.0262 -1.80302 -0.599277 0
M  V30 39 H 3.1762 -2.48763 -2.98412 0
M  V30 40 H 4.8482 -4.43981 -1.25215 0
M  V30 41 H 3.0912 -4.19344 -1.11055 0
M  V30 42 H 3.7622 -4.87077 -2.59731 0
M  V30 43 H 6.2382 -2.97012 -2.91416 0
M  V30 44 H 5.1142 -3.59416 -4.14863 0
M  V30 45 H 5.3752 -1.86269 -4.00944 0
M  V30 46 N 4.4343 0.785586 -1.36625 0
M  V30 47 C 5.6623 1.57448 -1.3423 0
M  V30 48 C 6.0773 1.88649 0.0755653 0
M  V30 49 O 5.4343 1.50414 1.03354 0
M  V30 50 C 5.4853 2.89316 -2.16745 0
M  V30 51 O 5.2063 2.59459 -3.53005 0
M  V30 52 C 6.7073 3.83606 -2.22174 0
M  V30 53 H 3.9273 0.488226 -0.4603 0
M  V30 54 H 6.4713 0.974733 -1.79775 0
M  V30 55 H 4.6263 3.4575 -1.74745 0
M  V30 56 H 5.0403 3.43804 -3.96105 0
M  V30 57 H 6.5143 4.73181 -2.8426 0
M  V30 58 H 6.9913 4.21734 -1.22627 0
M  V30 59 H 7.5973 3.33104 -2.64427 0
M  V30 60 N 5.9124 1.20967 1.01018 0
M  V30 61 C 6.8224 0.980157 2.13143 0
M  V30 62 C 7.8384 -0.0660665 1.73875 0
M  V30 63 O 9.0144 0.122821 2.01025 0
M  V30 64 C 6.0794 0.54216 3.42435 0
M  V30 65 C 5.1404 1.65999 3.95908 0
M  V30 66 C 4.3734 1.2428 5.19028 0
M  V30 67 O 4.5964 0.114196 5.70286 0
M  V30 68 O 3.5304 2.05271 5.65816 0
M  V30 69 H 7.3564 1.91913 2.35379 0
M  V30 70 H 4.9414 0.994099 1.11526 0
M  V30 71 H 6.8234 0.30744 4.20277 0
M  V30 72 H 5.4984 -0.36815 3.216 0
M  V30 73 H 4.4054 1.94906 3.19316 0
M  V30 74 H 5.7384 2.54753 4.21143 0
M  V30 75 N 7.3905 -1.2043 1.01659 0
M  V30 76 C 8.3405 -2.21076 0.557623 0
M  V30 77 C 9.3245 -1.56176 -0.387029 0
M  V30 78 O 10.5165 -1.7575 -0.209996 0
M  V30 79 C 7.6455 -3.43146 -0.102707 0
M  V30 80 C 6.7315 -4.15213 0.863652 0
M  V30 81 N 7.1225 -4.63662 2.02117 0
M  V30 82 C 5.4205 -4.40716 0.684472 0
M  V30 83 C 6.1215 -5.18868 2.62966 0
M  V30 84 N 5.0975 -5.0893 1.91027 0
M  V30 85 H 8.8995 -2.56201 1.44008 0
M  V30 86 H 6.4135 -1.36366 0.881931 0
M  V30 87 H 8.4105 -4.14475 -0.449054 0
M  V30 88 H 7.0705 -3.09526 -0.981003 0
M  V30 89 H 8.0815 -4.58877 2.40109 0
M  V30 90 H 4.7585 -4.17245 -0.14577 0
M  V30 91 H 6.1485 -5.6673 3.60924 0
M  V30 92 N 8.8686 -0.792821 -1.36206 0
M  V30 93 C 9.8156 -0.191653 -2.30003 0
M  V30 94 C 10.7856 0.666453 -1.52143 0
M  V30 95 O 11.9706 0.61442 -1.80636 0
M  V30 96 C 9.1106 0.664848 -3.38635 0
M  V30 97 C 8.2236 -0.212175 -4.31479 0
M  V30 98 C 7.3586 0.651022 -5.27196 0
M  V30 99 C 6.3976 -0.227247 -6.11678 0
M  V30 100 N 5.5346 0.595127 -6.99573 0
M  V30 101 H 10.3746 -0.996978 -2.80828 0
M  V30 102 H 7.9116 -0.503206 -1.38225 0
M  V30 103 H 9.8696 1.17645 -4.00269 0
M  V30 104 H 8.4996 1.43557 -2.89122 0
M  V30 105 H 7.5516 -0.841777 -3.70969 0
M  V30 106 H 8.8636 -0.888751 -4.90818 0
M  V30 107 H 8.0176 1.2283 -5.94136 0
M  V30 108 H 6.7566 1.36121 -4.68319 0
M  V30 109 H 5.7616 -0.816904 -5.43697 0
M  V30 110 H 6.9866 -0.93509 -6.72631 0
M  V30 111 H 4.9326 1.28955 -6.432 0
M  V30 112 H 4.8496 -0.0236952 -7.55996 0
M  V30 113 H 6.1176 1.15613 -7.70879 0
M  V30 114 N 10.3467 1.47872 -0.545128 0
M  V30 115 C 11.2937 2.29849 0.2093 0
M  V30 116 C 12.2637 1.38313 0.919707 0
M  V30 117 O 13.4487 1.67277 0.917772 0
M  V30 118 C 10.5887 3.22019 1.24088 0
M  V30 119 C 9.7017 4.2864 0.537778 0
M  V30 120 C 8.8367 5.07973 1.5536 0
M  V30 121 C 7.8757 6.06381 0.8348 0
M  V30 122 N 7.0127 6.78717 1.79688 0
M  V30 123 H 11.8527 2.93845 -0.49591 0
M  V30 124 H 9.3897 1.44848 -0.256389 0
M  V30 125 H 11.3477 3.73868 1.85144 0
M  V30 126 H 9.9777 2.59914 1.91428 0
M  V30 127 H 9.0297 3.7994 -0.187046 0
M  V30 128 H 10.3417 4.98793 -0.0258907 0
M  V30 129 H 9.4957 5.63912 2.23803 0
M  V30 130 H 8.2347 4.37693 2.15118 0
M  V30 131 H 7.2397 5.49631 0.136388 0
M  V30 132 H 8.4647 6.78665 0.24313 0
M  V30 133 H 6.4107 6.11177 2.38326 0
M  V30 134 H 6.3277 7.44998 1.28505 0
M  V30 135 H 7.5957 7.39237 2.47282 0
M  V30 136 N 11.8248 0.280983 1.55075 0
M  V30 137 C 12.7568 -0.637268 2.20163 0
M  V30 138 C 13.7698 -1.11298 1.18813 0
M  V30 139 O 14.9588 -1.03388 1.4551 0
M  V30 140 C 12.0588 -1.88199 2.81841 0
M  V30 141 C 11.2318 -1.55211 4.08936 0
M  V30 142 C 10.2908 -2.64991 4.54606 0
M  V30 143 O 9.3168 -2.30929 5.2025 0
M  V30 144 N 10.5188 -3.95161 4.25238 0
M  V30 145 H 13.2838 -0.0801694 2.99593 0
M  V30 146 H 10.8448 0.102329 1.61576 0
M  V30 147 H 12.8368 -2.60948 3.09335 0
M  V30 148 H 11.4068 -2.34799 2.06369 0
M  V30 149 H 10.6268 -0.658185 3.88666 0
M  V30 150 H 11.9148 -1.30681 4.91732 0
M  V30 151 H 11.3128 -4.25653 3.72607 0
M  V30 152 H 9.8698 -4.6427 4.5749 0
M  V30 153 N 13.3029 -1.57598 0.00835791 0
M  V30 154 C 14.2659 -2.07884 -0.965242 0
M  V30 155 C 15.2659 -0.989825 -1.26725 0
M  V30 156 O 16.4559 -1.25218 -1.21104 0
M  V30 157 C 13.5879 -2.52731 -2.28779 0
M  V30 158 H 14.7809 -2.95178 -0.530112 0
M  V30 159 H 12.3339 -1.54458 -0.239283 0
M  V30 160 H 13.0689 -1.68705 -2.76964 0
M  V30 161 H 12.8539 -3.32272 -2.08177 0
M  V30 162 H 14.3439 -2.91933 -2.98605 0
M  V30 163 N 14.781 0.264519 -1.55364 0
M  V30 164 C 16.192 0.834936 -1.6699 0
M  V30 165 C 16.543 1.86718 -0.602552 0
M  V30 166 O 15.668 2.14899 0.254425 0
M  V30 167 C 16.263 1.5212 -3.02729 0
M  V30 168 C 14.822 2.03954 -3.16354 0
M  V30 169 C 13.969 0.884498 -2.62815 0
M  V30 170 H 16.92 0.0406869 -1.58648 0
M  V30 171 H 16.941 2.38853 -2.96191 0
M  V30 172 H 16.453 0.769668 -3.80392 0
M  V30 173 H 14.554 2.82041 -2.43482 0
M  V30 174 H 14.667 2.24902 -4.23032 0
M  V30 175 H 13.031 1.2802 -2.20188 0
M  V30 176 H 13.814 0.14634 -3.42988 0
M  V30 177 N 16.2591 1.48442 0.529413 0
M  V30 178 C 17.2061 1.63007 1.63394 0
M  V30 179 C 18.1761 0.47212 1.59249 0
M  V30 180 O 19.3611 0.695673 1.77666 0
M  V30 181 C 16.5011 1.6763 3.01653 0
M  V30 182 C 15.6141 2.94535 3.16027 0
M  V30 183 C 14.7491 2.90316 4.44849 0
M  V30 184 C 13.7881 4.11923 4.52754 0
M  V30 185 N 12.9251 4.05777 5.72965 0
M  V30 186 H 17.7651 2.5733 1.50285 0
M  V30 187 H 15.3021 1.27613 0.731656 0
M  V30 188 H 17.2601 1.68292 3.81751 0
M  V30 189 H 15.8901 0.76797 3.13532 0
M  V30 190 H 14.9421 3.03615 2.29177 0
M  V30 191 H 16.2541 3.84512 3.17729 0
M  V30 192 H 15.4081 2.89382 5.33238 0
M  V30 193 H 14.1471 1.98068 4.45668 0
M  V30 194 H 13.1521 4.13131 3.62771 0
M  V30 195 H 14.3771 5.0533 4.53672 0
M  V30 196 H 12.3231 3.16351 5.74681 0
M  V30 197 H 12.2401 4.8946 5.76164 0
M  V30 198 H 13.5081 4.08904 6.6364 0
M  V30 199 N 17.7372 -0.778329 1.37039 0
M  V30 200 C 18.6472 -1.92253 1.34446 0
M  V30 201 C 19.6632 -1.72267 0.244991 0
M  V30 202 O 20.8392 -1.95615 0.479258 0
M  V30 203 C 17.9042 -3.27282 1.144 0
M  V30 204 C 16.9652 -3.59969 2.33925 0
M  V30 205 C 16.1982 -4.88555 2.14825 0
M  V30 206 O 16.4212 -5.59113 1.12912 0
M  V30 207 O 15.3552 -5.20153 3.02861 0
M  V30 208 H 19.1812 -1.97392 2.30803 0
M  V30 209 H 16.7662 -0.920154 1.17701 0
M  V30 210 H 18.6482 -4.08062 1.05182 0
M  V30 211 H 17.3232 -3.23011 0.211124 0
M  V30 212 H 16.2302 -2.7945 2.48714 0
M  V30 213 H 17.5632 -3.68976 3.25757 0
M  V30 214 N 19.2153 -1.21501 -1.00376 0
M  V30 215 C 20.4613 -1.03452 -1.74429 0
M  V30 216 C 20.7943 0.430764 -1.89362 0
M  V30 217 O 20.0693 1.31962 -1.42886 0
M  V30 218 C 20.3523 -1.73375 -3.15615 0
M  V30 219 C 20.2053 -3.27431 -3.08397 0
M  V30 220 C 21.5243 -1.47732 -4.14564 0
M  V30 221 H 18.6433 -0.377226 -0.633143 0
M  V30 222 H 21.2853 -1.49693 -1.17013 0
M  V30 223 H 19.4353 -1.34064 -3.64636 0
M  V30 224 H 21.1073 -3.76119 -2.67081 0
M  V30 225 H 19.3503 -3.5767 -2.45468 0
M  V30 226 H 20.0213 -3.71524 -4.08258 0
M  V30 227 H 22.4973 -1.8186 -3.74254 0
M  V30 228 H 21.3733 -1.99169 -5.11491 0
M  V30 229 H 21.6343 -0.407589 -4.40217 0
M  V30 230 N 20.6934 1.19889 -1.02296 0
M  V30 231 C 22.1094 1.41462 -0.738954 0
M  V30 232 C 22.3094 1.89721 0.678846 0
M  V30 233 O 21.3654 2.07016 1.4457 0
M  V30 234 C 22.6784 2.43083 -1.77005 0
M  V30 235 C 24.2264 2.5684 -1.78892 0
M  V30 236 C 24.7014 3.61709 -2.80945 0
M  V30 237 N 26.1924 3.69199 -2.79725 0
M  V30 238 C 26.9274 4.50019 -3.55345 0
M  V30 239 N 26.4234 5.34592 -4.40662 0
M  V30 240 N 28.2164 4.44612 -3.43914 0
M  V30 241 H 20.3674 0.868827 -1.93817 0
M  V30 242 H 22.6304 0.44399 -0.837602 0
M  V30 243 H 22.3364 2.14636 -2.78612 0
M  V30 244 H 22.2104 3.4217 -1.58744 0
M  V30 245 H 24.5974 2.84614 -0.779674 0
M  V30 246 H 24.6784 1.57927 -2.01228 0
M  V30 247 H 24.3224 3.34678 -3.82038 0
M  V30 248 H 24.2524 4.60259 -2.5587 0
M  V30 249 H 26.7434 3.08794 -2.17842 0
M  V30 250 H 27.0564 5.93363 -4.95116 0
M  V30 251 H 25.4014 5.34073 -4.44737 0
M  V30 252 H 28.5924 3.7758 -2.76679 0
M  V30 253 H 28.7654 5.0736 -4.031 0
M  V30 254 N 22.1715 0.800033 1.35784 0
M  V30 255 C 23.4115 0.382891 2.00782 0
M  V30 256 C 23.7755 -1.02891 1.62103 0
M  V30 257 O 24.9765 -1.54771 2.19771 0
M  V30 258 C 23.2475 0.553299 3.53091 0
M  V30 259 S 24.8065 0.225608 4.3822 0
M  V30 260 H 21.6245 0.145737 0.695904 0
M  V30 261 H 24.2265 1.04085 1.65489 0
M  V30 262 H 22.9305 1.58091 3.78729 0
M  V30 263 H 22.4615 -0.120214 3.93216 0
M  V30 264 H 24.4765 -0.969074 4.86645 0
M  V30 265 N 23.6496 -1.47581 0.552962 0
M  V30 266 C 24.5966 -2.29957 -0.197108 0
M  V30 267 C 25.5666 -1.38799 -0.912359 0
M  V30 268 O 26.7516 -1.67761 -0.908888 0
M  V30 269 C 23.8916 -3.22672 -1.22379 0
M  V30 270 C 23.0046 -4.28919 -0.515038 0
M  V30 271 C 22.1396 -5.0879 -1.52664 0
M  V30 272 C 21.1786 -6.06815 -0.802631 0
M  V30 273 N 20.3156 -6.7966 -1.76086 0
M  V30 274 H 25.1556 -2.93578 0.511486 0
M  V30 275 H 22.6926 -1.4471 0.264067 0
M  V30 276 H 24.6506 -3.74845 -1.83159 0
M  V30 277 H 23.2806 -2.60925 -1.90047 0
M  V30 278 H 22.3326 -3.79835 0.207192 0
M  V30 279 H 23.6446 -4.98773 0.0523425 0
M  V30 280 H 22.7986 -5.65091 -2.20809 0
M  V30 281 H 21.5376 -4.38828 -2.12794 0
M  V30 282 H 20.5426 -5.49695 -0.107238 0
M  V30 283 H 21.7676 -6.78784 -0.207135 0
M  V30 284 H 19.7136 -6.12432 -2.35081 0
M  V30 285 H 19.6306 -7.45669 -1.24552 0
M  V30 286 H 20.8986 -7.40538 -2.43359 0
M  V30 287 N 25.1277 -0.289203 -1.54924 0
M  V30 288 C 26.3767 0.324231 -1.99077 0
M  V30 289 C 26.6897 1.5591 -1.18117 0
M  V30 290 O 27.8957 2.24637 -1.52481 0
M  V30 291 C 26.3517 0.628209 -3.54375 0
M  V30 292 C 25.9597 -0.587647 -4.44129 0
M  V30 293 C 27.7037 1.20349 -4.07083 0
M  V30 294 C 25.6107 -0.257475 -5.90839 0
M  V30 295 H 24.5407 0.124924 -0.743579 0
M  V30 296 H 27.1917 -0.396063 -1.79175 0
M  V30 297 H 25.5737 1.40778 -3.70132 0
M  V30 298 H 26.7477 -1.36418 -4.40144 0
M  V30 299 H 25.0627 -1.08074 -4.0213 0
M  V30 300 H 27.6597 1.46456 -5.14252 0
M  V30 301 H 28.0027 2.14195 -3.56968 0
M  V30 302 H 28.5357 0.485889 -3.94821 0
M  V30 303 H 25.2747 -1.16419 -6.45079 0
M  V30 304 H 24.7947 0.482018 -5.9786 0
M  V30 305 H 26.4737 0.145238 -6.46837 0
M  V30 306 N 26.6058 1.57591 -0.0167156 0
M  V30 307 C 27.8518 1.91567 0.665582 0
M  V30 308 C 28.1848 0.892298 1.72487 0
M  V30 309 O 27.4598 -0.0867127 1.94307 0
M  V30 310 C 27.7428 3.36069 1.29342 0
M  V30 311 C 27.5958 4.49135 0.244541 0
M  V30 312 C 28.9148 3.803 2.21495 0
M  V30 313 H 26.0338 0.69666 0.240488 0
M  V30 314 H 28.6758 1.89866 -0.0714356 0
M  V30 315 H 26.8258 3.3765 1.92158 0
M  V30 316 H 28.4978 4.59689 -0.385228 0
M  V30 317 H 26.7408 4.3165 -0.431379 0
M  V30 318 H 27.4118 5.47242 0.723207 0
M  V30 319 H 29.8878 3.80377 1.68678 0
M  V30 320 H 28.7638 4.82127 2.62382 0
M  V30 321 H 29.0248 3.15104 3.101 0
M  V30 322 N 28.0839 -0.256276 1.55502 0
M  V30 323 C 29.3119 -1.00342 1.8094 0
M  V30 324 C 29.7269 -1.79307 0.59114 0
M  V30 325 O 29.0839 -1.77114 -0.440081 0
M  V30 326 C 29.1349 -1.94875 3.04476 0
M  V30 327 O 28.8559 -1.19107 4.21598 0
M  V30 328 C 30.3569 -2.81266 3.42644 0
M  V30 329 H 27.5769 -0.295685 0.602338 0
M  V30 330 H 30.1209 -0.281998 2.02546 0
M  V30 331 H 28.2759 -2.62457 2.84947 0
M  V30 332 H 28.6899 -1.82969 4.91551 0
M  V30 333 H 30.1639 -3.43362 4.32211 0
M  V30 334 H 30.6409 -3.51897 2.62802 0
M  V30 335 H 31.2469 -2.1915 3.64491 0
M  V30 336 N 29.562 -1.4872 -0.521534 0
M  V30 337 C 30.811 -1.56419 -1.27341 0
M  V30 338 C 31.124 -0.246805 -1.94037 0
M  V30 339 O 32.33 -0.202122 -2.70747 0
M  V30 340 C 30.786 -2.75896 -2.31105 0
M  V30 341 C 30.394 -4.14311 -1.70441 0
M  V30 342 C 32.138 -2.92913 -3.07249 0
M  V30 343 C 30.045 -5.25038 -2.72194 0
M  V30 344 H 28.975 -0.582344 -0.478949 0
M  V30 345 H 31.626 -1.75071 -0.549779 0
M  V30 346 H 30.008 -2.50697 -3.06541 0
M  V30 347 H 31.182 -4.49564 -1.01136 0
M  V30 348 H 29.497 -4.02482 -1.06759 0
M  V30 349 H 32.094 -3.72805 -3.83302 0
M  V30 350 H 32.437 -2.02689 -3.63625 0
M  V30 351 H 32.97 -3.18054 -2.38928 0
M  V30 352 H 29.709 -6.17255 -2.20627 0
M  V30 353 H 29.229 -4.94263 -3.39801 0
M  V30 354 H 30.908 -5.53508 -3.35019 0
M  V30 355 N 31.0401 0.771051 -1.3745 0
M  V30 356 C 32.2651 1.56529 -1.36065 0
M  V30 357 C 32.6901 1.88029 0.0515859 0
M  V30 358 O 32.0481 1.49282 1.02882 0
M  V30 359 C 32.0961 2.85187 -2.20683 0
M  V30 360 O 31.2001 3.79593 -1.61193 0
M  V30 361 H 30.5411 0.47411 -0.464883 0
M  V30 362 H 33.0711 0.954269 -1.80983 0
M  V30 363 H 33.0811 3.34283 -2.33921 0
M  V30 364 H 31.7561 2.61588 -3.23334 0
M  V30 365 H 30.3331 3.38239 -1.56999 0
M  V30 366 N 32.5182 1.22032 0.997298 0
M  V30 367 C 33.7952 0.950823 1.70935 0
M  V30 368 C 34.1752 -0.535292 2.042 0
M  V30 369 O 33.5232 -1.50217 1.72183 0
M  V30 370 C 33.7332 1.84386 2.96315 0
M  V30 371 C 35.0812 2.09732 3.69185 0
M  V30 372 O 36.1052 1.81798 3.06314 0
M  V30 373 O 34.9642 2.57018 4.82291 0
M  V30 374 H 32.0582 0.357204 0.745878 0
M  V30 375 H 34.6042 1.32997 1.05404 0
M  V30 376 H 33.3762 2.84928 2.68201 0
M  V30 377 H 32.9992 1.46602 3.69586 0
M  V30 378 N 33.9963 -1.19345 1.0293 0
M  V30 379 C 35.2243 -1.92997 0.745644 0
M  V30 380 C 35.6393 -1.75519 -0.695589 0
M  V30 381 O 34.9963 -1.07737 -1.47306 0
M  V30 382 C 35.0473 -3.44741 1.08792 0
M  V30 383 O 34.7683 -3.61658 2.47256 0
M  V30 384 C 36.2693 -4.35515 0.827129 0
M  V30 385 H 33.4893 -0.613042 0.272801 0
M  V30 386 H 36.0333 -1.51473 1.3739 0
M  V30 387 H 34.1883 -3.84097 0.504832 0
M  V30 388 H 34.6023 -4.55514 2.60015 0
M  V30 389 H 36.0763 -5.40589 1.11658 0
M  V30 390 H 36.5533 -4.38552 -0.238436 0
M  V30 391 H 37.1593 -4.01841 1.39297 0
M  V30 392 N 35.4744 -0.807222 -1.35358 0
M  V30 393 C 36.8904 -0.491038 -1.51858 0
M  V30 394 C 37.0904 0.987648 -1.75635 0
M  V30 395 O 36.1464 1.77265 -1.79815 0
M  V30 396 C 37.4594 -1.33695 -2.69344 0
M  V30 397 C 39.0074 -1.33246 -2.83222 0
M  V30 398 C 39.4824 -2.1625 -4.03733 0
M  V30 399 N 40.9734 -2.1379 -4.10911 0
M  V30 400 C 41.7084 -2.74772 -5.03277 0
M  V30 401 N 41.2044 -3.44684 -6.0097 0
M  V30 402 N 42.9974 -2.6441 -4.96028 0
M  V30 403 H 35.1484 -1.76485 -1.18181 0
M  V30 404 H 37.4114 -0.751199 -0.578276 0
M  V30 405 H 37.1174 -2.38634 -2.58354 0
M  V30 406 H 36.9914 -0.990618 -3.6396 0
M  V30 407 H 39.3784 -0.290911 -2.93663 0
M  V30 408 H 39.4594 -1.71866 -1.89461 0
M  V30 409 H 39.1034 -3.20445 -3.94052 0
M  V30 410 H 39.0334 -1.74989 -4.96675 0
M  V30 411 H 41.5244 -1.62923 -3.40976 0
M  V30 412 H 41.8374 -3.88501 -6.68047 0
M  V30 413 H 40.1824 -3.48788 -6.01142 0
M  V30 414 H 43.3734 -2.0938 -4.18662 0
M  V30 415 H 43.5464 -3.12225 -5.6782 0
M  V30 416 N 36.9525 1.47285 -0.560781 0
M  V30 417 C 38.1805 2.06855 -0.0430262 0
M  V30 418 C 38.5955 1.41291 1.25229 0
M  V30 419 O 37.9525 0.510648 1.7521 0
M  V30 420 C 38.0035 3.61178 0.152518 0
M  V30 421 O 37.7245 4.24285 -1.0915 0
M  V30 422 C 39.2255 4.37624 0.707145 0
M  V30 423 H 36.4455 0.669319 -0.0474652 0
M  V30 424 H 38.9895 1.89237 -0.77521 0
M  V30 425 H 37.1445 3.78298 0.834843 0
M  V30 426 H 37.5585 5.16868 -0.891482 0
M  V30 427 H 39.0325 5.46271 0.793244 0
M  V30 428 H 39.5095 4.04152 1.71923 0
M  V30 429 H 40.1155 4.25257 0.0604027 0
M  V30 430 N 38.4306 0.297415 1.54768 0
M  V30 431 C 39.3406 -0.58983 2.27064 0
M  V30 432 C 40.3566 -1.15144 1.30453 0
M  V30 433 O 41.5326 -1.17699 1.63428 0
M  V30 434 C 38.5976 -1.74714 2.9946 0
M  V30 435 C 37.6586 -1.21997 4.11601 0
M  V30 436 C 36.8916 -2.32212 4.80535 0
M  V30 437 O 37.1146 -3.52036 4.48806 0
M  V30 438 O 36.0486 -1.99106 5.68014 0
M  V30 439 H 39.8746 -0.00348199 3.037 0
M  V30 440 H 37.4596 0.0640035 1.49263 0
M  V30 441 H 39.3416 -2.42147 3.44881 0
M  V30 442 H 38.0166 -2.32016 2.25722 0
M  V30 443 H 36.9236 -0.511458 3.70587 0
M  V30 444 H 38.2566 -0.692419 4.87305 0
M  V30 445 N 39.9087 -1.5758 0.0250728 0
M  V30 446 C 40.8187 -2.1343 -0.973905 0
M  V30 447 C 41.8347 -1.08556 -1.35984 0
M  V30 448 O 43.0107 -1.40592 -1.44207 0
M  V30 449 C 40.0757 -2.64703 -2.23904 0
M  V30 450 C 39.1367 -3.84276 -1.91391 0
M  V30 451 C 38.3697 -4.33095 -3.11873 0
M  V30 452 O 38.5927 -3.81107 -4.24398 0
M  V30 453 O 37.5267 -5.24984 -2.94406 0
M  V30 454 H 41.3527 -2.99057 -0.529036 0
M  V30 455 H 38.9377 -1.48118 -0.195288 0
M  V30 456 H 40.8197 -2.97769 -2.98181 0
M  V30 457 H 39.4947 -1.82161 -2.6758 0
M  V30 458 H 38.4017 -3.56143 -1.14511 0
M  V30 459 H 39.7347 -4.67968 -1.52534 0
M  V30 460 N 41.3868 0.248026 -1.55636 0
M  V30 461 C 42.6148 0.993808 -1.81469 0
M  V30 462 C 43.0298 1.78991 -0.60064 0
M  V30 463 O 42.3868 1.77345 0.430682 0
M  V30 464 C 42.4378 1.93258 -3.05506 0
M  V30 465 O 42.1588 1.16869 -4.22224 0
M  V30 466 C 43.6598 2.79444 -3.4413 0
M  V30 467 H 40.8798 0.292486 -0.603898 0
M  V30 468 H 43.4238 0.271253 -2.02693 0
M  V30 469 H 41.5788 2.60943 -2.86335 0
M  V30 470 H 41.9928 1.80359 -4.92515 0
M  V30 471 H 43.4668 3.41066 -4.34026 0
M  V30 472 H 43.9438 3.50499 -2.64665 0
M  V30 473 H 44.5498 2.17214 -3.65648 0
M  V30 474 N 42.8649 1.48995 0.513639 0
M  V30 475 C 44.1419 1.48338 1.27495 0
M  V30 476 C 44.5219 0.204065 2.10111 0
M  V30 477 O 43.8699 -0.813881 2.13514 0
M  V30 478 C 44.0799 2.75498 2.14247 0
M  V30 479 C 45.4279 3.24484 2.73852 0
M  V30 480 O 46.4519 2.76528 2.24523 0
M  V30 481 O 45.3109 4.07974 3.6362 0
M  V30 482 H 42.4049 0.593149 0.576284 0
M  V30 483 H 44.9509 1.61246 0.528948 0
M  V30 484 H 43.7229 3.60109 1.53092 0
M  V30 485 H 43.3459 2.6539 2.96064 0
M  V30 486 N 44.343 -0.763751 1.37857 0
M  V30 487 C 45.29 -1.87726 1.34267 0
M  V30 488 C 46.26 -1.64807 0.206879 0
M  V30 489 O 47.445 -1.86613 0.397508 0
M  V30 490 C 44.585 -3.24896 1.16346 0
M  V30 491 C 43.698 -3.59716 2.39225 0
M  V30 492 C 42.833 -4.86137 2.14114 0
M  V30 493 C 41.872 -5.13711 3.32817 0
M  V30 494 N 41.009 -6.31323 3.07206 0
M  V30 495 H 45.849 -1.90129 2.29466 0
M  V30 496 H 43.386 -0.929433 1.14017 0
M  V30 497 H 45.344 -4.04036 1.03975 0
M  V30 498 H 43.974 -3.21847 0.247909 0
M  V30 499 H 43.026 -2.75498 2.62307 0
M  V30 500 H 44.338 -3.76027 3.27728 0
M  V30 501 H 43.492 -5.73198 1.9882 0
M  V30 502 H 42.231 -4.71945 1.22961 0
M  V30 503 H 41.236 -4.25123 3.48641 0
M  V30 504 H 42.461 -5.29807 4.24832 0
M  V30 505 H 40.407 -6.18474 2.1869 0
M  V30 506 H 40.324 -6.48087 3.89254 0
M  V30 507 H 41.592 -7.213 2.95546 0
M  V30 508 N 45.8211 -1.22559 -0.990812 0
M  V30 509 C 47.0461 -1.07862 -1.77145 0
M  V30 510 C 47.4711 0.366447 -1.84496 0
M  V30 511 O 46.8291 1.26478 -1.29896 0
M  V30 512 C 46.8771 -1.69686 -3.18181 0
M  V30 513 O 45.9811 -0.951946 -4.01263 0
M  V30 514 H 45.3221 -0.378712 -0.545411 0
M  V30 515 H 47.8521 -1.62399 -1.2445 0
M  V30 516 H 47.8621 -1.74496 -3.68802 0
M  V30 517 H 46.5371 -2.74841 -3.12146 0
M  V30 518 H 45.1141 -0.980011 -3.59792 0
M  V30 519 N 47.2992 1.18797 -1.03562 0
M  V30 520 C 48.5472 1.88278 -0.734569 0
M  V30 521 C 48.8682 1.8043 0.739586 0
M  V30 522 O 48.1382 1.21925 1.53333 0
M  V30 523 H 46.7182 0.696991 -0.268725 0
M  V30 524 H 49.3802 1.44192 -1.31129 0
M  V30 525 H 48.4762 2.94443 -1.03489 0
M  V30 526 N 48.7773 0.814389 1.34928 0
M  V30 527 C 49.7093 0.187834 2.28429 0
M  V30 528 C 50.7223 -0.617374 1.5064 0
M  V30 529 O 51.9113 -0.448454 1.72775 0
M  V30 530 C 49.0113 -0.755962 3.30361 0
M  V30 531 C 48.1843 0.00456686 4.374 0
M  V30 532 C 47.2433 -0.858876 5.19143 0
M  V30 533 O 46.2693 -0.306968 5.68372 0
M  V30 534 N 47.4713 -2.17988 5.38016 0
M  V30 535 H 50.2363 0.991105 2.82838 0
M  V30 536 H 47.7973 0.670561 1.4736 0
M  V30 537 H 49.7893 -1.338 3.81942 0
M  V30 538 H 48.3593 -1.46001 2.7641 0
M  V30 539 H 47.5793 0.767865 3.86649 0
M  V30 540 H 48.8673 0.528422 5.06049 0
M  V30 541 H 48.2653 -2.65212 4.99679 0
M  V30 542 H 46.8223 -2.71098 5.92747 0
M  V30 543 N 50.2554 -1.46986 0.568584 0
M  V30 544 C 51.1854 -2.32946 -0.160753 0
M  V30 545 C 52.1664 -1.44487 -0.897631 0
M  V30 546 O 53.3514 -1.73327 -0.875867 0
M  V30 547 C 50.4814 -3.26494 -1.18403 0
M  V30 548 C 49.4354 -4.24282 -0.562895 0
M  V30 549 C 48.7614 -5.07236 -1.69163 0
M  V30 550 C 50.0614 -5.19989 0.490761 0
M  V30 551 H 51.7554 -2.94175 0.556916 0
M  V30 552 H 49.3014 -1.4146 0.26927 0
M  V30 553 H 51.2544 -3.85477 -1.70251 0
M  V30 554 H 49.9784 -2.63343 -1.93179 0
M  V30 555 H 48.6374 -3.66541 -0.0656164 0
M  V30 556 H 48.2854 -4.4048 -2.42871 0
M  V30 557 H 47.9854 -5.7345 -1.28174 0
M  V30 558 H 49.5094 -5.6908 -2.21314 0
M  V30 559 H 50.9234 -5.73271 0.0579047 0
M  V30 560 H 49.3204 -5.94469 0.820165 0
M  V30 561 H 50.3904 -4.64777 1.3824 0
M  V30 562 N 51.7335 -0.305618 -1.54608 0
M  V30 563 C 52.6635 0.561482 -2.26649 0
M  V30 564 C 53.6445 1.13415 -1.26772 0
M  V30 565 O 54.8295 1.16262 -1.55553 0
M  V30 566 C 51.9595 1.73122 -3.01075 0
M  V30 567 C 50.9135 1.2887 -4.08138 0
M  V30 568 C 50.2395 2.54396 -4.70305 0
M  V30 569 C 51.5395 0.416578 -5.20636 0
M  V30 570 H 53.2335 -0.0393902 -2.99374 0
M  V30 571 H 50.7795 -0.020385 -1.43986 0
M  V30 572 H 52.7325 2.34396 -3.50195 0
M  V30 573 H 51.4565 2.3584 -2.25936 0
M  V30 574 H 50.1155 0.698991 -3.59875 0
M  V30 575 H 49.7635 3.15439 -3.918 0
M  V30 576 H 49.4635 2.25486 -5.42614 0
M  V30 577 H 50.9875 3.16464 -5.2219 0
M  V30 578 H 52.4015 0.935116 -5.65622 0
M  V30 579 H 50.7985 0.221046 -5.99693 0
M  V30 580 H 51.8685 -0.557162 -4.81688 0
M  V30 581 N 53.2116 1.57565 -0.0334293 0
M  V30 582 C 54.1616 2.06978 0.956237 0
M  V30 583 C 55.1456 0.971193 1.28283 0
M  V30 584 O 56.3376 1.23471 1.26822 0
M  V30 585 C 53.4666 2.60393 2.23719 0
M  V30 586 C 52.5526 3.7719 1.93877 0
M  V30 587 N 52.9436 4.87639 1.34321 0
M  V30 588 C 51.2416 3.85758 2.23845 0
M  V30 589 C 51.9426 5.68825 1.21709 0
M  V30 590 N 50.9186 5.1587 1.71404 0
M  V30 591 H 54.7206 2.89773 0.490815 0
M  V30 592 H 52.2346 1.61492 0.171478 0
M  V30 593 H 54.2316 2.94088 2.95496 0
M  V30 594 H 52.8916 1.79031 2.70884 0
M  V30 595 H 53.9026 5.07803 1.01767 0
M  V30 596 H 50.5796 3.1531 2.73653 0
M  V30 597 H 51.9696 6.67631 0.75621 0
M  V30 598 N 54.6897 -0.239769 1.55765 0
M  V30 599 C 55.5997 -1.31831 1.94056 0
M  V30 600 C 56.6157 -1.52275 0.841925 0
M  V30 601 O 57.7917 -1.65759 1.14394 0
M  V30 602 C 54.8567 -2.65156 2.23368 0
M  V30 603 C 53.9177 -2.53173 3.46701 0
M  V30 604 C 53.1507 -3.8014 3.74606 0
M  V30 605 O 53.3737 -4.82343 3.04469 0
M  V30 606 O 52.3077 -3.78344 4.68123 0
M  V30 607 H 56.1337 -1.02347 2.85935 0
M  V30 608 H 53.7187 -0.441123 1.42739 0
M  V30 609 H 55.6007 -3.43929 2.43497 0
M  V30 610 H 54.2757 -2.94358 1.34666 0
M  V30 611 H 53.1827 -1.72662 3.31871 0
M  V30 612 H 54.5157 -2.28915 4.35728 0
M  V30 613 N 56.1678 -1.49265 -0.50573 0
M  V30 614 C 57.0978 -1.68495 -1.61653 0
M  V30 615 C 58.0788 -0.53366 -1.61512 0
M  V30 616 O 59.2638 -0.76897 -1.78327 0
M  V30 617 C 56.3938 -1.74709 -3.00157 0
M  V30 618 C 55.3478 -2.89581 -3.15162 0
M  V30 619 C 54.6738 -2.80903 -4.5497 0
M  V30 620 C 55.9738 -4.30578 -2.95634 0
M  V30 621 H 57.6678 -2.61493 -1.45814 0
M  V30 622 H 55.2138 -1.25838 -0.70005 0
M  V30 623 H 57.1668 -1.86748 -3.77761 0
M  V30 624 H 55.8908 -0.783067 -3.17074 0
M  V30 625 H 54.5498 -2.77136 -2.39982 0
M  V30 626 H 54.1978 -1.82419 -4.68756 0
M  V30 627 H 53.8978 -3.57999 -4.65951 0
M  V30 628 H 55.4218 -2.94944 -5.34641 0
M  V30 629 H 56.8358 -4.4373 -3.63011 0
M  V30 630 H 55.2328 -5.0886 -3.18091 0
M  V30 631 H 56.3028 -4.45352 -1.91806 0
M  V30 632 N 57.6459 0.756429 -1.3826 0
M  V30 633 C 58.5759 1.88374 -1.37976 0
M  V30 634 C 59.5569 1.68311 -0.246082 0
M  V30 635 O 60.7419 1.88944 -0.44874 0
M  V30 636 C 57.8719 3.25864 -1.20125 0
M  V30 637 C 56.8259 3.60523 -2.30666 0
M  V30 638 C 56.1519 4.9672 -1.97923 0
M  V30 639 C 57.4519 3.65692 -3.72916 0
M  V30 640 H 59.1459 1.88869 -2.32312 0
M  V30 641 H 56.6919 0.907272 -1.11824 0
M  V30 642 H 58.6449 4.0438 -1.18552 0
M  V30 643 H 57.3689 3.25841 -0.222498 0
M  V30 644 H 56.0279 2.84324 -2.3142 0
M  V30 645 H 55.6759 4.93253 -0.985393 0
M  V30 646 H 55.3759 5.20878 -2.71955 0
M  V30 647 H 56.8999 5.77618 -1.97964 0
M  V30 648 H 58.3139 4.34328 -3.74208 0
M  V30 649 H 56.7109 4.01358 -4.4613 0
M  V30 650 H 57.7809 2.65987 -4.05436 0
M  V30 651 N 59.124 1.23083 0.984299 0
M  V30 652 C 60.071 1.00854 2.07598 0
M  V30 653 C 61.041 -0.0726709 1.65941 0
M  V30 654 O 62.226 0.0786535 1.90638 0
M  V30 655 C 59.366 0.601645 3.39815 0
M  V30 656 C 58.479 1.75456 3.94765 0
M  V30 657 C 57.614 1.29482 5.15177 0
M  V30 658 C 56.653 2.41873 5.62284 0
M  V30 659 N 55.79 1.96885 6.73929 0
M  V30 660 H 60.63 1.943 2.25946 0
M  V30 661 H 58.167 0.968001 1.10762 0
M  V30 662 H 60.125 0.346854 4.15756 0
M  V30 663 H 58.755 -0.295803 3.21442 0
M  V30 664 H 57.807 2.12346 3.15616 0
M  V30 665 H 59.119 2.59965 4.25699 0
M  V30 666 H 58.273 0.997923 5.98437 0
M  V30 667 H 57.012 0.420046 4.85888 0
M  V30 668 H 56.017 2.72342 4.77608 0
M  V30 669 H 57.242 3.29881 5.93595 0
M  V30 670 H 55.188 1.11782 6.46406 0
M  V30 671 H 55.105 2.74956 7.04227 0
M  V30 672 H 56.373 1.70289 7.60672 0
M  V30 673 N 60.6021 -1.18246 1.0419 0
M  V30 674 C 61.5121 -2.25574 0.644476 0
M  V30 675 C 62.5281 -1.70845 -0.329826 0
M  V30 676 O 63.7041 -2.00554 -0.184443 0
M  V30 677 C 60.7691 -3.46697 0.014877 0
M  V30 678 C 59.8301 -4.16554 1.03834 0
M  V30 679 C 59.0631 -5.31894 0.438692 0
M  V30 680 O 59.2861 -5.65385 -0.754752 0
M  V30 681 O 58.2201 -5.90459 1.168 0
M  V30 682 H 62.0461 -2.61836 1.53869 0
M  V30 683 H 59.6311 -1.25352 0.812854 0
M  V30 684 H 61.5131 -4.20062 -0.335538 0
M  V30 685 H 60.1881 -3.12255 -0.853138 0
M  V30 686 H 59.0951 -3.45251 1.44057 0
M  V30 687 H 60.4281 -4.54998 1.87716 0
M  V30 688 N 62.0802 -0.821533 -1.34494 0
M  V30 689 C 63.0432 -0.247847 -2.27856 0
M  V30 690 C 64.0432 0.573453 -1.50227 0
M  V30 691 O 65.2332 0.389759 -1.69784 0
M  V30 692 C 62.3652 0.652698 -3.34593 0
M  V30 693 H 63.5582 -1.07146 -2.80107 0
M  V30 694 H 61.1112 -0.593291 -1.44602 0
M  V30 695 H 61.8462 1.49943 -2.87555 0
M  V30 696 H 61.6312 0.065292 -3.92046 0
M  V30 697 H 63.1212 1.04793 -4.04238 0
M  V30 698 N 63.5583 1.46682 -0.576371 0
M  V30 699 C 64.8063 2.02013 -0.0594163 0
M  V30 700 C 65.1273 1.45101 1.30271 0
M  V30 701 O 64.3973 0.633317 1.8538 0
M  V30 702 H 62.9773 0.746759 -0.0189745 0
M  V30 703 H 65.6393 1.79862 -0.750717 0
M  V30 704 H 64.7353 3.12097 0.014345 0
M  V30 705 N 65.0364 0.313813 1.54444 0
M  V30 706 C 65.9864 -0.571898 2.20711 0
M  V30 707 C 66.9704 -1.08913 1.18435 0
M  V30 708 O 68.1624 -1.02777 1.44104 0
M  V30 709 C 65.2914 -1.7371 2.96108 0
M  V30 710 C 64.3774 -1.23522 4.05713 0
M  V30 711 N 64.7684 -0.452288 5.03774 0
M  V30 712 C 63.0664 -1.51482 4.19487 0
M  V30 713 C 63.7674 -0.183438 5.81411 0
M  V30 714 N 62.7434 -0.766845 5.38164 0
M  V30 715 H 66.5454 0.0336802 2.93881 0
M  V30 716 H 64.0594 0.119192 1.61962 0
M  V30 717 H 66.0564 -2.38329 3.4206 0
M  V30 718 H 64.7164 -2.34625 2.24458 0
M  V30 719 H 65.7274 -0.0960131 5.17811 0
M  V30 720 H 62.4044 -2.13053 3.59047 0
M  V30 721 H 63.7944 0.446216 6.70417 0
M  V30 722 N 66.5145 -1.57545 0.0417849 0
M  V30 723 C 67.4615 -2.10977 -0.935805 0
M  V30 724 C 68.4315 -1.01486 -1.31491 0
M  V30 725 O 69.6165 -1.2898 -1.40602 0
M  V30 726 C 66.7565 -2.65169 -2.2086 0
M  V30 727 C 65.8695 -3.88714 -1.88482 0
M  V30 728 C 65.0045 -4.31254 -3.1015 0
M  V30 729 C 64.0435 -5.47524 -2.7365 0
M  V30 730 N 63.1805 -5.85162 -3.87982 0
M  V30 731 H 68.0205 -2.94218 -0.473249 0
M  V30 732 H 65.5575 -1.45415 -0.221981 0
M  V30 733 H 67.5155 -2.94685 -2.95325 0
M  V30 734 H 66.1455 -1.8474 -2.64709 0
M  V30 735 H 65.1975 -3.65849 -1.04205 0
M  V30 736 H 66.5095 -4.73245 -1.57608 0
M  V30 737 H 65.6635 -4.62273 -3.92923 0
M  V30 738 H 64.4025 -3.45516 -3.44195 0
M  V30 739 H 63.4075 -5.16187 -1.89291 0
M  V30 740 H 64.6325 -6.34971 -2.40807 0
M  V30 741 H 62.5785 -5.02377 -4.21846 0
M  V30 742 H 62.4955 -6.64362 -3.60775 0
M  V30 743 H 63.7635 -6.20791 -4.71422 0
M  V30 744 N 67.9926 0.231505 -1.5589 0
M  V30 745 C 69.2386 0.95877 -1.78705 0
M  V30 746 C 69.5716 1.8438 -0.609725 0
M  V30 747 O 68.8466 1.90521 0.391426 0
M  V30 748 C 69.1296 1.8062 -3.11526 0
M  V30 749 C 68.9826 0.948328 -4.39689 0
M  V30 750 C 70.3016 2.78585 -3.40703 0
M  V30 751 H 67.4206 0.347129 -0.650131 0
M  V30 752 H 70.0626 0.228259 -1.88624 0
M  V30 753 H 68.2126 2.42902 -3.03201 0
M  V30 754 H 69.8846 0.343016 -4.60023 0
M  V30 755 H 68.1276 0.253314 -4.3306 0
M  V30 756 H 68.7986 1.57543 -5.29041 0
M  V30 757 H 71.2746 2.26439 -3.49091 0
M  V30 758 H 70.1506 3.34988 -4.34826 0
M  V30 759 H 70.4116 3.55825 -2.62375 0
M  V30 760 N 69.4707 1.49531 0.497807 0
M  V30 761 C 70.6987 1.62893 1.27567 0
M  V30 762 C 71.1137 0.301585 1.86376 0
M  V30 763 O 70.4707 -0.713335 1.67982 0
M  V30 764 C 70.5217 2.70013 2.40364 0
M  V30 765 O 70.2427 3.976 1.83972 0
M  V30 766 C 71.7437 2.94109 3.31685 0
M  V30 767 H 68.9637 0.548298 0.386794 0
M  V30 768 H 71.5077 1.95584 0.597245 0
M  V30 769 H 69.6627 2.40092 3.04031 0
M  V30 770 H 70.0767 4.56631 2.58047 0
M  V30 771 H 71.5507 3.72788 4.07104 0
M  V30 772 H 72.0277 2.04147 3.88871 0
M  V30 773 H 72.6337 3.2546 2.73781 0
M  V30 774 N 70.9488 -0.749086 1.3866 0
M  V30 775 C 72.1738 -1.54344 1.38538 0
M  V30 776 C 72.5988 -1.88088 -0.0216655 0
M  V30 777 O 71.9568 -1.50899 -1.00494 0
M  V30 778 C 72.0048 -2.8164 2.25192 0
M  V30 779 O 71.1088 -3.7698 1.67212 0
M  V30 780 H 70.4498 -0.466654 0.472367 0
M  V30 781 H 72.9798 -0.925355 1.82478 0
M  V30 782 H 72.9898 -3.30519 2.3921 0
M  V30 783 H 71.6648 -2.56411 3.27454 0
M  V30 784 H 70.2418 -3.35699 1.6236 0
M  V30 785 N 72.4269 -1.23603 -0.977757 0
M  V30 786 C 73.6569 -1.09487 -1.75203 0
M  V30 787 C 74.0649 0.356321 -1.85814 0
M  V30 788 O 73.4079 1.25816 -1.33851 0
M  V30 789 C 73.4699 -1.64905 -3.19447 0
M  V30 790 C 73.1339 -3.13688 -3.32338 0
M  V30 791 C 74.1309 -4.10953 -3.18455 0
M  V30 792 C 71.8159 -3.53449 -3.56902 0
M  V30 793 C 73.8099 -5.45962 -3.28944 0
M  V30 794 C 71.4969 -4.88602 -3.6703 0
M  V30 795 C 72.4949 -5.84668 -3.53062 0
M  V30 796 O 72.1829 -7.17365 -3.62826 0
M  V30 797 H 71.9149 -0.38367 -0.556573 0
M  V30 798 H 74.4689 -1.6398 -1.23693 0
M  V30 799 H 72.6989 -1.04835 -3.72218 0
M  V30 800 H 74.3879 -1.46226 -3.78646 0
M  V30 801 H 75.1539 -3.81577 -2.99372 0
M  V30 802 H 71.0329 -2.79188 -3.66844 0
M  V30 803 H 74.5769 -6.20925 -3.17958 0
M  V30 804 H 70.4739 -5.17653 -3.85623 0
M  V30 805 H 71.2419 -7.2515 -3.79605 0
M  V30 806 N 73.905 1.17692 -1.04816 0
M  V30 807 C 74.815 2.25229 -0.65643 0
M  V30 808 C 75.831 1.71018 0.320761 0
M  V30 809 O 77.007 2.00649 0.173805 0
M  V30 810 C 74.072 3.46684 -0.0332629 0
M  V30 811 C 73.133 4.15997 -1.06042 0
M  V30 812 C 72.366 5.31654 -0.466893 0
M  V30 813 O 72.589 5.65777 0.724758 0
M  V30 814 O 71.523 5.89831 -1.1993 0
M  V30 815 H 75.349 2.61016 -1.55255 0
M  V30 816 H 72.934 1.24919 -0.81949 0
M  V30 817 H 74.816 4.20234 0.313256 0
M  V30 818 H 73.491 3.12703 0.836566 0
M  V30 819 H 72.398 3.44482 -1.45886 0
M  V30 820 H 73.731 4.53996 -1.90127 0
M  V30 821 N 75.3831 0.828654 1.34056 0
M  V30 822 C 76.6321 0.415828 1.97367 0
M  V30 823 C 76.9451 -1.02796 1.6641 0
M  V30 824 O 78.1511 -1.54497 2.23255 0
M  V30 825 C 76.6071 0.692601 3.53173 0
M  V30 826 C 76.2151 2.15038 3.93017 0
M  V30 827 C 77.9591 0.346222 4.23086 0
M  V30 828 C 75.8661 2.37174 5.41758 0
M  V30 829 H 74.7961 0.151755 0.738571 0
M  V30 830 H 77.4471 1.01581 1.52819 0
M  V30 831 H 75.8291 0.0223764 3.95994 0
M  V30 832 H 77.0031 2.86024 3.61285 0
M  V30 833 H 75.3181 2.45875 3.36057 0
M  V30 834 H 77.9151 0.48937 5.32456 0
M  V30 835 H 78.2581 -0.709842 4.10204 0
M  V30 836 H 78.7911 0.971258 3.85761 0
M  V30 837 H 75.5301 3.41308 5.59633 0
M  V30 838 H 75.0501 1.70738 5.74986 0
M  V30 839 H 76.7291 2.19818 6.08514 0
M  V30 840 N 76.8612 -1.46375 0.584142 0
M  V30 841 C 78.1072 -2.02678 0.0703716 0
M  V30 842 C 78.4402 -1.4545 -1.28678 0
M  V30 843 O 77.7152 -0.62014 -1.84349 0
M  V30 844 C 77.9982 -3.60099 0.00614674 0
M  V30 845 C 77.8512 -4.27709 1.3923 0
M  V30 846 C 79.1702 -4.34598 -0.693742 0
M  V30 847 H 76.2892 -0.736504 0.027047 0
M  V30 848 H 78.9312 -1.74501 0.751615 0
M  V30 849 H 77.0812 -3.84236 -0.574009 0
M  V30 850 H 78.7532 -4.14832 2.01773 0
M  V30 851 H 76.9962 -3.87016 1.95962 0
M  V30 852 H 77.6672 -5.36478 1.29982 0
M  V30 853 H 80.1432 -4.15615 -0.200869 0
M  V30 854 H 79.0192 -5.44318 -0.707714 0
M  V30 855 H 79.2802 -4.05759 -1.75533 0
M  V30 856 N 78.3393 -0.321999 -1.54275 0
M  V30 857 C 79.2863 0.544664 -2.24281 0
M  V30 858 C 80.2563 1.1129 -1.23303 0
M  V30 859 O 81.4413 1.15354 -1.51981 0
M  V30 860 C 78.5813 1.70045 -3.00298 0
M  V30 861 C 77.6943 1.16159 -4.1609 0
M  V30 862 C 76.8293 2.28293 -4.79641 0
M  V30 863 C 75.8683 1.71648 -5.8754 0
M  V30 864 N 75.0053 2.77438 -6.44959 0
M  V30 865 H 79.8453 -0.0588907 -2.97942 0
M  V30 866 H 77.3823 -0.0408345 -1.47043 0
M  V30 867 H 79.3403 2.38054 -3.42616 0
M  V30 868 H 77.9703 2.27531 -2.28975 0
M  V30 869 H 77.0223 0.373092 -3.78566 0
M  V30 870 H 78.3343 0.707087 -4.93763 0
M  V30 871 H 77.4883 3.0421 -5.2492 0
M  V30 872 H 76.2273 2.77079 -4.01346 0
M  V30 873 H 75.2323 0.942282 -5.41665 0
M  V30 874 H 76.4573 1.23741 -6.67731 0
M  V30 875 H 74.4033 3.25519 -5.69538 0
M  V30 876 H 74.3203 2.36547 -7.1804 0
M  V30 877 H 75.5883 3.53189 -6.94894 0
M  V30 878 N 79.8174 1.5752 -0.0501392 0
M  V30 879 C 81.0944 1.83996 0.663685 0
M  V30 880 C 81.4744 0.938339 1.89099 0
M  V30 881 O 80.8224 -0.00087759 2.285 0
M  V30 882 C 81.0324 3.33702 1.02196 0
M  V30 883 C 82.3804 4.00691 1.40469 0
M  V30 884 O 83.4044 3.38321 1.11433 0
M  V30 885 O 82.2634 5.10658 1.94654 0
M  V30 886 H 79.3574 0.759385 0.32751 0
M  V30 887 H 81.9034 1.69514 -0.0794238 0
M  V30 888 H 80.6754 3.91015 0.149364 0
M  V30 889 H 80.2984 3.53368 1.82255 0
M  V30 890 N 81.2955 -0.223234 1.56011 0
M  V30 891 C 82.5725 -0.972108 1.69733 0
M  V30 892 C 82.9525 -2.02485 0.59691 0
M  V30 893 O 82.3005 -2.25037 -0.396324 0
M  V30 894 C 82.5105 -1.58407 3.10979 0
M  V30 895 C 83.8585 -2.07696 3.70334 0
M  V30 896 O 84.8825 -1.68304 3.1393 0
M  V30 897 O 83.7415 -2.80096 4.69264 0
M  V30 898 H 80.8355 -0.453993 0.691245 0
M  V30 899 H 83.3815 -0.215149 1.68331 0
M  V30 900 H 82.1535 -0.823831 3.82529 0
M  V30 901 H 81.7765 -2.40661 3.16493 0
M  V30 902 N 82.7736 -1.49793 -0.48987 0
M  V30 903 C 83.7206 -1.67281 -1.59014 0
M  V30 904 C 84.6906 -0.514177 -1.57941 0
M  V30 905 O 85.8756 -0.742533 -1.75759 0
M  V30 906 C 83.0156 -1.75569 -2.97102 0
M  V30 907 C 82.1286 -3.0281 -3.08107 0
M  V30 908 C 81.2636 -3.02008 -4.36995 0
M  V30 909 C 80.3026 -4.23782 -4.41673 0
M  V30 910 N 79.4396 -4.20826 -5.62005 0
M  V30 911 H 84.2796 -2.61224 -1.43409 0
M  V30 912 H 81.8166 -1.29508 -0.697565 0
M  V30 913 H 83.7746 -1.78354 -3.77155 0
M  V30 914 H 82.4046 -0.850827 -3.11385 0
M  V30 915 H 81.4566 -3.09584 -2.21047 0
M  V30 916 H 82.7686 -3.92801 -3.07423 0
M  V30 917 H 81.9226 -3.03418 -5.25378 0
M  V30 918 H 80.6616 -2.09815 -4.4026 0
M  V30 919 H 79.6666 -4.22604 -3.5169 0
M  V30 920 H 80.8916 -5.17181 -4.40115 0
M  V30 921 H 78.8376 -3.31476 -5.66091 0
M  V30 922 H 78.7546 -5.04564 -5.62984 0
M  V30 923 H 80.0226 -4.26355 -6.52565 0
M  V30 924 N 84.2517 0.741722 -1.39055 0
M  V30 925 C 85.1617 1.88621 -1.39496 0
M  V30 926 C 86.1777 1.71557 -0.290578 0
M  V30 927 O 87.3537 1.94275 -0.530954 0
M  V30 928 C 84.4187 3.24134 -1.23037 0
M  V30 929 C 83.4797 3.5364 -2.43387 0
M  V30 930 C 82.7127 4.82687 -2.27703 0
M  V30 931 O 82.9357 5.55922 -1.27696 0
M  V30 932 O 81.8697 5.1194 -3.16545 0
M  V30 933 H 85.6957 1.91203 -2.35956 0
M  V30 934 H 83.2807 0.888625 -1.20099 0
M  V30 935 H 85.1627 4.0513 -1.15964 0
M  V30 936 H 83.8377 3.22337 -0.296691 0
M  V30 937 H 82.7447 2.72758 -2.56035 0
M  V30 938 H 84.0777 3.60209 -3.35425 0
M  V30 939 N 85.7298 1.2412 0.971189 0
M  V30 940 C 86.9548 1.10667 1.75407 0
M  V30 941 C 87.3798 -0.337048 1.85056 0
M  V30 942 O 86.7378 -1.24396 1.31892 0
M  V30 943 C 86.7858 1.74726 3.15441 0
M  V30 944 O 85.8898 1.01566 3.99697 0
M  V30 945 H 85.2308 0.387341 0.539317 0
M  V30 946 H 87.7608 1.64358 1.2185 0
M  V30 947 H 87.7708 1.80341 3.6598 0
M  V30 948 H 86.4458 2.79773 3.07734 0
M  V30 949 H 85.0228 1.03713 3.58187 0
M  V30 950 N 87.2079 -1.17134 1.05439 0
M  V30 951 C 88.4569 -1.86791 0.761049 0
M  V30 952 C 88.7699 -1.82072 -0.714795 0
M  V30 953 O 89.9759 -2.47223 -1.12218 0
M  V30 954 C 88.4319 -3.35166 1.31117 0
M  V30 955 C 88.0399 -3.48381 2.81664 0
M  V30 956 C 89.7839 -4.10134 1.09499 0
M  V30 957 C 87.6909 -4.90793 3.29964 0
M  V30 958 H 86.6209 -0.699681 0.281002 0
M  V30 959 H 89.2719 -1.3226 1.27199 0
M  V30 960 H 87.6539 -3.8925 0.72803 0
M  V30 961 H 88.8279 -3.04502 3.45855 0
M  V30 962 H 87.1429 -2.86836 3.01851 0
M  V30 963 H 89.7399 -5.152 1.43084 0
M  V30 964 H 90.0829 -4.16287 0.0328772 0
M  V30 965 H 90.6159 -3.62264 1.64346 0
M  V30 966 H 87.3549 -4.89816 4.35616 0
M  V30 967 H 86.8749 -5.35333 2.70516 0
M  V30 968 H 88.5539 -5.59573 3.24787 0
M  V30 969 N 88.686 -0.835752 -1.33615 0
M  V30 970 C 89.618 -0.224151 -2.28101 0
M  V30 971 C 90.631 0.593331 -1.51603 0
M  V30 972 O 91.82 0.420911 -1.73466 0
M  V30 973 C 88.92 0.703309 -3.31522 0
M  V30 974 C 88.093 -0.0741528 -4.37337 0
M  V30 975 C 87.152 0.776176 -5.20444 0
M  V30 976 O 86.178 0.216506 -5.68788 0
M  V30 977 N 87.38 2.09401 -5.41416 0
M  V30 978 H 90.145 -1.03598 -2.81225 0
M  V30 979 H 87.706 -0.69392 -1.46275 0
M  V30 980 H 89.698 1.27707 -3.84022 0
M  V30 981 H 88.268 1.41585 -2.78698 0
M  V30 982 H 87.488 -0.82928 -3.85378 0
M  V30 983 H 88.776 -0.608863 -5.05144 0
M  V30 984 H 88.174 2.57229 -5.03835 0
M  V30 985 H 86.731 2.61633 -5.96985 0
M  V30 986 N 90.1641 1.46063 -0.591896 0
M  V30 987 C 91.0961 2.28539 0.174001 0
M  V30 988 C 92.1091 1.39047 0.846753 0
M  V30 989 O 93.2981 1.63564 0.714774 0
M  V30 990 C 90.3981 3.14347 1.26645 0
M  V30 991 C 89.5711 4.32021 0.683856 0
M  V30 992 C 88.6301 4.99157 1.66518 0
M  V30 993 O 87.6561 5.56458 1.19763 0
M  V30 994 N 88.8581 4.97005 2.99943 0
M  V30 995 H 91.6231 2.94911 -0.533633 0
M  V30 996 H 89.1841 1.56077 -0.430294 0
M  V30 997 H 91.1761 3.56125 1.92242 0
M  V30 998 H 89.7461 2.49988 1.87682 0
M  V30 999 H 88.9661 3.93915 -0.1498 0
M  V30 1000 H 90.2541 5.08059 0.274567 0
M  V30 1001 H 89.6521 4.51714 3.40545 0
M  V30 1002 H 88.2091 5.42696 3.61004 0
M  V30 1003 N 91.6422 0.330177 1.54103 0
M  V30 1004 C 92.6052 -0.520144 2.2322 0
M  V30 1005 C 93.6052 -1.03828 1.22786 0
M  V30 1006 O 94.7952 -0.929652 1.4732 0
M  V30 1007 C 91.9272 -1.72317 2.94142 0
M  V30 1008 H 93.1202 0.0841605 2.99782 0
M  V30 1009 H 90.6732 0.0813433 1.56088 0
M  V30 1010 H 91.4082 -2.36653 2.21734 0
M  V30 1011 H 91.1932 -1.35898 3.67796 0
M  V30 1012 H 92.6832 -2.3266 3.46784 0
M  V30 1013 N 93.1203 -1.57491 0.0584922 0
M  V30 1014 C 94.3663 -1.93264 -0.614558 0
M  V30 1015 C 94.6993 -0.937717 -1.7006 0
M  V30 1016 O 93.9743 0.0351652 -1.94468 0
M  V30 1017 C 94.2573 -3.3938 -1.20386 0
M  V30 1018 C 94.1103 -4.49625 -0.125375 0
M  V30 1019 C 95.4293 -3.86039 -2.11334 0
M  V30 1020 H 92.5483 -0.702791 -0.221933 0
M  V30 1021 H 95.1903 -1.8961 0.12175 0
M  V30 1022 H 93.3403 -3.42626 -1.83139 0
M  V30 1023 H 95.0123 -4.58506 0.506971 0
M  V30 1024 H 93.2553 -4.30354 0.545672 0
M  V30 1025 H 93.9263 -5.48967 -0.577861 0
M  V30 1026 H 96.4023 -3.84716 -1.58534 0
M  V30 1027 H 95.2783 -4.88914 -2.49507 0
M  V30 1028 H 95.5393 -3.23215 -3.01636 0
M  V30 1029 N 94.5984 0.214957 -1.56127 0
M  V30 1030 C 95.5284 1.2695 -1.95974 0
M  V30 1031 C 96.5094 1.48539 -0.828868 0
M  V30 1032 O 97.6944 1.60611 -1.09168 0
M  V30 1033 C 94.8244 2.61794 -2.28214 0
M  V30 1034 C 93.7784 2.54851 -3.43853 0
M  V30 1035 C 93.1044 3.93785 -3.61715 0
M  V30 1036 C 94.4044 2.09065 -4.78632 0
M  V30 1037 H 96.0984 0.93846 -2.84312 0
M  V30 1038 H 93.6444 0.449996 -1.36788 0
M  V30 1039 H 95.5974 3.35731 -2.54682 0
M  V30 1040 H 94.3214 2.96599 -1.36736 0
M  V30 1041 H 92.9804 1.8337 -3.17444 0
M  V30 1042 H 92.6284 4.25908 -2.67602 0
M  V30 1043 H 92.3284 3.90019 -4.39498 0
M  V30 1044 H 93.8524 4.69374 -3.90539 0
M  V30 1045 H 95.2664 2.7275 -5.04262 0
M  V30 1046 H 93.6634 2.16346 -5.59745 0
M  V30 1047 H 94.7334 1.04315 -4.73547 0
M  V30 1048 N 96.0765 1.50051 0.48192 0
M  V30 1049 C 97.0395 1.67584 1.5636 0
M  V30 1050 C 98.0395 0.546894 1.51214 0
M  V30 1051 O 99.2295 0.813725 1.54026 0
M  V30 1052 C 96.3615 1.691 2.96003 0
M  V30 1053 H 97.5545 2.64078 1.42136 0
M  V30 1054 H 95.1075 1.39369 0.707533 0
M  V30 1055 H 95.8425 0.742589 3.15684 0
M  V30 1056 H 95.6275 2.51105 3.01146 0
M  V30 1057 H 97.1175 1.84656 3.74556 0
M  V30 1058 N 97.5546 -0.734337 1.39446 0
M  V30 1059 C 98.8026 -1.49096 1.36436 0
M  V30 1060 C 99.1236 -1.94961 -0.0388255 0
M  V30 1061 O 98.3936 -1.69033 -0.990191 0
M  V30 1062 H 96.9736 -0.5531 0.502085 0
M  V30 1063 H 99.6356 -0.871725 1.74319 0
M  V30 1064 H 98.7316 -2.37276 2.02747 0
M  V30 1065 N 99.0327 -1.24633 -0.964593 0
M  V30 1066 C 100.263 -1.11339 -1.74032 0
M  V30 1067 C 100.671 0.336593 -1.86182 0
M  V30 1068 O 100.014 1.24389 -1.35178 0
M  V30 1069 C 100.076 -1.68284 -3.1768 0
M  V30 1070 C 99.7397 -3.17196 -3.28992 0
M  V30 1071 C 100.737 -4.14308 -3.14078 0
M  V30 1072 C 98.4217 -3.57215 -3.53133 0
M  V30 1073 C 100.416 -5.4942 -3.23135 0
M  V30 1074 C 98.1027 -4.92468 -3.61827 0
M  V30 1075 C 99.1007 -5.8838 -3.46841 0
M  V30 1076 O 98.7887 -7.21173 -3.55197 0
M  V30 1077 H 98.5207 -0.389551 -0.552472 0
M  V30 1078 H 101.075 -1.65282 -1.21946 0
M  V30 1079 H 99.3047 -1.08777 -3.71085 0
M  V30 1080 H 100.994 -1.50234 -3.77074 0
M  V30 1081 H 101.76 -3.84731 -2.95308 0
M  V30 1082 H 97.6387 -2.83063 -3.63863 0
M  V30 1083 H 101.183 -6.24263 -3.11355 0
M  V30 1084 H 97.0797 -5.21714 -3.80111 0
M  V30 1085 H 97.8477 -7.29135 -3.71892 0
M  V30 1086 N 100.511 1.16574 -1.06058 0
M  V30 1087 C 101.461 2.18854 -0.63929 0
M  V30 1088 C 102.445 1.57505 0.328798 0
M  V30 1089 O 103.637 1.76408 0.144623 0
M  V30 1090 C 100.766 3.43291 -0.0247203 0
M  V30 1091 C 99.8518 4.11722 -1.01716 0
M  V30 1092 N 100.243 4.55841 -2.19186 0
M  V30 1093 C 98.5408 4.37872 -0.847569 0
M  V30 1094 C 99.2418 5.08751 -2.82042 0
M  V30 1095 N 98.2178 5.01489 -2.09784 0
M  V30 1096 H 102.02 2.5068 -1.53417 0
M  V30 1097 H 99.5338 1.32999 -0.931935 0
M  V30 1098 H 101.531 4.15856 0.294915 0
M  V30 1099 H 100.191 3.12954 0.865448 0
M  V30 1100 H 101.202 4.49649 -2.56975 0
M  V30 1101 H 97.8788 4.17499 -0.00918848 0
M  V30 1102 H 99.2688 5.52944 -3.81709 0
M  V30 1103 N 101.989 0.842826 1.3317 0
M  V30 1104 C 102.936 0.276885 2.29133 0
M  V30 1105 C 103.906 -0.609527 1.54512 0
M  V30 1106 O 105.091 -0.546955 1.82792 0
M  V30 1107 C 102.231 -0.538707 3.40869 0
M  V30 1108 C 101.344 0.372169 4.30394 0
M  V30 1109 C 100.479 -0.454908 5.29249 0
M  V30 1110 C 99.5179 0.45411 6.10413 0
M  V30 1111 N 98.6549 -0.335075 7.013 0
M  V30 1112 H 103.495 1.10052 2.76934 0
M  V30 1113 H 101.032 0.554161 1.36262 0
M  V30 1114 H 102.99 -1.02709 4.0436 0
M  V30 1115 H 101.62 -1.32727 2.9425 0
M  V30 1116 H 100.672 0.97888 3.6759 0
M  V30 1117 H 101.984 1.0703 4.87182 0
M  V30 1118 H 101.138 -1.00695 5.98285 0
M  V30 1119 H 99.8769 -1.18646 4.73048 0
M  V30 1120 H 98.8819 1.01813 5.40291 0
M  V30 1121 H 100.107 1.18409 6.68697 0
M  V30 1122 H 98.0529 -1.04994 6.47543 0
M  V30 1123 H 97.9699 0.304262 7.55387 0
M  V30 1124 H 99.2379 -0.869224 7.74638 0
M  V30 1125 N 103.467 -1.45747 0.599634 0
M  V30 1126 C 104.377 -2.34262 -0.125888 0
M  V30 1127 C 105.393 -1.50768 -0.868625 0
M  V30 1128 O 106.569 -1.83592 -0.828003 0
M  V30 1129 C 103.634 -3.28252 -1.11587 0
M  V30 1130 C 102.695 -4.27651 -0.375956 0
M  V30 1131 C 101.928 -5.1715 -1.31877 0
M  V30 1132 O 102.151 -5.09916 -2.55621 0
M  V30 1133 O 101.085 -5.96286 -0.820157 0
M  V30 1134 H 104.911 -2.97688 0.601315 0
M  V30 1135 H 102.496 -1.44999 0.359934 0
M  V30 1136 H 104.378 -3.86191 -1.68626 0
M  V30 1137 H 103.053 -2.67401 -1.82424 0
M  V30 1138 H 101.96 -3.7335 0.236698 0
M  V30 1139 H 103.293 -4.91334 0.29177 0
M  V30 1140 N 104.945 -0.338344 -1.53925 0
M  V30 1141 C 106.222 0.314774 -1.93051 0
M  V30 1142 C 106.602 1.68669 -1.26941 0
M  V30 1143 O 105.95 2.24636 -0.418445 0
M  V30 1144 C 106.16 0.392249 -3.46789 0
M  V30 1145 C 107.508 0.645554 -4.19664 0
M  V30 1146 O 108.532 0.474575 -3.53024 0
M  V30 1147 O 107.391 0.976408 -5.37707 0
M  V30 1148 H 104.485 0.182598 -0.80659 0
M  V30 1149 H 107.031 -0.389141 -1.65178 0
M  V30 1150 H 105.803 -0.570702 -3.87116 0
M  V30 1151 H 105.426 1.14316 -3.80812 0
M  V30 1152 N 106.423 1.57458 -0.0668435 0
M  V30 1153 C 107.669 1.93587 0.6043 0
M  V30 1154 C 108.002 0.946722 1.69561 0
M  V30 1155 O 107.277 -0.0248516 1.94484 0
M  V30 1156 C 107.56 3.40014 1.18585 0
M  V30 1157 C 107.413 4.49685 0.101529 0
M  V30 1158 C 108.732 3.87154 2.09284 0
M  V30 1159 H 105.851 0.703958 0.218202 0
M  V30 1160 H 108.493 1.89542 -0.131804 0
M  V30 1161 H 106.643 3.43592 1.81319 0
M  V30 1162 H 108.315 4.5823 -0.531279 0
M  V30 1163 H 106.558 4.30059 -0.568487 0
M  V30 1164 H 107.229 5.49266 0.54874 0
M  V30 1165 H 109.705 3.85551 1.56491 0
M  V30 1166 H 108.581 4.90231 2.46911 0
M  V30 1167 H 108.842 3.2481 2.99918 0
M  V30 1168 N 107.901 -0.206675 1.56239 0
M  V30 1169 C 109.178 -0.954051 1.70755 0
M  V30 1170 C 109.558 -2.01841 0.618353 0
M  V30 1171 O 108.906 -2.25444 -0.372434 0
M  V30 1172 C 109.116 -1.551 3.12642 0
M  V30 1173 C 110.464 -2.03757 3.72516 0
M  V30 1174 O 111.488 -1.64965 3.15698 0
M  V30 1175 O 110.347 -2.75103 4.72208 0
M  V30 1176 H 107.441 -0.446636 0.696021 0
M  V30 1177 H 109.987 -0.197283 1.68549 0
M  V30 1178 H 108.759 -0.783212 3.83382 0
M  V30 1179 H 108.382 -2.37291 3.19028 0
M  V30 1180 N 109.379 -1.50304 -0.473955 0
M  V30 1181 C 110.625 -1.61389 -1.22806 0
M  V30 1182 C 110.958 -0.311955 -1.91678 0
M  V30 1183 O 110.233 0.686384 -1.81986 0
M  V30 1184 C 110.516 -2.79219 -2.27396 0
M  V30 1185 C 110.369 -4.19286 -1.62848 0
M  V30 1186 C 111.688 -2.92614 -3.28732 0
M  V30 1187 H 108.807 -0.587399 -0.445119 0
M  V30 1188 H 111.449 -1.82681 -0.522265 0
M  V30 1189 H 109.599 -2.61195 -2.87592 0
M  V30 1190 H 111.271 -4.48892 -1.06271 0
M  V30 1191 H 109.514 -4.23677 -0.931693 0
M  V30 1192 H 110.185 -4.97655 -2.38838 0
M  V30 1193 H 112.661 -3.09105 -2.78556 0
M  V30 1194 H 111.537 -3.76688 -3.99246 0
M  V30 1195 H 111.798 -2.03107 -3.92683 0
M  V30 1196 N 110.857 0.726932 -1.39834 0
M  V30 1197 C 112.103 1.48884 -1.377 0
M  V30 1198 C 112.436 1.94185 0.0244852 0
M  V30 1199 O 111.711 1.67361 0.990986 0
M  V30 1200 C 111.994 2.72288 -2.3565 0
M  V30 1201 C 111.847 2.32956 -3.84775 0
M  V30 1202 C 113.166 3.74414 -2.31306 0
M  V30 1203 H 110.285 0.540062 -0.5015 0
M  V30 1204 H 112.927 0.830547 -1.70886 0
M  V30 1205 H 111.077 3.28457 -2.07481 0
M  V30 1206 H 112.749 1.82356 -4.23726 0
M  V30 1207 H 110.992 1.65088 -4.01159 0
M  V30 1208 H 111.663 3.21362 -4.4881 0
M  V30 1209 H 114.139 3.27849 -2.56231 0
M  V30 1210 H 113.015 4.58414 -3.01907 0
M  V30 1211 H 113.276 4.21909 -1.32081 0
M  V30 1212 N 112.336 1.25143 0.95797 0
M  V30 1213 C 113.266 1.07711 2.07173 0
M  V30 1214 C 114.247 -0.0128462 1.70095 0
M  V30 1215 O 115.432 0.156061 1.93572 0
M  V30 1216 C 112.562 0.691503 3.40346 0
M  V30 1217 C 111.516 1.73132 3.9142 0
M  V30 1218 C 110.842 1.20049 5.21049 0
M  V30 1219 C 112.142 3.1294 4.1817 0
M  V30 1220 H 113.836 2.00873 2.22014 0
M  V30 1221 H 111.382 0.967191 1.06684 0
M  V30 1222 H 113.335 0.556505 4.17709 0
M  V30 1223 H 112.059 -0.275819 3.25433 0
M  V30 1224 H 110.718 1.8547 3.16222 0
M  V30 1225 H 110.366 0.223499 5.02503 0
M  V30 1226 H 110.066 1.89545 5.56189 0
M  V30 1227 H 111.59 1.07782 6.01012 0
M  V30 1228 H 113.004 3.03775 4.86203 0
M  V30 1229 H 111.401 3.79875 4.64559 0
M  V30 1230 H 112.471 3.6025 3.24573 0
M  V30 1231 N 113.814 -1.1601 1.06675 0
M  V30 1232 C 115.042 -1.90527 0.806667 0
M  V30 1233 C 115.457 -1.77643 -0.639396 0
M  V30 1234 O 114.814 -1.12369 -1.43803 0
M  V30 1235 C 114.865 -3.41106 1.19705 0
M  V30 1236 O 114.586 -3.53608 2.58636 0
M  V30 1237 C 116.087 -4.32663 0.965266 0
M  V30 1238 H 113.307 -0.604053 0.292166 0
M  V30 1239 H 115.851 -1.47026 1.4214 0
M  V30 1240 H 114.006 -3.82296 0.626774 0
M  V30 1241 H 114.42 -4.47011 2.74375 0
M  V30 1242 H 115.894 -5.36763 1.288 0
M  V30 1243 H 116.371 -4.39089 -0.0987936 0
M  V30 1244 H 116.977 -3.97206 1.52011 0
M  V30 1245 N 115.292 -0.849877 -1.32721 0
M  V30 1246 C 116.24 -0.279745 -2.30912 0
M  V30 1247 C 117.234 0.594278 -1.58634 0
M  V30 1248 O 118.44 0.482613 -1.73409 0
M  V30 1249 H 114.815 -0.0717521 -0.748569 0
M  V30 1250 H 116.786 -1.12222 -2.76494 0
M  V30 1251 C 115.535 0.521108 -3.43773 0
M  V30 1252 H 114.858 -0.142141 -3.99547 0
M  V30 1253 H 116.298 0.885693 -4.14646 0
M  V30 1254 C 114.757 1.70442 -2.90605 0
M  V30 1255 O 115.287 2.8034 -2.87702 0
M  V30 1256 N 113.493 1.52991 -2.47067 0
M  V30 1257 H 113.04 0.635914 -2.49628 0
M  V30 1258 H 112.998 2.32311 -2.11847 0
M  V30 1259 N 116.77 1.45427 -0.607355 0
M  V30 1260 C 118.018 2.01841 -0.102253 0
M  V30 1261 C 118.339 1.47832 1.27164 0
M  V30 1262 O 117.609 0.672497 1.83995 0
M  V30 1263 H 116.189 0.746188 -0.0348101 0
M  V30 1264 H 118.851 1.78229 -0.7887 0
M  V30 1265 H 117.947 3.12057 -0.0518585 0
M  V30 1266 N 118.248 0.346503 1.53744 0
M  V30 1267 C 119.496 -0.248612 2.00565 0
M  V30 1268 C 119.817 -1.5083 1.23593 0
M  V30 1269 O 119.087 -1.92858 0.343912 0
M  V30 1270 H 117.667 -0.0948564 0.740953 0
M  V30 1271 H 120.329 0.468341 1.89189 0
M  V30 1272 H 119.425 -0.488994 3.08245 0
M  V30 1273 N 119.726 -1.57421 0.075193 0
M  V30 1274 C 120.954 -1.97946 -0.602076 0
M  V30 1275 C 121.369 -0.953674 -1.62943 0
M  V30 1276 O 120.726 0.0592551 -1.82404 0
M  V30 1277 C 120.777 -3.38546 -1.26762 0
M  V30 1278 O 120.498 -4.37195 -0.281376 0
M  V30 1279 C 121.999 -3.93966 -2.03239 0
M  V30 1280 H 119.219 -0.650918 -0.162931 0
M  V30 1281 H 121.763 -2.03959 0.148601 0
M  V30 1282 H 119.918 -3.33609 -1.96936 0
M  V30 1283 H 120.332 -5.18975 -0.759267 0
M  V30 1284 H 121.806 -4.94555 -2.45193 0
M  V30 1285 H 122.283 -3.30693 -2.8903 0
M  V30 1286 H 122.889 -4.02315 -1.37924 0
M  V30 1287 N 121.204 0.198386 -1.56346 0
M  V30 1288 C 122.452 0.91747 -1.80075 0
M  V30 1289 C 122.773 1.83929 -0.647692 0
M  V30 1290 O 122.043 1.93029 0.334166 0
M  V30 1291 H 120.623 0.341774 -0.664228 0
M  V30 1292 H 123.285 0.204684 -1.93822 0
M  V30 1293 H 122.381 1.51055 -2.7311 0
M  V30 1294 N 122.682 1.50554 0.465978 0
M  V30 1295 C 123.931 1.61038 1.21448 0
M  V30 1296 C 124.244 0.31865 1.92987 0
M  V30 1297 O 125.45 0.302469 2.6981 0
M  V30 1298 C 123.906 2.84283 2.20706 0
M  V30 1299 C 123.514 4.20352 1.54946 0
M  V30 1300 C 125.258 3.04115 2.96166 0
M  V30 1301 C 123.165 5.34778 2.5252 0
M  V30 1302 H 122.095 0.599718 0.457005 0
M  V30 1303 H 124.746 1.7699 0.484424 0
M  V30 1304 H 123.128 2.61901 2.97025 0
M  V30 1305 H 124.302 4.53008 0.843811 0
M  V30 1306 H 122.617 4.06167 0.917475 0
M  V30 1307 H 125.214 3.86774 3.69202 0
M  V30 1308 H 125.557 2.16045 3.55852 0
M  V30 1309 H 126.09 3.26702 2.26959 0
M  V30 1310 H 122.829 6.25018 1.97566 0
M  V30 1311 H 122.349 5.06534 3.21222 0
M  V30 1312 H 124.028 5.65561 3.14245 0
M  V30 1313 N 124.16 -0.719506 1.40217 0
M  V30 1314 C 125.388 -1.50864 1.41589 0
M  V30 1315 C 125.803 -1.88794 0.0145275 0
M  V30 1316 O 125.16 -1.55174 -0.960594 0
M  V30 1317 C 125.211 -2.78646 2.30302 0
M  V30 1318 O 124.932 -2.42321 3.64983 0
M  V30 1319 C 126.433 -3.72569 2.40224 0
M  V30 1320 H 123.653 -0.465709 0.48307 0
M  V30 1321 H 126.197 -0.88785 1.84221 0
M  V30 1322 H 124.352 -3.37019 1.91042 0
M  V30 1323 H 124.766 -3.24514 4.12057 0
M  V30 1324 H 126.24 -4.5908 3.06512 0
M  V30 1325 H 126.717 -4.15403 1.42608 0
M  V30 1326 H 127.323 -3.20109 2.80019 0
M  V30 1327 N 125.638 -1.25649 -0.95132 0
M  V30 1328 C 126.585 -1.06323 -2.04851 0
M  V30 1329 C 127.555 0.0286491 -1.66075 0
M  V30 1330 O 128.74 -0.12917 -1.90362 0
M  V30 1331 C 125.88 -0.691529 -3.381 0
M  V30 1332 C 124.993 -1.85861 -3.89974 0
M  V30 1333 C 124.128 -1.43096 -5.11563 0
M  V30 1334 C 123.167 -2.56696 -5.55674 0
M  V30 1335 N 122.304 -2.14684 -6.68472 0
M  V30 1336 H 127.144 -2.00222 -2.20715 0
M  V30 1337 H 124.681 -0.997027 -1.08156 0
M  V30 1338 H 126.639 -0.456963 -4.1469 0
M  V30 1339 H 125.269 0.210474 -3.22113 0
M  V30 1340 H 124.321 -2.20639 -3.09875 0
M  V30 1341 H 125.633 -2.71161 -4.18657 0
M  V30 1342 H 124.787 -1.15624 -5.9558 0
M  V30 1343 H 123.526 -0.548722 -4.84603 0
M  V30 1344 H 122.531 -2.84909 -4.7022 0
M  V30 1345 H 123.756 -3.45503 -5.8464 0
M  V30 1346 H 121.702 -1.28881 -6.43215 0
M  V30 1347 H 121.619 -2.9353 -6.96689 0
M  V30 1348 H 122.887 -1.90397 -7.5589 0
M  V30 1349 N 127.117 1.15442 -1.07289 0
M  V30 1350 C 128.533 1.38201 -0.798288 0
M  V30 1351 C 128.733 1.92429 0.597769 0
M  V30 1352 O 127.789 2.12962 1.3566 0
M  V30 1353 C 129.102 2.35357 -1.87156 0
M  V30 1354 C 130.65 2.49021 -1.89624 0
M  V30 1355 C 131.125 3.49468 -2.96034 0
M  V30 1356 N 132.616 3.57003 -2.95132 0
M  V30 1357 C 133.351 4.34543 -3.74112 0
M  V30 1358 N 132.847 5.15421 -4.6294 0
M  V30 1359 N 134.64 4.29625 -3.62462 0
M  V30 1360 H 126.791 0.78584 -1.97328 0
M  V30 1361 H 129.054 0.408065 -0.855679 0
M  V30 1362 H 128.76 2.02626 -2.87464 0
M  V30 1363 H 128.634 3.35129 -1.73114 0
M  V30 1364 H 131.021 2.81051 -0.899687 0
M  V30 1365 H 131.102 1.4925 -2.07745 0
M  V30 1366 H 130.746 3.18173 -3.95889 0
M  V30 1367 H 130.676 4.48992 -2.75161 0
M  V30 1368 H 133.167 2.99276 -2.30743 0
M  V30 1369 H 133.48 5.7183 -5.19837 0
M  V30 1370 H 131.825 5.14729 -4.66989 0
M  V30 1371 H 135.016 3.65505 -2.92444 0
M  V30 1372 H 135.189 4.89807 -4.24256 0
M  V30 1373 N 128.595 0.856903 1.32268 0
M  V30 1374 C 129.872 0.382583 1.91822 0
M  V30 1375 C 130.252 -1.13407 1.78051 0
M  V30 1376 O 129.6 -1.95673 1.18001 0
M  V30 1377 C 129.81 0.849446 3.38505 0
M  V30 1378 C 131.158 0.867936 4.15634 0
M  V30 1379 O 132.182 0.794232 3.47232 0
M  V30 1380 O 131.041 0.972286 5.37781 0
M  V30 1381 H 128.135 0.112014 0.819379 0
M  V30 1382 H 130.681 0.943952 1.41024 0
M  V30 1383 H 129.453 1.89267 3.42482 0
M  V30 1384 H 129.076 0.265652 3.96712 0
M  V30 1385 N 130.073 -1.45103 0.615059 0
M  V30 1386 C 131.319 -2.02483 0.113347 0
M  V30 1387 C 131.652 -1.48146 -1.25564 0
M  V30 1388 O 130.927 -0.659104 -1.82992 0
M  V30 1389 C 131.21 -3.60005 0.0825278 0
M  V30 1390 C 131.063 -4.2466 1.48271 0
M  V30 1391 C 132.382 -4.35972 -0.601401 0
M  V30 1392 H 129.501 -0.735764 0.0426632 0
M  V30 1393 H 132.143 -1.72868 0.788461 0
M  V30 1394 H 130.293 -3.85367 -0.492378 0
M  V30 1395 H 131.965 -4.10458 2.10527 0
M  V30 1396 H 130.208 -3.82772 2.04127 0
M  V30 1397 H 130.879 -5.336 1.41332 0
M  V30 1398 H 133.355 -4.15947 -0.112666 0
M  V30 1399 H 132.231 -5.45697 -0.592097 0
M  V30 1400 H 132.492 -4.09391 -1.66887 0
M  V30 1401 N 131.551 -0.354651 -1.53558 0
M  V30 1402 C 132.779 0.239515 -2.05509 0
M  V30 1403 C 133.194 1.4333 -1.2289 0
M  V30 1404 O 132.551 1.80538 -0.266899 0
M  V30 1405 C 132.602 0.643719 -3.55723 0
M  V30 1406 O 132.323 -0.502602 -4.35207 0
M  V30 1407 C 133.824 1.29743 -4.23889 0
M  V30 1408 H 131.044 0.0442697 -0.669538 0
M  V30 1409 H 133.588 -0.509856 -1.98042 0
M  V30 1410 H 131.743 1.34302 -3.63376 0
M  V30 1411 H 132.157 -0.178172 -5.24197 0
M  V30 1412 H 133.631 1.53091 -5.30346 0
M  V30 1413 H 134.108 2.25441 -3.76926 0
M  V30 1414 H 134.714 0.639865 -4.20459 0
M  V30 1415 N 133.029 1.57378 -0.0835403 0
M  V30 1416 C 134.278 1.93106 0.582498 0
M  V30 1417 C 134.591 0.96651 1.70053 0
M  V30 1418 O 135.797 1.21705 2.42693 0
M  V30 1419 C 134.253 3.43076 1.08751 0
M  V30 1420 C 133.861 4.48 -0.000146404 0
M  V30 1421 C 135.605 3.87785 1.72694 0
M  V30 1422 C 133.512 5.89113 0.519568 0
M  V30 1423 H 132.442 0.720775 0.221358 0
M  V30 1424 H 135.093 1.82821 -0.157675 0
M  V30 1425 H 133.475 3.48474 1.88101 0
M  V30 1426 H 134.649 4.54233 -0.775199 0
M  V30 1427 H 132.964 4.1283 -0.54406 0
M  V30 1428 H 135.561 4.90604 2.1263 0
M  V30 1429 H 135.904 3.25796 2.59158 0
M  V30 1430 H 136.437 3.8504 0.999457 0
M  V30 1431 H 133.176 6.54775 -0.308186 0
M  V30 1432 H 132.696 5.86376 1.26188 0
M  V30 1433 H 134.375 6.39346 0.992237 0
M  V30 1434 N 134.507 -0.190092 1.56449 0
M  V30 1435 C 135.417 -1.25591 1.98152 0
M  V30 1436 C 136.433 -1.49519 0.889944 0
M  V30 1437 O 137.609 -1.62036 1.19609 0
M  V30 1438 C 134.674 -2.57916 2.3169 0
M  V30 1439 C 133.735 -2.42015 3.5458 0
M  V30 1440 C 132.968 -3.6803 3.8651 0
M  V30 1441 O 133.191 -4.72413 3.1966 0
M  V30 1442 O 132.125 -3.6326 4.79923 0
M  V30 1443 H 135.951 -0.931988 2.89046 0
M  V30 1444 H 133.536 -0.395488 1.4407 0
M  V30 1445 H 135.418 -3.36008 2.54316 0
M  V30 1446 H 134.093 -2.89925 1.43963 0
M  V30 1447 H 133 -1.62017 3.37196 0
M  V30 1448 H 134.333 -2.14937 4.4279 0
M  V30 1449 N 135.985 -1.50799 -0.457987 0
M  V30 1450 C 136.948 -1.7005 -1.53674 0
M  V30 1451 C 137.948 -0.570881 -1.50325 0
M  V30 1452 O 139.138 -0.838126 -1.52712 0
M  V30 1453 C 136.27 -1.73788 -2.93276 0
M  V30 1454 H 137.463 -2.66306 -1.37917 0
M  V30 1455 H 135.016 -1.40477 -0.685271 0
M  V30 1456 H 135.751 -0.792717 -3.14462 0
M  V30 1457 H 135.536 -2.55864 -2.97113 0
M  V30 1458 H 137.026 -1.90591 -3.71571 0
M  V30 1459 N 137.463 0.71206 -1.40597 0
M  V30 1460 C 138.709 1.47416 -1.39271 0
M  V30 1461 C 139.042 1.942 0.00388791 0
M  V30 1462 O 138.317 1.68403 0.973179 0
M  V30 1463 C 138.6 2.69774 -2.38525 0
M  V30 1464 C 138.453 2.28861 -3.87224 0
M  V30 1465 C 139.772 3.71939 -2.35264 0
M  V30 1466 H 136.891 0.534713 -0.5072 0
M  V30 1467 H 139.533 0.812375 -1.71757 0
M  V30 1468 H 137.683 3.26238 -2.10953 0
M  V30 1469 H 139.355 1.77852 -4.25636 0
M  V30 1470 H 137.598 1.60824 -4.02887 0
M  V30 1471 H 138.269 3.16584 -4.52193 0
M  V30 1472 H 140.745 3.25113 -2.59694 0
M  V30 1473 H 139.621 4.55186 -3.06753 0
M  V30 1474 H 139.882 4.20484 -1.36549 0
M  V30 1475 N 138.941 1.26152 0.944643 0
M  V30 1476 C 140.166 1.14363 1.7302 0
M  V30 1477 C 140.591 -0.29772 1.85729 0
M  V30 1478 O 139.949 -1.2157 1.34501 0
M  V30 1479 C 139.997 1.81378 3.11664 0
M  V30 1480 O 139.101 1.10022 3.97453 0
M  V30 1481 H 138.442 0.398694 0.53098 0
M  V30 1482 H 140.972 1.66906 1.18337 0
M  V30 1483 H 140.982 1.88064 3.62072 0
M  V30 1484 H 139.657 2.86237 3.0173 0
M  V30 1485 H 138.234 1.11287 3.55907 0
M  V30 1486 N 140.419 -1.14872 1.07899 0
M  V30 1487 C 141.382 -2.17986 0.708161 0
M  V30 1488 C 142.382 -1.58775 -0.25442 0
M  V30 1489 O 143.572 -1.74166 -0.034645 0
M  V30 1490 C 140.704 -3.40871 0.0446929 0
M  V30 1491 H 141.897 -2.52306 1.62116 0
M  V30 1492 H 139.45 -1.2943 0.876218 0
M  V30 1493 H 140.185 -3.12124 -0.880281 0
M  V30 1494 H 139.97 -3.8511 0.737091 0
M  V30 1495 H 141.46 -4.17121 -0.19991 0
M  V30 1496 N 141.898 -0.863906 -1.31812 0
M  V30 1497 C 142.828 -0.330843 -2.31144 0
M  V30 1498 C 143.809 0.575005 -1.60087 0
M  V30 1499 O 144.994 0.493304 -1.8783 0
M  V30 1500 C 142.124 0.47374 -3.44054 0
M  V30 1501 C 141.078 -0.338481 -4.26659 0
M  V30 1502 C 140.404 0.591412 -5.31419 0
M  V30 1503 C 141.704 -1.56926 -4.98168 0
M  V30 1504 H 143.398 -1.16086 -2.75979 0
M  V30 1505 H 140.944 -0.559657 -1.32679 0
M  V30 1506 H 142.897 0.857143 -4.12591 0
M  V30 1507 H 141.621 1.33721 -2.9797 0
M  V30 1508 H 140.28 -0.703754 -3.59782 0
M  V30 1509 H 139.928 1.45199 -4.81587 0
M  V30 1510 H 139.628 0.0519022 -5.87577 0
M  V30 1511 H 141.152 0.97179 -6.02817 0
M  V30 1512 H 142.566 -1.25764 -5.59336 0
M  V30 1513 H 140.963 -2.04739 -5.64094 0
M  V30 1514 H 142.033 -2.32544 -4.25501 0
M  V30 1515 N 143.376 1.44774 -0.622745 0
M  V30 1516 C 144.306 2.33382 0.0741861 0
M  V30 1517 C 145.287 1.47719 0.843387 0
M  V30 1518 O 146.472 1.76458 0.810934 0
M  V30 1519 C 143.602 3.30663 1.06204 0
M  V30 1520 C 142.556 4.26079 0.405037 0
M  V30 1521 C 141.882 5.13165 1.5022 0
M  V30 1522 C 143.182 5.1781 -0.683414 0
M  V30 1523 H 144.876 2.91905 -0.665713 0
M  V30 1524 H 142.422 1.40363 -0.321587 0
M  V30 1525 H 144.375 3.9153 1.55827 0
M  V30 1526 H 143.099 2.70331 1.83272 0
M  V30 1527 H 141.758 3.66532 -0.0704683 0
M  V30 1528 H 141.406 4.49191 2.26355 0
M  V30 1529 H 141.106 5.77812 1.06803 0
M  V30 1530 H 142.63 5.76902 2.00041 0
M  V30 1531 H 144.044 5.72661 -0.270631 0
M  V30 1532 H 142.441 5.91015 -1.04023 0
M  V30 1533 H 143.511 4.59326 -1.55395 0
M  V30 1534 N 144.854 0.36279 1.53368 0
M  V30 1535 C 146.131 -0.284021 1.93527 0
M  V30 1536 C 146.511 -1.66628 1.29608 0
M  V30 1537 O 145.859 -2.23942 0.45413 0
M  V30 1538 C 146.069 -0.337028 3.47369 0
M  V30 1539 C 147.417 -0.578708 4.20638 0
M  V30 1540 O 148.441 -0.418352 3.53735 0
M  V30 1541 O 147.3 -0.89074 5.39192 0
M  V30 1542 H 144.394 -0.169743 0.809393 0
M  V30 1543 H 146.94 0.41537 1.64538 0
M  V30 1544 H 145.712 0.632217 3.86159 0
M  V30 1545 H 145.335 -1.08243 3.82582 0
M  V30 1546 N 146.332 -1.57332 0.0918853 0
M  V30 1547 C 147.279 -2.13847 -0.868211 0
M  V30 1548 C 148.249 -1.05618 -1.28196 0
M  V30 1549 O 149.434 -1.33387 -1.36427 0
M  V30 1550 C 146.574 -2.72062 -2.12312 0
M  V30 1551 C 145.687 -3.94514 -1.7602 0
M  V30 1552 C 144.822 -4.40903 -2.96273 0
M  V30 1553 C 143.861 -5.55953 -2.56092 0
M  V30 1554 N 142.998 -5.97209 -3.69169 0
M  V30 1555 H 147.838 -2.95575 -0.379406 0
M  V30 1556 H 145.375 -1.46048 -0.175606 0
M  V30 1557 H 147.333 -3.03931 -2.858 0
M  V30 1558 H 145.963 -1.93068 -2.58698 0
M  V30 1559 H 145.015 -3.68979 -0.925135 0
M  V30 1560 H 146.327 -4.7802 -1.42472 0
M  V30 1561 H 145.481 -4.74539 -3.78018 0
M  V30 1562 H 144.22 -3.56291 -3.33029 0
M  V30 1563 H 143.225 -5.21948 -1.72773 0
M  V30 1564 H 144.45 -6.42311 -2.20484 0
M  V30 1565 H 142.396 -5.15543 -4.05649 0
M  V30 1566 H 142.313 -6.75504 -3.39456 0
M  V30 1567 H 143.581 -6.35475 -4.51434 0
M  V30 1568 N 147.81 0.181792 -1.56548 0
M  V30 1569 C 148.72 1.24538 -1.98815 0
M  V30 1570 C 149.736 1.49045 -0.897861 0
M  V30 1571 O 150.912 1.61399 -1.20467 0
M  V30 1572 C 147.977 2.56683 -2.33055 0
M  V30 1573 C 147.038 2.40131 -3.55859 0
M  V30 1574 C 146.271 3.65975 -3.88456 0
M  V30 1575 O 146.494 4.70711 -3.22161 0
M  V30 1576 O 145.428 3.6071 -4.81842 0
M  V30 1577 H 149.254 0.916647 -2.89536 0
M  V30 1578 H 146.839 0.387842 -1.44278 0
M  V30 1579 H 148.721 3.34655 -2.56094 0
M  V30 1580 H 147.396 2.89157 -1.45498 0
M  V30 1581 H 146.303 1.60226 -3.38051 0
M  V30 1582 H 147.636 2.12585 -4.43924 0
M  V30 1583 N 149.288 1.51039 0.449983 0
M  V30 1584 C 150.537 1.62317 1.19733 0
M  V30 1585 C 150.85 0.339101 1.92638 0
M  V30 1586 O 152.056 0.331069 2.69474 0
M  V30 1587 C 150.512 2.86608 2.17678 0
M  V30 1588 C 150.12 4.21972 1.50479 0
M  V30 1589 C 151.864 3.07239 2.92924 0
M  V30 1590 C 149.771 5.37426 2.46834 0
M  V30 1591 H 148.701 0.604532 0.450619 0
M  V30 1592 H 151.352 1.77494 0.465625 0
M  V30 1593 H 149.734 2.65037 2.94231 0
M  V30 1594 H 150.908 4.53878 0.795716 0
M  V30 1595 H 149.223 4.07117 0.874344 0
M  V30 1596 H 151.82 3.90668 3.65079 0
M  V30 1597 H 152.163 2.19807 3.5354 0
M  V30 1598 H 152.696 3.29091 2.23481 0
M  V30 1599 H 149.435 6.27079 1.90926 0
M  V30 1600 H 148.955 5.09912 3.15832 0
M  V30 1601 H 150.634 5.68862 3.08228 0
M  V30 1602 N 150.766 -0.704594 1.40972 0
M  V30 1603 C 152.012 -1.46675 1.40051 0
M  V30 1604 C 152.345 -1.94199 0.00641102 0
M  V30 1605 O 151.62 -1.68916 -0.964235 0
M  V30 1606 C 151.903 -2.68505 2.39952 0
M  V30 1607 C 151.756 -2.26805 3.88432 0
M  V30 1608 C 153.075 -3.70686 2.37233 0
M  V30 1609 H 150.194 -0.532015 0.510028 0
M  V30 1610 H 152.836 -0.803255 1.72185 0
M  V30 1611 H 150.986 -3.25114 2.1268 0
M  V30 1612 H 152.658 -1.75592 4.26574 0
M  V30 1613 H 150.901 -1.58685 4.03734 0
M  V30 1614 H 151.572 -3.14181 4.53866 0
M  V30 1615 H 154.048 -3.23731 2.61415 0
M  V30 1616 H 152.924 -4.53553 3.09162 0
M  V30 1617 H 153.185 -4.19754 1.38777 0
M  V30 1618 N 152.244 -1.26651 -0.937939 0
M  V30 1619 C 153.492 -1.12165 -1.68118 0
M  V30 1620 C 153.813 0.334983 -1.92101 0
M  V30 1621 O 153.083 1.23583 -1.52 0
M  V30 1622 H 151.663 -0.412093 -0.623048 0
M  V30 1623 H 154.325 -1.59027 -1.12678 0
M  V30 1624 H 153.421 -1.64289 -2.6536 0
M  V30 1625 N 153.722 1.14298 -1.08507 0
M  V30 1626 C 154.969 1.85359 -0.815373 0
M  V30 1627 C 155.297 1.83001 0.658865 0
M  V30 1628 O 154.552 1.25655 1.50031 0
M  V30 1629 C 154.851 3.33547 -1.28379 0
M  V30 1630 C 154.517 3.56093 -2.76602 0
M  V30 1631 C 153.179 3.61955 -3.17084 0
M  V30 1632 C 155.531 3.64834 -3.72217 0
M  V30 1633 C 152.859 3.74082 -4.51973 0
M  V30 1634 C 155.211 3.78487 -5.06883 0
M  V30 1635 C 153.875 3.82598 -5.46969 0
M  V30 1636 H 153.145 0.678276 -0.298366 0
M  V30 1637 H 155.792 1.35002 -1.35819 0
M  V30 1638 H 154.097 3.86191 -0.660593 0
M  V30 1639 H 155.794 3.86959 -1.05186 0
M  V30 1640 H 152.384 3.52179 -2.4427 0
M  V30 1641 H 156.568 3.59595 -3.42061 0
M  V30 1642 H 151.824 3.75527 -4.82483 0
M  V30 1643 H 155.998 3.84193 -5.80834 0
M  V30 1644 H 153.625 3.91747 -6.51489 0
M  V30 1645 N 155.201 0.870884 1.31352 0
M  V30 1646 C 156.449 0.48132 1.96285 0
M  V30 1647 C 156.77 -0.969813 1.69173 0
M  V30 1648 O 156.04 -1.67998 1.00764 0
M  V30 1649 H 154.62 0.175002 0.726212 0
M  V30 1650 H 157.282 1.11087 1.60143 0
M  V30 1651 H 156.378 0.639825 3.05471 0
M  V30 1652 N 156.679 -1.44442 0.630414 0
M  V30 1653 C 157.589 -2.34476 -0.0761693 0
M  V30 1654 C 158.605 -1.52576 -0.836449 0
M  V30 1655 O 159.781 -1.85307 -0.788874 0
M  V30 1656 C 156.846 -3.30545 -1.04599 0
M  V30 1657 C 155.907 -4.28352 -0.28516 0
M  V30 1658 C 155.14 -5.19831 -1.20878 0
M  V30 1659 O 155.363 -5.15223 -2.44747 0
M  V30 1660 O 154.297 -5.97892 -0.693491 0
M  V30 1661 H 158.123 -2.96345 0.664324 0
M  V30 1662 H 155.708 -1.44203 0.39061 0
M  V30 1663 H 157.59 -3.89681 -1.60396 0
M  V30 1664 H 156.265 -2.7121 -1.76711 0
M  V30 1665 H 155.172 -3.72764 0.315837 0
M  V30 1666 H 156.505 -4.90605 0.395924 0
M  V30 1667 N 158.157 -0.370918 -1.53173 0
M  V30 1668 C 159.087 0.464847 -2.28826 0
M  V30 1669 C 160.068 1.07936 -1.31468 0
M  V30 1670 O 161.253 1.0956 -1.60344 0
M  V30 1671 C 158.383 1.60196 -3.08147 0
M  V30 1672 C 157.337 1.11443 -4.13237 0
M  V30 1673 C 156.663 2.3422 -4.80672 0
M  V30 1674 C 157.963 0.195384 -5.21934 0
M  V30 1675 H 159.657 -0.166329 -2.98938 0
M  V30 1676 H 157.203 -0.0814359 -1.4377 0
M  V30 1677 H 159.156 2.19332 -3.59822 0
M  V30 1678 H 157.88 2.26045 -2.35735 0
M  V30 1679 H 156.539 0.545727 -3.62515 0
M  V30 1680 H 156.187 2.98537 -4.04827 0
M  V30 1681 H 155.887 2.02269 -5.51689 0
M  V30 1682 H 157.411 2.94032 -5.35143 0
M  V30 1683 H 158.825 0.694375 -5.69079 0
M  V30 1684 H 157.222 -0.0335027 -6.00091 0
M  V30 1685 H 158.292 -0.760961 -4.78892 0
M  V30 1686 N 159.635 1.57281 -0.100228 0
M  V30 1687 C 160.882 1.94537 0.562268 0
M  V30 1688 C 161.21 0.982315 1.67871 0
M  V30 1689 O 160.465 0.00280936 1.957 0
M  V30 1690 C 160.764 3.38305 1.15259 0
M  V30 1691 C 160.43 4.50618 0.159409 0
M  V30 1692 C 159.092 4.81066 -0.113741 0
M  V30 1693 C 161.444 5.18615 -0.518461 0
M  V30 1694 C 158.772 5.76835 -1.07137 0
M  V30 1695 C 161.124 6.15412 -1.46459 0
M  V30 1696 C 159.788 6.44262 -1.74592 0
M  V30 1697 H 159.058 0.711863 0.205748 0
M  V30 1698 H 161.705 1.90679 -0.17715 0
M  V30 1699 H 160.01 3.38766 1.96836 0
M  V30 1700 H 161.707 3.64435 1.67297 0
M  V30 1701 H 158.297 4.2689 0.382491 0
M  V30 1702 H 162.481 4.95264 -0.320581 0
M  V30 1703 H 157.737 5.975 -1.29628 0
M  V30 1704 H 161.911 6.67194 -1.99564 0
M  V30 1705 H 159.538 7.1828 -2.48953 0
M  V30 1706 N 161.113 -0.173488 1.56642 0
M  V30 1707 C 162.529 -0.525174 1.50712 0
M  V30 1708 C 162.729 -1.8476 0.804107 0
M  V30 1709 O 161.785 -2.49869 0.363574 0
M  V30 1710 C 163.098 -0.559937 2.95441 0
M  V30 1711 C 164.646 -0.647288 3.06234 0
M  V30 1712 C 165.121 -0.712963 4.52417 0
M  V30 1713 N 166.612 -0.775911 4.56655 0
M  V30 1714 C 167.347 -0.847264 5.67106 0
M  V30 1715 N 166.843 -0.879585 6.87194 0
M  V30 1716 N 168.636 -0.886117 5.55071 0
M  V30 1717 H 160.787 0.693681 2.00753 0
M  V30 1718 H 163.05 0.249841 0.914485 0
M  V30 1719 H 162.756 0.343049 3.50023 0
M  V30 1720 H 162.63 -1.40718 3.49969 0
M  V30 1721 H 165.017 -1.5407 2.51687 0
M  V30 1722 H 165.098 0.226586 2.54794 0
M  V30 1723 H 164.742 0.176183 5.07594 0
M  V30 1724 H 164.672 -1.60295 5.0161 0
M  V30 1725 H 167.163 -0.759304 3.70193 0
M  V30 1726 H 167.476 -0.935144 7.67121 0
M  V30 1727 H 165.821 -0.847898 6.89808 0
M  V30 1728 H 169.012 -0.857853 4.60172 0
M  V30 1729 H 169.185 -0.938263 6.41171 0
M  V30 1730 N 162.591 -1.51276 -0.441967 0
M  V30 1731 C 163.524 -1.66933 -1.55591 0
M  V30 1732 C 164.502 -0.516958 -1.54163 0
M  V30 1733 O 165.686 -0.740209 -1.73358 0
M  V30 1734 C 162.813 -1.67866 -2.94174 0
M  V30 1735 C 161.859 -2.89013 -3.13646 0
M  V30 1736 S 162.692 -4.49897 -2.90436 0
M  V30 1737 C 163.848 -4.53568 -4.31308 0
M  V30 1738 H 164.081 -2.61155 -1.42076 0
M  V30 1739 H 161.614 -1.40902 -0.631341 0
M  V30 1740 H 163.572 -1.69089 -3.74058 0
M  V30 1741 H 162.233 -0.748296 -3.05056 0
M  V30 1742 H 161.426 -2.86054 -4.14957 0
M  V30 1743 H 161.028 -2.85509 -2.4158 0
M  V30 1744 H 163.32 -4.28924 -5.24434 0
M  V30 1745 H 164.263 -5.55355 -4.39303 0
M  V30 1746 H 164.671 -3.82943 -4.14747 0
M  V30 1747 N 164.069 0.697108 -1.41344 0
M  V30 1748 C 165.318 1.45279 -1.39918 0
M  V30 1749 C 165.631 1.95597 -0.0109624 0
M  V30 1750 O 166.837 2.71208 0.125919 0
M  V30 1751 C 165.293 2.62695 -2.46007 0
M  V30 1752 C 164.901 2.19169 -3.90729 0
M  V30 1753 C 166.645 3.40336 -2.53715 0
M  V30 1754 C 164.552 3.33535 -4.88373 0
M  V30 1755 H 163.482 0.545692 -0.520323 0
M  V30 1756 H 166.133 0.756929 -1.67161 0
M  V30 1757 H 164.515 3.34541 -2.11892 0
M  V30 1758 H 165.689 1.54623 -4.34083 0
M  V30 1759 H 164.004 1.54525 -3.86666 0
M  V30 1760 H 166.601 4.2547 -3.2385 0
M  V30 1761 H 166.944 3.85418 -1.5735 0
M  V30 1762 H 167.477 2.75546 -2.86913 0
M  V30 1763 H 164.216 2.93468 -5.86137 0
M  V30 1764 H 163.736 3.96936 -4.49668 0
M  V30 1765 H 165.415 3.99335 -5.09059 0
M  V30 1766 N 165.547 1.27147 0.931209 0
M  V30 1767 C 166.772 1.16191 1.71797 0
M  V30 1768 C 167.197 -0.278004 1.86034 0
M  V30 1769 O 166.555 -1.20137 1.35782 0
M  V30 1770 C 166.603 1.84673 3.09723 0
M  V30 1771 O 165.707 1.14231 3.96264 0
M  V30 1772 H 165.048 0.404303 0.526721 0
M  V30 1773 H 167.578 1.68152 1.1656 0
M  V30 1774 H 167.588 1.91893 3.60057 0
M  V30 1775 H 166.263 2.89421 2.98677 0
M  V30 1776 H 164.84 1.15056 3.54706 0
M  V30 1777 N 167.025 -1.13721 1.09112 0
M  V30 1778 C 168.255 -1.88499 0.845671 0
M  V30 1779 C 168.663 -1.79218 -0.606432 0
M  V30 1780 O 168.006 -1.1544 -1.42896 0
M  V30 1781 C 168.068 -3.38954 1.19793 0
M  V30 1782 C 167.732 -3.72018 2.65428 0
M  V30 1783 C 168.729 -3.7153 3.63677 0
M  V30 1784 C 166.414 -4.01775 3.01467 0
M  V30 1785 C 168.408 -4.00336 4.95994 0
M  V30 1786 C 166.095 -4.30243 4.33975 0
M  V30 1787 C 167.093 -4.29508 5.31048 0
M  V30 1788 O 166.781 -4.5728 6.61173 0
M  V30 1789 H 166.513 -0.603702 0.304171 0
M  V30 1790 H 169.067 -1.44903 1.45576 0
M  V30 1791 H 167.297 -3.83039 0.530871 0
M  V30 1792 H 168.986 -3.95052 0.932146 0
M  V30 1793 H 169.752 -3.4862 3.37179 0
M  V30 1794 H 165.631 -4.01496 2.26544 0
M  V30 1795 H 169.175 -3.99678 5.71755 0
M  V30 1796 H 165.072 -4.52625 4.60219 0
M  V30 1797 H 165.84 -4.74964 6.66597 0
M  V30 1798 N 168.503 -0.877838 -1.30888 0
M  V30 1799 C 169.433 -0.35534 -2.3078 0
M  V30 1800 C 170.414 0.557994 -1.60687 0
M  V30 1801 O 171.599 0.473355 -1.88343 0
M  V30 1802 C 168.729 0.437221 -3.44537 0
M  V30 1803 C 167.683 -0.383715 -4.26276 0
M  V30 1804 C 167.009 0.535014 -5.32017 0
M  V30 1805 C 168.309 -1.62201 -4.96476 0
M  V30 1806 H 170.003 -1.19007 -2.74732 0
M  V30 1807 H 167.549 -0.573698 -1.32078 0
M  V30 1808 H 169.502 0.813334 -4.13477 0
M  V30 1809 H 168.226 1.30553 -2.99372 0
M  V30 1810 H 166.885 -0.741874 -3.59015 0
M  V30 1811 H 166.533 1.40083 -4.831 0
M  V30 1812 H 166.233 -0.0104211 -5.87599 0
M  V30 1813 H 167.757 0.907799 -6.03814 0
M  V30 1814 H 169.171 -1.31689 -5.5797 0
M  V30 1815 H 167.568 -2.10711 -5.61891 0
M  V30 1816 H 168.638 -2.37044 -4.23011 0
M  V30 1817 N 169.982 1.44106 -0.638065 0
M  V30 1818 C 170.892 2.34513 0.0637334 0
M  V30 1819 C 171.908 1.53018 0.828346 0
M  V30 1820 O 173.084 1.85723 0.779036 0
M  V30 1821 C 170.149 3.31095 1.02844 0
M  V30 1822 C 169.21 4.28497 0.26244 0
M  V30 1823 C 168.443 5.20465 1.1812 0
M  V30 1824 O 168.666 5.16514 2.42011 0
M  V30 1825 O 167.6 5.98251 0.661774 0
M  V30 1826 H 171.426 2.95989 -0.68003 0
M  V30 1827 H 169.011 1.43994 -0.398252 0
M  V30 1828 H 170.893 3.90526 1.58327 0
M  V30 1829 H 169.568 2.72144 1.7527 0
M  V30 1830 H 168.475 3.72592 -0.335602 0
M  V30 1831 H 169.808 4.90388 -0.421936 0
M  V30 1832 N 171.46 0.379036 1.52974 0
M  V30 1833 C 172.737 -0.263479 1.93817 0
M  V30 1834 C 173.117 -1.65244 1.31368 0
M  V30 1835 O 172.465 -2.23448 0.477856 0
M  V30 1836 C 172.675 -0.300166 3.47707 0
M  V30 1837 C 174.023 -0.534061 4.21228 0
M  V30 1838 O 175.047 -0.38081 3.54159 0
M  V30 1839 O 173.906 -0.833501 5.40106 0
M  V30 1840 H 171 -0.161149 0.811147 0
M  V30 1841 H 173.546 0.432798 1.64088 0
M  V30 1842 H 172.318 0.673138 3.85467 0
M  V30 1843 H 171.941 -1.04179 3.83709 0
M  V30 1844 N 172.938 -1.57226 0.108567 0
M  V30 1845 C 174.187 -1.94008 -0.551703 0
M  V30 1846 C 174.5 -0.993442 -1.68494 0
M  V30 1847 O 175.706 -1.25551 -2.40726 0
M  V30 1848 C 174.162 -3.44763 -1.03279 0
M  V30 1849 C 173.77 -4.47943 0.0714193 0
M  V30 1850 C 175.514 -3.90483 -1.66503 0
M  V30 1851 C 173.421 -5.89865 -0.425779 0
M  V30 1852 H 172.351 -0.724206 -0.209863 0
M  V30 1853 H 175.002 -1.82547 0.186741 0
M  V30 1854 H 173.384 -3.51422 -1.82533 0
M  V30 1855 H 174.558 -4.52942 0.847365 0
M  V30 1856 H 172.873 -4.11913 0.609669 0
M  V30 1857 H 175.47 -4.93925 -2.04798 0
M  V30 1858 H 175.813 -3.29877 -2.53942 0
M  V30 1859 H 176.346 -3.86581 -0.938074 0
M  V30 1860 H 173.085 -6.54202 0.412316 0
M  V30 1861 H 172.605 -5.88309 -1.16843 0
M  V30 1862 H 174.284 -6.40844 -0.890397 0
M  V30 1863 N 174.416 0.165178 -1.56732 0
M  V30 1864 C 175.664 0.879068 -1.8198 0
M  V30 1865 C 175.985 1.82514 -0.686561 0
M  V30 1866 O 175.255 1.93694 0.293146 0
M  V30 1867 H 173.835 0.327608 -0.671329 0
M  V30 1868 H 176.497 0.163526 -1.94213 0
M  V30 1869 H 175.593 1.45228 -2.76252 0
M  V30 1870 N 175.894 1.51508 0.433938 0
M  V30 1871 C 177.119 1.68443 1.21003 0
M  V30 1872 C 177.544 0.382636 1.84167 0
M  V30 1873 O 176.902 -0.65755 1.68956 0
M  V30 1874 C 176.95 2.80405 2.26727 0
M  V30 1875 O 176.054 2.44245 3.32292 0
M  V30 1876 H 175.395 0.561536 0.354363 0
M  V30 1877 H 177.925 1.9809 0.512024 0
M  V30 1878 H 177.935 3.0459 2.71457 0
M  V30 1879 H 176.61 3.74867 1.80132 0
M  V30 1880 H 175.187 2.30644 2.93015 0
M  V30 1881 N 177.372 -0.689602 1.41712 0
M  V30 1882 C 178.597 -1.48329 1.44959 0
M  V30 1883 C 179.022 -1.8801 0.0581283 0
M  V30 1884 O 178.38 -1.55026 -0.940035 0
M  V30 1885 C 178.428 -2.71835 2.36935 0
M  V30 1886 O 177.532 -3.69549 1.8305 0
M  V30 1887 H 176.873 -0.446199 0.491734 0
M  V30 1888 H 179.403 -0.847127 1.86239 0
M  V30 1889 H 179.413 -3.20076 2.53013 0
M  V30 1890 H 178.088 -2.42291 3.38035 0
M  V30 1891 H 176.665 -3.2851 1.76452 0
M  V30 1892 N 178.85 -1.27639 -0.924453 0
M  V30 1893 C 179.813 -1.10681 -2.00705 0
M  V30 1894 C 180.813 -0.0497823 -1.60723 0
M  V30 1895 O 182.003 -0.294654 -1.7169 0
M  V30 1896 C 179.135 -0.687164 -3.33902 0
M  V30 1897 H 180.328 -2.06817 -2.17179 0
M  V30 1898 H 177.881 -1.10473 -1.10569 0
M  V30 1899 H 178.616 0.275439 -3.23128 0
M  V30 1900 H 178.401 -1.45061 -3.6428 0
M  V30 1901 H 179.891 -0.590853 -4.13399 0
M  V30 1902 N 180.328 1.1314 -1.09713 0
M  V30 1903 C 181.261 2.17735 -0.683137 0
M  V30 1904 C 182.239 1.59582 0.311841 0
M  V30 1905 O 183.423 1.87298 0.212514 0
M  V30 1906 C 180.55 3.38699 -0.00684324 0
M  V30 1907 C 179.596 4.1546 -0.964102 0
M  V30 1908 S 180.429 4.74733 -2.47767 0
M  V30 1909 C 181.585 5.9904 -1.81387 0
M  V30 1910 H 181.818 2.52515 -1.56918 0
M  V30 1911 H 179.351 1.24484 -0.913404 0
M  V30 1912 H 181.309 4.08765 0.377044 0
M  V30 1913 H 179.97 3.02214 0.85589 0
M  V30 1914 H 179.163 5.02093 -0.43803 0
M  V30 1915 H 178.765 3.51066 -1.28953 0
M  V30 1916 H 181.057 6.67846 -1.13967 0
M  V30 1917 H 182 6.56261 -2.65947 0
M  V30 1918 H 182.408 5.4976 -1.28155 0
M  V30 1919 N 181.806 0.884767 1.30421 0
M  V30 1920 C 182.736 0.367574 2.30589 0
M  V30 1921 C 183.717 -0.549464 1.60981 0
M  V30 1922 O 184.902 -0.46336 1.88591 0
M  V30 1923 C 182.032 -0.418944 3.44764 0
M  V30 1924 C 180.986 0.406316 4.26067 0
M  V30 1925 C 180.312 -0.506793 5.32293 0
M  V30 1926 C 181.612 1.64832 4.95608 0
M  V30 1927 H 183.306 1.20462 2.74097 0
M  V30 1928 H 180.852 0.580695 1.31772 0
M  V30 1929 H 182.805 -0.791395 4.13902 0
M  V30 1930 H 181.529 -1.28964 3.0006 0
M  V30 1931 H 180.188 0.760903 3.58617 0
M  V30 1932 H 179.836 -1.37519 4.83836 0
M  V30 1933 H 179.536 0.0415828 5.87585 0
M  V30 1934 H 181.06 -0.875764 6.04287 0
M  V30 1935 H 182.474 1.34646 5.57264 0
M  V30 1936 H 180.871 2.13688 5.60765 0
M  V30 1937 H 181.941 2.39284 4.21748 0
M  V30 1938 N 183.284 -1.43765 0.645699 0
M  V30 1939 C 184.509 -2.06767 0.161883 0
M  V30 1940 C 184.934 -1.48034 -1.16049 0
M  V30 1941 O 184.292 -0.587369 -1.71522 0
M  V30 1942 C 184.34 -3.60519 0.0762003 0
M  V30 1943 O 183.444 -4.00982 -0.963721 0
M  V30 1944 H 182.785 -0.657675 0.091429 0
M  V30 1945 H 185.315 -1.84397 0.886499 0
M  V30 1946 H 185.325 -4.07853 -0.109604 0
M  V30 1947 H 184 -4.02646 1.04157 0
M  V30 1948 H 182.577 -3.65253 -0.751312 0
M  V30 1949 N 184.763 -0.387143 -1.52771 0
M  V30 1950 C 186.179 -0.037007 -1.59557 0
M  V30 1951 C 186.379 1.44801 -1.40124 0
M  V30 1952 O 185.435 2.21227 -1.21716 0
M  V30 1953 C 186.748 -0.512256 -2.96305 0
M  V30 1954 C 188.296 -0.468328 -3.09476 0
M  V30 1955 C 188.771 -0.919731 -4.4867 0
M  V30 1956 N 190.262 -0.875656 -4.54848 0
M  V30 1957 C 190.997 -1.19637 -5.6078 0
M  V30 1958 N 190.493 -1.58745 -6.74368 0
M  V30 1959 N 192.286 -1.11776 -5.50874 0
M  V30 1960 H 184.437 -1.35395 -1.63652 0
M  V30 1961 H 186.7 -0.554818 -0.768688 0
M  V30 1962 H 186.406 -1.54935 -3.15734 0
M  V30 1963 H 186.28 0.089805 -3.77093 0
M  V30 1964 H 188.667 0.559671 -2.89744 0
M  V30 1965 H 188.748 -1.10616 -2.30646 0
M  V30 1966 H 188.392 -1.94595 -4.69143 0
M  V30 1967 H 188.322 -0.258927 -5.25963 0
M  V30 1968 H 190.813 -0.587843 -3.733 0
M  V30 1969 H 191.126 -1.81586 -7.51163 0
M  V30 1970 H 189.471 -1.6263 -6.75705 0
M  V30 1971 H 192.662 -0.811264 -4.61016 0
M  V30 1972 H 192.835 -1.37103 -6.3333 0
M  V30 1973 N 186.241 1.57166 -0.116904 0
M  V30 1974 C 187.204 2.14039 0.819742 0
M  V30 1975 C 188.204 1.07477 1.19605 0
M  V30 1976 O 189.394 1.33263 1.1219 0
M  V30 1977 C 186.526 2.67891 2.10826 0
M  V30 1978 H 187.719 2.98128 0.325511 0
M  V30 1979 H 185.272 1.55739 0.132312 0
M  V30 1980 H 186.007 1.87384 2.64685 0
M  V30 1981 H 185.792 3.45823 1.84793 0
M  V30 1982 H 187.282 3.11809 2.77785 0
M  V30 1983 N 187.719 -0.156864 1.56817 0
M  V30 1984 C 188.968 -0.869504 1.81996 0
M  V30 1985 C 189.281 -1.82777 0.696545 0
M  V30 1986 O 190.487 -2.58384 0.833658 0
M  V30 1987 C 188.943 -1.59679 3.22538 0
M  V30 1988 C 188.551 -0.681431 4.42787 0
M  V30 1989 C 190.295 -2.2968 3.56997 0
M  V30 1990 C 188.202 -1.40978 5.74351 0
M  V30 1991 H 187.132 -0.328438 0.678708 0
M  V30 1992 H 189.783 -0.1223 1.83092 0
M  V30 1993 H 188.165 -2.38927 3.158 0
M  V30 1994 H 189.339 0.0751166 4.60739 0
M  V30 1995 H 187.654 -0.0903431 4.16302 0
M  V30 1996 H 190.251 -2.84794 4.52544 0
M  V30 1997 H 190.594 -3.05707 2.82576 0
M  V30 1998 H 191.127 -1.57361 3.65352 0
M  V30 1999 H 187.866 -0.691561 6.51842 0
M  V30 2000 H 187.386 -2.13929 5.60352 0
M  V30 2001 H 189.065 -1.95337 6.16808 0
M  V30 2002 N 189.197 -1.51736 -0.425897 0
M  V30 2003 C 190.445 -1.64644 -1.17204 0
M  V30 2004 C 190.766 -0.370486 -1.91448 0
M  V30 2005 O 190.036 0.614088 -1.86026 0
M  V30 2006 H 188.616 -0.606819 -0.435638 0
M  V30 2007 H 191.278 -1.88713 -0.487177 0
M  V30 2008 H 190.374 -2.47958 -1.89534 0
M  V30 2009 N 190.675 0.682077 -1.42076 0
M  V30 2010 C 191.923 1.4393 -1.41876 0
M  V30 2011 C 192.244 1.94971 -0.0335599 0
M  V30 2012 O 191.514 1.72591 0.926773 0
M  V30 2013 H 190.094 0.534085 -0.522267 0
M  V30 2014 H 192.756 0.806427 -1.77434 0
M  V30 2015 H 191.852 2.29588 -2.11414 0
M  V30 2016 N 192.153 1.28127 0.917671 0
M  V30 2017 C 193.381 1.17892 1.70026 0
M  V30 2018 C 193.796 -0.262958 1.8696 0
M  V30 2019 O 193.153 -1.17811 1.3938 0
M  V30 2020 C 193.204 1.86872 3.09453 0
M  V30 2021 O 192.925 3.25428 2.93306 0
M  V30 2022 C 194.426 1.8289 4.03815 0
M  V30 2023 H 191.646 0.40942 0.531617 0
M  V30 2024 H 194.19 1.69181 1.14883 0
M  V30 2025 H 192.345 1.39464 3.61426 0
M  V30 2026 H 192.759 3.59918 3.81523 0
M  V30 2027 H 194.233 2.35751 4.99125 0
M  V30 2028 H 194.71 0.800412 4.31845 0
M  V30 2029 H 195.316 2.29959 3.57769 0
M  V30 2030 N 193.631 -1.12557 1.10312 0
M  V30 2031 C 194.88 -1.83395 0.839588 0
M  V30 2032 C 195.193 -1.84939 -0.636929 0
M  V30 2033 O 196.399 -2.51761 -1.01631 0
M  V30 2034 C 194.855 -3.29303 1.45215 0
M  V30 2035 C 194.463 -3.36122 2.96186 0
M  V30 2036 C 196.207 -4.05121 1.26796 0
M  V30 2037 C 194.114 -4.76357 3.50483 0
M  V30 2038 H 193.044 -0.687133 0.310425 0
M  V30 2039 H 195.695 -1.26746 1.32694 0
M  V30 2040 H 194.077 -3.85812 0.892469 0
M  V30 2041 H 195.251 -2.89559 3.58458 0
M  V30 2042 H 193.566 -2.73776 3.13745 0
M  V30 2043 H 196.163 -5.08668 1.64806 0
M  V30 2044 H 196.506 -4.15773 0.209409 0
M  V30 2045 H 197.039 -3.54967 1.79563 0
M  V30 2046 H 193.778 -4.70899 4.55998 0
M  V30 2047 H 193.298 -5.23377 2.92978 0
M  V30 2048 H 194.977 -5.45294 3.48228 0
M  V30 2049 N 195.109 -0.891671 -1.2995 0
M  V30 2050 C 196.357 -0.512486 -1.95494 0
M  V30 2051 C 196.678 0.942776 -1.70695 0
M  V30 2052 O 195.948 1.66374 -1.03424 0
M  V30 2053 H 194.528 -0.186533 -0.723336 0
M  V30 2054 H 197.19 -1.13621 -1.58355 0
M  V30 2055 H 196.286 -0.688342 -3.04415 0
M  V30 2056 N 196.587 1.43421 -0.653314 0
M  V30 2057 C 198.003 1.56341 -0.320886 0
M  V30 2058 C 198.203 1.63696 1.17499 0
M  V30 2059 O 197.259 1.59208 1.95982 0
M  V30 2060 C 198.572 2.82424 -1.03233 0
M  V30 2061 C 200.12 2.96168 -1.01259 0
M  V30 2062 C 200.595 4.25084 -1.70492 0
M  V30 2063 N 202.086 4.31948 -1.67257 0
M  V30 2064 C 202.821 5.30466 -2.17701 0
M  V30 2065 N 202.317 6.35261 -2.76434 0
M  V30 2066 N 204.11 5.2212 -2.082 0
M  V30 2067 H 196.261 1.3689 -1.62403 0
M  V30 2068 H 198.524 0.657455 -0.682977 0
M  V30 2069 H 198.23 2.83053 -2.08744 0
M  V30 2070 H 198.104 3.72653 -0.583948 0
M  V30 2071 H 200.491 2.9508 0.0341235 0
M  V30 2072 H 200.572 2.07229 -1.49966 0
M  V30 2073 H 200.216 4.26932 -2.7512 0
M  V30 2074 H 200.146 5.1292 -1.19251 0
M  V30 2075 H 202.637 3.56838 -1.24398 0
M  V30 2076 H 202.95 7.06754 -3.12601 0
M  V30 2077 H 201.295 6.35884 -2.80495 0
M  V30 2078 H 204.486 4.39166 -1.62021 0
M  V30 2079 H 204.659 5.98739 -2.47822 0
M  V30 2080 N 198.065 0.39524 1.52563 0
M  V30 2081 C 199.012 -0.437036 2.26624 0
M  V30 2082 C 199.982 -1.05281 1.28472 0
M  V30 2083 O 201.167 -1.07971 1.57311 0
M  V30 2084 C 198.307 -1.55524 3.08069 0
M  V30 2085 C 197.42 -0.961745 4.21158 0
M  V30 2086 C 196.555 -2.05149 4.89987 0
M  V30 2087 C 195.594 -1.4342 5.95061 0
M  V30 2088 N 194.731 -2.46351 6.57462 0
M  V30 2089 H 199.571 0.200976 2.97322 0
M  V30 2090 H 197.108 0.110944 1.46681 0
M  V30 2091 H 199.066 -2.21437 3.53584 0
M  V30 2092 H 197.696 -2.16348 2.3957 0
M  V30 2093 H 196.748 -0.192048 3.79915 0
M  V30 2094 H 198.06 -0.470701 4.96574 0
M  V30 2095 H 197.214 -2.78819 5.38837 0
M  V30 2096 H 195.953 -2.57615 4.14109 0
M  V30 2097 H 194.958 -0.682774 5.45544 0
M  V30 2098 H 196.183 -0.917416 6.72875 0
M  V30 2099 H 194.129 -2.97975 5.8442 0
M  V30 2100 H 194.046 -2.02019 7.28508 0
M  V30 2101 H 195.314 -3.19633 7.10954 0
M  V30 2102 N 199.544 -1.57102 0.125237 0
M  V30 2103 C 200.79 -1.95697 -0.532035 0
M  V30 2104 C 201.123 -1.009 -1.6593 0
M  V30 2105 O 200.398 -0.047347 -1.94442 0
M  V30 2106 C 200.681 -3.44181 -1.05884 0
M  V30 2107 C 200.534 -4.49752 0.0654392 0
M  V30 2108 C 201.853 -3.94655 -1.9477 0
M  V30 2109 H 198.972 -0.711571 -0.191925 0
M  V30 2110 H 201.614 -1.88923 0.20206 0
M  V30 2111 H 199.764 -3.50085 -1.68442 0
M  V30 2112 H 201.436 -4.55943 0.700982 0
M  V30 2113 H 199.679 -4.27653 0.727709 0
M  V30 2114 H 200.35 -5.50924 -0.344505 0
M  V30 2115 H 202.826 -3.91094 -1.42074 0
M  V30 2116 H 201.702 -4.99057 -2.28546 0
M  V30 2117 H 201.963 -3.35718 -2.87656 0
M  V30 2118 N 201.022 0.148545 -1.56898 0
M  V30 2119 C 202.268 0.862694 -1.83536 0
M  V30 2120 C 202.601 1.80889 -0.706604 0
M  V30 2121 O 201.876 1.92328 0.289885 0
M  V30 2122 C 202.159 1.63853 -3.20662 0
M  V30 2123 C 202.012 0.713925 -4.44098 0
M  V30 2124 C 203.331 2.60133 -3.54991 0
M  V30 2125 H 200.45 0.312179 -0.667618 0
M  V30 2126 H 203.092 0.127953 -1.89569 0
M  V30 2127 H 201.242 2.26489 -3.1565 0
M  V30 2128 H 202.914 0.098686 -4.61194 0
M  V30 2129 H 201.157 0.0234019 -4.33794 0
M  V30 2130 H 201.828 1.29278 -5.36648 0
M  V30 2131 H 204.304 2.07616 -3.60603 0
M  V30 2132 H 203.18 3.11468 -4.51972 0
M  V30 2133 H 203.441 3.41417 -2.80868 0
M  V30 2134 N 202.5 1.5196 0.417844 0
M  V30 2135 C 203.747 1.65591 1.16559 0
M  V30 2136 C 204.075 0.381565 1.90721 0
M  V30 2137 O 203.33 -0.635156 1.85106 0
M  V30 2138 C 203.629 2.82269 2.19223 0
M  V30 2139 C 203.295 4.20819 1.61933 0
M  V30 2140 C 201.957 4.58506 1.46033 0
M  V30 2141 C 204.309 5.07196 1.20008 0
M  V30 2142 C 201.637 5.80257 0.867113 0
M  V30 2143 C 203.989 6.29544 0.621086 0
M  V30 2144 C 202.653 6.65987 0.449144 0
M  V30 2145 H 201.923 0.605939 0.42652 0
M  V30 2146 H 204.57 1.86041 0.45397 0
M  V30 2147 H 202.875 2.56118 2.96498 0
M  V30 2148 H 204.572 2.90012 2.76936 0
M  V30 2149 H 201.162 3.91116 1.7529 0
M  V30 2150 H 205.346 4.7867 1.31105 0
M  V30 2151 H 200.602 6.07124 0.721833 0
M  V30 2152 H 204.776 6.95805 0.287798 0
M  V30 2153 H 202.403 7.60199 -0.012632 0
M  V30 2154 N 203.978 -0.674533 1.42435 0
M  V30 2155 C 205.203 -1.46784 1.46524 0
M  V30 2156 C 205.628 -1.87938 0.078066 0
M  V30 2157 O 204.986 -1.56014 -0.92354 0
M  V30 2158 C 205.034 -2.69307 2.39805 0
M  V30 2159 O 204.138 -3.67587 1.86959 0
M  V30 2160 H 203.479 -0.440959 0.496439 0
M  V30 2161 H 206.009 -0.827326 1.87127 0
M  V30 2162 H 206.019 -3.17374 2.56393 0
M  V30 2163 H 204.694 -2.38692 3.40586 0
M  V30 2164 H 203.271 -3.2662 1.79927 0
M  V30 2165 N 205.456 -1.28612 -0.910864 0
M  V30 2166 C 206.389 -1.07109 -2.01502 0
M  V30 2167 C 207.367 0.013706 -1.62594 0
M  V30 2168 O 208.551 -0.134796 -1.88017 0
M  V30 2169 C 205.678 -0.628255 -3.32822 0
M  V30 2170 C 204.724 -1.71012 -3.90714 0
M  V30 2171 S 205.557 -3.30676 -4.21205 0
M  V30 2172 C 206.713 -2.88234 -5.55583 0
M  V30 2173 H 206.946 -2.00591 -2.19432 0
M  V30 2174 H 204.479 -1.12633 -1.05609 0
M  V30 2175 H 206.437 -0.37946 -4.08742 0
M  V30 2176 H 205.098 0.28678 -3.12788 0
M  V30 2177 H 204.291 -1.35195 -4.85529 0
M  V30 2178 H 203.893 -1.91186 -3.21441 0
M  V30 2179 H 206.185 -2.34584 -6.35591 0
M  V30 2180 H 207.128 -3.81857 -5.96314 0
M  V30 2181 H 207.536 -2.26862 -5.16908 0
M  V30 2182 N 206.934 1.1197 -1.10907 0
M  V30 2183 C 208.345 1.65114 -0.871446 0
M  V30 2184 C 208.696 1.86885 0.597353 0
M  V30 2185 O 207.821 1.59896 1.45816 0
M  V30 2186 C 208.416 2.99944 -1.5754 0
M  V30 2187 C 206.975 3.50018 -1.38435 0
M  V30 2188 C 206.122 2.24941 -1.62164 0
M  V30 2189 H 209.073 0.956851 -1.2661 0
M  V30 2190 H 209.094 3.66651 -1.01721 0
M  V30 2191 H 208.606 2.84067 -2.64438 0
M  V30 2192 H 206.707 3.71071 -0.337214 0
M  V30 2193 H 206.82 4.29165 -2.12965 0
M  V30 2194 H 205.184 2.3229 -1.04467 0
M  V30 2195 H 205.967 2.11612 -2.70324 0
M  V30 2196 N 208.412 0.89855 1.29475 0
M  V30 2197 C 209.66 0.522847 1.9522 0
M  V30 2198 C 209.981 -0.93371 1.71192 0
M  V30 2199 O 209.251 -1.65823 1.04305 0
M  V30 2200 H 207.831 0.190366 0.722336 0
M  V30 2201 H 210.493 1.14459 1.5775 0
M  V30 2202 H 209.589 0.704476 3.04045 0
M  V30 2203 N 209.89 -1.43072 0.660911 0
M  V30 2204 C 211.115 -2.06584 0.183805 0
M  V30 2205 C 211.54 -1.49257 -1.14472 0
M  V30 2206 O 210.898 -0.605528 -1.70889 0
M  V30 2207 C 210.946 -3.60418 0.114434 0
M  V30 2208 O 210.05 -4.01981 -0.921137 0
M  V30 2209 H 209.391 -0.656669 0.0983994 0
M  V30 2210 H 211.921 -1.83447 0.906006 0
M  V30 2211 H 211.931 -4.07946 -0.0663394 0
M  V30 2212 H 210.606 -4.01519 1.08422 0
M  V30 2213 H 209.183 -3.66029 -0.71253 0
M  V30 2214 N 211.368 -0.403325 -1.52352 0
M  V30 2215 C 212.593 0.176499 -2.06648 0
M  V30 2216 C 213.018 1.38577 -1.27193 0
M  V30 2217 O 212.376 1.7879 -0.300637 0
M  V30 2218 C 212.424 0.511061 -3.5696 0
M  V30 2219 O 211.528 1.60294 -3.79973 0
M  V30 2220 H 210.869 0.0167337 -0.663789 0
M  V30 2221 H 213.399 -0.574848 -1.96359 0
M  V30 2222 H 213.409 0.771362 -4.00642 0
M  V30 2223 H 212.084 -0.37296 -4.14224 0
M  V30 2224 H 210.661 1.33526 -3.48174 0
M  V30 2225 N 212.846 1.57033 -0.133567 0
M  V30 2226 C 214.094 1.953 0.519848 0
M  V30 2227 C 214.415 1.01866 1.66278 0
M  V30 2228 O 213.685 0.0776513 1.95746 0
M  V30 2229 H 212.265 0.721091 0.195032 0
M  V30 2230 H 214.927 1.93809 -0.205921 0
M  V30 2231 H 214.023 2.98695 0.904854 0
M  V30 2232 N 214.325 -0.140222 1.56975 0
M  V30 2233 C 215.288 -1.15689 1.97861 0
M  V30 2234 C 216.288 -1.3549 0.865974 0
M  V30 2235 O 217.478 -1.32367 1.13246 0
M  V30 2236 C 214.61 -2.51582 2.30042 0
M  V30 2237 H 215.803 -0.805971 2.88867 0
M  V30 2238 H 213.356 -0.383801 1.51515 0
M  V30 2239 H 214.091 -2.91632 1.41849 0
M  V30 2240 H 213.876 -2.38569 3.11171 0
M  V30 2241 H 215.366 -3.24792 2.62488 0
M  V30 2242 N 215.803 -1.52179 -0.40978 0
M  V30 2243 C 217.049 -1.66453 -1.15851 0
M  V30 2244 C 217.382 -0.392972 -1.90182 0
M  V30 2245 O 216.657 0.608579 -1.84734 0
M  V30 2246 C 216.94 -2.88612 -2.15349 0
M  V30 2247 C 216.793 -4.25815 -1.44918 0
M  V30 2248 C 218.112 -3.06294 -3.16026 0
M  V30 2249 H 215.231 -0.60575 -0.419805 0
M  V30 2250 H 217.873 -1.84732 -0.444314 0
M  V30 2251 H 216.023 -2.73158 -2.76255 0
M  V30 2252 H 217.695 -4.52995 -0.871365 0
M  V30 2253 H 215.938 -4.27247 -0.751159 0
M  V30 2254 H 216.609 -5.07337 -2.17516 0
M  V30 2255 H 219.085 -3.20641 -2.65195 0
M  V30 2256 H 217.961 -3.93283 -3.8291 0
M  V30 2257 H 218.222 -2.19579 -3.83715 0
M  V30 2258 N 217.281 0.66697 -1.42791 0
M  V30 2259 C 218.697 0.981027 -1.25889 0
M  V30 2260 C 218.897 2.00793 -0.168695 0
M  V30 2261 O 217.953 2.48321 0.45747 0
M  V30 2262 C 219.266 1.47838 -2.61848 0
M  V30 2263 C 220.814 1.59575 -2.69267 0
M  V30 2264 C 221.289 2.12704 -4.05612 0
M  V30 2265 N 222.78 2.20026 -4.07606 0
M  V30 2266 C 223.515 2.62227 -5.09926 0
M  V30 2267 N 223.011 3.03824 -6.22626 0
M  V30 2268 N 224.804 2.62045 -4.97281 0
M  V30 2269 H 216.955 -0.0127891 -2.12396 0
M  V30 2270 H 219.218 0.0568258 -0.946295 0
M  V30 2271 H 218.924 0.798299 -3.4252 0
M  V30 2272 H 218.798 2.45579 -2.86305 0
M  V30 2273 H 221.185 2.26687 -1.88936 0
M  V30 2274 H 221.266 0.60302 -2.48591 0
M  V30 2275 H 220.91 1.46198 -4.86404 0
M  V30 2276 H 220.84 3.12782 -4.23645 0
M  V30 2277 H 223.331 1.90708 -3.2625 0
M  V30 2278 H 223.644 3.34734 -6.96544 0
M  V30 2279 H 221.989 3.01662 -6.26119 0
M  V30 2280 H 225.18 2.28916 -4.08308 0
M  V30 2281 H 225.353 2.94613 -5.77154 0
M  V30 2282 N 218.759 1.29093 0.90403 0
M  V30 2283 C 219.689 1.16401 2.02418 0
M  V30 2284 C 220.67 0.0593085 1.69997 0
M  V30 2285 O 221.855 0.238021 1.92736 0
M  V30 2286 C 218.985 0.835233 3.37107 0
M  V30 2287 C 217.939 1.89578 3.83724 0
M  V30 2288 C 217.265 1.42041 5.15489 0
M  V30 2289 C 218.565 3.30394 4.04521 0
M  V30 2290 H 220.259 2.10109 2.13295 0
M  V30 2291 H 217.805 1.01157 1.02486 0
M  V30 2292 H 219.758 0.733169 4.14973 0
M  V30 2293 H 218.482 -0.137543 3.2631 0
M  V30 2294 H 217.141 1.98715 3.08071 0
M  V30 2295 H 216.789 0.436426 5.01103 0
M  V30 2296 H 216.489 2.12964 5.4765 0
M  V30 2297 H 218.013 1.33176 5.959 0
M  V30 2298 H 219.427 3.24123 4.72882 0
M  V30 2299 H 217.824 3.99237 4.48029 0
M  V30 2300 H 218.894 3.73692 3.09002 0
M  V30 2301 N 220.237 -1.11381 1.11499 0
M  V30 2302 C 221.2 -2.15622 0.777153 0
M  V30 2303 C 222.2 -1.59504 -0.203779 0
M  V30 2304 O 223.39 -1.74188 0.020782 0
M  V30 2305 C 220.522 -3.40556 0.153116 0
M  V30 2306 H 221.715 -2.47021 1.70061 0
M  V30 2307 H 219.268 -1.26577 0.916952 0
M  V30 2308 H 220.003 -3.14767 -0.780536 0
M  V30 2309 H 219.788 -3.8257 0.859238 0
M  V30 2310 H 221.278 -4.17546 -0.0671044 0
M  V30 2311 N 221.715 -0.905404 -1.28997 0
M  V30 2312 C 222.648 -0.331959 -2.25773 0
M  V30 2313 C 223.626 0.559099 -1.52685 0
M  V30 2314 O 224.81 0.50463 -1.8162 0
M  V30 2315 C 221.937 0.526276 -3.34586 0
M  V30 2316 C 220.983 -0.298249 -4.25456 0
M  V30 2317 S 221.816 -1.69968 -5.0781 0
M  V30 2318 C 222.972 -0.848519 -6.20122 0
M  V30 2319 H 223.205 -1.15222 -2.74064 0
M  V30 2320 H 220.738 -0.706112 -1.37308 0
M  V30 2321 H 222.696 1.01565 -3.97737 0
M  V30 2322 H 221.357 1.32084 -2.84978 0
M  V30 2323 H 220.55 0.357607 -5.0273 0
M  V30 2324 H 220.152 -0.720968 -3.66985 0
M  V30 2325 H 222.444 -0.0744325 -6.77459 0
M  V30 2326 H 223.387 -1.59353 -6.89937 0
M  V30 2327 H 223.795 -0.400383 -5.63078 0
M  V30 2328 N 223.193 1.4272 -0.668489 0
M  V30 2329 C 224.141 2.32586 0.0254857 0
M  V30 2330 C 225.135 1.49471 0.797176 0
M  V30 2331 O 226.341 1.65583 0.705853 0
M  V30 2332 H 222.716 0.751514 0.0270339 0
M  V30 2333 H 224.687 2.88823 -0.749936 0
M  V30 2334 C 223.436 3.3397 0.967427 0
M  V30 2335 H 222.759 3.97961 0.383048 0
M  V30 2336 H 224.199 3.9945 1.42181 0
M  V30 2337 C 222.658 2.65744 2.0708 0
M  V30 2338 O 223.188 2.48454 3.15648 0
M  V30 2339 N 221.394 2.2487 1.8407 0
M  V30 2340 H 220.941 2.39132 0.95778 0
M  V30 2341 H 220.899 1.79552 2.58086 0
M  V30 2342 N 224.671 0.411399 1.52136 0
M  V30 2343 C 225.618 -0.412975 2.27075 0
M  V30 2344 C 226.588 -1.03912 1.29582 0
M  V30 2345 O 227.773 -1.06296 1.58448 0
M  V30 2346 C 224.913 -1.52247 3.09701 0
M  V30 2347 C 224.026 -0.917021 4.22155 0
M  V30 2348 C 223.161 -1.9994 4.92135 0
M  V30 2349 C 222.2 -1.37101 5.96548 0
M  V30 2350 N 221.337 -2.39364 6.60038 0
M  V30 2351 H 226.177 0.232499 2.97092 0
M  V30 2352 H 223.714 0.126496 1.46555 0
M  V30 2353 H 225.672 -2.17674 3.55913 0
M  V30 2354 H 224.302 -2.13794 2.41851 0
M  V30 2355 H 223.354 -0.151742 3.80097 0
M  V30 2356 H 224.666 -0.418006 4.97045 0
M  V30 2357 H 223.82 -2.73088 5.41763 0
M  V30 2358 H 222.559 -2.53208 4.16818 0
M  V30 2359 H 221.564 -0.624873 5.46237 0
M  V30 2360 H 222.789 -0.845998 6.7381 0
M  V30 2361 H 220.735 -2.91759 5.87548 0
M  V30 2362 H 220.652 -1.9428 7.3061 0
M  V30 2363 H 221.92 -3.12074 7.14304 0
M  V30 2364 N 226.149 -1.5696 0.141893 0
M  V30 2365 C 227.079 -2.19516 -0.795936 0
M  V30 2366 C 228.06 -1.14187 -1.26077 0
M  V30 2367 O 229.245 -1.42511 -1.31925 0
M  V30 2368 C 226.375 -2.81272 -2.03723 0
M  V30 2369 C 225.329 -3.92384 -1.70936 0
M  V30 2370 C 224.655 -4.41052 -3.02287 0
M  V30 2371 C 225.955 -5.13403 -0.959954 0
M  V30 2372 H 227.649 -2.98138 -0.274596 0
M  V30 2373 H 225.195 -1.43406 -0.130636 0
M  V30 2374 H 227.148 -3.237 -2.69808 0
M  V30 2375 H 225.872 -1.99973 -2.58221 0
M  V30 2376 H 224.531 -3.50566 -1.07232 0
M  V30 2377 H 224.179 -3.56582 -3.54765 0
M  V30 2378 H 223.879 -5.15993 -2.81114 0
M  V30 2379 H 225.403 -4.86146 -3.69451 0
M  V30 2380 H 226.817 -5.52706 -1.52279 0
M  V30 2381 H 225.214 -5.94073 -0.848357 0
M  V30 2382 H 226.284 -4.84875 0.0492434 0
M  V30 2383 N 227.627 0.131896 -1.57047 0
M  V30 2384 C 228.876 0.84044 -1.83356 0
M  V30 2385 C 229.189 1.81646 -0.725535 0
M  V30 2386 O 230.395 2.57025 -0.874659 0
M  V30 2387 C 228.851 1.54528 -3.25037 0
M  V30 2388 C 228.459 0.610902 -4.43815 0
M  V30 2389 C 230.203 2.23972 -3.60606 0
M  V30 2390 C 228.11 1.31823 -5.76521 0
M  V30 2391 H 227.04 0.317599 -0.683847 0
M  V30 2392 H 229.691 0.0931561 -1.83263 0
M  V30 2393 H 228.073 2.33873 -3.19561 0
M  V30 2394 H 229.247 -0.148407 -4.60561 0
M  V30 2395 H 227.562 0.0241016 -4.16393 0
M  V30 2396 H 230.159 2.77558 -4.57018 0
M  V30 2397 H 230.502 3.01173 -2.87403 0
M  V30 2398 H 231.035 1.51529 -3.6781 0
M  V30 2399 H 227.774 0.587771 -6.52859 0
M  V30 2400 H 227.294 2.04987 -5.63685 0
M  V30 2401 H 228.973 1.855 -6.19838 0
M  V30 2402 N 229.106 1.52395 0.401703 0
M  V30 2403 C 230.036 1.79231 1.49661 0
M  V30 2404 C 231.017 0.643654 1.57452 0
M  V30 2405 O 232.202 0.889989 1.72606 0
M  V30 2406 C 229.332 1.94971 2.87409 0
M  V30 2407 C 228.286 3.10604 2.94465 0
M  V30 2408 C 227.612 3.11577 4.34538 0
M  V30 2409 C 228.912 4.49921 2.6527 0
M  V30 2410 H 230.606 2.70917 1.27454 0
M  V30 2411 H 228.152 1.30362 0.6117 0
M  V30 2412 H 230.105 2.12328 3.63999 0
M  V30 2413 H 228.829 0.999632 3.10926 0
M  V30 2414 H 227.488 2.93009 2.20321 0
M  V30 2415 H 227.136 2.14277 4.55076 0
M  V30 2416 H 226.836 3.89247 4.40183 0
M  V30 2417 H 228.36 3.31073 5.13053 0
M  V30 2418 H 229.774 4.67683 3.31581 0
M  V30 2419 H 228.171 5.29564 2.82281 0
M  V30 2420 H 229.241 4.57507 1.60671 0
M  V30 2421 N 230.584 -0.659388 1.43143 0
M  V30 2422 C 231.995 -1.24041 1.39537 0
M  V30 2423 C 232.346 -1.95963 0.0963364 0
M  V30 2424 O 231.471 -2.00892 -0.804438 0
M  V30 2425 C 232.066 -2.25601 2.52764 0
M  V30 2426 C 230.625 -2.79195 2.52443 0
M  V30 2427 C 229.772 -1.53743 2.30778 0
M  V30 2428 H 232.723 -0.451792 1.52133 0
M  V30 2429 H 232.744 -3.07651 2.23899 0
M  V30 2430 H 232.256 -1.73226 3.47296 0
M  V30 2431 H 230.357 -3.35649 1.61773 0
M  V30 2432 H 230.47 -3.2716 3.50004 0
M  V30 2433 H 228.834 -1.80869 1.79328 0
M  V30 2434 H 229.617 -1.03312 3.27386 0
M  V30 2435 N 232.062 -1.29571 -0.897171 0
M  V30 2436 C 232.972 -1.16808 -2.03453 0
M  V30 2437 C 233.988 -0.0907471 -1.73763 0
M  V30 2438 O 235.164 -0.303312 -1.99103 0
M  V30 2439 C 232.229 -0.848264 -3.36163 0
M  V30 2440 C 231.29 -2.0097 -3.79354 0
M  V30 2441 C 230.523 -1.70505 -5.05731 0
M  V30 2442 O 230.746 -0.62718 -5.66941 0
M  V30 2443 O 229.68 -2.5538 -5.45036 0
M  V30 2444 H 233.506 -2.12325 -2.17144 0
M  V30 2445 H 231.091 -1.09047 -1.02123 0
M  V30 2446 H 232.973 -0.684581 -4.15802 0
M  V30 2447 H 231.648 0.0771071 -3.23608 0
M  V30 2448 H 230.555 -2.22863 -3.00471 0
M  V30 2449 H 231.888 -2.91636 -3.96496 0
M  V30 2450 N 233.54 1.10788 -1.12088 0
M  V30 2451 C 234.47 2.19083 -0.807755 0
M  V30 2452 C 235.451 1.6858 0.226859 0
M  V30 2453 O 236.636 1.93997 0.0888475 0
M  V30 2454 C 233.766 3.46344 -0.257576 0
M  V30 2455 C 232.72 4.101 -1.22483 0
M  V30 2456 C 232.046 5.32016 -0.535052 0
M  V30 2457 C 233.346 4.54236 -2.57811 0
M  V30 2458 H 235.04 2.45534 -1.71328 0
M  V30 2459 H 232.586 1.1801 -0.825205 0
M  V30 2460 H 234.539 4.21392 -0.0262679 0
M  V30 2461 H 233.263 3.19373 0.683278 0
M  V30 2462 H 231.922 3.37054 -1.44189 0
M  V30 2463 H 231.57 5.01319 0.410827 0
M  V30 2464 H 231.27 5.75625 -1.18024 0
M  V30 2465 H 232.794 6.09799 -0.312695 0
M  V30 2466 H 234.208 5.20575 -2.40155 0
M  V30 2467 H 232.605 5.08682 -3.18375 0
M  V30 2468 H 233.675 3.6734 -3.16528 0
M  V30 2469 N 235.018 0.912232 1.28515 0
M  V30 2470 C 236.266 0.543523 1.94654 0
M  V30 2471 C 236.587 -0.9155 1.72173 0
M  V30 2472 O 235.857 -1.64708 1.06058 0
M  V30 2473 H 234.437 0.198017 0.720277 0
M  V30 2474 H 237.099 1.16126 1.56527 0
M  V30 2475 H 236.195 0.736684 3.03281 0
M  V30 2476 N 236.496 -1.42363 0.676048 0
M  V30 2477 C 237.446 -2.27987 -0.0242903 0
M  V30 2478 C 238.43 -1.41153 -0.772319 0
M  V30 2479 O 239.622 -1.64592 -0.651025 0
M  V30 2480 C 236.751 -3.29195 -0.973953 0
M  V30 2481 C 235.837 -4.23512 -0.223202 0
M  V30 2482 N 236.228 -4.99865 0.772589 0
M  V30 2483 C 234.526 -4.43606 -0.461469 0
M  V30 2484 C 235.227 -5.68757 1.22027 0
M  V30 2485 N 234.203 -5.40811 0.549975 0
M  V30 2486 H 238.005 -2.84445 0.73949 0
M  V30 2487 H 235.519 -1.54341 0.50522 0
M  V30 2488 H 237.516 -3.89339 -1.49067 0
M  V30 2489 H 236.176 -2.74298 -1.73755 0
M  V30 2490 H 237.187 -5.04921 1.15217 0
M  V30 2491 H 233.864 -3.99749 -1.20446 0
M  V30 2492 H 235.254 -6.40007 2.0455 0
M  V30 2493 N 237.974 -0.419461 -1.51915 0
M  V30 2494 C 239.223 0.154346 -2.01109 0
M  V30 2495 C 239.536 1.45338 -1.30905 0
M  V30 2496 O 240.742 2.10906 -1.7097 0
M  V30 2497 C 239.198 0.325615 -3.58424 0
M  V30 2498 C 238.806 -0.961934 -4.37551 0
M  V30 2499 C 240.55 0.854155 -4.15818 0
M  V30 2500 C 238.457 -0.757287 -5.86531 0
M  V30 2501 H 237.387 0.0614563 -0.751491 0
M  V30 2502 H 240.038 -0.54649 -1.75173 0
M  V30 2503 H 238.42 1.08903 -3.80731 0
M  V30 2504 H 239.594 -1.7323 -4.26999 0
M  V30 2505 H 237.909 -1.41766 -3.91524 0
M  V30 2506 H 240.506 1.02346 -5.24814 0
M  V30 2507 H 240.849 1.83172 -3.73837 0
M  V30 2508 H 241.382 0.149528 -3.97519 0
M  V30 2509 H 238.121 -1.70671 -6.32892 0
M  V30 2510 H 237.641 -0.0264061 -5.99794 0
M  V30 2511 H 239.32 -0.403482 -6.45741 0
M  V30 2512 N 239.452 1.56882 -0.150215 0
M  V30 2513 C 240.68 2.00593 0.506948 0
M  V30 2514 C 241.095 1.03033 1.58208 0
M  V30 2515 O 240.452 0.0278396 1.82479 0
M  V30 2516 C 240.503 3.44209 1.10465 0
M  V30 2517 O 240.224 4.3804 0.0724636 0
M  V30 2518 C 241.725 4.03214 1.84211 0
M  V30 2519 H 238.945 0.65795 0.13169 0
M  V30 2520 H 241.489 2.03018 -0.245743 0
M  V30 2521 H 239.644 3.42625 1.80795 0
M  V30 2522 H 240.058 5.22007 0.510793 0
M  V30 2523 H 241.532 5.0569 2.21318 0
M  V30 2524 H 242.009 3.44107 2.72923 0
M  V30 2525 H 242.615 4.08437 1.18572 0
M  V30 2526 N 240.93 -0.123565 1.57115 0
M  V30 2527 C 242.177 -0.832153 1.84612 0
M  V30 2528 C 242.505 -1.80093 0.734627 0
M  V30 2529 O 241.76 -1.93766 -0.27442 0
M  V30 2530 C 242.059 -1.62016 3.18568 0
M  V30 2531 C 241.725 -0.796084 4.43817 0
M  V30 2532 C 240.387 -0.568816 4.77826 0
M  V30 2533 C 242.739 -0.221364 5.2073 0
M  V30 2534 C 240.067 0.243499 5.86194 0
M  V30 2535 C 242.419 0.578117 6.29953 0
M  V30 2536 C 241.083 0.815744 6.62497 0
M  V30 2537 H 240.353 -0.304507 0.675542 0
M  V30 2538 H 243 -0.0947248 1.91266 0
M  V30 2539 H 241.305 -2.42837 3.0747 0
M  V30 2540 H 243.002 -2.17231 3.37064 0
M  V30 2541 H 239.592 -0.983307 4.17168 0
M  V30 2542 H 243.776 -0.384173 4.94811 0
M  V30 2543 H 239.032 0.436871 6.09837 0
M  V30 2544 H 243.206 1.03046 6.88734 0
M  V30 2545 H 240.833 1.44701 7.46301 0
M  V30 2546 N 242.408 -1.52605 -0.393616 0
M  V30 2547 C 243.318 -1.79971 -1.50492 0
M  V30 2548 C 244.334 -0.686181 -1.59899 0
M  V30 2549 O 245.51 -0.973274 -1.76322 0
M  V30 2550 C 242.575 -1.95867 -2.86072 0
M  V30 2551 C 241.636 -3.19781 -2.86424 0
M  V30 2552 C 240.869 -3.34909 -4.15538 0
M  V30 2553 O 241.092 -2.54948 -5.10253 0
M  V30 2554 O 240.026 -4.28141 -4.23059 0
M  V30 2555 H 243.852 -2.74328 -1.30299 0
M  V30 2556 H 241.437 -1.3764 -0.581005 0
M  V30 2557 H 243.319 -2.08056 -3.66457 0
M  V30 2558 H 241.994 -1.04699 -3.063 0
M  V30 2559 H 240.901 -3.13038 -2.04837 0
M  V30 2560 H 242.234 -4.1078 -2.71147 0
M  V30 2561 N 243.887 0.651787 -1.4349 0
M  V30 2562 C 244.817 1.77621 -1.51569 0
M  V30 2563 C 245.798 1.66022 -0.370253 0
M  V30 2564 O 246.983 1.85095 -0.587658 0
M  V30 2565 C 244.113 3.16056 -1.43966 0
M  V30 2566 C 243.067 3.4242 -2.56774 0
M  V30 2567 C 242.393 4.8067 -2.34223 0
M  V30 2568 C 243.693 3.37023 -3.99015 0
M  V30 2569 H 245.387 1.71117 -2.45681 0
M  V30 2570 H 242.933 0.821825 -1.18246 0
M  V30 2571 H 244.886 3.94472 -1.48221 0
M  V30 2572 H 243.61 3.23293 -0.463586 0
M  V30 2573 H 242.269 2.66375 -2.51873 0
M  V30 2574 H 241.917 4.84585 -1.34856 0
M  V30 2575 H 241.617 4.9927 -3.09844 0
M  V30 2576 H 243.141 5.61342 -2.40265 0
M  V30 2577 H 244.555 4.05374 -4.05395 0
M  V30 2578 H 242.952 3.67159 -4.74673 0
M  V30 2579 H 244.022 2.3518 -4.2405 0
M  V30 2580 N 245.365 1.30045 0.890287 0
M  V30 2581 C 246.315 1.12592 1.9826 0
M  V30 2582 C 247.299 0.0426021 1.60844 0
M  V30 2583 O 248.491 0.265346 1.75 0
M  V30 2584 C 245.62 0.814301 3.33503 0
M  V30 2585 C 244.706 1.93761 3.7725 0
M  V30 2586 N 245.097 3.18232 3.93143 0
M  V30 2587 C 243.395 1.83277 4.06602 0
M  V30 2588 C 244.096 3.9158 4.30163 0
M  V30 2589 N 243.072 3.19591 4.3973 0
M  V30 2590 H 246.874 2.07003 2.08631 0
M  V30 2591 H 244.388 1.21307 1.07974 0
M  V30 2592 H 246.385 0.67029 4.11476 0
M  V30 2593 H 245.045 -0.121797 3.24471 0
M  V30 2594 H 246.056 3.53581 3.78419 0
M  V30 2595 H 242.733 0.97001 4.06075 0
M  V30 2596 H 244.123 4.98744 4.50226 0
M  V30 2597 N 246.843 -1.10192 1.12674 0
M  V30 2598 C 248.259 -1.34235 0.863317 0
M  V30 2599 C 248.459 -1.95062 -0.505277 0
M  V30 2600 O 247.515 -2.19192 -1.25345 0
M  V30 2601 C 248.828 -2.2616 1.98172 0
M  V30 2602 C 250.376 -2.3969 2.0129 0
M  V30 2603 C 250.851 -3.34946 3.1237 0
M  V30 2604 N 252.342 -3.42515 3.11829 0
M  V30 2605 C 253.077 -4.16199 3.94419 0
M  V30 2606 N 252.573 -4.92747 4.87004 0
M  V30 2607 N 254.366 -4.11843 3.82547 0
M  V30 2608 H 246.517 -0.690798 2.00853 0
M  V30 2609 H 248.78 -0.366774 0.874174 0
M  V30 2610 H 248.486 -1.8868 2.96804 0
M  V30 2611 H 248.36 -3.26488 1.88906 0
M  V30 2612 H 250.747 -2.76438 1.03276 0
M  V30 2613 H 250.828 -1.39169 2.14629 0
M  V30 2614 H 250.472 -2.98923 4.10619 0
M  V30 2615 H 250.402 -4.35353 2.96269 0
M  V30 2616 H 252.893 -2.87926 2.44759 0
M  V30 2617 H 253.206 -5.46376 5.46528 0
M  V30 2618 H 251.551 -4.91862 4.91016 0
M  V30 2619 H 254.742 -3.51136 3.0955 0
M  V30 2620 H 254.915 -4.69007 4.47142 0
M  V30 2621 N 248.321 -0.919034 -1.28029 0
M  V30 2622 C 249.253 -0.368762 -2.26214 0
M  V30 2623 C 250.266 0.495716 -1.55069 0
M  V30 2624 O 251.455 0.30974 -1.75792 0
M  V30 2625 C 248.555 0.491049 -3.35324 0
M  V30 2626 C 247.728 -0.352133 -4.3598 0
M  V30 2627 C 246.787 0.443622 -5.24327 0
M  V30 2628 O 245.813 -0.14566 -5.69014 0
M  V30 2629 N 247.015 1.74545 -5.53637 0
M  V30 2630 H 249.78 -1.21273 -2.74068 0
M  V30 2631 H 247.341 -0.785541 -1.41566 0
M  V30 2632 H 249.333 1.03026 -3.91366 0
M  V30 2633 H 247.903 1.23574 -2.87138 0
M  V30 2634 H 247.123 -1.07269 -3.79324 0
M  V30 2635 H 248.411 -0.928883 -5.00249 0
M  V30 2636 H 247.809 2.24666 -5.19174 0
M  V30 2637 H 246.366 2.23138 -6.12416 0
M  V30 2638 O 249.838 1.38984 -0.822545 0
M  V30 2639 H 250.529 1.89429 -0.404525 0
M  V30 END ATOM
M  V30 BEGIN BOND
M  V30 END BOND
M  V30 END CTAB
M  END
$$$$
