drugbank_target|Q81EE4 Acyl-CoA hydrolase (DB01992)
 OpenBabel12092120233D

  0  0  0     0  0            999 V3000
M  V30 BEGIN CTAB
M  V30 COUNTS 2726 2751 0 0 0
M  V30 BEGIN ATOM
M  V30 1 H -0.908 1.98254 -0.117106 0
M  V30 2 N 0 1.576 0 0
M  V30 3 C 0.933 2.03868 1.02534 0
M  V30 4 C 1.911 0.928543 1.3348 0
M  V30 5 O 3.095 1.19667 1.45644 0
M  V30 6 C 0.222 2.43627 2.35294 0
M  V30 7 C -0.732 3.65373 2.2001 0
M  V30 8 S 0.101 5.13292 1.52614 0
M  V30 9 C 1.257 5.56322 2.86805 0
M  V30 10 H 1.49 2.90518 0.631377 0
M  V30 11 H -0.977 1.52953 0.210867 0
M  V30 12 H 0.981 2.67203 3.11629 0
M  V30 13 H -0.358 1.57376 2.7183 0
M  V30 14 H -1.165 3.90944 3.18086 0
M  V30 15 H -1.563 3.418 1.51819 0
M  V30 16 H 0.729 5.58782 3.83104 0
M  V30 17 H 1.672 6.56266 2.65933 0
M  V30 18 H 2.08 4.83886 2.90714 0
M  V30 19 N 1.4781 -0.272755 1.55222 0
M  V30 20 C 2.7271 -1.00211 1.75045 0
M  V30 21 C 3.0401 -1.87441 0.559046 0
M  V30 22 O 4.2461 -2.63856 0.639698 0
M  V30 23 C 2.7021 -1.83165 3.09804 0
M  V30 24 C 2.3101 -1.008 4.36513 0
M  V30 25 C 4.0541 -2.55529 3.38977 0
M  V30 26 C 1.9611 -1.83194 5.62311 0
M  V30 27 H 0.8911 -0.377878 0.652476 0
M  V30 28 H 3.5421 -0.257776 1.8168 0
M  V30 29 H 1.9241 -2.61694 2.97207 0
M  V30 30 H 3.0981 -0.266855 4.60027 0
M  V30 31 H 1.4131 -0.398897 4.14485 0
M  V30 32 H 4.0101 -3.17578 4.30172 0
M  V30 33 H 4.3531 -3.25825 2.59121 0
M  V30 34 H 4.8861 -1.84029 3.52673 0
M  V30 35 H 1.6251 -1.17318 6.44916 0
M  V30 36 H 1.1451 -2.54905 5.4294 0
M  V30 37 H 2.8241 -2.40552 6.00619 0
M  V30 38 N 2.9562 -1.48159 -0.537278 0
M  V30 39 C 4.1842 -1.59454 -1.31841 0
M  V30 40 C 4.5992 -0.252065 -1.8711 0
M  V30 41 O 3.9562 0.757621 -1.66031 0
M  V30 42 C 4.0072 -2.63546 -2.47439 0
M  V30 43 O 3.7282 -3.92583 -1.94449 0
M  V30 44 C 5.2292 -2.85212 -3.39366 0
M  V30 45 H 2.4492 -0.53785 -0.401196 0
M  V30 46 H 4.9932 -1.93932 -0.648891 0
M  V30 47 H 3.1482 -2.31946 -3.1029 0
M  V30 48 H 3.5622 -4.49629 -2.70063 0
M  V30 49 H 5.0362 -3.61863 -4.16844 0
M  V30 50 H 5.5132 -1.93765 -3.94147 0
M  V30 51 H 6.1192 -3.18086 -2.82314 0
M  V30 52 N 4.4343 0.785586 -1.36625 0
M  V30 53 C 5.3673 1.90509 -1.25625 0
M  V30 54 C 6.3453 1.62 -0.139607 0
M  V30 55 O 7.5293 1.8591 -0.31141 0
M  V30 56 C 4.6563 3.25419 -0.939158 0
M  V30 57 C 3.7023 3.72856 -2.07077 0
M  V30 58 S 4.5353 3.88162 -3.68904 0
M  V30 59 C 5.6913 5.25942 -3.39317 0
M  V30 60 H 5.9243 1.99549 -2.20381 0
M  V30 61 H 3.4573 0.945226 -1.22085 0
M  V30 62 H 5.4153 4.03346 -0.763029 0
M  V30 63 H 4.0763 3.14099 -0.00931402 0
M  V30 64 H 3.2693 4.70624 -1.80357 0
M  V30 65 H 2.8713 3.01989 -2.20632 0
M  V30 66 H 5.1633 6.10651 -2.93447 0
M  V30 67 H 6.1063 5.57668 -4.36363 0
M  V30 68 H 6.5143 4.93224 -2.74573 0
M  V30 69 N 5.9124 1.20967 1.01018 0
M  V30 70 C 7.1404 1.04956 1.78303 0
M  V30 71 C 7.5554 -0.400915 1.84494 0
M  V30 72 O 6.9124 -1.27826 1.30257 0
M  V30 73 C 6.9634 1.63403 3.22462 0
M  V30 74 O 6.6844 3.02775 3.16637 0
M  V30 75 C 8.1854 1.52432 4.16268 0
M  V30 76 H 5.4054 0.368858 0.560522 0
M  V30 77 H 7.9494 1.60193 1.27116 0
M  V30 78 H 6.1044 1.1227 3.70775 0
M  V30 79 H 6.5184 3.30626 4.07169 0
M  V30 80 H 7.9924 1.98078 5.15237 0
M  V30 81 H 8.4694 0.477875 4.36592 0
M  V30 82 H 9.0754 2.02787 3.73841 0
M  V30 83 N 7.3905 -1.2043 1.01659 0
M  V30 84 C 8.3005 -2.2689 0.596484 0
M  V30 85 C 9.3165 -1.70107 -0.36599 0
M  V30 86 O 10.4925 -2.00117 -0.226942 0
M  V30 87 C 7.5575 -3.4665 -0.0586659 0
M  V30 88 C 6.6185 -4.18662 0.949751 0
M  V30 89 C 5.8515 -5.32705 0.32577 0
M  V30 90 O 6.0745 -5.63656 -0.874509 0
M  V30 91 O 5.0085 -5.92803 1.04249 0
M  V30 92 H 8.8345 -2.65041 1.4828 0
M  V30 93 H 6.4195 -1.27048 0.786082 0
M  V30 94 H 8.3015 -4.19256 -0.424564 0
M  V30 95 H 6.9765 -3.10375 -0.91918 0
M  V30 96 H 5.8835 -3.48229 1.36702 0
M  V30 97 H 7.2165 -4.58878 1.78023 0
M  V30 98 N 8.8686 -0.792821 -1.36206 0
M  V30 99 C 10.1146 -0.36733 -1.99446 0
M  V30 100 C 10.4476 1.05917 -1.62774 0
M  V30 101 O 9.7226 1.7324 -0.88421 0
M  V30 102 C 10.0056 -0.535044 -3.56103 0
M  V30 103 C 9.8586 -2.00548 -4.02617 0
M  V30 104 C 11.1776 0.0478191 -4.40074 0
M  V30 105 H 8.2966 -0.134941 -0.724541 0
M  V30 106 H 10.9386 -0.999794 -1.61568 0
M  V30 107 H 9.0886 0.00336329 -3.885 0
M  V30 108 H 10.7606 -2.60521 -3.80692 0
M  V30 109 H 9.0036 -2.50686 -3.54032 0
M  V30 110 H 9.6746 -2.07377 -5.11565 0
M  V30 111 H 12.1506 -0.411822 -4.14057 0
M  V30 112 H 11.0266 -0.0995336 -5.4881 0
M  V30 113 H 11.2876 1.14025 -4.27142 0
M  V30 114 N 10.3467 1.47872 -0.545128 0
M  V30 115 C 11.2937 2.29849 0.2093 0
M  V30 116 C 12.2637 1.38313 0.919707 0
M  V30 117 O 13.4487 1.67277 0.917772 0
M  V30 118 C 10.5887 3.22019 1.24088 0
M  V30 119 C 9.7017 4.2864 0.537778 0
M  V30 120 C 8.8367 5.07973 1.5536 0
M  V30 121 C 7.8757 6.06381 0.8348 0
M  V30 122 N 7.0127 6.78717 1.79688 0
M  V30 123 H 11.8527 2.93845 -0.49591 0
M  V30 124 H 9.3897 1.44848 -0.256389 0
M  V30 125 H 11.3477 3.73868 1.85144 0
M  V30 126 H 9.9777 2.59914 1.91428 0
M  V30 127 H 9.0297 3.7994 -0.187046 0
M  V30 128 H 10.3417 4.98793 -0.0258907 0
M  V30 129 H 9.4957 5.63912 2.23803 0
M  V30 130 H 8.2347 4.37693 2.15118 0
M  V30 131 H 7.2397 5.49631 0.136388 0
M  V30 132 H 8.4647 6.78665 0.24313 0
M  V30 133 H 6.4107 6.11177 2.38326 0
M  V30 134 H 6.3277 7.44998 1.28505 0
M  V30 135 H 7.5957 7.39237 2.47282 0
M  V30 136 N 11.8248 0.280983 1.55075 0
M  V30 137 C 13.0728 -0.333455 1.9933 0
M  V30 138 C 13.3938 -1.55937 1.17085 0
M  V30 139 O 12.6638 -1.94143 0.261805 0
M  V30 140 H 11.2438 -0.126197 0.736263 0
M  V30 141 H 13.9058 0.387678 1.91005 0
M  V30 142 H 13.0018 -0.619292 3.05894 0
M  V30 143 N 13.3029 -1.57598 0.00835791 0
M  V30 144 C 14.2499 -2.08945 -0.980346 0
M  V30 145 C 15.2199 -0.986738 -1.33614 0
M  V30 146 O 16.4049 -1.25968 -1.43306 0
M  V30 147 C 13.5449 -2.60425 -2.26435 0
M  V30 148 C 12.6579 -3.84628 -1.96685 0
M  V30 149 C 11.7929 -4.24579 -3.19228 0
M  V30 150 C 10.8319 -5.41596 -2.85202 0
M  V30 151 N 9.9689 -5.768 -4.00307 0
M  V30 152 H 14.8089 -2.93148 -0.535551 0
M  V30 153 H 12.3459 -1.44912 -0.252776 0
M  V30 154 H 14.3039 -2.88354 -3.01509 0
M  V30 155 H 12.9339 -1.79083 -2.68568 0
M  V30 156 H 11.9859 -3.63556 -1.11942 0
M  V30 157 H 13.2979 -4.69796 -1.67611 0
M  V30 158 H 12.4519 -4.53834 -4.02641 0
M  V30 159 H 11.1909 -3.38137 -3.51447 0
M  V30 160 H 10.1959 -5.12056 -2.00198 0
M  V30 161 H 11.4209 -6.29721 -2.54222 0
M  V30 162 H 9.3669 -4.93316 -4.32407 0
M  V30 163 H 9.2839 -6.5656 -3.74786 0
M  V30 164 H 10.5519 -6.10652 -4.84484 0
M  V30 165 N 14.781 0.264519 -1.55364 0
M  V30 166 C 16.009 1.013 -1.80405 0
M  V30 167 C 16.424 1.79618 -0.581622 0
M  V30 168 O 15.781 1.76879 0.449468 0
M  V30 169 C 15.832 1.96487 -3.03439 0
M  V30 170 O 15.553 1.21341 -4.20961 0
M  V30 171 C 17.054 2.83079 -3.41147 0
M  V30 172 H 14.274 0.298875 -0.600762 0
M  V30 173 H 16.818 0.292736 -2.02394 0
M  V30 174 H 14.973 2.63965 -2.83551 0
M  V30 175 H 15.387 1.85573 -4.90574 0
M  V30 176 H 16.861 3.4565 -4.30384 0
M  V30 177 H 17.338 3.53286 -2.60932 0
M  V30 178 H 17.944 2.2108 -3.63323 0
M  V30 179 N 16.2591 1.48442 0.529413 0
M  V30 180 C 17.2221 1.62524 1.61612 0
M  V30 181 C 18.2221 0.498509 1.52877 0
M  V30 182 O 19.4121 0.76431 1.56537 0
M  V30 183 C 16.5441 1.59597 3.01233 0
M  V30 184 H 17.7371 2.59423 1.50465 0
M  V30 185 H 15.2901 1.37047 0.751514 0
M  V30 186 H 16.0251 0.641781 3.17886 0
M  V30 187 H 15.8101 2.41397 3.08982 0
M  V30 188 H 17.3001 1.72646 3.80241 0
M  V30 189 N 17.7372 -0.778329 1.37039 0
M  V30 190 C 18.6852 -1.91278 1.32345 0
M  V30 191 C 19.6792 -1.68051 0.213331 0
M  V30 192 O 20.8852 -1.75922 0.38098 0
M  V30 193 H 17.2602 -0.628909 0.412283 0
M  V30 194 H 19.2312 -1.92355 2.28127 0
M  V30 195 C 17.9802 -3.28455 1.14073 0
M  V30 196 H 17.3032 -3.46901 1.98746 0
M  V30 197 H 18.7432 -4.08152 1.14837 0
M  V30 198 C 17.2022 -3.36548 -0.154015 0
M  V30 199 O 17.7322 -3.85186 -1.13993 0
M  V30 200 N 15.9382 -2.89894 -0.202475 0
M  V30 201 H 15.4852 -2.50504 0.600476 0
M  V30 202 H 15.4432 -2.9569 -1.06841 0
M  V30 203 N 19.2153 -1.21501 -1.00376 0
M  V30 204 C 20.1253 -0.991447 -2.12621 0
M  V30 205 C 21.1413 0.0568446 -1.73907 0
M  V30 206 O 22.3173 -0.13348 -2.00957 0
M  V30 207 C 19.3823 -0.560312 -3.42142 0
M  V30 208 C 18.4433 -1.68096 -3.95022 0
M  V30 209 C 17.6763 -1.2703 -5.18362 0
M  V30 210 O 17.8993 -0.144438 -5.70217 0
M  V30 211 O 16.8333 -2.08269 -5.64719 0
M  V30 212 H 20.6593 -1.93158 -2.34358 0
M  V30 213 H 18.2443 -0.999999 -1.10997 0
M  V30 214 H 20.1263 -0.329724 -4.20108 0
M  V30 215 H 18.8013 0.351089 -3.2179 0
M  V30 216 H 17.7083 -1.96597 -3.18278 0
M  V30 217 H 19.0413 -2.56983 -4.19786 0
M  V30 218 N 20.6934 1.19889 -1.02296 0
M  V30 219 C 21.9184 1.9393 -0.735237 0
M  V30 220 C 22.3434 1.74639 0.698782 0
M  V30 221 O 21.7014 1.04481 1.48167 0
M  V30 222 C 21.7494 3.43916 -1.08417 0
M  V30 223 O 20.8534 4.11917 -0.199446 0
M  V30 224 H 20.1944 0.605645 -0.272196 0
M  V30 225 H 22.7244 1.52137 -1.36804 0
M  V30 226 H 22.7344 3.9456 -1.03856 0
M  V30 227 H 21.4094 3.5728 -2.12894 0
M  V30 228 H 19.9864 3.71666 -0.303136 0
M  V30 229 N 22.1715 0.800033 1.35784 0
M  V30 230 C 23.5875 0.482977 1.52117 0
M  V30 231 C 23.7875 -0.996948 1.75109 0
M  V30 232 O 22.8435 -1.78216 1.78872 0
M  V30 233 C 24.1565 1.32264 2.70049 0
M  V30 234 C 25.7045 1.31742 2.83924 0
M  V30 235 C 26.1795 2.14106 4.04874 0
M  V30 236 N 27.6705 2.11607 4.12039 0
M  V30 237 C 28.4055 2.72099 5.04727 0
M  V30 238 N 27.9015 3.41492 6.02789 0
M  V30 239 N 29.6945 2.61776 4.97423 0
M  V30 240 H 21.8455 1.75856 1.19115 0
M  V30 241 H 24.1085 0.748122 0.582252 0
M  V30 242 H 23.8145 2.37261 2.59616 0
M  V30 243 H 23.6885 0.971303 3.6448 0
M  V30 244 H 26.0755 0.275333 2.93813 0
M  V30 245 H 26.1565 1.70859 1.9037 0
M  V30 246 H 25.8005 3.18351 3.95746 0
M  V30 247 H 25.7305 1.72353 4.97596 0
M  V30 248 H 28.2215 1.61112 3.41835 0
M  V30 249 H 28.5345 3.84953 6.70098 0
M  V30 250 H 26.8795 3.45596 6.02983 0
M  V30 251 H 30.0705 2.07157 4.19766 0
M  V30 252 H 30.2435 3.0921 5.69468 0
M  V30 253 N 23.6496 -1.47581 0.552962 0
M  V30 254 C 24.8956 -2.02782 0.0273648 0
M  V30 255 C 25.2286 -1.42687 -1.31734 0
M  V30 256 O 24.5036 -0.580897 -1.85623 0
M  V30 257 C 24.7866 -3.60031 -0.0702371 0
M  V30 258 C 24.6396 -4.30566 1.30126 0
M  V30 259 C 25.9586 -4.33028 -0.785771 0
M  V30 260 H 23.0776 -0.736912 0.0114185 0
M  V30 261 H 25.7196 -1.76056 0.714432 0
M  V30 262 H 23.8696 -3.82932 -0.655382 0
M  V30 263 H 25.5416 -4.19018 1.92929 0
M  V30 264 H 23.7846 -3.91086 1.87709 0
M  V30 265 H 24.4556 -5.39114 1.18573 0
M  V30 266 H 26.9316 -4.15095 -0.288982 0
M  V30 267 H 25.8076 -5.42695 -0.823013 0
M  V30 268 H 26.0686 -4.01945 -1.841 0
M  V30 269 N 25.1277 -0.289203 -1.54924 0
M  V30 270 C 26.3747 0.323519 -1.99899 0
M  V30 271 C 26.7027 1.54797 -1.17762 0
M  V30 272 O 25.9577 1.94237 -0.238835 0
M  V30 273 C 26.2567 0.736119 -3.49737 0
M  V30 274 C 25.9227 -0.385276 -4.49251 0
M  V30 275 C 24.5847 -0.693156 -4.76181 0
M  V30 276 C 26.9367 -1.14021 -5.08575 0
M  V30 277 C 24.2647 -1.7593 -5.59701 0
M  V30 278 C 26.6167 -2.19619 -5.93254 0
M  V30 279 C 25.2807 -2.51026 -6.185 0
M  V30 280 H 24.5507 0.118384 -0.731482 0
M  V30 281 H 27.1977 -0.405847 -1.8715 0
M  V30 282 H 25.5027 1.54539 -3.60035 0
M  V30 283 H 27.1997 1.22118 -3.81953 0
M  V30 284 H 23.7897 -0.135202 -4.28387 0
M  V30 285 H 27.9737 -0.915611 -4.87781 0
M  V30 286 H 23.2297 -2.0075 -5.77503 0
M  V30 287 H 27.4037 -2.78581 -6.38252 0
M  V30 288 H 25.0307 -3.33772 -6.83008 0
M  V30 289 N 26.6058 1.57591 -0.0167156 0
M  V30 290 C 27.5528 2.09462 0.969251 0
M  V30 291 C 28.5228 0.99381 1.33089 0
M  V30 292 O 29.7078 1.26726 1.42636 0
M  V30 293 C 26.8478 2.61622 2.25051 0
M  V30 294 C 25.9608 3.85666 1.94642 0
M  V30 295 C 25.0958 4.26266 3.16972 0
M  V30 296 C 24.1348 5.43101 2.82326 0
M  V30 297 N 23.2718 5.78915 3.97243 0
M  V30 298 H 28.1118 2.93428 0.519997 0
M  V30 299 H 25.6488 1.45044 0.245087 0
M  V30 300 H 27.6068 2.89949 2.99976 0
M  V30 301 H 26.2368 1.80505 2.67615 0
M  V30 302 H 25.2888 3.64145 1.10013 0
M  V30 303 H 26.6008 4.70678 1.65117 0
M  V30 304 H 25.7548 4.55963 4.00228 0
M  V30 305 H 24.4938 3.39996 3.49648 0
M  V30 306 H 23.4988 5.1311 1.97479 0
M  V30 307 H 24.7238 6.3106 2.50879 0
M  V30 308 H 22.6698 4.95602 4.29785 0
M  V30 309 H 22.5868 6.58539 3.71299 0
M  V30 310 H 23.8548 6.13212 4.81239 0
M  V30 311 N 28.0839 -0.256276 1.55502 0
M  V30 312 C 29.3119 -1.00342 1.8094 0
M  V30 313 C 29.7269 -1.79307 0.59114 0
M  V30 314 O 29.0839 -1.77114 -0.440081 0
M  V30 315 C 29.1349 -1.94875 3.04476 0
M  V30 316 O 28.8559 -1.19107 4.21598 0
M  V30 317 C 30.3569 -2.81266 3.42644 0
M  V30 318 H 27.5769 -0.295685 0.602338 0
M  V30 319 H 30.1209 -0.281998 2.02546 0
M  V30 320 H 28.2759 -2.62457 2.84947 0
M  V30 321 H 28.6899 -1.82969 4.91551 0
M  V30 322 H 30.1639 -3.43362 4.32211 0
M  V30 323 H 30.6409 -3.51897 2.62802 0
M  V30 324 H 31.2469 -2.1915 3.64491 0
M  V30 325 N 29.562 -1.4872 -0.521534 0
M  V30 326 C 30.787 -1.61101 -1.30618 0
M  V30 327 C 31.212 -0.274611 -1.86085 0
M  V30 328 O 30.57 0.754937 -1.64834 0
M  V30 329 C 30.618 -2.66709 -2.4269 0
M  V30 330 O 29.722 -2.24456 -3.45967 0
M  V30 331 H 29.063 -0.539921 -0.386499 0
M  V30 332 H 31.593 -1.94767 -0.626645 0
M  V30 333 H 31.603 -2.88245 -2.88754 0
M  V30 334 H 30.278 -3.63727 -2.01682 0
M  V30 335 H 28.855 -2.13168 -3.05964 0
M  V30 336 N 31.0401 0.771051 -1.3745 0
M  V30 337 C 32.4561 1.07171 -1.18265 0
M  V30 338 C 32.6561 2.01491 -0.019287 0
M  V30 339 O 31.7121 2.44244 0.640408 0
M  V30 340 C 33.0251 1.66854 -2.50161 0
M  V30 341 C 34.5731 1.79109 -2.56689 0
M  V30 342 C 35.0481 2.42205 -3.88717 0
M  V30 343 N 36.5391 2.49655 -3.90162 0
M  V30 344 C 37.2741 2.9933 -4.8907 0
M  V30 345 N 36.7701 3.49172 -5.98374 0
M  V30 346 N 38.5631 2.9821 -4.76474 0
M  V30 347 H 30.7141 0.144796 -2.11906 0
M  V30 348 H 32.9771 0.126863 -0.939473 0
M  V30 349 H 32.6831 1.05017 -3.35655 0
M  V30 350 H 32.5571 2.6614 -2.673 0
M  V30 351 H 34.9441 2.40077 -1.71601 0
M  V30 352 H 35.0251 0.785757 -2.43433 0
M  V30 353 H 34.6691 1.81875 -4.74219 0
M  V30 354 H 34.5991 3.43345 -3.99276 0
M  V30 355 H 37.0901 2.14383 -3.11205 0
M  V30 356 H 37.4031 3.8548 -6.69795 0
M  V30 357 H 35.7481 3.47275 -6.02018 0
M  V30 358 H 38.9391 2.58572 -3.90203 0
M  V30 359 H 39.1121 3.36613 -5.53711 0
M  V30 360 N 32.5182 1.22032 0.997298 0
M  V30 361 C 33.7642 1.04376 1.73878 0
M  V30 362 C 34.0972 -0.420716 1.89588 0
M  V30 363 O 33.3722 -1.31202 1.43583 0
M  V30 364 C 33.6552 1.75047 3.14691 0
M  V30 365 C 33.5082 3.29062 3.06656 0
M  V30 366 C 34.8272 1.49928 4.13775 0
M  V30 367 H 31.9462 0.380578 0.631133 0
M  V30 368 H 34.5882 1.50312 1.16217 0
M  V30 369 H 32.7382 1.35996 3.63919 0
M  V30 370 H 34.4102 3.7753 2.65083 0
M  V30 371 H 32.6532 3.58967 2.43568 0
M  V30 372 H 33.3242 3.73683 4.06282 0
M  V30 373 H 35.8002 1.83842 3.73285 0
M  V30 374 H 34.6762 2.01878 5.10428 0
M  V30 375 H 34.9372 0.430929 4.39995 0
M  V30 376 N 33.9963 -1.19345 1.0293 0
M  V30 377 C 35.2433 -1.89038 0.726008 0
M  V30 378 C 35.5713 -1.79649 -0.745427 0
M  V30 379 O 34.8263 -1.18354 -1.55855 0
M  V30 380 C 35.1253 -3.39292 1.12319 0
M  V30 381 C 34.7913 -3.68885 2.59297 0
M  V30 382 C 33.4533 -3.76671 2.99453 0
M  V30 383 C 35.8053 -3.82178 3.54386 0
M  V30 384 C 33.1333 -3.9522 4.33611 0
M  V30 385 C 35.4853 -4.0224 4.88248 0
M  V30 386 C 34.1493 -4.08259 5.28092 0
M  V30 387 H 33.4193 -0.691739 0.265665 0
M  V30 388 H 36.0663 -1.41328 1.29223 0
M  V30 389 H 34.3713 -3.88903 0.475584 0
M  V30 390 H 36.0683 -3.91536 0.866037 0
M  V30 391 H 32.6583 -3.63433 2.27189 0
M  V30 392 H 36.8423 -3.75505 3.24514 0
M  V30 393 H 32.0983 -3.98119 4.64016 0
M  V30 394 H 36.2723 -4.11468 5.61843 0
M  V30 395 H 33.8993 -4.22384 6.32057 0
M  V30 396 N 35.4744 -0.807222 -1.35358 0
M  V30 397 C 36.8854 -0.44876 -1.81226 0
M  V30 398 C 37.2364 1.02929 -1.67033 0
M  V30 399 O 36.3614 1.79991 -1.20133 0
M  V30 400 C 36.9564 -0.807774 -3.2903 0
M  V30 401 C 35.5154 -0.501901 -3.73039 0
M  V30 402 C 34.6624 -1.03304 -2.57339 0
M  V30 403 H 37.6134 -0.998808 -1.23327 0
M  V30 404 H 37.6344 -0.10554 -3.80354 0
M  V30 405 H 37.1464 -1.88357 -3.39328 0
M  V30 406 H 35.2474 0.565128 -3.68289 0
M  V30 407 H 35.3604 -1.03497 -4.67787 0
M  V30 408 H 33.7244 -0.455339 -2.50597 0
M  V30 409 H 34.5074 -2.11496 -2.70415 0
M  V30 410 N 36.9525 1.47285 -0.560781 0
M  V30 411 C 38.1805 2.06855 -0.0430262 0
M  V30 412 C 38.5955 1.41291 1.25229 0
M  V30 413 O 37.9525 0.510648 1.7521 0
M  V30 414 C 38.0035 3.61178 0.152518 0
M  V30 415 O 37.7245 4.24285 -1.0915 0
M  V30 416 C 39.2255 4.37624 0.707145 0
M  V30 417 H 36.4455 0.669319 -0.0474652 0
M  V30 418 H 38.9895 1.89237 -0.77521 0
M  V30 419 H 37.1445 3.78298 0.834843 0
M  V30 420 H 37.5585 5.16868 -0.891482 0
M  V30 421 H 39.0325 5.46271 0.793244 0
M  V30 422 H 39.5095 4.04152 1.71923 0
M  V30 423 H 40.1155 4.25257 0.0604027 0
M  V30 424 N 38.4306 0.297415 1.54768 0
M  V30 425 C 39.7076 -0.365847 1.92148 0
M  V30 426 C 40.0876 -1.71975 1.22424 0
M  V30 427 O 39.4356 -2.25666 0.358739 0
M  V30 428 C 39.6456 -0.484056 3.45627 0
M  V30 429 C 40.9936 -0.756594 4.17805 0
M  V30 430 O 42.0176 -0.568007 3.51642 0
M  V30 431 O 40.8766 -1.11863 5.34929 0
M  V30 432 H 37.9706 -0.203919 0.801465 0
M  V30 433 H 40.5166 0.34521 1.66152 0
M  V30 434 H 39.2886 0.467865 3.88493 0
M  V30 435 H 38.9116 -1.24372 3.77647 0
M  V30 436 N 39.9087 -1.5758 0.0250728 0
M  V30 437 C 40.8387 -2.13007 -0.956575 0
M  V30 438 C 41.8197 -1.0452 -1.342 0
M  V30 439 O 43.0047 -1.32332 -1.42133 0
M  V30 440 C 40.1347 -2.65386 -2.24026 0
M  V30 441 C 39.0887 -3.78623 -1.99571 0
M  V30 442 C 38.4147 -4.17414 -3.3417 0
M  V30 443 C 39.7147 -5.04867 -1.33814 0
M  V30 444 H 41.4087 -2.9528 -0.494991 0
M  V30 445 H 38.9547 -1.42042 -0.236651 0
M  V30 446 H 40.9077 -3.02794 -2.93076 0
M  V30 447 H 39.6317 -1.80268 -2.72343 0
M  V30 448 H 38.2907 -3.41646 -1.32941 0
M  V30 449 H 37.9387 -3.29284 -3.80238 0
M  V30 450 H 37.6387 -4.93719 -3.18615 0
M  V30 451 H 39.1627 -4.57402 -4.04495 0
M  V30 452 H 40.5767 -5.39888 -1.92857 0
M  V30 453 H 38.9737 -5.86144 -1.28669 0
M  V30 454 H 40.0437 -4.83904 -0.310561 0
M  V30 455 N 41.3868 0.248026 -1.55636 0
M  V30 456 C 42.3348 1.32683 -1.91045 0
M  V30 457 C 43.3288 1.49883 -0.789401 0
M  V30 458 O 44.5348 1.51371 -0.974007 0
M  V30 459 H 40.9098 0.444272 -0.606734 0
M  V30 460 H 42.8808 1.00085 -2.81115 0
M  V30 461 C 41.6298 2.6755 -2.22064 0
M  V30 462 H 40.9528 2.55114 -3.07826 0
M  V30 463 H 42.3928 3.41912 -2.50743 0
M  V30 464 C 40.8518 3.20556 -1.0366 0
M  V30 465 O 41.3818 4.00695 -0.284016 0
M  V30 466 N 39.5878 2.78568 -0.82753 0
M  V30 467 H 39.1348 2.1351 -1.44123 0
M  V30 468 H 39.0928 3.14378 -0.0369803 0
M  V30 469 N 42.8649 1.48995 0.513639 0
M  V30 470 C 44.1419 1.48338 1.27495 0
M  V30 471 C 44.5219 0.204065 2.10111 0
M  V30 472 O 43.8699 -0.813881 2.13514 0
M  V30 473 C 44.0799 2.75498 2.14247 0
M  V30 474 C 45.4279 3.24484 2.73852 0
M  V30 475 O 46.4519 2.76528 2.24523 0
M  V30 476 O 45.3109 4.07974 3.6362 0
M  V30 477 H 42.4049 0.593149 0.576284 0
M  V30 478 H 44.9509 1.61246 0.528948 0
M  V30 479 H 43.7229 3.60109 1.53092 0
M  V30 480 H 43.3459 2.6539 2.96064 0
M  V30 481 N 44.343 -0.763751 1.37857 0
M  V30 482 C 45.293 -1.86765 1.30777 0
M  V30 483 C 46.277 -1.59726 0.194015 0
M  V30 484 O 47.469 -1.7172 0.42911 0
M  V30 485 C 44.598 -3.24343 1.12502 0
M  V30 486 C 43.684 -3.57307 2.28456 0
M  V30 487 N 44.075 -3.61398 3.53871 0
M  V30 488 C 42.373 -3.87517 2.20786 0
M  V30 489 C 43.074 -3.91339 4.30382 0
M  V30 490 N 42.05 -4.07649 3.59615 0
M  V30 491 H 45.852 -1.88191 2.25746 0
M  V30 492 H 43.366 -0.9606 1.30944 0
M  V30 493 H 45.363 -4.03327 1.05514 0
M  V30 494 H 44.023 -3.24175 0.184574 0
M  V30 495 H 45.034 -3.43407 3.87675 0
M  V30 496 H 41.711 -3.95125 1.34844 0
M  V30 497 H 43.101 -4.01213 5.3896 0
M  V30 498 N 45.8211 -1.22559 -0.990812 0
M  V30 499 C 46.7691 -0.994798 -2.10253 0
M  V30 500 C 47.7631 0.0627798 -1.69284 0
M  V30 501 O 48.9691 -0.0898392 -1.79776 0
M  V30 502 H 45.3441 -0.304527 -0.687581 0
M  V30 503 H 47.3151 -1.93812 -2.26891 0
M  V30 504 C 46.0641 -0.591439 -3.42633 0
M  V30 505 H 45.3871 -1.3969 -3.74602 0
M  V30 506 H 46.8271 -0.469385 -4.21394 0
M  V30 507 C 45.2861 0.699232 -3.29564 0
M  V30 508 O 45.8161 1.75112 -3.61523 0
M  V30 509 N 44.0221 0.671182 -2.82743 0
M  V30 510 H 43.5691 -0.185136 -2.56934 0
M  V30 511 H 43.5271 1.53502 -2.7438 0
M  V30 512 N 47.2992 1.18797 -1.03562 0
M  V30 513 C 48.5272 1.92599 -0.755869 0
M  V30 514 C 48.9422 1.75886 0.686271 0
M  V30 515 O 48.2992 1.08517 1.46732 0
M  V30 516 C 48.3502 3.44159 -1.10619 0
M  V30 517 O 48.0712 3.60341 -2.4917 0
M  V30 518 C 49.5722 4.3507 -0.850214 0
M  V30 519 H 46.7922 0.611587 -0.276048 0
M  V30 520 H 49.3362 1.50742 -1.38192 0
M  V30 521 H 47.4912 3.83823 -0.525194 0
M  V30 522 H 47.9052 4.54128 -2.62427 0
M  V30 523 H 49.3792 5.39989 -1.14523 0
M  V30 524 H 49.8562 4.38673 0.215176 0
M  V30 525 H 50.4622 4.01097 -1.41426 0
M  V30 526 N 48.7773 0.814389 1.34928 0
M  V30 527 C 49.7073 0.244827 2.32213 0
M  V30 528 C 50.6883 -0.634024 1.57842 0
M  V30 529 O 51.8733 -0.562676 1.8587 0
M  V30 530 C 49.0033 -0.601106 3.42058 0
M  V30 531 C 47.9573 0.179896 4.27622 0
M  V30 532 C 47.2833 -0.788237 5.28858 0
M  V30 533 C 48.5833 1.38329 5.03649 0
M  V30 534 H 50.2773 1.05763 2.80097 0
M  V30 535 H 47.8233 0.510029 1.34665 0
M  V30 536 H 49.7763 -1.00968 4.09125 0
M  V30 537 H 48.5003 -1.44688 2.92802 0
M  V30 538 H 47.1593 0.569739 3.62146 0
M  V30 539 H 46.8073 -1.62973 4.75866 0
M  V30 540 H 46.5073 -0.269942 5.8698 0
M  V30 541 H 48.0313 -1.19485 5.98795 0
M  V30 542 H 49.4453 1.04918 5.63618 0
M  V30 543 H 47.8423 1.83662 5.71304 0
M  V30 544 H 48.9123 2.16592 4.33839 0
M  V30 545 N 50.2554 -1.46986 0.568584 0
M  V30 546 C 51.5024 -2.02441 0.0487986 0
M  V30 547 C 51.8304 -1.44169 -1.30559 0
M  V30 548 O 51.0854 -0.591213 -1.86556 0
M  V30 549 C 51.3844 -3.57306 -0.081836 0
M  V30 550 C 51.0504 -4.34552 1.20313 0
M  V30 551 C 49.7124 -4.55376 1.5552 0
M  V30 552 C 52.0644 -4.79016 2.05411 0
M  V30 553 C 49.3924 -5.17913 2.7565 0
M  V30 554 C 51.7444 -5.42879 3.24754 0
M  V30 555 C 50.4084 -5.61933 3.60261 0
M  V30 556 H 49.6784 -0.740785 0.0178567 0
M  V30 557 H 52.3254 -1.76525 0.742384 0
M  V30 558 H 50.6304 -3.8228 -0.858463 0
M  V30 559 H 52.3274 -3.97876 -0.499546 0
M  V30 560 H 48.9174 -4.18631 0.919014 0
M  V30 561 H 53.1014 -4.62696 1.79516 0
M  V30 562 H 48.3574 -5.30858 3.03315 0
M  V30 563 H 52.5314 -5.76293 3.90973 0
M  V30 564 H 50.1584 -6.10161 4.53439 0
M  V30 565 N 51.7335 -0.305618 -1.54608 0
M  V30 566 C 52.9815 0.301701 -1.99835 0
M  V30 567 C 53.3025 1.54054 -1.19551 0
M  V30 568 O 52.5725 1.93702 -0.292658 0
M  V30 569 H 51.1525 0.114468 -0.738178 0
M  V30 570 H 53.8145 -0.418016 -1.90364 0
M  V30 571 H 52.9105 0.570548 -3.06841 0
M  V30 572 N 53.2116 1.57565 -0.0334293 0
M  V30 573 C 54.4596 1.91598 0.642999 0
M  V30 574 C 54.7806 0.910847 1.7242 0
M  V30 575 O 54.0506 -0.0469931 1.95844 0
M  V30 576 H 52.6306 0.707228 0.240496 0
M  V30 577 H 55.2926 1.94726 -0.0822488 0
M  V30 578 H 54.3886 2.92336 1.09298 0
M  V30 579 N 54.6897 -0.239769 1.55765 0
M  V30 580 C 55.6367 -1.29696 1.90913 0
M  V30 581 C 56.6067 -1.47478 0.764164 0
M  V30 582 O 57.7917 -1.61345 1.01845 0
M  V30 583 C 54.9317 -2.64598 2.21544 0
M  V30 584 C 54.0447 -2.54765 3.48882 0
M  V30 585 C 53.1797 -3.82069 3.69049 0
M  V30 586 C 52.2187 -3.66883 4.89963 0
M  V30 587 N 51.3557 -4.86094 5.06614 0
M  V30 588 H 56.1957 -0.990224 2.81067 0
M  V30 589 H 53.7327 -0.477684 1.39128 0
M  V30 590 H 55.6907 -3.43132 2.3731 0
M  V30 591 H 54.3207 -2.93405 1.34585 0
M  V30 592 H 53.3727 -1.67763 3.41409 0
M  V30 593 H 54.6847 -2.39457 4.37563 0
M  V30 594 H 53.8387 -4.69046 3.84812 0
M  V30 595 H 52.5777 -4.00282 2.78614 0
M  V30 596 H 51.5827 -2.78289 4.74168 0
M  V30 597 H 52.8077 -3.50157 5.81865 0
M  V30 598 H 50.7537 -5.04655 4.19117 0
M  V30 599 H 50.6707 -4.73443 5.89396 0
M  V30 600 H 51.9387 -5.74549 5.26795 0
M  V30 601 N 56.1678 -1.49265 -0.50573 0
M  V30 602 C 57.4168 -1.57761 -1.25675 0
M  V30 603 C 57.7298 -0.267371 -1.93764 0
M  V30 604 O 58.9358 -0.230827 -2.70517 0
M  V30 605 C 57.3918 -2.78332 -2.28165 0
M  V30 606 C 56.9998 -4.16096 -1.66037 0
M  V30 607 C 58.7438 -2.96155 -3.04125 0
M  V30 608 C 56.6508 -5.27895 -2.6661 0
M  V30 609 H 55.5808 -0.587391 -0.472745 0
M  V30 610 H 58.2318 -1.75644 -0.53118 0
M  V30 611 H 56.6138 -2.53934 -3.03865 0
M  V30 612 H 57.7878 -4.50612 -0.963622 0
M  V30 613 H 56.1028 -4.03591 -1.02484 0
M  V30 614 H 58.6998 -3.76849 -3.79327 0
M  V30 615 H 59.0428 -2.06534 -3.61455 0
M  V30 616 H 59.5758 -3.2057 -2.35541 0
M  V30 617 H 56.3148 -6.1956 -2.14068 0
M  V30 618 H 55.8348 -4.97839 -3.34539 0
M  V30 619 H 57.5138 -5.57031 -3.29129 0
M  V30 620 N 57.6459 0.756429 -1.3826 0
M  V30 621 C 58.5759 1.88374 -1.37976 0
M  V30 622 C 59.5569 1.68311 -0.246082 0
M  V30 623 O 60.7419 1.88944 -0.44874 0
M  V30 624 C 57.8719 3.25864 -1.20125 0
M  V30 625 C 56.8259 3.60523 -2.30666 0
M  V30 626 C 56.1519 4.9672 -1.97923 0
M  V30 627 C 57.4519 3.65692 -3.72916 0
M  V30 628 H 59.1459 1.88869 -2.32312 0
M  V30 629 H 56.6919 0.907272 -1.11824 0
M  V30 630 H 58.6449 4.0438 -1.18552 0
M  V30 631 H 57.3689 3.25841 -0.222498 0
M  V30 632 H 56.0279 2.84324 -2.3142 0
M  V30 633 H 55.6759 4.93253 -0.985393 0
M  V30 634 H 55.3759 5.20878 -2.71955 0
M  V30 635 H 56.8999 5.77618 -1.97964 0
M  V30 636 H 58.3139 4.34328 -3.74208 0
M  V30 637 H 56.7109 4.01358 -4.4613 0
M  V30 638 H 57.7809 2.65987 -4.05436 0
M  V30 639 N 59.124 1.23083 0.984299 0
M  V30 640 C 60.349 1.088 1.76571 0
M  V30 641 C 60.774 -0.356657 1.84688 0
M  V30 642 O 60.132 -1.25788 1.30565 0
M  V30 643 C 60.18 1.71371 3.17277 0
M  V30 644 O 59.284 0.973213 4.00752 0
M  V30 645 H 58.625 0.381599 0.543395 0
M  V30 646 H 61.155 1.63057 1.23587 0
M  V30 647 H 61.165 1.76449 3.67872 0
M  V30 648 H 59.84 2.76493 3.10684 0
M  V30 649 H 58.417 0.999078 3.59267 0
M  V30 650 N 60.6021 -1.18246 1.0419 0
M  V30 651 C 61.5121 -2.25574 0.644476 0
M  V30 652 C 62.5281 -1.70845 -0.329826 0
M  V30 653 O 63.7041 -2.00554 -0.184443 0
M  V30 654 C 60.7691 -3.46697 0.014877 0
M  V30 655 C 59.8301 -4.16554 1.03834 0
M  V30 656 C 59.0631 -5.31894 0.438692 0
M  V30 657 O 59.2861 -5.65385 -0.754752 0
M  V30 658 O 58.2201 -5.90459 1.168 0
M  V30 659 H 62.0461 -2.61836 1.53869 0
M  V30 660 H 59.6311 -1.25352 0.812854 0
M  V30 661 H 61.5131 -4.20062 -0.335538 0
M  V30 662 H 60.1881 -3.12255 -0.853138 0
M  V30 663 H 59.0951 -3.45251 1.44057 0
M  V30 664 H 60.4281 -4.54998 1.87716 0
M  V30 665 N 62.0802 -0.821533 -1.34494 0
M  V30 666 C 63.0132 -0.187704 -2.27427 0
M  V30 667 C 63.9912 0.65507 -1.48821 0
M  V30 668 O 65.1752 0.619111 -1.78043 0
M  V30 669 C 62.3022 0.737996 -3.30562 0
M  V30 670 C 61.3482 -0.0270713 -4.26491 0
M  V30 671 S 62.1812 -1.37329 -5.17592 0
M  V30 672 C 63.3372 -0.452427 -6.24263 0
M  V30 673 H 63.5702 -0.975598 -2.80837 0
M  V30 674 H 61.1032 -0.61736 -1.4152 0
M  V30 675 H 63.0612 1.26654 -3.90473 0
M  V30 676 H 61.7222 1.4994 -2.76001 0
M  V30 677 H 60.9152 0.6766 -4.99438 0
M  V30 678 H 60.5172 -0.48612 -3.70827 0
M  V30 679 H 62.8092 0.356557 -6.76561 0
M  V30 680 H 63.7522 -1.15153 -6.98674 0
M  V30 681 H 64.1602 -0.0414755 -5.64485 0
M  V30 682 N 63.5583 1.46682 -0.576371 0
M  V30 683 C 64.8353 1.95599 0.00703437 0
M  V30 684 C 65.2153 1.51904 1.46589 0
M  V30 685 O 64.5633 0.766755 2.15251 0
M  V30 686 C 64.7733 3.4864 -0.158404 0
M  V30 687 C 66.1213 4.24594 -0.0229439 0
M  V30 688 O 67.1453 3.56094 -0.0869173 0
M  V30 689 O 66.0043 5.46373 0.118015 0
M  V30 690 H 63.0983 0.825275 0.053384 0
M  V30 691 H 65.6443 1.56996 -0.644244 0
M  V30 692 H 64.4163 3.7331 -1.17282 0
M  V30 693 H 64.0393 3.94057 0.5296 0
M  V30 694 N 65.0364 0.313813 1.54444 0
M  V30 695 C 65.9694 -0.598866 2.20202 0
M  V30 696 C 66.9474 -1.12318 1.17573 0
M  V30 697 O 68.1314 -1.18899 1.46271 0
M  V30 698 C 65.2584 -1.82071 2.85601 0
M  V30 699 C 64.3044 -1.42851 4.01865 0
M  V30 700 S 65.1374 -0.473512 5.33402 0
M  V30 701 C 66.2934 -1.70286 6.0229 0
M  V30 702 H 66.5264 -0.0402532 2.97273 0
M  V30 703 H 64.0594 0.0979165 1.54089 0
M  V30 704 H 66.0174 -2.52184 3.23904 0
M  V30 705 H 64.6784 -2.3505 2.08351 0
M  V30 706 H 63.8714 -2.33871 4.46453 0
M  V30 707 H 63.4734 -0.807198 3.65185 0
M  V30 708 H 65.7654 -2.64168 6.23876 0
M  V30 709 H 66.7084 -1.29932 6.96077 0
M  V30 710 H 67.1164 -1.88541 5.32083 0
M  V30 711 N 66.5145 -1.57545 0.0417849 0
M  V30 712 C 67.7605 -1.92601 -0.635021 0
M  V30 713 C 68.0935 -0.919627 -1.71045 0
M  V30 714 O 67.3685 0.0557892 -1.9442 0
M  V30 715 C 67.6515 -3.38085 -1.23979 0
M  V30 716 C 67.5045 -4.49467 -0.173057 0
M  V30 717 C 68.8235 -3.83776 -2.15416 0
M  V30 718 H 65.9425 -0.700397 -0.229374 0
M  V30 719 H 68.5845 -1.89728 0.101633 0
M  V30 720 H 66.7345 -3.40664 -1.86762 0
M  V30 721 H 68.4065 -4.59018 0.458312 0
M  V30 722 H 66.6495 -4.30909 0.499996 0
M  V30 723 H 67.3205 -5.48323 -0.636054 0
M  V30 724 H 69.7965 -3.83013 -1.62605 0
M  V30 725 H 68.6725 -4.8624 -2.54679 0
M  V30 726 H 68.9335 -3.19998 -3.05047 0
M  V30 727 N 67.9926 0.231505 -1.5589 0
M  V30 728 C 68.9556 1.27028 -1.90779 0
M  V30 729 C 69.9556 1.40308 -0.785507 0
M  V30 730 O 71.1456 1.38744 -1.05336 0
M  V30 731 C 68.2776 2.64566 -2.14983 0
M  V30 732 H 69.4706 0.973017 -2.83677 0
M  V30 733 H 67.0236 0.471486 -1.49019 0
M  V30 734 H 67.7586 2.99406 -1.24604 0
M  V30 735 H 67.5436 2.56305 -2.96732 0
M  V30 736 H 69.0336 3.39543 -2.43105 0
M  V30 737 N 69.4707 1.49531 0.497807 0
M  V30 738 C 70.6957 1.63159 1.28039 0
M  V30 739 C 71.1207 0.30418 1.85624 0
M  V30 740 O 70.4787 -0.728618 1.66015 0
M  V30 741 C 70.5267 2.70537 2.38416 0
M  V30 742 O 69.6307 2.29931 3.42353 0
M  V30 743 H 68.9717 0.546001 0.377861 0
M  V30 744 H 71.5017 1.9574 0.59558 0
M  V30 745 H 71.5117 2.92802 2.84132 0
M  V30 746 H 70.1867 3.6689 1.95869 0
M  V30 747 H 68.7637 2.18009 3.02533 0
M  V30 748 N 70.9488 -0.749086 1.3866 0
M  V30 749 C 72.1978 -1.50371 1.3443 0
M  V30 750 C 72.5108 -1.95503 -0.0616397 0
M  V30 751 O 73.7168 -2.70554 -0.226489 0
M  V30 752 C 72.1728 -2.71644 2.36088 0
M  V30 753 C 71.7808 -2.3352 3.82325 0
M  V30 754 C 73.5248 -3.49518 2.40909 0
M  V30 755 C 71.4318 -3.51431 4.75658 0
M  V30 756 H 70.3618 -0.564628 0.499712 0
M  V30 757 H 73.0128 -0.818449 1.64237 0
M  V30 758 H 71.3948 -3.42175 1.9933 0
M  V30 759 H 72.5688 -1.70627 4.28046 0
M  V30 760 H 70.8838 -1.6877 3.80665 0
M  V30 761 H 73.4808 -4.37197 3.07836 0
M  V30 762 H 73.8238 -3.90992 1.42937 0
M  V30 763 H 74.3568 -2.86005 2.76489 0
M  V30 764 H 71.0958 -3.15019 5.74842 0
M  V30 765 H 70.6158 -4.13352 4.34627 0
M  V30 766 H 72.2948 -4.17953 4.93887 0
M  V30 767 N 72.4269 -1.23603 -0.977757 0
M  V30 768 C 73.6519 -1.09735 -1.75991 0
M  V30 769 C 74.0769 0.346858 -1.84874 0
M  V30 770 O 73.4349 1.25093 -1.3123 0
M  V30 771 C 73.4829 -1.73051 -3.16363 0
M  V30 772 O 72.5869 -0.994452 -4.0023 0
M  V30 773 H 71.9279 -0.384476 -0.541364 0
M  V30 774 H 74.4579 -1.6371 -1.2272 0
M  V30 775 H 74.4679 -1.78398 -3.66931 0
M  V30 776 H 73.1429 -2.78137 -3.09213 0
M  V30 777 H 71.7199 -1.01812 -3.58732 0
M  V30 778 N 73.905 1.17692 -1.04816 0
M  V30 779 C 74.868 2.19787 -0.650117 0
M  V30 780 C 75.868 1.58044 0.296427 0
M  V30 781 O 77.058 1.74012 0.0808097 0
M  V30 782 C 74.19 3.40869 0.0456987 0
M  V30 783 H 75.383 2.56516 -1.5537 0
M  V30 784 H 72.936 1.31708 -0.841594 0
M  V30 785 H 73.671 3.09681 0.962726 0
M  V30 786 H 73.456 3.86928 -0.634727 0
M  V30 787 H 74.946 4.16445 0.310432 0
M  V30 788 N 75.3831 0.828654 1.34056 0
M  V30 789 C 76.6081 0.431637 2.02859 0
M  V30 790 C 77.0331 -0.956339 1.61975 0
M  V30 791 O 76.3911 -1.62338 0.807228 0
M  V30 792 C 76.4391 0.548323 3.56407 0
M  V30 793 O 75.5431 -0.429556 4.10157 0
M  V30 794 H 74.8841 0.176886 0.640006 0
M  V30 795 H 77.4141 1.12066 1.71179 0
M  V30 796 H 77.4241 0.426196 4.05768 0
M  V30 797 H 76.0991 1.5606 3.8551 0
M  V30 798 H 74.6761 -0.265836 3.71951 0
M  V30 799 N 76.8612 -1.46375 0.584142 0
M  V30 800 C 78.2772 -1.57694 0.245929 0
M  V30 801 C 78.4772 -1.57903 -1.25175 0
M  V30 802 O 77.5332 -1.49676 -2.03355 0
M  V30 803 C 78.8462 -2.87028 0.896402 0
M  V30 804 C 80.3942 -3.00662 0.870127 0
M  V30 805 C 80.8692 -4.32734 1.50017 0
M  V30 806 N 82.3602 -4.39436 1.46458 0
M  V30 807 C 83.0952 -5.40248 1.92144 0
M  V30 808 N 82.5912 -6.47726 2.4581 0
M  V30 809 N 84.3842 -5.31459 1.83052 0
M  V30 810 H 76.5352 -1.44483 1.55687 0
M  V30 811 H 78.7982 -0.689291 0.650831 0
M  V30 812 H 78.5042 -2.9269 1.95002 0
M  V30 813 H 78.3782 -3.75014 0.405486 0
M  V30 814 H 80.7652 -2.94581 -0.174871 0
M  V30 815 H 80.8462 -2.14148 1.39908 0
M  V30 816 H 80.4902 -4.39573 2.54437 0
M  V30 817 H 80.4202 -5.18025 0.946432 0
M  V30 818 H 82.9112 -3.62367 1.07231 0
M  V30 819 H 83.2242 -7.20863 2.78525 0
M  V30 820 H 81.5692 -6.48542 2.49836 0
M  V30 821 H 84.7602 -4.46396 1.40883 0
M  V30 822 H 84.9332 -6.09881 2.18973 0
M  V30 823 N 78.3393 -0.321999 -1.54275 0
M  V30 824 C 79.2893 0.560185 -2.21011 0
M  V30 825 C 80.2733 1.08283 -1.19011 0
M  V30 826 O 81.4653 1.02011 -1.44647 0
M  V30 827 C 78.5943 1.72137 -2.97025 0
M  V30 828 C 77.6803 1.21369 -4.06363 0
M  V30 829 N 78.0713 0.425566 -5.04007 0
M  V30 830 C 76.3693 1.49255 -4.20284 0
M  V30 831 C 77.0703 0.152601 -5.815 0
M  V30 832 N 76.0463 0.738294 -5.38563 0
M  V30 833 H 79.8483 -0.049265 -2.93859 0
M  V30 834 H 77.3623 -0.127779 -1.61897 0
M  V30 835 H 79.3593 2.36512 -3.43319 0
M  V30 836 H 78.0193 2.33431 -2.25699 0
M  V30 837 H 79.0303 0.068551 -5.17855 0
M  V30 838 H 75.7073 2.11145 -3.60172 0
M  V30 839 H 77.0973 -0.481764 -6.70171 0
M  V30 840 N 79.8174 1.5752 -0.0501392 0
M  V30 841 C 81.0424 1.97376 0.636997 0
M  V30 842 C 81.4674 0.927466 1.63645 0
M  V30 843 O 80.8254 -0.10941 1.8097 0
M  V30 844 C 80.8734 3.36304 1.30123 0
M  V30 845 O 79.9774 3.34156 2.41689 0
M  V30 846 H 79.3184 0.642998 0.165679 0
M  V30 847 H 81.8484 2.04258 -0.118233 0
M  V30 848 H 81.8584 3.73008 1.65315 0
M  V30 849 H 80.5334 4.11993 0.568746 0
M  V30 850 H 79.1104 3.09196 2.08451 0
M  V30 851 N 81.2955 -0.223234 1.56011 0
M  V30 852 C 82.7115 -0.572856 1.48965 0
M  V30 853 C 82.9115 -1.87225 0.74492 0
M  V30 854 O 81.9675 -2.50899 0.283896 0
M  V30 855 C 83.2805 -0.653646 2.9351 0
M  V30 856 C 84.8285 -0.744386 3.0402 0
M  V30 857 C 85.3035 -0.856535 4.49919 0
M  V30 858 N 86.7945 -0.9208 4.53955 0
M  V30 859 C 87.5295 -1.02726 5.64123 0
M  V30 860 N 87.0255 -1.09777 6.84047 0
M  V30 861 N 88.8185 -1.06226 5.51971 0
M  V30 862 H 80.9695 0.629462 2.02858 0
M  V30 863 H 83.2325 0.220621 0.921971 0
M  V30 864 H 82.9385 0.231518 3.50937 0
M  V30 865 H 82.8125 -1.51781 3.45315 0
M  V30 866 H 85.1995 -1.61999 2.46658 0
M  V30 867 H 85.2805 0.14541 2.55386 0
M  V30 868 H 84.9245 0.0146069 5.07898 0
M  V30 869 H 84.8545 -1.76172 4.96257 0
M  V30 870 H 87.3455 -0.876694 3.6759 0
M  V30 871 H 87.6585 -1.17872 7.63758 0
M  V30 872 H 86.0035 -1.06693 6.86762 0
M  V30 873 H 89.1945 -1.00382 4.5721 0
M  V30 874 H 89.3675 -1.14177 6.37862 0
M  V30 875 N 82.7736 -1.49793 -0.48987 0
M  V30 876 C 83.7206 -1.67281 -1.59014 0
M  V30 877 C 84.6906 -0.514177 -1.57941 0
M  V30 878 O 85.8756 -0.742533 -1.75759 0
M  V30 879 C 83.0156 -1.75569 -2.97102 0
M  V30 880 C 82.1286 -3.0281 -3.08107 0
M  V30 881 C 81.2636 -3.02008 -4.36995 0
M  V30 882 C 80.3026 -4.23782 -4.41673 0
M  V30 883 N 79.4396 -4.20826 -5.62005 0
M  V30 884 H 84.2796 -2.61224 -1.43409 0
M  V30 885 H 81.8166 -1.29508 -0.697565 0
M  V30 886 H 83.7746 -1.78354 -3.77155 0
M  V30 887 H 82.4046 -0.850827 -3.11385 0
M  V30 888 H 81.4566 -3.09584 -2.21047 0
M  V30 889 H 82.7686 -3.92801 -3.07423 0
M  V30 890 H 81.9226 -3.03418 -5.25378 0
M  V30 891 H 80.6616 -2.09815 -4.4026 0
M  V30 892 H 79.6666 -4.22604 -3.5169 0
M  V30 893 H 80.8916 -5.17181 -4.40115 0
M  V30 894 H 78.8376 -3.31476 -5.66091 0
M  V30 895 H 78.7546 -5.04564 -5.62984 0
M  V30 896 H 80.0226 -4.26355 -6.52565 0
M  V30 897 N 84.2517 0.741722 -1.39055 0
M  V30 898 C 85.1617 1.88621 -1.39496 0
M  V30 899 C 86.1777 1.71557 -0.290578 0
M  V30 900 O 87.3537 1.94275 -0.530954 0
M  V30 901 C 84.4187 3.24134 -1.23037 0
M  V30 902 C 83.4797 3.5364 -2.43387 0
M  V30 903 C 82.7127 4.82687 -2.27703 0
M  V30 904 O 82.9357 5.55922 -1.27696 0
M  V30 905 O 81.8697 5.1194 -3.16545 0
M  V30 906 H 85.6957 1.91203 -2.35956 0
M  V30 907 H 83.2807 0.888625 -1.20099 0
M  V30 908 H 85.1627 4.0513 -1.15964 0
M  V30 909 H 83.8377 3.22337 -0.296691 0
M  V30 910 H 82.7447 2.72758 -2.56035 0
M  V30 911 H 84.0777 3.60209 -3.35425 0
M  V30 912 N 85.7298 1.2412 0.971189 0
M  V30 913 C 86.9698 1.09066 1.7287 0
M  V30 914 C 87.3338 -0.364794 1.88503 0
M  V30 915 O 88.5348 -0.636748 2.61149 0
M  V30 916 C 86.8058 1.80629 3.08396 0
M  V30 917 S 88.3648 1.81263 3.99611 0
M  V30 918 H 85.1828 0.390145 0.594397 0
M  V30 919 H 87.7848 1.57397 1.15959 0
M  V30 920 H 86.4888 2.85647 2.94676 0
M  V30 921 H 86.0198 1.32617 3.70373 0
M  V30 922 H 88.0348 0.877804 4.88374 0
M  V30 923 N 87.2079 -1.17134 1.05439 0
M  V30 924 C 88.4539 -1.87733 0.767077 0
M  V30 925 C 88.7869 -1.8098 -0.704253 0
M  V30 926 O 88.0619 -1.21951 -1.5152 0
M  V30 927 C 88.3449 -3.37659 1.25133 0
M  V30 928 C 88.1979 -3.53149 2.78578 0
M  V30 929 C 89.5169 -4.31768 0.852324 0
M  V30 930 H 86.6359 -0.681687 0.280129 0
M  V30 931 H 89.2779 -1.37732 1.30881 0
M  V30 932 H 87.4279 -3.80373 0.790469 0
M  V30 933 H 89.0999 -3.19434 3.32806 0
M  V30 934 H 87.3429 -2.95345 3.17732 0
M  V30 935 H 88.0139 -4.58403 3.07523 0
M  V30 936 H 90.4899 -3.96909 1.24911 0
M  V30 937 H 89.3659 -5.35199 1.21873 0
M  V30 938 H 89.6269 -4.41429 -0.243485 0
M  V30 939 N 88.686 -0.835752 -1.33615 0
M  V30 940 C 89.914 -0.443344 -2.02094 0
M  V30 941 C 90.329 0.954522 -1.62894 0
M  V30 942 O 89.686 1.61982 -0.840723 0
M  V30 943 C 89.737 -0.550775 -3.5728 0
M  V30 944 O 89.458 -1.89356 -3.95065 0
M  V30 945 C 90.959 -0.154919 -4.43029 0
M  V30 946 H 88.179 -0.176359 -0.647409 0
M  V30 947 H 90.723 -1.12746 -1.70612 0
M  V30 948 H 88.878 0.0853997 -3.87306 0
M  V30 949 H 89.292 -1.87687 -4.89769 0
M  V30 950 H 90.766 -0.281144 -5.51284 0
M  V30 951 H 91.243 0.902863 -4.2982 0
M  V30 952 H 91.849 -0.765404 -4.18356 0
M  V30 953 N 90.1641 1.46063 -0.591896 0
M  V30 954 C 91.1271 2.28854 0.125973 0
M  V30 955 C 92.1271 1.38903 0.810107 0
M  V30 956 O 93.3171 1.61186 0.66066 0
M  V30 957 C 90.4491 3.19526 1.1881 0
M  V30 958 H 91.6421 2.93802 -0.601717 0
M  V30 959 H 89.1951 1.52325 -0.350254 0
M  V30 960 H 89.9301 2.59345 1.94707 0
M  V30 961 H 89.7151 3.85766 0.701936 0
M  V30 962 H 91.2051 3.81817 1.69132 0
M  V30 963 N 91.6422 0.330177 1.54103 0
M  V30 964 C 92.8672 -0.274893 2.0557 0
M  V30 965 C 93.2922 -1.44487 1.20437 0
M  V30 966 O 92.6502 -1.80021 0.214991 0
M  V30 967 C 92.6982 -0.68079 3.54115 0
M  V30 968 O 91.8022 -1.7824 3.71893 0
M  V30 969 H 91.1432 -0.0483849 0.662235 0
M  V30 970 H 93.6732 0.480508 1.98878 0
M  V30 971 H 93.6832 -0.961635 3.96505 0
M  V30 972 H 92.3582 0.174903 4.15532 0
M  V30 973 H 90.9352 -1.49985 3.41407 0
M  V30 974 N 93.1203 -1.57491 0.0584922 0
M  V30 975 C 94.0533 -2.07533 -0.948969 0
M  V30 976 C 95.0313 -0.977444 -1.29942 0
M  V30 977 O 96.2153 -1.2499 -1.41102 0
M  V30 978 C 93.3423 -2.52192 -2.2609 0
M  V30 979 C 92.3883 -3.73287 -2.06298 0
M  V30 980 S 93.2213 -5.18603 -1.33459 0
M  V30 981 C 94.3773 -5.66583 -2.65959 0
M  V30 982 H 94.6103 -2.92662 -0.523118 0
M  V30 983 H 92.1433 -1.53631 -0.153954 0
M  V30 984 H 94.1013 -2.78585 -3.01498 0
M  V30 985 H 92.7623 -1.67356 -2.65802 0
M  V30 986 H 91.9553 -4.0248 -3.03357 0
M  V30 987 H 91.5573 -3.47199 -1.39029 0
M  V30 988 H 93.8493 -5.72616 -3.62101 0
M  V30 989 H 94.7923 -6.65684 -2.41393 0
M  V30 990 H 95.2003 -4.94342 -2.72554 0
M  V30 991 N 94.5984 0.214957 -1.56127 0
M  V30 992 C 95.8754 0.963093 -1.70247 0
M  V30 993 C 96.2554 2.02166 -0.60764 0
M  V30 994 O 95.6034 2.25244 0.384385 0
M  V30 995 C 95.8134 1.56756 -3.11815 0
M  V30 996 C 97.1614 2.0573 -3.7143 0
M  V30 997 O 98.1854 1.66637 -3.14818 0
M  V30 998 O 97.0444 2.77603 -4.70743 0
M  V30 999 H 94.1384 0.450321 -0.693643 0
M  V30 1000 H 96.6844 0.206219 -1.68442 0
M  V30 1001 H 95.4564 0.803533 -3.82961 0
M  V30 1002 H 95.0794 2.3898 -3.17765 0
M  V30 1003 N 96.0765 1.50051 0.48192 0
M  V30 1004 C 97.3225 1.61706 1.2338 0
M  V30 1005 C 97.6775 0.308488 1.89911 0
M  V30 1006 O 96.9705 -0.692798 1.78636 0
M  V30 1007 C 97.1645 2.72717 2.30998 0
M  V30 1008 C 96.9935 4.14242 1.75024 0
M  V30 1009 C 95.7635 4.80786 1.55476 0
M  V30 1010 C 97.9615 4.98846 1.25128 0
M  V30 1011 N 95.9435 6.06563 0.946311 0
M  V30 1012 C 97.3145 6.15258 0.765382 0
M  V30 1013 C 99.3695 4.84702 1.13881 0
M  V30 1014 C 98.0725 7.19079 0.178113 0
M  V30 1015 C 100.098 5.8869 0.565486 0
M  V30 1016 C 99.4605 7.04343 0.0899105 0
M  V30 1017 H 95.5595 0.645958 0.440753 0
M  V30 1018 H 98.1435 1.8713 0.537624 0
M  V30 1019 H 96.3145 2.49033 2.98055 0
M  V30 1020 H 98.0465 2.73789 2.9803 0
M  V30 1021 H 94.8015 4.37899 1.80392 0
M  V30 1022 H 95.2255 6.73767 0.660812 0
M  V30 1023 H 99.8675 3.95583 1.49244 0
M  V30 1024 H 97.5855 8.07882 -0.187749 0
M  V30 1025 H 101.171 5.79808 0.480974 0
M  V30 1026 H 100.051 7.83433 -0.346782 0
M  V30 1027 N 97.5546 -0.734337 1.39446 0
M  V30 1028 C 98.8006 -1.49613 1.36908 0
M  V30 1029 C 99.1336 -1.94169 -0.0347829 0
M  V30 1030 O 98.4086 -1.66833 -0.999847 0
M  V30 1031 C 98.6916 -2.73534 2.34203 0
M  V30 1032 C 98.5446 -2.34993 3.83534 0
M  V30 1033 C 99.8636 -3.75635 2.29317 0
M  V30 1034 H 96.9826 -0.542714 0.498629 0
M  V30 1035 H 99.6246 -0.839597 1.70443 0
M  V30 1036 H 97.7746 -3.29553 2.05736 0
M  V30 1037 H 99.4466 -1.84601 4.22753 0
M  V30 1038 H 97.6896 -1.67213 4.00278 0
M  V30 1039 H 98.3606 -3.23738 4.47099 0
M  V30 1040 H 100.837 -3.29203 2.54489 0
M  V30 1041 H 99.7126 -4.60008 2.99472 0
M  V30 1042 H 99.9736 -4.22603 1.29842 0
M  V30 1043 N 99.0327 -1.24633 -0.964593 0
M  V30 1044 C 100.31 -0.995809 -1.68354 0
M  V30 1045 C 100.69 0.480964 -2.05548 0
M  V30 1046 O 100.038 1.45599 -1.76105 0
M  V30 1047 C 100.248 -1.92177 -2.91323 0
M  V30 1048 C 101.596 -2.19446 -3.63495 0
M  V30 1049 O 102.62 -1.89855 -3.01386 0
M  V30 1050 O 101.479 -2.69714 -4.75307 0
M  V30 1051 H 98.5727 -0.376854 -0.736146 0
M  V30 1052 H 101.119 -1.35745 -1.0184 0
M  V30 1053 H 99.8907 -2.91938 -2.60553 0
M  V30 1054 H 99.5137 -1.56349 -3.65569 0
M  V30 1055 N 100.511 1.16574 -1.06058 0
M  V30 1056 C 101.758 1.87047 -0.775873 0
M  V30 1057 C 102.086 1.81562 0.697534 0
M  V30 1058 O 101.341 1.22445 1.52662 0
M  V30 1059 C 101.64 3.36195 -1.21275 0
M  V30 1060 C 101.306 3.6188 -2.68986 0
M  V30 1061 C 99.9678 3.68599 -3.09335 0
M  V30 1062 C 102.32 3.72648 -3.64394 0
M  V30 1063 C 99.6478 3.83584 -4.43937 0
M  V30 1064 C 102 3.89154 -4.98741 0
M  V30 1065 C 100.664 3.94114 -5.3873 0
M  V30 1066 H 99.9338 0.684452 -0.283912 0
M  V30 1067 H 102.581 1.37853 -1.32925 0
M  V30 1068 H 100.886 3.87505 -0.578528 0
M  V30 1069 H 102.583 3.89103 -0.969542 0
M  V30 1070 H 99.1728 3.57281 -2.36744 0
M  V30 1071 H 103.357 3.66769 -3.34356 0
M  V30 1072 H 98.6128 3.85677 -4.74409 0
M  V30 1073 H 102.787 3.96427 -5.72554 0
M  V30 1074 H 100.414 4.05478 -6.43033 0
M  V30 1075 N 101.989 0.842826 1.3317 0
M  V30 1076 C 102.919 0.294028 2.31641 0
M  V30 1077 C 103.9 -0.600401 1.59151 0
M  V30 1078 O 105.085 -0.523124 1.87022 0
M  V30 1079 C 102.215 -0.528416 3.43257 0
M  V30 1080 C 101.169 0.27056 4.27144 0
M  V30 1081 C 100.495 -0.675881 5.30411 0
M  V30 1082 C 101.795 1.48981 5.00602 0
M  V30 1083 H 103.489 1.11681 2.77791 0
M  V30 1084 H 101.035 0.538478 1.33553 0
M  V30 1085 H 102.988 -0.922674 4.11175 0
M  V30 1086 H 101.712 -1.38445 2.95805 0
M  V30 1087 H 100.371 0.646427 3.60856 0
M  V30 1088 H 100.019 -1.52842 4.79216 0
M  V30 1089 H 99.7189 -0.145374 5.8742 0
M  V30 1090 H 101.243 -1.06757 6.01195 0
M  V30 1091 H 102.657 1.16849 5.61266 0
M  V30 1092 H 101.054 1.95739 5.6728 0
M  V30 1093 H 102.124 2.25746 4.29147 0
M  V30 1094 N 103.467 -1.45747 0.599634 0
M  V30 1095 C 104.417 -2.27538 -0.145107 0
M  V30 1096 C 105.401 -1.3686 -0.846055 0
M  V30 1097 O 106.593 -1.6091 -0.737357 0
M  V30 1098 C 103.722 -3.23569 -1.14708 0
M  V30 1099 C 102.808 -4.21734 -0.447383 0
M  V30 1100 N 103.199 -5.03257 0.506535 0
M  V30 1101 C 101.497 -4.40536 -0.695966 0
M  V30 1102 C 102.198 -5.74426 0.917068 0
M  V30 1103 N 101.174 -5.42966 0.26253 0
M  V30 1104 H 104.976 -2.87965 0.587672 0
M  V30 1105 H 102.49 -1.56803 0.422697 0
M  V30 1106 H 104.487 -3.8089 -1.69495 0
M  V30 1107 H 103.147 -2.64702 -1.8805 0
M  V30 1108 H 104.158 -5.10319 0.882899 0
M  V30 1109 H 100.835 -3.92802 -1.41467 0
M  V30 1110 H 102.225 -6.4995 1.70338 0
M  V30 1111 N 104.945 -0.338344 -1.53925 0
M  V30 1112 C 106.356 0.146651 -1.86123 0
M  V30 1113 C 106.707 1.5042 -1.2597 0
M  V30 1114 O 105.832 2.08723 -0.571294 0
M  V30 1115 C 106.427 0.272879 -3.37699 0
M  V30 1116 C 104.986 0.702103 -3.69794 0
M  V30 1117 C 104.133 -0.167304 -2.76795 0
M  V30 1118 H 107.084 -0.558123 -1.48562 0
M  V30 1119 H 107.105 1.10128 -3.64214 0
M  V30 1120 H 106.617 -0.715307 -3.81451 0
M  V30 1121 H 104.718 1.6995 -3.31584 0
M  V30 1122 H 104.831 0.495604 -4.7653 0
M  V30 1123 H 103.195 0.359527 -2.5215 0
M  V30 1124 H 103.978 -1.15253 -3.23375 0
M  V30 1125 N 106.423 1.57458 -0.0668435 0
M  V30 1126 C 107.669 1.93587 0.6043 0
M  V30 1127 C 108.002 0.946722 1.69561 0
M  V30 1128 O 107.277 -0.0248516 1.94484 0
M  V30 1129 C 107.56 3.40014 1.18585 0
M  V30 1130 C 107.413 4.49685 0.101529 0
M  V30 1131 C 108.732 3.87154 2.09284 0
M  V30 1132 H 105.851 0.703958 0.218202 0
M  V30 1133 H 108.493 1.89542 -0.131804 0
M  V30 1134 H 106.643 3.43592 1.81319 0
M  V30 1135 H 108.315 4.5823 -0.531279 0
M  V30 1136 H 106.558 4.30059 -0.568487 0
M  V30 1137 H 107.229 5.49266 0.54874 0
M  V30 1138 H 109.705 3.85551 1.56491 0
M  V30 1139 H 108.581 4.90231 2.46911 0
M  V30 1140 H 108.842 3.2481 2.99918 0
M  V30 1141 N 107.901 -0.206675 1.56239 0
M  V30 1142 C 109.317 -0.557025 1.49564 0
M  V30 1143 C 109.517 -1.86424 0.764735 0
M  V30 1144 O 108.573 -2.50584 0.310491 0
M  V30 1145 C 109.886 -0.622478 2.94186 0
M  V30 1146 C 111.434 -0.712099 3.04792 0
M  V30 1147 C 111.909 -0.808767 4.50803 0
M  V30 1148 N 113.4 -0.8726 4.54907 0
M  V30 1149 C 114.135 -0.967365 5.65181 0
M  V30 1150 N 113.631 -1.02515 6.85173 0
M  V30 1151 N 115.424 -1.00366 5.53067 0
M  V30 1152 H 107.575 0.650943 2.02179 0
M  V30 1153 H 109.838 0.230387 0.919579 0
M  V30 1154 H 109.544 0.268727 3.50672 0
M  V30 1155 H 109.418 -1.4811 3.46905 0
M  V30 1156 H 111.805 -1.59374 2.48363 0
M  V30 1157 H 111.886 0.172489 2.55218 0
M  V30 1158 H 111.53 0.0684754 5.07854 0
M  V30 1159 H 111.46 -1.70899 4.98098 0
M  V30 1160 H 113.951 -0.837657 3.68499 0
M  V30 1161 H 114.264 -1.09765 7.64965 0
M  V30 1162 H 112.609 -0.994026 6.87855 0
M  V30 1163 H 115.8 -0.95527 4.58249 0
M  V30 1164 H 115.973 -1.07405 6.39037 0
M  V30 1165 N 109.379 -1.50304 -0.473955 0
M  V30 1166 C 110.604 -1.65175 -1.25427 0
M  V30 1167 C 111.029 -0.333673 -1.85117 0
M  V30 1168 O 110.387 0.702114 -1.67153 0
M  V30 1169 C 110.435 -2.74295 -2.34082 0
M  V30 1170 O 109.539 -2.35349 -3.38651 0
M  V30 1171 H 108.88 -0.551944 -0.369126 0
M  V30 1172 H 111.41 -1.96662 -0.564364 0
M  V30 1173 H 111.42 -2.97285 -2.79438 0
M  V30 1174 H 110.095 -3.69959 -1.90008 0
M  V30 1175 H 108.672 -2.22794 -2.99027 0
M  V30 1176 N 110.857 0.726932 -1.39834 0
M  V30 1177 C 112.082 1.52121 -1.40976 0
M  V30 1178 C 112.507 1.88098 -0.00826029 0
M  V30 1179 O 111.865 1.52479 0.980807 0
M  V30 1180 C 111.913 2.78021 -2.29644 0
M  V30 1181 O 111.017 3.74272 -1.73188 0
M  V30 1182 H 110.358 0.45908 -0.479731 0
M  V30 1183 H 112.888 0.896207 -1.83927 0
M  V30 1184 H 112.898 3.26671 -2.44438 0
M  V30 1185 H 111.573 2.51169 -3.31492 0
M  V30 1186 H 110.15 3.33073 -1.6768 0
M  V30 1187 N 112.336 1.25143 0.95797 0
M  V30 1188 C 113.613 1.00472 1.67823 0
M  V30 1189 C 113.993 -0.470056 2.058 0
M  V30 1190 O 113.341 -1.44663 1.76875 0
M  V30 1191 C 113.551 1.9372 2.90299 0
M  V30 1192 C 114.899 2.21371 3.62326 0
M  V30 1193 O 115.923 1.91451 3.00375 0
M  V30 1194 O 114.782 2.72231 4.7387 0
M  V30 1195 H 111.876 0.380752 0.734137 0
M  V30 1196 H 114.422 1.36283 1.01119 0
M  V30 1197 H 113.194 2.93316 2.59001 0
M  V30 1198 H 112.817 1.58286 3.64735 0
M  V30 1199 N 113.814 -1.1601 1.06675 0
M  V30 1200 C 115.054 -1.88304 0.795037 0
M  V30 1201 C 115.418 -1.80062 -0.666466 0
M  V30 1202 O 116.619 -2.47319 -1.05293 0
M  V30 1203 C 114.89 -3.33664 1.28076 0
M  V30 1204 S 116.449 -4.23768 1.13868 0
M  V30 1205 H 113.267 -0.649928 0.288296 0
M  V30 1206 H 115.869 -1.4001 1.36445 0
M  V30 1207 H 114.573 -3.37203 2.33927 0
M  V30 1208 H 114.104 -3.87009 0.706253 0
M  V30 1209 H 116.119 -4.96148 0.0719668 0
M  V30 1210 N 115.292 -0.849877 -1.32721 0
M  V30 1211 C 116.538 -0.451591 -1.97708 0
M  V30 1212 C 116.871 0.989175 -1.6712 0
M  V30 1213 O 116.146 1.69334 -0.956891 0
M  V30 1214 C 116.429 -0.685598 -3.53513 0
M  V30 1215 C 116.282 -2.17444 -3.93749 0
M  V30 1216 C 117.601 -0.138874 -4.39881 0
M  V30 1217 H 114.72 -0.16555 -0.718166 0
M  V30 1218 H 117.362 -1.06742 -1.57182 0
M  V30 1219 H 115.512 -0.161416 -3.88165 0
M  V30 1220 H 117.184 -2.76433 -3.693 0
M  V30 1221 H 115.427 -2.65476 -3.43081 0
M  V30 1222 H 116.098 -2.28888 -5.02309 0
M  V30 1223 H 118.574 -0.587068 -4.11938 0
M  V30 1224 H 117.45 -0.332213 -5.47894 0
M  V30 1225 H 117.711 0.95806 -4.31594 0
M  V30 1226 N 116.77 1.45427 -0.607355 0
M  V30 1227 C 117.995 2.07124 -0.107006 0
M  V30 1228 C 118.42 1.44906 1.19933 0
M  V30 1229 O 117.778 0.541687 1.73019 0
M  V30 1230 C 117.826 3.60595 0.0194119 0
M  V30 1231 O 116.93 3.98285 1.0697 0
M  V30 1232 H 116.271 0.659868 -0.0739597 0
M  V30 1233 H 118.801 1.86683 -0.837297 0
M  V30 1234 H 118.811 4.07419 0.2177 0
M  V30 1235 H 117.486 4.05266 -0.934453 0
M  V30 1236 H 116.063 3.63133 0.847889 0
M  V30 1237 N 118.248 0.346503 1.53744 0
M  V30 1238 C 119.478 -0.250047 2.05081 0
M  V30 1239 C 119.886 -1.44529 1.22098 0
M  V30 1240 O 119.229 -1.81992 0.249917 0
M  V30 1241 C 119.291 -0.725934 3.52094 0
M  V30 1242 C 118.955 0.350053 4.55657 0
M  V30 1243 C 119.952 1.19372 5.0601 0
M  V30 1244 C 117.637 0.504827 4.99757 0
M  V30 1245 C 119.631 2.17768 5.99046 0
M  V30 1246 C 117.318 1.49218 5.92602 0
M  V30 1247 C 118.316 2.32706 6.42135 0
M  V30 1248 O 118.004 3.2976 7.33153 0
M  V30 1249 H 117.736 -0.0515469 0.674032 0
M  V30 1250 H 120.29 0.497559 1.99282 0
M  V30 1251 H 118.52 -1.52483 3.55367 0
M  V30 1252 H 120.209 -1.24336 3.86388 0
M  V30 1253 H 120.975 1.08525 4.72702 0
M  V30 1254 H 116.854 -0.135178 4.60802 0
M  V30 1255 H 120.398 2.82971 6.37631 0
M  V30 1256 H 116.295 1.6012 6.25325 0
M  V30 1257 H 117.063 3.25265 7.51096 0
M  V30 1258 N 119.726 -1.57421 0.075193 0
M  V30 1259 C 120.636 -2.1642 -0.905511 0
M  V30 1260 C 121.652 -1.12828 -1.32461 0
M  V30 1261 O 122.828 -1.45109 -1.39661 0
M  V30 1262 C 119.893 -2.71693 -2.15369 0
M  V30 1263 C 118.954 -3.90171 -1.79068 0
M  V30 1264 C 118.187 -4.42798 -2.97936 0
M  V30 1265 O 118.41 -3.94416 -4.12058 0
M  V30 1266 O 117.344 -5.34085 -2.77555 0
M  V30 1267 H 121.17 -3.00588 -0.433626 0
M  V30 1268 H 118.755 -1.48664 -0.148067 0
M  V30 1269 H 120.637 -3.07104 -2.88557 0
M  V30 1270 H 119.312 -1.90582 -2.61649 0
M  V30 1271 H 118.219 -3.59606 -1.03122 0
M  V30 1272 H 119.552 -4.72584 -1.37569 0
M  V30 1273 N 121.204 0.198386 -1.56346 0
M  V30 1274 C 122.429 0.939682 -1.84891 0
M  V30 1275 C 122.854 1.76202 -0.658369 0
M  V30 1276 O 122.212 1.76993 0.392851 0
M  V30 1277 C 122.26 1.81428 -3.11635 0
M  V30 1278 O 121.364 2.91265 -2.91956 0
M  V30 1279 H 120.705 0.264807 -0.608912 0
M  V30 1280 H 123.235 0.204695 -2.03573 0
M  V30 1281 H 123.245 2.21958 -3.42343 0
M  V30 1282 H 121.92 1.21004 -3.97908 0
M  V30 1283 H 120.497 2.54514 -2.72538 0
M  V30 1284 N 122.682 1.50554 0.465978 0
M  V30 1285 C 123.929 1.61798 1.21768 0
M  V30 1286 C 124.257 0.320696 1.91838 0
M  V30 1287 O 123.512 -0.693724 1.82992 0
M  V30 1288 C 123.811 2.75152 2.28093 0
M  V30 1289 C 123.477 4.15454 1.75239 0
M  V30 1290 C 122.139 4.53628 1.60546 0
M  V30 1291 C 124.491 5.03121 1.36083 0
M  V30 1292 C 121.819 5.77204 1.05128 0
M  V30 1293 C 124.171 6.27249 0.821056 0
M  V30 1294 C 122.835 6.64221 0.660795 0
M  V30 1295 H 122.105 0.592063 0.445582 0
M  V30 1296 H 124.752 1.84503 0.512927 0
M  V30 1297 H 123.057 2.46556 3.04496 0
M  V30 1298 H 124.754 2.81055 2.86023 0
M  V30 1299 H 121.344 3.85341 1.87644 0
M  V30 1300 H 125.528 4.74257 1.46267 0
M  V30 1301 H 120.784 6.0452 0.91462 0
M  V30 1302 H 124.958 6.94537 0.509018 0
M  V30 1303 H 122.585 7.59854 0.229226 0
M  V30 1304 N 124.16 -0.719506 1.40217 0
M  V30 1305 C 125.406 -1.48152 1.38488 0
M  V30 1306 C 125.739 -1.94195 -0.0141867 0
M  V30 1307 O 125.014 -1.67884 -0.982096 0
M  V30 1308 C 125.297 -2.71035 2.37091 0
M  V30 1309 C 125.15 -2.30912 3.86005 0
M  V30 1310 C 126.469 -3.73182 2.33288 0
M  V30 1311 H 123.588 -0.537395 0.504357 0
M  V30 1312 H 126.23 -0.821472 1.71324 0
M  V30 1313 H 124.38 -3.27352 2.0922 0
M  V30 1314 H 126.052 -1.80107 4.24687 0
M  V30 1315 H 124.295 -1.62958 4.02029 0
M  V30 1316 H 124.966 -3.18978 4.50508 0
M  V30 1317 H 127.442 -3.26485 2.57966 0
M  V30 1318 H 126.318 -4.56806 3.04334 0
M  V30 1319 H 126.579 -4.21202 1.34317 0
M  V30 1320 N 125.638 -1.25649 -0.95132 0
M  V30 1321 C 126.887 -1.09988 -1.69073 0
M  V30 1322 C 127.2 0.358355 -1.92289 0
M  V30 1323 O 128.406 0.635466 -2.63958 0
M  V30 1324 C 126.862 -1.92012 -3.044 0
M  V30 1325 C 126.47 -3.42347 -2.88968 0
M  V30 1326 C 128.214 -1.8493 -3.82101 0
M  V30 1327 C 126.121 -4.16655 -4.19705 0
M  V30 1328 H 125.051 -0.407993 -0.63408 0
M  V30 1329 H 127.702 -1.49873 -1.05879 0
M  V30 1330 H 126.084 -1.44952 -3.68517 0
M  V30 1331 H 127.258 -3.97104 -2.33762 0
M  V30 1332 H 125.573 -3.50557 -2.24719 0
M  V30 1333 H 128.17 -2.37739 -4.78941 0
M  V30 1334 H 128.513 -0.817883 -4.08187 0
M  V30 1335 H 129.046 -2.29758 -3.2474 0
M  V30 1336 H 125.785 -5.20224 -3.98807 0
M  V30 1337 H 125.305 -3.66681 -4.74663 0
M  V30 1338 H 126.984 -4.24551 -4.88227 0
M  V30 1339 N 127.117 1.15442 -1.07289 0
M  V30 1340 C 128.363 1.8672 -0.806679 0
M  V30 1341 C 128.718 1.80723 0.660084 0
M  V30 1342 O 128.011 1.21902 1.47819 0
M  V30 1343 C 128.205 3.3489 -1.24834 0
M  V30 1344 C 128.034 3.55313 -2.7565 0
M  V30 1345 C 126.804 3.7082 -3.4325 0
M  V30 1346 C 129.002 3.53188 -3.73848 0
M  V30 1347 N 126.984 3.7929 -4.82713 0
M  V30 1348 C 128.355 3.67765 -4.99149 0
M  V30 1349 C 130.41 3.36459 -3.67015 0
M  V30 1350 C 129.113 3.6734 -6.18428 0
M  V30 1351 C 131.139 3.37333 -4.85758 0
M  V30 1352 C 130.501 3.52438 -6.09891 0
M  V30 1353 H 126.6 0.700433 -0.347733 0
M  V30 1354 H 129.184 1.38441 -1.36902 0
M  V30 1355 H 127.355 3.81786 -0.713713 0
M  V30 1356 H 129.087 3.93875 -0.929745 0
M  V30 1357 H 125.842 3.71568 -2.93656 0
M  V30 1358 H 126.266 3.8727 -5.55294 0
M  V30 1359 H 130.908 3.237 -2.71989 0
M  V30 1360 H 128.626 3.78878 -7.13777 0
M  V30 1361 H 132.212 3.25617 -4.82146 0
M  V30 1362 H 131.092 3.53047 -7.00234 0
M  V30 1363 N 128.595 0.856903 1.32268 0
M  V30 1364 C 129.823 0.475439 2.01363 0
M  V30 1365 C 130.238 -0.928486 1.64392 0
M  V30 1366 O 129.595 -1.60624 0.866387 0
M  V30 1367 C 129.646 0.607545 3.56358 0
M  V30 1368 O 129.367 1.95617 3.92002 0
M  V30 1369 C 130.868 0.225382 4.42727 0
M  V30 1370 H 128.088 0.186636 0.644521 0
M  V30 1371 H 130.632 1.15446 1.68797 0
M  V30 1372 H 128.787 -0.0237719 3.87393 0
M  V30 1373 H 129.201 1.95455 4.86721 0
M  V30 1374 H 130.675 0.368813 5.50767 0
M  V30 1375 H 131.152 -0.834369 4.31202 0
M  V30 1376 H 131.758 0.831864 4.17085 0
M  V30 1377 N 130.073 -1.45103 0.615059 0
M  V30 1378 C 131.321 -2.01784 0.112955 0
M  V30 1379 C 131.642 -1.48504 -1.26378 0
M  V30 1380 O 130.912 -0.682245 -1.83636 0
M  V30 1381 H 129.492 -0.745993 0.0387668 0
M  V30 1382 H 132.154 -1.77808 0.798141 0
M  V30 1383 H 131.25 -3.12025 0.0684069 0
M  V30 1384 N 131.551 -0.354651 -1.53558 0
M  V30 1385 C 132.967 -0.00315426 -1.596 0
M  V30 1386 C 133.167 1.47741 -1.37021 0
M  V30 1387 O 132.223 2.23759 -1.16996 0
M  V30 1388 C 133.536 -0.44929 -2.97325 0
M  V30 1389 C 135.084 -0.402578 -3.104 0
M  V30 1390 C 135.559 -0.824355 -4.5052 0
M  V30 1391 N 137.05 -0.778979 -4.56603 0
M  V30 1392 C 137.785 -1.07715 -5.63192 0
M  V30 1393 N 137.281 -1.44405 -6.77583 0
M  V30 1394 N 139.074 -1.00066 -5.53121 0
M  V30 1395 H 131.225 -1.31893 -1.66487 0
M  V30 1396 H 133.488 -0.538388 -0.780284 0
M  V30 1397 H 133.194 -1.48202 -3.1895 0
M  V30 1398 H 133.068 0.169772 -3.76818 0
M  V30 1399 H 135.455 0.621004 -2.88492 0
M  V30 1400 H 135.536 -1.05699 -2.32941 0
M  V30 1401 H 135.18 -1.846 -4.73165 0
M  V30 1402 H 135.11 -0.147304 -5.26394 0
M  V30 1403 H 137.601 -0.508528 -3.74463 0
M  V30 1404 H 137.914 -1.65612 -7.54846 0
M  V30 1405 H 136.259 -1.4826 -6.79002 0
M  V30 1406 H 139.45 -0.713293 -4.62633 0
M  V30 1407 H 139.623 -1.23638 -6.36096 0
M  V30 1408 N 133.029 1.57378 -0.0835403 0
M  V30 1409 C 134.257 1.98263 0.59157 0
M  V30 1410 C 134.672 0.962302 1.62435 0
M  V30 1411 O 134.029 -0.049581 1.82433 0
M  V30 1412 C 134.08 3.39214 1.24965 0
M  V30 1413 O 133.801 4.37339 0.258186 0
M  V30 1414 C 135.302 3.95038 2.01147 0
M  V30 1415 H 132.522 0.651773 0.159477 0
M  V30 1416 H 135.066 2.03878 -0.159415 0
M  V30 1417 H 133.221 3.34649 1.95164 0
M  V30 1418 H 133.635 5.19371 0.731734 0
M  V30 1419 H 135.109 4.95848 2.42567 0
M  V30 1420 H 135.586 3.32222 2.87272 0
M  V30 1421 H 136.192 4.0304 1.35789 0
M  V30 1422 N 134.507 -0.190092 1.56449 0
M  V30 1423 C 135.732 -0.929864 1.85387 0
M  V30 1424 C 136.157 -1.7585 0.667704 0
M  V30 1425 O 135.515 -1.77198 -0.383459 0
M  V30 1426 C 135.563 -1.79773 3.12593 0
M  V30 1427 O 134.667 -2.89713 2.93496 0
M  V30 1428 H 134.008 -0.261574 0.610307 0
M  V30 1429 H 136.538 -0.193896 2.03679 0
M  V30 1430 H 136.548 -2.20139 3.43515 0
M  V30 1431 H 135.223 -1.18892 3.98544 0
M  V30 1432 H 133.8 -2.53065 2.73884 0
M  V30 1433 N 135.985 -1.50799 -0.457987 0
M  V30 1434 C 136.918 -1.65273 -1.57353 0
M  V30 1435 C 137.896 -0.500578 -1.54703 0
M  V30 1436 O 139.08 -0.721781 -1.74134 0
M  V30 1437 C 136.207 -1.64737 -2.95938 0
M  V30 1438 C 135.253 -2.8567 -3.16693 0
M  V30 1439 S 136.086 -4.46791 -2.95191 0
M  V30 1440 C 137.242 -4.48968 -4.36095 0
M  V30 1441 H 137.475 -2.59633 -1.44838 0
M  V30 1442 H 135.008 -1.40225 -0.64625 0
M  V30 1443 H 136.966 -1.65112 -3.7583 0
M  V30 1444 H 135.627 -0.715899 -3.05833 0
M  V30 1445 H 134.82 -2.81637 -4.17967 0
M  V30 1446 H 134.422 -2.8293 -2.44594 0
M  V30 1447 H 136.714 -4.23337 -5.28954 0
M  V30 1448 H 137.657 -5.50664 -4.45168 0
M  V30 1449 H 138.065 -3.78522 -4.18786 0
M  V30 1450 N 137.463 0.71206 -1.40597 0
M  V30 1451 C 138.373 1.8562 -1.43466 0
M  V30 1452 C 139.389 1.70902 -0.326902 0
M  V30 1453 O 140.565 1.93105 -0.572043 0
M  V30 1454 C 137.63 3.21451 -1.29884 0
M  V30 1455 C 136.691 3.48398 -2.50833 0
M  V30 1456 C 135.924 4.77749 -2.3789 0
M  V30 1457 O 136.147 5.53089 -1.39459 0
M  V30 1458 O 135.081 5.05111 -3.27333 0
M  V30 1459 H 138.907 1.86155 -2.39958 0
M  V30 1460 H 136.492 0.86295 -1.21957 0
M  V30 1461 H 138.374 4.02579 -1.24531 0
M  V30 1462 H 137.049 3.21636 -0.364997 0
M  V30 1463 H 135.956 2.67265 -2.61763 0
M  V30 1464 H 137.289 3.53014 -3.4299 0
M  V30 1465 N 138.941 1.26152 0.944643 0
M  V30 1466 C 140.187 1.11657 1.69294 0
M  V30 1467 C 140.52 -0.339926 1.91202 0
M  V30 1468 O 139.795 -1.24994 1.49019 0
M  V30 1469 C 140.078 1.88236 3.06984 0
M  V30 1470 C 139.931 3.41772 2.92424 0
M  V30 1471 C 141.25 1.67343 4.07043 0
M  V30 1472 H 138.369 0.407004 0.614424 0
M  V30 1473 H 141.011 1.55106 1.09737 0
M  V30 1474 H 139.161 1.51308 3.57824 0
M  V30 1475 H 140.833 3.88433 2.48832 0
M  V30 1476 H 139.076 3.68974 2.28124 0
M  V30 1477 H 139.747 3.90579 3.90067 0
M  V30 1478 H 142.223 1.99509 3.65151 0
M  V30 1479 H 141.099 2.23346 5.01406 0
M  V30 1480 H 141.36 0.617158 4.37771 0
M  V30 1481 N 140.419 -1.14872 1.07899 0
M  V30 1482 C 141.666 -1.85789 0.805532 0
M  V30 1483 C 141.994 -1.82649 -0.668561 0
M  V30 1484 O 141.249 -1.24858 -1.50695 0
M  V30 1485 C 141.548 -3.34223 1.26609 0
M  V30 1486 C 141.214 -3.57555 2.74709 0
M  V30 1487 C 139.876 -3.63631 3.1516 0
M  V30 1488 C 142.228 -3.66803 3.70277 0
M  V30 1489 C 139.556 -3.76473 4.49983 0
M  V30 1490 C 141.908 -3.8117 5.04869 0
M  V30 1491 C 140.572 -3.85494 5.44932 0
M  V30 1492 H 139.842 -0.679849 0.294765 0
M  V30 1493 H 142.489 -1.3572 1.35101 0
M  V30 1494 H 140.794 -3.86536 0.640103 0
M  V30 1495 H 142.491 -3.87511 1.03132 0
M  V30 1496 H 139.081 -3.5347 2.42398 0
M  V30 1497 H 143.265 -3.61404 3.40149 0
M  V30 1498 H 138.521 -3.7808 4.80484 0
M  V30 1499 H 142.695 -3.87268 5.78789 0
M  V30 1500 H 140.322 -3.95197 6.49403 0
M  V30 1501 N 141.898 -0.863906 -1.31812 0
M  V30 1502 C 143.144 -0.472535 -1.97218 0
M  V30 1503 C 143.477 0.971394 -1.68159 0
M  V30 1504 O 142.752 1.68309 -0.974798 0
M  V30 1505 C 143.035 -0.723054 -3.52766 0
M  V30 1506 C 142.888 -2.21608 -3.91421 0
M  V30 1507 C 144.207 -0.185522 -4.39709 0
M  V30 1508 H 141.326 -0.173158 -0.71637 0
M  V30 1509 H 143.968 -1.08403 -1.56041 0
M  V30 1510 H 142.118 -0.202577 -3.87971 0
M  V30 1511 H 143.79 -2.80334 -3.66347 0
M  V30 1512 H 142.033 -2.691 -3.40246 0
M  V30 1513 H 142.704 -2.34203 -4.99853 0
M  V30 1514 H 145.18 -0.630726 -4.11292 0
M  V30 1515 H 144.056 -0.390306 -5.47511 0
M  V30 1516 H 144.317 0.912229 -4.32586 0
M  V30 1517 N 143.376 1.44774 -0.622745 0
M  V30 1518 C 144.323 2.30635 0.0871679 0
M  V30 1519 C 145.293 1.42994 0.845097 0
M  V30 1520 O 146.478 1.71907 0.827812 0
M  V30 1521 C 143.618 3.28144 1.06844 0
M  V30 1522 C 142.731 4.30888 0.309809 0
M  V30 1523 C 141.866 5.15494 1.28215 0
M  V30 1524 C 140.905 6.09953 0.512198 0
M  V30 1525 N 140.042 6.87287 1.43458 0
M  V30 1526 H 144.882 2.90803 -0.650974 0
M  V30 1527 H 142.419 1.43286 -0.33281 0
M  V30 1528 H 144.377 3.83157 1.65066 0
M  V30 1529 H 143.007 2.69695 1.77382 0
M  V30 1530 H 142.059 3.78414 -0.388181 0
M  V30 1531 H 143.371 4.97955 -0.290254 0
M  V30 1532 H 142.525 5.74983 1.93596 0
M  V30 1533 H 141.264 4.48481 1.91614 0
M  V30 1534 H 140.269 5.49581 -0.155151 0
M  V30 1535 H 141.494 6.78999 -0.116958 0
M  V30 1536 H 139.44 6.2295 2.05594 0
M  V30 1537 H 139.357 7.50763 0.888335 0
M  V30 1538 H 140.625 7.51306 2.07749 0
M  V30 1539 N 144.854 0.36279 1.53368 0
M  V30 1540 C 146.1 -0.228113 2.01513 0
M  V30 1541 C 146.433 -1.48648 1.2497 0
M  V30 1542 O 145.708 -1.91459 0.342616 0
M  V30 1543 C 145.991 -0.522884 3.56284 0
M  V30 1544 C 145.844 0.74892 4.43521 0
M  V30 1545 C 147.163 -1.32461 4.19693 0
M  V30 1546 H 144.282 -0.0814343 0.732487 0
M  V30 1547 H 146.924 0.48713 1.83649 0
M  V30 1548 H 145.074 -1.1322 3.71636 0
M  V30 1549 H 146.746 1.38648 4.39971 0
M  V30 1550 H 144.989 1.36986 4.11603 0
M  V30 1551 H 145.66 0.497667 5.49752 0
M  V30 1552 H 148.136 -0.809203 4.08156 0
M  V30 1553 H 147.012 -1.49961 5.28018 0
M  V30 1554 H 147.273 -2.33232 3.75573 0
M  V30 1555 N 146.332 -1.57332 0.0918853 0
M  V30 1556 C 147.578 -1.94524 -0.573425 0
M  V30 1557 C 147.911 -0.973578 -1.68033 0
M  V30 1558 O 147.186 -0.00609226 -1.94499 0
M  V30 1559 C 147.469 -3.41858 -1.13161 0
M  V30 1560 C 147.322 -4.4979 -0.0299747 0
M  V30 1561 C 148.641 -3.90435 -2.03098 0
M  V30 1562 H 145.76 -0.70734 -0.206975 0
M  V30 1563 H 148.402 -1.89309 0.161942 0
M  V30 1564 H 146.552 -3.46433 -1.7583 0
M  V30 1565 H 148.224 -4.57327 0.604112 0
M  V30 1566 H 146.467 -4.291 0.636833 0
M  V30 1567 H 147.138 -5.50069 -0.461287 0
M  V30 1568 H 149.614 -3.87992 -1.50338 0
M  V30 1569 H 148.49 -4.94097 -2.39081 0
M  V30 1570 H 148.751 -3.29541 -2.94712 0
M  V30 1571 N 147.81 0.181792 -1.56548 0
M  V30 1572 C 149.035 0.920019 -1.85877 0
M  V30 1573 C 149.46 1.75494 -0.677021 0
M  V30 1574 O 148.818 1.77399 0.374056 0
M  V30 1575 C 148.866 1.78112 -3.13542 0
M  V30 1576 O 147.97 2.88152 -2.95029 0
M  V30 1577 H 147.311 0.258334 -0.611686 0
M  V30 1578 H 149.841 0.183092 -2.03779 0
M  V30 1579 H 149.851 2.18314 -3.44678 0
M  V30 1580 H 148.526 1.16777 -3.99169 0
M  V30 1581 H 147.103 2.51609 -2.75222 0
M  V30 1582 N 149.288 1.51039 0.449983 0
M  V30 1583 C 150.198 1.74261 1.57067 0
M  V30 1584 C 151.214 0.626363 1.62335 0
M  V30 1585 O 152.39 0.907162 1.79812 0
M  V30 1586 C 149.455 1.85114 2.93144 0
M  V30 1587 C 148.516 3.0893 2.98095 0
M  V30 1588 C 147.749 3.19256 4.27681 0
M  V30 1589 O 147.972 2.35835 5.19363 0
M  V30 1590 O 146.906 4.12144 4.38658 0
M  V30 1591 H 150.732 2.69303 1.40391 0
M  V30 1592 H 148.317 1.35389 0.631688 0
M  V30 1593 H 150.199 1.94311 3.73926 0
M  V30 1594 H 148.874 0.932588 3.09975 0
M  V30 1595 H 147.781 3.0522 2.16314 0
M  V30 1596 H 149.114 4.00433 2.86206 0
M  V30 1597 N 150.766 -0.704594 1.40972 0
M  V30 1598 C 151.996 -1.49138 1.42974 0
M  V30 1599 C 152.404 -1.89175 0.0308406 0
M  V30 1600 O 151.747 -1.56734 -0.958138 0
M  V30 1601 C 151.809 -2.79016 2.26694 0
M  V30 1602 C 151.473 -2.61236 3.74973 0
M  V30 1603 C 152.47 -2.27773 4.67349 0
M  V30 1604 C 150.155 -2.77158 4.18914 0
M  V30 1605 C 152.149 -2.10457 6.01653 0
M  V30 1606 C 149.836 -2.59459 5.53285 0
M  V30 1607 C 150.834 -2.26158 6.4447 0
M  V30 1608 O 150.522 -2.08605 7.76363 0
M  V30 1609 H 150.254 -0.466443 0.489292 0
M  V30 1610 H 152.808 -0.8758 1.85793 0
M  V30 1611 H 151.038 -3.42947 1.78673 0
M  V30 1612 H 152.727 -3.40782 2.20504 0
M  V30 1613 H 153.493 -2.15095 4.34694 0
M  V30 1614 H 149.372 -3.02064 3.48251 0
M  V30 1615 H 152.916 -1.84387 6.72791 0
M  V30 1616 H 148.813 -2.71725 5.85522 0
M  V30 1617 H 149.581 -2.23439 7.87412 0
M  V30 1618 N 152.244 -1.26651 -0.937939 0
M  V30 1619 C 153.174 -1.10993 -2.05433 0
M  V30 1620 C 154.155 -0.0142161 -1.70094 0
M  V30 1621 O 155.34 -0.186837 -1.93299 0
M  V30 1622 C 152.47 -0.745561 -3.39203 0
M  V30 1623 C 151.424 -1.79337 -3.88616 0
M  V30 1624 C 150.75 -1.28324 -5.19073 0
M  V30 1625 C 152.05 -3.19553 -4.13138 0
M  V30 1626 H 153.744 -2.0438 -2.1879 0
M  V30 1627 H 151.29 -0.984041 -1.05131 0
M  V30 1628 H 153.243 -0.622888 -4.16771 0
M  V30 1629 H 151.967 0.22401 -3.25831 0
M  V30 1630 H 150.626 -1.90477 -3.13231 0
M  V30 1631 H 150.274 -0.303414 -5.02084 0
M  V30 1632 H 149.974 -1.98369 -5.53103 0
M  V30 1633 H 151.498 -1.1733 -5.99221 0
M  V30 1634 H 152.912 -3.11471 -4.81309 0
M  V30 1635 H 151.309 -3.87218 -4.58457 0
M  V30 1636 H 152.379 -3.65368 -3.18801 0
M  V30 1637 N 153.722 1.14298 -1.08507 0
M  V30 1638 C 154.971 1.84708 -0.810305 0
M  V30 1639 C 155.284 1.83903 0.666271 0
M  V30 1640 O 156.49 2.50112 1.05624 0
M  V30 1641 C 154.946 3.31572 -1.39957 0
M  V30 1642 C 154.554 3.40791 -2.90801 0
M  V30 1643 C 156.298 4.07087 -1.20334 0
M  V30 1644 C 154.205 4.81872 -3.4286 0
M  V30 1645 H 153.135 0.691985 -0.299454 0
M  V30 1646 H 155.786 1.28841 -1.30661 0
M  V30 1647 H 154.168 3.87183 -0.830976 0
M  V30 1648 H 155.342 2.95225 -3.53806 0
M  V30 1649 H 153.657 2.78732 -3.0935 0
M  V30 1650 H 156.254 5.11225 -1.56693 0
M  V30 1651 H 156.597 4.16054 -0.143237 0
M  V30 1652 H 157.13 3.57779 -1.73893 0
M  V30 1653 H 153.869 4.78094 -4.48449 0
M  V30 1654 H 153.389 5.27972 -2.84615 0
M  V30 1655 H 155.068 5.50765 -3.39509 0
M  V30 1656 N 155.201 0.870884 1.31352 0
M  V30 1657 C 156.426 0.495957 2.01383 0
M  V30 1658 C 156.851 -0.904324 1.64935 0
M  V30 1659 O 156.209 -1.59687 0.858466 0
M  V30 1660 C 156.257 0.661433 3.54482 0
M  V30 1661 O 155.361 -0.298851 4.11316 0
M  V30 1662 H 154.702 0.197158 0.634054 0
M  V30 1663 H 157.232 1.17455 1.67527 0
M  V30 1664 H 157.242 0.555072 4.04207 0
M  V30 1665 H 155.917 1.68246 3.8035 0
M  V30 1666 H 154.494 -0.147368 3.72609 0
M  V30 1667 N 156.679 -1.44442 0.630414 0
M  V30 1668 C 157.927 -2.01653 0.134351 0
M  V30 1669 C 158.248 -1.49836 -1.24796 0
M  V30 1670 O 157.518 -0.701684 -1.82902 0
M  V30 1671 H 156.098 -0.74554 0.0466769 0
M  V30 1672 H 158.76 -1.76952 0.816955 0
M  V30 1673 H 157.856 -3.11935 0.101498 0
M  V30 1674 N 158.157 -0.370918 -1.53173 0
M  V30 1675 C 159.067 0.480823 -2.2962 0
M  V30 1676 C 160.083 1.08789 -1.35798 0
M  V30 1677 O 161.259 1.09768 -1.68858 0
M  V30 1678 C 158.324 1.60227 -3.07454 0
M  V30 1679 C 157.385 1.0222 -4.16953 0
M  V30 1680 C 156.618 2.0902 -4.91066 0
M  V30 1681 O 156.841 3.30222 -4.65091 0
M  V30 1682 O 155.775 1.71778 -5.76867 0
M  V30 1683 H 159.601 -0.141421 -3.03371 0
M  V30 1684 H 157.186 -0.135146 -1.48787 0
M  V30 1685 H 159.068 2.25417 -3.56041 0
M  V30 1686 H 157.743 2.20982 -2.36535 0
M  V30 1687 H 156.65 0.334064 -3.72605 0
M  V30 1688 H 157.983 0.459131 -4.90054 0
M  V30 1689 N 159.635 1.57281 -0.100228 0
M  V30 1690 C 160.582 2.14305 0.856858 0
M  V30 1691 C 161.552 1.06296 1.27634 0
M  V30 1692 O 162.737 1.34109 1.35718 0
M  V30 1693 C 159.877 2.73184 2.10866 0
M  V30 1694 C 158.99 3.95442 1.73925 0
M  V30 1695 C 158.125 4.42468 2.93931 0
M  V30 1696 C 157.164 5.57303 2.5314 0
M  V30 1697 N 156.301 5.99158 3.65997 0
M  V30 1698 H 161.141 2.95772 0.363726 0
M  V30 1699 H 158.678 1.46139 0.167858 0
M  V30 1700 H 160.636 3.05442 2.84185 0
M  V30 1701 H 159.266 1.94437 2.57671 0
M  V30 1702 H 158.318 3.69464 0.905554 0
M  V30 1703 H 159.63 4.78769 1.39935 0
M  V30 1704 H 158.784 4.76537 3.75496 0
M  V30 1705 H 157.523 3.58052 3.31134 0
M  V30 1706 H 156.528 5.22857 1.70003 0
M  V30 1707 H 157.753 6.43471 2.17075 0
M  V30 1708 H 155.699 5.17687 4.02909 0
M  V30 1709 H 155.616 6.77295 3.35869 0
M  V30 1710 H 156.884 6.3786 4.48057 0
M  V30 1711 N 161.113 -0.173488 1.56642 0
M  V30 1712 C 162.529 -0.525174 1.50712 0
M  V30 1713 C 162.729 -1.8476 0.804107 0
M  V30 1714 O 161.785 -2.49869 0.363574 0
M  V30 1715 C 163.098 -0.559937 2.95441 0
M  V30 1716 C 164.646 -0.647288 3.06234 0
M  V30 1717 C 165.121 -0.712963 4.52417 0
M  V30 1718 N 166.612 -0.775911 4.56655 0
M  V30 1719 C 167.347 -0.847264 5.67106 0
M  V30 1720 N 166.843 -0.879585 6.87194 0
M  V30 1721 N 168.636 -0.886117 5.55071 0
M  V30 1722 H 160.787 0.693681 2.00753 0
M  V30 1723 H 163.05 0.249841 0.914485 0
M  V30 1724 H 162.756 0.343049 3.50023 0
M  V30 1725 H 162.63 -1.40718 3.49969 0
M  V30 1726 H 165.017 -1.5407 2.51687 0
M  V30 1727 H 165.098 0.226586 2.54794 0
M  V30 1728 H 164.742 0.176183 5.07594 0
M  V30 1729 H 164.672 -1.60295 5.0161 0
M  V30 1730 H 167.163 -0.759304 3.70193 0
M  V30 1731 H 167.476 -0.935144 7.67121 0
M  V30 1732 H 165.821 -0.847898 6.89808 0
M  V30 1733 H 169.012 -0.857853 4.60172 0
M  V30 1734 H 169.185 -0.938263 6.41171 0
M  V30 1735 N 162.591 -1.51276 -0.441967 0
M  V30 1736 C 163.84 -1.6295 -1.18871 0
M  V30 1737 C 164.153 -0.349312 -1.92456 0
M  V30 1738 O 165.359 -0.345355 -2.69295 0
M  V30 1739 C 163.815 -2.87759 -2.16155 0
M  V30 1740 C 163.423 -4.22764 -1.48239 0
M  V30 1741 C 165.167 -3.08788 -2.91291 0
M  V30 1742 C 163.074 -5.38728 -2.4398 0
M  V30 1743 H 162.004 -0.606913 -0.447406 0
M  V30 1744 H 164.655 -1.77739 -0.456205 0
M  V30 1745 H 163.037 -2.66593 -2.92821 0
M  V30 1746 H 164.211 -4.54293 -0.771635 0
M  V30 1747 H 162.526 -4.07575 -0.852741 0
M  V30 1748 H 165.123 -3.92599 -3.63002 0
M  V30 1749 H 165.466 -2.21679 -3.5237 0
M  V30 1750 H 165.999 -3.30272 -2.21733 0
M  V30 1751 H 162.738 -6.28082 -1.87598 0
M  V30 1752 H 162.258 -5.1158 -3.13123 0
M  V30 1753 H 163.937 -5.70489 -3.05207 0
M  V30 1754 N 164.069 0.697108 -1.41344 0
M  V30 1755 C 165.032 1.79281 -1.42797 0
M  V30 1756 C 166.032 1.57607 -0.318837 0
M  V30 1757 O 167.222 1.64309 -0.578642 0
M  V30 1758 C 164.354 3.17632 -1.23785 0
M  V30 1759 H 165.547 1.79385 -2.40335 0
M  V30 1760 H 163.1 0.904582 -1.27464 0
M  V30 1761 H 163.835 3.23167 -0.270814 0
M  V30 1762 H 163.62 3.34765 -2.04144 0
M  V30 1763 H 165.11 3.97617 -1.27633 0
M  V30 1764 N 165.547 1.27147 0.931209 0
M  V30 1765 C 166.51 1.09615 2.01289 0
M  V30 1766 C 167.51 0.0412581 1.60747 0
M  V30 1767 O 168.7 0.285545 1.71844 0
M  V30 1768 C 165.832 0.669447 3.34262 0
M  V30 1769 H 167.025 2.05662 2.18273 0
M  V30 1770 H 164.578 1.09885 1.11153 0
M  V30 1771 H 165.313 -0.292572 3.22978 0
M  V30 1772 H 165.098 1.43127 3.65044 0
M  V30 1773 H 166.588 0.568921 4.13706 0
M  V30 1774 N 167.025 -1.13721 1.09112 0
M  V30 1775 C 168.253 -1.88773 0.846899 0
M  V30 1776 C 168.668 -1.7896 -0.601572 0
M  V30 1777 O 168.025 -1.15394 -1.41388 0
M  V30 1778 C 168.076 -3.3849 1.26913 0
M  V30 1779 O 167.797 -3.48043 2.66079 0
M  V30 1780 C 169.298 -4.30518 1.05682 0
M  V30 1781 H 166.518 -0.59772 0.304914 0
M  V30 1782 H 169.062 -1.43977 1.45227 0
M  V30 1783 H 167.217 -3.80881 0.707723 0
M  V30 1784 H 167.631 -4.4109 2.83795 0
M  V30 1785 H 169.105 -5.3391 1.40156 0
M  V30 1786 H 169.582 -4.392 -0.00563416 0
M  V30 1787 H 170.188 -3.93893 1.60402 0
M  V30 1788 N 168.503 -0.877838 -1.30888 0
M  V30 1789 C 169.728 -0.506629 -2.01117 0
M  V30 1790 C 170.153 0.895564 -1.65412 0
M  V30 1791 O 169.511 1.5923 -0.866922 0
M  V30 1792 C 169.559 -0.680223 -3.54126 0
M  V30 1793 O 168.663 0.277033 -4.11468 0
M  V30 1794 H 168.004 -0.200518 -0.633 0
M  V30 1795 H 170.534 -1.18342 -1.66902 0
M  V30 1796 H 170.544 -0.5765 -4.03907 0
M  V30 1797 H 169.219 -1.70261 -3.79452 0
M  V30 1798 H 167.796 0.127606 -3.72682 0
M  V30 1799 N 169.982 1.44106 -0.638065 0
M  V30 1800 C 171.229 2.01978 -0.14533 0
M  V30 1801 C 171.557 1.50234 1.23532 0
M  V30 1802 O 170.812 0.679548 1.83523 0
M  V30 1803 C 171.111 3.5729 -0.0887327 0
M  V30 1804 C 170.777 4.28317 -1.40909 0
M  V30 1805 C 169.439 4.47437 -1.77069 0
M  V30 1806 C 171.791 4.6867 -2.28031 0
M  V30 1807 C 169.119 5.04171 -3.00047 0
M  V30 1808 C 171.471 5.26766 -3.50286 0
M  V30 1809 C 170.135 5.44104 -3.86661 0
M  V30 1810 H 169.405 0.739089 -0.0531801 0
M  V30 1811 H 172.052 1.72781 -0.825761 0
M  V30 1812 H 170.357 3.8594 0.675095 0
M  V30 1813 H 172.054 3.99807 0.309145 0
M  V30 1814 H 168.644 4.1377 -1.1177 0
M  V30 1815 H 172.828 4.53604 -2.01388 0
M  V30 1816 H 168.084 5.15782 -3.28298 0
M  V30 1817 H 172.258 5.56983 -4.18023 0
M  V30 1818 H 169.885 5.87832 -4.82034 0
M  V30 1819 N 171.46 0.379036 1.52974 0
M  V30 1820 C 172.706 -0.206727 2.01744 0
M  V30 1821 C 173.039 -1.47314 1.26539 0
M  V30 1822 O 172.314 -1.91084 0.362903 0
M  V30 1823 C 172.597 -0.485066 3.56818 0
M  V30 1824 C 172.45 0.795919 4.42702 0
M  V30 1825 C 173.769 -1.28003 4.21074 0
M  V30 1826 H 170.888 -0.0736607 0.73331 0
M  V30 1827 H 173.53 0.506581 1.83122 0
M  V30 1828 H 171.68 -1.09272 3.72816 0
M  V30 1829 H 173.352 1.43307 4.38476 0
M  V30 1830 H 171.595 1.41344 4.10127 0
M  V30 1831 H 172.266 0.555947 5.49193 0
M  V30 1832 H 174.742 -0.765867 4.08991 0
M  V30 1833 H 173.618 -1.44352 5.29579 0
M  V30 1834 H 173.879 -2.29236 3.78026 0
M  V30 1835 N 172.938 -1.57226 0.108567 0
M  V30 1836 C 174.166 -1.99179 -0.559954 0
M  V30 1837 C 174.581 -0.988022 -1.60884 0
M  V30 1838 O 173.938 0.0205512 -1.82488 0
M  V30 1839 C 173.989 -3.41159 -1.19552 0
M  V30 1840 O 173.71 -4.37694 -0.188577 0
M  V30 1841 C 175.211 -3.98188 -1.94837 0
M  V30 1842 H 172.431 -0.654228 -0.149088 0
M  V30 1843 H 174.975 -2.03598 0.19183 0
M  V30 1844 H 173.13 -3.37711 -1.89815 0
M  V30 1845 H 173.544 -5.20469 -0.649014 0
M  V30 1846 H 175.018 -4.99644 -2.34648 0
M  V30 1847 H 175.495 -3.3675 -2.81951 0
M  V30 1848 H 176.101 -4.0515 -1.2936 0
M  V30 1849 N 174.416 0.165178 -1.56732 0
M  V30 1850 C 175.663 0.880807 -1.8234 0
M  V30 1851 C 175.991 1.81977 -0.686621 0
M  V30 1852 O 175.246 1.92971 0.325697 0
M  V30 1853 C 175.545 1.70405 -3.1416 0
M  V30 1854 C 175.211 0.913475 -4.4155 0
M  V30 1855 C 173.873 0.695303 -4.7615 0
M  V30 1856 C 176.225 0.359349 -5.1996 0
M  V30 1857 C 173.553 -0.0879947 -5.86634 0
M  V30 1858 C 175.905 -0.410893 -6.31264 0
M  V30 1859 C 174.569 -0.639808 -6.64427 0
M  V30 1860 H 173.839 0.32231 -0.667231 0
M  V30 1861 H 176.486 0.145402 -1.90947 0
M  V30 1862 H 174.791 2.50903 -3.00923 0
M  V30 1863 H 176.488 2.26091 -3.31186 0
M  V30 1864 H 173.078 1.09357 -4.14414 0
M  V30 1865 H 177.262 0.515228 -4.93618 0
M  V30 1866 H 172.518 -0.27503 -6.10781 0
M  V30 1867 H 176.692 -0.847494 -6.91224 0
M  V30 1868 H 174.319 -1.24864 -7.49875 0
M  V30 1869 N 175.894 1.51508 0.433938 0
M  V30 1870 C 177.14 1.64588 1.18484 0
M  V30 1871 C 177.473 0.362666 1.90784 0
M  V30 1872 O 176.748 -0.637892 1.83742 0
M  V30 1873 C 177.031 2.85149 2.19913 0
M  V30 1874 C 176.884 4.23456 1.51674 0
M  V30 1875 C 178.203 3.01227 3.20858 0
M  V30 1876 H 175.322 0.598994 0.429389 0
M  V30 1877 H 177.964 1.84002 0.473647 0
M  V30 1878 H 176.114 2.68729 2.80566 0
M  V30 1879 H 177.786 4.51552 0.943322 0
M  V30 1880 H 176.029 4.25998 0.819035 0
M  V30 1881 H 176.7 5.03812 2.2556 0
M  V30 1882 H 179.176 3.16382 2.70263 0
M  V30 1883 H 178.052 3.87141 3.89118 0
M  V30 1884 H 178.313 2.13447 3.8716 0
M  V30 1885 N 177.372 -0.689602 1.41712 0
M  V30 1886 C 178.335 -1.78521 1.43746 0
M  V30 1887 C 179.335 -1.57436 0.327191 0
M  V30 1888 O 180.525 -1.64 0.587348 0
M  V30 1889 C 177.657 -3.16971 1.25467 0
M  V30 1890 H 178.85 -1.78108 2.41283 0
M  V30 1891 H 176.403 -0.89781 1.27942 0
M  V30 1892 H 177.138 -3.23019 0.287948 0
M  V30 1893 H 176.923 -3.33678 2.05917 0
M  V30 1894 H 178.413 -3.96935 1.2974 0
M  V30 1895 N 178.85 -1.27639 -0.924453 0
M  V30 1896 C 179.78 -1.13166 -2.04244 0
M  V30 1897 C 180.761 -0.032256 -1.70069 0
M  V30 1898 O 181.946 -0.207328 -1.9309 0
M  V30 1899 C 179.076 -0.781496 -3.38393 0
M  V30 1900 C 178.03 -1.83449 -3.86692 0
M  V30 1901 C 177.356 -1.33822 -5.17683 0
M  V30 1902 C 178.656 -3.23917 -4.09726 0
M  V30 1903 H 180.35 -2.06689 -2.1661 0
M  V30 1904 H 177.896 -0.995136 -1.04082 0
M  V30 1905 H 179.849 -0.667057 -4.16087 0
M  V30 1906 H 178.573 0.189439 -3.2605 0
M  V30 1907 H 177.232 -1.93789 -3.11193 0
M  V30 1908 H 176.88 -0.35665 -5.01734 0
M  V30 1909 H 176.58 -2.04224 -5.50968 0
M  V30 1910 H 178.104 -1.23679 -5.97943 0
M  V30 1911 H 179.518 -3.16559 -4.77978 0
M  V30 1912 H 177.915 -3.92059 -4.54324 0
M  V30 1913 H 178.985 -3.68729 -3.14908 0
M  V30 1914 N 180.328 1.1314 -1.09713 0
M  V30 1915 C 181.553 1.88862 -0.857081 0
M  V30 1916 C 181.978 1.78729 0.586304 0
M  V30 1917 O 181.336 1.13692 1.41222 0
M  V30 1918 C 181.384 3.36325 -1.30069 0
M  V30 1919 O 180.488 4.09815 -0.461007 0
M  V30 1920 H 179.829 0.587108 -0.310162 0
M  V30 1921 H 182.359 1.43129 -1.46203 0
M  V30 1922 H 182.369 3.87157 -1.28738 0
M  V30 1923 H 181.044 3.43017 -2.35185 0
M  V30 1924 H 179.621 3.68986 -0.538888 0
M  V30 1925 N 181.806 0.884767 1.30421 0
M  V30 1926 C 182.753 0.349642 2.28136 0
M  V30 1927 C 183.723 -0.560061 1.56373 0
M  V30 1928 O 184.908 -0.488524 1.8444 0
M  V30 1929 C 182.048 -0.42999 3.42411 0
M  V30 1930 C 181.161 0.508907 4.28992 0
M  V30 1931 C 180.296 -0.286301 5.30428 0
M  V30 1932 C 179.335 0.648079 6.08659 0
M  V30 1933 N 178.472 -0.111792 7.02011 0
M  V30 1934 H 183.312 1.18807 2.73293 0
M  V30 1935 H 180.849 0.597231 1.3443 0
M  V30 1936 H 182.807 -0.897923 4.07423 0
M  V30 1937 H 181.437 -1.23299 2.98324 0
M  V30 1938 H 180.489 1.09533 3.64289 0
M  V30 1939 H 181.801 1.22475 4.8353 0
M  V30 1940 H 180.955 -0.816098 6.01186 0
M  V30 1941 H 179.694 -1.03536 4.76583 0
M  V30 1942 H 178.699 1.18951 5.36778 0
M  V30 1943 H 179.924 1.39623 6.64592 0
M  V30 1944 H 177.87 -0.843395 6.50556 0
M  V30 1945 H 177.787 0.544429 7.54037 0
M  V30 1946 H 179.055 -0.622339 7.77012 0
M  V30 1947 N 183.284 -1.43765 0.645699 0
M  V30 1948 C 184.194 -2.34544 -0.0512957 0
M  V30 1949 C 185.21 -1.53455 -0.82022 0
M  V30 1950 O 186.386 -1.86133 -0.769176 0
M  V30 1951 C 183.451 -3.31636 -1.01087 0
M  V30 1952 C 182.512 -4.2863 -0.239712 0
M  V30 1953 C 181.745 -5.21084 -1.15358 0
M  V30 1954 O 181.968 -5.1779 -2.39269 0
M  V30 1955 O 180.902 -5.98593 -0.630038 0
M  V30 1956 H 184.728 -2.95624 0.695718 0
M  V30 1957 H 182.313 -1.43781 0.405882 0
M  V30 1958 H 184.195 -3.9136 -1.56254 0
M  V30 1959 H 182.87 -2.73069 -1.73824 0
M  V30 1960 H 181.777 -3.72408 0.355356 0
M  V30 1961 H 183.11 -4.90157 0.447936 0
M  V30 1962 N 184.763 -0.387143 -1.52771 0
M  V30 1963 C 185.711 0.463953 -2.27926 0
M  V30 1964 C 186.705 1.06493 -1.31741 0
M  V30 1965 O 187.911 1.00565 -1.49287 0
M  V30 1966 H 184.286 0.16837 -0.732909 0
M  V30 1967 H 186.257 -0.19141 -2.97785 0
M  V30 1968 C 185.006 1.5803 -3.09713 0
M  V30 1969 H 184.329 1.12718 -3.83581 0
M  V30 1970 H 185.769 2.15008 -3.65442 0
M  V30 1971 C 184.228 2.53509 -2.2189 0
M  V30 1972 O 184.758 3.56863 -1.84422 0
M  V30 1973 N 182.964 2.23199 -1.86093 0
M  V30 1974 H 182.511 1.39185 -2.16761 0
M  V30 1975 H 182.469 2.87333 -1.27621 0
M  V30 1976 N 186.241 1.57166 -0.116904 0
M  V30 1977 C 187.189 2.16457 0.851418 0
M  V30 1978 C 188.183 1.11323 1.27686 0
M  V30 1979 O 189.389 1.2963 1.24884 0
M  V30 1980 H 185.764 0.69271 0.292672 0
M  V30 1981 H 187.735 2.96605 0.32685 0
M  V30 1982 C 186.484 2.77689 2.09246 0
M  V30 1983 H 185.807 3.58285 1.77402 0
M  V30 1984 H 187.247 3.22716 2.7501 0
M  V30 1985 C 185.706 1.74667 2.88085 0
M  V30 1986 O 186.236 1.19877 3.83396 0
M  V30 1987 N 184.442 1.44656 2.52038 0
M  V30 1988 H 183.989 1.89402 1.74599 0
M  V30 1989 H 183.947 0.759675 3.05084 0
M  V30 1990 N 187.719 -0.156864 1.56817 0
M  V30 1991 C 189.13 -0.717916 1.72345 0
M  V30 1992 C 189.481 -1.82124 0.729747 0
M  V30 1993 O 188.606 -2.16141 -0.105781 0
M  V30 1994 C 189.201 -1.30904 3.12489 0
M  V30 1995 C 187.76 -1.81676 3.29653 0
M  V30 1996 C 186.907 -0.701349 2.68284 0
M  V30 1997 H 189.858 0.0686989 1.58551 0
M  V30 1998 H 189.879 -2.17882 3.11942 0
M  V30 1999 H 189.391 -0.505796 3.8479 0
M  V30 2000 H 187.492 -2.64598 2.62333 0
M  V30 2001 H 187.605 -1.95226 4.3752 0
M  V30 2002 H 185.969 -1.12548 2.28484 0
M  V30 2003 H 186.752 0.0902846 3.43181 0
M  V30 2004 N 189.197 -1.51736 -0.425897 0
M  V30 2005 C 190.443 -1.65214 -1.1761 0
M  V30 2006 C 190.776 -0.372778 -1.90589 0
M  V30 2007 O 190.051 0.628139 -1.84078 0
M  V30 2008 C 190.334 -2.86312 -2.18398 0
M  V30 2009 C 190.187 -4.24254 -1.49426 0
M  V30 2010 C 191.506 -3.02925 -3.19256 0
M  V30 2011 H 188.625 -0.601263 -0.426206 0
M  V30 2012 H 191.267 -1.8425 -0.463882 0
M  V30 2013 H 189.417 -2.70213 -2.79137 0
M  V30 2014 H 191.089 -4.52046 -0.919362 0
M  V30 2015 H 189.332 -4.26426 -0.796432 0
M  V30 2016 H 190.003 -5.05001 -2.22885 0
M  V30 2017 H 192.479 -3.1781 -2.68581 0
M  V30 2018 H 191.355 -3.89199 -3.8706 0
M  V30 2019 H 191.616 -2.15497 -3.86023 0
M  V30 2020 N 190.675 0.682077 -1.42076 0
M  V30 2021 C 192.086 1.26246 -1.37546 0
M  V30 2022 C 192.437 1.96092 -0.0651481 0
M  V30 2023 O 191.562 1.99587 0.836297 0
M  V30 2024 C 192.157 2.29594 -2.49143 0
M  V30 2025 C 190.716 2.83175 -2.47969 0
M  V30 2026 C 189.863 1.57395 -2.28303 0
M  V30 2027 H 192.814 0.475937 -1.51395 0
M  V30 2028 H 192.835 3.11175 -2.18976 0
M  V30 2029 H 192.347 1.78729 -3.44496 0
M  V30 2030 H 190.448 3.3818 -1.56413 0
M  V30 2031 H 190.561 3.32687 -3.44755 0
M  V30 2032 H 188.925 1.83699 -1.76428 0
M  V30 2033 H 189.708 1.08507 -3.25701 0
M  V30 2034 N 192.153 1.28127 0.917671 0
M  V30 2035 C 193.399 1.15223 1.66888 0
M  V30 2036 C 193.732 -0.299293 1.9188 0
M  V30 2037 O 193.007 -1.21805 1.51637 0
M  V30 2038 C 193.29 1.94706 3.02922 0
M  V30 2039 C 193.143 3.47898 2.85109 0
M  V30 2040 C 194.462 1.75939 4.03402 0
M  V30 2041 H 191.581 0.419946 0.605652 0
M  V30 2042 H 194.223 1.57398 1.06423 0
M  V30 2043 H 192.373 1.58864 3.54534 0
M  V30 2044 H 194.045 3.93624 2.40537 0
M  V30 2045 H 192.288 3.7373 2.20246 0
M  V30 2046 H 192.959 3.98765 3.81694 0
M  V30 2047 H 195.435 2.07209 3.60837 0
M  V30 2048 H 194.311 2.33931 4.96556 0
M  V30 2049 H 194.572 0.709877 4.36364 0
M  V30 2050 N 193.631 -1.12557 1.10312 0
M  V30 2051 C 195.042 -1.65574 0.862678 0
M  V30 2052 C 195.393 -1.86566 -0.607256 0
M  V30 2053 O 194.518 -1.59121 -1.46662 0
M  V30 2054 C 195.113 -3.00776 1.55947 0
M  V30 2055 C 193.672 -3.50748 1.36576 0
M  V30 2056 C 192.819 -2.25797 1.60968 0
M  V30 2057 H 195.77 -0.963552 1.26101 0
M  V30 2058 H 195.791 -3.67185 0.997753 0
M  V30 2059 H 195.303 -2.85465 2.62928 0
M  V30 2060 H 193.404 -3.71245 0.317531 0
M  V30 2061 H 193.517 -4.30289 2.10686 0
M  V30 2062 H 191.881 -2.32841 1.03234 0
M  V30 2063 H 192.664 -2.13043 2.69198 0
M  V30 2064 N 195.109 -0.891671 -1.2995 0
M  V30 2065 C 196.525 -0.58662 -1.48428 0
M  V30 2066 C 196.725 0.873951 -1.81561 0
M  V30 2067 O 195.781 1.65471 -1.90724 0
M  V30 2068 C 197.094 -1.50553 -2.60296 0
M  V30 2069 C 198.642 -1.50988 -2.74175 0
M  V30 2070 C 199.117 -2.41488 -3.89163 0
M  V30 2071 N 200.608 -2.39489 -3.96483 0
M  V30 2072 C 201.343 -3.06223 -4.84784 0
M  V30 2073 N 200.839 -3.82206 -5.77833 0
M  V30 2074 N 202.632 -2.95421 -4.78208 0
M  V30 2075 H 194.783 -1.83644 -1.06718 0
M  V30 2076 H 197.046 -0.786455 -0.529332 0
M  V30 2077 H 196.752 -2.54581 -2.42654 0
M  V30 2078 H 196.626 -1.22008 -3.56923 0
M  V30 2079 H 199.013 -0.47708 -2.91218 0
M  V30 2080 H 199.094 -1.83567 -1.78148 0
M  V30 2081 H 198.738 -3.44857 -3.72876 0
M  V30 2082 H 198.668 -2.06222 -4.84541 0
M  V30 2083 H 201.159 -1.84278 -3.29924 0
M  V30 2084 H 201.472 -4.302 -6.41988 0
M  V30 2085 H 199.817 -3.86313 -5.77743 0
M  V30 2086 H 203.008 -2.35581 -4.04499 0
M  V30 2087 H 203.181 -3.47704 -5.46814 0
M  V30 2088 N 196.587 1.43421 -0.653314 0
M  V30 2089 C 197.833 2.02111 -0.166992 0
M  V30 2090 C 198.166 1.51423 1.21592 0
M  V30 2091 O 197.441 0.707389 1.8118 0
M  V30 2092 C 197.724 3.5966 -0.177948 0
M  V30 2093 C 197.577 4.20579 -1.59478 0
M  V30 2094 C 198.896 4.37413 0.4856 0
M  V30 2095 H 196.015 0.734374 -0.0621557 0
M  V30 2096 H 198.657 1.70717 -0.834016 0
M  V30 2097 H 196.807 3.86537 0.390032 0
M  V30 2098 H 198.479 4.04732 -2.21336 0
M  V30 2099 H 196.722 3.77226 -2.14204 0
M  V30 2100 H 197.393 5.29665 -1.5543 0
M  V30 2101 H 199.869 4.161 0.00234528 0
M  V30 2102 H 198.745 5.47075 0.447207 0
M  V30 2103 H 199.006 4.13672 1.55974 0
M  V30 2104 N 198.065 0.39524 1.52563 0
M  V30 2105 C 199.314 -0.186321 2.00838 0
M  V30 2106 C 199.627 -1.47402 1.28577 0
M  V30 2107 O 200.833 -2.13599 1.67593 0
M  V30 2108 C 199.289 -0.382595 3.57861 0
M  V30 2109 C 198.897 0.892202 4.39026 0
M  V30 2110 C 200.641 -0.9202 4.14406 0
M  V30 2111 C 198.548 0.66388 5.87662 0
M  V30 2112 H 197.478 -0.0734041 0.750418 0
M  V30 2113 H 200.129 0.518552 1.76021 0
M  V30 2114 H 198.511 -1.14946 3.7895 0
M  V30 2115 H 199.685 1.66414 4.29701 0
M  V30 2116 H 198 1.35519 3.9373 0
M  V30 2117 H 200.597 -1.10683 5.23119 0
M  V30 2118 H 200.94 -1.89096 3.70875 0
M  V30 2119 H 201.473 -0.212751 3.97231 0
M  V30 2120 H 198.212 1.6058 6.35527 0
M  V30 2121 H 197.732 -0.0690193 5.9976 0
M  V30 2122 H 199.411 0.300699 6.46301 0
M  V30 2123 N 199.544 -1.57102 0.125237 0
M  V30 2124 C 200.955 -1.82384 -0.399142 0
M  V30 2125 C 201.306 -1.04276 -1.66195 0
M  V30 2126 O 200.431 -0.281269 -2.14564 0
M  V30 2127 C 201.026 -3.30821 -0.730932 0
M  V30 2128 C 199.585 -3.56762 -1.19992 0
M  V30 2129 C 198.732 -2.7649 -0.211792 0
M  V30 2130 H 201.683 -1.54786 0.350277 0
M  V30 2131 H 201.704 -3.4579 -1.58775 0
M  V30 2132 H 201.216 -3.87643 0.188345 0
M  V30 2133 H 199.317 -3.05305 -2.13588 0
M  V30 2134 H 199.43 -4.65317 -1.14093 0
M  V30 2135 H 197.794 -2.4489 -0.700085 0
M  V30 2136 H 198.577 -3.36073 0.700691 0
M  V30 2137 N 201.022 0.148545 -1.56898 0
M  V30 2138 C 202.299 0.890019 -1.74178 0
M  V30 2139 C 202.679 1.99407 -0.692839 0
M  V30 2140 O 202.027 2.26671 0.288505 0
M  V30 2141 C 202.237 1.43389 -3.18183 0
M  V30 2142 C 203.585 1.89791 -3.79822 0
M  V30 2143 O 204.609 1.53134 -3.21603 0
M  V30 2144 O 203.468 2.57387 -4.82093 0
M  V30 2145 H 200.562 0.420496 -0.712118 0
M  V30 2146 H 203.108 0.134591 -1.69165 0
M  V30 2147 H 201.88 0.640383 -3.86024 0
M  V30 2148 H 201.503 2.25287 -3.27615 0
M  V30 2149 N 202.5 1.5196 0.417844 0
M  V30 2150 C 203.728 1.69426 1.18753 0
M  V30 2151 C 204.143 0.399955 1.84515 0
M  V30 2152 O 203.5 -0.623288 1.71527 0
M  V30 2153 C 203.551 2.82375 2.25714 0
M  V30 2154 O 203.272 4.06793 1.62638 0
M  V30 2155 C 204.773 3.11277 3.15628 0
M  V30 2156 H 201.993 0.568031 0.357186 0
M  V30 2157 H 204.537 1.98475 0.49273 0
M  V30 2158 H 202.692 2.5587 2.90877 0
M  V30 2159 H 203.106 4.69667 2.3348 0
M  V30 2160 H 204.58 3.93843 3.86771 0
M  V30 2161 H 205.057 2.24473 3.77503 0
M  V30 2162 H 205.663 3.39515 2.56144 0
M  V30 2163 N 203.978 -0.674533 1.42435 0
M  V30 2164 C 204.888 -1.81751 1.48337 0
M  V30 2165 C 205.904 -1.69975 0.372099 0
M  V30 2166 O 207.08 -1.91521 0.62304 0
M  V30 2167 C 204.145 -3.17895 1.38361 0
M  V30 2168 C 203.206 -3.41625 2.59982 0
M  V30 2169 C 202.439 -4.71274 2.50473 0
M  V30 2170 O 202.662 -5.49197 1.54075 0
M  V30 2171 O 201.596 -4.96254 3.4061 0
M  V30 2172 H 205.422 -1.79728 2.44809 0
M  V30 2173 H 203.007 -0.830312 1.24202 0
M  V30 2174 H 204.889 -3.99136 1.35161 0
M  V30 2175 H 203.564 -3.20555 0.450144 0
M  V30 2176 H 202.471 -2.60231 2.68757 0
M  V30 2177 H 203.804 -3.43796 3.52229 0
M  V30 2178 N 205.456 -1.28612 -0.910864 0
M  V30 2179 C 206.366 -1.14643 -2.0468 0
M  V30 2180 C 207.382 -0.0723121 -1.7385 0
M  V30 2181 O 208.558 -0.282178 -1.99413 0
M  V30 2182 C 205.623 -0.812561 -3.37044 0
M  V30 2183 C 204.684 -1.96935 -3.81465 0
M  V30 2184 C 203.917 -1.65131 -5.07511 0
M  V30 2185 O 204.14 -0.567013 -5.67575 0
M  V30 2186 O 203.074 -2.49585 -5.47714 0
M  V30 2187 H 206.9 -2.1001 -2.19384 0
M  V30 2188 H 204.485 -1.07958 -1.03274 0
M  V30 2189 H 206.367 -0.640441 -4.16505 0
M  V30 2190 H 205.042 0.111426 -3.23508 0
M  V30 2191 H 203.949 -2.19664 -3.02818 0
M  V30 2192 H 205.282 -2.87414 -3.99567 0
M  V30 2193 N 206.934 1.1197 -1.10907 0
M  V30 2194 C 207.844 2.21433 -0.774896 0
M  V30 2195 C 208.86 1.72478 0.229657 0
M  V30 2196 O 210.036 2.01288 0.0672008 0
M  V30 2197 C 207.101 3.4602 -0.216986 0
M  V30 2198 C 206.162 4.09791 -1.27944 0
M  V30 2199 C 205.395 5.28431 -0.748055 0
M  V30 2200 O 205.618 5.68823 0.423833 0
M  V30 2201 O 204.552 5.82644 -1.51027 0
M  V30 2202 H 208.378 2.5242 -1.68873 0
M  V30 2203 H 205.963 1.20399 -0.884555 0
M  V30 2204 H 207.845 4.21304 0.090059 0
M  V30 2205 H 206.52 3.16698 0.669633 0
M  V30 2206 H 205.427 3.36265 -1.63941 0
M  V30 2207 H 206.76 4.4328 -2.13925 0
M  V30 2208 N 208.412 0.89855 1.29475 0
M  V30 2209 C 209.359 0.373819 2.27753 0
M  V30 2210 C 210.329 -0.543444 1.56958 0
M  V30 2211 O 211.514 -0.468934 1.84948 0
M  V30 2212 C 208.654 -0.393648 3.42848 0
M  V30 2213 C 207.767 0.554379 4.28428 0
M  V30 2214 C 206.902 -0.230026 5.30702 0
M  V30 2215 C 205.941 0.712599 6.07938 0
M  V30 2216 N 205.078 -0.0373283 7.0209 0
M  V30 2217 H 209.918 1.21699 2.72017 0
M  V30 2218 H 207.455 0.611456 1.33789 0
M  V30 2219 H 209.413 -0.85466 4.08352 0
M  V30 2220 H 208.043 -1.20128 2.99615 0
M  V30 2221 H 207.095 1.13391 3.63107 0
M  V30 2222 H 208.407 1.27597 4.82204 0
M  V30 2223 H 207.561 -0.752288 6.02018 0
M  V30 2224 H 206.3 -0.984758 4.77654 0
M  V30 2225 H 205.305 1.24637 5.35486 0
M  V30 2226 H 206.53 1.46664 6.63074 0
M  V30 2227 H 204.476 -0.774348 6.51414 0
M  V30 2228 H 204.393 0.624374 7.53417 0
M  V30 2229 H 205.661 -0.539891 7.77628 0
M  V30 2230 N 209.89 -1.43072 0.660911 0
M  V30 2231 C 210.8 -2.34585 -0.0264163 0
M  V30 2232 C 211.816 -1.54316 -0.803898 0
M  V30 2233 O 212.992 -1.86939 -0.749391 0
M  V30 2234 C 210.057 -3.32689 -0.975639 0
M  V30 2235 C 209.118 -4.2886 -0.194236 0
M  V30 2236 C 208.351 -5.22278 -1.09825 0
M  V30 2237 O 208.574 -5.20299 -2.33763 0
M  V30 2238 O 207.508 -5.99228 -0.566513 0
M  V30 2239 H 211.334 -2.94869 0.727034 0
M  V30 2240 H 208.919 -1.43342 0.42111 0
M  V30 2241 H 210.801 -3.92995 -1.52094 0
M  V30 2242 H 209.476 -2.74898 -1.70918 0
M  V30 2243 H 208.383 -3.72011 0.394835 0
M  V30 2244 H 209.716 -4.89655 0.499899 0
M  V30 2245 N 211.368 -0.403325 -1.52352 0
M  V30 2246 C 212.593 0.176499 -2.06648 0
M  V30 2247 C 213.018 1.38577 -1.27193 0
M  V30 2248 O 212.376 1.7879 -0.300637 0
M  V30 2249 C 212.424 0.511061 -3.5696 0
M  V30 2250 O 211.528 1.60294 -3.79973 0
M  V30 2251 H 210.869 0.0167337 -0.663789 0
M  V30 2252 H 213.399 -0.574848 -1.96359 0
M  V30 2253 H 213.409 0.771362 -4.00642 0
M  V30 2254 H 212.084 -0.37296 -4.14224 0
M  V30 2255 H 210.661 1.33526 -3.48174 0
M  V30 2256 N 212.846 1.57033 -0.133567 0
M  V30 2257 C 213.796 2.12641 0.822671 0
M  V30 2258 C 214.78 1.05081 1.21847 0
M  V30 2259 O 215.972 1.31287 1.18713 0
M  V30 2260 C 213.101 2.74094 2.06706 0
M  V30 2261 C 212.187 3.88757 1.69497 0
M  V30 2262 N 212.578 4.95194 1.03037 0
M  V30 2263 C 210.876 3.99213 1.98859 0
M  V30 2264 C 211.577 5.75414 0.852873 0
M  V30 2265 N 210.553 5.25726 1.3825 0
M  V30 2266 H 214.355 2.92308 0.305537 0
M  V30 2267 H 211.869 1.62256 0.0684276 0
M  V30 2268 H 213.866 3.12285 2.76195 0
M  V30 2269 H 212.526 1.95896 2.5895 0
M  V30 2270 H 213.537 5.13247 0.692669 0
M  V30 2271 H 210.214 3.32075 2.53047 0
M  V30 2272 H 211.604 6.71089 0.330091 0
M  V30 2273 N 214.325 -0.140222 1.56975 0
M  V30 2274 C 215.741 -0.493088 1.51792 0
M  V30 2275 C 215.941 -1.83013 0.843116 0
M  V30 2276 O 214.997 -2.49041 0.416493 0
M  V30 2277 C 216.31 -0.497144 2.96562 0
M  V30 2278 C 217.858 -0.582186 3.07538 0
M  V30 2279 C 218.333 -0.616838 4.53827 0
M  V30 2280 N 219.824 -0.678873 4.58198 0
M  V30 2281 C 220.559 -0.726782 5.68775 0
M  V30 2282 N 220.055 -0.733623 6.88905 0
M  V30 2283 N 221.848 -0.768179 5.56826 0
M  V30 2284 H 213.999 0.736108 1.99237 0
M  V30 2285 H 216.262 0.269182 0.90898 0
M  V30 2286 H 215.968 0.417217 3.49217 0
M  V30 2287 H 215.842 -1.33263 3.52875 0
M  V30 2288 H 218.229 -1.48697 2.54899 0
M  V30 2289 H 218.31 0.280581 2.54257 0
M  V30 2290 H 217.954 0.283812 5.07106 0
M  V30 2291 H 217.884 -1.49619 5.04898 0
M  V30 2292 H 220.375 -0.68061 3.7172 0
M  V30 2293 H 220.688 -0.772215 7.68932 0
M  V30 2294 H 219.033 -0.701389 6.91452 0
M  V30 2295 H 222.224 -0.760051 4.61888 0
M  V30 2296 H 222.397 -0.80205 6.43017 0
M  V30 2297 N 215.803 -1.52179 -0.40978 0
M  V30 2298 C 217.052 -1.65434 -1.15388 0
M  V30 2299 C 217.365 -0.390056 -1.91671 0
M  V30 2300 O 218.571 -0.402399 -2.68501 0
M  V30 2301 C 217.027 -2.92279 -2.10003 0
M  V30 2302 C 216.635 -4.25813 -1.39239 0
M  V30 2303 C 218.379 -3.14897 -2.84675 0
M  V30 2304 C 216.286 -5.43782 -2.32498 0
M  V30 2305 H 215.216 -0.616267 -0.434432 0
M  V30 2306 H 217.867 -1.78666 -0.418401 0
M  V30 2307 H 216.249 -2.72744 -2.871 0
M  V30 2308 H 217.423 -4.55828 -0.675099 0
M  V30 2309 H 215.738 -4.09292 -0.766097 0
M  V30 2310 H 218.335 -4.0021 -3.54593 0
M  V30 2311 H 218.678 -2.29103 -3.47588 0
M  V30 2312 H 219.211 -3.34901 -2.14677 0
M  V30 2313 H 215.95 -6.3192 -1.74233 0
M  V30 2314 H 215.47 -5.18106 -3.02201 0
M  V30 2315 H 217.149 -5.76834 -2.93038 0
M  V30 2316 N 217.281 0.66697 -1.42791 0
M  V30 2317 C 218.244 1.76211 -1.46568 0
M  V30 2318 C 219.244 1.56896 -0.352196 0
M  V30 2319 O 220.434 1.63044 -0.613364 0
M  V30 2320 C 217.566 3.14935 -1.30494 0
M  V30 2321 H 218.759 1.74247 -2.44086 0
M  V30 2322 H 216.312 0.877342 -1.29354 0
M  V30 2323 H 217.047 3.2252 -0.339301 0
M  V30 2324 H 216.832 3.30359 -2.11199 0
M  V30 2325 H 218.322 3.94821 -1.36038 0
M  V30 2326 N 218.759 1.29093 0.90403 0
M  V30 2327 C 220.005 1.16986 1.65656 0
M  V30 2328 C 220.338 -0.278925 1.92186 0
M  V30 2329 O 219.613 -1.2019 1.5292 0
M  V30 2330 C 219.896 1.97908 3.0084 0
M  V30 2331 C 219.749 3.50903 2.81403 0
M  V30 2332 C 221.068 1.80208 4.01513 0
M  V30 2333 H 218.187 0.426346 0.601164 0
M  V30 2334 H 220.829 1.58518 1.04747 0
M  V30 2335 H 218.979 1.62616 3.52829 0
M  V30 2336 H 220.651 3.96153 2.36348 0
M  V30 2337 H 218.894 3.76045 2.1627 0
M  V30 2338 H 219.565 4.02791 3.77443 0
M  V30 2339 H 222.041 2.11025 3.58619 0
M  V30 2340 H 220.917 2.39184 4.94047 0
M  V30 2341 H 221.178 0.756119 4.35586 0
M  V30 2342 N 220.237 -1.11381 1.11499 0
M  V30 2343 C 221.167 -2.19509 0.796125 0
M  V30 2344 C 222.148 -1.68458 -0.235796 0
M  V30 2345 O 223.333 -1.93947 -0.0991344 0
M  V30 2346 C 220.463 -3.46475 0.239205 0
M  V30 2347 C 219.417 -4.10744 1.20307 0
M  V30 2348 C 218.743 -5.32293 0.50683 0
M  V30 2349 C 220.043 -4.55597 2.55399 0
M  V30 2350 H 221.737 -2.46439 1.70024 0
M  V30 2351 H 219.283 -1.18446 0.818935 0
M  V30 2352 H 221.236 -4.214 0.00392006 0
M  V30 2353 H 219.96 -3.19006 -0.700206 0
M  V30 2354 H 218.619 -3.37813 1.42399 0
M  V30 2355 H 218.267 -5.01095 -0.437408 0
M  V30 2356 H 217.967 -5.76243 1.1497 0
M  V30 2357 H 219.491 -6.09956 0.280351 0
M  V30 2358 H 220.905 -5.21841 2.37391 0
M  V30 2359 H 219.302 -5.10363 3.15673 0
M  V30 2360 H 220.372 -3.69013 3.14575 0
M  V30 2361 N 221.715 -0.905404 -1.28997 0
M  V30 2362 C 223.131 -0.60233 -1.47798 0
M  V30 2363 C 223.331 0.854645 -1.82478 0
M  V30 2364 O 222.387 1.63439 -1.92468 0
M  V30 2365 C 223.7 -1.53306 -2.58685 0
M  V30 2366 C 225.248 -1.53887 -2.72558 0
M  V30 2367 C 225.723 -2.45602 -3.86579 0
M  V30 2368 N 227.214 -2.43681 -3.93921 0
M  V30 2369 C 227.949 -3.11347 -4.81509 0
M  V30 2370 N 227.445 -3.88313 -5.73746 0
M  V30 2371 N 229.238 -3.00476 -4.75048 0
M  V30 2372 H 221.389 -1.84765 -1.04764 0
M  V30 2373 H 223.652 -0.792025 -0.520961 0
M  V30 2374 H 223.358 -2.57141 -2.39941 0
M  V30 2375 H 223.232 -1.25787 -3.55609 0
M  V30 2376 H 225.619 -0.507941 -2.90696 0
M  V30 2377 H 225.7 -1.85447 -1.76191 0
M  V30 2378 H 225.344 -3.48792 -3.69197 0
M  V30 2379 H 225.274 -2.11349 -4.82327 0
M  V30 2380 H 227.765 -1.87767 -3.27951 0
M  V30 2381 H 228.078 -4.36985 -6.37389 0
M  V30 2382 H 226.423 -3.92419 -5.73614 0
M  V30 2383 H 229.614 -2.39858 -4.01977 0
M  V30 2384 H 229.787 -3.53485 -5.43095 0
M  V30 2385 N 223.193 1.4272 -0.668489 0
M  V30 2386 C 224.156 2.292 0.00448567 0
M  V30 2387 C 225.156 1.43001 0.735339 0
M  V30 2388 O 226.346 1.64461 0.57429 0
M  V30 2389 C 223.478 3.25375 1.01705 0
M  V30 2390 H 224.671 2.90199 -0.756608 0
M  V30 2391 H 222.224 1.50254 -0.430506 0
M  V30 2392 H 222.959 2.69301 1.80686 0
M  V30 2393 H 222.744 3.88944 0.496463 0
M  V30 2394 H 224.234 3.90245 1.48655 0
M  V30 2395 N 224.671 0.411399 1.52136 0
M  V30 2396 C 225.581 -0.419774 2.30814 0
M  V30 2397 C 226.597 -1.0515 1.38634 0
M  V30 2398 O 227.773 -1.05252 1.71709 0
M  V30 2399 C 224.838 -1.52019 3.11594 0
M  V30 2400 C 223.899 -0.91129 4.19516 0
M  V30 2401 C 223.132 -1.95927 4.96436 0
M  V30 2402 O 223.355 -3.17775 4.73683 0
M  V30 2403 O 222.289 -1.56423 5.81219 0
M  V30 2404 H 226.115 0.221805 3.02889 0
M  V30 2405 H 223.7 0.174547 1.48377 0
M  V30 2406 H 225.582 -2.15898 3.61892 0
M  V30 2407 H 224.257 -2.14633 2.42311 0
M  V30 2408 H 223.164 -0.235157 3.7336 0
M  V30 2409 H 224.497 -0.32904 4.91099 0
M  V30 2410 N 226.149 -1.5696 0.141893 0
M  V30 2411 C 227.081 -2.13619 -0.830627 0
M  V30 2412 C 228.094 -1.08439 -1.21428 0
M  V30 2413 O 229.283 -1.35734 -1.15925 0
M  V30 2414 C 226.383 -2.63978 -2.12529 0
M  V30 2415 C 225.556 -3.93504 -1.9098 0
M  V30 2416 C 224.615 -4.29225 -3.04388 0
M  V30 2417 O 223.641 -4.97641 -2.76302 0
M  V30 2418 N 224.843 -3.88393 -4.31429 0
M  V30 2419 H 227.608 -2.97691 -0.34641 0
M  V30 2420 H 225.169 -1.61846 -0.0418375 0
M  V30 2421 H 227.161 -2.84891 -2.87436 0
M  V30 2422 H 225.731 -1.84659 -2.52229 0
M  V30 2423 H 224.951 -3.81269 -1.00139 0
M  V30 2424 H 226.239 -4.78154 -1.73914 0
M  V30 2425 H 225.637 -3.33257 -4.57117 0
M  V30 2426 H 224.194 -4.14368 -5.03133 0
M  V30 2427 N 227.627 0.131896 -1.57047 0
M  V30 2428 C 229.043 0.485031 -1.52051 0
M  V30 2429 C 229.243 1.82563 -0.85281 0
M  V30 2430 O 228.299 2.48817 -0.429694 0
M  V30 2431 C 229.612 0.481409 -2.96821 0
M  V30 2432 C 231.16 0.565868 -3.07842 0
M  V30 2433 C 231.635 0.592762 -4.54148 0
M  V30 2434 N 233.126 0.654564 -4.58552 0
M  V30 2435 C 233.861 0.696608 -5.69153 0
M  V30 2436 N 233.357 0.697078 -6.89284 0
M  V30 2437 N 235.15 0.738639 -5.57226 0
M  V30 2438 H 227.301 -0.746664 -1.98843 0
M  V30 2439 H 229.564 -0.273999 -0.90754 0
M  V30 2440 H 229.27 -0.435731 -3.4899 0
M  V30 2441 H 229.144 1.3139 -3.53577 0
M  V30 2442 H 231.531 1.47343 -2.55684 0
M  V30 2443 H 231.612 -0.29406 -2.54104 0
M  V30 2444 H 231.256 -0.310701 -5.06949 0
M  V30 2445 H 231.186 1.46939 -5.05684 0
M  V30 2446 H 233.677 0.660887 -3.72076 0
M  V30 2447 H 233.99 0.731426 -7.69331 0
M  V30 2448 H 232.335 0.66471 -6.91814 0
M  V30 2449 H 235.526 0.735545 -4.62285 0
M  V30 2450 H 235.699 0.767938 -6.43434 0
M  V30 2451 N 229.106 1.52395 0.401703 0
M  V30 2452 C 230.056 1.72649 1.48917 0
M  V30 2453 C 231.04 0.580436 1.50066 0
M  V30 2454 O 232.232 0.83779 1.55917 0
M  V30 2455 C 229.361 1.88729 2.86769 0
M  V30 2456 C 228.447 3.09228 2.90239 0
M  V30 2457 N 228.838 4.31805 2.63396 0
M  V30 2458 C 227.136 3.09214 3.21408 0
M  V30 2459 C 227.837 5.13326 2.73625 0
M  V30 2460 N 226.813 4.48735 3.06819 0
M  V30 2461 H 230.615 2.65058 1.26971 0
M  V30 2462 H 228.129 1.50528 0.609504 0
M  V30 2463 H 230.126 2.01358 3.65049 0
M  V30 2464 H 228.786 0.975252 3.09708 0
M  V30 2465 H 229.797 4.60154 2.37653 0
M  V30 2466 H 226.474 2.27774 3.49893 0
M  V30 2467 H 227.864 6.21003 2.56524 0
M  V30 2468 N 230.584 -0.659388 1.43143 0
M  V30 2469 C 231.833 -1.41518 1.43721 0
M  V30 2470 C 232.146 -1.95499 0.0628176 0
M  V30 2471 O 233.352 -2.71446 -0.0539683 0
M  V30 2472 C 231.808 -2.5608 2.52885 0
M  V30 2473 C 231.416 -2.08733 3.96402 0
M  V30 2474 C 233.16 -3.3349 2.62649 0
M  V30 2475 C 231.067 -3.20469 4.97045 0
M  V30 2476 H 229.997 -0.531705 0.534608 0
M  V30 2477 H 232.648 -0.712343 1.69109 0
M  V30 2478 H 231.03 -3.28805 2.20688 0
M  V30 2479 H 232.204 -1.43059 4.3803 0
M  V30 2480 H 230.519 -1.44219 3.90627 0
M  V30 2481 H 233.116 -4.16734 3.35017 0
M  V30 2482 H 233.459 -3.8111 1.67513 0
M  V30 2483 H 233.992 -2.67842 2.94118 0
M  V30 2484 H 230.731 -2.77824 5.93712 0
M  V30 2485 H 230.251 -3.84874 4.60034 0
M  V30 2486 H 231.93 -3.85698 5.19467 0
M  V30 2487 N 232.062 -1.29571 -0.897171 0
M  V30 2488 C 233.478 -1.07637 -1.17841 0
M  V30 2489 C 233.678 0.170713 -2.00776 0
M  V30 2490 O 232.734 0.867768 -2.3712 0
M  V30 2491 C 234.047 -2.3332 -1.8969 0
M  V30 2492 C 235.595 -2.38664 -2.02505 0
M  V30 2493 C 236.07 -3.64157 -2.77765 0
M  V30 2494 N 237.561 -3.64894 -2.85318 0
M  V30 2495 C 238.296 -4.58679 -3.44094 0
M  V30 2496 N 237.792 -5.62799 -4.04017 0
M  V30 2497 N 239.585 -4.46245 -3.41793 0
M  V30 2498 H 231.736 -2.09598 -0.343883 0
M  V30 2499 H 233.999 -0.923333 -0.214848 0
M  V30 2500 H 233.705 -3.24262 -1.36187 0
M  V30 2501 H 233.579 -2.41025 -2.9015 0
M  V30 2502 H 235.966 -1.48208 -2.55183 0
M  V30 2503 H 236.047 -2.34943 -1.01171 0
M  V30 2504 H 235.691 -4.54965 -2.25763 0
M  V30 2505 H 235.621 -3.65137 -3.7945 0
M  V30 2506 H 238.112 -2.89613 -2.42761 0
M  V30 2507 H 238.425 -6.3048 -4.46895 0
M  V30 2508 H 236.77 -5.66605 -4.02472 0
M  V30 2509 H 239.961 -3.64094 -2.94199 0
M  V30 2510 H 240.134 -5.19518 -3.87304 0
M  V30 2511 N 233.54 1.10788 -1.12088 0
M  V30 2512 C 234.487 2.17025 -0.785407 0
M  V30 2513 C 235.457 1.64265 0.246191 0
M  V30 2514 O 236.642 1.90412 0.121584 0
M  V30 2515 C 233.782 3.44249 -0.242177 0
M  V30 2516 C 232.895 4.1098 -1.33115 0
M  V30 2517 C 232.03 5.25911 -0.747741 0
M  V30 2518 C 231.069 5.84538 -1.81609 0
M  V30 2519 N 230.206 6.90853 -1.25167 0
M  V30 2520 H 235.046 2.45066 -1.69548 0
M  V30 2521 H 232.583 1.20297 -0.846582 0
M  V30 2522 H 234.541 4.17101 0.0908026 0
M  V30 2523 H 233.171 3.16571 0.631072 0
M  V30 2524 H 232.223 3.36133 -1.78097 0
M  V30 2525 H 233.535 4.50601 -2.13917 0
M  V30 2526 H 232.689 6.056 -0.365216 0
M  V30 2527 H 231.428 4.87614 0.0915188 0
M  V30 2528 H 230.433 5.03522 -2.20785 0
M  V30 2529 H 231.658 6.249 -2.6585 0
M  V30 2530 H 229.604 6.54562 -0.434174 0
M  V30 2531 H 229.521 7.29166 -1.99633 0
M  V30 2532 H 230.789 7.7433 -0.896259 0
M  V30 2533 N 235.018 0.912232 1.28515 0
M  V30 2534 C 235.981 0.404223 2.25607 0
M  V30 2535 C 236.981 -0.468602 1.53821 0
M  V30 2536 O 238.171 -0.271873 1.72065 0
M  V30 2537 C 235.303 -0.420653 3.38295 0
M  V30 2538 H 236.496 1.26188 2.7206 0
M  V30 2539 H 234.049 0.691495 1.40171 0
M  V30 2540 H 234.784 -1.29777 2.97201 0
M  V30 2541 H 234.569 0.204935 3.91564 0
M  V30 2542 H 236.059 -0.766971 4.10496 0
M  V30 2543 N 236.496 -1.42363 0.676048 0
M  V30 2544 C 237.406 -2.346 -0.00153389 0
M  V30 2545 C 238.422 -1.5516 -0.787485 0
M  V30 2546 O 239.598 -1.87723 -0.729521 0
M  V30 2547 C 236.663 -3.33705 -0.940298 0
M  V30 2548 C 235.724 -4.29042 -0.148739 0
M  V30 2549 C 234.957 -5.23413 -1.04279 0
M  V30 2550 O 235.18 -5.22749 -2.28232 0
M  V30 2551 O 234.114 -5.99795 -0.502925 0
M  V30 2552 H 237.94 -2.94082 0.758268 0
M  V30 2553 H 235.525 -1.42888 0.436289 0
M  V30 2554 H 237.407 -3.94586 -1.47917 0
M  V30 2555 H 236.082 -2.76695 -1.67993 0
M  V30 2556 H 234.989 -3.71571 0.43427 0
M  V30 2557 H 236.322 -4.89097 0.551805 0
M  V30 2558 N 237.974 -0.419461 -1.51915 0
M  V30 2559 C 239.199 0.154572 -2.06823 0
M  V30 2560 C 239.624 1.3722 -1.28656 0
M  V30 2561 O 238.982 1.78461 -0.319583 0
M  V30 2562 C 239.03 0.473172 -3.57482 0
M  V30 2563 O 238.134 1.56255 -3.81652 0
M  V30 2564 H 237.475 0.0096924 -0.663929 0
M  V30 2565 H 240.005 -0.595642 -1.95738 0
M  V30 2566 H 240.015 0.728825 -4.01438 0
M  V30 2567 H 238.69 -0.416873 -4.13805 0
M  V30 2568 H 237.267 1.29825 -3.49571 0
M  V30 2569 N 239.452 1.56882 -0.150215 0
M  V30 2570 C 240.399 2.16922 0.788244 0
M  V30 2571 C 241.369 1.10303 1.24187 0
M  V30 2572 O 242.554 1.38359 1.31383 0
M  V30 2573 C 239.694 2.79754 2.02068 0
M  V30 2574 C 238.807 4.00775 1.61257 0
M  V30 2575 C 237.942 4.51595 2.79705 0
M  V30 2576 C 236.981 5.65074 2.35282 0
M  V30 2577 N 236.118 6.10499 3.4675 0
M  V30 2578 H 240.958 2.96779 0.269444 0
M  V30 2579 H 238.495 1.46599 0.12128 0
M  V30 2580 H 240.453 3.14329 2.74323 0
M  V30 2581 H 239.083 2.02536 2.51354 0
M  V30 2582 H 238.135 3.72158 0.787553 0
M  V30 2583 H 239.447 4.82978 1.24633 0
M  V30 2584 H 238.601 4.88242 3.60145 0
M  V30 2585 H 237.34 3.68406 3.19576 0
M  V30 2586 H 236.345 5.28 1.53283 0
M  V30 2587 H 237.57 6.50052 1.96493 0
M  V30 2588 H 235.516 5.30243 3.86236 0
M  V30 2589 H 235.433 6.87637 3.14152 0
M  V30 2590 H 236.701 6.51791 4.27537 0
M  V30 2591 N 240.93 -0.123565 1.57115 0
M  V30 2592 C 241.877 -1.15177 2.00007 0
M  V30 2593 C 242.847 -1.41403 0.871454 0
M  V30 2594 O 244.032 -1.53346 1.13533 0
M  V30 2595 C 241.172 -2.47436 2.40561 0
M  V30 2596 C 240.285 -2.28184 3.66819 0
M  V30 2597 C 239.42 -3.53641 3.96373 0
M  V30 2598 C 238.459 -3.29528 5.15827 0
M  V30 2599 N 237.596 -4.47175 5.41275 0
M  V30 2600 H 242.436 -0.779008 2.87638 0
M  V30 2601 H 239.973 -0.373166 1.42288 0
M  V30 2602 H 241.931 -3.24584 2.62109 0
M  V30 2603 H 240.561 -2.82614 1.55978 0
M  V30 2604 H 239.613 -1.41976 3.52912 0
M  V30 2605 H 240.925 -2.0634 4.5412 0
M  V30 2606 H 240.079 -4.39209 4.18545 0
M  V30 2607 H 238.818 -3.78512 3.07538 0
M  V30 2608 H 237.823 -2.42349 4.93505 0
M  V30 2609 H 239.048 -3.06031 6.06236 0
M  V30 2610 H 236.994 -4.72175 4.55397 0
M  V30 2611 H 236.911 -4.28419 6.22891 0
M  V30 2612 H 238.179 -5.3389 5.67963 0
M  V30 2613 N 242.408 -1.52605 -0.393616 0
M  V30 2614 C 243.654 -1.67672 -1.14079 0
M  V30 2615 C 243.987 -0.413121 -1.89755 0
M  V30 2616 O 243.262 0.588952 -1.85369 0
M  V30 2617 C 243.545 -2.9088 -2.12276 0
M  V30 2618 C 243.398 -4.27329 -1.40394 0
M  V30 2619 C 244.717 -3.09628 -3.12759 0
M  V30 2620 H 241.836 -0.610168 -0.413356 0
M  V30 2621 H 244.478 -1.85193 -0.424696 0
M  V30 2622 H 242.628 -2.76073 -2.73342 0
M  V30 2623 H 244.3 -4.53894 -0.82327 0
M  V30 2624 H 242.543 -4.2802 -0.705801 0
M  V30 2625 H 243.214 -5.09615 -2.12123 0
M  V30 2626 H 245.69 -3.23436 -2.61779 0
M  V30 2627 H 244.566 -3.97322 -3.78717 0
M  V30 2628 H 244.827 -2.23637 -3.81365 0
M  V30 2629 N 243.887 0.651787 -1.4349 0
M  V30 2630 C 244.85 1.74647 -1.48429 0
M  V30 2631 C 245.85 1.56513 -0.368817 0
M  V30 2632 O 247.04 1.62385 -0.630623 0
M  V30 2633 C 244.172 3.13533 -1.33827 0
M  V30 2634 H 245.365 1.71649 -2.4592 0
M  V30 2635 H 242.918 0.863573 -1.30277 0
M  V30 2636 H 243.653 3.22142 -0.37349 0
M  V30 2637 H 243.438 3.28101 -2.14691 0
M  V30 2638 H 244.928 3.93356 -1.40218 0
M  V30 2639 N 245.365 1.30045 0.890287 0
M  V30 2640 C 246.593 1.21472 1.67487 0
M  V30 2641 C 247.008 -0.223241 1.87476 0
M  V30 2642 O 246.365 -1.14828 1.41847 0
M  V30 2643 C 246.416 1.93394 3.05419 0
M  V30 2644 O 246.137 3.31576 2.86337 0
M  V30 2645 C 247.638 1.91414 3.99844 0
M  V30 2646 H 244.858 0.420604 0.522813 0
M  V30 2647 H 247.402 1.7158 1.11268 0
M  V30 2648 H 245.557 1.47099 3.58386 0
M  V30 2649 H 245.971 3.67929 3.73802 0
M  V30 2650 H 247.445 2.46285 4.94012 0
M  V30 2651 H 247.922 0.891833 4.3005 0
M  V30 2652 H 248.528 2.37496 3.52811 0
M  V30 2653 N 246.843 -1.10192 1.12674 0
M  V30 2654 C 247.773 -2.18652 0.819362 0
M  V30 2655 C 248.754 -1.68698 -0.217915 0
M  V30 2656 O 249.939 -1.94041 -0.0785581 0
M  V30 2657 C 247.069 -3.46202 0.27594 0
M  V30 2658 C 246.023 -4.09444 1.24656 0
M  V30 2659 C 245.349 -5.31725 0.563258 0
M  V30 2660 C 246.649 -4.52863 2.60217 0
M  V30 2661 H 248.343 -2.44622 1.72628 0
M  V30 2662 H 245.889 -1.17571 0.831451 0
M  V30 2663 H 247.842 -4.21372 0.0486149 0
M  V30 2664 H 246.566 -3.1973 -0.666331 0
M  V30 2665 H 245.225 -3.36284 1.45974 0
M  V30 2666 H 244.873 -5.0153 -0.384235 0
M  V30 2667 H 244.573 -5.74991 1.21075 0
M  V30 2668 H 246.097 -6.09624 0.34503 0
M  V30 2669 H 247.511 -5.19294 2.42913 0
M  V30 2670 H 245.908 -5.06986 3.21068 0
M  V30 2671 H 246.978 -3.65656 3.18471 0
M  V30 2672 N 248.321 -0.919034 -1.28029 0
M  V30 2673 C 249.251 -0.428581 -2.29533 0
M  V30 2674 C 250.232 0.50659 -1.62381 0
M  V30 2675 O 251.417 0.413195 -1.89753 0
M  V30 2676 C 248.547 0.327388 -3.45753 0
M  V30 2677 C 247.501 -0.519137 -4.2484 0
M  V30 2678 C 246.827 0.365486 -5.33449 0
M  V30 2679 C 248.127 -1.77914 -4.91064 0
M  V30 2680 H 249.821 -1.27687 -2.70807 0
M  V30 2681 H 247.367 -0.615428 -1.30186 0
M  V30 2682 H 249.32 0.681378 -4.15855 0
M  V30 2683 H 248.044 1.20963 -3.03374 0
M  V30 2684 H 246.703 -0.855717 -3.56473 0
M  V30 2685 H 246.351 1.24642 -4.87312 0
M  V30 2686 H 246.051 -0.197356 -5.87268 0
M  V30 2687 H 247.575 0.715241 -6.06396 0
M  V30 2688 H 248.989 -1.49374 -5.53498 0
M  V30 2689 H 247.386 -2.2848 -5.54903 0
M  V30 2690 H 248.456 -2.50382 -4.15255 0
M  V30 2691 N 249.799 1.42003 -0.683588 0
M  V30 2692 C 251.027 2.05746 -0.218182 0
M  V30 2693 C 251.442 1.51396 1.12804 0
M  V30 2694 O 250.799 0.657303 1.70252 0
M  V30 2695 C 250.85 3.61171 -0.154131 0
M  V30 2696 O 250.571 4.13508 -1.44716 0
M  V30 2697 C 252.072 4.42042 0.333713 0
M  V30 2698 H 249.292 0.662888 -0.10402 0
M  V30 2699 H 251.836 1.81987 -0.9328 0
M  V30 2700 H 249.991 3.84012 0.511231 0
M  V30 2701 H 250.405 5.07453 -1.32632 0
M  V30 2702 H 251.879 5.51028 0.327423 0
M  V30 2703 H 252.356 4.17269 1.37053 0
M  V30 2704 H 252.962 4.24239 -0.300222 0
M  V30 2705 N 251.277 0.427512 1.51691 0
M  V30 2706 C 252.524 -0.142229 2.02 0
M  V30 2707 C 252.852 -1.43566 1.31221 0
M  V30 2708 O 252.107 -1.91298 0.412744 0
M  V30 2709 C 252.406 -0.418249 3.54944 0
M  V30 2710 C 252.072 0.788187 4.43958 0
M  V30 2711 C 250.734 1.11906 4.68007 0
M  V30 2712 C 253.086 1.59347 4.96244 0
M  V30 2713 C 250.414 2.25608 5.41588 0
M  V30 2714 C 252.766 2.7214 5.71072 0
M  V30 2715 C 251.43 3.05692 5.93387 0
M  V30 2716 H 250.7 -0.0520451 0.73917 0
M  V30 2717 H 253.347 0.572697 1.82736 0
M  V30 2718 H 251.652 -1.21496 3.72486 0
M  V30 2719 H 253.349 -0.872339 3.91397 0
M  V30 2720 H 249.939 0.520344 4.2543 0
M  V30 2721 H 254.123 1.35106 4.77556 0
M  V30 2722 H 249.379 2.51929 5.57083 0
M  V30 2723 H 253.553 3.34914 6.10578 0
M  V30 2724 H 251.18 3.9391 6.50184 0
M  V30 2725 O 252.794 -1.58699 0.299458 0
M  V30 2726 H 253.485 -1.91872 -0.265495 0
M  V30 END ATOM
M  V30 BEGIN BOND
M  V30 END BOND
M  V30 END CTAB
M  END
$$$$
