drugbank_target|Q81VW8 Dihydropteroate synthase (DB03592; DB03705; DB04047; DB04196)
 OpenBabel12092120283D

  0  0  0     0  0            999 V3000
M  V30 BEGIN CTAB
M  V30 COUNTS 4350 4383 0 0 0
M  V30 BEGIN ATOM
M  V30 1 H -0.908 1.98254 -0.117106 0
M  V30 2 N 0 1.576 0 0
M  V30 3 C 0.933 2.03868 1.02534 0
M  V30 4 C 1.911 0.928543 1.3348 0
M  V30 5 O 3.095 1.19667 1.45644 0
M  V30 6 C 0.222 2.43627 2.35294 0
M  V30 7 C -0.732 3.65373 2.2001 0
M  V30 8 S 0.101 5.13292 1.52614 0
M  V30 9 C 1.257 5.56322 2.86805 0
M  V30 10 H 1.49 2.90518 0.631377 0
M  V30 11 H -0.977 1.52953 0.210867 0
M  V30 12 H 0.981 2.67203 3.11629 0
M  V30 13 H -0.358 1.57376 2.7183 0
M  V30 14 H -1.165 3.90944 3.18086 0
M  V30 15 H -1.563 3.418 1.51819 0
M  V30 16 H 0.729 5.58782 3.83104 0
M  V30 17 H 1.672 6.56266 2.65933 0
M  V30 18 H 2.08 4.83886 2.90714 0
M  V30 19 N 1.4781 -0.272755 1.55222 0
M  V30 20 C 2.7181 -1.01197 1.77591 0
M  V30 21 C 3.0821 -1.8349 0.565294 0
M  V30 22 O 4.2831 -2.60387 0.667242 0
M  V30 23 C 2.5541 -1.87096 3.04516 0
M  V30 24 S 4.1131 -2.67279 3.48004 0
M  V30 25 H 0.9311 -0.340836 0.62398 0
M  V30 26 H 3.5331 -0.282374 1.9345 0
M  V30 27 H 2.2371 -1.25565 3.90719 0
M  V30 28 H 1.7681 -2.64376 2.91323 0
M  V30 29 H 3.7831 -3.89593 3.07297 0
M  V30 30 N 2.9562 -1.48159 -0.537278 0
M  V30 31 C 4.1812 -1.59707 -1.32319 0
M  V30 32 C 4.6062 -0.254859 -1.86365 0
M  V30 33 O 3.9642 0.772378 -1.64024 0
M  V30 34 C 4.0122 -2.6412 -2.45505 0
M  V30 35 O 3.1162 -2.20774 -3.48328 0
M  V30 36 H 2.4572 -0.535791 -0.392204 0
M  V30 37 H 4.9872 -1.94092 -0.647268 0
M  V30 38 H 4.9972 -2.85166 -2.91795 0
M  V30 39 H 3.6722 -3.61567 -2.05528 0
M  V30 40 H 2.2492 -2.09911 -3.08207 0
M  V30 41 N 4.4343 0.785586 -1.36625 0
M  V30 42 C 5.3643 1.91259 -1.33949 0
M  V30 43 C 6.3453 1.68795 -0.210325 0
M  V30 44 O 7.5303 1.89854 -0.408561 0
M  V30 45 C 4.6603 3.28339 -1.13186 0
M  V30 46 C 3.6143 3.65335 -2.22967 0
M  V30 47 C 2.9403 5.00806 -1.87342 0
M  V30 48 C 4.2403 3.7352 -3.65075 0
M  V30 49 H 5.9343 1.93755 -2.28253 0
M  V30 50 H 3.4803 0.930788 -1.09874 0
M  V30 51 H 5.4333 4.06804 -1.09948 0
M  V30 52 H 4.1573 3.2624 -0.153332 0
M  V30 53 H 2.8163 2.89169 -2.25337 0
M  V30 54 H 2.4643 4.95233 -0.880545 0
M  V30 55 H 2.1643 5.26529 -2.60846 0
M  V30 56 H 3.6883 5.81687 -1.85667 0
M  V30 57 H 5.1023 4.42168 -3.64911 0
M  V30 58 H 3.4993 4.10731 -4.37516 0
M  V30 59 H 4.5693 2.74527 -3.99703 0
M  V30 60 N 5.9124 1.20967 1.01018 0
M  V30 61 C 6.8594 0.964281 2.09691 0
M  V30 62 C 7.8294 -0.107853 1.65749 0
M  V30 63 O 9.0144 0.0381987 1.90762 0
M  V30 64 C 6.1544 0.52943 3.41015 0
M  V30 65 C 5.2674 1.67043 3.98398 0
M  V30 66 C 4.4024 1.18525 5.17808 0
M  V30 67 C 3.4414 2.29892 5.67288 0
M  V30 68 N 2.5784 1.82546 6.77954 0
M  V30 69 H 7.4184 1.89463 2.30017 0
M  V30 70 H 4.9554 0.944289 1.1279 0
M  V30 71 H 6.9134 0.258588 4.16398 0
M  V30 72 H 5.5434 -0.363919 3.20742 0
M  V30 73 H 4.5954 2.05603 3.20049 0
M  V30 74 H 5.9074 2.50877 4.31117 0
M  V30 75 H 5.0614 0.870762 6.00419 0
M  V30 76 H 3.8004 0.316887 4.86669 0
M  V30 77 H 2.8054 2.6215 4.83278 0
M  V30 78 H 4.0304 3.17216 6.00459 0
M  V30 79 H 1.9764 0.980454 6.48632 0
M  V30 80 H 1.8934 2.59956 7.09901 0
M  V30 81 H 3.1614 1.54115 7.64113 0
M  V30 82 N 7.3905 -1.2043 1.01659 0
M  V30 83 C 8.6365 -1.90356 0.716674 0
M  V30 84 C 8.9915 -1.77367 -0.745557 0
M  V30 85 O 8.2845 -1.1471 -1.53467 0
M  V30 86 C 8.4785 -3.40464 1.08714 0
M  V30 87 C 8.3075 -3.6806 2.58384 0
M  V30 88 C 7.0775 -3.86775 3.25167 0
M  V30 89 C 9.2755 -3.70623 3.56572 0
M  V30 90 N 7.2575 -4.01889 4.64067 0
M  V30 91 C 8.6285 -3.91161 4.81034 0
M  V30 92 C 10.6835 -3.53586 3.50544 0
M  V30 93 C 9.3865 -3.96428 6.00198 0
M  V30 94 C 11.4125 -3.60125 4.6911 0
M  V30 95 C 10.7745 -3.81135 5.92381 0
M  V30 96 H 6.8735 -0.716226 0.313918 0
M  V30 97 H 9.4575 -1.44815 1.30141 0
M  V30 98 H 7.6285 -3.84757 0.530745 0
M  V30 99 H 9.3605 -3.97863 0.740763 0
M  V30 100 H 6.1155 -3.85156 2.75594 0
M  V30 101 H 6.5395 -4.13323 5.36184 0
M  V30 102 H 11.1815 -3.36308 2.56235 0
M  V30 103 H 8.8995 -4.12502 6.94887 0
M  V30 104 H 12.4855 -3.4825 4.66062 0
M  V30 105 H 11.3655 -3.86054 6.82592 0
M  V30 106 N 8.8686 -0.792821 -1.36206 0
M  V30 107 C 10.1456 -0.290627 -1.93429 0
M  V30 108 C 10.5256 1.21773 -1.72437 0
M  V30 109 O 9.8736 2.0108 -1.08531 0
M  V30 110 C 10.0836 -0.686973 -3.42172 0
M  V30 111 C 11.4316 -0.668643 -4.19302 0
M  V30 112 O 12.4556 -0.627658 -3.50626 0
M  V30 113 O 11.3146 -0.714597 -5.41808 0
M  V30 114 H 8.4086 -0.0727927 -0.82379 0
M  V30 115 H 10.9546 -0.875593 -1.45367 0
M  V30 116 H 9.7266 -1.72711 -3.51122 0
M  V30 117 H 9.3496 -0.0760733 -3.97527 0
M  V30 118 N 10.3467 1.47872 -0.545128 0
M  V30 119 C 11.5767 2.06589 -0.0210534 0
M  V30 120 C 11.9847 1.39997 1.27269 0
M  V30 121 O 11.3277 0.486421 1.77143 0
M  V30 122 C 11.3897 3.58574 0.257933 0
M  V30 123 C 11.0537 4.47132 -0.944573 0
M  V30 124 C 12.0507 4.85986 -1.84699 0
M  V30 125 C 9.7357 4.88821 -1.15584 0
M  V30 126 C 11.7297 5.65314 -2.94446 0
M  V30 127 C 9.4167 5.67916 -2.25642 0
M  V30 128 C 10.4147 6.06073 -3.14905 0
M  V30 129 O 10.1027 6.83578 -4.23057 0
M  V30 130 H 9.8347 0.674971 -0.0372899 0
M  V30 131 H 12.3887 1.91037 -0.754599 0
M  V30 132 H 10.6187 3.72295 1.04564 0
M  V30 133 H 12.3077 3.99356 0.72592 0
M  V30 134 H 13.0737 4.54388 -1.69577 0
M  V30 135 H 8.9527 4.58595 -0.470279 0
M  V30 136 H 12.4967 5.95016 -3.64145 0
M  V30 137 H 8.3937 5.98927 -2.40742 0
M  V30 138 H 9.1617 7.01954 -4.20954 0
M  V30 139 N 11.8248 0.280983 1.55075 0
M  V30 140 C 13.1018 -0.386207 1.91749 0
M  V30 141 C 13.4818 -1.73264 1.20594 0
M  V30 142 O 12.8298 -2.26034 0.334784 0
M  V30 143 C 13.0398 -0.520687 3.45094 0
M  V30 144 C 14.3878 -0.800865 4.16979 0
M  V30 145 O 15.4118 -0.605271 3.5102 0
M  V30 146 O 14.2708 -1.1753 5.33712 0
M  V30 147 H 11.3648 -0.212408 0.799257 0
M  V30 148 H 13.9108 0.327568 1.66509 0
M  V30 149 H 12.6828 0.426633 3.88967 0
M  V30 150 H 12.3058 -1.2837 3.76307 0
M  V30 151 N 13.3029 -1.57598 0.00835791 0
M  V30 152 C 14.2329 -2.1198 -0.979113 0
M  V30 153 C 15.2139 -1.03091 -1.35301 0
M  V30 154 O 16.3989 -1.30818 -1.43528 0
M  V30 155 C 13.5289 -2.62995 -2.26828 0
M  V30 156 C 12.4829 -3.76485 -2.03576 0
M  V30 157 C 11.8089 -4.13846 -3.38579 0
M  V30 158 C 13.1089 -5.0342 -1.39161 0
M  V30 159 H 14.8029 -2.94738 -0.526281 0
M  V30 160 H 12.3489 -1.41783 -0.251704 0
M  V30 161 H 14.3019 -2.99669 -2.96271 0
M  V30 162 H 13.0259 -1.7737 -2.7424 0
M  V30 163 H 11.6849 -3.40217 -1.36557 0
M  V30 164 H 11.3329 -3.25232 -3.83709 0
M  V30 165 H 11.0329 -4.90312 -3.23834 0
M  V30 166 H 12.5569 -4.53086 -4.09323 0
M  V30 167 H 13.9709 -5.37812 -1.98573 0
M  V30 168 H 12.3679 -5.84746 -1.34878 0
M  V30 169 H 13.4379 -4.83548 -0.361868 0
M  V30 170 N 14.781 0.264519 -1.55364 0
M  V30 171 C 16.197 0.61215 -1.47394 0
M  V30 172 C 16.397 1.89134 -0.695018 0
M  V30 173 O 15.453 2.51563 -0.217275 0
M  V30 174 C 16.766 0.731235 -2.91674 0
M  V30 175 C 18.314 0.82473 -3.01939 0
M  V30 176 C 18.789 0.975522 -4.4749 0
M  V30 177 N 20.28 1.04083 -4.51354 0
M  V30 178 C 21.015 1.17646 -5.61201 0
M  V30 179 N 20.511 1.27874 -6.80896 0
M  V30 180 N 22.304 1.20823 -5.48961 0
M  V30 181 H 14.455 -0.575456 -2.04456 0
M  V30 182 H 16.718 -0.196099 -0.927496 0
M  V30 183 H 16.424 -0.138392 -3.51428 0
M  V30 184 H 16.298 1.60883 -3.41169 0
M  V30 185 H 18.685 1.68482 -2.42276 0
M  V30 186 H 18.766 -0.0776479 -2.55682 0
M  V30 187 H 18.41 0.120058 -5.07758 0
M  V30 188 H 18.34 1.89268 -4.91412 0
M  V30 189 H 20.831 0.973846 -3.65136 0
M  V30 190 H 21.144 1.38081 -7.60364 0
M  V30 191 H 19.489 1.24863 -6.83692 0
M  V30 192 H 22.68 1.12469 -4.54388 0
M  V30 193 H 22.853 1.31049 -6.3461 0
M  V30 194 N 16.2591 1.48442 0.529413 0
M  V30 195 C 17.4991 1.58086 1.29569 0
M  V30 196 C 17.8631 0.249302 1.90375 0
M  V30 197 O 19.0641 0.220738 2.67892 0
M  V30 198 C 17.3351 2.68793 2.35552 0
M  V30 199 S 18.8941 2.98207 3.21898 0
M  V30 200 H 15.7121 0.557922 0.440732 0
M  V30 201 H 18.3141 1.85966 0.603059 0
M  V30 202 H 17.0181 3.64102 1.89363 0
M  V30 203 H 16.5491 2.42817 3.09522 0
M  V30 204 H 18.5641 2.37548 4.35644 0
M  V30 205 N 17.7372 -0.778329 1.37039 0
M  V30 206 C 18.9852 -1.53361 1.31623 0
M  V30 207 C 19.3062 -1.94739 -0.100831 0
M  V30 208 O 18.5762 -1.65797 -1.04347 0
M  V30 209 H 17.1562 -0.568794 0.484234 0
M  V30 210 H 19.8182 -0.926742 1.71457 0
M  V30 211 H 18.9142 -2.43606 1.95096 0
M  V30 212 N 19.2153 -1.21501 -1.00376 0
M  V30 213 C 20.1253 -0.991447 -2.12621 0
M  V30 214 C 21.1413 0.0568446 -1.73907 0
M  V30 215 O 22.3173 -0.13348 -2.00957 0
M  V30 216 C 19.3823 -0.560312 -3.42142 0
M  V30 217 C 18.4433 -1.68096 -3.95022 0
M  V30 218 C 17.6763 -1.2703 -5.18362 0
M  V30 219 O 17.8993 -0.144438 -5.70217 0
M  V30 220 O 16.8333 -2.08269 -5.64719 0
M  V30 221 H 20.6593 -1.93158 -2.34358 0
M  V30 222 H 18.2443 -0.999999 -1.10997 0
M  V30 223 H 20.1263 -0.329724 -4.20108 0
M  V30 224 H 18.8013 0.351089 -3.2179 0
M  V30 225 H 17.7083 -1.96597 -3.18278 0
M  V30 226 H 19.0413 -2.56983 -4.19786 0
M  V30 227 N 20.6934 1.19889 -1.02296 0
M  V30 228 C 21.9234 1.93109 -0.734332 0
M  V30 229 C 22.3314 1.75377 0.709889 0
M  V30 230 O 21.6744 1.06912 1.49384 0
M  V30 231 C 21.7364 3.45362 -0.99827 0
M  V30 232 C 21.4004 3.8686 -2.43287 0
M  V30 233 C 22.3974 3.92102 -3.41397 0
M  V30 234 C 20.0824 4.18668 -2.77529 0
M  V30 235 C 22.0764 4.28573 -4.71809 0
M  V30 236 C 19.7634 4.54813 -4.08153 0
M  V30 237 C 20.7614 4.59739 -5.05103 0
M  V30 238 O 20.4494 4.95051 -6.33388 0
M  V30 239 H 20.1814 0.620409 -0.268456 0
M  V30 240 H 22.7354 1.53144 -1.3688 0
M  V30 241 H 20.9654 3.85482 -0.306645 0
M  V30 242 H 22.6544 3.99814 -0.700234 0
M  V30 243 H 23.4204 3.67685 -3.1628 0
M  V30 244 H 19.2994 4.14021 -2.0275 0
M  V30 245 H 22.8434 4.32333 -5.4748 0
M  V30 246 H 18.7404 4.78687 -4.33047 0
M  V30 247 H 19.5084 5.1302 -6.37772 0
M  V30 248 N 22.1715 0.800033 1.35784 0
M  V30 249 C 23.3995 0.389606 2.03199 0
M  V30 250 C 23.8145 -0.997375 1.60306 0
M  V30 251 O 23.1715 -1.64154 0.797481 0
M  V30 252 C 23.2225 0.455855 3.58614 0
M  V30 253 O 22.9435 1.78815 3.99946 0
M  V30 254 C 24.4445 0.0374032 4.43284 0
M  V30 255 H 21.6645 0.159132 0.651857 0
M  V30 256 H 24.2085 1.08183 1.73541 0
M  V30 257 H 22.3635 -0.188057 3.86943 0
M  V30 258 H 22.7775 1.74636 4.94573 0
M  V30 259 H 24.2515 0.134882 5.51835 0
M  V30 260 H 24.7285 -1.01651 4.27275 0
M  V30 261 H 25.3345 0.654215 4.20238 0
M  V30 262 N 23.6496 -1.47581 0.552962 0
M  V30 263 C 24.5796 -2.32762 -0.185451 0
M  V30 264 C 25.5606 -1.43527 -0.912905 0
M  V30 265 O 26.7456 -1.72388 -0.894201 0
M  V30 266 C 23.8756 -3.25219 -1.21859 0
M  V30 267 C 22.8296 -4.23661 -0.607864 0
M  V30 268 C 22.1556 -5.05413 -1.74533 0
M  V30 269 C 23.4556 -5.20481 0.435582 0
M  V30 270 H 25.1496 -2.94749 0.525684 0
M  V30 271 H 22.6956 -1.41738 0.254251 0
M  V30 272 H 24.6486 -3.8365 -1.7433 0
M  V30 273 H 23.3726 -2.61279 -1.95961 0
M  V30 274 H 22.0316 -3.66451 -0.104489 0
M  V30 275 H 21.6796 -4.3788 -2.47529 0
M  V30 276 H 21.3796 -5.72059 -1.34249 0
M  V30 277 H 22.9036 -5.66701 -2.27338 0
M  V30 278 H 24.3176 -5.733 -0.00290157 0
M  V30 279 H 22.7146 -5.95305 0.757067 0
M  V30 280 H 23.7846 -4.66217 1.33303 0
M  V30 281 N 25.1277 -0.289203 -1.54924 0
M  V30 282 C 26.0757 0.607966 -2.24514 0
M  V30 283 C 27.0697 1.14655 -1.24702 0
M  V30 284 O 28.2757 1.09856 -1.4259 0
M  V30 285 H 24.6507 0.21464 -0.720718 0
M  V30 286 H 26.6217 -0.00164182 -2.984 0
M  V30 287 C 25.3707 1.77406 -2.99036 0
M  V30 288 H 24.6937 1.36884 -3.75637 0
M  V30 289 H 26.1337 2.37814 -3.51028 0
M  V30 290 C 24.5927 2.67107 -2.05318 0
M  V30 291 O 25.1227 3.6787 -1.61353 0
M  V30 292 N 23.3287 2.34582 -1.71521 0
M  V30 293 H 22.8757 1.52688 -2.07471 0
M  V30 294 H 22.8337 2.94867 -1.0909 0
M  V30 295 N 26.6058 1.57591 -0.0167156 0
M  V30 296 C 27.5358 2.12496 0.967858 0
M  V30 297 C 28.5168 1.03807 1.34752 0
M  V30 298 O 29.7018 1.31577 1.42833 0
M  V30 299 C 26.8318 2.64194 2.25431 0
M  V30 300 C 25.7858 3.77559 2.01576 0
M  V30 301 C 25.1118 4.15636 3.36379 0
M  V30 302 C 26.4118 5.04151 1.36489 0
M  V30 303 H 28.1058 2.95013 0.510643 0
M  V30 304 H 25.6518 1.41915 0.244181 0
M  V30 305 H 27.6048 3.01236 2.94678 0
M  V30 306 H 26.3288 1.78821 2.73296 0
M  V30 307 H 24.9878 3.40937 1.34751 0
M  V30 308 H 24.6358 3.27263 3.81979 0
M  V30 309 H 24.3358 4.92022 3.21229 0
M  V30 310 H 25.8598 4.5525 4.06915 0
M  V30 311 H 27.2738 5.38857 1.95718 0
M  V30 312 H 25.6708 5.85453 1.31776 0
M  V30 313 H 26.7408 4.83733 0.336219 0
M  V30 314 N 28.0839 -0.256276 1.55502 0
M  V30 315 C 29.0319 -1.33694 1.90338 0
M  V30 316 C 30.0259 -1.50299 0.781441 0
M  V30 317 O 31.2319 -1.51885 0.965966 0
M  V30 318 H 27.6069 -0.447483 0.60437 0
M  V30 319 H 29.5779 -1.01574 2.8058 0
M  V30 320 C 28.3269 -2.68724 2.20642 0
M  V30 321 H 27.6499 -2.56743 3.06469 0
M  V30 322 H 29.0899 -3.43237 2.48926 0
M  V30 323 C 27.5489 -3.21101 1.01959 0
M  V30 324 O 28.0789 -4.0084 0.262762 0
M  V30 325 N 26.2849 -2.79003 0.812746 0
M  V30 326 H 25.8319 -2.14271 1.42989 0
M  V30 327 H 25.7899 -3.14393 0.0203076 0
M  V30 328 N 29.562 -1.4872 -0.521534 0
M  V30 329 C 30.472 -1.66569 -1.65203 0
M  V30 330 C 31.488 -0.548197 -1.65139 0
M  V30 331 O 32.664 -0.820339 -1.83936 0
M  V30 332 C 29.729 -1.70917 -3.01642 0
M  V30 333 C 28.79 -2.94356 -3.12495 0
M  V30 334 C 28.023 -2.98487 -4.42426 0
M  V30 335 O 28.246 -2.10786 -5.30024 0
M  V30 336 O 27.18 -3.90746 -4.57822 0
M  V30 337 H 31.006 -2.62298 -1.5308 0
M  V30 338 H 28.591 -1.3222 -0.695565 0
M  V30 339 H 30.473 -1.7625 -3.82771 0
M  V30 340 H 29.148 -0.783633 -3.14071 0
M  V30 341 H 28.055 -2.94552 -2.3063 0
M  V30 342 H 29.388 -3.86322 -3.04986 0
M  V30 343 N 31.0401 0.771051 -1.3745 0
M  V30 344 C 31.9871 1.88435 -1.3327 0
M  V30 345 C 32.9571 1.64914 -0.198136 0
M  V30 346 O 34.1421 1.86821 -0.387606 0
M  V30 347 C 31.2821 3.25509 -1.14622 0
M  V30 348 C 30.3951 3.60979 -2.37314 0
M  V30 349 C 29.5301 4.87265 -2.11533 0
M  V30 350 C 28.5691 5.15469 -3.30088 0
M  V30 351 N 27.7061 6.32944 -3.03853 0
M  V30 352 H 32.5461 1.91344 -2.28455 0
M  V30 353 H 30.0831 0.935466 -1.13523 0
M  V30 354 H 32.0411 4.04582 -1.01831 0
M  V30 355 H 30.6711 3.21974 -0.230837 0
M  V30 356 H 29.7231 2.76885 -2.60842 0
M  V30 357 H 31.0351 3.77759 -3.25729 0
M  V30 358 H 30.1891 5.74244 -1.95777 0
M  V30 359 H 28.9281 4.7259 -1.20457 0
M  V30 360 H 27.9331 4.26966 -3.46382 0
M  V30 361 H 29.1581 5.32052 -4.22016 0
M  V30 362 H 27.1041 6.19625 -2.15407 0
M  V30 363 H 27.0211 6.50143 -3.85812 0
M  V30 364 H 28.2891 7.22857 -2.91716 0
M  V30 365 N 32.5182 1.22032 0.997298 0
M  V30 366 C 33.7462 1.06841 1.7718 0
M  V30 367 C 34.1612 -0.381325 1.84909 0
M  V30 368 O 33.5182 -1.26437 1.31605 0
M  V30 369 C 33.5692 1.66814 3.20711 0
M  V30 370 O 33.2902 3.06116 3.13408 0
M  V30 371 C 34.7912 1.56838 4.14628 0
M  V30 372 H 32.0112 0.374782 0.556578 0
M  V30 373 H 34.5552 1.61532 1.2541 0
M  V30 374 H 32.7102 1.16196 3.69564 0
M  V30 375 H 33.1242 3.34926 4.0364 0
M  V30 376 H 34.5982 2.03532 5.13107 0
M  V30 377 H 35.0752 0.524155 4.36061 0
M  V30 378 H 35.6812 2.06741 3.7167 0
M  V30 379 N 33.9963 -1.19345 1.0293 0
M  V30 380 C 34.9263 -2.2481 0.631105 0
M  V30 381 C 35.9073 -1.66245 -0.360104 0
M  V30 382 O 37.0923 -1.92677 -0.242726 0
M  V30 383 C 34.2223 -3.47295 -0.0184607 0
M  V30 384 C 33.1763 -4.18536 0.895073 0
M  V30 385 C 32.5023 -5.34586 0.110592 0
M  V30 386 C 33.8023 -4.73287 2.209 0
M  V30 387 H 35.4963 -2.58372 1.51275 0
M  V30 388 H 33.0423 -1.24194 0.728818 0
M  V30 389 H 34.9953 -4.20268 -0.308675 0
M  V30 390 H 33.7193 -3.12933 -0.934907 0
M  V30 391 H 32.3783 -3.47446 1.16949 0
M  V30 392 H 32.0263 -4.96469 -0.807902 0
M  V30 393 H 31.7263 -5.83183 0.719087 0
M  V30 394 H 33.2503 -6.10355 -0.172871 0
M  V30 395 H 34.6643 -5.38013 1.98028 0
M  V30 396 H 33.0613 -5.32373 2.76946 0
M  V30 397 H 34.1313 -3.91331 2.86336 0
M  V30 398 N 35.4744 -0.807222 -1.35358 0
M  V30 399 C 36.7234 -0.384376 -1.98004 0
M  V30 400 C 37.0364 1.0543 -1.64754 0
M  V30 401 O 38.2424 1.58029 -2.20769 0
M  V30 402 C 36.6984 -0.636326 -3.5423 0
M  V30 403 C 36.3064 -2.08759 -3.96388 0
M  V30 404 C 38.0504 -0.278869 -4.23583 0
M  V30 405 C 35.9574 -2.28525 -5.45463 0
M  V30 406 H 34.8874 -0.139986 -0.740891 0
M  V30 407 H 37.5384 -0.991369 -1.54415 0
M  V30 408 H 35.9204 0.0406256 -3.95979 0
M  V30 409 H 37.0944 -2.8024 -3.6579 0
M  V30 410 H 35.4094 -2.40497 -3.39926 0
M  V30 411 H 38.0064 -0.404599 -5.33167 0
M  V30 412 H 38.3494 0.775012 -4.09022 0
M  V30 413 H 38.8824 -0.909764 -3.87257 0
M  V30 414 H 35.6214 -3.32361 -5.64992 0
M  V30 415 H 35.1414 -1.61569 -5.77629 0
M  V30 416 H 36.8204 -2.10109 -6.11934 0
M  V30 417 N 36.9525 1.47285 -0.560781 0
M  V30 418 C 37.8855 2.27009 0.232821 0
M  V30 419 C 38.8635 1.34273 0.917039 0
M  V30 420 O 40.0475 1.63659 0.935315 0
M  V30 421 C 37.1745 3.11406 1.33206 0
M  V30 422 C 36.2205 4.19746 0.756019 0
M  V30 423 S 37.0535 5.34003 -0.400165 0
M  V30 424 C 38.2095 6.21964 0.700805 0
M  V30 425 H 38.4425 2.93971 -0.443683 0
M  V30 426 H 35.9755 1.50446 -0.347181 0
M  V30 427 H 37.9335 3.60601 1.96156 0
M  V30 428 H 36.5945 2.438 1.98041 0
M  V30 429 H 35.7875 4.78541 1.5816 0
M  V30 430 H 35.3895 3.73451 0.202619 0
M  V30 431 H 37.6815 6.58529 1.59202 0
M  V30 432 H 38.6245 7.07941 0.150126 0
M  V30 433 H 39.0325 5.5566 0.995083 0
M  V30 434 N 38.4306 0.297415 1.54768 0
M  V30 435 C 39.6786 -0.312295 1.99673 0
M  V30 436 C 39.9996 -1.54686 1.18732 0
M  V30 437 O 39.2696 -1.93854 0.282382 0
M  V30 438 H 37.8496 -0.118381 0.73756 0
M  V30 439 H 40.5116 0.407915 1.90583 0
M  V30 440 H 39.6076 -0.586813 3.06534 0
M  V30 441 N 39.9087 -1.5758 0.0250728 0
M  V30 442 C 41.1577 -1.90811 -0.653767 0
M  V30 443 C 41.4707 -0.90273 -1.73523 0
M  V30 444 O 42.6767 -1.12614 -2.47043 0
M  V30 445 C 41.1327 -3.38804 -1.21409 0
M  V30 446 C 40.7407 -4.47692 -0.166126 0
M  V30 447 C 42.4847 -3.81108 -1.86967 0
M  V30 448 C 40.3917 -5.86779 -0.737856 0
M  V30 449 H 39.3217 -0.712063 -0.247956 0
M  V30 450 H 41.9727 -1.83281 0.0897137 0
M  V30 451 H 40.3547 -3.41252 -2.00905 0
M  V30 452 H 41.5287 -4.56797 0.606079 0
M  V30 453 H 39.8437 -4.14565 0.390466 0
M  V30 454 H 42.4407 -4.82375 -2.30692 0
M  V30 455 H 42.7837 -3.15953 -2.71071 0
M  V30 456 H 43.3167 -3.81065 -1.14167 0
M  V30 457 H 40.0557 -6.55468 0.0649577 0
M  V30 458 H 39.5757 -5.81288 -1.47864 0
M  V30 459 H 41.2547 -6.35223 -1.22884 0
M  V30 460 N 41.3868 0.248026 -1.55636 0
M  V30 461 C 42.3168 1.31079 -1.93237 0
M  V30 462 C 43.2978 1.50264 -0.797174 0
M  V30 463 O 44.4828 1.62891 -1.05737 0
M  V30 464 C 41.6128 2.66575 -2.22609 0
M  V30 465 C 40.5668 2.62087 -3.3837 0
M  V30 466 C 39.8928 4.01369 -3.53281 0
M  V30 467 C 41.1928 2.19171 -4.7409 0
M  V30 468 H 42.8868 0.998556 -2.82257 0
M  V30 469 H 40.4328 0.47891 -1.35803 0
M  V30 470 H 42.3858 3.41057 -2.47503 0
M  V30 471 H 41.1098 2.99432 -1.30414 0
M  V30 472 H 39.7688 1.90063 -3.13483 0
M  V30 473 H 39.4168 4.31489 -2.58508 0
M  V30 474 H 39.1168 3.99254 -4.31127 0
M  V30 475 H 40.6408 4.77552 -3.80495 0
M  V30 476 H 42.0548 2.83384 -4.98363 0
M  V30 477 H 40.4518 2.2817 -5.5503 0
M  V30 478 H 41.5218 1.14336 -4.71227 0
M  V30 479 N 42.8649 1.48995 0.513639 0
M  V30 480 C 43.8129 1.65199 1.63744 0
M  V30 481 C 44.8069 0.51809 1.61283 0
M  V30 482 O 46.0129 0.697335 1.65943 0
M  V30 483 H 42.3879 0.52069 0.542574 0
M  V30 484 H 44.3589 2.59552 1.47226 0
M  V30 485 C 43.1079 1.72409 3.01945 0
M  V30 486 H 42.4309 2.59029 3.04539 0
M  V30 487 H 43.8709 1.87785 3.80148 0
M  V30 488 C 42.3299 0.46618 3.33659 0
M  V30 489 O 42.8599 -0.413744 3.99564 0
M  V30 490 N 41.0659 0.332931 2.88687 0
M  V30 491 H 40.6129 1.04996 2.35231 0
M  V30 492 H 40.5709 -0.507665 3.10274 0
M  V30 493 N 44.343 -0.763751 1.37857 0
M  V30 494 C 45.589 -1.52483 1.33704 0
M  V30 495 C 45.922 -1.94051 -0.0759612 0
M  V30 496 O 45.197 -1.64675 -1.03501 0
M  V30 497 C 45.48 -2.78441 2.28348 0
M  V30 498 C 45.333 -2.43075 3.78463 0
M  V30 499 C 46.652 -3.80415 2.21298 0
M  V30 500 H 43.771 -0.553169 0.487005 0
M  V30 501 H 46.413 -0.875562 1.68624 0
M  V30 502 H 44.563 -3.33842 1.987 0
M  V30 503 H 46.235 -1.93527 4.18742 0
M  V30 504 H 44.478 -1.75666 3.96641 0
M  V30 505 H 45.149 -3.33149 4.40132 0
M  V30 506 H 47.625 -3.34527 2.47449 0
M  V30 507 H 46.501 -4.66257 2.89647 0
M  V30 508 H 46.762 -4.25262 1.20849 0
M  V30 509 N 45.8211 -1.22559 -0.990812 0
M  V30 510 C 47.0491 -1.07779 -1.76611 0
M  V30 511 C 47.4641 0.371513 -1.85109 0
M  V30 512 O 46.8211 1.25737 -1.32274 0
M  V30 513 C 46.8721 -1.68512 -3.19822 0
M  V30 514 O 46.5931 -3.07774 -3.1178 0
M  V30 515 C 48.0941 -1.59035 -4.13791 0
M  V30 516 H 45.3141 -0.377729 -0.554583 0
M  V30 517 H 47.8581 -1.62195 -1.24551 0
M  V30 518 H 46.0131 -1.18154 -3.68942 0
M  V30 519 H 46.4271 -3.37062 -4.01858 0
M  V30 520 H 47.9011 -2.0625 -5.1202 0
M  V30 521 H 48.3781 -0.547273 -4.35777 0
M  V30 522 H 48.9841 -2.08709 -3.70568 0
M  V30 523 N 47.2992 1.18797 -1.03562 0
M  V30 524 C 48.7102 1.70322 -0.764676 0
M  V30 525 C 49.0612 1.82708 0.714996 0
M  V30 526 O 48.1862 1.50299 1.55689 0
M  V30 527 C 48.7812 3.09356 -1.38145 0
M  V30 528 C 47.3402 3.58114 -1.15895 0
M  V30 529 C 46.4872 2.34798 -1.4753 0
M  V30 530 H 49.4382 1.03543 -1.20268 0
M  V30 531 H 49.4592 3.72378 -0.781977 0
M  V30 532 H 48.9712 3.00309 -2.45837 0
M  V30 533 H 47.0722 3.72464 -0.100544 0
M  V30 534 H 47.1852 4.4184 -1.8524 0
M  V30 535 H 45.5492 2.38464 -0.894829 0
M  V30 536 H 46.3322 2.28375 -2.56319 0
M  V30 537 N 48.7773 0.814389 1.34928 0
M  V30 538 C 50.0543 0.321363 1.92942 0
M  V30 539 C 50.4343 -1.19014 1.74353 0
M  V30 540 O 49.7823 -1.99328 1.11716 0
M  V30 541 C 49.9923 0.741323 3.41036 0
M  V30 542 C 51.3403 0.735266 4.18185 0
M  V30 543 O 52.3643 0.68336 3.49584 0
M  V30 544 O 51.2233 0.800703 5.40602 0
M  V30 545 H 48.3173 0.0858893 0.822528 0
M  V30 546 H 50.8633 0.898609 1.43955 0
M  V30 547 H 49.6353 1.78276 3.4833 0
M  V30 548 H 49.2583 0.139307 3.97356 0
M  V30 549 N 50.2554 -1.46986 0.568584 0
M  V30 550 C 51.4804 -2.07335 0.0520528 0
M  V30 551 C 51.9054 -1.41675 -1.23733 0
M  V30 552 O 51.2634 -0.495623 -1.74394 0
M  V30 553 C 51.3114 -3.60417 -0.11501 0
M  V30 554 O 50.4154 -3.95309 -1.17492 0
M  V30 555 H 49.7564 -0.661597 0.0564385 0
M  V30 556 H 52.2864 -1.88837 0.787507 0
M  V30 557 H 52.2964 -4.06698 -0.325644 0
M  V30 558 H 50.9714 -4.07601 0.826675 0
M  V30 559 H 49.5484 -3.60757 -0.943869 0
M  V30 560 N 51.7335 -0.305618 -1.54608 0
M  V30 561 C 52.9805 0.302298 -2.00231 0
M  V30 562 C 53.3085 1.5354 -1.19398 0
M  V30 563 O 52.5635 1.93973 -0.259423 0
M  V30 564 C 52.8625 0.698983 -3.50498 0
M  V30 565 C 52.5285 -0.432903 -4.48817 0
M  V30 566 C 51.1905 -0.743622 -4.75419 0
M  V30 567 C 53.5425 -1.19409 -5.07337 0
M  V30 568 C 50.8705 -1.81857 -5.57804 0
M  V30 569 C 53.2225 -2.25899 -5.90891 0
M  V30 570 C 51.8865 -2.57572 -6.15803 0
M  V30 571 H 51.1565 0.110619 -0.732697 0
M  V30 572 H 53.8035 -0.425674 -1.86709 0
M  V30 573 H 52.1085 1.50711 -3.61654 0
M  V30 574 H 53.8055 1.1806 -3.83227 0
M  V30 575 H 50.3955 -0.18063 -4.28219 0
M  V30 576 H 54.5795 -0.967295 -4.86782 0
M  V30 577 H 49.8355 -2.06864 -5.75341 0
M  V30 578 H 54.0095 -2.85335 -6.35261 0
M  V30 579 H 51.6365 -3.40998 -6.7943 0
M  V30 580 N 53.2116 1.57565 -0.0334293 0
M  V30 581 C 54.4366 1.96689 0.657895 0
M  V30 582 C 54.8616 0.910057 1.64619 0
M  V30 583 O 54.2196 -0.128598 1.80843 0
M  V30 584 C 54.2676 3.34905 1.33683 0
M  V30 585 O 53.3716 3.31574 2.45219 0
M  V30 586 H 52.7126 0.641205 0.172489 0
M  V30 587 H 55.2426 2.04372 -0.0965621 0
M  V30 588 H 55.2526 3.71234 1.69262 0
M  V30 589 H 53.9276 4.11366 0.612411 0
M  V30 590 H 52.5046 3.06968 2.11719 0
M  V30 591 N 54.6897 -0.239769 1.55765 0
M  V30 592 C 55.9667 -0.990056 1.68693 0
M  V30 593 C 56.3467 -2.03107 0.5754 0
M  V30 594 O 55.6947 -2.24604 -0.42017 0
M  V30 595 C 55.9047 -1.61696 3.09282 0
M  V30 596 C 57.2527 -2.11613 3.6811 0
M  V30 597 O 58.2767 -1.71624 3.12127 0
M  V30 598 O 57.1357 -2.85057 4.66267 0
M  V30 599 H 54.2297 -0.461299 0.686391 0
M  V30 600 H 56.7757 -0.232991 1.68093 0
M  V30 601 H 55.5477 -0.864357 3.81634 0
M  V30 602 H 55.1707 -2.44005 3.13923 0
M  V30 603 N 56.1678 -1.49265 -0.50573 0
M  V30 604 C 57.4158 -1.582 -1.25766 0
M  V30 605 C 57.7368 -0.268482 -1.93143 0
M  V30 606 O 57.0068 0.711833 -1.8251 0
M  V30 607 H 55.5868 -0.582873 -0.467191 0
M  V30 608 H 58.2488 -1.85865 -0.586525 0
M  V30 609 H 57.3448 -2.37563 -2.02412 0
M  V30 610 N 57.6459 0.756429 -1.3826 0
M  V30 611 C 58.8939 1.51248 -1.34047 0
M  V30 612 C 59.2149 1.94875 0.0698372 0
M  V30 613 O 58.4849 1.67436 1.01696 0
M  V30 614 H 57.0649 0.561018 -0.493222 0
M  V30 615 H 59.7269 0.899347 -1.7291 0
M  V30 616 H 58.8229 2.40472 -1.98947 0
M  V30 617 N 59.124 1.23083 0.984299 0
M  V30 618 C 60.349 1.088 1.76571 0
M  V30 619 C 60.774 -0.356657 1.84688 0
M  V30 620 O 60.132 -1.25788 1.30565 0
M  V30 621 C 60.18 1.71371 3.17277 0
M  V30 622 O 59.284 0.973213 4.00752 0
M  V30 623 H 58.625 0.381599 0.543395 0
M  V30 624 H 61.155 1.63057 1.23587 0
M  V30 625 H 61.165 1.76449 3.67872 0
M  V30 626 H 59.84 2.76493 3.10684 0
M  V30 627 H 58.417 0.999078 3.59267 0
M  V30 628 N 60.6021 -1.18246 1.0419 0
M  V30 629 C 61.8321 -1.91916 0.764961 0
M  V30 630 C 62.2401 -1.76485 -0.681898 0
M  V30 631 O 61.5831 -1.09275 -1.47664 0
M  V30 632 C 61.6451 -3.4373 1.05309 0
M  V30 633 C 61.3091 -3.8294 2.4941 0
M  V30 634 C 62.3061 -3.86621 3.47592 0
M  V30 635 C 59.9911 -4.142 2.84155 0
M  V30 636 C 61.9851 -4.21013 4.78568 0
M  V30 637 C 59.6721 -4.48262 4.15337 0
M  V30 638 C 60.6701 -4.51645 5.12353 0
M  V30 639 O 60.3581 -4.84911 6.41183 0
M  V30 640 H 60.0901 -0.61606 0.278292 0
M  V30 641 H 62.6441 -1.50947 1.39299 0
M  V30 642 H 60.8741 -3.84946 0.367933 0
M  V30 643 H 62.5631 -3.9865 0.763752 0
M  V30 644 H 63.3291 -3.62607 3.22089 0
M  V30 645 H 59.2081 -4.10743 2.09311 0
M  V30 646 H 62.7521 -4.23568 5.54289 0
M  V30 647 H 58.6491 -4.71737 4.40607 0
M  V30 648 H 59.4171 -5.02809 6.45852 0
M  V30 649 N 62.0802 -0.821533 -1.34494 0
M  V30 650 C 63.0282 -0.230702 -2.31453 0
M  V30 651 C 64.0222 0.627793 -1.57338 0
M  V30 652 O 65.2282 0.519288 -1.72347 0
M  V30 653 H 61.6032 -0.0558577 -0.749923 0
M  V30 654 H 63.5742 -1.06332 -2.78812 0
M  V30 655 C 62.3232 0.59391 -3.4259 0
M  V30 656 H 61.6462 -0.0573588 -3.99759 0
M  V30 657 H 63.0862 0.973446 -4.12674 0
M  V30 658 C 61.5452 1.76568 -2.86924 0
M  V30 659 O 62.0752 2.8638 -2.81691 0
M  V30 660 N 60.2812 1.58198 -2.43766 0
M  V30 661 H 59.8282 0.68872 -2.48222 0
M  V30 662 H 59.7862 2.36752 -2.06871 0
M  V30 663 N 63.5583 1.46682 -0.576371 0
M  V30 664 C 64.4683 2.34032 0.163141 0
M  V30 665 C 65.4843 1.49367 0.892501 0
M  V30 666 O 66.6603 1.82252 0.857106 0
M  V30 667 C 63.7253 3.26435 1.16795 0
M  V30 668 C 62.7863 4.26998 0.443944 0
M  V30 669 C 62.0193 5.14986 1.40088 0
M  V30 670 O 62.2423 5.05785 2.637 0
M  V30 671 O 61.1763 5.94906 0.914917 0
M  V30 672 H 65.0023 2.98607 -0.55388 0
M  V30 673 H 62.5873 1.45554 -0.336821 0
M  V30 674 H 64.4693 3.83459 1.74748 0
M  V30 675 H 63.1443 2.64465 1.86655 0
M  V30 676 H 62.0513 3.7368 -0.177271 0
M  V30 677 H 63.3843 4.91736 -0.213566 0
M  V30 678 N 65.0364 0.313813 1.54444 0
M  V30 679 C 66.2824 -0.292108 2.00685 0
M  V30 680 C 66.6154 -1.52548 1.20177 0
M  V30 681 O 65.8904 -1.92452 0.281531 0
M  V30 682 C 66.1734 -0.635968 3.5444 0
M  V30 683 C 66.0264 0.607437 4.4568 0
M  V30 684 C 67.3454 -1.45747 4.15266 0
M  V30 685 H 64.4644 -0.104697 0.729526 0
M  V30 686 H 67.1064 0.428457 1.85106 0
M  V30 687 H 65.2564 -1.24986 3.67846 0
M  V30 688 H 66.9284 1.24581 4.44159 0
M  V30 689 H 65.1714 1.23822 4.15753 0
M  V30 690 H 65.8424 0.322515 5.51057 0
M  V30 691 H 68.3184 -0.938645 4.05375 0
M  V30 692 H 67.1944 -1.66683 5.2298 0
M  V30 693 H 67.4554 -2.45063 3.67963 0
M  V30 694 N 66.5145 -1.57545 0.0417849 0
M  V30 695 C 67.7915 -1.83642 -0.673433 0
M  V30 696 C 68.1715 -0.928298 -1.89594 0
M  V30 697 O 67.5195 0.0129955 -2.28496 0
M  V30 698 C 67.7295 -3.33155 -1.03964 0
M  V30 699 C 69.0775 -3.99941 -1.42592 0
M  V30 700 O 70.1015 -3.37725 -1.13226 0
M  V30 701 O 68.9605 -5.09619 -1.9736 0
M  V30 702 H 66.0545 -0.757638 -0.331533 0
M  V30 703 H 68.6005 -1.69554 0.070433 0
M  V30 704 H 67.3725 -3.9093 -0.170098 0
M  V30 705 H 66.9955 -3.52396 -1.84126 0
M  V30 706 N 67.9926 0.231505 -1.5589 0
M  V30 707 C 68.9556 1.27028 -1.90779 0
M  V30 708 C 69.9556 1.40308 -0.785507 0
M  V30 709 O 71.1456 1.38744 -1.05336 0
M  V30 710 C 68.2776 2.64566 -2.14983 0
M  V30 711 H 69.4706 0.973017 -2.83677 0
M  V30 712 H 67.0236 0.471486 -1.49019 0
M  V30 713 H 67.7586 2.99406 -1.24604 0
M  V30 714 H 67.5436 2.56305 -2.96732 0
M  V30 715 H 69.0336 3.39543 -2.43105 0
M  V30 716 N 69.4707 1.49531 0.497807 0
M  V30 717 C 70.4337 1.65916 1.58128 0
M  V30 718 C 71.4337 0.530825 1.51786 0
M  V30 719 O 72.6237 0.797342 1.54881 0
M  V30 720 C 69.7557 1.65951 2.9778 0
M  V30 721 H 70.9487 2.62556 1.44929 0
M  V30 722 H 68.5017 1.38611 0.722275 0
M  V30 723 H 69.2367 0.709065 3.16453 0
M  V30 724 H 69.0217 2.47897 3.03792 0
M  V30 725 H 70.5117 1.80673 3.76493 0
M  V30 726 N 70.9488 -0.749086 1.3866 0
M  V30 727 C 72.1948 -1.51056 1.35314 0
M  V30 728 C 72.5278 -1.94121 -0.0553751 0
M  V30 729 O 71.8028 -1.65763 -1.01749 0
M  V30 730 C 72.0858 -2.76003 2.31288 0
M  V30 731 C 71.9388 -2.39047 3.8102 0
M  V30 732 C 73.2578 -3.78046 2.2532 0
M  V30 733 H 70.3768 -0.547972 0.492844 0
M  V30 734 H 73.0188 -0.857628 1.69543 0
M  V30 735 H 71.1688 -3.31716 2.02229 0
M  V30 736 H 72.8408 -1.89074 4.20771 0
M  V30 737 H 71.0838 -1.71449 3.98482 0
M  V30 738 H 71.7548 -3.28462 4.4364 0
M  V30 739 H 74.2308 -3.31884 2.50983 0
M  V30 740 H 73.1068 -4.63159 2.94576 0
M  V30 741 H 73.3678 -4.23957 1.25352 0
M  V30 742 N 72.4269 -1.23603 -0.977757 0
M  V30 743 C 73.8429 -0.999251 -1.24447 0
M  V30 744 C 74.0429 0.298053 -1.99283 0
M  V30 745 O 73.0989 1.01681 -2.31122 0
M  V30 746 C 74.4119 -2.20784 -2.04144 0
M  V30 747 C 75.9599 -2.25303 -2.17273 0
M  V30 748 C 76.4349 -3.45755 -3.00362 0
M  V30 749 N 77.9259 -3.4601 -3.07947 0
M  V30 750 C 78.6609 -4.35868 -3.72568 0
M  V30 751 N 78.1569 -5.35966 -4.38991 0
M  V30 752 N 79.9499 -4.23605 -3.6948 0
M  V30 753 H 72.1009 -2.06986 -0.476483 0
M  V30 754 H 74.3639 -0.907801 -0.273134 0
M  V30 755 H 74.0699 -3.14945 -1.56533 0
M  V30 756 H 73.9439 -2.22085 -3.04891 0
M  V30 757 H 76.3309 -1.3168 -2.64092 0
M  V30 758 H 76.4119 -2.28033 -1.15907 0
M  V30 759 H 76.0559 -4.39687 -2.5424 0
M  V30 760 H 75.9859 -3.40266 -4.01904 0
M  V30 761 H 78.4769 -2.73588 -2.60688 0
M  V30 762 H 78.7899 -6.00783 -4.86086 0
M  V30 763 H 77.1349 -5.39863 -4.37691 0
M  V30 764 H 80.3259 -3.44647 -3.16759 0
M  V30 765 H 80.4989 -4.93836 -4.1956 0
M  V30 766 N 73.905 1.17692 -1.04816 0
M  V30 767 C 74.855 2.1952 -0.616042 0
M  V30 768 C 75.839 1.57147 0.345485 0
M  V30 769 O 77.031 1.76245 0.163325 0
M  V30 770 C 74.16 3.43298 0.0116917 0
M  V30 771 C 73.246 4.12777 -0.973435 0
M  V30 772 N 73.637 4.5814 -2.14339 0
M  V30 773 C 71.935 4.38747 -0.80108 0
M  V30 774 C 72.636 5.11713 -2.7663 0
M  V30 775 N 71.612 5.03686 -2.04453 0
M  V30 776 H 75.414 2.52293 -1.5075 0
M  V30 777 H 72.928 1.3398 -0.917776 0
M  V30 778 H 74.925 4.15519 0.339006 0
M  V30 779 H 73.585 3.12018 0.898593 0
M  V30 780 H 74.596 4.52349 -2.52191 0
M  V30 781 H 71.273 4.17485 0.0350934 0
M  V30 782 H 72.663 5.56962 -3.75823 0
M  V30 783 N 75.3831 0.828654 1.34056 0
M  V30 784 C 76.3461 0.259927 2.27721 0
M  V30 785 C 77.3461 -0.565478 1.50529 0
M  V30 786 O 78.5361 -0.38075 1.69988 0
M  V30 787 C 75.6681 -0.634944 3.34935 0
M  V30 788 H 76.8611 1.0863 2.79534 0
M  V30 789 H 74.4141 0.600951 1.44285 0
M  V30 790 H 75.1491 -1.48416 2.88346 0
M  V30 791 H 74.9341 -0.0444999 3.92075 0
M  V30 792 H 76.4241 -1.02648 4.04788 0
M  V30 793 N 76.8612 -1.46375 0.584142 0
M  V30 794 C 77.8082 -2.30323 -0.148286 0
M  V30 795 C 78.7782 -1.40703 -0.882713 0
M  V30 796 O 79.9632 -1.69651 -0.873099 0
M  V30 797 C 77.1032 -3.25196 -1.15507 0
M  V30 798 C 76.2162 -4.29915 -0.423943 0
M  V30 799 C 75.3512 -5.11914 -1.41838 0
M  V30 800 C 74.3902 -6.08381 -0.673736 0
M  V30 801 N 73.5272 -6.83242 -1.6163 0
M  V30 802 H 78.3672 -2.92427 0.573644 0
M  V30 803 H 75.9042 -1.44118 0.294703 0
M  V30 804 H 77.8622 -3.78646 -1.75166 0
M  V30 805 H 76.4922 -2.64898 -1.8447 0
M  V30 806 H 75.5442 -3.7931 0.287714 0
M  V30 807 H 76.8562 -4.98549 0.158128 0
M  V30 808 H 76.0102 -5.69648 -2.08773 0
M  V30 809 H 74.7492 -4.43243 -2.03438 0
M  V30 810 H 73.7542 -5.49799 0.00938483 0
M  V30 811 H 74.9792 -6.79071 -0.0631082 0
M  V30 812 H 72.9252 -6.1728 -2.22038 0
M  V30 813 H 72.8422 -7.48144 -1.08707 0
M  V30 814 H 74.1102 -7.45534 -2.27596 0
M  V30 815 N 78.3393 -0.321999 -1.54275 0
M  V30 816 C 79.2493 0.553631 -2.27974 0
M  V30 817 C 80.2653 1.13054 -1.32268 0
M  V30 818 O 81.4413 1.15084 -1.6528 0
M  V30 819 C 78.5063 1.69927 -3.02201 0
M  V30 820 C 77.5673 1.15433 -4.1349 0
M  V30 821 C 76.8003 2.24537 -4.84168 0
M  V30 822 O 77.0233 3.44852 -4.5435 0
M  V30 823 O 75.9573 1.90044 -5.7111 0
M  V30 824 H 79.7833 -0.0448345 -3.03667 0
M  V30 825 H 77.3683 -0.0877418 -1.49142 0
M  V30 826 H 79.2503 2.3663 -3.48689 0
M  V30 827 H 77.9253 2.28395 -2.29385 0
M  V30 828 H 76.8323 0.452436 -3.71354 0
M  V30 829 H 78.1653 0.614805 -4.88345 0
M  V30 830 N 79.8174 1.5752 -0.0501392 0
M  V30 831 C 80.7504 2.07026 0.959962 0
M  V30 832 C 81.7284 0.970539 1.30458 0
M  V30 833 O 82.9124 1.2424 1.41763 0
M  V30 834 C 80.0394 2.5099 2.27424 0
M  V30 835 C 79.0854 3.72188 2.08275 0
M  V30 836 S 79.9184 5.17888 1.36207 0
M  V30 837 C 81.0744 5.65165 2.6896 0
M  V30 838 H 81.3074 2.9238 0.538631 0
M  V30 839 H 78.8404 1.53547 0.162099 0
M  V30 840 H 80.7984 2.76982 3.02971 0
M  V30 841 H 79.4594 1.65944 2.66686 0
M  V30 842 H 78.6524 4.00866 3.05487 0
M  V30 843 H 78.2544 3.46457 1.40868 0
M  V30 844 H 80.5464 5.70687 3.65133 0
M  V30 845 H 81.4894 6.64394 2.4492 0
M  V30 846 H 81.8974 4.9289 2.75172 0
M  V30 847 N 81.2955 -0.223234 1.56011 0
M  V30 848 C 82.7115 -0.572856 1.48965 0
M  V30 849 C 82.9115 -1.87225 0.74492 0
M  V30 850 O 81.9675 -2.50899 0.283896 0
M  V30 851 C 83.2805 -0.653646 2.9351 0
M  V30 852 C 84.8285 -0.744386 3.0402 0
M  V30 853 C 85.3035 -0.856535 4.49919 0
M  V30 854 N 86.7945 -0.9208 4.53955 0
M  V30 855 C 87.5295 -1.02726 5.64123 0
M  V30 856 N 87.0255 -1.09777 6.84047 0
M  V30 857 N 88.8185 -1.06226 5.51971 0
M  V30 858 H 80.9695 0.629462 2.02858 0
M  V30 859 H 83.2325 0.220621 0.921971 0
M  V30 860 H 82.9385 0.231518 3.50937 0
M  V30 861 H 82.8125 -1.51781 3.45315 0
M  V30 862 H 85.1995 -1.61999 2.46658 0
M  V30 863 H 85.2805 0.14541 2.55386 0
M  V30 864 H 84.9245 0.0146069 5.07898 0
M  V30 865 H 84.8545 -1.76172 4.96257 0
M  V30 866 H 87.3455 -0.876694 3.6759 0
M  V30 867 H 87.6585 -1.17872 7.63758 0
M  V30 868 H 86.0035 -1.06693 6.86762 0
M  V30 869 H 89.1945 -1.00382 4.5721 0
M  V30 870 H 89.3675 -1.14177 6.37862 0
M  V30 871 N 82.7736 -1.49793 -0.48987 0
M  V30 872 C 84.0506 -1.50348 -1.25119 0
M  V30 873 C 84.4306 -0.237466 -2.0976 0
M  V30 874 O 83.7786 0.77981 -2.14782 0
M  V30 875 C 83.9886 -2.78872 -2.09837 0
M  V30 876 C 85.3366 -3.288 -2.68655 0
M  V30 877 O 86.3606 -2.80065 -2.20096 0
M  V30 878 O 85.2196 -4.13707 -3.57083 0
M  V30 879 H 82.3136 -0.602242 -0.566775 0
M  V30 880 H 84.8596 -1.62067 -0.503229 0
M  V30 881 H 83.6316 -3.62499 -1.47343 0
M  V30 882 H 83.2546 -2.70066 -2.91805 0
M  V30 883 N 84.2517 0.741722 -1.39055 0
M  V30 884 C 85.1617 1.88621 -1.39496 0
M  V30 885 C 86.1777 1.71557 -0.290578 0
M  V30 886 O 87.3537 1.94275 -0.530954 0
M  V30 887 C 84.4187 3.24134 -1.23037 0
M  V30 888 C 83.4797 3.5364 -2.43387 0
M  V30 889 C 82.7127 4.82687 -2.27703 0
M  V30 890 O 82.9357 5.55922 -1.27696 0
M  V30 891 O 81.8697 5.1194 -3.16545 0
M  V30 892 H 85.6957 1.91203 -2.35956 0
M  V30 893 H 83.2807 0.888625 -1.20099 0
M  V30 894 H 85.1627 4.0513 -1.15964 0
M  V30 895 H 83.8377 3.22337 -0.296691 0
M  V30 896 H 82.7447 2.72758 -2.56035 0
M  V30 897 H 84.0777 3.60209 -3.35425 0
M  V30 898 N 85.7298 1.2412 0.971189 0
M  V30 899 C 86.9778 1.07668 1.71032 0
M  V30 900 C 87.2988 -0.385797 1.91146 0
M  V30 901 O 86.5688 -1.27569 1.4867 0
M  V30 902 H 85.1488 0.395429 0.633755 0
M  V30 903 H 87.8108 1.55984 1.16855 0
M  V30 904 H 86.9068 1.57195 2.69622 0
M  V30 905 N 87.2079 -1.17134 1.05439 0
M  V30 906 C 88.1709 -2.19439 0.661764 0
M  V30 907 C 89.1709 -1.58199 -0.288042 0
M  V30 908 O 90.3609 -1.74053 -0.0715803 0
M  V30 909 C 87.4929 -3.40889 -0.0276209 0
M  V30 910 H 88.6859 -2.55688 1.56728 0
M  V30 911 H 86.2389 -1.31259 0.848567 0
M  V30 912 H 86.9739 -3.10187 -0.94629 0
M  V30 913 H 86.7589 -3.86586 0.655238 0
M  V30 914 H 88.2489 -4.16603 -0.288342 0
M  V30 915 N 88.686 -0.835752 -1.33615 0
M  V30 916 C 89.636 -0.238856 -2.26745 0
M  V30 917 C 90.62 0.604343 -1.49119 0
M  V30 918 O 91.812 0.456822 -1.71003 0
M  V30 919 C 88.941 0.587725 -3.38232 0
M  V30 920 C 88.027 -0.266811 -4.2326 0
M  V30 921 N 88.418 -1.34403 -4.87616 0
M  V30 922 C 86.716 -0.0533131 -4.45968 0
M  V30 923 C 87.417 -1.86819 -5.50884 0
M  V30 924 N 86.393 -1.17013 -5.30857 0
M  V30 925 H 90.195 -1.06266 -2.74016 0
M  V30 926 H 87.709 -0.679881 -1.47483 0
M  V30 927 H 89.706 1.03161 -4.03935 0
M  V30 928 H 88.366 1.40954 -2.9251 0
M  V30 929 H 89.377 -1.7269 -4.88261 0
M  V30 930 H 86.054 0.735312 -4.10974 0
M  V30 931 H 87.444 -2.7701 -6.1214 0
M  V30 932 N 90.1641 1.46063 -0.591896 0
M  V30 933 C 91.4131 2.01547 -0.0786637 0
M  V30 934 C 91.7261 1.46796 1.29268 0
M  V30 935 O 92.9321 1.94157 1.89777 0
M  V30 936 C 91.3881 3.59787 -0.0900024 0
M  V30 937 C 90.9961 4.23534 -1.46023 0
M  V30 938 C 92.7401 4.22895 0.368806 0
M  V30 939 C 90.6471 5.73881 -1.4288 0
M  V30 940 H 89.5771 0.753564 -0.0256388 0
M  V30 941 H 92.2281 1.677 -0.744905 0
M  V30 942 H 90.6101 3.90752 0.642586 0
M  V30 943 H 91.7841 4.04167 -2.21328 0
M  V30 944 H 90.0991 3.72558 -1.85982 0
M  V30 945 H 92.6961 5.33116 0.411258 0
M  V30 946 H 93.0391 3.9247 1.38827 0
M  V30 947 H 93.5721 3.9659 -0.31001 0
M  V30 948 H 90.3111 6.0898 -2.42536 0
M  V30 949 H 89.8311 5.95486 -0.718095 0
M  V30 950 H 91.5101 6.36776 -1.14565 0
M  V30 951 N 91.6422 0.330177 1.54103 0
M  V30 952 C 92.8912 -0.271336 1.99867 0
M  V30 953 C 93.2042 -1.52723 1.22209 0
M  V30 954 O 94.4102 -2.20515 1.58383 0
M  V30 955 C 92.8662 -0.534032 3.55916 0
M  V30 956 C 92.4742 0.705193 4.42415 0
M  V30 957 C 94.2182 -1.09514 4.1013 0
M  V30 958 C 92.1252 0.414035 5.89949 0
M  V30 959 H 91.0552 -0.105166 0.74663 0
M  V30 960 H 93.7062 0.443429 1.78062 0
M  V30 961 H 92.0882 -1.30915 3.73734 0
M  V30 962 H 93.2622 1.4804 4.36372 0
M  V30 963 H 91.5772 1.18698 3.99124 0
M  V30 964 H 94.1742 -1.3277 5.17954 0
M  V30 965 H 94.5172 -2.04656 3.62521 0
M  V30 966 H 95.0502 -0.381038 3.95971 0
M  V30 967 H 91.7892 1.33481 6.41766 0
M  V30 968 H 91.3092 -0.323336 5.98928 0
M  V30 969 H 92.9882 0.0263105 6.46995 0
M  V30 970 N 93.1203 -1.57491 0.0584922 0
M  V30 971 C 94.3973 -1.84346 -0.653918 0
M  V30 972 C 94.7773 -0.948355 -1.88599 0
M  V30 973 O 94.1253 -0.0112403 -2.28497 0
M  V30 974 C 94.3353 -3.34239 -1.00425 0
M  V30 975 C 95.6833 -4.01431 -1.38342 0
M  V30 976 O 96.7073 -3.38907 -1.09637 0
M  V30 977 O 95.5663 -5.11683 -1.91943 0
M  V30 978 H 92.6603 -0.761112 -0.323478 0
M  V30 979 H 95.2063 -1.6947 0.0884125 0
M  V30 980 H 93.9783 -3.91089 -0.128625 0
M  V30 981 H 93.6013 -3.54329 -1.80378 0
M  V30 982 N 94.5984 0.214957 -1.56127 0
M  V30 983 C 95.8474 0.936451 -1.78643 0
M  V30 984 C 96.1604 1.85237 -0.628229 0
M  V30 985 O 97.3664 2.613 -0.737186 0
M  V30 986 C 95.8224 1.7154 -3.16389 0
M  V30 987 C 95.4304 0.845299 -4.39953 0
M  V30 988 C 97.1744 2.42772 -3.48227 0
M  V30 989 C 95.0814 1.62198 -5.68723 0
M  V30 990 H 94.0114 0.353401 -0.666051 0
M  V30 991 H 96.6624 0.190169 -1.82512 0
M  V30 992 H 95.0444 2.50484 -3.06715 0
M  V30 993 H 96.2184 0.0959353 -4.607 0
M  V30 994 H 94.5334 0.244789 -4.1568 0
M  V30 995 H 97.1304 3.01394 -4.41663 0
M  V30 996 H 97.4734 3.15984 -2.71035 0
M  V30 997 H 98.0064 1.70813 -3.5926 0
M  V30 998 H 94.7454 0.933011 -6.48826 0
M  V30 999 H 94.2654 2.34579 -5.52026 0
M  V30 1000 H 95.9444 2.18095 -6.09133 0
M  V30 1001 N 96.0765 1.50051 0.48192 0
M  V30 1002 C 97.3245 1.60181 1.23234 0
M  V30 1003 C 97.6455 0.299176 1.92691 0
M  V30 1004 O 96.9155 -0.682708 1.83619 0
M  V30 1005 H 95.4955 0.590232 0.457859 0
M  V30 1006 H 98.1575 1.86775 0.556881 0
M  V30 1007 H 97.2535 2.40753 1.98607 0
M  V30 1008 N 97.5546 -0.734337 1.39446 0
M  V30 1009 C 98.8026 -1.49096 1.36436 0
M  V30 1010 C 99.1236 -1.94961 -0.0388255 0
M  V30 1011 O 98.3936 -1.69033 -0.990191 0
M  V30 1012 H 96.9736 -0.5531 0.502085 0
M  V30 1013 H 99.6356 -0.871725 1.74319 0
M  V30 1014 H 98.7316 -2.37276 2.02747 0
M  V30 1015 N 99.0327 -1.24633 -0.964593 0
M  V30 1016 C 99.9427 -1.05859 -2.09359 0
M  V30 1017 C 100.959 0.00148855 -1.74 0
M  V30 1018 O 102.135 -0.197346 -2.00431 0
M  V30 1019 C 99.1997 -0.668879 -3.40187 0
M  V30 1020 C 98.2607 -1.80578 -3.89474 0
M  V30 1021 C 97.4937 -1.43457 -5.14058 0
M  V30 1022 O 97.7167 -0.325775 -5.69469 0
M  V30 1023 O 96.6507 -2.2613 -5.57807 0
M  V30 1024 H 100.477 -2.00516 -2.28094 0
M  V30 1025 H 98.0617 -1.03481 -1.0776 0
M  V30 1026 H 99.9437 -0.463211 -4.18846 0
M  V30 1027 H 98.6187 0.248536 -3.22744 0
M  V30 1028 H 97.5257 -2.06623 -3.11862 0
M  V30 1029 H 98.8587 -2.70208 -4.11398 0
M  V30 1030 N 100.511 1.16574 -1.06058 0
M  V30 1031 C 101.736 1.91493 -0.796562 0
M  V30 1032 C 102.161 1.76773 0.642868 0
M  V30 1033 O 101.519 1.09142 1.44768 0
M  V30 1034 C 101.567 3.40293 -1.19303 0
M  V30 1035 O 100.671 4.11074 -0.330394 0
M  V30 1036 H 100.012 0.596678 -0.291326 0
M  V30 1037 H 102.542 1.47708 -1.41575 0
M  V30 1038 H 102.552 3.91057 -1.16356 0
M  V30 1039 H 101.227 3.50326 -2.24153 0
M  V30 1040 H 99.8038 3.70513 -0.421225 0
M  V30 1041 N 101.989 0.842826 1.3317 0
M  V30 1042 C 103.217 0.454055 2.01856 0
M  V30 1043 C 103.632 -0.94587 1.63397 0
M  V30 1044 O 102.989 -1.61534 0.849302 0
M  V30 1045 C 103.04 0.569715 3.56982 0
M  V30 1046 O 102.761 1.91448 3.94055 0
M  V30 1047 C 104.262 0.178412 4.42941 0
M  V30 1048 H 101.482 0.17979 0.646465 0
M  V30 1049 H 104.026 1.1365 1.70012 0
M  V30 1050 H 102.181 -0.0648587 3.87346 0
M  V30 1051 H 102.595 1.90282 4.88767 0
M  V30 1052 H 104.069 0.310376 5.51127 0
M  V30 1053 H 104.546 -0.880056 4.30293 0
M  V30 1054 H 105.152 0.787579 4.17944 0
M  V30 1055 N 103.467 -1.45747 0.599634 0
M  V30 1056 C 104.883 -1.57424 0.26264 0
M  V30 1057 C 105.083 -1.59222 -1.23493 0
M  V30 1058 O 104.139 -1.51825 -2.01756 0
M  V30 1059 C 105.452 -2.86061 0.926795 0
M  V30 1060 C 107 -2.99722 0.901967 0
M  V30 1061 C 107.475 -4.31119 1.54598 0
M  V30 1062 N 108.966 -4.37858 1.5111 0
M  V30 1063 C 109.701 -5.3818 1.97863 0
M  V30 1064 N 109.197 -6.45083 2.52666 0
M  V30 1065 N 110.99 -5.29487 1.88679 0
M  V30 1066 H 103.141 -1.42823 1.57211 0
M  V30 1067 H 105.404 -0.68235 0.658105 0
M  V30 1068 H 105.11 -2.90605 1.98095 0
M  V30 1069 H 104.984 -3.74563 0.445238 0
M  V30 1070 H 107.371 -2.9475 -0.143617 0
M  V30 1071 H 107.452 -2.12652 1.42171 0
M  V30 1072 H 107.096 -4.36849 2.59085 0
M  V30 1073 H 107.026 -5.16992 1.00132 0
M  V30 1074 H 109.517 -3.61209 1.11068 0
M  V30 1075 H 109.83 -7.17869 2.86155 0
M  V30 1076 H 108.175 -6.45856 2.56701 0
M  V30 1077 H 111.366 -4.44877 1.4561 0
M  V30 1078 H 111.539 -6.07524 2.25429 0
M  V30 1079 N 104.945 -0.338344 -1.53925 0
M  V30 1080 C 106.356 0.146651 -1.86123 0
M  V30 1081 C 106.707 1.5042 -1.2597 0
M  V30 1082 O 105.832 2.08723 -0.571294 0
M  V30 1083 C 106.427 0.272879 -3.37699 0
M  V30 1084 C 104.986 0.702103 -3.69794 0
M  V30 1085 C 104.133 -0.167304 -2.76795 0
M  V30 1086 H 107.084 -0.558123 -1.48562 0
M  V30 1087 H 107.105 1.10128 -3.64214 0
M  V30 1088 H 106.617 -0.715307 -3.81451 0
M  V30 1089 H 104.718 1.6995 -3.31584 0
M  V30 1090 H 104.831 0.495604 -4.7653 0
M  V30 1091 H 103.195 0.359527 -2.5215 0
M  V30 1092 H 103.978 -1.15253 -3.23375 0
M  V30 1093 N 106.423 1.57458 -0.0668435 0
M  V30 1094 C 107.671 1.92919 0.602214 0
M  V30 1095 C 107.992 0.947215 1.70449 0
M  V30 1096 O 107.262 -0.00544117 1.95899 0
M  V30 1097 H 105.842 0.71217 0.22544 0
M  V30 1098 H 108.504 1.94508 -0.123535 0
M  V30 1099 H 107.6 2.94589 1.03073 0
M  V30 1100 N 107.901 -0.206675 1.56239 0
M  V30 1101 C 109.148 -0.928842 1.79941 0
M  V30 1102 C 109.476 -1.83734 0.638131 0
M  V30 1103 O 108.731 -1.92039 -0.376746 0
M  V30 1104 C 109.03 -1.78675 3.09532 0
M  V30 1105 C 108.696 -1.03022 4.38973 0
M  V30 1106 C 107.358 -0.821302 4.74139 0
M  V30 1107 C 109.71 -0.497081 5.18824 0
M  V30 1108 C 107.038 -0.0675719 5.86661 0
M  V30 1109 C 109.39 0.24338 6.32132 0
M  V30 1110 C 108.054 0.463422 6.65889 0
M  V30 1111 H 107.324 -0.339887 0.658451 0
M  V30 1112 H 109.971 -0.195977 1.90495 0
M  V30 1113 H 108.276 -2.58794 2.94165 0
M  V30 1114 H 109.973 -2.34792 3.25075 0
M  V30 1115 H 106.563 -1.20306 4.11369 0
M  V30 1116 H 110.747 -0.645921 4.92079 0
M  V30 1117 H 106.003 0.112995 6.11296 0
M  V30 1118 H 110.177 0.66393 6.93228 0
M  V30 1119 H 107.804 1.04938 7.52922 0
M  V30 1120 N 109.379 -1.50304 -0.473955 0
M  V30 1121 C 110.342 -1.6841 -1.55469 0
M  V30 1122 C 111.342 -0.554905 -1.50922 0
M  V30 1123 O 112.532 -0.821882 -1.53593 0
M  V30 1124 C 109.664 -1.70667 -2.95102 0
M  V30 1125 H 110.857 -2.64828 -1.40733 0
M  V30 1126 H 108.41 -1.39742 -0.700132 0
M  V30 1127 H 109.145 -0.75932 -3.15285 0
M  V30 1128 H 108.93 -2.52698 -2.9981 0
M  V30 1129 H 110.42 -1.8664 -3.73571 0
M  V30 1130 N 110.857 0.726932 -1.39834 0
M  V30 1131 C 111.804 1.841 -1.39197 0
M  V30 1132 C 112.774 1.642 -0.250502 0
M  V30 1133 O 113.959 1.85494 -0.446846 0
M  V30 1134 C 111.099 3.21697 -1.24919 0
M  V30 1135 C 110.212 3.53247 -2.48678 0
M  V30 1136 C 109.347 4.80289 -2.26928 0
M  V30 1137 C 108.386 5.04707 -3.4632 0
M  V30 1138 N 107.523 6.22956 -3.23836 0
M  V30 1139 H 112.363 1.83979 -2.34427 0
M  V30 1140 H 109.9 0.898876 -1.16442 0
M  V30 1141 H 111.858 4.01137 -1.1465 0
M  V30 1142 H 110.488 3.21076 -0.333153 0
M  V30 1143 H 109.54 2.68447 -2.69519 0
M  V30 1144 H 110.852 3.67205 -3.37582 0
M  V30 1145 H 110.006 5.67725 -2.13947 0
M  V30 1146 H 108.745 4.68519 -1.35431 0
M  V30 1147 H 107.75 4.1573 -3.5979 0
M  V30 1148 H 108.975 5.18357 -4.38729 0
M  V30 1149 H 106.921 6.12459 -2.35011 0
M  V30 1150 H 106.838 6.37539 -4.063 0
M  V30 1151 H 108.106 7.1321 -3.14566 0
M  V30 1152 N 112.336 1.25143 0.95797 0
M  V30 1153 C 113.582 1.09855 1.70469 0
M  V30 1154 C 113.915 -0.360187 1.90831 0
M  V30 1155 O 113.19 -1.26568 1.47685 0
M  V30 1156 C 113.473 1.8497 3.08963 0
M  V30 1157 C 113.326 3.38652 2.96032 0
M  V30 1158 C 114.645 1.63016 4.08795 0
M  V30 1159 H 111.764 0.400465 0.618706 0
M  V30 1160 H 114.406 1.53933 1.11376 0
M  V30 1161 H 112.556 1.47505 3.59409 0
M  V30 1162 H 114.228 3.85772 2.52938 0
M  V30 1163 H 112.471 3.66534 2.32025 0
M  V30 1164 H 113.142 3.8642 3.94187 0
M  V30 1165 H 115.618 1.95625 3.67247 0
M  V30 1166 H 114.494 2.18015 5.03747 0
M  V30 1167 H 114.755 0.570692 4.38401 0
M  V30 1168 N 113.814 -1.1601 1.06675 0
M  V30 1169 C 115.039 -1.91068 0.806706 0
M  V30 1170 C 115.464 -1.77112 -0.633485 0
M  V30 1171 O 114.822 -1.09908 -1.44187 0
M  V30 1172 C 114.87 -3.39655 1.21106 0
M  V30 1173 O 113.974 -4.10893 0.352189 0
M  V30 1174 H 113.315 -0.595125 0.294486 0
M  V30 1175 H 115.845 -1.46955 1.42356 0
M  V30 1176 H 115.855 -3.90434 1.18428 0
M  V30 1177 H 114.53 -3.49132 2.26008 0
M  V30 1178 H 113.107 -3.70285 0.440868 0
M  V30 1179 N 115.292 -0.849877 -1.32721 0
M  V30 1180 C 116.538 -0.451591 -1.97708 0
M  V30 1181 C 116.871 0.989175 -1.6712 0
M  V30 1182 O 116.146 1.69334 -0.956891 0
M  V30 1183 C 116.429 -0.685598 -3.53513 0
M  V30 1184 C 116.282 -2.17444 -3.93749 0
M  V30 1185 C 117.601 -0.138874 -4.39881 0
M  V30 1186 H 114.72 -0.16555 -0.718166 0
M  V30 1187 H 117.362 -1.06742 -1.57182 0
M  V30 1188 H 115.512 -0.161416 -3.88165 0
M  V30 1189 H 117.184 -2.76433 -3.693 0
M  V30 1190 H 115.427 -2.65476 -3.43081 0
M  V30 1191 H 116.098 -2.28888 -5.02309 0
M  V30 1192 H 118.574 -0.587068 -4.11938 0
M  V30 1193 H 117.45 -0.332213 -5.47894 0
M  V30 1194 H 117.711 0.95806 -4.31594 0
M  V30 1195 N 116.77 1.45427 -0.607355 0
M  V30 1196 C 117.68 2.34325 0.113463 0
M  V30 1197 C 118.696 1.51226 0.860617 0
M  V30 1198 O 119.872 1.84029 0.818255 0
M  V30 1199 C 116.937 3.28839 1.09844 0
M  V30 1200 C 115.998 4.27844 0.353271 0
M  V30 1201 C 115.231 5.17842 1.29133 0
M  V30 1202 O 115.454 5.11264 2.52913 0
M  V30 1203 O 114.388 5.96713 0.788523 0
M  V30 1204 H 118.214 2.97364 -0.617094 0
M  V30 1205 H 115.799 1.44807 -0.367619 0
M  V30 1206 H 117.681 3.8708 1.66575 0
M  V30 1207 H 116.356 2.68365 1.81003 0
M  V30 1208 H 115.263 3.7322 -0.256494 0
M  V30 1209 H 116.596 4.91173 -0.317822 0
M  V30 1210 N 118.248 0.346503 1.53744 0
M  V30 1211 C 119.158 -0.517293 2.28826 0
M  V30 1212 C 120.174 -1.10935 1.3405 0
M  V30 1213 O 121.35 -1.1244 1.6709 0
M  V30 1214 C 118.415 -1.65098 3.04866 0
M  V30 1215 C 117.476 -1.0884 4.15274 0
M  V30 1216 C 116.709 -2.16806 4.87679 0
M  V30 1217 O 116.932 -3.3758 4.59778 0
M  V30 1218 O 115.866 -1.80934 5.74061 0
M  V30 1219 H 119.692 0.0931396 3.03557 0
M  V30 1220 H 117.277 0.111458 1.48984 0
M  V30 1221 H 119.159 -2.31053 3.5241 0
M  V30 1222 H 117.834 -2.24717 2.32989 0
M  V30 1223 H 116.741 -0.3933 3.72027 0
M  V30 1224 H 118.074 -0.537036 4.89261 0
M  V30 1225 N 119.726 -1.57421 0.075193 0
M  V30 1226 C 120.636 -2.1642 -0.905511 0
M  V30 1227 C 121.652 -1.12828 -1.32461 0
M  V30 1228 O 122.828 -1.45109 -1.39661 0
M  V30 1229 C 119.893 -2.71693 -2.15369 0
M  V30 1230 C 118.954 -3.90171 -1.79068 0
M  V30 1231 C 118.187 -4.42798 -2.97936 0
M  V30 1232 O 118.41 -3.94416 -4.12058 0
M  V30 1233 O 117.344 -5.34085 -2.77555 0
M  V30 1234 H 121.17 -3.00588 -0.433626 0
M  V30 1235 H 118.755 -1.48664 -0.148067 0
M  V30 1236 H 120.637 -3.07104 -2.88557 0
M  V30 1237 H 119.312 -1.90582 -2.61649 0
M  V30 1238 H 118.219 -3.59606 -1.03122 0
M  V30 1239 H 119.552 -4.72584 -1.37569 0
M  V30 1240 N 121.204 0.198386 -1.56346 0
M  V30 1241 C 122.453 0.917451 -1.79627 0
M  V30 1242 C 122.766 1.8456 -0.64784 0
M  V30 1243 O 123.972 2.60504 -0.764859 0
M  V30 1244 C 122.428 1.68175 -3.18191 0
M  V30 1245 C 122.036 0.798589 -4.40825 0
M  V30 1246 C 123.78 2.39065 -3.50782 0
M  V30 1247 C 121.687 1.56157 -5.70411 0
M  V30 1248 H 120.617 0.346317 -0.669762 0
M  V30 1249 H 123.268 0.170801 -1.82703 0
M  V30 1250 H 121.65 2.47216 -3.09354 0
M  V30 1251 H 122.824 0.0470665 -4.60776 0
M  V30 1252 H 121.139 0.200686 -4.15916 0
M  V30 1253 H 123.736 2.96692 -4.44835 0
M  V30 1254 H 124.079 3.13091 -2.74371 0
M  V30 1255 H 124.612 1.66993 -3.61052 0
M  V30 1256 H 121.351 0.864142 -6.49779 0
M  V30 1257 H 120.871 2.2871 -5.54483 0
M  V30 1258 H 122.55 2.11622 -6.11412 0
M  V30 1259 N 122.682 1.50554 0.465978 0
M  V30 1260 C 123.629 1.6979 1.56333 0
M  V30 1261 C 124.599 0.539239 1.57103 0
M  V30 1262 O 125.784 0.770401 1.74555 0
M  V30 1263 C 122.924 1.80273 2.94271 0
M  V30 1264 C 122.037 3.07674 3.0325 0
M  V30 1265 C 121.172 3.08922 4.32135 0
M  V30 1266 C 120.211 4.30755 4.34875 0
M  V30 1267 N 119.348 4.29714 5.55239 0
M  V30 1268 H 124.188 2.63472 1.39235 0
M  V30 1269 H 121.725 1.30602 0.676873 0
M  V30 1270 H 123.683 1.84332 3.74269 0
M  V30 1271 H 122.313 0.900258 3.09992 0
M  V30 1272 H 121.365 3.13062 2.16094 0
M  V30 1273 H 122.677 3.97642 3.01135 0
M  V30 1274 H 121.831 3.11738 5.20485 0
M  V30 1275 H 120.57 2.16792 4.36866 0
M  V30 1276 H 119.575 4.28146 3.44922 0
M  V30 1277 H 120.8 5.24117 4.31831 0
M  V30 1278 H 118.746 3.4044 5.60746 0
M  V30 1279 H 118.663 5.13456 5.54886 0
M  V30 1280 H 119.931 4.36683 6.457 0
M  V30 1281 N 124.16 -0.719506 1.40217 0
M  V30 1282 C 125.576 -1.02707 1.22161 0
M  V30 1283 C 125.776 -2.0128 0.0940557 0
M  V30 1284 O 124.832 -2.46452 -0.549318 0
M  V30 1285 C 126.145 -1.57454 2.56181 0
M  V30 1286 C 127.693 -1.69458 2.63159 0
M  V30 1287 C 128.168 -2.27611 3.97438 0
M  V30 1288 N 129.659 -2.35002 3.99159 0
M  V30 1289 C 130.394 -2.80972 4.99842 0
M  V30 1290 N 129.89 -3.26723 6.10921 0
M  V30 1291 N 131.683 -2.80321 4.87213 0
M  V30 1292 H 123.834 -0.0660492 2.12297 0
M  V30 1293 H 126.097 -0.0919077 0.943534 0
M  V30 1294 H 125.803 -0.924873 3.39321 0
M  V30 1295 H 125.677 -2.56036 2.76993 0
M  V30 1296 H 128.064 -2.33543 1.80393 0
M  V30 1297 H 128.145 -0.694867 2.46181 0
M  V30 1298 H 127.789 -1.6415 4.80643 0
M  V30 1299 H 127.719 -3.2829 4.11744 0
M  V30 1300 H 130.21 -2.02685 3.18947 0
M  V30 1301 H 130.523 -3.60355 6.8364 0
M  V30 1302 H 128.868 -3.24692 6.14492 0
M  V30 1303 H 132.059 -2.43912 3.9953 0
M  V30 1304 H 132.232 -3.15831 5.65822 0
M  V30 1305 N 125.638 -1.25649 -0.95132 0
M  V30 1306 C 126.884 -1.10757 -1.69884 0
M  V30 1307 C 127.217 0.350061 -1.91019 0
M  V30 1308 O 126.492 1.25783 -1.48354 0
M  V30 1309 C 126.775 -1.86606 -3.07978 0
M  V30 1310 C 126.628 -3.40217 -2.94232 0
M  V30 1311 C 127.947 -1.65182 -4.07925 0
M  V30 1312 H 125.066 -0.40374 -0.616574 0
M  V30 1313 H 127.708 -1.54521 -1.10558 0
M  V30 1314 H 125.858 -1.49409 -3.58621 0
M  V30 1315 H 127.53 -3.87108 -2.50889 0
M  V30 1316 H 125.773 -3.67759 -2.30078 0
M  V30 1317 H 126.444 -3.88505 -3.92133 0
M  V30 1318 H 128.92 -1.9757 -3.66204 0
M  V30 1319 H 127.796 -2.20683 -5.02583 0
M  V30 1320 H 128.057 -0.593933 -4.38092 0
M  V30 1321 N 127.117 1.15442 -1.07289 0
M  V30 1322 C 128.363 1.86489 -0.796846 0
M  V30 1323 C 128.696 1.82078 0.675371 0
M  V30 1324 O 127.971 1.24346 1.4956 0
M  V30 1325 C 128.254 3.35626 -1.30489 0
M  V30 1326 C 128.107 3.48673 -2.84161 0
M  V30 1327 C 129.426 4.30357 -0.920907 0
M  V30 1328 H 126.545 0.677144 -0.290939 0
M  V30 1329 H 129.187 1.35633 -1.33056 0
M  V30 1330 H 127.337 3.79068 -0.850883 0
M  V30 1331 H 129.009 3.14099 -3.37846 0
M  V30 1332 H 127.252 2.90253 -3.22391 0
M  V30 1333 H 127.923 4.53453 -3.14777 0
M  V30 1334 H 130.399 3.94871 -1.3121 0
M  V30 1335 H 129.275 5.33193 -1.30372 0
M  V30 1336 H 129.536 4.4176 0.173226 0
M  V30 1337 N 128.595 0.856903 1.32268 0
M  V30 1338 C 130.006 0.515711 1.79436 0
M  V30 1339 C 130.357 -0.966586 1.70738 0
M  V30 1340 O 129.482 -1.75409 1.26731 0
M  V30 1341 C 130.077 0.929335 3.25805 0
M  V30 1342 C 128.636 0.640006 3.70919 0
M  V30 1343 C 127.783 1.12784 2.53328 0
M  V30 1344 H 130.734 1.04389 1.19535 0
M  V30 1345 H 130.755 0.246633 3.797 0
M  V30 1346 H 130.267 2.00821 3.32103 0
M  V30 1347 H 128.368 -0.428051 3.70133 0
M  V30 1348 H 128.481 1.20788 4.63624 0
M  V30 1349 H 126.845 0.548033 2.48734 0
M  V30 1350 H 127.628 2.21387 2.62379 0
M  V30 1351 N 130.073 -1.45103 0.615059 0
M  V30 1352 C 131.006 -2.27717 -0.148408 0
M  V30 1353 C 131.984 -1.37584 -0.866572 0
M  V30 1354 O 133.168 -1.67017 -0.87393 0
M  V30 1355 C 130.295 -3.16136 -1.21557 0
M  V30 1356 C 129.341 -4.22263 -0.599712 0
M  V30 1357 S 130.174 -5.3215 0.598081 0
M  V30 1358 C 131.33 -6.24137 -0.469484 0
M  V30 1359 H 131.563 -2.92121 0.552483 0
M  V30 1360 H 129.096 -1.49054 0.402778 0
M  V30 1361 H 131.054 -3.67633 -1.82638 0
M  V30 1362 H 129.715 -2.50982 -1.88857 0
M  V30 1363 H 128.908 -4.84081 -1.4029 0
M  V30 1364 H 128.51 -3.73945 -0.063876 0
M  V30 1365 H 130.802 -6.63984 -1.34652 0
M  V30 1366 H 131.745 -7.0801 0.112725 0
M  V30 1367 H 132.153 -5.58971 -0.788168 0
M  V30 1368 N 131.551 -0.354651 -1.53558 0
M  V30 1369 C 132.8 0.239504 -2.00273 0
M  V30 1370 C 133.113 1.50759 -1.24623 0
M  V30 1371 O 134.319 2.17968 -1.61871 0
M  V30 1372 C 132.775 0.477341 -3.5672 0
M  V30 1373 C 132.383 -0.775488 -4.41237 0
M  V30 1374 C 134.127 1.02975 -4.11821 0
M  V30 1375 C 132.034 -0.507838 -5.89216 0
M  V30 1376 H 130.964 0.0932743 -0.748208 0
M  V30 1377 H 133.615 -0.471701 -1.77334 0
M  V30 1378 H 131.997 1.24953 -3.7577 0
M  V30 1379 H 133.171 -1.54963 -4.33962 0
M  V30 1380 H 131.486 -1.25033 -3.97185 0
M  V30 1381 H 134.083 1.24513 -5.2 0
M  V30 1382 H 134.426 1.98862 -3.65731 0
M  V30 1383 H 134.959 0.317994 -3.96527 0
M  V30 1384 H 131.698 -1.43674 -6.39561 0
M  V30 1385 H 131.218 0.228011 -5.99366 0
M  V30 1386 H 132.897 -0.129238 -6.46871 0
M  V30 1387 N 133.029 1.57378 -0.0835403 0
M  V30 1388 C 133.961 2.10389 0.909338 0
M  V30 1389 C 134.974 1.03858 1.25369 0
M  V30 1390 O 136.163 1.31338 1.20882 0
M  V30 1391 C 133.263 2.55908 2.2218 0
M  V30 1392 C 132.436 3.86145 2.05453 0
M  V30 1393 C 131.495 4.17633 3.20108 0
M  V30 1394 O 130.521 4.87043 2.94581 0
M  V30 1395 N 131.723 3.72113 4.45547 0
M  V30 1396 H 134.488 2.962 0.456657 0
M  V30 1397 H 132.049 1.61579 0.101877 0
M  V30 1398 H 134.041 2.74027 2.97811 0
M  V30 1399 H 132.611 1.75171 2.58909 0
M  V30 1400 H 131.831 3.7729 1.1422 0
M  V30 1401 H 133.119 4.7137 1.91541 0
M  V30 1402 H 132.517 3.16062 4.69171 0
M  V30 1403 H 131.074 3.95409 5.18165 0
M  V30 1404 N 134.507 -0.190092 1.56449 0
M  V30 1405 C 135.47 -1.21925 1.9408 0
M  V30 1406 C 136.47 -1.38176 0.822431 0
M  V30 1407 O 137.66 -1.35903 1.08977 0
M  V30 1408 C 134.792 -2.58773 2.21922 0
M  V30 1409 H 135.985 -0.897464 2.86157 0
M  V30 1410 H 133.538 -0.43181 1.50217 0
M  V30 1411 H 134.273 -2.95998 1.32499 0
M  V30 1412 H 134.058 -2.48348 3.03424 0
M  V30 1413 H 135.548 -3.32978 2.52022 0
M  V30 1414 N 135.985 -1.50799 -0.457987 0
M  V30 1415 C 137.231 -1.62683 -1.21088 0
M  V30 1416 C 137.564 -0.332268 -1.91336 0
M  V30 1417 O 136.839 0.667043 -1.82704 0
M  V30 1418 C 137.122 -2.81615 -2.24422 0
M  V30 1419 C 136.975 -4.20989 -1.58392 0
M  V30 1420 C 138.294 -2.96085 -3.2561 0
M  V30 1421 H 135.413 -0.592087 -0.438864 0
M  V30 1422 H 138.055 -1.83225 -0.50286 0
M  V30 1423 H 136.205 -2.64231 -2.84806 0
M  V30 1424 H 137.877 -4.49994 -1.01504 0
M  V30 1425 H 136.12 -4.24641 -0.886704 0
M  V30 1426 H 136.791 -5.0016 -2.33547 0
M  V30 1427 H 139.267 -3.12042 -2.75262 0
M  V30 1428 H 138.143 -3.80902 -3.95228 0
M  V30 1429 H 138.404 -2.0726 -3.90507 0
M  V30 1430 N 137.463 0.71206 -1.40597 0
M  V30 1431 C 138.688 1.50617 -1.42581 0
M  V30 1432 C 139.113 1.88079 -0.0282102 0
M  V30 1433 O 138.471 1.53511 0.964579 0
M  V30 1434 C 138.519 2.7557 -2.3258 0
M  V30 1435 O 137.623 3.72414 -1.77148 0
M  V30 1436 H 136.964 0.453966 -0.484573 0
M  V30 1437 H 139.494 0.876649 -1.84868 0
M  V30 1438 H 139.504 3.2406 -2.47889 0
M  V30 1439 H 138.179 2.47639 -3.34138 0
M  V30 1440 H 136.756 3.31276 -1.71204 0
M  V30 1441 N 138.941 1.26152 0.944643 0
M  V30 1442 C 139.888 1.07408 2.04285 0
M  V30 1443 C 140.858 -0.0198413 1.66088 0
M  V30 1444 O 142.043 0.139264 1.90291 0
M  V30 1445 C 139.183 0.70945 3.37729 0
M  V30 1446 C 138.296 1.87926 3.88983 0
M  V30 1447 C 137.431 1.45807 5.10797 0
M  V30 1448 C 136.47 2.5964 5.54305 0
M  V30 1449 N 135.607 2.18226 6.67324 0
M  V30 1450 H 140.447 2.01389 2.1965 0
M  V30 1451 H 137.984 1.00275 1.07626 0
M  V30 1452 H 139.942 0.478948 4.14442 0
M  V30 1453 H 138.572 -0.193389 3.2222 0
M  V30 1454 H 137.624 2.22279 3.08701 0
M  V30 1455 H 138.936 2.73377 4.17213 0
M  V30 1456 H 138.09 1.18781 5.94959 0
M  V30 1457 H 136.829 0.574414 4.84305 0
M  V30 1458 H 135.834 2.87399 4.68702 0
M  V30 1459 H 137.059 3.48599 5.828 0
M  V30 1460 H 135.005 1.3229 6.42523 0
M  V30 1461 H 134.922 2.97221 6.95123 0
M  V30 1462 H 136.19 1.94403 7.54869 0
M  V30 1463 N 140.419 -1.14872 1.07899 0
M  V30 1464 C 141.329 -2.2341 0.715915 0
M  V30 1465 C 142.345 -1.71808 -0.275306 0
M  V30 1466 O 143.521 -2.01039 -0.120545 0
M  V30 1467 C 140.586 -3.46474 0.125168 0
M  V30 1468 C 139.647 -4.13039 1.17034 0
M  V30 1469 C 138.88 -5.30229 0.607688 0
M  V30 1470 O 139.103 -5.675 -0.574497 0
M  V30 1471 O 138.037 -5.86444 1.35526 0
M  V30 1472 H 141.863 -2.56808 1.62121 0
M  V30 1473 H 139.448 -1.22702 0.852322 0
M  V30 1474 H 141.33 -4.20917 -0.201729 0
M  V30 1475 H 140.005 -3.14811 -0.753364 0
M  V30 1476 H 138.912 -3.40493 1.54968 0
M  V30 1477 H 140.245 -4.48796 2.02097 0
M  V30 1478 N 141.898 -0.863906 -1.31812 0
M  V30 1479 C 143.144 -0.472535 -1.97218 0
M  V30 1480 C 143.477 0.971394 -1.68159 0
M  V30 1481 O 142.752 1.68309 -0.974798 0
M  V30 1482 C 143.035 -0.723054 -3.52766 0
M  V30 1483 C 142.888 -2.21608 -3.91421 0
M  V30 1484 C 144.207 -0.185522 -4.39709 0
M  V30 1485 H 141.326 -0.173158 -0.71637 0
M  V30 1486 H 143.968 -1.08403 -1.56041 0
M  V30 1487 H 142.118 -0.202577 -3.87971 0
M  V30 1488 H 143.79 -2.80334 -3.66347 0
M  V30 1489 H 142.033 -2.691 -3.40246 0
M  V30 1490 H 142.704 -2.34203 -4.99853 0
M  V30 1491 H 145.18 -0.630726 -4.11292 0
M  V30 1492 H 144.056 -0.390306 -5.47511 0
M  V30 1493 H 144.317 0.912229 -4.32586 0
M  V30 1494 N 143.376 1.44774 -0.622745 0
M  V30 1495 C 144.323 2.30635 0.0871679 0
M  V30 1496 C 145.293 1.42994 0.845097 0
M  V30 1497 O 146.478 1.71907 0.827812 0
M  V30 1498 C 143.618 3.28144 1.06844 0
M  V30 1499 C 142.731 4.30888 0.309809 0
M  V30 1500 C 141.866 5.15494 1.28215 0
M  V30 1501 C 140.905 6.09953 0.512198 0
M  V30 1502 N 140.042 6.87287 1.43458 0
M  V30 1503 H 144.882 2.90803 -0.650974 0
M  V30 1504 H 142.419 1.43286 -0.33281 0
M  V30 1505 H 144.377 3.83157 1.65066 0
M  V30 1506 H 143.007 2.69695 1.77382 0
M  V30 1507 H 142.059 3.78414 -0.388181 0
M  V30 1508 H 143.371 4.97955 -0.290254 0
M  V30 1509 H 142.525 5.74983 1.93596 0
M  V30 1510 H 141.264 4.48481 1.91614 0
M  V30 1511 H 140.269 5.49581 -0.155151 0
M  V30 1512 H 141.494 6.78999 -0.116958 0
M  V30 1513 H 139.44 6.2295 2.05594 0
M  V30 1514 H 139.357 7.50763 0.888335 0
M  V30 1515 H 140.625 7.51306 2.07749 0
M  V30 1516 N 144.854 0.36279 1.53368 0
M  V30 1517 C 145.784 -0.476976 2.28576 0
M  V30 1518 C 146.765 -1.08631 1.30894 0
M  V30 1519 O 147.95 -1.10409 1.59761 0
M  V30 1520 C 145.08 -1.61828 3.07293 0
M  V30 1521 C 144.034 -1.13633 4.1264 0
M  V30 1522 C 143.36 -2.36766 4.79423 0
M  V30 1523 C 144.66 -0.223061 5.21823 0
M  V30 1524 H 146.354 0.150474 2.99022 0
M  V30 1525 H 143.9 0.0738103 1.43811 0
M  V30 1526 H 145.853 -2.21237 3.58653 0
M  V30 1527 H 144.577 -2.27292 2.34533 0
M  V30 1528 H 143.236 -0.564945 3.62221 0
M  V30 1529 H 142.884 -3.0068 4.03238 0
M  V30 1530 H 142.584 -2.05192 5.50609 0
M  V30 1531 H 144.108 -2.96865 5.33576 0
M  V30 1532 H 145.522 -0.724545 5.68703 0
M  V30 1533 H 143.919 0.001678 6.001 0
M  V30 1534 H 144.989 0.735553 4.79289 0
M  V30 1535 N 146.332 -1.57332 0.0918853 0
M  V30 1536 C 147.743 -1.81496 -0.437739 0
M  V30 1537 C 148.094 -1.00727 -1.6837 0
M  V30 1538 O 147.219 -0.235694 -2.15113 0
M  V30 1539 C 147.814 -3.29197 -0.800939 0
M  V30 1540 C 146.373 -3.54136 -1.27532 0
M  V30 1541 C 145.52 -2.75979 -0.270392 0
M  V30 1542 H 148.471 -1.55494 0.317366 0
M  V30 1543 H 148.492 -3.42344 -1.66074 0
M  V30 1544 H 148.004 -3.87955 0.106078 0
M  V30 1545 H 146.105 -3.00705 -2.20016 0
M  V30 1546 H 146.218 -4.62792 -1.23938 0
M  V30 1547 H 144.582 -2.43349 -0.751872 0
M  V30 1548 H 145.365 -3.37484 0.629248 0
M  V30 1549 N 147.81 0.181792 -1.56548 0
M  V30 1550 C 149.059 0.898348 -1.8059 0
M  V30 1551 C 149.372 1.83862 -0.667379 0
M  V30 1552 O 150.578 2.59678 -0.792446 0
M  V30 1553 C 149.034 1.64791 -3.19956 0
M  V30 1554 C 148.642 0.751789 -4.41647 0
M  V30 1555 C 150.386 2.35331 -3.53298 0
M  V30 1556 C 148.293 1.50098 -5.72035 0
M  V30 1557 H 147.223 0.339194 -0.673397 0
M  V30 1558 H 149.874 0.151413 -1.82874 0
M  V30 1559 H 148.256 2.43921 -3.11959 0
M  V30 1560 H 149.43 -0.0018076 -4.608 0
M  V30 1561 H 147.745 0.156562 -4.16106 0
M  V30 1562 H 150.342 2.91958 -4.47956 0
M  V30 1563 H 150.685 3.10164 -2.77676 0
M  V30 1564 H 151.218 1.63154 -3.62803 0
M  V30 1565 H 147.957 0.795175 -6.50659 0
M  V30 1566 H 147.477 2.22817 -5.56878 0
M  V30 1567 H 149.156 2.05125 -6.13622 0
M  V30 1568 N 149.288 1.51039 0.449983 0
M  V30 1569 C 150.513 1.6715 1.22783 0
M  V30 1570 C 150.938 0.363081 1.84563 0
M  V30 1571 O 150.296 -0.675433 1.68249 0
M  V30 1572 C 150.344 2.77985 2.29689 0
M  V30 1573 O 149.448 2.40707 3.34864 0
M  V30 1574 H 148.789 0.557746 0.360299 0
M  V30 1575 H 151.319 1.97535 0.533005 0
M  V30 1576 H 151.329 3.01693 2.74673 0
M  V30 1577 H 150.004 3.72935 1.84098 0
M  V30 1578 H 148.581 2.27523 2.95445 0
M  V30 1579 N 150.766 -0.704594 1.40972 0
M  V30 1580 C 152.015 -1.46018 1.39146 0
M  V30 1581 C 152.328 -1.956 0.000589254 0
M  V30 1582 O 153.534 -2.71137 -0.1403 0
M  V30 1583 C 151.99 -2.63996 2.4461 0
M  V30 1584 C 151.598 -2.21238 3.89561 0
M  V30 1585 C 153.342 -3.41677 2.51907 0
M  V30 1586 C 151.249 -3.3612 4.86598 0
M  V30 1587 H 150.179 -0.548444 0.517422 0
M  V30 1588 H 152.83 -0.765784 1.66757 0
M  V30 1589 H 151.212 -3.3566 2.10115 0
M  V30 1590 H 152.386 -1.56923 4.33257 0
M  V30 1591 H 150.701 -1.56574 3.85841 0
M  V30 1592 H 153.298 -4.27182 3.2159 0
M  V30 1593 H 153.641 -3.86247 1.55303 0
M  V30 1594 H 154.174 -2.77064 2.85448 0
M  V30 1595 H 150.913 -2.96572 5.84573 0
M  V30 1596 H 150.433 -3.99315 4.47557 0
M  V30 1597 H 152.112 -4.02029 5.06934 0
M  V30 1598 N 152.244 -1.26651 -0.937939 0
M  V30 1599 C 153.521 -1.0313 -1.66204 0
M  V30 1600 C 153.901 0.437256 -2.06522 0
M  V30 1601 O 153.249 1.41831 -1.79154 0
M  V30 1602 C 153.459 -1.98314 -2.87181 0
M  V30 1603 C 154.807 -2.27107 -3.58758 0
M  V30 1604 O 155.831 -1.96205 -2.97291 0
M  V30 1605 O 154.69 -2.79736 -4.69479 0
M  V30 1606 H 151.784 -0.392384 -0.727986 0
M  V30 1607 H 154.33 -1.37874 -0.989382 0
M  V30 1608 H 153.102 -2.97399 -2.54302 0
M  V30 1609 H 152.725 -1.64068 -3.6217 0
M  V30 1610 N 153.722 1.14298 -1.08507 0
M  V30 1611 C 154.95 1.89219 -0.836876 0
M  V30 1612 C 155.365 1.78638 0.611054 0
M  V30 1613 O 154.722 1.14643 1.41998 0
M  V30 1614 C 154.773 3.39158 -1.25116 0
M  V30 1615 O 154.494 3.49449 -2.64229 0
M  V30 1616 C 155.995 4.31073 -1.03398 0
M  V30 1617 H 153.215 0.599328 -0.301739 0
M  V30 1618 H 155.759 1.44746 -1.44461 0
M  V30 1619 H 153.914 3.81251 -0.687514 0
M  V30 1620 H 154.328 4.42589 -2.81452 0
M  V30 1621 H 155.802 5.34646 -1.37323 0
M  V30 1622 H 156.279 4.3919 0.0289259 0
M  V30 1623 H 156.885 3.94738 -1.58311 0
M  V30 1624 N 155.201 0.870884 1.31352 0
M  V30 1625 C 156.431 0.496049 2.00557 0
M  V30 1626 C 156.839 -0.916241 1.65534 0
M  V30 1627 O 156.182 -1.61188 0.881134 0
M  V30 1628 C 156.244 0.574418 3.54881 0
M  V30 1629 C 155.908 1.94849 4.1338 0
M  V30 1630 C 156.905 2.91611 4.30417 0
M  V30 1631 C 154.59 2.25005 4.49086 0
M  V30 1632 C 156.584 4.16672 4.82352 0
M  V30 1633 C 154.271 3.50315 5.00722 0
M  V30 1634 C 155.269 4.45964 5.17306 0
M  V30 1635 O 154.957 5.69052 5.67833 0
M  V30 1636 H 154.689 0.191664 0.64826 0
M  V30 1637 H 157.243 1.17409 1.68536 0
M  V30 1638 H 155.473 -0.160549 3.86367 0
M  V30 1639 H 157.162 0.212879 4.05341 0
M  V30 1640 H 157.928 2.69622 4.03149 0
M  V30 1641 H 153.807 1.51332 4.35453 0
M  V30 1642 H 157.351 4.91336 4.95211 0
M  V30 1643 H 153.248 3.72147 5.27424 0
M  V30 1644 H 154.016 5.71236 5.86201 0
M  V30 1645 N 156.679 -1.44442 0.630414 0
M  V30 1646 C 157.626 -2.30678 -0.0749355 0
M  V30 1647 C 158.596 -1.4344 -0.837502 0
M  V30 1648 O 159.781 -1.72343 -0.818684 0
M  V30 1649 C 156.921 -3.28706 -1.05103 0
M  V30 1650 C 156.034 -4.31046 -0.286954 0
M  V30 1651 C 155.169 -5.16167 -1.2548 0
M  V30 1652 C 154.208 -6.10216 -0.479843 0
M  V30 1653 N 153.345 -6.88039 -1.39811 0
M  V30 1654 H 158.185 -2.90454 0.666386 0
M  V30 1655 H 155.722 -1.43107 0.340404 0
M  V30 1656 H 157.68 -3.84027 -1.63031 0
M  V30 1657 H 156.31 -2.70632 -1.75949 0
M  V30 1658 H 155.362 -3.78203 0.408243 0
M  V30 1659 H 156.674 -4.97794 0.316657 0
M  V30 1660 H 155.828 -5.76002 -1.90544 0
M  V30 1661 H 154.567 -4.49491 -1.89233 0
M  V30 1662 H 153.572 -5.49491 0.184295 0
M  V30 1663 H 154.797 -6.78928 0.152965 0
M  V30 1664 H 152.743 -6.24032 -2.02287 0
M  V30 1665 H 152.66 -7.51223 -0.848508 0
M  V30 1666 H 153.928 -7.52397 -2.03762 0
M  V30 1667 N 158.157 -0.370918 -1.53173 0
M  V30 1668 C 159.12 0.460778 -2.24521 0
M  V30 1669 C 160.12 1.00536 -1.25496 0
M  V30 1670 O 161.31 0.890266 -1.49733 0
M  V30 1671 C 158.442 1.64457 -2.98608 0
M  V30 1672 H 159.635 -0.163613 -2.99453 0
M  V30 1673 H 157.188 -0.122699 -1.55818 0
M  V30 1674 H 157.923 2.30691 -2.2793 0
M  V30 1675 H 157.708 1.26099 -3.7127 0
M  V30 1676 H 159.198 2.23384 -3.5283 0
M  V30 1677 N 159.635 1.57281 -0.100228 0
M  V30 1678 C 160.545 2.17833 0.870965 0
M  V30 1679 C 161.561 1.14921 1.30649 0
M  V30 1680 O 162.737 1.47313 1.37335 0
M  V30 1681 C 159.802 2.75085 2.1102 0
M  V30 1682 C 158.863 3.9297 1.72838 0
M  V30 1683 C 158.096 4.47482 2.90854 0
M  V30 1684 O 158.319 4.00922 4.05731 0
M  V30 1685 O 157.253 5.38433 2.69023 0
M  V30 1686 H 161.079 3.0124 0.38575 0
M  V30 1687 H 158.664 1.48881 0.124397 0
M  V30 1688 H 160.546 3.11656 2.83634 0
M  V30 1689 H 159.221 1.94721 2.58584 0
M  V30 1690 H 158.128 3.61201 0.973883 0
M  V30 1691 H 159.461 4.74713 1.30033 0
M  V30 1692 N 161.113 -0.173488 1.56642 0
M  V30 1693 C 162.359 -0.891784 1.8214 0
M  V30 1694 C 162.692 -1.8199 0.677736 0
M  V30 1695 O 161.967 -1.91842 -0.320446 0
M  V30 1696 C 162.25 -1.68933 3.18015 0
M  V30 1697 C 162.103 -0.784487 4.42906 0
M  V30 1698 C 163.422 -2.65748 3.50808 0
M  V30 1699 H 160.541 -0.322761 0.662567 0
M  V30 1700 H 163.183 -0.158095 1.89341 0
M  V30 1701 H 161.333 -2.31482 3.12007 0
M  V30 1702 H 163.005 -0.172046 4.60979 0
M  V30 1703 H 161.248 -0.0924117 4.33702 0
M  V30 1704 H 161.919 -1.37799 5.34524 0
M  V30 1705 H 164.395 -2.13327 3.57255 0
M  V30 1706 H 163.271 -3.18619 4.4696 0
M  V30 1707 H 163.532 -3.45842 2.75401 0
M  V30 1708 N 162.591 -1.51276 -0.441967 0
M  V30 1709 C 163.554 -1.7167 -1.51862 0
M  V30 1710 C 164.554 -0.586793 -1.49711 0
M  V30 1711 O 165.744 -0.854276 -1.51815 0
M  V30 1712 C 162.876 -1.76889 -2.91416 0
M  V30 1713 H 164.069 -2.67754 -1.35084 0
M  V30 1714 H 161.622 -1.41196 -0.670333 0
M  V30 1715 H 162.357 -0.826026 -3.13604 0
M  V30 1716 H 162.142 -2.59001 -2.94382 0
M  V30 1717 H 163.632 -1.94522 -3.69528 0
M  V30 1718 N 164.069 0.697108 -1.41344 0
M  V30 1719 C 165.016 1.81106 -1.43071 0
M  V30 1720 C 165.986 1.63632 -0.285275 0
M  V30 1721 O 167.171 1.84504 -0.486091 0
M  V30 1722 C 164.311 3.18975 -1.31715 0
M  V30 1723 C 163.424 3.47892 -2.56115 0
M  V30 1724 C 162.559 4.75367 -2.37064 0
M  V30 1725 C 161.598 4.97247 -3.56948 0
M  V30 1726 N 160.735 6.15947 -3.36977 0
M  V30 1727 H 165.575 1.78965 -2.38276 0
M  V30 1728 H 163.112 0.873975 -1.18322 0
M  V30 1729 H 165.07 3.98615 -1.23133 0
M  V30 1730 H 163.7 3.20297 -0.401183 0
M  V30 1731 H 162.752 2.62669 -2.75153 0
M  V30 1732 H 164.064 3.59962 -3.45295 0
M  V30 1733 H 163.218 5.63059 -2.25941 0
M  V30 1734 H 161.957 4.65541 -1.45338 0
M  V30 1735 H 160.962 4.08004 -3.68527 0
M  V30 1736 H 162.187 5.08934 -4.49626 0
M  V30 1737 H 160.133 6.07336 -2.47949 0
M  V30 1738 H 160.05 6.28777 -4.19732 0
M  V30 1739 H 161.318 7.06377 -3.29623 0
M  V30 1740 N 165.547 1.27147 0.931209 0
M  V30 1741 C 166.479 1.05364 2.03546 0
M  V30 1742 C 167.492 0.0108438 1.62796 0
M  V30 1743 O 168.681 0.25202 1.76712 0
M  V30 1744 C 165.781 0.575566 3.33977 0
M  V30 1745 C 164.954 1.68985 4.03439 0
M  V30 1746 C 164.013 1.20813 5.12143 0
M  V30 1747 O 163.039 1.90712 5.363 0
M  V30 1748 N 164.241 0.0618851 5.80467 0
M  V30 1749 H 167.006 2.00454 2.22796 0
M  V30 1750 H 164.567 1.18666 1.10136 0
M  V30 1751 H 166.559 0.237264 4.04004 0
M  V30 1752 H 165.129 -0.282016 3.11325 0
M  V30 1753 H 164.349 2.19861 3.27192 0
M  V30 1754 H 165.637 2.4378 4.46597 0
M  V30 1755 H 165.035 -0.521621 5.6329 0
M  V30 1756 H 163.592 -0.217264 6.51438 0
M  V30 1757 N 167.025 -1.13721 1.09112 0
M  V30 1758 C 167.988 -2.17222 0.731241 0
M  V30 1759 C 168.988 -1.59035 -0.237566 0
M  V30 1760 O 170.178 -1.74192 -0.0161704 0
M  V30 1761 C 167.31 -3.40804 0.0808443 0
M  V30 1762 H 168.503 -2.50573 1.64783 0
M  V30 1763 H 166.056 -1.28493 0.889897 0
M  V30 1764 H 166.791 -3.1304 -0.847127 0
M  V30 1765 H 166.576 -3.84306 0.777896 0
M  V30 1766 H 168.066 -4.1731 -0.155657 0
M  V30 1767 N 168.503 -0.877838 -1.30888 0
M  V30 1768 C 169.752 -0.488793 -1.95688 0
M  V30 1769 C 170.065 0.965485 -1.70111 0
M  V30 1770 O 171.271 1.46104 -2.28836 0
M  V30 1771 C 169.727 -0.823201 -3.50359 0
M  V30 1772 C 169.335 -2.29477 -3.84765 0
M  V30 1773 C 171.079 -0.503009 -4.21509 0
M  V30 1774 C 168.986 -2.57118 -5.32583 0
M  V30 1775 H 167.916 -0.179062 -0.732429 0
M  V30 1776 H 170.567 -1.07183 -1.48943 0
M  V30 1777 H 168.949 -0.169331 -3.95638 0
M  V30 1778 H 170.123 -2.99236 -3.5042 0
M  V30 1779 H 168.438 -2.58178 -3.267 0
M  V30 1780 H 171.035 -0.68665 -5.30273 0
M  V30 1781 H 171.378 0.557109 -4.12555 0
M  V30 1782 H 171.911 -1.11376 -3.8189 0
M  V30 1783 H 168.65 -3.61843 -5.4658 0
M  V30 1784 H 168.17 -1.91961 -5.68253 0
M  V30 1785 H 169.849 -2.42251 -5.99936 0
M  V30 1786 N 169.982 1.44106 -0.638065 0
M  V30 1787 C 170.892 2.34513 0.0637334 0
M  V30 1788 C 171.908 1.53018 0.828346 0
M  V30 1789 O 173.084 1.85723 0.779036 0
M  V30 1790 C 170.149 3.31095 1.02844 0
M  V30 1791 C 169.21 4.28497 0.26244 0
M  V30 1792 C 168.443 5.20465 1.1812 0
M  V30 1793 O 168.666 5.16514 2.42011 0
M  V30 1794 O 167.6 5.98251 0.661774 0
M  V30 1795 H 171.426 2.95989 -0.68003 0
M  V30 1796 H 169.011 1.43994 -0.398252 0
M  V30 1797 H 170.893 3.90526 1.58327 0
M  V30 1798 H 169.568 2.72144 1.7527 0
M  V30 1799 H 168.475 3.72592 -0.335602 0
M  V30 1800 H 169.808 4.90388 -0.421936 0
M  V30 1801 N 171.46 0.379036 1.52974 0
M  V30 1802 C 172.423 -0.448865 2.24762 0
M  V30 1803 C 173.423 -0.998689 1.26027 0
M  V30 1804 O 174.613 -0.882313 1.50203 0
M  V30 1805 C 171.745 -1.62872 2.99476 0
M  V30 1806 H 172.938 0.179491 2.99362 0
M  V30 1807 H 170.491 0.13096 1.5575 0
M  V30 1808 H 171.226 -2.29479 2.29151 0
M  V30 1809 H 171.011 -1.24128 3.71934 0
M  V30 1810 H 172.501 -2.2151 3.5401 0
M  V30 1811 N 172.938 -1.57226 0.108567 0
M  V30 1812 C 174.186 -1.94448 -0.550853 0
M  V30 1813 C 174.507 -0.992074 -1.67878 0
M  V30 1814 O 173.777 -0.0465 -1.95845 0
M  V30 1815 H 172.357 -0.717897 -0.206479 0
M  V30 1816 H 175.019 -1.94112 0.175062 0
M  V30 1817 H 174.115 -2.97218 -0.952259 0
M  V30 1818 N 174.416 0.165178 -1.56732 0
M  V30 1819 C 175.379 1.18822 -1.95995 0
M  V30 1820 C 176.379 1.3685 -0.84431 0
M  V30 1821 O 177.569 1.34152 -1.11126 0
M  V30 1822 C 174.701 2.5521 -2.26011 0
M  V30 1823 H 175.894 0.851825 -2.87548 0
M  V30 1824 H 173.447 0.407857 -1.50885 0
M  V30 1825 H 174.182 2.93852 -1.37191 0
M  V30 1826 H 173.967 2.43489 -3.07336 0
M  V30 1827 H 175.457 3.28927 -2.57288 0
M  V30 1828 N 175.894 1.51508 0.433938 0
M  V30 1829 C 176.844 1.69451 1.52546 0
M  V30 1830 C 177.828 0.548474 1.51263 0
M  V30 1831 O 179.02 0.804529 1.57659 0
M  V30 1832 C 176.149 1.82604 2.90707 0
M  V30 1833 C 175.235 3.03002 2.96733 0
M  V30 1834 N 175.626 4.26121 2.72496 0
M  V30 1835 C 173.924 3.02327 3.27894 0
M  V30 1836 C 174.625 5.07407 2.84452 0
M  V30 1837 N 173.601 4.42126 3.16269 0
M  V30 1838 H 177.403 2.62305 1.32564 0
M  V30 1839 H 174.917 1.49202 0.641297 0
M  V30 1840 H 176.914 1.93569 3.69238 0
M  V30 1841 H 175.574 0.909339 3.11707 0
M  V30 1842 H 176.585 4.55009 2.4736 0
M  V30 1843 H 173.262 2.20301 3.54646 0
M  V30 1844 H 174.652 6.15422 2.69639 0
M  V30 1845 N 177.372 -0.689602 1.41712 0
M  V30 1846 C 178.621 -1.44534 1.40686 0
M  V30 1847 C 178.934 -1.95588 0.0213352 0
M  V30 1848 O 180.14 -2.71271 -0.111534 0
M  V30 1849 C 178.596 -2.61387 2.47396 0
M  V30 1850 C 178.204 -2.17094 3.91885 0
M  V30 1851 C 179.948 -3.38986 2.55517 0
M  V30 1852 C 177.855 -3.3094 4.90135 0
M  V30 1853 H 176.785 -0.542925 0.52321 0
M  V30 1854 H 179.436 -0.748054 1.6756 0
M  V30 1855 H 177.818 -3.33412 2.13664 0
M  V30 1856 H 178.992 -1.52318 4.34897 0
M  V30 1857 H 177.307 -1.52473 3.8748 0
M  V30 1858 H 179.904 -4.23747 3.26102 0
M  V30 1859 H 180.247 -3.84578 1.59391 0
M  V30 1860 H 180.78 -2.74021 2.8837 0
M  V30 1861 H 177.519 -2.90355 5.87685 0
M  V30 1862 H 177.039 -3.94546 4.51767 0
M  V30 1863 H 178.718 -3.9663 5.11169 0
M  V30 1864 N 178.85 -1.27639 -0.924453 0
M  V30 1865 C 180.099 -1.13549 -1.66702 0
M  V30 1866 C 180.412 0.317487 -1.93006 0
M  V30 1867 O 181.618 0.579333 -2.65247 0
M  V30 1868 C 180.074 -1.98426 -3.00259 0
M  V30 1869 C 179.682 -3.484 -2.81641 0
M  V30 1870 C 181.426 -1.92993 -3.78092 0
M  V30 1871 C 179.333 -4.25464 -4.10773 0
M  V30 1872 H 178.263 -0.421351 -0.625283 0
M  V30 1873 H 180.914 -1.52085 -1.02676 0
M  V30 1874 H 179.296 -1.52736 -3.6536 0
M  V30 1875 H 180.47 -4.01973 -2.25287 0
M  V30 1876 H 178.785 -3.55245 -2.17232 0
M  V30 1877 H 181.382 -2.47844 -4.7379 0
M  V30 1878 H 181.725 -0.904281 -4.0636 0
M  V30 1879 H 182.258 -2.36595 -3.19793 0
M  V30 1880 H 178.997 -5.28566 -3.87683 0
M  V30 1881 H 178.517 -3.76667 -4.66779 0
M  V30 1882 H 180.196 -4.34812 -4.79111 0
M  V30 1883 N 180.328 1.1314 -1.09713 0
M  V30 1884 C 181.276 2.20717 -0.733934 0
M  V30 1885 C 182.27 1.6729 0.266506 0
M  V30 1886 O 183.476 1.79547 0.127656 0
M  V30 1887 H 179.851 0.719292 -0.21937 0
M  V30 1888 H 181.822 2.48611 -1.6503 0
M  V30 1889 C 180.571 3.47265 -0.173849 0
M  V30 1890 H 179.894 3.88716 -0.934873 0
M  V30 1891 H 181.334 4.23979 0.0423126 0
M  V30 1892 C 179.793 3.18724 1.09164 0
M  V30 1893 O 180.323 3.37762 2.17439 0
M  V30 1894 N 178.529 2.72583 1.00732 0
M  V30 1895 H 178.076 2.57291 0.126121 0
M  V30 1896 H 178.034 2.53862 1.85476 0
M  V30 1897 N 181.806 0.884767 1.30421 0
M  V30 1898 C 183.083 0.423185 1.90967 0
M  V30 1899 C 183.463 -1.09605 1.80416 0
M  V30 1900 O 182.811 -1.93126 1.22125 0
M  V30 1901 C 183.021 0.921056 3.36627 0
M  V30 1902 C 184.369 0.955903 4.137 0
M  V30 1903 O 185.393 0.867706 3.4547 0
M  V30 1904 O 184.252 1.08614 5.35598 0
M  V30 1905 H 181.346 0.129369 0.816819 0
M  V30 1906 H 183.892 0.973653 1.3899 0
M  V30 1907 H 182.664 1.96489 3.3839 0
M  V30 1908 H 182.287 0.349741 3.96059 0
M  V30 1909 N 183.284 -1.43765 0.645699 0
M  V30 1910 C 184.533 -2.01116 0.153412 0
M  V30 1911 C 184.846 -1.51493 -1.23731 0
M  V30 1912 O 186.052 -2.01067 -1.8244 0
M  V30 1913 C 184.508 -3.59206 0.223473 0
M  V30 1914 C 184.116 -4.17823 1.61642 0
M  V30 1915 C 185.86 -4.23972 -0.211597 0
M  V30 1916 C 183.767 -5.68183 1.64081 0
M  V30 1917 H 182.697 -0.752093 0.0535891 0
M  V30 1918 H 185.348 -1.6482 0.806633 0
M  V30 1919 H 183.73 -3.92867 -0.497118 0
M  V30 1920 H 184.904 -3.95674 2.36176 0
M  V30 1921 H 183.219 -3.65399 1.99681 0
M  V30 1922 H 185.816 -5.34275 -0.213112 0
M  V30 1923 H 186.159 -3.97352 -1.24165 0
M  V30 1924 H 186.692 -3.95166 0.456988 0
M  V30 1925 H 183.431 -5.99559 2.64971 0
M  V30 1926 H 182.951 -5.9241 0.938611 0
M  V30 1927 H 184.63 -6.32085 1.3812 0
M  V30 1928 N 184.763 -0.387143 -1.52771 0
M  V30 1929 C 186.009 0.188506 -2.02525 0
M  V30 1930 C 186.364 1.44649 -1.26864 0
M  V30 1931 O 185.657 1.88189 -0.359945 0
M  V30 1932 C 185.851 0.512209 -3.53711 0
M  V30 1933 C 185.68 -0.712855 -4.44014 0
M  V30 1934 C 184.45 -1.23147 -4.90064 0
M  V30 1935 C 186.648 -1.58453 -4.89282 0
M  V30 1936 N 184.63 -2.41431 -5.64433 0
M  V30 1937 C 186.001 -2.61381 -5.6221 0
M  V30 1938 C 188.056 -1.60488 -4.71326 0
M  V30 1939 C 186.759 -3.66227 -6.19088 0
M  V30 1940 C 188.785 -2.6424 -5.29085 0
M  V30 1941 C 188.147 -3.6589 -6.01917 0
M  V30 1942 H 184.246 0.0311236 -0.78138 0
M  V30 1943 H 186.83 -0.536548 -1.87161 0
M  V30 1944 H 185.001 1.20632 -3.69192 0
M  V30 1945 H 186.733 1.07482 -3.90166 0
M  V30 1946 H 183.488 -0.792795 -4.66917 0
M  V30 1947 H 183.912 -3.01274 -6.0627 0
M  V30 1948 H 188.554 -0.83247 -4.14524 0
M  V30 1949 H 186.272 -4.44337 -6.74974 0
M  V30 1950 H 189.858 -2.66695 -5.17074 0
M  V30 1951 H 188.738 -4.44855 -6.45813 0
M  V30 1952 N 186.241 1.57166 -0.116904 0
M  V30 1953 C 187.489 1.94737 0.540533 0
M  V30 1954 C 187.81 1.00096 1.67349 0
M  V30 1955 O 187.08 0.0568854 1.95817 0
M  V30 1956 H 185.66 0.718981 0.202669 0
M  V30 1957 H 188.322 1.94017 -0.185353 0
M  V30 1958 H 187.418 2.97719 0.936483 0
M  V30 1959 N 187.719 -0.156864 1.56817 0
M  V30 1960 C 188.682 -1.17781 1.96622 0
M  V30 1961 C 189.682 -1.36401 0.851555 0
M  V30 1962 O 190.872 -1.33561 1.11836 0
M  V30 1963 C 188.004 -2.54008 2.27361 0
M  V30 1964 H 189.197 -0.836564 2.87996 0
M  V30 1965 H 186.75 -0.39985 1.51099 0
M  V30 1966 H 187.485 -2.9312 1.38748 0
M  V30 1967 H 187.27 -2.41856 3.08623 0
M  V30 1968 H 188.76 -3.27558 2.59029 0
M  V30 1969 N 189.197 -1.51736 -0.425897 0
M  V30 1970 C 190.144 -1.73875 -1.51776 0
M  V30 1971 C 191.114 -0.580702 -1.55618 0
M  V30 1972 O 192.299 -0.81641 -1.72451 0
M  V30 1973 C 189.439 -1.88012 -2.89388 0
M  V30 1974 C 188.552 -3.15606 -2.94986 0
M  V30 1975 C 187.687 -3.20271 -4.23793 0
M  V30 1976 C 186.726 -4.42134 -4.23302 0
M  V30 1977 N 185.863 -4.44284 -5.43651 0
M  V30 1978 H 190.703 -2.67071 -1.32201 0
M  V30 1979 H 188.24 -1.32351 -0.642008 0
M  V30 1980 H 190.198 -1.9419 -3.69251 0
M  V30 1981 H 188.828 -0.98213 -3.07496 0
M  V30 1982 H 187.88 -3.18681 -2.07717 0
M  V30 1983 H 189.192 -4.05486 -2.90486 0
M  V30 1984 H 188.346 -3.25428 -5.12036 0
M  V30 1985 H 187.085 -2.28299 -4.30965 0
M  V30 1986 H 186.09 -4.3714 -3.3345 0
M  V30 1987 H 187.315 -5.35382 -4.17783 0
M  V30 1988 H 185.261 -3.55188 -5.51523 0
M  V30 1989 H 185.178 -5.27988 -5.41078 0
M  V30 1990 H 186.446 -4.53649 -6.33895 0
M  V30 1991 N 190.675 0.682077 -1.42076 0
M  V30 1992 C 191.638 1.77756 -1.44691 0
M  V30 1993 C 192.638 1.5726 -0.335535 0
M  V30 1994 O 193.828 1.63686 -0.596037 0
M  V30 1995 C 190.96 3.16301 -1.27146 0
M  V30 1996 H 192.153 1.76826 -2.42224 0
M  V30 1997 H 189.706 0.891012 -1.28416 0
M  V30 1998 H 190.441 3.22862 -0.305075 0
M  V30 1999 H 190.226 3.32581 -2.07683 0
M  V30 2000 H 191.716 3.96241 -1.31843 0
M  V30 2001 N 192.153 1.28127 0.917671 0
M  V30 2002 C 193.063 1.13556 2.05286 0
M  V30 2003 C 194.079 0.0630914 1.73886 0
M  V30 2004 O 195.255 0.271598 1.9956 0
M  V30 2005 C 192.32 0.794676 3.3747 0
M  V30 2006 C 191.381 1.94909 3.82504 0
M  V30 2007 C 190.614 1.62437 5.0838 0
M  V30 2008 O 190.837 0.536905 5.67867 0
M  V30 2009 O 189.771 2.46677 5.4903 0
M  V30 2010 H 193.597 2.08844 2.20495 0
M  V30 2011 H 191.182 1.07409 1.03845 0
M  V30 2012 H 193.064 0.618344 4.16839 0
M  V30 2013 H 191.739 -0.128581 3.23445 0
M  V30 2014 H 190.646 2.18055 3.03978 0
M  V30 2015 H 191.979 2.85291 4.01086 0
M  V30 2016 N 193.631 -1.12557 1.10312 0
M  V30 2017 C 195.042 -1.65574 0.862678 0
M  V30 2018 C 195.393 -1.86566 -0.607256 0
M  V30 2019 O 194.518 -1.59121 -1.46662 0
M  V30 2020 C 195.113 -3.00776 1.55947 0
M  V30 2021 C 193.672 -3.50748 1.36576 0
M  V30 2022 C 192.819 -2.25797 1.60968 0
M  V30 2023 H 195.77 -0.963552 1.26101 0
M  V30 2024 H 195.791 -3.67185 0.997753 0
M  V30 2025 H 195.303 -2.85465 2.62928 0
M  V30 2026 H 193.404 -3.71245 0.317531 0
M  V30 2027 H 193.517 -4.30289 2.10686 0
M  V30 2028 H 191.881 -2.32841 1.03234 0
M  V30 2029 H 192.664 -2.13043 2.69198 0
M  V30 2030 N 195.109 -0.891671 -1.2995 0
M  V30 2031 C 196.056 -0.361736 -2.27948 0
M  V30 2032 C 197.026 0.551761 -1.56668 0
M  V30 2033 O 198.211 0.478736 -1.84696 0
M  V30 2034 C 195.351 0.411825 -3.42634 0
M  V30 2035 C 194.464 -0.531651 -4.28716 0
M  V30 2036 C 193.599 0.258167 -5.30572 0
M  V30 2037 C 192.638 -0.680349 -6.08307 0
M  V30 2038 N 191.775 0.0745613 -7.0206 0
M  V30 2039 H 196.615 -1.20254 -2.72659 0
M  V30 2040 H 194.152 -0.604352 -1.34112 0
M  V30 2041 H 196.11 0.876304 -4.07893 0
M  V30 2042 H 194.74 1.21715 -2.98974 0
M  V30 2043 H 193.792 -1.11463 -3.63703 0
M  V30 2044 H 195.104 -1.25038 -4.82874 0
M  V30 2045 H 194.258 0.784204 -6.0161 0
M  V30 2046 H 192.997 1.01008 -4.77126 0
M  V30 2047 H 192.002 -1.21796 -5.3614 0
M  V30 2048 H 193.227 -1.43145 -6.63842 0
M  V30 2049 H 191.173 0.808883 -6.50994 0
M  V30 2050 H 191.09 -0.584409 -7.53738 0
M  V30 2051 H 192.358 0.581123 -7.77331 0
M  V30 2052 N 196.587 1.43421 -0.653314 0
M  V30 2053 C 197.836 2.01032 -0.164076 0
M  V30 2054 C 198.149 1.52147 1.22926 0
M  V30 2055 O 199.355 2.02031 1.81371 0
M  V30 2056 C 197.811 3.59082 -0.24252 0
M  V30 2057 C 197.419 4.1696 -1.63855 0
M  V30 2058 C 199.163 4.24079 0.18911 0
M  V30 2059 C 197.07 5.67304 -1.67092 0
M  V30 2060 H 196 0.751798 -0.0575769 0
M  V30 2061 H 198.651 1.6439 -0.815362 0
M  V30 2062 H 197.033 3.93125 0.476276 0
M  V30 2063 H 198.207 3.94416 -2.38271 0
M  V30 2064 H 196.522 3.64335 -2.01616 0
M  V30 2065 H 199.119 5.34381 0.184775 0
M  V30 2066 H 199.462 3.98005 1.22056 0
M  V30 2067 H 199.995 3.94918 -0.477938 0
M  V30 2068 H 196.734 5.98145 -2.68146 0
M  V30 2069 H 196.254 5.91904 -0.970014 0
M  V30 2070 H 197.933 6.31344 -1.4147 0
M  V30 2071 N 198.065 0.39524 1.52563 0
M  V30 2072 C 199.028 -0.425001 2.25225 0
M  V30 2073 C 200.028 -0.985266 1.27079 0
M  V30 2074 O 201.218 -0.866332 1.5113 0
M  V30 2075 C 198.35 -1.59686 3.01186 0
M  V30 2076 H 199.543 0.211233 2.99155 0
M  V30 2077 H 197.096 0.147472 1.55603 0
M  V30 2078 H 197.831 -2.27035 2.31572 0
M  V30 2079 H 197.616 -1.20176 3.73229 0
M  V30 2080 H 199.106 -2.17743 3.5634 0
M  V30 2081 N 199.544 -1.57102 0.125237 0
M  V30 2082 C 200.454 -2.19191 -0.8362 0
M  V30 2083 C 201.47 -1.16985 -1.28805 0
M  V30 2084 O 202.646 -1.49479 -1.34974 0
M  V30 2085 C 199.711 -2.78407 -2.06617 0
M  V30 2086 C 198.772 -3.9567 -1.66565 0
M  V30 2087 C 198.005 -4.52052 -2.83698 0
M  V30 2088 O 198.228 -4.07326 -3.99302 0
M  V30 2089 O 197.162 -5.42645 -2.60423 0
M  V30 2090 H 200.988 -3.01816 -0.337776 0
M  V30 2091 H 198.573 -1.4906 -0.100695 0
M  V30 2092 H 200.455 -3.16129 -2.7864 0
M  V30 2093 H 199.13 -1.9881 -2.55453 0
M  V30 2094 H 198.037 -3.62705 -0.916296 0
M  V30 2095 H 199.37 -4.76722 -1.22464 0
M  V30 2096 N 201.022 0.148545 -1.56898 0
M  V30 2097 C 202.268 0.862694 -1.83536 0
M  V30 2098 C 202.601 1.80889 -0.706604 0
M  V30 2099 O 201.876 1.92328 0.289885 0
M  V30 2100 C 202.159 1.63853 -3.20662 0
M  V30 2101 C 202.012 0.713925 -4.44098 0
M  V30 2102 C 203.331 2.60133 -3.54991 0
M  V30 2103 H 200.45 0.312179 -0.667618 0
M  V30 2104 H 203.092 0.127953 -1.89569 0
M  V30 2105 H 201.242 2.26489 -3.1565 0
M  V30 2106 H 202.914 0.098686 -4.61194 0
M  V30 2107 H 201.157 0.0234019 -4.33794 0
M  V30 2108 H 201.828 1.29278 -5.36648 0
M  V30 2109 H 204.304 2.07616 -3.60603 0
M  V30 2110 H 203.18 3.11468 -4.51972 0
M  V30 2111 H 203.441 3.41417 -2.80868 0
M  V30 2112 N 202.5 1.5196 0.417844 0
M  V30 2113 C 203.463 1.74065 1.49111 0
M  V30 2114 C 204.463 0.610537 1.48758 0
M  V30 2115 O 205.653 0.87832 1.50437 0
M  V30 2116 C 202.785 1.81502 2.88565 0
M  V30 2117 H 203.978 2.69869 1.30807 0
M  V30 2118 H 201.531 1.42244 0.647785 0
M  V30 2119 H 202.266 0.875813 3.1225 0
M  V30 2120 H 202.051 2.63651 2.90225 0
M  V30 2121 H 203.541 2.00376 3.66387 0
M  V30 2122 N 203.978 -0.674533 1.42435 0
M  V30 2123 C 204.941 -1.76986 1.45632 0
M  V30 2124 C 205.941 -1.5708 0.343871 0
M  V30 2125 O 207.131 -1.63367 0.604709 0
M  V30 2126 C 204.263 -3.15623 1.28822 0
M  V30 2127 H 205.456 -1.75539 2.43158 0
M  V30 2128 H 203.009 -0.884189 1.28887 0
M  V30 2129 H 203.744 -3.22696 0.322193 0
M  V30 2130 H 203.529 -3.31475 2.09444 0
M  V30 2131 H 205.019 -3.95537 1.33942 0
M  V30 2132 N 205.456 -1.28612 -0.910864 0
M  V30 2133 C 206.406 -1.09423 -2.00026 0
M  V30 2134 C 207.39 -0.0170079 -1.60891 0
M  V30 2135 O 208.582 -0.237472 -1.754 0
M  V30 2136 C 205.711 -0.76114 -3.34756 0
M  V30 2137 C 204.797 -1.87735 -3.80285 0
M  V30 2138 N 205.188 -3.11938 -3.98156 0
M  V30 2139 C 203.486 -1.76786 -4.09467 0
M  V30 2140 C 204.187 -3.84687 -4.36338 0
M  V30 2141 N 203.163 -3.12555 -4.44759 0
M  V30 2142 H 206.965 -2.03658 -2.11898 0
M  V30 2143 H 204.479 -1.19573 -1.09891 0
M  V30 2144 H 206.476 -0.604743 -4.12491 0
M  V30 2145 H 205.136 0.173403 -3.24237 0
M  V30 2146 H 206.147 -3.47516 -3.83996 0
M  V30 2147 H 202.824 -0.905284 -4.07567 0
M  V30 2148 H 204.214 -4.91518 -4.58104 0
M  V30 2149 N 206.934 1.1197 -1.10907 0
M  V30 2150 C 208.164 1.8713 -0.875553 0
M  V30 2151 C 208.572 1.8016 0.577843 0
M  V30 2152 O 207.915 1.17699 1.41042 0
M  V30 2153 C 207.977 3.37005 -1.2517 0
M  V30 2154 C 207.641 3.67748 -2.71313 0
M  V30 2155 C 208.638 3.65698 -3.69542 0
M  V30 2156 C 206.323 3.96928 -3.07821 0
M  V30 2157 C 208.317 3.92395 -5.023 0
M  V30 2158 C 206.004 4.23284 -4.40765 0
M  V30 2159 C 207.002 4.21005 -5.37814 0
M  V30 2160 O 206.69 4.46704 -6.68364 0
M  V30 2161 H 206.422 0.598786 -0.313737 0
M  V30 2162 H 208.976 1.42568 -1.47863 0
M  V30 2163 H 207.206 3.82146 -0.591741 0
M  V30 2164 H 208.895 3.93519 -0.994877 0
M  V30 2165 H 209.661 3.43211 -3.42682 0
M  V30 2166 H 205.54 3.97841 -2.32902 0
M  V30 2167 H 209.084 3.90531 -5.78041 0
M  V30 2168 H 204.981 4.45246 -4.67361 0
M  V30 2169 H 205.749 4.64299 -6.74069 0
M  V30 2170 N 208.412 0.89855 1.29475 0
M  V30 2171 C 209.689 0.443416 1.90508 0
M  V30 2172 C 210.069 -1.07685 1.81569 0
M  V30 2173 O 209.417 -1.9182 1.24166 0
M  V30 2174 C 209.627 0.956708 3.35631 0
M  V30 2175 C 210.975 0.999728 4.12663 0
M  V30 2176 O 211.999 0.904299 3.4453 0
M  V30 2177 O 210.858 1.14289 5.34416 0
M  V30 2178 H 207.952 0.138025 0.815401 0
M  V30 2179 H 210.498 0.98834 1.37949 0
M  V30 2180 H 209.27 2.00067 3.36287 0
M  V30 2181 H 208.893 0.391728 3.95666 0
M  V30 2182 N 209.89 -1.43072 0.660911 0
M  V30 2183 C 211.136 -2.0202 0.177708 0
M  V30 2184 C 211.469 -1.52066 -1.20787 0
M  V30 2185 O 210.744 -0.716987 -1.80802 0
M  V30 2186 C 211.027 -3.59561 0.197019 0
M  V30 2187 C 210.88 -4.19727 1.61706 0
M  V30 2188 C 212.199 -4.37664 -0.462396 0
M  V30 2189 H 209.318 -0.734034 0.0660494 0
M  V30 2190 H 211.96 -1.70272 0.843058 0
M  V30 2191 H 210.11 -3.86739 -0.369527 0
M  V30 2192 H 211.782 -4.03553 2.23479 0
M  V30 2193 H 210.025 -3.76084 2.16201 0
M  V30 2194 H 210.696 -5.28834 1.58237 0
M  V30 2195 H 213.172 -4.16095 0.0197215 0
M  V30 2196 H 212.048 -5.47305 -0.418188 0
M  V30 2197 H 212.309 -4.14493 -1.53778 0
M  V30 2198 N 211.368 -0.403325 -1.52352 0
M  V30 2199 C 212.779 0.0675782 -1.86578 0
M  V30 2200 C 213.13 1.44941 -1.32236 0
M  V30 2201 O 212.255 2.06112 -0.659307 0
M  V30 2202 C 212.85 0.129404 -3.38553 0
M  V30 2203 C 211.409 0.544629 -3.72439 0
M  V30 2204 C 210.556 -0.284551 -2.75836 0
M  V30 2205 H 213.507 -0.620631 -1.46061 0
M  V30 2206 H 213.528 0.94581 -3.68558 0
M  V30 2207 H 213.04 -0.87645 -3.78074 0
M  V30 2208 H 211.141 1.55734 -3.38493 0
M  V30 2209 H 211.254 0.293046 -4.78203 0
M  V30 2210 H 209.618 0.252258 -2.53448 0
M  V30 2211 H 210.401 -1.28865 -3.18196 0
M  V30 2212 N 212.846 1.57033 -0.133567 0
M  V30 2213 C 214.095 1.94861 0.520768 0
M  V30 2214 C 214.408 1.02012 1.66892 0
M  V30 2215 O 215.614 1.29365 2.38699 0
M  V30 2216 C 214.07 3.46362 0.977809 0
M  V30 2217 C 213.678 4.47773 -0.142674 0
M  V30 2218 C 215.422 3.93083 1.60269 0
M  V30 2219 C 213.329 5.90468 0.331883 0
M  V30 2220 H 212.259 0.727453 0.198315 0
M  V30 2221 H 214.91 1.82227 -0.215759 0
M  V30 2222 H 213.292 3.54282 1.7692 0
M  V30 2223 H 214.466 4.51536 -0.919317 0
M  V30 2224 H 212.781 4.10891 -0.675124 0
M  V30 2225 H 215.378 4.97121 1.96914 0
M  V30 2226 H 215.721 3.33876 2.48662 0
M  V30 2227 H 216.254 3.88025 0.876453 0
M  V30 2228 H 212.993 6.53463 -0.516341 0
M  V30 2229 H 212.513 5.90094 1.07469 0
M  V30 2230 H 214.192 6.42179 0.788332 0
M  V30 2231 N 214.325 -0.140222 1.56975 0
M  V30 2232 C 215.574 -0.850152 1.82908 0
M  V30 2233 C 215.887 -1.82028 0.715892 0
M  V30 2234 O 217.093 -2.57485 0.861016 0
M  V30 2235 C 215.549 -1.5625 3.24213 0
M  V30 2236 C 215.157 -0.63443 4.43485 0
M  V30 2237 C 216.901 -2.25881 3.59413 0
M  V30 2238 C 214.808 -1.34879 5.75814 0
M  V30 2239 H 213.738 -0.321221 0.682153 0
M  V30 2240 H 216.389 -0.102874 1.83211 0
M  V30 2241 H 214.771 -2.35565 3.18316 0
M  V30 2242 H 215.945 0.12398 4.60633 0
M  V30 2243 H 214.26 -0.0461836 4.16374 0
M  V30 2244 H 216.857 -2.79978 4.5554 0
M  V30 2245 H 217.2 -3.02693 2.85802 0
M  V30 2246 H 217.733 -1.53477 3.67001 0
M  V30 2247 H 214.472 -0.622385 6.52539 0
M  V30 2248 H 213.992 -2.07974 5.6259 0
M  V30 2249 H 215.671 -1.88784 6.18845 0
M  V30 2250 N 215.803 -1.52179 -0.40978 0
M  V30 2251 C 216.733 -1.78435 -1.5061 0
M  V30 2252 C 217.714 -0.635295 -1.57791 0
M  V30 2253 O 218.899 -0.880823 -1.73076 0
M  V30 2254 C 216.029 -1.93444 -2.88439 0
M  V30 2255 C 214.983 -3.09038 -2.96108 0
M  V30 2256 C 214.309 -3.09268 -4.36185 0
M  V30 2257 C 215.609 -4.48508 -2.67652 0
M  V30 2258 H 217.303 -2.70237 -1.28889 0
M  V30 2259 H 214.849 -1.30036 -0.618605 0
M  V30 2260 H 216.802 -2.10394 -3.65119 0
M  V30 2261 H 215.526 -0.983129 -3.11452 0
M  V30 2262 H 214.185 -2.91837 -2.21872 0
M  V30 2263 H 213.833 -2.11861 -4.56206 0
M  V30 2264 H 213.533 -3.86907 -4.42241 0
M  V30 2265 H 215.057 -3.28348 -5.14801 0
M  V30 2266 H 216.471 -4.65918 -3.34056 0
M  V30 2267 H 214.868 -5.28059 -2.85085 0
M  V30 2268 H 215.938 -4.56649 -1.63095 0
M  V30 2269 N 217.281 0.66697 -1.42791 0
M  V30 2270 C 218.214 1.79177 -1.41318 0
M  V30 2271 C 219.192 1.60234 -0.276401 0
M  V30 2272 O 220.376 1.82602 -0.46785 0
M  V30 2273 C 217.503 3.16289 -1.21157 0
M  V30 2274 C 216.549 3.53964 -2.37932 0
M  V30 2275 S 217.382 3.55501 -4.00474 0
M  V30 2276 C 218.538 4.95292 -3.8267 0
M  V30 2277 H 218.771 1.80153 -2.365 0
M  V30 2278 H 216.304 0.838357 -1.29657 0
M  V30 2279 H 218.262 3.95428 -1.10212 0
M  V30 2280 H 216.923 3.1289 -0.275481 0
M  V30 2281 H 216.116 4.53646 -2.19594 0
M  V30 2282 H 215.718 2.82204 -2.45432 0
M  V30 2283 H 218.01 5.83584 -3.44145 0
M  V30 2284 H 218.953 5.18679 -4.82055 0
M  V30 2285 H 219.361 4.68179 -3.15386 0
M  V30 2286 N 218.759 1.29093 0.90403 0
M  V30 2287 C 219.709 1.10482 1.99443 0
M  V30 2288 C 220.693 0.0255401 1.6088 0
M  V30 2289 O 221.885 0.24677 1.75271 0
M  V30 2290 C 219.014 0.778882 3.34348 0
M  V30 2291 C 218.1 1.89749 3.79284 0
M  V30 2292 N 218.491 3.14045 3.96497 0
M  V30 2293 C 216.789 1.78955 4.08523 0
M  V30 2294 C 217.49 3.86996 4.34292 0
M  V30 2295 N 216.466 3.14909 4.43095 0
M  V30 2296 H 220.268 2.04778 2.10815 0
M  V30 2297 H 217.782 1.20155 1.09255 0
M  V30 2298 H 219.779 0.62661 4.12164 0
M  V30 2299 H 218.439 -0.156205 3.24324 0
M  V30 2300 H 219.45 3.49548 3.82148 0
M  V30 2301 H 216.127 0.926886 4.07081 0
M  V30 2302 H 217.517 4.93941 4.55491 0
M  V30 2303 N 220.237 -1.11381 1.11499 0
M  V30 2304 C 221.185 -2.19522 0.768956 0
M  V30 2305 C 222.179 -1.67693 -0.239857 0
M  V30 2306 O 223.385 -1.79727 -0.0990755 0
M  V30 2307 H 219.76 -0.715711 0.230786 0
M  V30 2308 H 221.731 -2.45954 1.68964 0
M  V30 2309 C 220.48 -3.46945 0.229073 0
M  V30 2310 H 219.803 -3.8718 0.996596 0
M  V30 2311 H 221.243 -4.23993 0.0251441 0
M  V30 2312 C 219.702 -3.2042 -1.04079 0
M  V30 2313 O 220.232 -3.41178 -2.12038 0
M  V30 2314 N 218.438 -2.74151 -0.963823 0
M  V30 2315 H 217.985 -2.57459 -0.0851722 0
M  V30 2316 H 217.943 -2.56781 -1.81414 0
M  V30 2317 N 221.715 -0.905404 -1.28997 0
M  V30 2318 C 223.131 -0.60233 -1.47798 0
M  V30 2319 C 223.331 0.854645 -1.82478 0
M  V30 2320 O 222.387 1.63439 -1.92468 0
M  V30 2321 C 223.7 -1.53306 -2.58685 0
M  V30 2322 C 225.248 -1.53887 -2.72558 0
M  V30 2323 C 225.723 -2.45602 -3.86579 0
M  V30 2324 N 227.214 -2.43681 -3.93921 0
M  V30 2325 C 227.949 -3.11347 -4.81509 0
M  V30 2326 N 227.445 -3.88313 -5.73746 0
M  V30 2327 N 229.238 -3.00476 -4.75048 0
M  V30 2328 H 221.389 -1.84765 -1.04764 0
M  V30 2329 H 223.652 -0.792025 -0.520961 0
M  V30 2330 H 223.358 -2.57141 -2.39941 0
M  V30 2331 H 223.232 -1.25787 -3.55609 0
M  V30 2332 H 225.619 -0.507941 -2.90696 0
M  V30 2333 H 225.7 -1.85447 -1.76191 0
M  V30 2334 H 225.344 -3.48792 -3.69197 0
M  V30 2335 H 225.274 -2.11349 -4.82327 0
M  V30 2336 H 227.765 -1.87767 -3.27951 0
M  V30 2337 H 228.078 -4.36985 -6.37389 0
M  V30 2338 H 226.423 -3.92419 -5.73614 0
M  V30 2339 H 229.614 -2.39858 -4.01977 0
M  V30 2340 H 229.787 -3.53485 -5.43095 0
M  V30 2341 N 223.193 1.4272 -0.668489 0
M  V30 2342 C 224.47 1.95248 -0.117373 0
M  V30 2343 C 224.85 1.60919 1.36632 0
M  V30 2344 O 224.198 0.902095 2.09939 0
M  V30 2345 C 224.408 3.46927 -0.379806 0
M  V30 2346 C 225.756 4.23588 -0.292923 0
M  V30 2347 O 226.78 3.5482 -0.313204 0
M  V30 2348 O 225.639 5.46017 -0.229697 0
M  V30 2349 H 222.733 0.827 0.00079152 0
M  V30 2350 H 225.279 1.52581 -0.742783 0
M  V30 2351 H 224.051 3.65096 -1.40786 0
M  V30 2352 H 223.674 3.96627 0.277923 0
M  V30 2353 N 224.671 0.411399 1.52136 0
M  V30 2354 C 225.619 -0.427633 2.28635 0
M  V30 2355 C 226.613 -1.04383 1.33419 0
M  V30 2356 O 227.819 -0.981772 1.50868 0
M  V30 2357 H 224.194 -0.156689 0.735495 0
M  V30 2358 H 226.165 0.238761 2.97443 0
M  V30 2359 C 224.914 -1.53082 3.12188 0
M  V30 2360 H 224.237 -1.06601 3.85326 0
M  V30 2361 H 225.677 -2.09167 3.68816 0
M  V30 2362 C 224.136 -2.49946 2.25895 0
M  V30 2363 O 224.666 -3.53884 1.90076 0
M  V30 2364 N 222.872 -2.2021 1.8962 0
M  V30 2365 H 222.419 -1.35719 2.18948 0
M  V30 2366 H 222.377 -2.85266 1.32176 0
M  V30 2367 N 226.149 -1.5696 0.141893 0
M  V30 2368 C 227.082 -2.12271 -0.837627 0
M  V30 2369 C 228.06 -1.04495 -1.24578 0
M  V30 2370 O 229.244 -1.32293 -1.34278 0
M  V30 2371 C 226.371 -2.63822 -2.12404 0
M  V30 2372 C 225.417 -3.83698 -1.86221 0
M  V30 2373 S 226.25 -5.24948 -1.05781 0
M  V30 2374 C 227.406 -5.79884 -2.35552 0
M  V30 2375 H 227.639 -2.95023 -0.367249 0
M  V30 2376 H 225.172 -1.54231 -0.0723014 0
M  V30 2377 H 227.13 -2.94175 -2.86307 0
M  V30 2378 H 225.791 -1.8121 -2.56557 0
M  V30 2379 H 224.984 -4.17995 -2.81596 0
M  V30 2380 H 224.586 -3.5408 -1.20429 0
M  V30 2381 H 226.878 -5.91005 -3.31239 0
M  V30 2382 H 227.821 -6.77544 -2.05767 0
M  V30 2383 H 228.229 -5.08095 -2.45967 0
M  V30 2384 N 227.627 0.131896 -1.57047 0
M  V30 2385 C 228.575 1.18146 -2.0036 0
M  V30 2386 C 229.569 1.43614 -0.898406 0
M  V30 2387 O 230.775 1.43729 -1.08361 0
M  V30 2388 H 227.15 0.398042 -0.638018 0
M  V30 2389 H 229.121 0.789564 -2.87765 0
M  V30 2390 C 227.87 2.50341 -2.41298 0
M  V30 2391 H 227.193 2.31578 -3.25902 0
M  V30 2392 H 228.633 3.22371 -2.75414 0
M  V30 2393 C 227.092 3.11984 -1.27153 0
M  V30 2394 O 227.622 3.97484 -0.580459 0
M  V30 2395 N 225.828 2.71662 -1.03189 0
M  V30 2396 H 225.375 2.02231 -1.59564 0
M  V30 2397 H 225.333 3.13238 -0.270077 0
M  V30 2398 N 229.106 1.52395 0.401703 0
M  V30 2399 C 230.336 1.70429 1.1678 0
M  V30 2400 C 230.744 0.416702 1.84554 0
M  V30 2401 O 230.087 -0.617697 1.73003 0
M  V30 2402 C 230.149 2.78919 2.26814 0
M  V30 2403 C 229.813 4.20437 1.79113 0
M  V30 2404 C 230.81 5.04028 1.27482 0
M  V30 2405 C 228.495 4.66704 1.85722 0
M  V30 2406 C 230.489 6.31961 0.830913 0
M  V30 2407 C 228.176 5.94625 1.40942 0
M  V30 2408 C 229.174 6.77082 0.897128 0
M  V30 2409 O 228.862 8.02607 0.455822 0
M  V30 2410 H 228.594 0.574272 0.356634 0
M  V30 2411 H 231.148 1.99767 0.477724 0
M  V30 2412 H 229.378 2.44973 2.99207 0
M  V30 2413 H 231.067 2.8548 2.88541 0
M  V30 2414 H 231.833 4.69471 1.21744 0
M  V30 2415 H 227.712 4.0262 2.24539 0
M  V30 2416 H 231.256 6.96271 0.430368 0
M  V30 2417 H 227.153 6.28688 1.46362 0
M  V30 2418 H 227.921 8.16453 0.578457 0
M  V30 2419 N 230.584 -0.659388 1.43143 0
M  V30 2420 C 232 -0.974337 1.26407 0
M  V30 2421 C 232.2 -2.007 0.179341 0
M  V30 2422 O 231.256 -2.4856 -0.444295 0
M  V30 2423 C 232.569 -1.46447 2.62628 0
M  V30 2424 C 234.117 -1.58144 2.7011 0
M  V30 2425 C 234.592 -2.1055 4.06734 0
M  V30 2426 N 236.083 -2.17861 4.08767 0
M  V30 2427 C 236.818 -2.59519 5.1131 0
M  V30 2428 N 236.314 -3.00518 6.24228 0
M  V30 2429 N 238.107 -2.59404 4.98664 0
M  V30 2430 H 230.258 0.0240528 2.12386 0
M  V30 2431 H 232.521 -0.0518065 0.946583 0
M  V30 2432 H 232.227 -0.780123 3.42939 0
M  V30 2433 H 232.101 -2.44058 2.87603 0
M  V30 2434 H 234.488 -2.25682 1.90136 0
M  V30 2435 H 234.569 -0.589828 2.48907 0
M  V30 2436 H 234.213 -1.43616 4.87172 0
M  V30 2437 H 234.143 -3.10531 4.25298 0
M  V30 2438 H 236.634 -1.88975 3.27257 0
M  V30 2439 H 236.947 -3.31036 6.98309 0
M  V30 2440 H 235.292 -2.98337 6.2771 0
M  V30 2441 H 238.483 -2.26747 4.09516 0
M  V30 2442 H 238.656 -2.91548 5.78709 0
M  V30 2443 N 232.062 -1.29571 -0.897171 0
M  V30 2444 C 233.01 -1.14802 -2.02295 0
M  V30 2445 C 234.004 -0.0629637 -1.69283 0
M  V30 2446 O 235.21 -0.222945 -1.78614 0
M  V30 2447 H 231.585 -0.354692 -0.663097 0
M  V30 2448 H 233.556 -2.10108 -2.11889 0
M  V30 2449 C 232.305 -0.843966 -3.37302 0
M  V30 2450 H 231.628 -1.67093 -3.63208 0
M  V30 2451 H 233.068 -0.780672 -4.16751 0
M  V30 2452 C 231.527 0.452843 -3.33843 0
M  V30 2453 O 232.057 1.47813 -3.73516 0
M  V30 2454 N 230.263 0.459601 -2.86943 0
M  V30 2455 H 229.81 -0.375213 -2.54853 0
M  V30 2456 H 229.768 1.32726 -2.85011 0
M  V30 2457 N 233.54 1.10788 -1.12088 0
M  V30 2458 C 234.47 2.19083 -0.807755 0
M  V30 2459 C 235.451 1.6858 0.226859 0
M  V30 2460 O 236.636 1.93997 0.0888475 0
M  V30 2461 C 233.766 3.46344 -0.257576 0
M  V30 2462 C 232.72 4.101 -1.22483 0
M  V30 2463 C 232.046 5.32016 -0.535052 0
M  V30 2464 C 233.346 4.54236 -2.57811 0
M  V30 2465 H 235.04 2.45534 -1.71328 0
M  V30 2466 H 232.586 1.1801 -0.825205 0
M  V30 2467 H 234.539 4.21392 -0.0262679 0
M  V30 2468 H 233.263 3.19373 0.683278 0
M  V30 2469 H 231.922 3.37054 -1.44189 0
M  V30 2470 H 231.57 5.01319 0.410827 0
M  V30 2471 H 231.27 5.75625 -1.18024 0
M  V30 2472 H 232.794 6.09799 -0.312695 0
M  V30 2473 H 234.208 5.20575 -2.40155 0
M  V30 2474 H 232.605 5.08682 -3.18375 0
M  V30 2475 H 233.675 3.6734 -3.16528 0
M  V30 2476 N 235.018 0.912232 1.28515 0
M  V30 2477 C 235.951 0.343928 2.25593 0
M  V30 2478 C 236.929 -0.550994 1.5298 0
M  V30 2479 O 238.113 -0.494991 1.81885 0
M  V30 2480 C 235.24 -0.508525 3.34861 0
M  V30 2481 C 234.286 0.320808 4.25292 0
M  V30 2482 S 235.119 1.72658 5.06902 0
M  V30 2483 C 236.275 0.881394 6.19663 0
M  V30 2484 H 236.508 1.16674 2.73449 0
M  V30 2485 H 234.041 0.713384 1.36931 0
M  V30 2486 H 235.999 -0.994539 3.9827 0
M  V30 2487 H 234.66 -1.30571 2.85675 0
M  V30 2488 H 233.853 -0.330941 5.02912 0
M  V30 2489 H 233.455 0.74042 3.66598 0
M  V30 2490 H 235.747 0.110359 6.7741 0
M  V30 2491 H 236.69 1.63009 6.89082 0
M  V30 2492 H 237.098 0.430239 5.62858 0
M  V30 2493 N 236.496 -1.42363 0.676048 0
M  V30 2494 C 237.459 -2.29199 0.00766941 0
M  V30 2495 C 238.459 -1.43389 -0.727745 0
M  V30 2496 O 239.649 -1.64764 -0.56556 0
M  V30 2497 C 236.781 -3.2591 -0.999785 0
M  V30 2498 H 237.974 -2.89794 0.771988 0
M  V30 2499 H 235.527 -1.50024 0.438468 0
M  V30 2500 H 236.262 -2.70256 -1.79255 0
M  V30 2501 H 236.047 -3.89202 -0.475829 0
M  V30 2502 H 237.537 -3.91028 -1.46583 0
M  V30 2503 N 237.974 -0.419461 -1.51915 0
M  V30 2504 C 239.251 0.211999 -1.94448 0
M  V30 2505 C 239.631 1.61703 -1.35703 0
M  V30 2506 O 238.979 2.22102 -0.536931 0
M  V30 2507 C 239.189 0.207872 -3.4838 0
M  V30 2508 C 240.537 0.422192 -4.22496 0
M  V30 2509 O 241.561 0.286778 -3.55044 0
M  V30 2510 O 240.42 0.690009 -5.42126 0
M  V30 2511 H 237.514 0.139586 -0.815135 0
M  V30 2512 H 240.06 -0.476151 -1.62883 0
M  V30 2513 H 238.832 -0.775102 -3.83546 0
M  V30 2514 H 238.455 0.939688 -3.86336 0
M  V30 2515 N 239.452 1.56882 -0.150215 0
M  V30 2516 C 240.385 2.12712 0.826358 0
M  V30 2517 C 241.363 1.05154 1.24022 0
M  V30 2518 O 242.547 1.33004 1.33575 0
M  V30 2519 C 239.674 2.64945 2.11002 0
M  V30 2520 C 238.72 3.8468 1.84183 0
M  V30 2521 S 239.553 5.25502 1.02995 0
M  V30 2522 C 240.709 5.81125 2.32474 0
M  V30 2523 H 240.942 2.95214 0.351598 0
M  V30 2524 H 238.475 1.54267 0.0641211 0
M  V30 2525 H 240.433 2.95689 2.84742 0
M  V30 2526 H 239.094 1.82568 2.55593 0
M  V30 2527 H 238.287 4.19482 2.79375 0
M  V30 2528 H 237.889 3.54714 1.1855 0
M  V30 2529 H 240.181 5.92753 3.281 0
M  V30 2530 H 241.124 6.78625 2.02171 0
M  V30 2531 H 241.532 5.09392 2.43269 0
M  V30 2532 N 240.93 -0.123565 1.57115 0
M  V30 2533 C 242.179 -0.830704 1.83799 0
M  V30 2534 C 242.492 -1.81259 0.735158 0
M  V30 2535 O 243.698 -2.56558 0.888278 0
M  V30 2536 C 242.154 -1.52802 3.25852 0
M  V30 2537 C 241.762 -0.587356 4.44133 0
M  V30 2538 C 243.506 -2.22056 3.61789 0
M  V30 2539 C 241.413 -1.28764 5.77212 0
M  V30 2540 H 240.343 -0.313967 0.685522 0
M  V30 2541 H 242.994 -0.0834359 1.8331 0
M  V30 2542 H 241.376 -2.32175 3.20797 0
M  V30 2543 H 242.55 0.172829 4.60476 0
M  V30 2544 H 240.865 -0.00201892 4.164 0
M  V30 2545 H 243.462 -2.75131 4.58483 0
M  V30 2546 H 243.805 -2.99644 2.88997 0
M  V30 2547 H 244.338 -1.49576 3.68608 0
M  V30 2548 H 241.077 -0.55314 6.53162 0
M  V30 2549 H 240.597 -2.01995 5.64764 0
M  V30 2550 H 242.276 -1.8221 6.20813 0
M  V30 2551 N 242.408 -1.52605 -0.393616 0
M  V30 2552 C 243.371 -1.76415 -1.46323 0
M  V30 2553 C 244.371 -0.634126 -1.47768 0
M  V30 2554 O 245.561 -0.902142 -1.4902 0
M  V30 2555 C 242.693 -1.8607 -2.85641 0
M  V30 2556 H 243.886 -2.71916 -1.26498 0
M  V30 2557 H 241.439 -1.43257 -0.625073 0
M  V30 2558 H 242.174 -0.925378 -3.10817 0
M  V30 2559 H 241.959 -2.68235 -2.85993 0
M  V30 2560 H 243.449 -2.06179 -3.63153 0
M  V30 2561 N 243.887 0.651787 -1.4349 0
M  V30 2562 C 245.164 1.40909 -1.35661 0
M  V30 2563 C 245.544 2.11099 -0.00511733 0
M  V30 2564 O 244.892 2.04892 1.0115 0
M  V30 2565 C 245.102 2.3926 -2.54078 0
M  V30 2566 C 246.45 3.03217 -2.97228 0
M  V30 2567 O 247.474 2.49588 -2.54135 0
M  V30 2568 O 246.333 4.00455 -3.71885 0
M  V30 2569 H 243.427 0.629625 -0.536191 0
M  V30 2570 H 245.973 0.678575 -1.55542 0
M  V30 2571 H 244.745 1.86352 -3.44076 0
M  V30 2572 H 244.368 3.1976 -2.36303 0
M  V30 2573 N 245.365 1.30045 0.890287 0
M  V30 2574 C 246.295 1.18541 2.01172 0
M  V30 2575 C 247.276 0.0773356 1.69924 0
M  V30 2576 O 248.461 0.25845 1.92473 0
M  V30 2577 C 245.591 0.870941 3.36202 0
M  V30 2578 C 244.545 1.93637 3.81692 0
M  V30 2579 C 243.871 1.475 5.13953 0
M  V30 2580 C 245.171 3.34666 4.00994 0
M  V30 2581 H 246.865 2.12359 2.11054 0
M  V30 2582 H 244.411 1.02238 1.01407 0
M  V30 2583 H 246.364 0.777141 4.14172 0
M  V30 2584 H 245.088 -0.102926 3.26438 0
M  V30 2585 H 243.747 2.01972 3.05946 0
M  V30 2586 H 243.395 0.489551 5.00612 0
M  V30 2587 H 243.095 2.1876 5.4536 0
M  V30 2588 H 244.619 1.39489 5.94454 0
M  V30 2589 H 246.033 3.2912 4.69417 0
M  V30 2590 H 244.43 4.03966 4.43769 0
M  V30 2591 H 245.5 3.76949 3.05021 0
M  V30 2592 N 246.843 -1.10192 1.12674 0
M  V30 2593 C 248.073 -1.85713 0.905213 0
M  V30 2594 C 248.481 -1.81056 -0.549108 0
M  V30 2595 O 247.824 -1.19927 -1.39151 0
M  V30 2596 C 247.886 -3.34972 1.30516 0
M  V30 2597 C 247.55 -3.63385 2.77129 0
M  V30 2598 C 248.547 -3.59772 3.75313 0
M  V30 2599 C 246.232 -3.91981 3.14096 0
M  V30 2600 C 248.226 -3.84354 5.08479 0
M  V30 2601 C 245.913 -4.16218 4.47443 0
M  V30 2602 C 246.911 -4.12395 5.44444 0
M  V30 2603 O 246.599 -4.36014 6.75387 0
M  V30 2604 H 246.331 -0.593719 0.323223 0
M  V30 2605 H 248.885 -1.40198 1.50112 0
M  V30 2606 H 247.115 -3.81156 0.652463 0
M  V30 2607 H 248.804 -3.91886 1.05736 0
M  V30 2608 H 249.57 -3.37716 3.48099 0
M  V30 2609 H 245.449 -3.94085 2.39202 0
M  V30 2610 H 248.993 -3.81285 5.84181 0
M  V30 2611 H 244.89 -4.37754 4.74386 0
M  V30 2612 H 245.658 -4.53516 6.8137 0
M  V30 2613 N 248.321 -0.919034 -1.28029 0
M  V30 2614 C 249.598 -0.473668 -1.89778 0
M  V30 2615 C 249.978 1.04783 -1.83259 0
M  V30 2616 O 249.326 1.8982 -1.27202 0
M  V30 2617 C 249.536 -1.00998 -3.34066 0
M  V30 2618 C 250.884 -1.06525 -4.1102 0
M  V30 2619 O 251.908 -0.958996 -3.43048 0
M  V30 2620 O 250.767 -1.22776 -5.3253 0
M  V30 2621 H 247.861 -0.15098 -0.813101 0
M  V30 2622 H 250.407 -1.01016 -1.36359 0
M  V30 2623 H 249.179 -2.05392 -3.33061 0
M  V30 2624 H 248.802 -0.454626 -3.94992 0
M  V30 2625 N 249.799 1.42003 -0.683588 0
M  V30 2626 C 251.024 2.06265 -0.216647 0
M  V30 2627 C 251.449 1.51059 1.12083 0
M  V30 2628 O 250.807 0.632638 1.69904 0
M  V30 2629 C 250.855 3.60191 -0.171759 0
M  V30 2630 O 249.959 4.03396 0.857069 0
M  V30 2631 H 249.3 0.65502 -0.108834 0
M  V30 2632 H 251.83 1.81982 -0.935077 0
M  V30 2633 H 251.84 4.08 0.0014303 0
M  V30 2634 H 250.515 3.99743 -1.14796 0
M  V30 2635 H 249.092 3.67117 0.654208 0
M  V30 2636 N 251.277 0.427512 1.51691 0
M  V30 2637 C 252.526 -0.143679 2.01188 0
M  V30 2638 C 252.839 -1.44642 1.31674 0
M  V30 2639 O 254.045 -2.09997 1.72086 0
M  V30 2640 C 252.501 -0.306602 3.58592 0
M  V30 2641 C 252.109 0.985125 4.37035 0
M  V30 2642 C 253.853 -0.832091 4.16265 0
M  V30 2643 C 251.76 0.788382 5.86122 0
M  V30 2644 H 250.69 -0.0574701 0.751807 0
M  V30 2645 H 253.341 0.555772 1.74881 0
M  V30 2646 H 251.723 -1.06882 3.81303 0
M  V30 2647 H 252.897 1.75492 4.26074 0
M  V30 2648 H 251.212 1.4384 3.90767 0
M  V30 2649 H 253.809 -0.995617 5.25349 0
M  V30 2650 H 254.152 -1.81186 3.74803 0
M  V30 2651 H 254.685 -0.128444 3.97593 0
M  V30 2652 H 251.424 1.74025 6.31978 0
M  V30 2653 H 250.944 0.0582143 5.99772 0
M  V30 2654 H 252.623 0.437722 6.45518 0
M  V30 2655 N 252.755 -1.56801 0.158532 0
M  V30 2656 C 253.702 -2.17337 -0.776729 0
M  V30 2657 C 254.672 -1.1096 -1.23601 0
M  V30 2658 O 255.857 -1.39054 -1.30647 0
M  V30 2659 C 252.997 -2.80822 -2.00582 0
M  V30 2660 C 252.11 -4.01624 -1.59129 0
M  V30 2661 C 251.245 -4.53072 -2.77306 0
M  V30 2662 C 250.284 -5.66314 -2.32282 0
M  V30 2663 N 249.421 -6.12329 -3.43508 0
M  V30 2664 H 254.261 -2.96918 -0.253701 0
M  V30 2665 H 251.798 -1.46661 -0.113504 0
M  V30 2666 H 253.756 -3.15779 -2.72652 0
M  V30 2667 H 252.386 -2.03866 -2.50277 0
M  V30 2668 H 251.438 -3.72571 -0.767806 0
M  V30 2669 H 252.75 -4.83633 -1.2207 0
M  V30 2670 H 251.904 -4.90145 -3.57551 0
M  V30 2671 H 250.643 -3.70095 -3.17617 0
M  V30 2672 H 249.648 -5.28806 -1.5048 0
M  V30 2673 H 250.873 -6.51085 -1.93043 0
M  V30 2674 H 248.819 -5.32284 -3.83418 0
M  V30 2675 H 248.736 -6.89293 -3.105 0
M  V30 2676 H 250.004 -6.5405 -4.24075 0
M  V30 2677 N 254.233 0.115231 -1.57178 0
M  V30 2678 C 255.482 0.820945 -1.84237 0
M  V30 2679 C 255.795 1.80866 -0.744761 0
M  V30 2680 O 257.001 2.56083 -0.901871 0
M  V30 2681 C 255.457 1.51072 -3.26658 0
M  V30 2682 C 255.065 0.563795 -4.44438 0
M  V30 2683 C 256.809 2.20134 -3.62962 0
M  V30 2684 C 254.716 1.25701 -5.77887 0
M  V30 2685 H 253.646 0.310328 -0.687177 0
M  V30 2686 H 256.297 0.0737134 -1.83352 0
M  V30 2687 H 254.679 2.30471 -3.22024 0
M  V30 2688 H 255.853 -0.197247 -4.60378 0
M  V30 2689 H 254.168 -0.0200638 -4.16395 0
M  V30 2690 H 256.765 2.72696 -4.59936 0
M  V30 2691 H 257.108 2.98107 -2.90582 0
M  V30 2692 H 257.641 1.47619 -3.69396 0
M  V30 2693 H 254.38 0.518493 -6.53446 0
M  V30 2694 H 253.9 1.98997 -5.65827 0
M  V30 2695 H 255.579 1.78915 -6.2177 0
M  V30 2696 N 255.711 1.52812 0.385517 0
M  V30 2697 C 256.674 1.77188 1.45386 0
M  V30 2698 C 257.674 0.641953 1.4743 0
M  V30 2699 O 258.864 0.910033 1.4854 0
M  V30 2700 C 255.996 1.87582 2.8465 0
M  V30 2701 H 257.189 2.72583 1.25054 0
M  V30 2702 H 254.742 1.43586 0.617467 0
M  V30 2703 H 255.477 0.941849 3.10322 0
M  V30 2704 H 255.262 2.69748 2.84567 0
M  V30 2705 H 256.752 2.08102 3.62054 0
M  V30 2706 N 257.189 -0.644168 1.43834 0
M  V30 2707 C 258.136 -1.75671 1.49694 0
M  V30 2708 C 259.106 -1.6246 0.345809 0
M  V30 2709 O 260.291 -1.82573 0.554234 0
M  V30 2710 C 257.431 -3.13867 1.43463 0
M  V30 2711 C 256.544 -3.38147 2.6885 0
M  V30 2712 C 255.679 -4.66241 2.54544 0
M  V30 2713 C 254.718 -4.83657 3.75157 0
M  V30 2714 N 253.855 -6.03016 3.59605 0
M  V30 2715 H 258.695 -1.69998 2.44754 0
M  V30 2716 H 256.232 -0.829458 1.21484 0
M  V30 2717 H 258.19 -3.9377 1.37843 0
M  V30 2718 H 256.82 -3.18588 0.519783 0
M  V30 2719 H 255.872 -2.52276 2.84712 0
M  V30 2720 H 257.184 -3.46899 3.58417 0
M  V30 2721 H 256.338 -5.54285 2.46683 0
M  V30 2722 H 255.077 -4.59826 1.62516 0
M  V30 2723 H 254.082 -3.94046 3.83416 0
M  V30 2724 H 255.307 -4.91896 4.68204 0
M  V30 2725 H 253.253 -5.97715 2.7032 0
M  V30 2726 H 253.17 -6.12766 4.42779 0
M  V30 2727 H 254.438 -6.93657 3.55613 0
M  V30 2728 N 258.668 -1.30515 -0.883378 0
M  V30 2729 C 259.945 -1.10086 -1.6168 0
M  V30 2730 C 260.325 0.349269 -2.08191 0
M  V30 2731 O 259.673 1.34105 -1.85008 0
M  V30 2732 C 259.883 -2.10315 -2.78511 0
M  V30 2733 C 261.231 -2.42119 -3.48803 0
M  V30 2734 O 262.255 -2.08638 -2.88702 0
M  V30 2735 O 261.114 -2.99396 -4.57192 0
M  V30 2736 H 258.208 -0.422907 -0.710689 0
M  V30 2737 H 260.754 -1.41947 -0.930015 0
M  V30 2738 H 259.526 -3.07917 -2.41459 0
M  V30 2739 H 259.149 -1.79282 -3.54886 0
M  V30 2740 N 260.146 1.09593 -1.13257 0
M  V30 2741 C 261.109 2.14359 -0.811358 0
M  V30 2742 C 262.109 1.59808 0.178377 0
M  V30 2743 O 263.299 1.74132 -0.0484911 0
M  V30 2744 C 260.431 3.40269 -0.207276 0
M  V30 2745 H 261.624 2.44284 -1.73969 0
M  V30 2746 H 259.177 1.25102 -0.936973 0
M  V30 2747 H 259.912 3.15969 0.73036 0
M  V30 2748 H 259.697 3.81154 -0.919992 0
M  V30 2749 H 261.187 4.176 0.000667944 0
M  V30 2750 N 261.624 0.925811 1.2754 0
M  V30 2751 C 262.872 0.564138 1.94067 0
M  V30 2752 C 263.193 -0.897188 1.73134 0
M  V30 2753 O 262.463 -1.63573 1.07799 0
M  V30 2754 H 261.043 0.205645 0.718136 0
M  V30 2755 H 263.705 1.1778 1.55287 0
M  V30 2756 H 262.801 0.76881 3.02483 0
M  V30 2757 N 263.102 -1.41638 0.69111 0
M  V30 2758 C 264.348 -2.01598 0.220519 0
M  V30 2759 C 264.681 -1.54594 -1.17535 0
M  V30 2760 O 263.956 -0.755177 -1.79241 0
M  V30 2761 C 264.239 -3.59062 0.273243 0
M  V30 2762 C 264.092 -4.16203 1.70573 0
M  V30 2763 C 265.411 -4.38546 -0.369457 0
M  V30 2764 H 262.53 -0.732468 0.0816045 0
M  V30 2765 H 265.172 -1.68445 0.878986 0
M  V30 2766 H 263.322 -3.87435 -0.287411 0
M  V30 2767 H 264.994 -3.98722 2.31989 0
M  V30 2768 H 263.237 -3.71414 2.2413 0
M  V30 2769 H 263.908 -5.25358 1.69419 0
M  V30 2770 H 266.384 -4.1596 0.107977 0
M  V30 2771 H 265.26 -5.48069 -0.302002 0
M  V30 2772 H 265.521 -4.17662 -1.44951 0
M  V30 2773 N 264.58 -0.43555 -1.51462 0
M  V30 2774 C 265.996 -0.0877501 -1.59359 0
M  V30 2775 C 266.196 1.4027 -1.4466 0
M  V30 2776 O 265.252 2.17243 -1.28693 0
M  V30 2777 C 266.565 -0.606264 -2.94525 0
M  V30 2778 C 268.113 -0.566548 -3.0783 0
M  V30 2779 C 268.588 -1.06201 -4.45517 0
M  V30 2780 N 270.079 -1.01992 -4.51832 0
M  V30 2781 C 270.814 -1.37417 -5.5669 0
M  V30 2782 N 270.31 -1.80119 -6.68976 0
M  V30 2783 N 272.103 -1.29245 -5.47039 0
M  V30 2784 H 264.254 -1.40533 -1.59261 0
M  V30 2785 H 266.517 -0.578992 -0.750648 0
M  V30 2786 H 266.223 -1.64901 -3.10645 0
M  V30 2787 H 266.097 -0.0302097 -3.77188 0
M  V30 2788 H 268.484 0.467208 -2.91378 0
M  V30 2789 H 268.565 -1.17898 -2.2701 0
M  V30 2790 H 268.209 -2.09422 -4.62715 0
M  V30 2791 H 268.139 -0.426127 -5.24873 0
M  V30 2792 H 270.63 -0.706308 -3.71241 0
M  V30 2793 H 270.943 -2.05392 -7.45006 0
M  V30 2794 H 269.288 -1.84044 -6.70189 0
M  V30 2795 H 272.479 -0.957522 -4.58202 0
M  V30 2796 H 272.652 -1.57182 -6.28648 0
M  V30 2797 N 266.058 1.56714 -0.166846 0
M  V30 2798 C 267.335 1.88412 0.525373 0
M  V30 2799 C 267.715 1.07602 1.81618 0
M  V30 2800 O 267.063 0.168621 2.27877 0
M  V30 2801 C 267.273 3.40363 0.771613 0
M  V30 2802 C 268.621 4.10007 1.1036 0
M  V30 2803 O 269.645 3.45655 0.860304 0
M  V30 2804 O 268.504 5.2369 1.56239 0
M  V30 2805 H 265.598 0.781587 0.270278 0
M  V30 2806 H 268.144 1.68458 -0.204946 0
M  V30 2807 H 266.916 3.91046 -0.141093 0
M  V30 2808 H 266.539 3.65914 1.55541 0
M  V30 2809 N 267.536 -0.106894 1.57237 0
M  V30 2810 C 268.446 -1.14911 2.0453 0
M  V30 2811 C 269.462 -1.44592 0.96795 0
M  V30 2812 O 270.638 -1.55468 1.2803 0
M  V30 2813 C 267.703 -2.45272 2.45036 0
M  V30 2814 C 266.764 -2.22879 3.66911 0
M  V30 2815 C 265.997 -3.47024 4.05475 0
M  V30 2816 O 266.22 -4.54804 3.44252 0
M  V30 2817 O 265.154 -3.3731 4.98504 0
M  V30 2818 H 268.98 -0.777461 2.9358 0
M  V30 2819 H 266.565 -0.318563 1.45964 0
M  V30 2820 H 268.447 -3.22055 2.71769 0
M  V30 2821 H 267.122 -2.81886 1.59129 0
M  V30 2822 H 266.029 -1.43915 3.45311 0
M  V30 2823 H 267.362 -1.91163 4.53561 0
M  V30 2824 N 269.014 -1.53014 -0.377408 0
M  V30 2825 C 269.962 -1.7927 -1.48206 0
M  V30 2826 C 270.956 -0.661195 -1.55963 0
M  V30 2827 O 272.162 -0.843908 -1.58991 0
M  V30 2828 H 268.537 -0.567425 -0.493491 0
M  V30 2829 H 270.508 -2.71753 -1.2326 0
M  V30 2830 C 269.257 -1.98894 -2.85196 0
M  V30 2831 H 268.58 -2.85395 -2.79981 0
M  V30 2832 H 270.02 -2.21249 -3.61698 0
M  V30 2833 C 268.479 -0.764691 -3.28107 0
M  V30 2834 O 269.009 0.0523226 -4.01666 0
M  V30 2835 N 267.215 -0.591493 -2.84517 0
M  V30 2836 H 266.762 -1.25749 -2.24822 0
M  V30 2837 H 266.72 0.226253 -3.13585 0
M  V30 2838 N 270.492 0.636531 -1.44174 0
M  V30 2839 C 271.741 1.39213 -1.45954 0
M  V30 2840 C 272.054 1.95374 -0.0939119 0
M  V30 2841 O 273.26 2.71498 0.0107767 0
M  V30 2842 C 271.716 2.52025 -2.56927 0
M  V30 2843 C 271.324 2.024 -3.99673 0
M  V30 2844 C 273.068 3.29269 -2.67922 0
M  V30 2845 C 270.975 3.12521 -5.0208 0
M  V30 2846 H 269.905 0.523132 -0.542999 0
M  V30 2847 H 272.556 0.685349 -1.70221 0
M  V30 2848 H 270.938 3.25253 -2.25891 0
M  V30 2849 H 272.112 1.36073 -4.40251 0
M  V30 2850 H 270.427 1.37987 -3.92872 0
M  V30 2851 H 273.024 4.11352 -3.41605 0
M  V30 2852 H 273.367 3.78397 -1.73555 0
M  V30 2853 H 273.9 2.63129 -2.98342 0
M  V30 2854 H 270.639 2.68343 -5.98057 0
M  V30 2855 H 270.159 3.77507 -4.66099 0
M  V30 2856 H 271.838 3.77385 -5.25538 0
M  V30 2857 N 271.97 1.30982 0.876444 0
M  V30 2858 C 273.219 1.19658 1.62373 0
M  V30 2859 C 273.532 -0.245636 1.94052 0
M  V30 2860 O 274.738 -0.48049 2.67214 0
M  V30 2861 C 273.194 2.09433 2.92687 0
M  V30 2862 C 272.802 3.58613 2.68516 0
M  V30 2863 C 274.546 2.06893 3.70669 0
M  V30 2864 C 272.453 4.40416 3.94699 0
M  V30 2865 H 271.383 0.444268 0.609214 0
M  V30 2866 H 274.034 1.55791 0.969605 0
M  V30 2867 H 272.416 1.66191 3.59439 0
M  V30 2868 H 273.59 4.10058 2.10212 0
M  V30 2869 H 271.905 3.63063 2.03898 0
M  V30 2870 H 274.502 2.65258 4.64265 0
M  V30 2871 H 274.845 1.05448 4.02724 0
M  V30 2872 H 275.378 2.48301 3.10792 0
M  V30 2873 H 272.117 5.42591 3.67798 0
M  V30 2874 H 271.637 3.93731 4.52477 0
M  V30 2875 H 273.316 4.52294 4.62644 0
M  V30 2876 N 273.449 -1.08991 1.13837 0
M  V30 2877 C 274.379 -2.17771 0.842507 0
M  V30 2878 C 275.36 -1.6892 -0.20001 0
M  V30 2879 O 276.545 -1.94113 -0.0579731 0
M  V30 2880 C 273.675 -3.4589 0.312644 0
M  V30 2881 C 272.629 -4.08099 1.28992 0
M  V30 2882 C 271.955 -5.31098 0.619623 0
M  V30 2883 C 273.255 -4.50077 2.65005 0
M  V30 2884 H 274.949 -2.42777 1.75213 0
M  V30 2885 H 272.495 -1.16682 0.843875 0
M  V30 2886 H 274.448 -4.21297 0.0933043 0
M  V30 2887 H 273.172 -3.20419 -0.632382 0
M  V30 2888 H 271.831 -3.34717 1.49533 0
M  V30 2889 H 271.479 -5.0191 -0.33102 0
M  V30 2890 H 271.179 -5.73674 1.27167 0
M  V30 2891 H 272.703 -6.09224 0.409669 0
M  V30 2892 H 274.117 -5.16688 2.48407 0
M  V30 2893 H 272.514 -5.03553 3.26427 0
M  V30 2894 H 273.584 -3.62257 3.22332 0
M  V30 2895 N 274.927 -0.932562 -1.27047 0
M  V30 2896 C 276.204 -0.49377 -1.89265 0
M  V30 2897 C 276.584 1.02833 -1.8436 0
M  V30 2898 O 275.932 1.88461 -1.29209 0
M  V30 2899 C 276.142 -1.04536 -3.32976 0
M  V30 2900 C 277.49 -1.10879 -4.09867 0
M  V30 2901 O 278.514 -0.995327 -3.42011 0
M  V30 2902 O 277.373 -1.28417 -5.31198 0
M  V30 2903 H 274.467 -0.159596 -0.811454 0
M  V30 2904 H 277.013 -1.02457 -1.3528 0
M  V30 2905 H 275.785 -2.08913 -3.30864 0
M  V30 2906 H 275.408 -0.496494 -3.94488 0
M  V30 2907 N 276.405 1.4127 -0.698611 0
M  V30 2908 C 277.816 1.84187 -0.305289 0
M  V30 2909 C 278.167 1.58449 1.15708 0
M  V30 2910 O 277.292 1.05651 1.88856 0
M  V30 2911 C 277.887 3.3435 -0.547314 0
M  V30 2912 C 276.446 3.75826 -0.207878 0
M  V30 2913 C 275.593 2.64647 -0.828099 0
M  V30 2914 H 278.544 1.30778 -0.89904 0
M  V30 2915 H 278.565 3.8001 0.192998 0
M  V30 2916 H 278.077 3.53051 -1.61172 0
M  V30 2917 H 276.178 3.62725 0.852143 0
M  V30 2918 H 276.291 4.74462 -0.665021 0
M  V30 2919 H 274.655 2.53395 -0.257458 0
M  V30 2920 H 275.438 2.86165 -1.89643 0
M  V30 2921 N 277.883 0.443576 1.51229 0
M  V30 2922 C 279.131 -0.120557 2.0174 0
M  V30 2923 C 279.452 -1.42665 1.32935 0
M  V30 2924 O 278.722 -1.9028 0.465866 0
M  V30 2925 H 277.302 -0.0475426 0.745486 0
M  V30 2926 H 279.964 0.587711 1.85828 0
M  V30 2927 H 279.06 -0.291972 3.10731 0
M  V30 2928 N 279.361 -1.56624 0.175154 0
M  V30 2929 C 280.61 -1.96173 -0.468921 0
M  V30 2930 C 280.923 -1.06401 -1.64128 0
M  V30 2931 O 282.129 -1.35648 -2.35185 0
M  V30 2932 C 280.585 -3.48833 -0.885633 0
M  V30 2933 C 280.193 -4.47237 0.261343 0
M  V30 2934 C 281.937 -3.97194 -1.49791 0
M  V30 2935 C 279.844 -5.9114 -0.175214 0
M  V30 2936 H 278.774 -0.732455 -0.178958 0
M  V30 2937 H 281.425 -1.81591 0.263997 0
M  V30 2938 H 279.807 -3.58848 -1.67464 0
M  V30 2939 H 280.981 -4.4894 1.03871 0
M  V30 2940 H 279.296 -4.08956 0.783827 0
M  V30 2941 H 281.893 -5.02167 -1.83665 0
M  V30 2942 H 282.236 -3.40351 -2.39722 0
M  V30 2943 H 282.769 -3.90212 -0.773267 0
M  V30 2944 H 279.508 -6.51865 0.689414 0
M  V30 2945 H 279.028 -5.92735 -0.91786 0
M  V30 2946 H 280.707 -6.44044 -0.617792 0
M  V30 2947 N 280.839 0.0985539 -1.57292 0
M  V30 2948 C 282.087 0.801092 -1.85545 0
M  V30 2949 C 282.408 1.79438 -0.763353 0
M  V30 2950 O 281.678 1.94763 0.21073 0
M  V30 2951 H 280.258 0.29884 -0.684619 0
M  V30 2952 H 282.92 0.0810064 -1.94732 0
M  V30 2953 H 282.016 1.3338 -2.82163 0
M  V30 2954 N 282.317 1.53212 0.369288 0
M  V30 2955 C 283.564 1.69215 1.11232 0
M  V30 2956 C 283.892 0.442048 1.8941 0
M  V30 2957 O 283.147 -0.575944 1.87033 0
M  V30 2958 C 283.446 2.89101 2.10132 0
M  V30 2959 C 283.112 4.25758 1.48463 0
M  V30 2960 C 281.774 4.6292 1.31372 0
M  V30 2961 C 284.126 5.10757 1.03811 0
M  V30 2962 C 281.454 5.82722 0.68207 0
M  V30 2963 C 283.806 6.31201 0.420487 0
M  V30 2964 C 282.47 6.67079 0.237038 0
M  V30 2965 H 281.74 0.619201 0.407027 0
M  V30 2966 H 284.387 1.87391 0.394552 0
M  V30 2967 H 282.692 2.65421 2.88199 0
M  V30 2968 H 284.389 2.98676 2.6757 0
M  V30 2969 H 280.979 3.96494 1.62758 0
M  V30 2970 H 285.163 4.82599 1.1581 0
M  V30 2971 H 280.419 6.09113 0.528316 0
M  V30 2972 H 284.593 6.96368 0.0662874 0
M  V30 2973 H 282.22 7.59774 -0.254477 0
M  V30 2974 N 283.795 -0.628877 1.44509 0
M  V30 2975 C 284.758 -1.72263 1.51188 0
M  V30 2976 C 285.758 -1.55907 0.39367 0
M  V30 2977 O 286.948 -1.61361 0.656377 0
M  V30 2978 C 284.08 -3.11365 1.38798 0
M  V30 2979 H 285.273 -1.67714 2.4862 0
M  V30 2980 H 282.826 -0.842737 1.31634 0
M  V30 2981 H 283.561 -3.21507 0.424693 0
M  V30 2982 H 283.346 -3.24644 2.19884 0
M  V30 2983 H 284.836 -3.91075 1.46458 0
M  V30 2984 N 285.273 -1.31445 -0.869486 0
M  V30 2985 C 286.22 -1.19135 -1.97675 0
M  V30 2986 C 287.19 -0.0770266 -1.65921 0
M  V30 2987 O 288.375 -0.249972 -1.89155 0
M  V30 2988 C 285.515 -0.905149 -3.33018 0
M  V30 2989 C 284.628 -2.10285 -3.77365 0
M  V30 2990 C 283.763 -1.75339 -5.01427 0
M  V30 2991 C 282.802 -2.91515 -5.38224 0
M  V30 2992 N 281.939 -2.56762 -6.53466 0
M  V30 2993 H 286.779 -2.13853 -2.07535 0
M  V30 2994 H 284.316 -1.06379 -1.01597 0
M  V30 2995 H 286.274 -0.719765 -4.10944 0
M  V30 2996 H 284.904 0.00519624 -3.228 0
M  V30 2997 H 283.956 -2.39899 -2.95216 0
M  V30 2998 H 285.268 -2.97237 -4.00564 0
M  V30 2999 H 284.422 -1.53266 -5.87022 0
M  V30 3000 H 283.161 -0.855801 -4.80133 0
M  V30 3001 H 282.166 -3.14237 -4.51149 0
M  V30 3002 H 283.391 -3.81985 -5.61484 0
M  V30 3003 H 281.337 -1.69526 -6.33717 0
M  V30 3004 H 281.254 -3.37243 -6.76612 0
M  V30 3005 H 282.522 -2.38083 -7.42251 0
M  V30 3006 N 286.751 1.08385 -1.14413 0
M  V30 3007 C 287.979 1.84517 -0.936001 0
M  V30 3008 C 288.394 1.81626 0.515503 0
M  V30 3009 O 287.751 1.22008 1.35721 0
M  V30 3010 C 287.802 3.32049 -1.42918 0
M  V30 3011 O 287.523 3.34951 -2.82381 0
M  V30 3012 C 289.024 4.24986 -1.26103 0
M  V30 3013 H 286.244 0.582491 -0.333084 0
M  V30 3014 H 288.788 1.36885 -1.5193 0
M  V30 3015 H 286.943 3.7707 -0.888641 0
M  V30 3016 H 287.357 4.27048 -3.04517 0
M  V30 3017 H 288.831 5.26615 -1.6547 0
M  V30 3018 H 289.308 4.38726 -0.20392 0
M  V30 3019 H 289.914 3.85791 -1.79012 0
M  V30 3020 N 288.23 0.939286 1.26551 0
M  V30 3021 C 289.641 0.628782 1.75793 0
M  V30 3022 C 289.992 -0.856046 1.7654 0
M  V30 3023 O 289.117 -1.66994 1.3763 0
M  V30 3024 C 289.712 1.13465 3.19235 0
M  V30 3025 C 288.271 0.874601 3.66098 0
M  V30 3026 C 287.418 1.28667 2.45642 0
M  V30 3027 H 290.369 1.1178 1.12654 0
M  V30 3028 H 290.39 0.487609 3.77363 0
M  V30 3029 H 289.902 2.21535 3.1866 0
M  V30 3030 H 288.003 -0.191793 3.72106 0
M  V30 3031 H 288.116 1.50028 4.55004 0
M  V30 3032 H 286.48 0.705109 2.44745 0
M  V30 3033 H 287.263 2.37625 2.47769 0
M  V30 3034 N 289.708 -1.40897 0.706093 0
M  V30 3035 C 290.618 -2.3455 0.0482286 0
M  V30 3036 C 291.634 -1.56796 -0.754396 0
M  V30 3037 O 292.81 -1.89228 -0.689538 0
M  V30 3038 C 289.875 -3.35625 -0.869303 0
M  V30 3039 C 288.936 -4.29261 -0.0576994 0
M  V30 3040 C 288.169 -5.25508 -0.931531 0
M  V30 3041 O 288.392 -5.27472 -2.17092 0
M  V30 3042 O 287.326 -6.00727 -0.375587 0
M  V30 3043 H 291.152 -2.92407 0.820476 0
M  V30 3044 H 288.737 -1.4193 0.4665 0
M  V30 3045 H 290.619 -3.97635 -1.39514 0
M  V30 3046 H 289.294 -2.80196 -1.62086 0
M  V30 3047 H 288.201 -3.70566 0.512988 0
M  V30 3048 H 289.534 -4.87817 0.655426 0
M  V30 3049 N 291.186 -0.45159 -1.50991 0
M  V30 3050 C 292.118 0.388634 -2.25881 0
M  V30 3051 C 293.131 0.974041 -1.30446 0
M  V30 3052 O 294.32 0.865758 -1.56099 0
M  V30 3053 C 291.42 1.5571 -3.01011 0
M  V30 3054 C 290.593 1.08801 -4.23652 0
M  V30 3055 C 289.652 2.12825 -4.8124 0
M  V30 3056 O 288.678 1.71678 -5.42693 0
M  V30 3057 N 289.88 3.45453 -4.66522 0
M  V30 3058 H 292.645 -0.25329 -2.98628 0
M  V30 3059 H 290.206 -0.281268 -1.59438 0
M  V30 3060 H 292.198 2.24952 -3.3642 0
M  V30 3061 H 290.768 2.10409 -2.31186 0
M  V30 3062 H 289.988 0.22215 -3.93574 0
M  V30 3063 H 291.276 0.752213 -5.03209 0
M  V30 3064 H 290.674 3.81605 -4.17605 0
M  V30 3065 H 289.231 4.10549 -5.06254 0
M  V30 3066 N 292.664 1.56529 -0.183458 0
M  V30 3067 C 293.612 2.19873 0.758845 0
M  V30 3068 C 294.606 1.16638 1.22849 0
M  V30 3069 O 295.812 1.3481 1.19274 0
M  V30 3070 H 292.187 0.7045 0.263029 0
M  V30 3071 H 294.158 2.97724 0.200755 0
M  V30 3072 C 292.907 2.86314 1.9728 0
M  V30 3073 H 292.23 3.65487 1.62047 0
M  V30 3074 H 293.67 3.3409 2.61075 0
M  V30 3075 C 292.129 1.86729 2.80418 0
M  V30 3076 O 292.659 1.36031 3.77966 0
M  V30 3077 N 290.865 1.55216 2.45675 0
M  V30 3078 H 290.412 1.96636 1.66409 0
M  V30 3079 H 290.37 0.888388 3.01588 0
M  V30 3080 N 294.142 -0.090211 1.57342 0
M  V30 3081 C 295.072 -1.10976 2.05443 0
M  V30 3082 C 296.053 -1.41482 0.944284 0
M  V30 3083 O 297.238 -1.51428 1.21586 0
M  V30 3084 C 294.368 -2.42831 2.48295 0
M  V30 3085 C 293.322 -2.26721 3.63018 0
M  V30 3086 C 292.648 -3.63796 3.91863 0
M  V30 3087 C 293.948 -1.7037 4.93732 0
M  V30 3088 H 295.642 -0.709564 2.9087 0
M  V30 3089 H 293.188 -0.339874 1.39932 0
M  V30 3090 H 295.141 -3.14431 2.80555 0
M  V30 3091 H 293.865 -2.84795 1.59873 0
M  V30 3092 H 292.524 -1.57565 3.31012 0
M  V30 3093 H 292.172 -4.03297 3.00601 0
M  V30 3094 H 291.872 -3.53861 4.69101 0
M  V30 3095 H 293.396 -4.36855 4.26603 0
M  V30 3096 H 294.81 -2.31816 5.24342 0
M  V30 3097 H 293.207 -1.71181 5.75167 0
M  V30 3098 H 294.277 -0.663542 4.80339 0
M  V30 3099 N 295.62 -1.53406 -0.361157 0
M  V30 3100 C 296.53 -1.83122 -1.4664 0
M  V30 3101 C 297.546 -0.719943 -1.58407 0
M  V30 3102 O 298.722 -1.01046 -1.74218 0
M  V30 3103 C 295.787 -2.01891 -2.81853 0
M  V30 3104 C 294.848 -3.25784 -2.79577 0
M  V30 3105 C 294.081 -3.43648 -4.0834 0
M  V30 3106 O 294.304 -2.65714 -5.0473 0
M  V30 3107 O 293.238 -4.37018 -4.13883 0
M  V30 3108 H 297.064 -2.7703 -1.24451 0
M  V30 3109 H 294.649 -1.38841 -0.551678 0
M  V30 3110 H 296.531 -2.15782 -3.61962 0
M  V30 3111 H 295.206 -1.11173 -3.0401 0
M  V30 3112 H 294.113 -3.17312 -1.98151 0
M  V30 3113 H 295.446 -4.16439 -2.62373 0
M  V30 3114 N 297.098 0.621204 -1.44841 0
M  V30 3115 C 298.061 1.71459 -1.521 0
M  V30 3116 C 299.061 1.55696 -0.401933 0
M  V30 3117 O 300.251 1.61011 -0.664925 0
M  V30 3118 C 297.383 3.10624 -1.40447 0
M  V30 3119 H 298.576 1.66394 -2.49506 0
M  V30 3120 H 296.129 0.835745 -1.3208 0
M  V30 3121 H 296.864 3.21277 -0.441737 0
M  V30 3122 H 296.649 3.23473 -2.21602 0
M  V30 3123 H 298.139 3.90293 -1.4853 0
M  V30 3124 N 298.576 1.31904 0.862503 0
M  V30 3125 C 299.509 1.14514 1.97388 0
M  V30 3126 C 300.487 0.0466493 1.62533 0
M  V30 3127 O 301.671 0.204484 1.87388 0
M  V30 3128 C 298.798 0.751347 3.30261 0
M  V30 3129 C 297.844 1.85395 3.84098 0
M  V30 3130 S 298.677 3.46081 4.08642 0
M  V30 3131 C 299.833 3.08655 5.44502 0
M  V30 3132 H 300.066 2.08597 2.11836 0
M  V30 3133 H 297.599 1.16475 1.01356 0
M  V30 3134 H 299.557 0.530901 4.07052 0
M  V30 3135 H 298.218 -0.170493 3.13637 0
M  V30 3136 H 297.411 1.53122 4.80177 0
M  V30 3137 H 297.013 2.02984 3.14123 0
M  V30 3138 H 299.305 2.58012 6.26447 0
M  V30 3139 H 300.248 4.03726 5.81731 0
M  V30 3140 H 300.656 2.45891 5.08132 0
M  V30 3141 N 300.054 -1.07777 1.14986 0
M  V30 3142 C 301.47 -1.32373 0.891596 0
M  V30 3143 C 301.67 -1.9609 -0.463788 0
M  V30 3144 O 300.726 -2.21801 -1.20667 0
M  V30 3145 C 302.039 -2.21905 2.02925 0
M  V30 3146 C 303.587 -2.35367 2.06329 0
M  V30 3147 C 304.062 -3.28245 3.19405 0
M  V30 3148 N 305.553 -3.35824 3.19024 0
M  V30 3149 C 306.288 -4.07739 4.03158 0
M  V30 3150 N 305.784 -4.82306 4.97346 0
M  V30 3151 N 307.577 -4.03635 3.91197 0
M  V30 3152 H 299.728 -0.648039 2.02273 0
M  V30 3153 H 301.991 -0.348149 0.881757 0
M  V30 3154 H 301.697 -1.82342 3.0074 0
M  V30 3155 H 301.571 -3.22407 1.95789 0
M  V30 3156 H 303.958 -2.74186 1.09116 0
M  V30 3157 H 304.039 -1.34585 2.17533 0
M  V30 3158 H 303.683 -2.90146 4.16867 0
M  V30 3159 H 303.613 -4.28971 3.05437 0
M  V30 3160 H 306.104 -2.8267 2.50811 0
M  V30 3161 H 306.417 -5.34661 5.57994 0
M  V30 3162 H 304.762 -4.81337 5.01338 0
M  V30 3163 H 307.953 -3.44491 3.16928 0
M  V30 3164 H 308.126 -4.59417 4.5699 0
M  V30 3165 N 301.532 -0.945985 -1.26051 0
M  V30 3166 C 302.48 -0.450259 -2.282 0
M  V30 3167 C 303.474 0.47497 -1.62605 0
M  V30 3168 O 304.68 0.352653 -1.76512 0
M  V30 3169 H 301.055 -0.127081 -0.741184 0
M  V30 3170 H 303.026 -1.32422 -2.67408 0
M  V30 3171 C 301.775 0.26467 -3.46691 0
M  V30 3172 H 301.098 -0.438123 -3.97392 0
M  V30 3173 H 302.538 0.575678 -4.20074 0
M  V30 3174 C 300.997 1.48416 -3.02447 0
M  V30 3175 O 301.527 2.58227 -3.07704 0
M  V30 3176 N 299.733 1.34243 -2.57735 0
M  V30 3177 H 299.28 0.448994 -2.53657 0
M  V30 3178 H 299.238 2.15957 -2.28495 0
M  V30 3179 N 303.011 1.40521 -0.713556 0
M  V30 3180 C 303.941 2.33381 -0.0743864 0
M  V30 3181 C 304.922 1.52784 0.747735 0
M  V30 3182 O 306.107 1.81258 0.697071 0
M  V30 3183 C 303.237 3.36748 0.849598 0
M  V30 3184 C 302.191 4.27793 0.133247 0
M  V30 3185 C 301.517 5.21679 1.17281 0
M  V30 3186 C 302.817 5.12415 -1.01134 0
M  V30 3187 H 304.511 2.87081 -0.850007 0
M  V30 3188 H 302.057 1.38034 -0.410201 0
M  V30 3189 H 304.01 4.00648 1.30612 0
M  V30 3190 H 302.734 2.81439 1.65709 0
M  V30 3191 H 301.393 3.65342 -0.303426 0
M  V30 3192 H 301.041 4.62677 1.9733 0
M  V30 3193 H 300.741 5.83435 0.698397 0
M  V30 3194 H 302.265 5.88456 1.62947 0
M  V30 3195 H 303.679 5.69781 -0.634274 0
M  V30 3196 H 302.076 5.83203 -1.41399 0
M  V30 3197 H 303.146 4.48514 -1.84292 0
M  V30 3198 N 304.489 0.459591 1.5075 0
M  V30 3199 C 305.399 -0.34613 2.32033 0
M  V30 3200 C 306.415 -1.00686 1.41909 0
M  V30 3201 O 307.591 -0.997361 1.7497 0
M  V30 3202 C 304.656 -1.42029 3.16273 0
M  V30 3203 C 303.717 -0.777362 4.22203 0
M  V30 3204 C 302.95 -1.80034 5.02418 0
M  V30 3205 O 303.173 -3.02544 4.83553 0
M  V30 3206 O 302.107 -1.37853 5.85901 0
M  V30 3207 H 305.933 0.318054 3.0203 0
M  V30 3208 H 303.518 0.221663 1.47746 0
M  V30 3209 H 305.4 -2.04275 3.68578 0
M  V30 3210 H 304.075 -2.06815 2.49016 0
M  V30 3211 H 302.982 -0.116256 3.73919 0
M  V30 3212 H 304.315 -0.172634 4.91897 0
M  V30 3213 N 305.967 -1.56429 0.191757 0
M  V30 3214 C 306.899 -2.16154 -0.762245 0
M  V30 3215 C 307.912 -1.12247 -1.17917 0
M  V30 3216 O 309.101 -1.39353 -1.11548 0
M  V30 3217 C 306.201 -2.70606 -2.04024 0
M  V30 3218 C 305.374 -3.99381 -1.78364 0
M  V30 3219 C 304.433 -4.38692 -2.90578 0
M  V30 3220 O 303.459 -5.06179 -2.6033 0
M  V30 3221 N 304.661 -4.01922 -4.18854 0
M  V30 3222 H 307.426 -2.98643 -0.251526 0
M  V30 3223 H 304.987 -1.61897 0.00967373 0
M  V30 3224 H 306.979 -2.93891 -2.78227 0
M  V30 3225 H 305.549 -1.9259 -2.46227 0
M  V30 3226 H 304.769 -3.84262 -0.879581 0
M  V30 3227 H 306.057 -4.83445 -1.58614 0
M  V30 3228 H 305.455 -3.47631 -4.46283 0
M  V30 3229 H 304.012 -4.30165 -4.89695 0
M  V30 3230 N 307.445 0.0818655 -1.57387 0
M  V30 3231 C 308.375 1.09885 -2.06028 0
M  V30 3232 C 309.356 1.4098 -0.951774 0
M  V30 3233 O 310.541 1.50781 -1.22387 0
M  V30 3234 C 307.671 2.4151 -2.4958 0
M  V30 3235 C 306.625 2.24792 -3.64215 0
M  V30 3236 C 305.951 3.61712 -3.93787 0
M  V30 3237 C 307.251 1.67749 -4.94629 0
M  V30 3238 H 308.945 0.694128 -2.91243 0
M  V30 3239 H 306.491 0.332448 -1.4011 0
M  V30 3240 H 308.444 3.12939 -2.82219 0
M  V30 3241 H 307.168 2.83943 -1.61381 0
M  V30 3242 H 305.827 1.55807 -3.31843 0
M  V30 3243 H 305.475 4.01697 -3.02735 0
M  V30 3244 H 305.175 3.51368 -4.70971 0
M  V30 3245 H 306.699 4.34587 -4.28913 0
M  V30 3246 H 308.113 2.29032 -5.25564 0
M  V30 3247 H 306.51 1.68128 -5.76067 0
M  V30 3248 H 307.58 0.638059 -4.80684 0
M  V30 3249 N 308.923 1.53595 0.353017 0
M  V30 3250 C 309.871 1.81605 1.45335 0
M  V30 3251 C 310.865 0.685923 1.54892 0
M  V30 3252 O 312.071 0.869095 1.57628 0
M  V30 3253 H 308.446 0.575204 0.484401 0
M  V30 3254 H 310.417 2.73679 1.18921 0
M  V30 3255 C 309.166 2.03406 2.81995 0
M  V30 3256 H 308.489 2.89814 2.75405 0
M  V30 3257 H 309.929 2.26975 3.58132 0
M  V30 3258 C 308.388 0.816794 3.26849 0
M  V30 3259 O 308.918 0.0115856 4.01698 0
M  V30 3260 N 307.124 0.636682 2.8354 0
M  V30 3261 H 306.671 1.2931 2.22793 0
M  V30 3262 H 306.629 -0.176336 3.13905 0
M  V30 3263 N 310.401 -0.613514 1.45168 0
M  V30 3264 C 311.647 -1.37471 1.49096 0
M  V30 3265 C 311.98 -1.93765 0.129901 0
M  V30 3266 O 311.255 -1.74707 -0.854858 0
M  V30 3267 C 311.538 -2.52701 2.56542 0
M  V30 3268 C 311.391 -2.01643 4.0207 0
M  V30 3269 C 312.71 -3.54849 2.60327 0
M  V30 3270 H 309.829 -0.498502 0.54283 0
M  V30 3271 H 312.471 -0.692125 1.76945 0
M  V30 3272 H 310.621 -3.10931 2.32926 0
M  V30 3273 H 312.293 -1.48108 4.36877 0
M  V30 3274 H 310.536 -1.32688 4.13009 0
M  V30 3275 H 311.207 -2.84681 4.72928 0
M  V30 3276 H 313.683 -3.0645 2.81474 0
M  V30 3277 H 312.559 -4.32973 3.37381 0
M  V30 3278 H 312.82 -4.10079 1.6519 0
M  V30 3279 N 311.879 -1.3236 -0.855495 0
M  V30 3280 C 312.809 -1.23833 -1.97958 0
M  V30 3281 C 313.79 -0.122361 -1.69659 0
M  V30 3282 O 314.975 -0.30939 -1.9172 0
M  V30 3283 C 312.105 -0.959772 -3.33775 0
M  V30 3284 C 311.059 -2.03689 -3.76424 0
M  V30 3285 C 310.385 -1.61075 -5.09862 0
M  V30 3286 C 311.685 -3.4518 -3.9198 0
M  V30 3287 H 313.379 -2.1788 -2.0535 0
M  V30 3288 H 310.925 -1.04891 -0.986605 0
M  V30 3289 H 312.878 -0.886678 -4.11966 0
M  V30 3290 H 311.602 0.0163404 -3.26596 0
M  V30 3291 H 310.261 -2.10012 -3.00484 0
M  V30 3292 H 309.909 -0.622107 -4.99138 0
M  V30 3293 H 309.609 -2.33143 -5.39368 0
M  V30 3294 H 311.133 -1.55201 -5.90546 0
M  V30 3295 H 312.547 -3.4145 -4.60526 0
M  V30 3296 H 310.944 -4.1559 -4.32903 0
M  V30 3297 H 312.014 -3.84903 -2.94919 0
M  V30 3298 N 313.357 1.07166 -1.15556 0
M  V30 3299 C 314.605 1.79443 -0.929764 0
M  V30 3300 C 314.926 1.87246 0.544414 0
M  V30 3301 O 314.196 1.37473 1.39564 0
M  V30 3302 H 312.776 0.664625 -0.341003 0
M  V30 3303 H 315.438 1.29499 -1.45657 0
M  V30 3304 H 314.534 2.81832 -1.34079 0
M  V30 3305 N 314.835 0.952656 1.25548 0
M  V30 3306 C 316.065 0.622592 1.96996 0
M  V30 3307 C 316.473 -0.809112 1.71026 0
M  V30 3308 O 315.816 -1.55258 0.981861 0
M  V30 3309 C 315.878 0.798946 3.5051 0
M  V30 3310 C 315.542 2.20744 4.00151 0
M  V30 3311 C 316.539 3.18394 4.11001 0
M  V30 3312 C 314.224 2.5311 4.33867 0
M  V30 3313 C 316.218 4.46504 4.54877 0
M  V30 3314 C 313.905 3.8145 4.7743 0
M  V30 3315 C 314.903 4.77959 4.87897 0
M  V30 3316 O 314.591 6.04012 5.30494 0
M  V30 3317 H 314.323 0.232503 0.634758 0
M  V30 3318 H 316.877 1.2789 1.60728 0
M  V30 3319 H 315.107 0.0854903 3.86605 0
M  V30 3320 H 316.796 0.47023 4.03167 0
M  V30 3321 H 317.562 2.94715 3.85186 0
M  V30 3322 H 313.441 1.78719 4.24948 0
M  V30 3323 H 316.985 5.21835 4.62962 0
M  V30 3324 H 312.882 4.04936 5.0269 0
M  V30 3325 H 313.65 6.0736 5.48685 0
M  V30 3326 N 316.313 -1.40141 0.720998 0
M  V30 3327 C 317.724 -1.83678 0.334553 0
M  V30 3328 C 318.075 -1.6027 -1.13173 0
M  V30 3329 O 317.2 -1.08643 -1.87152 0
M  V30 3330 C 317.795 -3.33437 0.600437 0
M  V30 3331 C 316.354 -3.75447 0.267642 0
M  V30 3332 C 315.501 -2.63296 0.870097 0
M  V30 3333 H 318.452 -1.29331 0.919732 0
M  V30 3334 H 318.473 -3.80269 -0.132517 0
M  V30 3335 H 317.985 -3.50442 1.66768 0
M  V30 3336 H 316.086 -3.64035 -0.794329 0
M  V30 3337 H 316.199 -4.73344 0.74042 0
M  V30 3338 H 314.563 -2.52954 0.297739 0
M  V30 3339 H 315.346 -2.83112 1.94172 0
M  V30 3340 N 317.792 -0.46758 -1.50504 0
M  V30 3341 C 319.038 0.0887532 -2.02606 0
M  V30 3342 C 319.371 1.39686 -1.34913 0
M  V30 3343 O 318.646 1.88644 -0.473694 0
M  V30 3344 C 318.929 0.276206 -3.59039 0
M  V30 3345 C 318.782 -1.05267 -4.37309 0
M  V30 3346 C 320.101 1.03235 -4.27821 0
M  V30 3347 H 317.22 0.0307814 -0.736357 0
M  V30 3348 H 319.862 -0.612485 -1.79857 0
M  V30 3349 H 318.012 0.8735 -3.78553 0
M  V30 3350 H 319.684 -1.68628 -4.29374 0
M  V30 3351 H 317.927 -1.65015 -4.01189 0
M  V30 3352 H 318.598 -0.875197 -5.45018 0
M  V30 3353 H 321.074 0.526111 -4.12761 0
M  V30 3354 H 319.95 1.1323 -5.37094 0
M  V30 3355 H 320.211 2.06806 -3.90748 0
M  V30 3356 N 319.27 1.56325 -0.20005 0
M  V30 3357 C 320.2 2.22318 0.713916 0
M  V30 3358 C 321.181 1.18788 1.21752 0
M  V30 3359 O 322.366 1.47309 1.26545 0
M  V30 3360 C 319.496 2.88639 1.93144 0
M  V30 3361 C 318.45 3.98457 1.56255 0
M  V30 3362 C 317.776 4.51967 2.85709 0
M  V30 3363 C 319.076 5.16612 0.768747 0
M  V30 3364 H 320.77 2.98952 0.163755 0
M  V30 3365 H 318.316 1.43792 0.0773219 0
M  V30 3366 H 320.269 3.33491 2.57608 0
M  V30 3367 H 318.993 2.09419 2.50621 0
M  V30 3368 H 317.652 3.54305 0.941471 0
M  V30 3369 H 317.3 3.69503 3.41287 0
M  V30 3370 H 317 5.26071 2.6177 0
M  V30 3371 H 318.524 4.99523 3.51154 0
M  V30 3372 H 319.938 5.57977 1.3166 0
M  V30 3373 H 318.335 5.96812 0.627286 0
M  V30 3374 H 319.405 4.84358 -0.229168 0
M  V30 3375 N 320.748 -0.0735177 1.57428 0
M  V30 3376 C 321.678 -1.0879 2.06608 0
M  V30 3377 C 322.659 -1.40473 0.959237 0
M  V30 3378 O 323.844 -1.5013 1.23185 0
M  V30 3379 C 320.974 -2.40183 2.50857 0
M  V30 3380 C 319.928 -2.22858 3.65402 0
M  V30 3381 C 319.254 -3.59619 3.957 0
M  V30 3382 C 320.554 -1.65123 4.95511 0
M  V30 3383 H 322.248 -0.678673 2.91607 0
M  V30 3384 H 319.794 -0.325013 1.40284 0
M  V30 3385 H 321.747 -3.11437 2.83874 0
M  V30 3386 H 320.471 -2.83083 1.62885 0
M  V30 3387 H 319.13 -1.54045 3.32664 0
M  V30 3388 H 318.778 -4.00086 3.04861 0
M  V30 3389 H 318.478 -3.48866 4.72828 0
M  V30 3390 H 320.002 -4.32306 4.31212 0
M  V30 3391 H 321.416 -2.26241 5.26771 0
M  V30 3392 H 319.813 -1.65071 5.7695 0
M  V30 3393 H 320.883 -0.612559 4.81015 0
M  V30 3394 N 322.226 -1.5378 -0.344866 0
M  V30 3395 C 323.474 -1.70625 -1.08311 0
M  V30 3396 C 323.795 -0.471447 -1.89215 0
M  V30 3397 O 323.065 0.514616 -1.8902 0
M  V30 3398 H 321.645 -0.629058 -0.402859 0
M  V30 3399 H 324.307 -1.9103 -0.386459 0
M  V30 3400 H 323.403 -2.57656 -1.76124 0
M  V30 3401 N 323.704 0.605807 -1.45491 0
M  V30 3402 C 324.932 1.39136 -1.5313 0
M  V30 3403 C 325.347 1.88082 -0.164507 0
M  V30 3404 O 324.704 1.62316 0.834247 0
M  V30 3405 C 324.755 2.59463 -2.51716 0
M  V30 3406 O 324.476 2.12551 -3.83084 0
M  V30 3407 C 325.977 3.52301 -2.6907 0
M  V30 3408 H 323.197 0.425849 -0.51855 0
M  V30 3409 H 325.741 0.73865 -1.90694 0
M  V30 3410 H 323.896 3.20772 -2.17219 0
M  V30 3411 H 324.31 2.90744 -4.36541 0
M  V30 3412 H 325.784 4.33271 -3.42024 0
M  V30 3413 H 326.261 4.02757 -1.75167 0
M  V30 3414 H 326.867 2.96845 -3.04571 0
M  V30 3415 N 325.182 1.32811 0.848464 0
M  V30 3416 C 326.407 1.26882 1.6406 0
M  V30 3417 C 326.832 -0.15913 1.87426 0
M  V30 3418 O 326.19 -1.11258 1.43148 0
M  V30 3419 C 326.238 2.03997 2.97351 0
M  V30 3420 O 325.342 1.39201 3.88197 0
M  V30 3421 H 324.683 0.436982 0.499943 0
M  V30 3422 H 327.213 1.75224 1.0563 0
M  V30 3423 H 327.223 2.14403 3.47124 0
M  V30 3424 H 325.898 3.0783 2.79666 0
M  V30 3425 H 324.475 1.37381 3.46671 0
M  V30 3426 N 326.66 -1.06551 1.16123 0
M  V30 3427 C 328.076 -1.3142 0.905585 0
M  V30 3428 C 328.276 -1.96571 -0.442964 0
M  V30 3429 O 327.332 -2.23068 -1.18308 0
M  V30 3430 C 328.645 -2.19741 2.05267 0
M  V30 3431 C 330.193 -2.33165 2.08813 0
M  V30 3432 C 330.668 -3.24838 3.22868 0
M  V30 3433 N 332.159 -3.32421 3.22568 0
M  V30 3434 C 332.894 -4.0344 4.0746 0
M  V30 3435 N 332.39 -4.77003 5.02434 0
M  V30 3436 N 334.183 -3.99464 3.95456 0
M  V30 3437 H 326.334 -0.626548 2.02949 0
M  V30 3438 H 328.597 -0.338777 0.8854 0
M  V30 3439 H 328.303 -1.79142 3.02657 0
M  V30 3440 H 328.177 -3.20313 1.99198 0
M  V30 3441 H 330.564 -2.73013 1.12018 0
M  V30 3442 H 330.645 -1.3227 2.18948 0
M  V30 3443 H 330.289 -2.85708 4.19921 0
M  V30 3444 H 330.219 -4.25707 3.0997 0
M  V30 3445 H 332.71 -2.79994 2.53795 0
M  V30 3446 H 333.023 -5.28712 5.63634 0
M  V30 3447 H 331.368 -4.75992 5.06415 0
M  V30 3448 H 334.559 -3.4111 3.20564 0
M  V30 3449 H 334.732 -4.54544 4.61837 0
M  V30 3450 N 328.138 -0.959301 -1.25041 0
M  V30 3451 C 329.085 -0.482057 -2.2571 0
M  V30 3452 C 330.055 0.467939 -1.59372 0
M  V30 3453 O 331.24 0.380159 -1.86974 0
M  V30 3454 C 328.38 0.229623 -3.44335 0
M  V30 3455 C 327.493 -0.758156 -4.25295 0
M  V30 3456 C 326.628 -0.0234403 -5.31195 0
M  V30 3457 C 325.667 -1.00184 -6.03846 0
M  V30 3458 N 324.804 -0.29769 -7.01469 0
M  V30 3459 H 329.644 -1.34538 -2.65901 0
M  V30 3460 H 327.181 -0.674592 -1.3072 0
M  V30 3461 H 329.139 0.658856 -4.11965 0
M  V30 3462 H 327.769 1.05696 -3.05005 0
M  V30 3463 H 326.821 -1.30586 -3.57284 0
M  V30 3464 H 328.133 -1.50458 -4.75567 0
M  V30 3465 H 327.287 0.464201 -6.04922 0
M  V30 3466 H 326.026 0.755741 -4.81809 0
M  V30 3467 H 325.031 -1.50044 -5.2893 0
M  V30 3468 H 326.256 -1.78133 -6.55321 0
M  V30 3469 H 324.202 0.462668 -6.54366 0
M  V30 3470 H 324.119 -0.983128 -7.4958 0
M  V30 3471 H 325.387 0.16826 -7.79318 0
M  V30 3472 N 329.616 1.39756 -0.72842 0
M  V30 3473 C 330.841 2.05472 -0.282159 0
M  V30 3474 C 331.266 1.54549 1.07221 0
M  V30 3475 O 330.624 0.686372 1.67805 0
M  V30 3476 C 330.672 3.59462 -0.286264 0
M  V30 3477 O 329.776 4.05918 0.728298 0
M  V30 3478 H 329.117 0.651226 -0.129618 0
M  V30 3479 H 331.647 1.78915 -0.992499 0
M  V30 3480 H 331.657 4.07798 -0.128373 0
M  V30 3481 H 330.332 3.95889 -1.27456 0
M  V30 3482 H 328.909 3.69012 0.537081 0
M  V30 3483 N 331.094 0.475555 1.50254 0
M  V30 3484 C 332.341 -0.0778919 2.0235 0
M  V30 3485 C 332.669 -1.39319 1.35722 0
M  V30 3486 O 331.924 -1.89888 0.473395 0
M  V30 3487 C 332.223 -0.305114 3.56095 0
M  V30 3488 C 331.889 0.92903 4.41225 0
M  V30 3489 C 330.551 1.26739 4.6421 0
M  V30 3490 C 332.903 1.75054 4.90923 0
M  V30 3491 C 330.231 2.42724 5.34137 0
M  V30 3492 C 332.583 2.9017 5.62125 0
M  V30 3493 C 331.247 3.24416 5.83362 0
M  V30 3494 H 330.517 -0.0285027 0.740452 0
M  V30 3495 H 333.164 0.630543 1.80821 0
M  V30 3496 H 331.469 -1.09584 3.76163 0
M  V30 3497 H 333.166 -0.747377 3.93974 0
M  V30 3498 H 329.756 0.655428 4.23559 0
M  V30 3499 H 333.94 1.50231 4.73016 0
M  V30 3500 H 329.196 2.69525 5.48786 0
M  V30 3501 H 333.37 3.54169 5.99614 0
M  V30 3502 H 330.997 4.14396 6.37323 0
M  V30 3503 N 332.573 -1.56217 0.208337 0
M  V30 3504 C 333.822 -1.97124 -0.427204 0
M  V30 3505 C 334.135 -1.09859 -1.61835 0
M  V30 3506 O 335.341 -1.40606 -2.32255 0
M  V30 3507 C 333.797 -3.50633 -0.811442 0
M  V30 3508 C 333.405 -4.46582 0.35615 0
M  V30 3509 C 335.149 -4.00282 -1.41332 0
M  V30 3510 C 333.056 -5.91379 -0.0497852 0
M  V30 3511 H 331.986 -0.736086 -0.163381 0
M  V30 3512 H 334.637 -1.8099 0.302456 0
M  V30 3513 H 333.019 -3.62319 -1.59815 0
M  V30 3514 H 334.193 -4.46636 1.1337 0
M  V30 3515 H 332.508 -4.07202 0.870396 0
M  V30 3516 H 335.105 -5.0595 -1.72972 0
M  V30 3517 H 335.448 -3.45359 -2.32449 0
M  V30 3518 H 335.981 -3.91764 -0.690323 0
M  V30 3519 H 332.72 -6.50255 0.827529 0
M  V30 3520 H 332.24 -5.94549 -0.791926 0
M  V30 3521 H 333.919 -6.45209 -0.481042 0
M  V30 3522 N 334.051 0.0651679 -1.57465 0
M  V30 3523 C 335.299 0.761555 -1.87202 0
M  V30 3524 C 335.62 1.77778 -0.801243 0
M  V30 3525 O 334.89 1.95166 0.16937 0
M  V30 3526 H 333.47 0.284251 -0.690804 0
M  V30 3527 H 336.132 0.0396827 -1.9486 0
M  V30 3528 H 335.228 1.27365 -2.84929 0
M  V30 3529 N 335.529 1.53961 0.336706 0
M  V30 3530 C 336.479 1.7881 1.41461 0
M  V30 3531 C 337.463 0.643561 1.47469 0
M  V30 3532 O 338.655 0.903166 1.52223 0
M  V30 3533 C 335.784 2.00722 2.78506 0
M  V30 3534 C 334.87 3.2126 2.76862 0
M  V30 3535 N 335.261 4.42588 2.44845 0
M  V30 3536 C 333.559 3.22568 3.08004 0
M  V30 3537 C 334.26 5.2447 2.51607 0
M  V30 3538 N 333.236 4.61344 2.87511 0
M  V30 3539 H 337.038 2.70205 1.15615 0
M  V30 3540 H 334.552 1.52978 0.545112 0
M  V30 3541 H 336.549 2.1666 3.5618 0
M  V30 3542 H 335.209 1.10573 3.05293 0
M  V30 3543 H 336.22 4.69819 2.17922 0
M  V30 3544 H 332.897 2.42409 3.39918 0
M  V30 3545 H 334.287 6.31324 2.29955 0
M  V30 3546 N 337.007 -0.598083 1.45811 0
M  V30 3547 C 338.253 -1.35882 1.50545 0
M  V30 3548 C 338.586 -1.93616 0.150445 0
M  V30 3549 O 337.861 -1.75604 -0.83628 0
M  V30 3550 C 338.144 -2.49966 2.59208 0
M  V30 3551 C 337.997 -1.97367 4.04186 0
M  V30 3552 C 339.316 -3.52068 2.64076 0
M  V30 3553 H 336.435 -0.492717 0.548087 0
M  V30 3554 H 339.077 -0.673319 1.77669 0
M  V30 3555 H 337.227 -3.08443 2.3621 0
M  V30 3556 H 338.899 -1.43466 4.38423 0
M  V30 3557 H 337.142 -1.283 4.14393 0
M  V30 3558 H 337.813 -2.79649 4.75921 0
M  V30 3559 H 340.289 -3.03448 2.84708 0
M  V30 3560 H 339.165 -4.2937 3.41954 0
M  V30 3561 H 339.426 -4.08304 1.69531 0
M  V30 3562 N 338.485 -1.33259 -0.841409 0
M  V30 3563 C 339.415 -1.25926 -1.96634 0
M  V30 3564 C 340.396 -0.140349 -1.6952 0
M  V30 3565 O 341.581 -0.329707 -1.91381 0
M  V30 3566 C 338.711 -0.99512 -3.32738 0
M  V30 3567 C 337.665 -2.0767 -3.74242 0
M  V30 3568 C 336.991 -1.66474 -5.08125 0
M  V30 3569 C 338.291 -3.49318 -3.88297 0
M  V30 3570 H 339.985 -2.20046 -2.03027 0
M  V30 3571 H 337.531 -1.05931 -0.975425 0
M  V30 3572 H 339.484 -0.930323 -4.11002 0
M  V30 3573 H 338.208 -0.0183004 -3.26595 0
M  V30 3574 H 336.867 -2.13187 -2.98239 0
M  V30 3575 H 336.515 -0.675012 -4.9845 0
M  V30 3576 H 336.215 -2.3885 -5.36865 0
M  V30 3577 H 337.739 -1.61455 -5.88867 0
M  V30 3578 H 339.153 -3.46316 -4.56879 0
M  V30 3579 H 337.55 -4.20158 -4.28471 0
M  V30 3580 H 338.62 -3.8801 -2.9082 0
M  V30 3581 N 339.963 1.05934 -1.16686 0
M  V30 3582 C 341.24 1.75643 -0.860747 0
M  V30 3583 C 341.62 2.01144 0.640641 0
M  V30 3584 O 340.968 1.64147 1.58959 0
M  V30 3585 C 341.178 3.05493 -1.68745 0
M  V30 3586 C 342.526 3.79581 -1.90271 0
M  V30 3587 O 343.55 3.15344 -1.65641 0
M  V30 3588 O 342.409 4.9499 -2.31618 0
M  V30 3589 H 339.503 0.763426 -0.317977 0
M  V30 3590 H 342.049 1.1217 -1.27342 0
M  V30 3591 H 340.821 2.8264 -2.70611 0
M  V30 3592 H 340.444 3.76702 -1.27206 0
M  V30 3593 N 341.441 0.965919 1.2453 0
M  V30 3594 C 342.371 0.513476 2.27784 0
M  V30 3595 C 343.352 -0.445974 1.6415 0
M  V30 3596 O 344.537 -0.342485 1.91156 0
M  V30 3597 C 341.667 -0.198839 3.4673 0
M  V30 3598 C 340.621 0.676456 4.2262 0
M  V30 3599 C 339.947 -0.167248 5.34438 0
M  V30 3600 C 341.247 1.96017 4.84123 0
M  V30 3601 H 342.941 1.3765 2.65881 0
M  V30 3602 H 340.487 0.663321 1.27813 0
M  V30 3603 H 342.44 -0.526567 4.18097 0
M  V30 3604 H 341.164 -1.0962 3.07654 0
M  V30 3605 H 339.823 0.98743 3.53052 0
M  V30 3606 H 339.471 -1.0647 4.91603 0
M  V30 3607 H 339.171 0.415181 5.86131 0
M  V30 3608 H 340.695 -0.489688 6.08633 0
M  V30 3609 H 342.109 1.69814 5.47573 0
M  V30 3610 H 340.506 2.48918 5.4604 0
M  V30 3611 H 341.576 2.65622 4.05676 0
M  V30 3612 N 342.919 -1.39368 0.735821 0
M  V30 3613 C 344.33 -1.83313 0.354015 0
M  V30 3614 C 344.681 -1.61461 -1.11466 0
M  V30 3615 O 343.806 -1.10621 -1.85989 0
M  V30 3616 C 344.401 -3.32781 0.635769 0
M  V30 3617 C 342.96 -3.75142 0.307448 0
M  V30 3618 C 342.107 -2.62358 0.897974 0
M  V30 3619 H 345.058 -1.28349 0.933398 0
M  V30 3620 H 345.079 -3.80388 -0.0921773 0
M  V30 3621 H 344.591 -3.48654 1.70476 0
M  V30 3622 H 342.692 -3.64857 -0.755674 0
M  V30 3623 H 342.805 -4.72532 0.790583 0
M  V30 3624 H 341.169 -2.52624 0.324551 0
M  V30 3625 H 341.952 -2.81036 1.97164 0
M  V30 3626 N 344.397 -0.483516 -1.5 0
M  V30 3627 C 345.643 0.0672592 -2.02688 0
M  V30 3628 C 345.976 1.38247 -1.36387 0
M  V30 3629 O 345.251 1.88131 -0.493675 0
M  V30 3630 C 345.534 0.238109 -3.59312 0
M  V30 3631 C 345.387 -1.099 -4.36168 0
M  V30 3632 C 346.706 0.986916 -4.28892 0
M  V30 3633 H 343.825 0.0229696 -0.736642 0
M  V30 3634 H 346.467 -0.631527 -1.79197 0
M  V30 3635 H 344.617 0.8333 -3.79458 0
M  V30 3636 H 346.289 -1.73172 -4.27562 0
M  V30 3637 H 344.532 -1.69261 -3.99416 0
M  V30 3638 H 345.203 -0.932954 -5.44059 0
M  V30 3639 H 347.679 0.482302 -4.13295 0
M  V30 3640 H 346.555 1.07527 -5.38265 0
M  V30 3641 H 346.816 2.0265 -3.92919 0
M  V30 3642 N 345.875 1.56104 -0.216619 0
M  V30 3643 C 346.785 2.23694 0.706982 0
M  V30 3644 C 347.801 1.24295 1.21765 0
M  V30 3645 O 348.977 1.57094 1.2603 0
M  V30 3646 C 346.042 2.8998 1.90033 0
M  V30 3647 C 345.103 4.04708 1.43213 0
M  V30 3648 C 344.336 4.67824 2.56859 0
M  V30 3649 O 344.559 4.29913 3.74874 0
M  V30 3650 O 343.493 5.56905 2.28343 0
M  V30 3651 H 347.319 3.03272 0.161235 0
M  V30 3652 H 344.904 1.49394 0.0136177 0
M  V30 3653 H 346.786 3.31837 2.59735 0
M  V30 3654 H 345.461 2.13365 2.43428 0
M  V30 3655 H 344.368 3.6743 0.70327 0
M  V30 3656 H 345.701 4.83051 0.944615 0
M  V30 3657 N 347.353 -0.0568162 1.57498 0
M  V30 3658 C 348.263 -1.08346 2.08083 0
M  V30 3659 C 349.279 -1.41439 1.01346 0
M  V30 3660 O 350.455 -1.51316 1.32912 0
M  V30 3661 C 347.52 -2.37352 2.52715 0
M  V30 3662 C 346.581 -2.11093 3.73816 0
M  V30 3663 C 345.814 -3.33949 4.1631 0
M  V30 3664 O 346.037 -4.43622 3.58547 0
M  V30 3665 O 344.971 -3.21279 5.08983 0
M  V30 3666 H 348.797 -0.683667 2.95905 0
M  V30 3667 H 346.382 -0.271965 1.46904 0
M  V30 3668 H 348.264 -3.13246 2.81877 0
M  V30 3669 H 346.939 -2.76681 1.68016 0
M  V30 3670 H 345.846 -1.32856 3.49714 0
M  V30 3671 H 347.179 -1.76637 4.59413 0
M  V30 3672 N 348.832 -1.54138 -0.328536 0
M  V30 3673 C 350.248 -1.44736 -0.672574 0
M  V30 3674 C 350.448 -0.616217 -1.91846 0
M  V30 3675 O 349.504 -0.113067 -2.52247 0
M  V30 3676 C 350.817 -2.884 -0.851217 0
M  V30 3677 C 352.365 -2.98271 -0.948877 0
M  V30 3678 C 352.84 -4.43074 -1.15973 0
M  V30 3679 N 354.331 -4.46665 -1.22658 0
M  V30 3680 C 355.066 -5.55857 -1.40751 0
M  V30 3681 N 354.562 -6.75026 -1.5592 0
M  V30 3682 N 356.355 -5.43495 -1.4342 0
M  V30 3683 H 348.506 -2.06661 0.490421 0
M  V30 3684 H 350.769 -0.934812 0.157579 0
M  V30 3685 H 350.475 -3.51699 -0.00704236 0
M  V30 3686 H 350.349 -3.34225 -1.74853 0
M  V30 3687 H 352.736 -2.35102 -1.78356 0
M  V30 3688 H 352.817 -2.55785 -0.0281435 0
M  V30 3689 H 352.461 -5.06827 -0.329915 0
M  V30 3690 H 352.391 -4.83165 -2.09426 0
M  V30 3691 H 354.882 -3.60797 -1.124 0
M  V30 3692 H 355.195 -7.54004 -1.69404 0
M  V30 3693 H 353.54 -6.77944 -1.53027 0
M  V30 3694 H 356.731 -4.49349 -1.31162 0
M  V30 3695 H 356.904 -6.28649 -1.57178 0
M  V30 3696 N 350.31 0.590341 -1.46126 0
M  V30 3697 C 351.24 1.71032 -1.58966 0
M  V30 3698 C 352.221 1.64302 -0.440335 0
M  V30 3699 O 353.406 1.82436 -0.665634 0
M  V30 3700 C 350.536 3.09665 -1.57241 0
M  V30 3701 C 349.49 3.31221 -2.71066 0
M  V30 3702 C 348.816 4.70303 -2.54399 0
M  V30 3703 C 350.116 3.19796 -4.1295 0
M  V30 3704 H 351.81 1.60543 -2.52718 0
M  V30 3705 H 349.356 0.770933 -1.21625 0
M  V30 3706 H 351.309 3.87831 -1.64819 0
M  V30 3707 H 350.033 3.21036 -0.600289 0
M  V30 3708 H 348.692 2.55452 -2.62944 0
M  V30 3709 H 348.34 4.78429 -1.55288 0
M  V30 3710 H 348.04 4.85679 -3.30741 0
M  V30 3711 H 349.564 5.50647 -2.63857 0
M  V30 3712 H 350.978 3.87815 -4.22223 0
M  V30 3713 H 349.375 3.46696 -4.89818 0
M  V30 3714 H 350.445 2.16983 -4.33643 0
M  V30 3715 N 351.788 1.33704 0.83433 0
M  V30 3716 C 352.698 1.26382 1.97648 0
M  V30 3717 C 353.714 0.173548 1.73132 0
M  V30 3718 O 354.89 0.397962 1.97429 0
M  V30 3719 C 351.955 1.00769 3.31733 0
M  V30 3720 C 351.016 2.1884 3.69334 0
M  V30 3721 C 350.249 1.9444 4.9702 0
M  V30 3722 O 350.472 0.896961 5.63303 0
M  V30 3723 O 349.406 2.81093 5.32231 0
M  V30 3724 H 353.232 2.22444 2.06767 0
M  V30 3725 H 350.817 1.13795 0.968037 0
M  V30 3726 H 352.699 0.882186 4.12062 0
M  V30 3727 H 351.374 0.0773783 3.23608 0
M  V30 3728 H 350.281 2.36946 2.89495 0
M  V30 3729 H 351.614 3.10221 3.82131 0
M  V30 3730 N 353.266 -1.05314 1.17247 0
M  V30 3731 C 354.514 -1.77941 0.958194 0
M  V30 3732 C 354.835 -1.88089 -0.514556 0
M  V30 3733 O 354.105 -1.39676 -1.37359 0
M  V30 3734 H 352.685 -0.659116 0.351533 0
M  V30 3735 H 355.347 -1.27166 1.47699 0
M  V30 3736 H 354.443 -2.79663 1.38546 0
M  V30 3737 N 354.744 -0.972509 -1.24016 0
M  V30 3738 C 355.972 -0.654803 -1.96265 0
M  V30 3739 C 356.387 0.776708 -1.72083 0
M  V30 3740 O 355.744 1.52171 -1.00748 0
M  V30 3741 C 355.795 -0.92592 -3.49441 0
M  V30 3742 O 355.516 -2.30116 -3.72798 0
M  V30 3743 C 357.017 -0.623068 -4.38899 0
M  V30 3744 H 354.237 -0.243907 -0.6251 0
M  V30 3745 H 356.781 -1.30175 -1.57717 0
M  V30 3746 H 354.936 -0.325108 -3.86033 0
M  V30 3747 H 355.35 -2.38483 -4.67147 0
M  V30 3748 H 356.824 -0.863189 -5.45209 0
M  V30 3749 H 357.301 0.442754 -4.36963 0
M  V30 3750 H 357.907 -1.204 -4.07902 0
M  V30 3751 N 356.222 1.38976 -0.743202 0
M  V30 3752 C 357.47 1.99948 -0.29417 0
M  V30 3753 C 357.791 1.59279 1.12495 0
M  V30 3754 O 357.061 0.844808 1.76748 0
M  V30 3755 H 355.641 0.739473 -0.105774 0
M  V30 3756 H 358.303 1.699 -0.954986 0
M  V30 3757 H 357.399 3.10142 -0.349056 0
M  V30 3758 N 357.7 0.491464 1.49741 0
M  V30 3759 C 358.663 -0.280906 2.27472 0
M  V30 3760 C 359.663 -0.902454 1.33088 0
M  V30 3761 O 360.853 -0.768465 1.56334 0
M  V30 3762 C 357.985 -1.40209 3.10732 0
M  V30 3763 H 359.178 0.401056 2.97206 0
M  V30 3764 H 356.731 0.246131 1.5435 0
M  V30 3765 H 357.466 -2.11849 2.45541 0
M  V30 3766 H 357.251 -0.961969 3.80117 0
M  V30 3767 H 358.741 -1.9464 3.69466 0
M  V30 3768 N 359.178 -1.55987 0.224894 0
M  V30 3769 C 360.406 -2.02784 -0.410665 0
M  V30 3770 C 360.821 -1.10464 -1.53112 0
M  V30 3771 O 360.178 -0.114871 -1.82138 0
M  V30 3772 C 360.229 -3.49087 -0.939165 0
M  V30 3773 O 359.95 -4.37887 0.136614 0
M  V30 3774 C 361.451 -4.11543 -1.64763 0
M  V30 3775 H 358.671 -0.663484 -0.100148 0
M  V30 3776 H 361.215 -2.01614 0.342326 0
M  V30 3777 H 359.37 -3.50861 -1.64242 0
M  V30 3778 H 359.784 -5.23849 -0.261155 0
M  V30 3779 H 361.258 -5.15673 -1.96939 0
M  V30 3780 H 361.735 -3.56736 -2.56195 0
M  V30 3781 H 362.341 -4.13629 -0.989503 0
M  V30 3782 N 360.656 0.0484629 -1.57525 0
M  V30 3783 C 361.902 0.744226 -1.88651 0
M  V30 3784 C 362.235 1.76029 -0.820212 0
M  V30 3785 O 361.51 1.93782 0.166985 0
M  V30 3786 C 361.793 1.43128 -3.30434 0
M  V30 3787 C 361.646 0.43005 -4.47739 0
M  V30 3788 C 362.965 2.37031 -3.70816 0
M  V30 3789 H 360.084 0.269089 -0.68612 0
M  V30 3790 H 362.726 0.00713532 -1.89999 0
M  V30 3791 H 360.876 2.05956 -3.29415 0
M  V30 3792 H 362.548 -0.194816 -4.60888 0
M  V30 3793 H 360.791 -0.252522 -4.33064 0
M  V30 3794 H 361.462 0.948874 -5.43783 0
M  V30 3795 H 363.938 1.84263 -3.73077 0
M  V30 3796 H 362.814 2.82094 -4.70865 0
M  V30 3797 H 363.075 3.22864 -3.02012 0
M  V30 3798 N 362.134 1.5431 0.320358 0
M  V30 3799 C 363.374 1.74395 1.0661 0
M  V30 3800 C 363.738 0.508602 1.85141 0
M  V30 3801 O 364.939 0.586856 2.62316 0
M  V30 3802 C 363.21 2.98619 1.96371 0
M  V30 3803 S 364.769 3.39621 2.77854 0
M  V30 3804 H 361.587 0.613204 0.359863 0
M  V30 3805 H 364.189 1.9249 0.341727 0
M  V30 3806 H 362.893 3.86673 1.3752 0
M  V30 3807 H 362.424 2.83055 2.73209 0
M  V30 3808 H 364.439 2.95172 3.98858 0
M  V30 3809 N 363.613 -0.582584 1.46437 0
M  V30 3810 C 364.543 -1.70187 1.59871 0
M  V30 3811 C 365.524 -1.64066 0.449042 0
M  V30 3812 O 366.709 -1.82081 0.6753 0
M  V30 3813 C 363.839 -3.08827 1.58881 0
M  V30 3814 C 362.793 -3.29779 2.72819 0
M  V30 3815 C 362.119 -4.68947 2.5689 0
M  V30 3816 C 363.419 -3.17601 4.1464 0
M  V30 3817 H 365.113 -1.592 2.53566 0
M  V30 3818 H 362.659 -0.764472 1.22032 0
M  V30 3819 H 364.612 -3.86951 1.66873 0
M  V30 3820 H 363.336 -3.20713 0.617306 0
M  V30 3821 H 361.995 -2.54054 2.64296 0
M  V30 3822 H 361.643 -4.77599 1.57823 0
M  V30 3823 H 361.343 -4.83919 3.33312 0
M  V30 3824 H 362.867 -5.4924 2.66773 0
M  V30 3825 H 364.281 -3.8557 4.24274 0
M  V30 3826 H 362.678 -3.44094 4.9165 0
M  V30 3827 H 363.748 -2.14681 4.34788 0
M  V30 3828 N 365.091 -1.34144 -0.827227 0
M  V30 3829 C 366.339 -1.26009 -1.58007 0
M  V30 3830 C 366.66 0.170971 -1.94249 0
M  V30 3831 O 365.93 1.10256 -1.61927 0
M  V30 3832 H 364.51 -0.463414 -0.585881 0
M  V30 3833 H 367.172 -1.68005 -0.987951 0
M  V30 3834 H 366.268 -1.86187 -2.50481 0
M  V30 3835 N 366.569 1.04691 -1.17803 0
M  V30 3836 C 367.818 1.77176 -0.963931 0
M  V30 3837 C 368.131 1.88888 0.508015 0
M  V30 3838 O 369.337 2.58164 0.840465 0
M  V30 3839 C 367.793 3.18518 -1.67555 0
M  V30 3840 C 367.401 3.14919 -3.18637 0
M  V30 3841 C 369.145 3.95424 -1.54402 0
M  V30 3842 C 367.052 4.51081 -3.82466 0
M  V30 3843 H 365.982 0.664116 -0.357023 0
M  V30 3844 H 368.633 1.17303 -1.4111 0
M  V30 3845 H 367.015 3.78748 -1.15613 0
M  V30 3846 H 368.189 2.64178 -3.77554 0
M  V30 3847 H 366.504 2.51512 -3.31859 0
M  V30 3848 H 369.101 4.96106 -1.99456 0
M  V30 3849 H 369.444 4.13343 -0.495329 0
M  V30 3850 H 369.977 3.41754 -2.0359 0
M  V30 3851 H 366.716 4.38368 -4.87354 0
M  V30 3852 H 366.236 5.01951 -3.28337 0
M  V30 3853 H 367.915 5.2001 -3.84965 0
M  V30 3854 N 368.047 0.979072 1.23499 0
M  V30 3855 C 368.957 0.526431 2.28617 0
M  V30 3856 C 369.973 -0.418126 1.68901 0
M  V30 3857 O 371.149 -0.288372 1.99325 0
M  V30 3858 C 368.214 -0.165235 3.46306 0
M  V30 3859 C 367.275 0.82056 4.21385 0
M  V30 3860 C 366.508 0.161807 5.33455 0
M  V30 3861 O 366.731 -1.04742 5.60701 0
M  V30 3862 O 365.665 0.859708 5.95729 0
M  V30 3863 H 369.491 1.4006 2.69475 0
M  V30 3864 H 367.076 0.746643 1.29405 0
M  V30 3865 H 368.958 -0.553287 4.17752 0
M  V30 3866 H 367.633 -1.01419 3.07402 0
M  V30 3867 H 366.54 1.25929 3.52268 0
M  V30 3868 H 367.873 1.63828 4.64135 0
M  V30 3869 N 369.525 -1.3858 0.750561 0
M  V30 3870 C 370.472 -2.30483 0.120835 0
M  V30 3871 C 371.442 -1.50022 -0.712923 0
M  V30 3872 O 372.627 -1.78662 -0.669676 0
M  V30 3873 C 369.767 -3.36431 -0.768666 0
M  V30 3874 C 368.88 -4.31927 0.0793922 0
M  V30 3875 C 368.015 -5.24944 -0.81283 0
M  V30 3876 C 367.054 -6.12088 0.0390447 0
M  V30 3877 N 366.191 -6.97412 -0.809969 0
M  V30 3878 H 371.031 -2.83761 0.91015 0
M  V30 3879 H 368.568 -1.39707 0.460463 0
M  V30 3880 H 370.526 -3.96462 -1.29898 0
M  V30 3881 H 369.156 -2.8457 -1.5238 0
M  V30 3882 H 368.208 -3.73382 0.727303 0
M  V30 3883 H 369.52 -4.93319 0.737401 0
M  V30 3884 H 368.674 -5.90078 -1.41042 0
M  V30 3885 H 367.413 -4.63911 -1.50458 0
M  V30 3886 H 366.418 -5.45952 0.649328 0
M  V30 3887 H 367.643 -6.75189 0.727809 0
M  V30 3888 H 365.589 -6.38931 -1.48672 0
M  V30 3889 H 365.506 -7.55712 -0.208789 0
M  V30 3890 H 366.774 -7.66959 -1.39263 0
M  V30 3891 N 371.003 -0.499398 -1.49478 0
M  V30 3892 C 372.251 0.0455996 -2.02049 0
M  V30 3893 C 372.572 1.37633 -1.38138 0
M  V30 3894 O 371.842 1.8842 -0.536166 0
M  V30 3895 H 370.422 0.0198416 -0.746736 0
M  V30 3896 H 373.084 -0.656274 -1.83519 0
M  V30 3897 H 372.18 0.176445 -3.11601 0
M  V30 3898 N 372.481 1.55866 -0.233164 0
M  V30 3899 C 373.721 2.00506 0.397078 0
M  V30 3900 C 374.085 1.1176 1.56121 0
M  V30 3901 O 375.286 1.45796 2.25825 0
M  V30 3902 C 373.557 3.4811 0.809601 0
M  V30 3903 S 375.116 4.14765 1.43231 0
M  V30 3904 H 371.934 0.699828 0.125547 0
M  V30 3905 H 374.536 1.92429 -0.345177 0
M  V30 3906 H 373.24 4.10373 -0.0471601 0
M  V30 3907 H 372.771 3.60085 1.58438 0
M  V30 3908 H 374.786 4.14914 2.7214 0
M  V30 3909 N 373.959 -0.0401083 1.57549 0
M  V30 3910 C 374.869 -1.06133 2.0922 0
M  V30 3911 C 375.885 -1.40356 1.0284 0
M  V30 3912 O 377.061 -1.49897 1.34509 0
M  V30 3913 C 374.126 -2.34658 2.55218 0
M  V30 3914 C 373.187 -2.07117 3.76033 0
M  V30 3915 C 372.42 -3.29514 4.19829 0
M  V30 3916 O 372.643 -4.39794 3.63232 0
M  V30 3917 O 371.577 -3.15863 5.12362 0
M  V30 3918 H 375.403 -0.652244 2.96613 0
M  V30 3919 H 372.988 -0.256368 1.47184 0
M  V30 3920 H 374.87 -3.10239 2.85184 0
M  V30 3921 H 373.545 -2.74883 1.70941 0
M  V30 3922 H 372.452 -1.29139 3.51104 0
M  V30 3923 H 373.785 -1.71754 4.61261 0
M  V30 3924 N 375.437 -1.54477 -0.31217 0
M  V30 3925 C 376.684 -1.73227 -1.04875 0
M  V30 3926 C 377.012 -0.512042 -1.87639 0
M  V30 3927 O 376.267 0.506131 -1.89042 0
M  V30 3928 C 376.566 -2.967 -1.99258 0
M  V30 3929 C 376.232 -4.30974 -1.32559 0
M  V30 3930 C 374.894 -4.67477 -1.141 0
M  V30 3931 C 377.246 -5.14258 -0.847835 0
M  V30 3932 C 374.574 -5.84852 -0.465326 0
M  V30 3933 C 376.926 -6.32327 -0.185931 0
M  V30 3934 C 375.59 -6.67499 0.0107077 0
M  V30 3935 H 374.86 -0.633881 -0.383765 0
M  V30 3936 H 377.507 -1.88727 -0.324731 0
M  V30 3937 H 375.812 -2.75935 -2.7815 0
M  V30 3938 H 377.509 -3.08401 -2.563 0
M  V30 3939 H 374.099 -4.02262 -1.4793 0
M  V30 3940 H 378.283 -4.86565 -0.978192 0
M  V30 3941 H 373.539 -6.10654 -0.301883 0
M  V30 3942 H 377.713 -6.96135 0.192211 0
M  V30 3943 H 375.34 -7.58306 0.536287 0
M  V30 3944 N 376.915 0.57481 -1.46744 0
M  V30 3945 C 378.161 1.3347 -1.52688 0
M  V30 3946 C 378.494 1.93353 -0.181229 0
M  V30 3947 O 377.769 1.76912 0.808237 0
M  V30 3948 C 378.052 2.45811 -2.63152 0
M  V30 3949 C 377.905 1.90912 -4.07275 0
M  V30 3950 C 379.224 3.47822 -2.69644 0
M  V30 3951 H 376.343 0.483935 -0.555856 0
M  V30 3952 H 378.985 0.644968 -1.78718 0
M  V30 3953 H 377.135 3.04646 -2.41088 0
M  V30 3954 H 378.807 1.36473 -4.4065 0
M  V30 3955 H 377.05 1.21691 -4.16382 0
M  V30 3956 H 377.721 2.72042 -4.80309 0
M  V30 3957 H 380.197 2.9888 -2.895 0
M  V30 3958 H 379.073 4.23876 -3.48742 0
M  V30 3959 H 379.334 4.05555 -1.76005 0
M  V30 3960 N 378.394 1.34581 0.820102 0
M  V30 3961 C 379.81 1.14325 1.11364 0
M  V30 3962 C 380.01 -0.0533648 2.01429 0
M  V30 3963 O 379.066 -0.728044 2.41776 0
M  V30 3964 C 380.379 2.43983 1.75764 0
M  V30 3965 C 381.927 2.50065 1.88246 0
M  V30 3966 C 382.402 3.79732 2.56061 0
M  V30 3967 N 383.893 3.80908 2.63558 0
M  V30 3968 C 384.628 4.77961 3.16766 0
M  V30 3969 N 384.124 5.85397 3.70517 0
M  V30 3970 N 385.917 4.65413 3.15194 0
M  V30 3971 H 378.068 2.11246 0.221096 0
M  V30 3972 H 380.331 0.934289 0.160649 0
M  V30 3973 H 380.037 3.31651 1.1705 0
M  V30 3974 H 379.911 2.57531 2.75604 0
M  V30 3975 H 382.298 1.62834 2.46108 0
M  V30 3976 H 382.379 2.40442 0.873006 0
M  V30 3977 H 382.023 4.67354 1.98853 0
M  V30 3978 H 381.953 3.86639 3.57516 0
M  V30 3979 H 384.444 3.03274 2.25463 0
M  V30 3980 H 384.757 6.55463 4.09376 0
M  V30 3981 H 383.102 5.89107 3.68752 0
M  V30 3982 H 386.293 3.80627 2.72471 0
M  V30 3983 H 386.466 5.41216 3.56356 0
M  V30 3984 N 379.872 -1.04064 1.18357 0
M  V30 3985 C 381.118 -1.77528 0.980397 0
M  V30 3986 C 381.451 -1.87948 -0.48879 0
M  V30 3987 O 380.726 -1.3876 -1.36293 0
M  V30 3988 C 381.009 -3.20797 1.63588 0
M  V30 3989 C 380.862 -3.1832 3.17793 0
M  V30 3990 C 382.181 -4.18911 1.34914 0
M  V30 3991 H 379.3 -0.644443 0.357578 0
M  V30 3992 H 381.942 -1.2156 1.46024 0
M  V30 3993 H 380.092 -3.68586 1.22788 0
M  V30 3994 H 381.764 -2.78521 3.67728 0
M  V30 3995 H 380.007 -2.56351 3.49952 0
M  V30 3996 H 380.678 -4.19489 3.58794 0
M  V30 3997 H 383.154 -3.7967 1.70265 0
M  V30 3998 H 382.03 -5.17374 1.83346 0
M  V30 3999 H 382.291 -4.41262 0.272027 0
M  V30 4000 N 381.35 -0.985608 -1.22978 0
M  V30 4001 C 382.3 -0.50118 -2.22423 0
M  V30 4002 C 383.284 0.426649 -1.5514 0
M  V30 4003 O 384.476 0.254656 -1.75159 0
M  V30 4004 C 381.605 0.190003 -3.42774 0
M  V30 4005 C 380.691 -0.757703 -4.17276 0
M  V30 4006 N 381.082 -1.90251 -4.68656 0
M  V30 4007 C 379.38 -0.57209 -4.42316 0
M  V30 4008 C 380.081 -2.49676 -5.25392 0
M  V30 4009 N 379.057 -1.78013 -5.13627 0
M  V30 4010 H 382.859 -1.37441 -2.59783 0
M  V30 4011 H 380.373 -0.846941 -1.38567 0
M  V30 4012 H 382.37 0.55439 -4.13197 0
M  V30 4013 H 381.03 1.05946 -3.06929 0
M  V30 4014 H 382.041 -2.28354 -4.64839 0
M  V30 4015 H 378.718 0.251909 -4.16739 0
M  V30 4016 H 380.108 -3.46384 -5.75732 0
M  V30 4017 N 382.828 1.3818 -0.7579 0
M  V30 4018 C 384.105 1.94106 -0.241306 0
M  V30 4019 C 384.485 1.69282 1.26122 0
M  V30 4020 O 383.833 1.03378 2.03777 0
M  V30 4021 C 384.043 3.43809 -0.59967 0
M  V30 4022 C 385.391 4.20868 -0.561717 0
M  V30 4023 O 386.415 3.5211 -0.538222 0
M  V30 4024 O 385.274 5.43451 -0.576478 0
M  V30 4025 H 382.368 0.825376 -0.0518042 0
M  V30 4026 H 384.914 1.47548 -0.838315 0
M  V30 4027 H 383.686 3.55403 -1.6372 0
M  V30 4028 H 383.309 3.97592 0.0251197 0
M  V30 4029 N 384.306 0.507319 1.49211 0
M  V30 4030 C 385.552 -0.0350047 2.0277 0
M  V30 4031 C 385.885 -1.3606 1.38569 0
M  V30 4032 O 385.16 -1.87321 0.523542 0
M  V30 4033 C 385.443 -0.180916 3.59645 0
M  V30 4034 C 385.296 1.16825 4.34364 0
M  V30 4035 C 386.615 -0.918558 4.30407 0
M  V30 4036 H 383.734 -0.0112473 0.736914 0
M  V30 4037 H 386.376 0.659956 1.7817 0
M  V30 4038 H 384.526 -0.772826 3.80736 0
M  V30 4039 H 386.198 1.79952 4.24753 0
M  V30 4040 H 384.441 1.75594 3.96673 0
M  V30 4041 H 385.112 1.01939 5.42506 0
M  V30 4042 H 387.588 -0.41649 4.1401 0
M  V30 4043 H 386.464 -0.989505 5.39907 0
M  V30 4044 H 386.725 -1.96373 3.96093 0
M  V30 4045 N 385.784 -1.5574 0.241426 0
M  V30 4046 C 386.731 -2.21149 -0.660432 0
M  V30 4047 C 387.701 -1.17356 -1.17545 0
M  V30 4048 O 388.886 -1.45784 -1.23093 0
M  V30 4049 C 386.026 -2.91059 -1.85414 0
M  V30 4050 C 385.139 -4.09495 -1.37616 0
M  V30 4051 C 384.274 -4.67135 -2.529 0
M  V30 4052 C 383.313 -5.77831 -2.01936 0
M  V30 4053 N 382.45 -6.29677 -3.10566 0
M  V30 4054 H 387.29 -2.97845 -0.095955 0
M  V30 4055 H 384.827 -1.47057 -0.0356024 0
M  V30 4056 H 386.785 -3.29788 -2.5553 0
M  V30 4057 H 385.415 -2.16846 -2.39118 0
M  V30 4058 H 384.467 -3.76117 -0.569235 0
M  V30 4059 H 385.779 -4.89423 -0.962618 0
M  V30 4060 H 384.933 -5.08409 -3.31067 0
M  V30 4061 H 383.672 -3.86411 -2.97553 0
M  V30 4062 H 382.677 -5.36039 -1.22238 0
M  V30 4063 H 383.902 -6.60402 -1.58259 0
M  V30 4064 H 381.848 -5.5186 -3.54664 0
M  V30 4065 H 381.765 -7.04783 -2.73526 0
M  V30 4066 H 383.033 -6.75609 -3.88809 0
M  V30 4067 N 387.262 0.0317525 -1.57568 0
M  V30 4068 C 388.172 1.05021 -2.0978 0
M  V30 4069 C 389.188 1.39809 -1.03583 0
M  V30 4070 O 390.364 1.49182 -1.35302 0
M  V30 4071 C 387.429 2.33301 -2.56459 0
M  V30 4072 C 386.49 2.0512 -3.77127 0
M  V30 4073 C 385.723 3.27283 -4.2157 0
M  V30 4074 O 385.946 4.37861 -3.65559 0
M  V30 4075 O 384.88 3.13141 -5.14029 0
M  V30 4076 H 388.706 0.636505 -2.96955 0
M  V30 4077 H 386.291 0.248559 -1.47318 0
M  V30 4078 H 388.173 3.08722 -2.86825 0
M  V30 4079 H 386.848 2.73973 -1.72397 0
M  V30 4080 H 385.755 1.27276 -3.51784 0
M  V30 4081 H 387.088 1.69305 -4.62165 0
M  V30 4082 N 388.74 1.54641 0.303973 0
M  V30 4083 C 389.673 1.80263 1.3993 0
M  V30 4084 C 390.651 0.653657 1.48883 0
M  V30 4085 O 391.835 0.893284 1.6599 0
M  V30 4086 C 388.962 1.9367 2.77866 0
M  V30 4087 C 388.008 3.16078 2.86351 0
M  V30 4088 S 388.841 4.74219 2.4875 0
M  V30 4089 C 389.997 4.90558 3.88721 0
M  V30 4090 H 390.23 2.72886 1.17986 0
M  V30 4091 H 387.763 1.46014 0.501918 0
M  V30 4092 H 389.721 2.0208 3.57315 0
M  V30 4093 H 388.382 1.01991 2.9708 0
M  V30 4094 H 387.575 3.22252 3.87517 0
M  V30 4095 H 387.177 3.06099 2.14893 0
M  V30 4096 H 389.469 4.74398 4.83687 0
M  V30 4097 H 390.412 5.92651 3.87518 0
M  V30 4098 H 390.82 4.18728 3.78585 0
M  V30 4099 N 390.218 -0.567019 1.47046 0
M  V30 4100 C 391.443 -1.3551 1.57009 0
M  V30 4101 C 391.868 -1.86841 0.217259 0
M  V30 4102 O 391.226 -1.62435 -0.805268 0
M  V30 4103 C 391.274 -2.50777 2.5912 0
M  V30 4104 O 390.378 -3.52706 2.13711 0
M  V30 4105 H 389.719 -0.402919 0.52778 0
M  V30 4106 H 392.249 -0.686241 1.92748 0
M  V30 4107 H 392.259 -2.97481 2.79229 0
M  V30 4108 H 390.934 -2.12771 3.57353 0
M  V30 4109 H 389.511 -3.12374 2.03659 0
M  V30 4110 N 391.696 -1.35014 -0.812953 0
M  V30 4111 C 393.112 -1.14914 -1.10757 0
M  V30 4112 C 393.312 0.0426818 -2.01455 0
M  V30 4113 O 392.368 0.715212 -2.42159 0
M  V30 4114 C 393.681 -2.44911 -1.74468 0
M  V30 4115 C 395.229 -2.5106 -1.86917 0
M  V30 4116 C 395.704 -3.81085 -2.54044 0
M  V30 4117 N 397.195 -3.82301 -2.61535 0
M  V30 4118 C 397.93 -4.79634 -3.14227 0
M  V30 4119 N 397.426 -5.87353 -3.67407 0
M  V30 4120 N 399.219 -4.67078 -3.12721 0
M  V30 4121 H 391.37 -2.1136 -0.20989 0
M  V30 4122 H 393.633 -0.935128 -0.155692 0
M  V30 4123 H 393.339 -3.32267 -1.15289 0
M  V30 4124 H 393.213 -2.58989 -2.74234 0
M  V30 4125 H 395.6 -1.64137 -2.45241 0
M  V30 4126 H 395.681 -2.40901 -0.860242 0
M  V30 4127 H 395.325 -4.68402 -1.96372 0
M  V30 4128 H 395.255 -3.88529 -3.55461 0
M  V30 4129 H 397.746 -3.04465 -2.23851 0
M  V30 4130 H 398.059 -6.57624 -4.05894 0
M  V30 4131 H 396.404 -5.91054 -3.65623 0
M  V30 4132 H 399.595 -3.82067 -2.70449 0
M  V30 4133 H 399.768 -5.43098 -3.53481 0
M  V30 4134 N 393.175 1.03435 -1.18907 0
M  V30 4135 C 394.108 2.11162 -0.86521 0
M  V30 4136 C 395.086 1.6165 0.175473 0
M  V30 4137 O 396.27 1.88425 0.0530129 0
M  V30 4138 C 393.397 3.37423 -0.293868 0
M  V30 4139 C 392.443 4.05795 -1.31274 0
M  V30 4140 S 393.276 4.52027 -2.8711 0
M  V30 4141 C 394.432 5.81513 -2.31504 0
M  V30 4142 H 394.665 2.38308 -1.77754 0
M  V30 4143 H 392.198 1.16295 -1.01562 0
M  V30 4144 H 394.156 4.1049 0.0292572 0
M  V30 4145 H 392.817 3.0838 0.596682 0
M  V30 4146 H 392.01 4.96574 -0.86198 0
M  V30 4147 H 391.612 3.38874 -1.58242 0
M  V30 4148 H 393.904 6.55784 -1.70157 0
M  V30 4149 H 394.847 6.3136 -3.20608 0
M  V30 4150 H 395.255 5.36921 -1.74286 0
M  V30 4151 N 394.653 0.992116 1.22453 0
M  V30 4152 C 395.616 0.546883 2.2258 0
M  V30 4153 C 396.616 -0.369829 1.56489 0
M  V30 4154 O 397.806 -0.161896 1.73446 0
M  V30 4155 C 394.938 -0.204659 3.40285 0
M  V30 4156 H 396.131 1.43234 2.63484 0
M  V30 4157 H 393.684 0.779239 1.3549 0
M  V30 4158 H 394.419 -1.10614 3.04853 0
M  V30 4159 H 394.204 0.45354 3.89468 0
M  V30 4160 H 395.694 -0.504358 4.14543 0
M  V30 4161 N 396.131 -1.37776 0.765217 0
M  V30 4162 C 397.078 -2.30342 0.145274 0
M  V30 4163 C 398.048 -1.5077 -0.696971 0
M  V30 4164 O 399.233 -1.79362 -0.650689 0
M  V30 4165 C 396.373 -3.37227 -0.732939 0
M  V30 4166 C 395.486 -4.31819 0.125199 0
M  V30 4167 C 394.621 -5.25777 -0.757107 0
M  V30 4168 C 393.66 -6.12012 0.103963 0
M  V30 4169 N 392.797 -6.98232 -0.735953 0
M  V30 4170 H 397.637 -2.8278 0.940195 0
M  V30 4171 H 395.174 -1.39211 0.475255 0
M  V30 4172 H 397.132 -3.97818 -1.25686 0
M  V30 4173 H 395.762 -2.86171 -1.49353 0
M  V30 4174 H 394.814 -3.7259 0.766865 0
M  V30 4175 H 396.126 -4.92509 0.789683 0
M  V30 4176 H 395.28 -5.91541 -1.34776 0
M  V30 4177 H 394.019 -4.65481 -1.45529 0
M  V30 4178 H 393.024 -5.45233 0.707197 0
M  V30 4179 H 394.249 -6.74379 0.799381 0
M  V30 4180 H 392.195 -6.40472 -1.41887 0
M  V30 4181 H 392.112 -7.55891 -0.128624 0
M  V30 4182 H 393.38 -7.68393 -1.31121 0
M  V30 4183 N 397.609 -0.515225 -1.4894 0
M  V30 4184 C 398.542 0.302518 -2.26186 0
M  V30 4185 C 399.52 0.957895 -1.31389 0
M  V30 4186 O 400.704 0.985198 -1.60705 0
M  V30 4187 C 397.831 1.42719 -3.07163 0
M  V30 4188 C 396.877 0.884736 -4.17223 0
M  V30 4189 S 397.71 -0.235767 -5.34981 0
M  V30 4190 C 398.866 0.891731 -6.19515 0
M  V30 4191 H 399.099 -0.353076 -2.95196 0
M  V30 4192 H 396.632 -0.300753 -1.51443 0
M  V30 4193 H 398.59 2.07152 -3.54398 0
M  V30 4194 H 397.251 2.05445 -2.37595 0
M  V30 4195 H 396.444 1.72801 -4.73451 0
M  V30 4196 H 396.046 0.317362 -3.72651 0
M  V30 4197 H 398.338 1.79377 -6.53322 0
M  V30 4198 H 399.281 0.367751 -7.07144 0
M  V30 4199 H 399.689 1.16548 -5.52338 0
M  V30 4200 N 399.087 1.5561 -0.249682 0
M  V30 4201 C 400.02 2.17537 0.689408 0
M  V30 4202 C 400.998 1.12829 1.17083 0
M  V30 4203 O 402.182 1.41229 1.24846 0
M  V30 4204 C 399.309 2.77828 1.93725 0
M  V30 4205 C 398.355 3.95615 1.59346 0
M  V30 4206 S 399.188 5.30988 0.69367 0
M  V30 4207 C 400.344 5.94734 1.95046 0
M  V30 4208 H 400.577 2.96852 0.163142 0
M  V30 4209 H 398.11 1.54362 -0.0341166 0
M  V30 4210 H 400.068 3.13199 2.65361 0
M  V30 4211 H 398.729 1.98454 2.43465 0
M  V30 4212 H 397.922 4.364 2.52132 0
M  V30 4213 H 397.524 3.61535 0.957512 0
M  V30 4214 H 399.816 6.12419 2.89739 0
M  V30 4215 H 400.759 6.90109 1.58604 0
M  V30 4216 H 401.167 5.23832 2.10381 0
M  V30 4217 N 400.565 -0.0233959 1.57583 0
M  V30 4218 C 401.842 -0.748794 1.807 0
M  V30 4219 C 402.222 -1.9327 0.849106 0
M  V30 4220 O 401.57 -2.28247 -0.107468 0
M  V30 4221 C 401.78 -1.17651 3.28571 0
M  V30 4222 C 403.128 -1.59008 3.93702 0
M  V30 4223 O 404.152 -1.27094 3.32755 0
M  V30 4224 O 403.011 -2.18264 5.01022 0
M  V30 4225 H 400.105 -0.362578 0.743281 0
M  V30 4226 H 402.651 0.000261958 1.697 0
M  V30 4227 H 401.423 -0.331603 3.89892 0
M  V30 4228 H 401.046 -1.98541 3.44481 0
M  V30 4229 N 402.043 -1.548 -0.295768 0
M  V30 4230 C 403.006 -1.85363 -1.34808 0
M  V30 4231 C 404.006 -0.726817 -1.43436 0
M  V30 4232 O 405.196 -0.995088 -1.42981 0
M  V30 4233 C 402.328 -2.03859 -2.73229 0
M  V30 4234 H 403.521 -2.7941 -1.08949 0
M  V30 4235 H 401.074 -1.46942 -0.532702 0
M  V30 4236 H 401.809 -1.12117 -3.04303 0
M  V30 4237 H 401.594 -2.8588 -2.68356 0
M  V30 4238 H 403.084 -2.28857 -3.49305 0
M  V30 4239 N 403.521 0.559213 -1.47345 0
M  V30 4240 C 404.454 1.68201 -1.5422 0
M  V30 4241 C 405.432 1.57742 -0.394497 0
M  V30 4242 O 406.616 1.78628 -0.60201 0
M  V30 4243 C 403.743 3.0643 -1.44285 0
M  V30 4244 C 402.789 3.3534 -2.63532 0
M  V30 4245 S 403.622 3.24816 -4.25741 0
M  V30 4246 C 404.778 4.65542 -4.18355 0
M  V30 4247 H 405.011 1.62114 -2.49211 0
M  V30 4248 H 402.544 0.739871 -1.35519 0
M  V30 4249 H 404.502 3.86164 -1.3924 0
M  V30 4250 H 403.163 3.09984 -0.506816 0
M  V30 4251 H 402.356 4.36107 -2.52639 0
M  V30 4252 H 401.958 2.63221 -2.65689 0
M  V30 4253 H 404.25 5.56449 -3.86485 0
M  V30 4254 H 405.193 4.81493 -5.19202 0
M  V30 4255 H 405.601 4.43495 -3.49246 0
M  V30 4256 N 404.999 1.35443 0.805782 0
M  V30 4257 C 406.248 1.28097 1.55801 0
M  V30 4258 C 406.561 -0.142428 1.95081 0
M  V30 4259 O 407.767 -0.33817 2.69386 0
M  V30 4260 C 406.223 2.24653 2.81174 0
M  V30 4261 C 405.831 3.72342 2.49129 0
M  V30 4262 C 407.575 2.2625 3.59181 0
M  V30 4263 C 405.482 4.60719 3.70799 0
M  V30 4264 H 404.412 0.475937 0.584808 0
M  V30 4265 H 407.063 1.60712 0.885661 0
M  V30 4266 H 405.445 1.85011 3.50124 0
M  V30 4267 H 406.619 4.20624 1.88181 0
M  V30 4268 H 404.934 3.73361 1.84366 0
M  V30 4269 H 407.531 2.89495 4.49552 0
M  V30 4270 H 407.874 1.26647 3.96568 0
M  V30 4271 H 408.407 2.64426 2.97193 0
M  V30 4272 H 405.146 5.61324 3.3852 0
M  V30 4273 H 404.666 4.17163 4.3097 0
M  V30 4274 H 406.345 4.76182 4.38018 0
M  V30 4275 N 406.477 -1.02803 1.19454 0
M  V30 4276 C 407.725 -1.75869 0.995722 0
M  V30 4277 C 408.046 -1.89138 -0.474543 0
M  V30 4278 O 407.316 -1.42558 -1.34366 0
M  V30 4279 H 405.896 -0.651511 0.365435 0
M  V30 4280 H 408.558 -1.24004 1.50363 0
M  V30 4281 H 407.654 -2.76661 1.44447 0
M  V30 4282 N 407.956 -0.998596 -1.21925 0
M  V30 4283 C 408.903 -0.553621 -2.24062 0
M  V30 4284 C 409.873 0.416999 -1.6078 0
M  V30 4285 O 411.058 0.320482 -1.88089 0
M  V30 4286 C 408.198 0.119959 -3.44891 0
M  V30 4287 C 407.311 -0.893077 -4.22668 0
M  V30 4288 C 406.446 -0.192424 -5.30851 0
M  V30 4289 C 405.485 -1.19344 -6.00353 0
M  V30 4290 N 404.622 -0.520707 -7.00166 0
M  V30 4291 H 409.462 -1.4293 -2.61486 0
M  V30 4292 H 406.999 -0.715838 -1.28507 0
M  V30 4293 H 408.957 0.527459 -4.13852 0
M  V30 4294 H 407.587 0.959389 -3.08214 0
M  V30 4295 H 406.639 -1.41886 -3.52948 0
M  V30 4296 H 407.951 -1.65512 -4.70539 0
M  V30 4297 H 407.105 0.271515 -6.06092 0
M  V30 4298 H 405.844 0.602075 -4.83969 0
M  V30 4299 H 404.849 -1.66795 -5.23889 0
M  V30 4300 H 406.074 -1.98891 -6.49322 0
M  V30 4301 H 404.02 0.254252 -6.55507 0
M  V30 4302 H 403.937 -1.2211 -7.46073 0
M  V30 4303 H 405.205 -0.0797596 -7.79459 0
M  V30 4304 N 409.434 1.37368 -0.772513 0
M  V30 4305 C 410.682 1.99279 -0.336516 0
M  V30 4306 C 411.003 1.6163 1.09091 0
M  V30 4307 O 410.273 0.882109 1.74916 0
M  V30 4308 H 408.853 0.737063 -0.121435 0
M  V30 4309 H 411.515 1.67836 -0.990809 0
M  V30 4310 H 410.611 3.09332 -0.414763 0
M  V30 4311 N 410.912 0.523116 1.48665 0
M  V30 4312 C 412.158 -0.0134963 2.02796 0
M  V30 4313 C 412.491 -1.34582 1.40004 0
M  V30 4314 O 411.766 -1.86756 0.543381 0
M  V30 4315 C 412.049 -0.14276 3.59817 0
M  V30 4316 C 411.902 1.21425 4.331 0
M  V30 4317 C 413.221 -0.872856 4.31357 0
M  V30 4318 H 410.34 -0.00343074 0.736992 0
M  V30 4319 H 412.982 0.678816 1.7746 0
M  V30 4320 H 411.132 -0.732401 3.81534 0
M  V30 4321 H 412.804 1.84447 4.2282 0
M  V30 4322 H 411.047 1.79791 3.94788 0
M  V30 4323 H 411.718 1.07687 5.41394 0
M  V30 4324 H 414.194 -0.372555 4.14429 0
M  V30 4325 H 413.07 -0.932185 5.40927 0
M  V30 4326 H 413.331 -1.92161 3.98154 0
M  V30 4327 N 412.39 -1.55475 0.257931 0
M  V30 4328 C 413.337 -2.21837 -0.636939 0
M  V30 4329 C 414.307 -1.18596 -1.16294 0
M  V30 4330 O 415.492 -1.47081 -1.21539 0
M  V30 4331 C 412.632 -2.9301 -1.82317 0
M  V30 4332 C 411.745 -4.10931 -1.33265 0
M  V30 4333 C 410.88 -4.69791 -2.47931 0
M  V30 4334 C 409.919 -5.7994 -1.95796 0
M  V30 4335 N 409.056 -6.32935 -3.0387 0
M  V30 4336 H 413.896 -2.9793 -0.0643591 0
M  V30 4337 H 411.433 -1.47086 -0.0200031 0
M  V30 4338 H 413.391 -3.3248 -2.52018 0
M  V30 4339 H 412.021 -2.1937 -2.36805 0
M  V30 4340 H 411.073 -3.76699 -0.52931 0
M  V30 4341 H 412.385 -4.90417 -0.910654 0
M  V30 4342 H 411.539 -5.11892 -3.25656 0
M  V30 4343 H 410.278 -3.89545 -2.93438 0
M  V30 4344 H 409.283 -5.37305 -1.16546 0
M  V30 4345 H 410.508 -6.62043 -1.51246 0
M  V30 4346 H 408.454 -5.55591 -3.48791 0
M  V30 4347 H 408.371 -7.07645 -2.66035 0
M  V30 4348 H 409.639 -6.79695 -3.81621 0
M  V30 4349 O 413.907 -0.12294 -1.61031 0
M  V30 4350 H 414.598 0.475096 -1.87783 0
M  V30 END ATOM
M  V30 BEGIN BOND
M  V30 END BOND
M  V30 END CTAB
M  END
$$$$
