drugbank_target|Q820T1 3-oxoacyl-[acyl-carrier-protein] synthase 3 (DB07429)
 OpenBabel12092120423D

  0  0  0     0  0            999 V3000
M  V30 BEGIN CTAB
M  V30 COUNTS 4928 4968 0 0 0
M  V30 BEGIN ATOM
M  V30 1 H -0.908 1.98254 -0.117106 0
M  V30 2 N 0 1.576 0 0
M  V30 3 C 0.933 2.03868 1.02534 0
M  V30 4 C 1.911 0.928543 1.3348 0
M  V30 5 O 3.095 1.19667 1.45644 0
M  V30 6 C 0.222 2.43627 2.35294 0
M  V30 7 C -0.732 3.65373 2.2001 0
M  V30 8 S 0.101 5.13292 1.52614 0
M  V30 9 C 1.257 5.56322 2.86805 0
M  V30 10 H 1.49 2.90518 0.631377 0
M  V30 11 H -0.977 1.52953 0.210867 0
M  V30 12 H 0.981 2.67203 3.11629 0
M  V30 13 H -0.358 1.57376 2.7183 0
M  V30 14 H -1.165 3.90944 3.18086 0
M  V30 15 H -1.563 3.418 1.51819 0
M  V30 16 H 0.729 5.58782 3.83104 0
M  V30 17 H 1.672 6.56266 2.65933 0
M  V30 18 H 2.08 4.83886 2.90714 0
M  V30 19 N 1.4781 -0.272755 1.55222 0
M  V30 20 C 2.4251 -1.33716 1.88119 0
M  V30 21 C 3.3951 -1.49066 0.73271 0
M  V30 22 O 4.5801 -1.63469 0.984002 0
M  V30 23 C 1.7201 -2.69238 2.15882 0
M  V30 24 C 0.8331 -2.62108 3.43399 0
M  V30 25 C -0.0319 -3.89811 3.60861 0
M  V30 26 C -0.9929 -3.77193 4.8207 0
M  V30 27 N -1.8559 -4.9673 4.96189 0
M  V30 28 H 2.9841 -1.04962 2.78903 0
M  V30 29 H 0.5211 -0.507088 1.38083 0
M  V30 30 H 2.4791 -3.48089 2.29978 0
M  V30 31 H 1.1091 -2.96194 1.28331 0
M  V30 32 H 0.1611 -1.74967 3.37773 0
M  V30 33 H 1.4731 -2.48685 4.32386 0
M  V30 34 H 0.6271 -4.77103 3.74777 0
M  V30 35 H -0.6339 -4.06102 2.7006 0
M  V30 36 H -1.6289 -2.88284 4.68159 0
M  V30 37 H -0.4039 -3.62421 5.74307 0
M  V30 38 H -2.4579 -5.13431 4.08319 0
M  V30 39 H -2.5409 -4.85839 5.79221 0
M  V30 40 H -1.2729 -5.85594 5.1449 0
M  V30 41 N 2.9562 -1.48159 -0.537278 0
M  V30 42 C 3.9042 -1.62573 -1.66352 0
M  V30 43 C 4.8982 -0.492366 -1.62087 0
M  V30 44 O 6.1042 -0.670847 -1.67032 0
M  V30 45 H 2.4792 -0.511992 -0.550789 0
M  V30 46 H 4.4502 -2.57176 -1.51337 0
M  V30 47 C 3.1992 -1.67583 -3.04649 0
M  V30 48 H 2.5222 -2.54151 -3.08622 0
M  V30 49 H 3.9622 -1.81713 -3.83088 0
M  V30 50 C 2.4212 -0.413039 -3.34358 0
M  V30 51 O 2.9512 0.477259 -3.98855 0
M  V30 52 N 1.1572 -0.286961 -2.8918 0
M  V30 53 H 0.7042 -1.01241 -2.36871 0
M  V30 54 H 0.6622 0.556963 -3.09427 0
M  V30 55 N 4.4343 0.785586 -1.36625 0
M  V30 56 C 5.6643 1.5722 -1.34036 0
M  V30 57 C 6.0723 1.89033 0.0795062 0
M  V30 58 O 5.4153 1.50881 1.04789 0
M  V30 59 C 5.4773 2.91759 -2.10041 0
M  V30 60 C 5.1413 2.82654 -3.59104 0
M  V30 61 C 6.1383 2.54634 -4.53274 0
M  V30 62 C 3.8233 3.01111 -4.02042 0
M  V30 63 C 5.8173 2.45177 -5.88359 0
M  V30 64 C 3.5043 2.91276 -5.37216 0
M  V30 65 C 4.5023 2.63348 -6.30188 0
M  V30 66 O 4.1903 2.53514 -7.6288 0
M  V30 67 H 3.9223 0.494177 -0.461265 0
M  V30 68 H 6.4763 0.982632 -1.8037 0
M  V30 69 H 4.7063 3.52781 -1.58375 0
M  V30 70 H 6.3953 3.53059 -2.00261 0
M  V30 71 H 7.1613 2.40073 -4.21414 0
M  V30 72 H 3.0403 3.21854 -3.30047 0
M  V30 73 H 6.5843 2.23299 -6.60896 0
M  V30 74 H 2.4813 3.054 -5.68684 0
M  V30 75 H 3.2493 2.68967 -7.73045 0
M  V30 76 N 5.9124 1.20967 1.01018 0
M  V30 77 C 6.8754 0.965918 2.07853 0
M  V30 78 C 7.8754 -0.0610545 1.60684 0
M  V30 79 O 9.0654 0.175681 1.73312 0
M  V30 80 C 6.1974 0.455513 3.37843 0
M  V30 81 H 7.3904 1.91365 2.3091 0
M  V30 82 H 4.9434 1.02594 1.17916 0
M  V30 83 H 5.6784 -0.497381 3.20463 0
M  V30 84 H 5.4634 1.19622 3.73407 0
M  V30 85 H 6.9534 0.304667 4.16487 0
M  V30 86 N 7.3905 -1.2043 1.01659 0
M  V30 87 C 8.8065 -1.41852 0.731442 0
M  V30 88 C 9.0065 -1.89358 -0.688898 0
M  V30 89 O 8.0625 -2.06247 -1.45666 0
M  V30 90 C 9.3755 -2.44019 1.75714 0
M  V30 91 C 10.9235 -2.57785 1.77527 0
M  V30 92 C 11.3985 -3.63194 2.79023 0
M  V30 93 N 12.8895 -3.70678 2.77763 0
M  V30 94 C 13.6245 -4.51897 3.52954 0
M  V30 95 N 13.1205 -5.36921 4.37821 0
M  V30 96 N 14.9135 -4.4643 3.41551 0
M  V30 97 H 7.0645 -0.879093 1.93354 0
M  V30 98 H 9.3275 -0.448425 0.835236 0
M  V30 99 H 9.0335 -2.1611 2.77469 0
M  V30 100 H 8.9075 -3.43007 1.56927 0
M  V30 101 H 11.2945 -2.85023 0.764569 0
M  V30 102 H 11.3755 -1.58992 2.00387 0
M  V30 103 H 11.0195 -3.36699 3.80258 0
M  V30 104 H 10.9495 -4.61609 2.53425 0
M  V30 105 H 13.4405 -3.09944 2.16201 0
M  V30 106 H 13.7535 -5.95981 4.91962 0
M  V30 107 H 12.0985 -5.36424 4.41899 0
M  V30 108 H 15.2895 -3.79042 2.74672 0
M  V30 109 H 15.4625 -5.09491 4.00404 0
M  V30 110 N 8.8686 -0.792821 -1.36206 0
M  V30 111 C 10.1176 -0.363353 -1.984 0
M  V30 112 C 10.4306 1.07172 -1.63626 0
M  V30 113 O 11.6366 1.60362 -2.19081 0
M  V30 114 C 10.0926 -0.59872 -3.54885 0
M  V30 115 C 9.7006 -2.04543 -3.9858 0
M  V30 116 C 11.4446 -0.233926 -4.23855 0
M  V30 117 C 9.3516 -2.22727 -5.47856 0
M  V30 118 H 8.2816 -0.13212 -0.742334 0
M  V30 119 H 10.9326 -0.974935 -1.55458 0
M  V30 120 H 9.3146 0.0826222 -3.95914 0
M  V30 121 H 10.4886 -2.76345 -3.68741 0
M  V30 122 H 8.8036 -2.36879 -3.42458 0
M  V30 123 H 11.4006 -0.348027 -5.33566 0
M  V30 124 H 11.7436 0.818351 -4.08177 0
M  V30 125 H 12.2766 -0.868639 -3.882 0
M  V30 126 H 9.0156 -3.2635 -5.68486 0
M  V30 127 H 8.5356 -1.55434 -5.7931 0
M  V30 128 H 10.2146 -2.03607 -6.14128 0
M  V30 129 N 10.3467 1.47872 -0.545128 0
M  V30 130 C 11.5717 2.07391 -0.0190611 0
M  V30 131 C 11.9967 1.39688 1.25971 0
M  V30 132 O 11.3547 0.467816 1.7516 0
M  V30 133 C 11.4027 3.60188 0.172335 0
M  V30 134 O 10.5067 3.9339 1.23766 0
M  V30 135 H 9.8477 0.662411 -0.0459059 0
M  V30 136 H 12.3777 1.90066 -0.757365 0
M  V30 137 H 12.3877 4.06129 0.390305 0
M  V30 138 H 11.0627 4.08865 -0.761725 0
M  V30 139 H 9.6397 3.5921 1.00114 0
M  V30 140 N 11.8248 0.280983 1.55075 0
M  V30 141 C 13.0648 -0.335234 2.01632 0
M  V30 142 C 13.4288 -1.5261 1.16508 0
M  V30 143 O 14.6298 -2.21235 1.52672 0
M  V30 144 C 12.9008 -0.702172 3.50434 0
M  V30 145 S 14.4598 -1.30409 4.18974 0
M  V30 146 H 11.2778 -0.103967 0.703358 0
M  V30 147 H 13.8798 0.404187 1.91276 0
M  V30 148 H 12.5838 0.17333 4.10034 0
M  V30 149 H 12.1148 -1.4729 3.64786 0
M  V30 150 H 14.1298 -2.59253 4.23087 0
M  V30 151 N 13.3029 -1.57598 0.00835791 0
M  V30 152 C 14.5309 -1.95214 -0.68549 0
M  V30 153 C 14.9459 -0.883706 -1.66841 0
M  V30 154 O 14.3029 0.136565 -1.81988 0
M  V30 155 C 14.3539 -3.32865 -1.41007 0
M  V30 156 O 14.0749 -4.35609 -0.466552 0
M  V30 157 C 15.5759 -3.84991 -2.19765 0
M  V30 158 H 12.7959 -0.643422 -0.190392 0
M  V30 159 H 15.3399 -2.04406 0.0619607 0
M  V30 160 H 13.4949 -3.24956 -2.10908 0
M  V30 161 H 13.9089 -5.15288 -0.978699 0
M  V30 162 H 15.3829 -4.8371 -2.65948 0
M  V30 163 H 15.8599 -3.18137 -3.02796 0
M  V30 164 H 16.4659 -3.96103 -1.54864 0
M  V30 165 N 14.781 0.264519 -1.55364 0
M  V30 166 C 16.006 1.01726 -1.80739 0
M  V30 167 C 16.431 1.78836 -0.583044 0
M  V30 168 O 15.789 1.75167 0.467566 0
M  V30 169 C 15.837 1.94482 -3.03659 0
M  V30 170 O 14.941 3.03386 -2.7934 0
M  V30 171 H 14.282 0.290395 -0.597132 0
M  V30 172 H 16.812 0.290854 -2.02522 0
M  V30 173 H 16.822 2.36278 -3.32621 0
M  V30 174 H 15.497 1.37772 -3.92418 0
M  V30 175 H 14.074 2.65844 -2.61498 0
M  V30 176 N 16.2591 1.48442 0.529413 0
M  V30 177 C 17.6751 1.34575 0.858004 0
M  V30 178 C 17.8751 0.3572 1.98309 0
M  V30 179 O 16.9311 -0.221379 2.51528 0
M  V30 180 C 18.2441 2.74617 1.22499 0
M  V30 181 C 19.7921 2.83109 1.33484 0
M  V30 182 C 20.2671 4.23854 1.73526 0
M  V30 183 N 21.7581 4.2653 1.80628 0
M  V30 184 C 22.4931 5.32372 2.12997 0
M  V30 185 N 21.9891 6.48491 2.43786 0
M  V30 186 N 23.7821 5.19766 2.14008 0
M  V30 187 H 15.9331 2.1133 -0.212925 0
M  V30 188 H 18.1961 0.947439 -0.0326199 0
M  V30 189 H 17.9021 3.4852 0.471905 0
M  V30 190 H 17.7761 3.08177 2.17501 0
M  V30 191 H 20.1631 2.09462 2.0787 0
M  V30 192 H 20.2441 2.53168 0.366027 0
M  V30 193 H 19.8881 4.98018 0.997013 0
M  V30 194 H 19.8181 4.5124 2.71459 0
M  V30 195 H 22.3091 3.42772 1.59108 0
M  V30 196 H 22.6221 7.24993 2.67592 0
M  V30 197 H 20.9671 6.51765 2.41304 0
M  V30 198 H 24.1581 4.28066 1.89412 0
M  V30 199 H 24.3311 6.02354 2.38902 0
M  V30 200 N 17.7372 -0.778329 1.37039 0
M  V30 201 C 18.9672 -1.56507 1.34868 0
M  V30 202 C 19.3752 -1.89072 -0.0694802 0
M  V30 203 O 18.7182 -1.51434 -1.03987 0
M  V30 204 C 18.7802 -2.90641 2.11585 0
M  V30 205 C 18.4442 -2.80746 3.60598 0
M  V30 206 C 19.4412 -2.52226 4.54618 0
M  V30 207 C 17.1262 -2.98974 4.03633 0
M  V30 208 C 19.1202 -2.42054 5.89651 0
M  V30 209 C 16.8072 -2.88423 5.38754 0
M  V30 210 C 17.8052 -2.60002 6.31576 0
M  V30 211 O 17.4932 -2.49465 7.64214 0
M  V30 212 H 17.2252 -0.491723 0.463879 0
M  V30 213 H 19.7792 -0.973053 1.80889 0
M  V30 214 H 18.0092 -3.51936 1.60243 0
M  V30 215 H 19.6982 -3.51992 2.0213 0
M  V30 216 H 20.4642 -2.37835 4.22681 0
M  V30 217 H 16.3432 -3.20099 3.31749 0
M  V30 218 H 19.8872 -2.19791 6.62071 0
M  V30 219 H 15.7842 -3.0238 5.70295 0
M  V30 220 H 16.5522 -2.64864 7.74461 0
M  V30 221 N 19.2153 -1.21501 -1.00376 0
M  V30 222 C 20.4613 -1.03452 -1.74429 0
M  V30 223 C 20.7943 0.430764 -1.89362 0
M  V30 224 O 20.0693 1.31962 -1.42886 0
M  V30 225 C 20.3523 -1.73375 -3.15615 0
M  V30 226 C 20.2053 -3.27431 -3.08397 0
M  V30 227 C 21.5243 -1.47732 -4.14564 0
M  V30 228 H 18.6433 -0.377226 -0.633143 0
M  V30 229 H 21.2853 -1.49693 -1.17013 0
M  V30 230 H 19.4353 -1.34064 -3.64636 0
M  V30 231 H 21.1073 -3.76119 -2.67081 0
M  V30 232 H 19.3503 -3.5767 -2.45468 0
M  V30 233 H 20.0213 -3.71524 -4.08258 0
M  V30 234 H 22.4973 -1.8186 -3.74254 0
M  V30 235 H 21.3733 -1.99169 -5.11491 0
M  V30 236 H 21.6343 -0.407589 -4.40217 0
M  V30 237 N 20.6934 1.19889 -1.02296 0
M  V30 238 C 22.1044 1.71124 -0.746568 0
M  V30 239 C 22.4554 1.81939 0.734335 0
M  V30 240 O 21.5804 1.48639 1.57275 0
M  V30 241 C 22.1754 3.10804 -1.34857 0
M  V30 242 C 20.7344 3.59323 -1.1209 0
M  V30 243 C 19.8814 2.3635 -1.45031 0
M  V30 244 H 22.8324 1.04813 -1.19163 0
M  V30 245 H 22.8534 3.73186 -0.742437 0
M  V30 246 H 22.3654 3.029 -2.42638 0
M  V30 247 H 20.4664 3.7255 -0.0610337 0
M  V30 248 H 20.5794 4.4378 -1.80544 0
M  V30 249 H 18.9434 2.39399 -0.869487 0
M  V30 250 H 19.7264 2.31081 -2.53883 0
M  V30 251 N 22.1715 0.800033 1.35784 0
M  V30 252 C 23.0815 0.207204 2.33683 0
M  V30 253 C 24.0975 -0.64631 1.61551 0
M  V30 254 O 25.2735 -0.559604 1.93469 0
M  V30 255 C 22.3385 -0.639659 3.40748 0
M  V30 256 C 21.3995 0.233585 4.28664 0
M  V30 257 C 20.6325 -0.572954 5.30616 0
M  V30 258 O 20.8555 -1.80816 5.40982 0
M  V30 259 O 19.7895 0.0327285 6.01891 0
M  V30 260 H 23.6155 1.01692 2.86169 0
M  V30 261 H 21.2005 0.561691 1.38439 0
M  V30 262 H 23.0825 -1.12223 4.06182 0
M  V30 263 H 21.7575 -1.42708 2.90544 0
M  V30 264 H 20.6645 0.763147 3.66233 0
M  V30 265 H 21.9975 0.984784 4.82248 0
M  V30 266 N 23.6496 -1.47581 0.552962 0
M  V30 267 C 24.5976 -2.31648 -0.21023 0
M  V30 268 C 25.5916 -1.42663 -0.913432 0
M  V30 269 O 26.7976 -1.5945 -0.835201 0
M  V30 270 H 23.1726 -0.746989 -0.0866676 0
M  V30 271 H 25.1436 -2.93869 0.518051 0
M  V30 272 C 23.8926 -3.25226 -1.22976 0
M  V30 273 H 23.2156 -3.93658 -0.698077 0
M  V30 274 H 24.6556 -3.86889 -1.73473 0
M  V30 275 C 23.1146 -2.48448 -2.27542 0
M  V30 276 O 23.6446 -2.22585 -3.34393 0
M  V30 277 N 21.8506 -2.09532 -2.01357 0
M  V30 278 H 21.3976 -2.30765 -1.14478 0
M  V30 279 H 21.3556 -1.58476 -2.71538 0
M  V30 280 N 25.1277 -0.289203 -1.54924 0
M  V30 281 C 26.3677 0.324536 -2.01807 0
M  V30 282 C 26.7317 1.5199 -1.17316 0
M  V30 283 O 27.9327 2.20422 -1.53843 0
M  V30 284 C 26.2037 0.683578 -3.50802 0
M  V30 285 S 27.7627 1.28185 -4.19659 0
M  V30 286 H 24.5807 0.100236 -0.703899 0
M  V30 287 H 27.1827 -0.414325 -1.91059 0
M  V30 288 H 25.8867 -0.195073 -4.09936 0
M  V30 289 H 25.4177 1.45354 -3.65562 0
M  V30 290 H 27.4327 2.57006 -4.24456 0
M  V30 291 N 26.6058 1.57591 -0.0167156 0
M  V30 292 C 27.8518 1.91567 0.665582 0
M  V30 293 C 28.1848 0.892298 1.72487 0
M  V30 294 O 27.4598 -0.0867127 1.94307 0
M  V30 295 C 27.7428 3.36069 1.29342 0
M  V30 296 C 27.5958 4.49135 0.244541 0
M  V30 297 C 28.9148 3.803 2.21495 0
M  V30 298 H 26.0338 0.69666 0.240488 0
M  V30 299 H 28.6758 1.89866 -0.0714356 0
M  V30 300 H 26.8258 3.3765 1.92158 0
M  V30 301 H 28.4978 4.59689 -0.385228 0
M  V30 302 H 26.7408 4.3165 -0.431379 0
M  V30 303 H 27.4118 5.47242 0.723207 0
M  V30 304 H 29.8878 3.80377 1.68678 0
M  V30 305 H 28.7638 4.82127 2.62382 0
M  V30 306 H 29.0248 3.15104 3.101 0
M  V30 307 N 28.0839 -0.256276 1.55502 0
M  V30 308 C 29.3119 -1.00342 1.8094 0
M  V30 309 C 29.7269 -1.79307 0.59114 0
M  V30 310 O 29.0839 -1.77114 -0.440081 0
M  V30 311 C 29.1349 -1.94875 3.04476 0
M  V30 312 O 28.8559 -1.19107 4.21598 0
M  V30 313 C 30.3569 -2.81266 3.42644 0
M  V30 314 H 27.5769 -0.295685 0.602338 0
M  V30 315 H 30.1209 -0.281998 2.02546 0
M  V30 316 H 28.2759 -2.62457 2.84947 0
M  V30 317 H 28.6899 -1.82969 4.91551 0
M  V30 318 H 30.1639 -3.43362 4.32211 0
M  V30 319 H 30.6409 -3.51897 2.62802 0
M  V30 320 H 31.2469 -2.1915 3.64491 0
M  V30 321 N 29.562 -1.4872 -0.521534 0
M  V30 322 C 30.51 -1.64328 -1.64618 0
M  V30 323 C 31.504 -0.50953 -1.61555 0
M  V30 324 O 32.71 -0.688525 -1.66311 0
M  V30 325 H 29.085 -0.517805 -0.545328 0
M  V30 326 H 31.056 -2.58767 -1.48601 0
M  V30 327 C 29.805 -1.70805 -3.02855 0
M  V30 328 H 29.128 -2.5741 -3.05909 0
M  V30 329 H 30.568 -1.85766 -3.81139 0
M  V30 330 C 29.027 -0.448479 -3.33902 0
M  V30 331 O 29.557 0.434928 -3.99339 0
M  V30 332 N 27.763 -0.317616 -2.88859 0
M  V30 333 H 27.31 -1.03748 -2.35784 0
M  V30 334 H 27.268 0.524113 -3.10001 0
M  V30 335 N 31.0401 0.771051 -1.3745 0
M  V30 336 C 31.9901 1.87456 -1.29785 0
M  V30 337 C 32.9741 1.59827 -0.185541 0
M  V30 338 O 34.1661 1.71945 -0.419997 0
M  V30 339 C 31.2951 3.24935 -1.1078 0
M  V30 340 C 30.3811 3.58514 -2.26558 0
M  V30 341 N 30.7721 3.6327 -3.5195 0
M  V30 342 C 29.0701 3.88683 -2.18727 0
M  V30 343 C 29.7711 3.93616 -4.283 0
M  V30 344 N 28.7471 4.09551 -3.57448 0
M  V30 345 H 32.5491 1.89386 -2.24745 0
M  V30 346 H 30.0631 0.967531 -1.30432 0
M  V30 347 H 32.0601 4.03881 -1.03374 0
M  V30 348 H 30.7201 3.24268 -0.16738 0
M  V30 349 H 31.7311 3.45458 -3.85848 0
M  V30 350 H 28.4081 3.95834 -1.32746 0
M  V30 351 H 29.7981 4.04066 -5.36824 0
M  V30 352 N 32.5182 1.22032 0.997298 0
M  V30 353 C 33.4502 0.944263 2.08845 0
M  V30 354 C 34.4632 -0.0754663 1.62625 0
M  V30 355 O 35.6522 0.157994 1.77799 0
M  V30 356 C 32.7522 0.397723 3.36558 0
M  V30 357 C 31.9252 1.47362 4.11829 0
M  V30 358 C 30.9842 0.934951 5.17827 0
M  V30 359 O 30.0102 1.62016 5.45655 0
M  V30 360 N 31.2122 -0.245895 5.79979 0
M  V30 361 H 33.9772 1.88363 2.33109 0
M  V30 362 H 31.5382 1.12661 1.16272 0
M  V30 363 H 33.5302 0.0227771 4.04694 0
M  V30 364 H 32.1002 -0.446646 3.09393 0
M  V30 365 H 31.3202 2.02208 3.38386 0
M  V30 366 H 32.6082 2.19764 4.58891 0
M  V30 367 H 32.0062 -0.819475 5.59733 0
M  V30 368 H 30.5632 -0.562272 6.4937 0
M  V30 369 N 33.9963 -1.19345 1.0293 0
M  V30 370 C 34.9263 -2.2481 0.631105 0
M  V30 371 C 35.9073 -1.66245 -0.360104 0
M  V30 372 O 37.0923 -1.92677 -0.242726 0
M  V30 373 C 34.2223 -3.47295 -0.0184607 0
M  V30 374 C 33.1763 -4.18536 0.895073 0
M  V30 375 C 32.5023 -5.34586 0.110592 0
M  V30 376 C 33.8023 -4.73287 2.209 0
M  V30 377 H 35.4963 -2.58372 1.51275 0
M  V30 378 H 33.0423 -1.24194 0.728818 0
M  V30 379 H 34.9953 -4.20268 -0.308675 0
M  V30 380 H 33.7193 -3.12933 -0.934907 0
M  V30 381 H 32.3783 -3.47446 1.16949 0
M  V30 382 H 32.0263 -4.96469 -0.807902 0
M  V30 383 H 31.7263 -5.83183 0.719087 0
M  V30 384 H 33.2503 -6.10355 -0.172871 0
M  V30 385 H 34.6643 -5.38013 1.98028 0
M  V30 386 H 33.0613 -5.32373 2.76946 0
M  V30 387 H 34.1313 -3.91331 2.86336 0
M  V30 388 N 35.4744 -0.807222 -1.35358 0
M  V30 389 C 36.6994 -0.399309 -2.0352 0
M  V30 390 C 37.1244 0.981986 -1.60433 0
M  V30 391 O 36.4824 1.63601 -0.781299 0
M  V30 392 C 36.5304 -0.491552 -3.57234 0
M  V30 393 O 35.6344 0.494754 -4.09421 0
M  V30 394 H 34.9754 -0.166682 -0.642739 0
M  V30 395 H 37.5054 -1.09328 -1.72941 0
M  V30 396 H 37.5154 -0.361588 -4.06395 0
M  V30 397 H 36.1904 -1.49907 -3.87944 0
M  V30 398 H 34.7674 0.324977 -3.71481 0
M  V30 399 N 36.9525 1.47285 -0.560781 0
M  V30 400 C 37.8625 2.33846 0.187954 0
M  V30 401 C 38.8785 1.48412 0.908293 0
M  V30 402 O 40.0545 1.81332 0.876388 0
M  V30 403 C 37.1195 3.25178 1.2025 0
M  V30 404 C 36.1805 4.26504 0.489208 0
M  V30 405 C 35.4135 5.13472 1.45542 0
M  V30 406 O 35.6365 5.02959 2.6905 0
M  V30 407 O 34.5705 5.93902 0.977963 0
M  V30 408 H 38.3965 2.99177 -0.522177 0
M  V30 409 H 35.9815 1.45903 -0.321364 0
M  V30 410 H 37.8635 3.81584 1.78805 0
M  V30 411 H 36.5385 2.6247 1.89449 0
M  V30 412 H 35.4455 3.73847 -0.137627 0
M  V30 413 H 36.7785 4.91935 -0.161399 0
M  V30 414 N 38.4306 0.297415 1.54768 0
M  V30 415 C 39.3636 -0.622188 2.19554 0
M  V30 416 C 40.3416 -1.13558 1.16376 0
M  V30 417 O 41.5256 -1.20444 1.45002 0
M  V30 418 C 38.6526 -1.8509 2.83653 0
M  V30 419 C 37.6986 -1.47106 4.00328 0
M  V30 420 S 38.5316 -0.53006 5.3287 0
M  V30 421 C 39.6876 -1.76665 6.0045 0
M  V30 422 H 39.9206 -0.0717806 2.97213 0
M  V30 423 H 37.4536 0.0815678 1.54184 0
M  V30 424 H 39.4116 -2.55605 3.21211 0
M  V30 425 H 38.0726 -2.37247 2.05846 0
M  V30 426 H 37.2656 -2.38594 4.43947 0
M  V30 427 H 36.8676 -0.845885 3.64309 0
M  V30 428 H 39.1596 -2.7077 6.21039 0
M  V30 429 H 40.1026 -1.37308 6.9466 0
M  V30 430 H 40.5106 -1.94174 5.30054 0
M  V30 431 N 39.9087 -1.5758 0.0250728 0
M  V30 432 C 40.8417 -2.05473 -0.992777 0
M  V30 433 C 41.8197 -0.949661 -1.31986 0
M  V30 434 O 43.0037 -1.21969 -1.43722 0
M  V30 435 C 40.1307 -2.4734 -2.31389 0
M  V30 436 C 39.1767 -3.68827 -2.1417 0
M  V30 437 S 40.0097 -5.15655 -1.44429 0
M  V30 438 C 41.1657 -5.60814 -2.77918 0
M  V30 439 H 41.3987 -2.91486 -0.585078 0
M  V30 440 H 38.9317 -1.53269 -0.186507 0
M  V30 441 H 40.8897 -2.72127 -3.07339 0
M  V30 442 H 39.5507 -1.6168 -2.69292 0
M  V30 443 H 38.7437 -3.95955 -3.11826 0
M  V30 444 H 38.3457 -3.44172 -1.46362 0
M  V30 445 H 40.6377 -5.64806 -3.74166 0
M  V30 446 H 41.5807 -6.60414 -2.55459 0
M  V30 447 H 41.9887 -4.8845 -2.82979 0
M  V30 448 N 41.3868 0.248026 -1.55636 0
M  V30 449 C 42.6638 0.998988 -1.68165 0
M  V30 450 C 43.0438 2.03409 -0.564621 0
M  V30 451 O 42.3918 2.24378 0.432076 0
M  V30 452 C 42.6018 1.63334 -3.0842 0
M  V30 453 C 43.9498 2.13562 -3.66983 0
M  V30 454 O 44.9738 1.73277 -3.11213 0
M  V30 455 O 43.8328 2.87526 -4.64749 0
M  V30 456 H 40.9268 0.464933 -0.683935 0
M  V30 457 H 43.4728 0.241902 -1.67967 0
M  V30 458 H 42.2448 0.884583 -3.8117 0
M  V30 459 H 41.8678 2.45666 -3.12624 0
M  V30 460 N 42.8649 1.48995 0.513639 0
M  V30 461 C 44.0929 1.61531 1.29288 0
M  V30 462 C 44.5079 0.281801 1.86685 0
M  V30 463 O 43.8649 -0.731111 1.67215 0
M  V30 464 C 43.9159 2.67449 2.43215 0
M  V30 465 O 43.6369 3.95626 1.88179 0
M  V30 466 C 45.1379 2.90575 3.34785 0
M  V30 467 H 42.3579 0.544165 0.392588 0
M  V30 468 H 44.9019 1.9494 0.617956 0
M  V30 469 H 43.0569 2.36853 3.0656 0
M  V30 470 H 43.4709 4.53868 2.62876 0
M  V30 471 H 44.9449 3.68449 4.11035 0
M  V30 472 H 45.4219 2.00011 3.91015 0
M  V30 473 H 46.0279 3.22538 2.77218 0
M  V30 474 N 44.343 -0.763751 1.37857 0
M  V30 475 C 45.568 -1.55805 1.36893 0
M  V30 476 C 45.993 -1.88054 -0.0416135 0
M  V30 477 O 45.351 -1.49825 -1.02089 0
M  V30 478 C 45.399 -2.84012 2.22192 0
M  V30 479 O 44.503 -3.78732 1.63204 0
M  V30 480 H 43.844 -0.471638 0.46739 0
M  V30 481 H 46.374 -0.944657 1.81487 0
M  V30 482 H 46.384 -3.33037 2.35691 0
M  V30 483 H 45.059 -2.59869 3.24716 0
M  V30 484 H 43.636 -3.37402 1.58791 0
M  V30 485 N 45.8211 -1.22559 -0.990812 0
M  V30 486 C 47.0981 -0.959875 -1.70428 0
M  V30 487 C 47.4781 0.524455 -2.04481 0
M  V30 488 O 46.8261 1.49302 -1.72977 0
M  V30 489 C 47.0361 -1.85955 -2.95333 0
M  V30 490 C 48.3841 -2.11687 -3.68068 0
M  V30 491 O 49.4081 -1.8342 -3.05345 0
M  V30 492 O 48.2671 -2.59572 -4.80921 0
M  V30 493 H 45.3611 -0.361154 -0.743974 0
M  V30 494 H 47.9071 -1.33554 -1.04697 0
M  V30 495 H 46.6791 -2.86346 -2.66687 0
M  V30 496 H 46.3021 -1.4856 -3.68803 0
M  V30 497 N 47.2992 1.18797 -1.03562 0
M  V30 498 C 48.2092 2.25913 -0.632505 0
M  V30 499 C 49.2252 1.70668 0.338882 0
M  V30 500 O 50.4012 2.00453 0.195076 0
M  V30 501 C 47.4662 3.467 0.00350942 0
M  V30 502 C 46.5272 4.17098 -1.01624 0
M  V30 503 C 45.7602 5.32119 -0.410478 0
M  V30 504 O 45.9832 5.64976 0.784725 0
M  V30 505 O 44.9172 5.9107 -1.13667 0
M  V30 506 H 48.7432 2.62648 -1.52478 0
M  V30 507 H 46.3282 1.25781 -0.806195 0
M  V30 508 H 48.2102 4.19878 0.35781 0
M  V30 509 H 46.8852 3.11798 0.869686 0
M  V30 510 H 45.7922 3.4601 -1.42224 0
M  V30 511 H 47.1252 4.55987 -1.85301 0
M  V30 512 N 48.7773 0.814389 1.34928 0
M  V30 513 C 50.0233 0.408167 1.99263 0
M  V30 514 C 50.3783 -1.0154 1.63424 0
M  V30 515 O 49.6713 -1.69607 0.891289 0
M  V30 516 C 49.8653 0.537781 3.53331 0
M  V30 517 C 49.6943 1.9724 4.04137 0
M  V30 518 C 48.4643 2.60245 4.33129 0
M  V30 519 C 50.6623 2.93801 4.2212 0
M  V30 520 N 48.6443 3.95036 4.69914 0
M  V30 521 C 50.0153 4.1348 4.6199 0
M  V30 522 C 52.0703 2.9053 4.04348 0
M  V30 523 C 50.7733 5.3033 4.85945 0
M  V30 524 C 52.7993 4.06589 4.29464 0
M  V30 525 C 52.1613 5.25017 4.69613 0
M  V30 526 H 48.2603 0.197289 0.756704 0
M  V30 527 H 50.8443 1.05728 1.63492 0
M  V30 528 H 49.0153 -0.0813868 3.88315 0
M  V30 529 H 50.7473 0.105389 4.04563 0
M  V30 530 H 47.5023 2.11545 4.23728 0
M  V30 531 H 47.9263 4.64455 4.92555 0
M  V30 532 H 52.5683 2.00115 3.72443 0
M  V30 533 H 50.2863 6.21309 5.16721 0
M  V30 534 H 53.8723 4.05447 4.17257 0
M  V30 535 H 52.7523 6.1333 4.88667 0
M  V30 536 N 50.2554 -1.46986 0.568584 0
M  V30 537 C 51.5044 -2.01646 0.0465894 0
M  V30 538 C 51.8174 -1.44721 -1.31587 0
M  V30 539 O 53.0234 -1.91113 -1.92842 0
M  V30 540 C 51.4794 -3.59885 0.032752 0
M  V30 541 C 51.0874 -4.25804 1.39266 0
M  V30 542 C 52.8314 -4.22255 -0.436038 0
M  V30 543 C 50.7384 -5.76081 1.33732 0
M  V30 544 H 49.6684 -0.753876 0.013647 0
M  V30 545 H 52.3194 -1.68864 0.718131 0
M  V30 546 H 50.7014 -3.8968 -0.704669 0
M  V30 547 H 51.8754 -4.07637 2.1487 0
M  V30 548 H 50.1904 -3.7547 1.80032 0
M  V30 549 H 52.7874 -5.32394 -0.49602 0
M  V30 550 H 53.1304 -3.90212 -1.45053 0
M  V30 551 H 53.6634 -3.97033 0.246877 0
M  V30 552 H 50.4024 -6.12761 2.32817 0
M  V30 553 H 49.9224 -5.96553 0.623267 0
M  V30 554 H 51.6014 -6.38518 1.0442 0
M  V30 555 N 51.7335 -0.305618 -1.54608 0
M  V30 556 C 52.6835 0.583595 -2.20405 0
M  V30 557 C 53.6675 1.09539 -1.17856 0
M  V30 558 O 54.8595 1.0354 -1.43557 0
M  V30 559 C 51.9885 1.75277 -2.95183 0
M  V30 560 C 51.0745 1.25672 -4.05052 0
M  V30 561 N 51.4655 0.478998 -5.03527 0
M  V30 562 C 49.7635 1.53704 -4.18678 0
M  V30 563 C 50.4645 0.214269 -5.81305 0
M  V30 564 N 49.4405 0.795374 -5.3775 0
M  V30 565 H 53.2425 -0.0180946 -2.93894 0
M  V30 566 H 50.7565 -0.110601 -1.62023 0
M  V30 567 H 52.7535 2.4014 -3.40791 0
M  V30 568 H 51.4135 2.35812 -2.23211 0
M  V30 569 H 52.4245 0.123473 -5.17753 0
M  V30 570 H 49.1015 2.14954 -3.57912 0
M  V30 571 H 50.4915 -0.410656 -6.70644 0
M  V30 572 N 53.2116 1.57565 -0.0334293 0
M  V30 573 C 54.4366 1.96689 0.657895 0
M  V30 574 C 54.8616 0.910057 1.64619 0
M  V30 575 O 54.2196 -0.128598 1.80843 0
M  V30 576 C 54.2676 3.34905 1.33683 0
M  V30 577 O 53.3716 3.31574 2.45219 0
M  V30 578 H 52.7126 0.641205 0.172489 0
M  V30 579 H 55.2426 2.04372 -0.0965621 0
M  V30 580 H 55.2526 3.71234 1.69262 0
M  V30 581 H 53.9276 4.11366 0.612411 0
M  V30 582 H 52.5046 3.06968 2.11719 0
M  V30 583 N 54.6897 -0.239769 1.55765 0
M  V30 584 C 56.1057 -0.588624 1.48349 0
M  V30 585 C 56.3057 -1.88005 0.72502 0
M  V30 586 O 55.3617 -2.51186 0.257269 0
M  V30 587 C 56.6747 -0.68474 2.928 0
M  V30 588 C 58.2227 -0.77659 3.03213 0
M  V30 589 C 58.6977 -0.904207 4.48986 0
M  V30 590 N 60.1887 -0.968896 4.52953 0
M  V30 591 C 60.9237 -1.08703 5.63002 0
M  V30 592 N 60.4197 -1.17026 6.82845 0
M  V30 593 N 62.2127 -1.12074 5.50814 0
M  V30 594 H 54.3637 0.607911 2.03515 0
M  V30 595 H 56.6267 0.21083 0.924259 0
M  V30 596 H 56.3327 0.194284 3.51163 0
M  V30 597 H 56.2067 -1.55435 3.43686 0
M  V30 598 H 58.5937 -1.64606 2.44926 0
M  V30 599 H 58.6747 0.118315 2.55526 0
M  V30 600 H 58.3187 -0.0392633 5.07885 0
M  V30 601 H 58.2487 -1.81426 4.9436 0
M  V30 602 H 60.7397 -0.915633 3.6664 0
M  V30 603 H 61.0527 -1.25966 7.62465 0
M  V30 604 H 59.3977 -1.13971 6.85591 0
M  V30 605 H 62.5887 -1.05226 4.5612 0
M  V30 606 H 62.7617 -1.20936 6.36615 0
M  V30 607 N 56.1678 -1.49265 -0.50573 0
M  V30 608 C 57.3958 -1.62215 -1.28429 0
M  V30 609 C 57.8108 -0.291697 -1.86533 0
M  V30 610 O 57.1678 0.722233 -1.67601 0
M  V30 611 C 57.2188 -2.68735 -2.41793 0
M  V30 612 O 56.9398 -3.96619 -1.86078 0
M  V30 613 C 58.4408 -2.92346 -3.3324 0
M  V30 614 H 55.6608 -0.546239 -0.389697 0
M  V30 615 H 58.2048 -1.95265 -0.607609 0
M  V30 616 H 56.3598 -2.38476 -3.053 0
M  V30 617 H 56.7738 -4.55256 -2.60465 0
M  V30 618 H 58.2478 -3.70623 -4.09075 0
M  V30 619 H 58.7248 -2.02081 -3.89948 0
M  V30 620 H 59.3308 -3.24003 -2.75503 0
M  V30 621 N 57.6459 0.756429 -1.3826 0
M  V30 622 C 58.8939 1.51248 -1.34047 0
M  V30 623 C 59.2149 1.94875 0.0698372 0
M  V30 624 O 58.4849 1.67436 1.01696 0
M  V30 625 H 57.0649 0.561018 -0.493222 0
M  V30 626 H 59.7269 0.899347 -1.7291 0
M  V30 627 H 58.8229 2.40472 -1.98947 0
M  V30 628 N 59.124 1.23083 0.984299 0
M  V30 629 C 60.373 1.05466 1.71929 0
M  V30 630 C 60.686 -0.409211 1.91272 0
M  V30 631 O 61.892 -0.705226 2.62181 0
M  V30 632 C 60.348 1.83874 3.09384 0
M  V30 633 C 59.956 3.34566 2.97943 0
M  V30 634 C 61.7 1.74734 3.8687 0
M  V30 635 C 59.607 4.05381 4.30605 0
M  V30 636 H 58.537 0.391039 0.644674 0
M  V30 637 H 61.188 1.47013 1.09815 0
M  V30 638 H 59.57 1.35131 3.72231 0
M  V30 639 H 60.744 3.90767 2.44209 0
M  V30 640 H 59.059 3.44476 2.33934 0
M  V30 641 H 61.656 2.24957 4.85076 0
M  V30 642 H 61.999 0.709372 4.10212 0
M  V30 643 H 62.532 2.21067 3.30717 0
M  V30 644 H 59.271 5.09467 4.1246 0
M  V30 645 H 58.791 3.53967 4.84218 0
M  V30 646 H 60.47 4.11458 4.99311 0
M  V30 647 N 60.6021 -1.18246 1.0419 0
M  V30 648 C 61.8271 -1.92736 0.765996 0
M  V30 649 C 62.2521 -1.75728 -0.67091 0
M  V30 650 O 61.6101 -1.06825 -1.46486 0
M  V30 651 C 61.6581 -3.42148 1.13875 0
M  V30 652 O 60.7621 -4.11548 0.264954 0
M  V30 653 H 60.1031 -0.601238 0.281797 0
M  V30 654 H 62.6331 -1.49942 1.39207 0
M  V30 655 H 62.6431 -3.92858 1.1012 0
M  V30 656 H 61.3181 -3.53848 2.18551 0
M  V30 657 H 59.8951 -3.71137 0.362226 0
M  V30 658 N 62.0802 -0.821533 -1.34494 0
M  V30 659 C 62.9902 -0.244355 -2.33324 0
M  V30 660 C 64.0062 0.620527 -1.62559 0
M  V30 661 O 65.1822 0.528754 -1.94335 0
M  V30 662 C 62.2472 0.585368 -3.41723 0
M  V30 663 C 61.3082 -0.301752 -4.28238 0
M  V30 664 C 60.5412 0.488466 -5.3146 0
M  V30 665 O 60.7642 1.72186 -5.4379 0
M  V30 666 O 59.6982 -0.12848 -6.01763 0
M  V30 667 H 63.5242 -1.06231 -2.84515 0
M  V30 668 H 61.1092 -0.583645 -1.37528 0
M  V30 669 H 62.9912 1.05747 -4.07916 0
M  V30 670 H 61.6662 1.38068 -2.92778 0
M  V30 671 H 60.5732 -0.821315 -3.64973 0
M  V30 672 H 61.9062 -1.06138 -4.8062 0
M  V30 673 N 63.5583 1.46682 -0.576371 0
M  V30 674 C 64.9743 1.57822 -0.237562 0
M  V30 675 C 65.1743 1.57237 1.26011 0
M  V30 676 O 64.2303 1.48596 2.04146 0
M  V30 677 C 65.5433 2.87499 -0.881168 0
M  V30 678 C 67.0913 3.01119 -0.85417 0
M  V30 679 C 67.5663 4.33524 -1.4772 0
M  V30 680 N 69.0573 4.40207 -1.44125 0
M  V30 681 C 69.7923 5.4126 -1.89276 0
M  V30 682 N 69.2883 6.49021 -2.42371 0
M  V30 683 N 71.0813 5.32422 -1.80231 0
M  V30 684 H 63.2323 1.45306 -1.54919 0
M  V30 685 H 65.4953 0.692733 -0.647167 0
M  V30 686 H 65.2013 2.9372 -1.93447 0
M  V30 687 H 65.0753 3.75224 -0.385592 0
M  V30 688 H 67.4623 2.94485 0.190491 0
M  V30 689 H 67.5433 2.14887 -1.3877 0
M  V30 690 H 67.1873 4.40916 -2.52103 0
M  V30 691 H 67.1173 5.1852 -0.918947 0
M  V30 692 H 69.6083 3.62931 -1.05307 0
M  V30 693 H 69.9213 7.2233 -2.74698 0
M  V30 694 H 68.2663 6.49858 -2.46393 0
M  V30 695 H 71.4573 4.47137 -1.38514 0
M  V30 696 H 71.6303 6.11034 -2.15735 0
M  V30 697 N 65.0364 0.313813 1.54444 0
M  V30 698 C 66.4524 -0.0391619 1.59552 0
M  V30 699 C 66.6524 -1.51322 1.33056 0
M  V30 700 O 65.7084 -2.26782 1.11022 0
M  V30 701 C 67.0214 0.370302 2.98411 0
M  V30 702 C 68.5694 0.320139 3.11358 0
M  V30 703 C 69.0444 0.704617 4.52547 0
M  V30 704 N 70.5354 0.657645 4.58508 0
M  V30 705 C 71.2704 0.927453 5.6585 0
M  V30 706 N 70.7664 1.26389 6.81174 0
M  V30 707 N 72.5594 0.853662 5.5558 0
M  V30 708 H 64.7104 1.27433 1.69925 0
M  V30 709 H 66.9734 0.517511 0.794284 0
M  V30 710 H 66.6794 1.39694 3.22767 0
M  V30 711 H 66.5534 -0.269619 3.76235 0
M  V30 712 H 68.9404 -0.697275 2.86744 0
M  V30 713 H 69.0214 0.99486 2.35661 0
M  V30 714 H 68.6654 1.7199 4.77893 0
M  V30 715 H 68.5954 0.00768843 5.26599 0
M  V30 716 H 71.0864 0.409067 3.75679 0
M  V30 717 H 71.3994 1.4554 7.58972 0
M  V30 718 H 69.7444 1.30206 6.82694 0
M  V30 719 H 72.9354 0.590383 4.64362 0
M  V30 720 H 73.1084 1.0673 6.3915 0
M  V30 721 N 66.5145 -1.57545 0.0417849 0
M  V30 722 C 67.7635 -1.91494 -0.633492 0
M  V30 723 C 68.0765 -0.921084 -1.72556 0
M  V30 724 O 69.2825 -1.15228 -2.45835 0
M  V30 725 C 67.7385 -3.40072 -1.17808 0
M  V30 726 C 67.3465 -4.47843 -0.118633 0
M  V30 727 C 69.0905 -3.8307 -1.82915 0
M  V30 728 C 66.9975 -5.87529 -0.675578 0
M  V30 729 H 65.9275 -0.714653 -0.24039 0
M  V30 730 H 68.5785 -1.83175 0.109148 0
M  V30 731 H 66.9605 -3.43364 -1.97274 0
M  V30 732 H 68.1345 -4.56128 0.654494 0
M  V30 733 H 66.4495 -4.14128 0.434414 0
M  V30 734 H 69.0465 -4.84794 -2.25563 0
M  V30 735 H 69.3895 -3.1881 -2.67705 0
M  V30 736 H 69.9225 -3.82255 -1.10119 0
M  V30 737 H 66.6615 -6.55362 0.134475 0
M  V30 738 H 66.1815 -5.82824 -1.4169 0
M  V30 739 H 67.8605 -6.36491 -1.1614 0
M  V30 740 N 67.9926 0.231505 -1.5589 0
M  V30 741 C 69.2386 0.95877 -1.78705 0
M  V30 742 C 69.5716 1.8438 -0.609725 0
M  V30 743 O 68.8466 1.90521 0.391426 0
M  V30 744 C 69.1296 1.8062 -3.11526 0
M  V30 745 C 68.9826 0.948328 -4.39689 0
M  V30 746 C 70.3016 2.78585 -3.40703 0
M  V30 747 H 67.4206 0.347129 -0.650131 0
M  V30 748 H 70.0626 0.228259 -1.88624 0
M  V30 749 H 68.2126 2.42902 -3.03201 0
M  V30 750 H 69.8846 0.343016 -4.60023 0
M  V30 751 H 68.1276 0.253314 -4.3306 0
M  V30 752 H 68.7986 1.57543 -5.29041 0
M  V30 753 H 71.2746 2.26439 -3.49091 0
M  V30 754 H 70.1506 3.34988 -4.34826 0
M  V30 755 H 70.4116 3.55825 -2.62375 0
M  V30 756 N 69.4707 1.49531 0.497807 0
M  V30 757 C 70.6987 1.62893 1.27567 0
M  V30 758 C 71.1137 0.301585 1.86376 0
M  V30 759 O 70.4707 -0.713335 1.67982 0
M  V30 760 C 70.5217 2.70013 2.40364 0
M  V30 761 O 70.2427 3.976 1.83972 0
M  V30 762 C 71.7437 2.94109 3.31685 0
M  V30 763 H 68.9637 0.548298 0.386794 0
M  V30 764 H 71.5077 1.95584 0.597245 0
M  V30 765 H 69.6627 2.40092 3.04031 0
M  V30 766 H 70.0767 4.56631 2.58047 0
M  V30 767 H 71.5507 3.72788 4.07104 0
M  V30 768 H 72.0277 2.04147 3.88871 0
M  V30 769 H 72.6337 3.2546 2.73781 0
M  V30 770 N 70.9488 -0.749086 1.3866 0
M  V30 771 C 71.8808 -1.87273 1.32142 0
M  V30 772 C 72.8938 -1.61127 0.232787 0
M  V30 773 O 74.0828 -1.71623 0.49069 0
M  V30 774 C 71.1828 -3.23005 1.02571 0
M  V30 775 C 70.3558 -3.7662 2.22433 0
M  V30 776 C 69.4148 -4.90879 1.89537 0
M  V30 777 O 68.4408 -5.05276 2.62078 0
M  V30 778 N 69.6428 -5.74198 0.853031 0
M  V30 779 H 72.4078 -1.93373 2.28969 0
M  V30 780 H 69.9688 -0.929216 1.32579 0
M  V30 781 H 71.9608 -3.96992 0.786085 0
M  V30 782 H 70.5308 -3.12262 0.145249 0
M  V30 783 H 69.7508 -2.94147 2.62434 0
M  V30 784 H 71.0388 -4.09173 3.02415 0
M  V30 785 H 70.4368 -5.6514 0.25155 0
M  V30 786 H 68.9938 -6.48313 0.67329 0
M  V30 787 N 72.4269 -1.23603 -0.977757 0
M  V30 788 C 73.3369 -1.03632 -2.1047 0
M  V30 789 C 74.3529 0.0199435 -1.73989 0
M  V30 790 O 75.5289 -0.176076 -2.00629 0
M  V30 791 C 72.5939 -0.63276 -3.40877 0
M  V30 792 C 71.6549 -1.76437 -3.91367 0
M  V30 793 C 70.8879 -1.37997 -5.15551 0
M  V30 794 O 71.1109 -0.265357 -5.69782 0
M  V30 795 O 70.0449 -2.20201 -5.60174 0
M  V30 796 H 73.8709 -1.98086 -2.30208 0
M  V30 797 H 71.4559 -1.02332 -1.08851 0
M  V30 798 H 73.3379 -0.418761 -4.19314 0
M  V30 799 H 72.0129 0.282754 -3.22463 0
M  V30 800 H 70.9199 -2.03304 -3.14036 0
M  V30 801 H 72.2529 -2.6583 -4.14241 0
M  V30 802 N 73.905 1.17692 -1.04816 0
M  V30 803 C 74.853 2.23632 -0.63966 0
M  V30 804 C 75.847 1.6601 0.337219 0
M  V30 805 O 77.053 1.78844 0.203693 0
M  V30 806 H 73.428 0.727949 -0.188665 0
M  V30 807 H 75.399 2.55387 -1.54337 0
M  V30 808 C 74.148 3.4769 -0.0264051 0
M  V30 809 H 73.471 3.92331 -0.769164 0
M  V30 810 H 74.911 4.23418 0.222098 0
M  V30 811 C 73.37 3.13807 1.22584 0
M  V30 812 O 73.9 3.28236 2.31569 0
M  V30 813 N 72.106 2.68065 1.12202 0
M  V30 814 H 71.653 2.56525 0.235133 0
M  V30 815 H 71.611 2.45767 1.96076 0
M  V30 816 N 75.3831 0.828654 1.34056 0
M  V30 817 C 76.6111 0.43262 2.02326 0
M  V30 818 C 77.0261 -0.963147 1.62385 0
M  V30 819 O 76.3831 -1.62425 0.832121 0
M  V30 820 C 76.4341 0.53182 3.57567 0
M  V30 821 O 76.1551 1.87258 3.96063 0
M  V30 822 C 77.6561 0.131422 4.43105 0
M  V30 823 H 74.8761 0.172923 0.648335 0
M  V30 824 H 77.4201 1.1184 1.71208 0
M  V30 825 H 75.5751 -0.105938 3.87255 0
M  V30 826 H 75.9891 1.85087 4.90758 0
M  V30 827 H 77.4631 0.251904 5.51425 0
M  V30 828 H 77.9401 -0.925645 4.29335 0
M  V30 829 H 78.5461 0.743207 4.18756 0
M  V30 830 N 76.8612 -1.46375 0.584142 0
M  V30 831 C 78.0862 -2.07268 0.0740405 0
M  V30 832 C 78.5112 -1.42979 -1.22223 0
M  V30 833 O 77.8692 -0.514092 -1.73859 0
M  V30 834 C 77.9172 -3.60518 -0.0767769 0
M  V30 835 O 77.0212 -3.96533 -1.13292 0
M  V30 836 H 76.3622 -0.660961 0.0634524 0
M  V30 837 H 78.8922 -1.87991 0.807492 0
M  V30 838 H 78.9022 -4.07021 -0.282489 0
M  V30 839 H 77.5772 -4.06702 0.86986 0
M  V30 840 H 76.1542 -3.61738 -0.905553 0
M  V30 841 N 78.3393 -0.321999 -1.54275 0
M  V30 842 C 79.6163 0.335232 -1.92706 0
M  V30 843 C 79.9963 1.70006 -1.25145 0
M  V30 844 O 79.3443 2.25067 -0.394596 0
M  V30 845 C 79.5543 0.429008 -3.46353 0
M  V30 846 C 80.9023 0.690029 -4.18956 0
M  V30 847 O 81.9263 0.511992 -3.52501 0
M  V30 848 O 80.7853 1.03338 -5.36641 0
M  V30 849 H 77.8793 0.191143 -0.804608 0
M  V30 850 H 80.4253 -0.3716 -1.65581 0
M  V30 851 H 79.1973 -0.529611 -3.87699 0
M  V30 852 H 78.8203 1.18348 -3.79578 0
M  V30 853 N 79.8174 1.5752 -0.0501392 0
M  V30 854 C 80.7474 2.14502 0.922566 0
M  V30 855 C 81.7284 1.06642 1.3252 0
M  V30 856 O 82.9134 1.34577 1.4001 0
M  V30 857 C 80.0434 2.68916 2.19776 0
M  V30 858 C 78.9974 3.8175 1.93523 0
M  V30 859 C 78.3234 4.22677 3.27487 0
M  V30 860 C 79.6234 5.06932 1.25765 0
M  V30 861 H 81.3174 2.9603 0.447952 0
M  V30 862 H 78.8634 1.42401 0.214024 0
M  V30 863 H 80.8164 3.07419 2.88222 0
M  V30 864 H 79.5404 1.84578 2.69441 0
M  V30 865 H 78.1994 3.43718 1.27489 0
M  V30 866 H 77.8474 3.35291 3.74952 0
M  V30 867 H 77.5474 4.98725 3.1072 0
M  V30 868 H 79.0714 4.63779 3.97166 0
M  V30 869 H 80.4854 5.42888 1.84244 0
M  V30 870 H 78.8824 5.88116 1.19328 0
M  V30 871 H 79.9524 4.84337 0.233536 0
M  V30 872 N 81.2955 -0.223234 1.56011 0
M  V30 873 C 82.5355 -0.954962 1.8072 0
M  V30 874 C 82.8995 -1.81598 0.623384 0
M  V30 875 O 84.1005 -2.58132 0.749745 0
M  V30 876 C 82.3715 -1.77313 3.10314 0
M  V30 877 S 83.9305 -2.56073 3.56332 0
M  V30 878 H 80.7485 -0.320812 0.634508 0
M  V30 879 H 83.3505 -0.220686 1.9425 0
M  V30 880 H 82.0545 -1.13071 3.94516 0
M  V30 881 H 81.5855 -2.54974 2.99586 0
M  V30 882 H 83.6005 -3.79619 3.19536 0
M  V30 883 N 82.7736 -1.49793 -0.48987 0
M  V30 884 C 83.7236 -1.63673 -1.5873 0
M  V30 885 C 84.7076 -0.491956 -1.53195 0
M  V30 886 O 85.8996 -0.745461 -1.60536 0
M  V30 887 C 83.0286 -1.71689 -2.97284 0
M  V30 888 C 82.1146 -2.91781 -3.07774 0
M  V30 889 N 82.5056 -4.15714 -2.88124 0
M  V30 890 C 80.8036 -2.89949 -3.38889 0
M  V30 891 C 81.5046 -4.965 -3.03088 0
M  V30 892 N 80.4806 -4.30083 -3.3246 0
M  V30 893 H 84.2826 -2.57204 -1.42208 0
M  V30 894 H 81.7966 -1.46719 -0.69623 0
M  V30 895 H 83.7936 -1.79732 -3.76168 0
M  V30 896 H 82.4536 -0.793024 -3.14867 0
M  V30 897 H 83.4646 -4.45515 -2.64077 0
M  V30 898 H 80.1416 -2.06987 -3.62578 0
M  V30 899 H 81.5316 -6.04991 -2.92294 0
M  V30 900 N 84.2517 0.741722 -1.39055 0
M  V30 901 C 85.1837 1.8657 -1.33133 0
M  V30 902 C 86.1967 1.61001 -0.241329 0
M  V30 903 O 87.3857 1.7136 -0.499784 0
M  V30 904 C 84.4857 3.22457 -1.04283 0
M  V30 905 C 83.6587 3.75435 -2.24427 0
M  V30 906 C 82.7177 4.89867 -1.92138 0
M  V30 907 O 81.7437 5.03879 -2.64754 0
M  V30 908 N 82.9457 5.73738 -0.88347 0
M  V30 909 H 85.7107 1.92156 -2.29991 0
M  V30 910 H 83.2717 0.922172 -1.3307 0
M  V30 911 H 85.2637 3.9657 -0.807128 0
M  V30 912 H 83.8337 3.12181 -0.161807 0
M  V30 913 H 83.0537 2.92751 -2.6399 0
M  V30 914 H 84.3417 4.07563 -3.04581 0
M  V30 915 H 83.7397 5.64999 -0.281517 0
M  V30 916 H 82.2967 6.47947 -0.707662 0
M  V30 917 N 85.7298 1.2412 0.971189 0
M  V30 918 C 86.9758 1.08041 1.71625 0
M  V30 919 C 87.3088 -0.380407 1.90438 0
M  V30 920 O 86.5838 -1.28127 1.46334 0
M  V30 921 C 86.8668 1.81682 3.10908 0
M  V30 922 C 86.7198 3.35493 2.99608 0
M  V30 923 C 88.0388 1.58671 4.10501 0
M  V30 924 H 85.1578 0.39388 0.622919 0
M  V30 925 H 87.7998 1.52743 1.13003 0
M  V30 926 H 85.9498 1.43684 3.60953 0
M  V30 927 H 87.6218 3.83068 2.57015 0
M  V30 928 H 85.8648 3.64052 2.35899 0
M  V30 929 H 86.5358 3.82217 3.98264 0
M  V30 930 H 89.0118 1.91719 3.69301 0
M  V30 931 H 87.8878 2.1266 5.06031 0
M  V30 932 H 88.1488 0.524161 4.38982 0
M  V30 933 N 87.2079 -1.17134 1.05439 0
M  V30 934 C 88.1709 -2.19439 0.661764 0
M  V30 935 C 89.1709 -1.58199 -0.288042 0
M  V30 936 O 90.3609 -1.74053 -0.0715803 0
M  V30 937 C 87.4929 -3.40889 -0.0276209 0
M  V30 938 H 88.6859 -2.55688 1.56728 0
M  V30 939 H 86.2389 -1.31259 0.848567 0
M  V30 940 H 86.9739 -3.10187 -0.94629 0
M  V30 941 H 86.7589 -3.86586 0.655238 0
M  V30 942 H 88.2489 -4.16603 -0.288342 0
M  V30 943 N 88.686 -0.835752 -1.33615 0
M  V30 944 C 89.633 -0.26473 -2.29277 0
M  V30 945 C 90.603 0.617712 -1.54187 0
M  V30 946 O 91.788 0.556641 -1.825 0
M  V30 947 C 88.928 0.556777 -3.40579 0
M  V30 948 C 88.041 -0.349339 -4.30585 0
M  V30 949 C 87.176 0.482969 -5.29 0
M  V30 950 C 86.215 -0.421732 -6.10645 0
M  V30 951 N 85.352 0.372262 -7.01112 0
M  V30 952 H 90.192 -1.08582 -2.77514 0
M  V30 953 H 87.729 -0.546927 -1.36554 0
M  V30 954 H 89.687 1.04852 -4.03809 0
M  V30 955 H 88.317 1.34286 -2.93542 0
M  V30 956 H 87.369 -0.959372 -3.68104 0
M  V30 957 H 88.681 -1.04445 -4.87742 0
M  V30 958 H 87.835 1.03866 -5.97743 0
M  V30 959 H 86.574 1.21153 -4.72412 0
M  V30 960 H 85.579 -0.989464 -5.40823 0
M  V30 961 H 86.804 -1.14861 -6.69316 0
M  V30 962 H 84.75 1.08426 -6.46977 0
M  V30 963 H 84.667 -0.264198 -7.55538 0
M  V30 964 H 85.935 0.910293 -7.74167 0
M  V30 965 N 90.1641 1.46063 -0.591896 0
M  V30 966 C 91.0961 2.28539 0.174001 0
M  V30 967 C 92.1091 1.39047 0.846753 0
M  V30 968 O 93.2981 1.63564 0.714774 0
M  V30 969 C 90.3981 3.14347 1.26645 0
M  V30 970 C 89.5711 4.32021 0.683856 0
M  V30 971 C 88.6301 4.99157 1.66518 0
M  V30 972 O 87.6561 5.56458 1.19763 0
M  V30 973 N 88.8581 4.97005 2.99943 0
M  V30 974 H 91.6231 2.94911 -0.533633 0
M  V30 975 H 89.1841 1.56077 -0.430294 0
M  V30 976 H 91.1761 3.56125 1.92242 0
M  V30 977 H 89.7461 2.49988 1.87682 0
M  V30 978 H 88.9661 3.93915 -0.1498 0
M  V30 979 H 90.2541 5.08059 0.274567 0
M  V30 980 H 89.6521 4.51714 3.40545 0
M  V30 981 H 88.2091 5.42696 3.61004 0
M  V30 982 N 91.6422 0.330177 1.54103 0
M  V30 983 C 92.5722 -0.525353 2.27513 0
M  V30 984 C 93.5532 -1.11383 1.2856 0
M  V30 985 O 94.7382 -1.13773 1.57383 0
M  V30 986 C 91.8682 -1.6831 3.03791 0
M  V30 987 C 90.8222 -1.2236 4.10137 0
M  V30 988 C 90.1482 -2.46882 4.74293 0
M  V30 989 C 91.4482 -0.333697 5.21233 0
M  V30 990 H 93.1422 0.087013 2.99274 0
M  V30 991 H 90.6882 0.0432893 1.43935 0
M  V30 992 H 92.6412 -2.28795 3.5388 0
M  V30 993 H 91.3652 -2.32216 2.29659 0
M  V30 994 H 90.0242 -0.64165 3.60941 0
M  V30 995 H 89.6722 -3.09165 3.96769 0
M  V30 996 H 89.3722 -2.16825 5.46133 0
M  V30 997 H 90.8962 -3.08117 5.27159 0
M  V30 998 H 92.3102 -0.845013 5.67038 0
M  V30 999 H 90.7072 -0.125612 5.99969 0
M  V30 1000 H 91.7772 0.633724 4.80741 0
M  V30 1001 N 93.1203 -1.57491 0.0584922 0
M  V30 1002 C 94.0503 -2.14988 -0.911178 0
M  V30 1003 C 95.0313 -1.07343 -1.31952 0
M  V30 1004 O 96.2163 -1.35318 -1.39294 0
M  V30 1005 C 93.3463 -2.70078 -2.18347 0
M  V30 1006 C 92.3003 -3.82771 -1.91495 0
M  V30 1007 C 91.6263 -4.24408 -3.25241 0
M  V30 1008 C 92.9263 -5.07592 -1.23075 0
M  V30 1009 H 94.6203 -2.96263 -0.432246 0
M  V30 1010 H 92.1663 -1.42512 -0.206469 0
M  V30 1011 H 94.1193 -3.08943 -2.86587 0
M  V30 1012 H 92.8433 -1.86005 -2.68458 0
M  V30 1013 H 91.5023 -3.44389 -1.25664 0
M  V30 1014 H 91.1503 -3.37275 -3.73168 0
M  V30 1015 H 90.8503 -5.00366 -3.08071 0
M  V30 1016 H 92.3743 -4.65879 -3.94701 0
M  V30 1017 H 93.7883 -5.43857 -1.81362 0
M  V30 1018 H 92.1853 -5.88741 -1.16207 0
M  V30 1019 H 93.2553 -4.84454 -0.207847 0
M  V30 1020 N 94.5984 0.214957 -1.56127 0
M  V30 1021 C 95.5084 1.28727 -1.96129 0
M  V30 1022 C 96.5244 1.50916 -0.866044 0
M  V30 1023 O 97.7004 1.63918 -1.17016 0
M  V30 1024 C 94.7654 2.61569 -2.27558 0
M  V30 1025 C 93.8264 2.47625 -3.50685 0
M  V30 1026 C 93.0594 3.74132 -3.80606 0
M  V30 1027 O 93.2824 4.77438 -3.12104 0
M  V30 1028 O 92.2164 3.70849 -4.74083 0
M  V30 1029 H 96.0424 0.977855 -2.87527 0
M  V30 1030 H 93.6274 0.418358 -1.43423 0
M  V30 1031 H 95.5094 3.40012 -2.48938 0
M  V30 1032 H 94.1844 2.92178 -1.39332 0
M  V30 1033 H 93.0914 1.67361 -3.34576 0
M  V30 1034 H 94.4244 2.21954 -4.39315 0
M  V30 1035 N 96.0765 1.50051 0.48192 0
M  V30 1036 C 97.0235 1.68122 1.58125 0
M  V30 1037 C 97.9935 0.522545 1.57666 0
M  V30 1038 O 99.1785 0.751844 1.75362 0
M  V30 1039 C 96.3185 1.77142 2.96167 0
M  V30 1040 C 95.4315 3.0444 3.06497 0
M  V30 1041 C 94.5665 3.04321 4.35387 0
M  V30 1042 C 93.6055 4.26118 4.3942 0
M  V30 1043 N 92.7425 4.238 5.59766 0
M  V30 1044 H 97.5825 2.6198 1.42022 0
M  V30 1045 H 95.1195 1.29877 0.690687 0
M  V30 1046 H 97.0775 1.80352 3.76203 0
M  V30 1047 H 95.7075 0.867329 3.1093 0
M  V30 1048 H 94.7595 3.10752 2.19402 0
M  V30 1049 H 96.0715 3.94426 3.05336 0
M  V30 1050 H 95.2255 3.062 5.23762 0
M  V30 1051 H 93.9645 2.12147 4.39141 0
M  V30 1052 H 92.9695 4.24463 3.49444 0
M  V30 1053 H 94.1945 5.19507 4.37366 0
M  V30 1054 H 92.1405 3.34474 5.64326 0
M  V30 1055 H 92.0575 5.07542 5.60301 0
M  V30 1056 H 93.3255 4.2981 6.50295 0
M  V30 1057 N 97.5546 -0.734337 1.39446 0
M  V30 1058 C 98.7796 -1.52866 1.40167 0
M  V30 1059 C 99.2046 -1.881 -0.00171513 0
M  V30 1060 O 98.5626 -1.51957 -0.988879 0
M  V30 1061 C 98.6106 -2.79235 2.28167 0
M  V30 1062 O 97.7146 -3.75185 1.71201 0
M  V30 1063 H 97.0556 -0.461618 0.477289 0
M  V30 1064 H 99.5856 -0.905949 1.8345 0
M  V30 1065 H 99.5956 -3.27963 2.42702 0
M  V30 1066 H 98.2706 -2.52923 3.30156 0
M  V30 1067 H 96.8476 -3.33958 1.65912 0
M  V30 1068 N 99.0327 -1.24633 -0.964593 0
M  V30 1069 C 100.281 -1.08573 -1.70459 0
M  V30 1070 C 100.602 0.375655 -1.91347 0
M  V30 1071 O 99.8717 1.26779 -1.49345 0
M  V30 1072 H 98.4517 -0.398784 -0.631649 0
M  V30 1073 H 101.114 -1.56601 -1.16026 0
M  V30 1074 H 100.21 -1.58623 -2.68785 0
M  V30 1075 N 100.511 1.16574 -1.06058 0
M  V30 1076 C 101.458 2.20883 -0.669263 0
M  V30 1077 C 102.428 1.62729 0.332918 0
M  V30 1078 O 103.613 1.895 0.222346 0
M  V30 1079 C 100.753 3.45049 -0.0593572 0
M  V30 1080 C 99.8658 4.17458 -1.11143 0
M  V30 1081 C 99.0008 5.29135 -0.467916 0
M  V30 1082 C 98.0398 5.93343 -1.50369 0
M  V30 1083 N 97.1768 6.96516 -0.883706 0
M  V30 1084 H 102.017 2.53709 -1.5632 0
M  V30 1085 H 99.5538 1.24616 -0.781625 0
M  V30 1086 H 101.512 4.16033 0.311771 0
M  V30 1087 H 100.142 3.12781 0.797992 0
M  V30 1088 H 99.1938 3.45101 -1.60029 0
M  V30 1089 H 100.506 4.61307 -1.89731 0
M  V30 1090 H 99.6598 6.06684 -0.0436871 0
M  V30 1091 H 98.3988 4.86443 0.349864 0
M  V30 1092 H 97.4038 5.14517 -1.93784 0
M  V30 1093 H 98.6288 6.38114 -2.32352 0
M  V30 1094 H 96.5748 6.55943 -0.086595 0
M  V30 1095 H 96.4918 7.38723 -1.607 0
M  V30 1096 H 97.7598 7.77993 -0.484543 0
M  V30 1097 N 101.989 0.842826 1.3317 0
M  V30 1098 C 102.921 0.236245 2.27979 0
M  V30 1099 C 103.934 -0.585282 1.51915 0
M  V30 1100 O 105.123 -0.411705 1.73687 0
M  V30 1101 C 102.223 -0.685717 3.3189 0
M  V30 1102 C 101.396 0.0973448 4.37292 0
M  V30 1103 C 100.455 -0.748565 5.20848 0
M  V30 1104 O 99.4809 -0.186339 5.68895 0
M  V30 1105 N 100.683 -2.06527 5.42519 0
M  V30 1106 H 103.448 1.05088 2.80672 0
M  V30 1107 H 101.009 0.701667 1.45905 0
M  V30 1108 H 103.001 -1.25669 3.84694 0
M  V30 1109 H 101.571 -1.40105 2.79445 0
M  V30 1110 H 100.791 0.849706 3.84933 0
M  V30 1111 H 102.079 0.635643 5.04814 0
M  V30 1112 H 101.477 -2.54554 5.05192 0
M  V30 1113 H 100.034 -2.58464 5.98364 0
M  V30 1114 N 103.467 -1.45747 0.599634 0
M  V30 1115 C 104.43 -2.28917 -0.113835 0
M  V30 1116 C 105.43 -1.3933 -0.802729 0
M  V30 1117 O 106.62 -1.61534 -0.652103 0
M  V30 1118 C 103.752 -3.20152 -1.17114 0
M  V30 1119 H 104.945 -2.93478 0.617289 0
M  V30 1120 H 102.498 -1.52137 0.358327 0
M  V30 1121 H 103.233 -2.60374 -1.93329 0
M  V30 1122 H 103.018 -3.86133 -0.681468 0
M  V30 1123 H 104.508 -3.82708 -1.67105 0
M  V30 1124 N 104.945 -0.338344 -1.53925 0
M  V30 1125 C 106.17 0.263987 -2.05713 0
M  V30 1126 C 106.595 1.43847 -1.21201 0
M  V30 1127 O 105.953 1.79904 -0.224535 0
M  V30 1128 C 106.001 0.662 -3.54471 0
M  V30 1129 O 105.105 1.76265 -3.72833 0
M  V30 1130 H 104.446 0.0448722 -0.662482 0
M  V30 1131 H 106.976 -0.491048 -1.9862 0
M  V30 1132 H 106.986 0.940594 -3.9701 0
M  V30 1133 H 105.661 -0.196937 -4.15433 0
M  V30 1134 H 104.238 1.48173 -3.42198 0
M  V30 1135 N 106.423 1.57458 -0.0668435 0
M  V30 1136 C 107.333 2.15937 0.916975 0
M  V30 1137 C 108.349 1.12123 1.33058 0
M  V30 1138 O 109.525 1.44366 1.40429 0
M  V30 1139 C 106.59 2.70547 2.16807 0
M  V30 1140 C 105.651 3.89215 1.81135 0
M  V30 1141 C 104.884 4.41211 3.0028 0
M  V30 1142 O 105.107 3.92225 4.14144 0
M  V30 1143 O 104.041 5.32605 2.80384 0
M  V30 1144 H 107.867 3.00354 0.449561 0
M  V30 1145 H 105.452 1.48584 0.155949 0
M  V30 1146 H 107.334 3.0557 2.90181 0
M  V30 1147 H 106.009 1.89192 2.62656 0
M  V30 1148 H 104.916 3.59054 1.05028 0
M  V30 1149 H 106.249 4.71848 1.40073 0
M  V30 1150 N 107.901 -0.206675 1.56239 0
M  V30 1151 C 109.15 -0.926964 1.79138 0
M  V30 1152 C 109.463 -1.84901 0.638043 0
M  V30 1153 O 110.669 -2.60906 0.751033 0
M  V30 1154 C 109.125 -1.6986 3.17294 0
M  V30 1155 C 108.733 -0.821956 4.40395 0
M  V30 1156 C 110.477 -2.40922 3.4951 0
M  V30 1157 C 108.384 -1.59179 5.69575 0
M  V30 1158 H 107.314 -0.349864 0.667915 0
M  V30 1159 H 109.965 -0.180487 1.8261 0
M  V30 1160 H 108.347 -2.48853 3.08039 0
M  V30 1161 H 109.521 -0.0715019 4.60745 0
M  V30 1162 H 107.836 -0.222741 4.15804 0
M  V30 1163 H 110.433 -2.99047 4.43255 0
M  V30 1164 H 110.776 -3.14542 2.72707 0
M  V30 1165 H 111.309 -1.68905 3.60161 0
M  V30 1166 H 108.048 -0.898589 6.49312 0
M  V30 1167 H 107.568 -2.31648 5.53262 0
M  V30 1168 H 109.247 -2.14862 6.10281 0
M  V30 1169 N 109.379 -1.50304 -0.473955 0
M  V30 1170 C 110.656 -1.51667 -1.23518 0
M  V30 1171 C 111.036 -0.259701 -2.09496 0
M  V30 1172 O 110.384 0.756986 -2.15597 0
M  V30 1173 C 110.594 -2.81082 -2.06868 0
M  V30 1174 C 111.942 -3.31631 -2.65153 0
M  V30 1175 O 112.966 -2.82384 -2.17113 0
M  V30 1176 O 111.825 -4.17471 -3.52675 0
M  V30 1177 H 108.919 -0.60822 -0.560355 0
M  V30 1178 H 111.465 -1.62592 -0.486011 0
M  V30 1179 H 110.237 -3.64041 -1.4349 0
M  V30 1180 H 109.86 -2.73146 -2.88924 0
M  V30 1181 N 110.857 0.726932 -1.39834 0
M  V30 1182 C 112.104 1.48664 -1.37496 0
M  V30 1183 C 112.432 1.94482 0.0264678 0
M  V30 1184 O 111.687 1.67692 1.00886 0
M  V30 1185 C 111.986 2.73495 -2.30077 0
M  V30 1186 C 111.652 2.46502 -3.77555 0
M  V30 1187 C 110.314 2.3885 -4.17737 0
M  V30 1188 C 112.666 2.23604 -4.70798 0
M  V30 1189 C 109.994 2.06352 -5.49214 0
M  V30 1190 C 112.346 1.92622 -6.02561 0
M  V30 1191 C 111.01 1.83444 -6.41798 0
M  V30 1192 H 110.28 0.544001 -0.503135 0
M  V30 1193 H 112.927 0.833657 -1.72402 0
M  V30 1194 H 111.232 3.43575 -1.88317 0
M  V30 1195 H 112.929 3.31549 -2.25558 0
M  V30 1196 H 109.519 2.5334 -3.45712 0
M  V30 1197 H 113.703 2.28479 -4.40581 0
M  V30 1198 H 108.959 1.97776 -5.78528 0
M  V30 1199 H 113.133 1.73914 -6.74334 0
M  V30 1200 H 110.76 1.58029 -7.43593 0
M  V30 1201 N 112.336 1.25143 0.95797 0
M  V30 1202 C 113.585 1.0909 1.69654 0
M  V30 1203 C 113.898 -0.368548 1.92097 0
M  V30 1204 O 115.104 -0.649455 2.63618 0
M  V30 1205 C 113.56 1.90395 3.05414 0
M  V30 1206 C 113.168 3.4081 2.90779 0
M  V30 1207 C 114.912 1.82901 3.83076 0
M  V30 1208 C 112.819 4.14423 4.21909 0
M  V30 1209 H 111.749 0.404625 0.636235 0
M  V30 1210 H 114.4 1.4931 1.06672 0
M  V30 1211 H 112.782 1.42996 3.69281 0
M  V30 1212 H 113.956 3.95859 2.35865 0
M  V30 1213 H 112.271 3.49361 2.26575 0
M  V30 1214 H 114.868 2.35196 4.80195 0
M  V30 1215 H 115.211 0.796224 4.08615 0
M  V30 1216 H 115.744 2.28033 3.25954 0
M  V30 1217 H 112.483 5.18102 4.01561 0
M  V30 1218 H 112.003 3.64159 4.76601 0
M  V30 1219 H 113.682 4.21956 4.90471 0
M  V30 1220 N 113.814 -1.1601 1.06675 0
M  V30 1221 C 114.744 -2.22688 0.702307 0
M  V30 1222 C 115.725 -1.67306 -0.307032 0
M  V30 1223 O 116.91 -1.93352 -0.181305 0
M  V30 1224 C 114.04 -3.47178 0.092038 0
M  V30 1225 C 112.994 -4.15477 1.02777 0
M  V30 1226 C 112.32 -5.33963 0.28061 0
M  V30 1227 C 113.62 -4.66019 2.35846 0
M  V30 1228 H 115.314 -2.53429 1.59419 0
M  V30 1229 H 112.86 -1.21813 0.767961 0
M  V30 1230 H 114.813 -4.21037 -0.174814 0
M  V30 1231 H 113.537 -3.15749 -0.834877 0
M  V30 1232 H 112.196 -3.43549 1.27944 0
M  V30 1233 H 111.844 -4.98788 -0.649545 0
M  V30 1234 H 111.544 -5.806 0.904258 0
M  V30 1235 H 113.068 -6.10596 0.021396 0
M  V30 1236 H 114.482 -5.3144 2.15045 0
M  V30 1237 H 112.879 -5.23293 2.93743 0
M  V30 1238 H 113.949 -3.82023 2.98641 0
M  V30 1239 N 115.292 -0.849877 -1.32721 0
M  V30 1240 C 116.538 -0.451591 -1.97708 0
M  V30 1241 C 116.871 0.989175 -1.6712 0
M  V30 1242 O 116.146 1.69334 -0.956891 0
M  V30 1243 C 116.429 -0.685598 -3.53513 0
M  V30 1244 C 116.282 -2.17444 -3.93749 0
M  V30 1245 C 117.601 -0.138874 -4.39881 0
M  V30 1246 H 114.72 -0.16555 -0.718166 0
M  V30 1247 H 117.362 -1.06742 -1.57182 0
M  V30 1248 H 115.512 -0.161416 -3.88165 0
M  V30 1249 H 117.184 -2.76433 -3.693 0
M  V30 1250 H 115.427 -2.65476 -3.43081 0
M  V30 1251 H 116.098 -2.28888 -5.02309 0
M  V30 1252 H 118.574 -0.587068 -4.11938 0
M  V30 1253 H 117.45 -0.332213 -5.47894 0
M  V30 1254 H 117.711 0.95806 -4.31594 0
M  V30 1255 N 116.77 1.45427 -0.607355 0
M  V30 1256 C 117.733 2.28974 0.101693 0
M  V30 1257 C 118.733 1.39754 0.795329 0
M  V30 1258 O 119.923 1.61878 0.643527 0
M  V30 1259 C 117.055 3.20768 1.15414 0
M  V30 1260 H 118.248 2.93147 -0.632844 0
M  V30 1261 H 115.801 1.51945 -0.366391 0
M  V30 1262 H 116.536 2.61395 1.91945 0
M  V30 1263 H 116.321 3.86489 0.66098 0
M  V30 1264 H 117.811 3.83589 1.65073 0
M  V30 1265 N 118.248 0.346503 1.53744 0
M  V30 1266 C 119.476 -0.25041 2.05379 0
M  V30 1267 C 119.891 -1.43979 1.22129 0
M  V30 1268 O 119.248 -1.80677 0.257321 0
M  V30 1269 C 119.299 -0.662575 3.55376 0
M  V30 1270 O 119.02 0.479515 4.35468 0
M  V30 1271 C 120.521 -1.31989 4.23195 0
M  V30 1272 H 117.741 -0.0478198 0.669294 0
M  V30 1273 H 120.285 0.499346 1.9831 0
M  V30 1274 H 118.44 -1.36227 3.62658 0
M  V30 1275 H 118.854 0.15037 5.24284 0
M  V30 1276 H 120.328 -1.55902 5.29527 0
M  V30 1277 H 120.805 -2.27436 3.75725 0
M  V30 1278 H 121.411 -0.662154 4.20114 0
M  V30 1279 N 119.726 -1.57421 0.075193 0
M  V30 1280 C 120.972 -1.93905 -0.594025 0
M  V30 1281 C 121.305 -0.955701 -1.69056 0
M  V30 1282 O 120.58 0.0145373 -1.94495 0
M  V30 1283 C 120.863 -3.40638 -1.1678 0
M  V30 1284 C 120.716 -4.49733 -0.0776792 0
M  V30 1285 C 122.035 -3.88259 -2.07228 0
M  V30 1286 H 119.154 -0.705105 -0.214466 0
M  V30 1287 H 121.796 -1.8947 0.141854 0
M  V30 1288 H 119.946 -3.44549 -1.79494 0
M  V30 1289 H 121.618 -4.57942 0.555573 0
M  V30 1290 H 119.861 -4.29751 0.591286 0
M  V30 1291 H 120.532 -5.49549 -0.519603 0
M  V30 1292 H 123.008 -3.86376 -1.54445 0
M  V30 1293 H 121.884 -4.91533 -2.44308 0
M  V30 1294 H 122.145 -3.26396 -2.98191 0
M  V30 1295 N 121.204 0.198386 -1.56346 0
M  V30 1296 C 122.432 0.935572 -1.84539 0
M  V30 1297 C 122.847 1.76989 -0.657281 0
M  V30 1298 O 122.204 1.78626 0.374043 0
M  V30 1299 C 122.255 1.8344 -3.11499 0
M  V30 1300 O 121.976 1.03377 -4.25728 0
M  V30 1301 C 123.477 2.68355 -3.52846 0
M  V30 1302 H 120.697 0.273126 -0.612897 0
M  V30 1303 H 123.241 0.20663 -2.03453 0
M  V30 1304 H 121.396 2.51701 -2.94492 0
M  V30 1305 H 121.81 1.64599 -4.98003 0
M  V30 1306 H 123.284 3.27085 -4.44657 0
M  V30 1307 H 123.761 3.41901 -2.75681 0
M  V30 1308 H 124.367 2.05471 -3.72373 0
M  V30 1309 N 122.682 1.50554 0.465978 0
M  V30 1310 C 124.093 1.54599 1.04671 0
M  V30 1311 C 124.444 0.352488 1.93008 0
M  V30 1312 O 123.569 -0.534044 2.09707 0
M  V30 1313 C 124.164 2.80166 1.90505 0
M  V30 1314 C 122.723 2.86876 2.43678 0
M  V30 1315 C 121.87 2.48947 1.22151 0
M  V30 1316 H 124.821 1.56744 0.248384 0
M  V30 1317 H 124.842 2.62311 2.75633 0
M  V30 1318 H 124.354 3.67013 1.26186 0
M  V30 1319 H 122.455 2.04393 3.11536 0
M  V30 1320 H 122.568 3.89885 2.78436 0
M  V30 1321 H 120.932 2.01498 1.5579 0
M  V30 1322 H 121.715 3.38107 0.594866 0
M  V30 1323 N 124.16 -0.719506 1.40217 0
M  V30 1324 C 125.437 -1.47221 1.28784 0
M  V30 1325 C 125.817 -2.10883 -0.0956067 0
M  V30 1326 O 125.165 -1.99833 -1.10811 0
M  V30 1327 C 125.375 -2.5111 2.42373 0
M  V30 1328 C 126.723 -3.17053 2.82423 0
M  V30 1329 O 127.747 -2.61429 2.41937 0
M  V30 1330 O 126.606 -4.17742 3.52355 0
M  V30 1331 H 123.7 -0.654491 0.50554 0
M  V30 1332 H 126.246 -0.752014 1.52128 0
M  V30 1333 H 125.018 -2.02556 3.34793 0
M  V30 1334 H 124.641 -3.3067 2.20778 0
M  V30 1335 N 125.638 -1.25649 -0.95132 0
M  V30 1336 C 126.885 -1.10594 -1.69633 0
M  V30 1337 C 127.213 0.352515 -1.91279 0
M  V30 1338 O 126.468 1.27601 -1.4838 0
M  V30 1339 C 126.767 -1.80909 -3.08231 0
M  V30 1340 C 126.433 -3.30825 -3.06375 0
M  V30 1341 C 125.095 -3.71722 -3.05576 0
M  V30 1342 C 127.447 -4.26589 -2.99452 0
M  V30 1343 C 124.775 -5.06788 -2.95606 0
M  V30 1344 C 127.127 -5.61683 -2.91024 0
M  V30 1345 C 125.791 -6.01904 -2.88562 0
M  V30 1346 H 125.061 -0.404691 -0.620731 0
M  V30 1347 H 127.708 -1.55964 -1.11119 0
M  V30 1348 H 126.013 -1.27979 -3.70309 0
M  V30 1349 H 127.71 -1.6671 -3.64704 0
M  V30 1350 H 124.3 -2.98287 -3.07771 0
M  V30 1351 H 128.484 -3.95982 -2.99185 0
M  V30 1352 H 123.74 -5.37126 -2.92071 0
M  V30 1353 H 127.914 -6.35578 -2.84629 0
M  V30 1354 H 125.541 -7.06521 -2.80593 0
M  V30 1355 N 127.117 1.15442 -1.07289 0
M  V30 1356 C 128.065 2.22225 -0.686952 0
M  V30 1357 C 129.059 1.66688 0.30193 0
M  V30 1358 O 130.265 1.79236 0.165712 0
M  V30 1359 H 126.64 0.723783 -0.204064 0
M  V30 1360 H 128.611 2.52056 -1.5972 0
M  V30 1361 C 127.36 3.47556 -0.100149 0
M  V30 1362 H 126.683 3.90612 -0.852211 0
M  V30 1363 H 128.123 4.23794 0.132235 0
M  V30 1364 C 126.582 3.16337 1.159 0
M  V30 1365 O 127.112 3.33074 2.24555 0
M  V30 1366 N 125.318 2.70385 1.06491 0
M  V30 1367 H 124.865 2.56966 0.180668 0
M  V30 1368 H 124.823 2.49871 1.90819 0
M  V30 1369 N 128.595 0.856903 1.32268 0
M  V30 1370 C 129.528 0.247937 2.26849 0
M  V30 1371 C 130.506 -0.615382 1.50505 0
M  V30 1372 O 131.69 -0.571689 1.79622 0
M  V30 1373 C 128.817 -0.650093 3.32403 0
M  V30 1374 C 127.863 0.140138 4.2627 0
M  V30 1375 S 128.696 1.51004 5.13769 0
M  V30 1376 C 129.852 0.61778 6.22844 0
M  V30 1377 H 130.085 1.04971 2.78152 0
M  V30 1378 H 127.618 0.654665 1.39834 0
M  V30 1379 H 129.576 -1.16256 3.93694 0
M  V30 1380 H 128.237 -1.4257 2.7988 0
M  V30 1381 H 127.43 -0.543945 5.01056 0
M  V30 1382 H 127.032 0.584267 3.69408 0
M  V30 1383 H 129.324 -0.177053 6.77269 0
M  V30 1384 H 130.267 1.33636 6.95375 0
M  V30 1385 H 130.675 0.191124 5.64176 0
M  V30 1386 N 130.073 -1.45103 0.615059 0
M  V30 1387 C 131.484 -1.85654 0.197383 0
M  V30 1388 C 131.835 -1.51433 -1.24749 0
M  V30 1389 O 130.96 -0.944608 -1.94695 0
M  V30 1390 C 131.555 -3.36972 0.351448 0
M  V30 1391 C 130.114 -3.76398 -0.011593 0
M  V30 1392 C 129.261 -2.69024 0.672394 0
M  V30 1393 H 132.212 -1.35797 0.821263 0
M  V30 1394 H 132.233 -3.78239 -0.414227 0
M  V30 1395 H 131.745 -3.61847 1.40314 0
M  V30 1396 H 129.846 -3.5714 -1.06217 0
M  V30 1397 H 129.959 -4.77532 0.387265 0
M  V30 1398 H 128.323 -2.54465 0.109284 0
M  V30 1399 H 129.106 -2.96735 1.72636 0
M  V30 1400 N 131.551 -0.354651 -1.53558 0
M  V30 1401 C 132.776 0.242153 -2.05981 0
M  V30 1402 C 133.201 1.42553 -1.2272 0
M  V30 1403 O 132.559 1.79656 -0.243604 0
M  V30 1404 C 132.607 0.624367 -3.55154 0
M  V30 1405 O 131.711 1.72301 -3.74681 0
M  V30 1406 H 131.052 0.0378432 -0.662921 0
M  V30 1407 H 133.582 -0.512087 -1.98088 0
M  V30 1408 H 133.592 0.898433 -3.97985 0
M  V30 1409 H 132.267 -0.240989 -4.15201 0
M  V30 1410 H 130.844 1.44535 -3.4375 0
M  V30 1411 N 133.029 1.57378 -0.0835403 0
M  V30 1412 C 134.275 1.94217 0.583733 0
M  V30 1413 C 134.608 0.964653 1.68547 0
M  V30 1414 O 133.883 -0.00422258 1.945 0
M  V30 1415 C 134.166 3.41253 1.14972 0
M  V30 1416 C 134.019 4.49768 0.0538277 0
M  V30 1417 C 135.338 3.89352 2.05166 0
M  V30 1418 H 132.457 0.706233 0.210724 0
M  V30 1419 H 135.099 1.89392 -0.1519 0
M  V30 1420 H 133.249 3.45496 1.77665 0
M  V30 1421 H 134.921 4.57641 -0.579851 0
M  V30 1422 H 133.164 4.29432 -0.614068 0
M  V30 1423 H 133.835 5.49817 0.490452 0
M  V30 1424 H 136.311 3.87189 1.52393 0
M  V30 1425 H 135.187 4.92822 2.41698 0
M  V30 1426 H 135.448 3.27973 2.96456 0
M  V30 1427 N 134.507 -0.190092 1.56449 0
M  V30 1428 C 135.47 -1.21925 1.9408 0
M  V30 1429 C 136.47 -1.38176 0.822431 0
M  V30 1430 O 137.66 -1.35903 1.08977 0
M  V30 1431 C 134.792 -2.58773 2.21922 0
M  V30 1432 H 135.985 -0.897464 2.86157 0
M  V30 1433 H 133.538 -0.43181 1.50217 0
M  V30 1434 H 134.273 -2.95998 1.32499 0
M  V30 1435 H 134.058 -2.48348 3.03424 0
M  V30 1436 H 135.548 -3.32978 2.52022 0
M  V30 1437 N 135.985 -1.50799 -0.457987 0
M  V30 1438 C 137.225 -1.64088 -1.21879 0
M  V30 1439 C 137.589 -0.339848 -1.88968 0
M  V30 1440 O 138.79 -0.348301 -2.66534 0
M  V30 1441 C 137.061 -2.79726 -2.2246 0
M  V30 1442 S 138.62 -3.13225 -3.07303 0
M  V30 1443 H 135.438 -0.578314 -0.41361 0
M  V30 1444 H 138.04 -1.88632 -0.513645 0
M  V30 1445 H 136.744 -3.72722 -1.71775 0
M  V30 1446 H 136.275 -2.57308 -2.97584 0
M  V30 1447 H 138.29 -2.58062 -4.23814 0
M  V30 1448 N 137.463 0.71206 -1.40597 0
M  V30 1449 C 138.395 1.83704 -1.37061 0
M  V30 1450 C 139.408 1.60453 -0.275426 0
M  V30 1451 O 140.597 1.70262 -0.53602 0
M  V30 1452 C 137.697 3.20172 -1.11099 0
M  V30 1453 C 136.87 3.7059 -2.3234 0
M  V30 1454 C 135.929 4.85681 -2.02485 0
M  V30 1455 O 134.955 4.9815 -2.75382 0
M  V30 1456 N 136.157 5.71735 -1.00497 0
M  V30 1457 H 138.922 1.87235 -2.34016 0
M  V30 1458 H 136.483 0.893739 -1.34996 0
M  V30 1459 H 138.475 3.94768 -0.891064 0
M  V30 1460 H 137.045 3.11767 -0.227989 0
M  V30 1461 H 136.265 2.87085 -2.7014 0
M  V30 1462 H 137.553 4.01011 -3.13157 0
M  V30 1463 H 136.951 5.64275 -0.401298 0
M  V30 1464 H 135.508 6.463 -0.844942 0
M  V30 1465 N 138.941 1.26152 0.944643 0
M  V30 1466 C 140.187 1.11657 1.69294 0
M  V30 1467 C 140.52 -0.339926 1.91202 0
M  V30 1468 O 139.795 -1.24994 1.49019 0
M  V30 1469 C 140.078 1.88236 3.06984 0
M  V30 1470 C 139.931 3.41772 2.92424 0
M  V30 1471 C 141.25 1.67343 4.07043 0
M  V30 1472 H 138.369 0.407004 0.614424 0
M  V30 1473 H 141.011 1.55106 1.09737 0
M  V30 1474 H 139.161 1.51308 3.57824 0
M  V30 1475 H 140.833 3.88433 2.48832 0
M  V30 1476 H 139.076 3.68974 2.28124 0
M  V30 1477 H 139.747 3.90579 3.90067 0
M  V30 1478 H 142.223 1.99509 3.65151 0
M  V30 1479 H 141.099 2.23346 5.01406 0
M  V30 1480 H 141.36 0.617158 4.37771 0
M  V30 1481 N 140.419 -1.14872 1.07899 0
M  V30 1482 C 141.351 -2.19425 0.662231 0
M  V30 1483 C 142.364 -1.60231 -0.288079 0
M  V30 1484 O 143.553 -1.78336 -0.076534 0
M  V30 1485 C 140.653 -3.38867 -0.0470695 0
M  V30 1486 C 139.826 -4.27597 0.920831 0
M  V30 1487 C 138.885 -5.25616 0.247805 0
M  V30 1488 O 137.911 -5.62189 0.890599 0
M  V30 1489 N 139.113 -5.71746 -1.00435 0
M  V30 1490 H 141.878 -2.55797 1.56166 0
M  V30 1491 H 139.439 -1.30042 0.964404 0
M  V30 1492 H 141.431 -4.01497 -0.50813 0
M  V30 1493 H 140.001 -3.00864 -0.848523 0
M  V30 1494 H 139.221 -3.61982 1.56087 0
M  V30 1495 H 140.509 -4.83748 1.57688 0
M  V30 1496 H 139.907 -5.44153 -1.54642 0
M  V30 1497 H 138.464 -6.36389 -1.40899 0
M  V30 1498 N 141.898 -0.863906 -1.31812 0
M  V30 1499 C 143.146 -0.470904 -1.96537 0
M  V30 1500 C 143.467 0.978771 -1.68657 0
M  V30 1501 O 142.737 1.6853 -0.998717 0
M  V30 1502 H 141.317 -0.171148 -0.72713 0
M  V30 1503 H 143.979 -1.10236 -1.60729 0
M  V30 1504 H 143.075 -0.623616 -3.05806 0
M  V30 1505 N 143.376 1.44774 -0.622745 0
M  V30 1506 C 144.339 2.29069 0.0774015 0
M  V30 1507 C 145.339 1.4059 0.780461 0
M  V30 1508 O 146.529 1.62551 0.626322 0
M  V30 1509 C 143.661 3.21974 1.12006 0
M  V30 1510 H 144.854 2.92459 -0.663901 0
M  V30 1511 H 142.407 1.51548 -0.382486 0
M  V30 1512 H 143.142 2.63417 1.89162 0
M  V30 1513 H 142.927 3.87168 0.619951 0
M  V30 1514 H 144.417 3.85318 1.60995 0
M  V30 1515 N 144.854 0.36279 1.53368 0
M  V30 1516 C 146.103 -0.22888 2.00397 0
M  V30 1517 C 146.416 -1.50096 1.25421 0
M  V30 1518 O 147.622 -2.17106 1.63025 0
M  V30 1519 C 146.078 -0.458417 3.56969 0
M  V30 1520 C 145.686 0.798877 4.4082 0
M  V30 1521 C 147.43 -1.00789 4.12361 0
M  V30 1522 C 145.337 0.539078 5.88938 0
M  V30 1523 H 144.267 -0.089305 0.748693 0
M  V30 1524 H 146.918 0.481099 1.77081 0
M  V30 1525 H 145.3 -1.22959 3.76427 0
M  V30 1526 H 146.474 1.57262 4.33134 0
M  V30 1527 H 144.789 1.27137 3.96516 0
M  V30 1528 H 147.386 -1.21754 5.20653 0
M  V30 1529 H 147.729 -1.9692 3.66781 0
M  V30 1530 H 148.262 -0.296961 3.9669 0
M  V30 1531 H 145.001 1.47064 6.3879 0
M  V30 1532 H 144.521 -0.196222 5.99479 0
M  V30 1533 H 146.2 0.163542 6.46793 0
M  V30 1534 N 146.332 -1.57332 0.0918853 0
M  V30 1535 C 147.58 -1.93853 -0.571446 0
M  V30 1536 C 147.901 -0.974212 -1.6892 0
M  V30 1537 O 147.171 -0.0257254 -1.95883 0
M  V30 1538 H 145.751 -0.715666 -0.214082 0
M  V30 1539 H 148.413 -1.94287 0.154464 0
M  V30 1540 H 147.509 -2.96191 -0.983729 0
M  V30 1541 N 147.81 0.181792 -1.56548 0
M  V30 1542 C 148.773 1.20894 -1.94724 0
M  V30 1543 C 149.773 1.37738 -0.829747 0
M  V30 1544 O 150.963 1.35323 -1.09697 0
M  V30 1545 C 148.095 2.57593 -2.23291 0
M  V30 1546 H 149.288 0.882275 -2.86629 0
M  V30 1547 H 146.841 0.423838 -1.50444 0
M  V30 1548 H 147.576 2.95291 -1.34067 0
M  V30 1549 H 147.361 2.46735 -3.04736 0
M  V30 1550 H 148.851 3.31637 -2.53785 0
M  V30 1551 N 149.288 1.51039 0.449983 0
M  V30 1552 C 150.516 1.66869 1.2232 0
M  V30 1553 C 150.931 0.360727 1.85322 0
M  V30 1554 O 150.288 -0.659531 1.70166 0
M  V30 1555 C 150.339 2.77524 2.31652 0
M  V30 1556 O 150.06 4.03252 1.7123 0
M  V30 1557 C 151.561 3.04512 3.2216 0
M  V30 1558 H 148.781 0.560326 0.369155 0
M  V30 1559 H 151.325 1.97385 0.534719 0
M  V30 1560 H 149.48 2.49642 2.96239 0
M  V30 1561 H 149.894 4.64609 2.43389 0
M  V30 1562 H 151.368 3.85551 3.95038 0
M  V30 1563 H 151.845 2.16415 3.8218 0
M  V30 1564 H 152.451 3.34005 2.63288 0
M  V30 1565 N 150.766 -0.704594 1.40972 0
M  V30 1566 C 151.676 -1.84856 1.44448 0
M  V30 1567 C 152.692 -1.70726 0.335961 0
M  V30 1568 O 153.868 -1.92799 0.582276 0
M  V30 1569 C 150.933 -3.20758 1.31587 0
M  V30 1570 C 149.994 -3.47063 2.52677 0
M  V30 1571 C 149.227 -4.76481 2.4042 0
M  V30 1572 O 149.45 -5.52341 1.42391 0
M  V30 1573 O 148.384 -5.03367 3.30007 0
M  V30 1574 H 152.21 -1.8488 2.40942 0
M  V30 1575 H 149.795 -0.85647 1.22413 0
M  V30 1576 H 151.677 -4.01913 1.26665 0
M  V30 1577 H 150.352 -3.21438 0.382049 0
M  V30 1578 H 149.259 -2.65873 2.63177 0
M  V30 1579 H 150.592 -3.5119 3.44858 0
M  V30 1580 N 152.244 -1.26651 -0.937939 0
M  V30 1581 C 153.207 -1.08546 -2.01867 0
M  V30 1582 C 154.207 -0.0327327 -1.60767 0
M  V30 1583 O 155.397 -0.276427 -1.71993 0
M  V30 1584 C 152.529 -0.651711 -3.34613 0
M  V30 1585 H 153.722 -2.04502 -2.1936 0
M  V30 1586 H 151.275 -1.09294 -1.11734 0
M  V30 1587 H 152.01 0.309696 -3.22818 0
M  V30 1588 H 151.795 -1.41189 -3.65798 0
M  V30 1589 H 153.285 -0.546973 -4.14002 0
M  V30 1590 N 153.722 1.14298 -1.08507 0
M  V30 1591 C 154.969 1.85359 -0.815373 0
M  V30 1592 C 155.297 1.83001 0.658865 0
M  V30 1593 O 154.552 1.25655 1.50031 0
M  V30 1594 C 154.851 3.33547 -1.28379 0
M  V30 1595 C 154.517 3.56093 -2.76602 0
M  V30 1596 C 153.179 3.61955 -3.17084 0
M  V30 1597 C 155.531 3.64834 -3.72217 0
M  V30 1598 C 152.859 3.74082 -4.51973 0
M  V30 1599 C 155.211 3.78487 -5.06883 0
M  V30 1600 C 153.875 3.82598 -5.46969 0
M  V30 1601 H 153.145 0.678276 -0.298366 0
M  V30 1602 H 155.792 1.35002 -1.35819 0
M  V30 1603 H 154.097 3.86191 -0.660593 0
M  V30 1604 H 155.794 3.86959 -1.05186 0
M  V30 1605 H 152.384 3.52179 -2.4427 0
M  V30 1606 H 156.568 3.59595 -3.42061 0
M  V30 1607 H 151.824 3.75527 -4.82483 0
M  V30 1608 H 155.998 3.84193 -5.80834 0
M  V30 1609 H 153.625 3.91747 -6.51489 0
M  V30 1610 N 155.201 0.870884 1.31352 0
M  V30 1611 C 156.164 0.332243 2.26779 0
M  V30 1612 C 157.164 -0.517302 1.52252 0
M  V30 1613 O 158.354 -0.326477 1.71113 0
M  V30 1614 C 155.486 -0.528066 3.36785 0
M  V30 1615 H 156.679 1.17469 2.75937 0
M  V30 1616 H 154.232 0.64655 1.423 0
M  V30 1617 H 154.967 -1.39167 2.92922 0
M  V30 1618 H 154.752 0.0802582 3.92018 0
M  V30 1619 H 156.242 -0.897179 4.07849 0
M  V30 1620 N 156.679 -1.44442 0.630414 0
M  V30 1621 C 157.926 -2.02052 0.134617 0
M  V30 1622 C 158.254 -1.49576 -1.24327 0
M  V30 1623 O 157.509 -0.669806 -1.83881 0
M  V30 1624 C 157.808 -3.57332 0.0697835 0
M  V30 1625 C 157.474 -4.29058 1.38635 0
M  V30 1626 C 156.136 -4.4837 1.74694 0
M  V30 1627 C 158.488 -4.69872 2.25543 0
M  V30 1628 C 155.816 -5.05756 2.97369 0
M  V30 1629 C 158.168 -5.28616 3.47487 0
M  V30 1630 C 156.832 -5.46147 3.8377 0
M  V30 1631 H 156.102 -0.739361 0.0492598 0
M  V30 1632 H 158.749 -1.73217 0.816586 0
M  V30 1633 H 157.054 -3.85577 -0.695553 0
M  V30 1634 H 158.751 -3.99637 -0.330344 0
M  V30 1635 H 155.341 -4.14357 1.09574 0
M  V30 1636 H 159.525 -4.54666 1.98979 0
M  V30 1637 H 154.781 -5.17515 3.25558 0
M  V30 1638 H 158.955 -5.59192 4.15063 0
M  V30 1639 H 156.582 -5.9038 4.7891 0
M  V30 1640 N 158.157 -0.370918 -1.53173 0
M  V30 1641 C 159.434 0.273754 -1.93675 0
M  V30 1642 C 159.814 1.65938 -1.3049 0
M  V30 1643 O 159.162 2.23698 -0.465999 0
M  V30 1644 C 159.372 0.318602 -3.47543 0
M  V30 1645 C 160.72 0.556392 -4.20939 0
M  V30 1646 O 161.744 0.399587 -3.53952 0
M  V30 1647 O 160.603 0.862133 -5.39657 0
M  V30 1648 H 157.697 0.165448 -0.810281 0
M  V30 1649 H 160.243 -0.42409 -1.64315 0
M  V30 1650 H 159.015 -0.652687 -3.85818 0
M  V30 1651 H 158.638 1.06212 -3.83151 0
M  V30 1652 N 159.635 1.57281 -0.100228 0
M  V30 1653 C 160.884 1.93713 0.561984 0
M  V30 1654 C 161.197 0.984492 1.69018 0
M  V30 1655 O 162.403 1.24273 2.41389 0
M  V30 1656 C 160.859 3.4421 1.05106 0
M  V30 1657 C 160.467 4.47975 -0.0476628 0
M  V30 1658 C 162.211 3.89595 1.68571 0
M  V30 1659 C 160.118 5.89631 0.457055 0
M  V30 1660 H 159.048 0.723082 0.2137 0
M  V30 1661 H 161.699 1.82644 -0.177057 0
M  V30 1662 H 160.081 3.50449 1.84395 0
M  V30 1663 H 161.255 4.53385 -0.823333 0
M  V30 1664 H 159.57 4.1223 -0.587816 0
M  V30 1665 H 162.167 4.92832 2.07414 0
M  V30 1666 H 162.51 3.28526 2.55688 0
M  V30 1667 H 163.043 3.86078 0.958562 0
M  V30 1668 H 159.782 6.54411 -0.377616 0
M  V30 1669 H 159.302 5.87681 1.19962 0
M  V30 1670 H 160.981 6.40363 0.92437 0
M  V30 1671 N 161.113 -0.173488 1.56642 0
M  V30 1672 C 162.338 -0.910149 1.86363 0
M  V30 1673 C 162.763 -1.75132 0.686318 0
M  V30 1674 O 162.121 -1.77595 -0.364643 0
M  V30 1675 C 162.169 -1.76447 3.14482 0
M  V30 1676 O 161.273 -2.86584 2.96553 0
M  V30 1677 H 160.614 -0.255086 0.613047 0
M  V30 1678 H 163.144 -0.172283 2.03873 0
M  V30 1679 H 163.154 -2.16483 3.45831 0
M  V30 1680 H 161.829 -1.14658 3.99783 0
M  V30 1681 H 160.406 -2.50146 2.76553 0
M  V30 1682 N 162.591 -1.51276 -0.441967 0
M  V30 1683 C 163.554 -1.7167 -1.51862 0
M  V30 1684 C 164.554 -0.586793 -1.49711 0
M  V30 1685 O 165.744 -0.854276 -1.51815 0
M  V30 1686 C 162.876 -1.76889 -2.91416 0
M  V30 1687 H 164.069 -2.67754 -1.35084 0
M  V30 1688 H 161.622 -1.41196 -0.670333 0
M  V30 1689 H 162.357 -0.826026 -3.13604 0
M  V30 1690 H 162.142 -2.59001 -2.94382 0
M  V30 1691 H 163.632 -1.94522 -3.69528 0
M  V30 1692 N 164.069 0.697108 -1.41344 0
M  V30 1693 C 165.032 1.79281 -1.42797 0
M  V30 1694 C 166.032 1.57607 -0.318837 0
M  V30 1695 O 167.222 1.64309 -0.578642 0
M  V30 1696 C 164.354 3.17632 -1.23785 0
M  V30 1697 H 165.547 1.79385 -2.40335 0
M  V30 1698 H 163.1 0.904582 -1.27464 0
M  V30 1699 H 163.835 3.23167 -0.270814 0
M  V30 1700 H 163.62 3.34765 -2.04144 0
M  V30 1701 H 165.11 3.97617 -1.27633 0
M  V30 1702 N 165.547 1.27147 0.931209 0
M  V30 1703 C 166.787 1.14511 1.69312 0
M  V30 1704 C 167.151 -0.304638 1.89568 0
M  V30 1705 O 168.352 -0.553343 2.63043 0
M  V30 1706 C 166.623 1.90349 3.02493 0
M  V30 1707 S 168.182 1.93884 3.93642 0
M  V30 1708 H 165 0.408858 0.581684 0
M  V30 1709 H 167.602 1.61006 1.10893 0
M  V30 1710 H 166.306 2.94877 2.85439 0
M  V30 1711 H 165.837 1.44333 3.65966 0
M  V30 1712 H 167.852 1.03273 4.85334 0
M  V30 1713 N 167.025 -1.13721 1.09112 0
M  V30 1714 C 168.25 -1.89314 0.847053 0
M  V30 1715 C 168.675 -1.78416 -0.595774 0
M  V30 1716 O 168.033 -1.12942 -1.41823 0
M  V30 1717 C 168.081 -3.3701 1.28284 0
M  V30 1718 O 167.185 -4.10054 0.439267 0
M  V30 1719 H 166.526 -0.588745 0.307044 0
M  V30 1720 H 169.056 -1.43902 1.45442 0
M  V30 1721 H 169.066 -3.87834 1.26683 0
M  V30 1722 H 167.741 -3.4426 2.33363 0
M  V30 1723 H 166.318 -3.69266 0.519312 0
M  V30 1724 N 168.503 -0.877838 -1.30888 0
M  V30 1725 C 169.751 -0.491723 -1.96027 0
M  V30 1726 C 170.072 0.960827 -1.69685 0
M  V30 1727 O 169.342 1.67462 -1.01654 0
M  V30 1728 H 167.922 -0.17885 -0.725273 0
M  V30 1729 H 170.584 -1.11935 -1.59551 0
M  V30 1730 H 169.68 -0.656016 -3.05128 0
M  V30 1731 N 169.982 1.44106 -0.638065 0
M  V30 1732 C 171.229 2.01978 -0.14533 0
M  V30 1733 C 171.557 1.50234 1.23532 0
M  V30 1734 O 170.812 0.679548 1.83523 0
M  V30 1735 C 171.111 3.5729 -0.0887327 0
M  V30 1736 C 170.777 4.28317 -1.40909 0
M  V30 1737 C 169.439 4.47437 -1.77069 0
M  V30 1738 C 171.791 4.6867 -2.28031 0
M  V30 1739 C 169.119 5.04171 -3.00047 0
M  V30 1740 C 171.471 5.26766 -3.50286 0
M  V30 1741 C 170.135 5.44104 -3.86661 0
M  V30 1742 H 169.405 0.739089 -0.0531801 0
M  V30 1743 H 172.052 1.72781 -0.825761 0
M  V30 1744 H 170.357 3.8594 0.675095 0
M  V30 1745 H 172.054 3.99807 0.309145 0
M  V30 1746 H 168.644 4.1377 -1.1177 0
M  V30 1747 H 172.828 4.53604 -2.01388 0
M  V30 1748 H 168.084 5.15782 -3.28298 0
M  V30 1749 H 172.258 5.56983 -4.18023 0
M  V30 1750 H 169.885 5.87832 -4.82034 0
M  V30 1751 N 171.46 0.379036 1.52974 0
M  V30 1752 C 172.706 -0.206727 2.01744 0
M  V30 1753 C 173.039 -1.47314 1.26539 0
M  V30 1754 O 172.314 -1.91084 0.362903 0
M  V30 1755 C 172.597 -0.485066 3.56818 0
M  V30 1756 C 172.45 0.795919 4.42702 0
M  V30 1757 C 173.769 -1.28003 4.21074 0
M  V30 1758 H 170.888 -0.0736607 0.73331 0
M  V30 1759 H 173.53 0.506581 1.83122 0
M  V30 1760 H 171.68 -1.09272 3.72816 0
M  V30 1761 H 173.352 1.43307 4.38476 0
M  V30 1762 H 171.595 1.41344 4.10127 0
M  V30 1763 H 172.266 0.555947 5.49193 0
M  V30 1764 H 174.742 -0.765867 4.08991 0
M  V30 1765 H 173.618 -1.44352 5.29579 0
M  V30 1766 H 173.879 -2.29236 3.78026 0
M  V30 1767 N 172.938 -1.57226 0.108567 0
M  V30 1768 C 174.168 -1.9889 -0.559142 0
M  V30 1769 C 174.576 -0.986889 -1.61422 0
M  V30 1770 O 173.919 0.0298705 -1.83676 0
M  V30 1771 C 173.981 -3.36952 -1.25315 0
M  V30 1772 C 173.645 -4.55679 -0.347248 0
M  V30 1773 C 174.642 -5.18281 0.409996 0
M  V30 1774 C 172.327 -5.0162 -0.261367 0
M  V30 1775 C 174.321 -6.25203 1.24096 0
M  V30 1776 C 172.008 -6.08405 0.573238 0
M  V30 1777 C 173.006 -6.70063 1.32304 0
M  V30 1778 O 172.694 -7.74788 2.14381 0
M  V30 1779 H 172.426 -0.658343 -0.153492 0
M  V30 1780 H 174.98 -2.04532 0.188584 0
M  V30 1781 H 173.21 -3.28032 -2.04773 0
M  V30 1782 H 174.899 -3.62974 -1.81673 0
M  V30 1783 H 175.665 -4.8371 0.353457 0
M  V30 1784 H 171.544 -4.53381 -0.834656 0
M  V30 1785 H 175.088 -6.73259 1.82669 0
M  V30 1786 H 170.985 -6.42406 0.631208 0
M  V30 1787 H 171.753 -7.91837 2.07209 0
M  V30 1788 N 174.416 0.165178 -1.56732 0
M  V30 1789 C 175.379 1.18822 -1.95995 0
M  V30 1790 C 176.379 1.3685 -0.84431 0
M  V30 1791 O 177.569 1.34152 -1.11126 0
M  V30 1792 C 174.701 2.5521 -2.26011 0
M  V30 1793 H 175.894 0.851825 -2.87548 0
M  V30 1794 H 173.447 0.407857 -1.50885 0
M  V30 1795 H 174.182 2.93852 -1.37191 0
M  V30 1796 H 173.967 2.43489 -3.07336 0
M  V30 1797 H 175.457 3.28927 -2.57288 0
M  V30 1798 N 175.894 1.51508 0.433938 0
M  V30 1799 C 176.824 1.76016 1.53429 0
M  V30 1800 C 177.805 0.610112 1.58782 0
M  V30 1801 O 178.99 0.853177 1.74455 0
M  V30 1802 C 176.12 1.88831 2.9148 0
M  V30 1803 C 175.074 3.04288 3.00987 0
M  V30 1804 C 174.4 3.0229 4.4105 0
M  V30 1805 C 175.7 4.44193 2.74754 0
M  V30 1806 H 177.394 2.68152 1.33171 0
M  V30 1807 H 174.94 1.29035 0.639214 0
M  V30 1808 H 176.893 2.04559 3.6842 0
M  V30 1809 H 175.617 0.933455 3.12976 0
M  V30 1810 H 174.276 2.8827 2.26486 0
M  V30 1811 H 173.924 2.04576 4.59519 0
M  V30 1812 H 173.624 3.79822 4.4834 0
M  V30 1813 H 175.148 3.20116 5.1996 0
M  V30 1814 H 176.562 4.60544 3.41426 0
M  V30 1815 H 174.959 5.23457 2.9345 0
M  V30 1816 H 176.029 4.53996 1.70339 0
M  V30 1817 N 177.372 -0.689602 1.41712 0
M  V30 1818 C 178.597 -1.48329 1.44959 0
M  V30 1819 C 179.022 -1.8801 0.0581283 0
M  V30 1820 O 178.38 -1.55026 -0.940035 0
M  V30 1821 C 178.428 -2.71835 2.36935 0
M  V30 1822 O 177.532 -3.69549 1.8305 0
M  V30 1823 H 176.873 -0.446199 0.491734 0
M  V30 1824 H 179.403 -0.847127 1.86239 0
M  V30 1825 H 179.413 -3.20076 2.53013 0
M  V30 1826 H 178.088 -2.42291 3.38035 0
M  V30 1827 H 176.665 -3.2851 1.76452 0
M  V30 1828 N 178.85 -1.27639 -0.924453 0
M  V30 1829 C 179.783 -1.04966 -2.02626 0
M  V30 1830 C 180.761 0.0309505 -1.62571 0
M  V30 1831 O 181.945 -0.114846 -1.8815 0
M  V30 1832 C 179.072 -0.59292 -3.3347 0
M  V30 1833 C 178.118 -1.66858 -3.92506 0
M  V30 1834 S 178.951 -3.2619 -4.24689 0
M  V30 1835 C 180.107 -2.82325 -5.58609 0
M  V30 1836 H 180.34 -1.98252 -2.21547 0
M  V30 1837 H 177.873 -1.11506 -1.06798 0
M  V30 1838 H 179.831 -0.336086 -4.09122 0
M  V30 1839 H 178.492 0.319939 -3.12466 0
M  V30 1840 H 177.685 -1.30038 -4.86935 0
M  V30 1841 H 177.287 -1.87766 -3.2345 0
M  V30 1842 H 179.579 -2.2783 -6.38044 0
M  V30 1843 H 180.522 -3.75511 -6.00331 0
M  V30 1844 H 180.93 -2.21367 -5.19285 0
M  V30 1845 N 180.328 1.1314 -1.09713 0
M  V30 1846 C 181.291 2.16831 -0.742751 0
M  V30 1847 C 182.291 1.59159 0.229129 0
M  V30 1848 O 183.481 1.74199 0.00693237 0
M  V30 1849 C 180.613 3.40756 -0.0989168 0
M  V30 1850 H 181.806 2.49695 -1.66109 0
M  V30 1851 H 179.359 1.2802 -0.896699 0
M  V30 1852 H 180.094 3.13485 0.830514 0
M  V30 1853 H 179.879 3.83888 -0.798265 0
M  V30 1854 H 181.369 4.17386 0.133524 0
M  V30 1855 N 181.806 0.884767 1.30421 0
M  V30 1856 C 182.716 0.355398 2.31892 0
M  V30 1857 C 183.732 -0.542261 1.65335 0
M  V30 1858 O 184.908 -0.435432 1.96637 0
M  V30 1859 C 181.973 -0.421661 3.44126 0
M  V30 1860 C 181.034 0.505727 4.26311 0
M  V30 1861 C 180.267 -0.234343 5.33185 0
M  V30 1862 O 180.49 -1.46045 5.51386 0
M  V30 1863 O 179.424 0.415443 6.00465 0
M  V30 1864 H 183.25 1.19685 2.79122 0
M  V30 1865 H 180.835 0.648596 1.34587 0
M  V30 1866 H 182.717 -0.861641 4.12497 0
M  V30 1867 H 181.392 -1.23942 2.99032 0
M  V30 1868 H 180.299 0.994513 3.60639 0
M  V30 1869 H 181.632 1.28948 4.75009 0
M  V30 1870 N 183.284 -1.43765 0.645699 0
M  V30 1871 C 184.231 -2.30745 -0.0504648 0
M  V30 1872 C 185.201 -1.4432 -0.822241 0
M  V30 1873 O 186.386 -1.73202 -0.800358 0
M  V30 1874 C 183.526 -3.29802 -1.0161 0
M  V30 1875 C 182.639 -4.31326 -0.241219 0
M  V30 1876 C 181.774 -5.17469 -1.19998 0
M  V30 1877 C 180.813 -6.10691 -0.415094 0
M  V30 1878 N 179.95 -6.89483 -1.32506 0
M  V30 1879 H 184.79 -2.8973 0.697155 0
M  V30 1880 H 182.327 -1.42738 0.355563 0
M  V30 1881 H 184.285 -3.85734 -1.58949 0
M  V30 1882 H 182.915 -2.72483 -1.73069 0
M  V30 1883 H 181.967 -3.77749 0.448334 0
M  V30 1884 H 183.279 -4.9743 0.369437 0
M  V30 1885 H 182.433 -5.7799 -1.84424 0
M  V30 1886 H 181.172 -4.51473 -1.84455 0
M  V30 1887 H 180.177 -5.49265 0.242565 0
M  V30 1888 H 181.402 -6.78727 0.224966 0
M  V30 1889 H 179.348 -6.26142 -1.95657 0
M  V30 1890 H 179.265 -7.52081 -0.768783 0
M  V30 1891 H 180.533 -7.54516 -1.9577 0
M  V30 1892 N 184.763 -0.387143 -1.52771 0
M  V30 1893 C 185.693 0.440551 -2.29306 0
M  V30 1894 C 186.674 1.06535 -1.32606 0
M  V30 1895 O 187.859 1.07853 -1.61497 0
M  V30 1896 C 184.989 1.56919 -3.09829 0
M  V30 1897 C 183.943 1.07054 -4.14395 0
M  V30 1898 C 183.269 2.29109 -4.83129 0
M  V30 1899 C 184.569 0.140015 -5.22112 0
M  V30 1900 H 186.263 -0.198026 -2.98744 0
M  V30 1901 H 183.809 -0.09668 -1.43675 0
M  V30 1902 H 185.762 2.15503 -3.62128 0
M  V30 1903 H 184.486 2.23532 -2.3812 0
M  V30 1904 H 183.145 0.507247 -3.63074 0
M  V30 1905 H 182.793 2.94227 -4.0797 0
M  V30 1906 H 182.493 1.96406 -5.53804 0
M  V30 1907 H 184.017 2.88339 -5.38231 0
M  V30 1908 H 185.431 0.633978 -5.69784 0
M  V30 1909 H 183.828 -0.0971485 -6.00021 0
M  V30 1910 H 184.898 -0.811711 -4.78058 0
M  V30 1911 N 186.241 1.57166 -0.116904 0
M  V30 1912 C 187.487 1.95412 0.542405 0
M  V30 1913 C 187.82 1.00019 1.66463 0
M  V30 1914 O 187.095 0.0370346 1.94465 0
M  V30 1915 C 187.378 3.43615 1.07708 0
M  V30 1916 C 187.231 4.49781 -0.0415868 0
M  V30 1917 C 188.55 3.93616 1.96861 0
M  V30 1918 H 185.669 0.710543 0.195696 0
M  V30 1919 H 188.311 1.89027 -0.192038 0
M  V30 1920 H 186.461 3.49187 1.70296 0
M  V30 1921 H 188.133 4.56308 -0.676793 0
M  V30 1922 H 186.376 4.28033 -0.705019 0
M  V30 1923 H 187.047 5.50733 0.373717 0
M  V30 1924 H 189.523 3.90335 1.44146 0
M  V30 1925 H 188.399 4.97838 2.3119 0
M  V30 1926 H 188.66 3.34188 2.89432 0
M  V30 1927 N 187.719 -0.156864 1.56817 0
M  V30 1928 C 188.649 -1.19589 2.00551 0
M  V30 1929 C 189.63 -1.4536 0.883426 0
M  V30 1930 O 190.815 -1.56449 1.15054 0
M  V30 1931 C 187.945 -2.53143 2.37773 0
M  V30 1932 C 186.899 -2.41913 3.53075 0
M  V30 1933 C 186.225 -3.80088 3.76081 0
M  V30 1934 C 187.525 -1.91157 4.86062 0
M  V30 1935 H 189.219 -0.832293 2.87599 0
M  V30 1936 H 186.765 -0.398918 1.38364 0
M  V30 1937 H 188.718 -3.26047 2.66967 0
M  V30 1938 H 187.442 -2.91319 1.4765 0
M  V30 1939 H 186.101 -1.71462 3.24031 0
M  V30 1940 H 185.749 -4.15683 2.83225 0
M  V30 1941 H 185.449 -3.73439 4.53671 0
M  V30 1942 H 186.973 -4.54556 4.0769 0
M  V30 1943 H 188.387 -2.53846 5.14038 0
M  V30 1944 H 186.784 -1.95422 5.67389 0
M  V30 1945 H 187.854 -0.866673 4.77092 0
M  V30 1946 N 189.197 -1.51736 -0.425897 0
M  V30 1947 C 190.422 -1.69082 -1.20108 0
M  V30 1948 C 190.847 -0.392398 -1.83962 0
M  V30 1949 O 190.205 0.64858 -1.69302 0
M  V30 1950 C 190.253 -2.81604 -2.25237 0
M  V30 1951 O 189.357 -2.46004 -3.30992 0
M  V30 1952 H 188.698 -0.563408 -0.35138 0
M  V30 1953 H 191.228 -1.98358 -0.501512 0
M  V30 1954 H 191.238 -3.06025 -2.69838 0
M  V30 1955 H 189.913 -3.75817 -1.78142 0
M  V30 1956 H 188.49 -2.32195 -2.91787 0
M  V30 1957 N 190.675 0.682077 -1.42076 0
M  V30 1958 C 191.923 1.4393 -1.41876 0
M  V30 1959 C 192.244 1.94971 -0.0335599 0
M  V30 1960 O 191.514 1.72591 0.926773 0
M  V30 1961 H 190.094 0.534085 -0.522267 0
M  V30 1962 H 192.756 0.806427 -1.77434 0
M  V30 1963 H 191.852 2.29588 -2.11414 0
M  V30 1964 N 192.153 1.28127 0.917671 0
M  V30 1965 C 193.569 1.05749 1.19538 0
M  V30 1966 C 193.769 -0.202633 2.00479 0
M  V30 1967 O 192.825 -0.905382 2.3571 0
M  V30 1968 C 194.138 2.30273 1.93378 0
M  V30 1969 C 195.686 2.35412 2.06277 0
M  V30 1970 C 196.161 3.59692 2.83524 0
M  V30 1971 N 197.652 3.60309 2.91087 0
M  V30 1972 C 198.387 4.53147 3.51348 0
M  V30 1973 N 197.883 5.563 4.12919 0
M  V30 1974 N 199.676 4.40751 3.48849 0
M  V30 1975 H 191.827 2.09024 0.377184 0
M  V30 1976 H 194.09 0.919798 0.22951 0
M  V30 1977 H 193.796 3.22055 1.41328 0
M  V30 1978 H 193.67 2.36378 2.93947 0
M  V30 1979 H 196.057 1.4413 2.57508 0
M  V30 1980 H 196.138 2.33304 1.04895 0
M  V30 1981 H 195.782 4.51316 2.32973 0
M  V30 1982 H 195.712 3.59054 3.85211 0
M  V30 1983 H 198.203 2.85714 2.47338 0
M  V30 1984 H 198.516 6.2329 4.56869 0
M  V30 1985 H 196.861 5.60131 4.11435 0
M  V30 1986 H 200.052 3.59367 2.99955 0
M  V30 1987 H 200.225 5.13291 3.9552 0
M  V30 1988 N 193.631 -1.12557 1.10312 0
M  V30 1989 C 194.861 -1.87592 0.865617 0
M  V30 1990 C 195.269 -1.79851 -0.587389 0
M  V30 1991 O 194.612 -1.16949 -1.41664 0
M  V30 1992 C 194.674 -3.37665 1.23381 0
M  V30 1993 C 194.338 -3.69181 2.69359 0
M  V30 1994 C 195.335 -3.67652 3.67597 0
M  V30 1995 C 193.02 -3.98555 3.05711 0
M  V30 1996 C 195.014 -3.95053 5.00212 0
M  V30 1997 C 192.701 -4.25616 4.38514 0
M  V30 1998 C 193.699 -4.23851 5.35574 0
M  V30 1999 O 193.387 -4.50242 6.65986 0
M  V30 2000 H 193.119 -0.600442 0.310557 0
M  V30 2001 H 195.673 -1.4335 1.47105 0
M  V30 2002 H 193.903 -3.82454 0.571467 0
M  V30 2003 H 195.592 -3.94041 0.973994 0
M  V30 2004 H 196.358 -3.45024 3.40857 0
M  V30 2005 H 192.237 -3.99071 2.30789 0
M  V30 2006 H 195.781 -3.93591 5.75962 0
M  V30 2007 H 191.678 -4.47718 4.64994 0
M  V30 2008 H 192.446 -4.67867 6.71597 0
M  V30 2009 N 195.109 -0.891671 -1.2995 0
M  V30 2010 C 196.041 -0.320695 -2.26945 0
M  V30 2011 C 197.054 0.528497 -1.53983 0
M  V30 2012 O 198.243 0.346959 -1.75096 0
M  V30 2013 C 195.343 0.562066 -3.34207 0
M  V30 2014 C 194.516 -0.259576 -4.36629 0
M  V30 2015 C 193.575 0.554739 -5.23268 0
M  V30 2016 O 192.601 -0.0249311 -5.69195 0
M  V30 2017 N 193.803 1.8625 -5.4981 0
M  V30 2018 H 196.568 -1.15432 -2.76578 0
M  V30 2019 H 194.129 -0.755336 -1.432 0
M  V30 2020 H 196.121 1.11304 -3.89093 0
M  V30 2021 H 194.691 1.29637 -2.84452 0
M  V30 2022 H 193.911 -0.991986 -3.81514 0
M  V30 2023 H 195.199 -0.822564 -5.02107 0
M  V30 2024 H 194.597 2.35628 -5.14292 0
M  V30 2025 H 193.154 2.36078 -6.07545 0
M  V30 2026 N 196.587 1.43421 -0.653314 0
M  V30 2027 C 197.815 2.06163 -0.174491 0
M  V30 2028 C 198.23 1.48969 1.1599 0
M  V30 2029 O 197.587 0.621042 1.71608 0
M  V30 2030 C 197.638 3.61417 -0.0774865 0
M  V30 2031 O 197.359 4.16485 -1.35912 0
M  V30 2032 C 198.86 4.41235 0.427402 0
M  V30 2033 H 196.08 0.664946 -0.0899353 0
M  V30 2034 H 198.624 1.83924 -0.893988 0
M  V30 2035 H 196.779 3.82841 0.59257 0
M  V30 2036 H 197.193 5.10153 -1.21839 0
M  V30 2037 H 198.667 5.5021 0.44423 0
M  V30 2038 H 199.144 4.14268 1.45873 0
M  V30 2039 H 199.75 4.2478 -0.210167 0
M  V30 2040 N 198.065 0.39524 1.52563 0
M  V30 2041 C 199.313 -0.184678 2.01254 0
M  V30 2042 C 199.634 -1.46822 1.28329 0
M  V30 2043 O 198.904 -1.91666 0.405094 0
M  V30 2044 H 197.484 -0.0712355 0.743596 0
M  V30 2045 H 200.146 0.528293 1.87603 0
M  V30 2046 H 199.242 -0.390681 3.09645 0
M  V30 2047 N 199.544 -1.57102 0.125237 0
M  V30 2048 C 200.474 -2.18659 -0.819174 0
M  V30 2049 C 201.455 -1.12843 -1.27281 0
M  V30 2050 O 202.64 -1.41104 -1.33429 0
M  V30 2051 C 199.77 -2.79096 -2.06695 0
M  V30 2052 C 198.724 -3.90548 -1.75088 0
M  V30 2053 C 198.05 -4.37821 -3.06948 0
M  V30 2054 C 199.35 -5.12356 -1.01435 0
M  V30 2055 H 201.044 -2.9783 -0.306202 0
M  V30 2056 H 198.59 -1.4326 -0.145839 0
M  V30 2057 H 200.543 -3.2082 -2.73226 0
M  V30 2058 H 199.267 -1.97223 -2.60328 0
M  V30 2059 H 197.926 -3.49409 -1.10944 0
M  V30 2060 H 197.574 -3.52799 -3.58527 0
M  V30 2061 H 197.274 -5.12982 -2.86571 0
M  V30 2062 H 198.798 -4.822 -3.74587 0
M  V30 2063 H 200.212 -5.5106 -1.58132 0
M  V30 2064 H 198.609 -5.9314 -0.911319 0
M  V30 2065 H 199.679 -4.849 -0.00218681 0
M  V30 2066 N 201.022 0.148545 -1.56898 0
M  V30 2067 C 202.268 0.862694 -1.83536 0
M  V30 2068 C 202.601 1.80889 -0.706604 0
M  V30 2069 O 201.876 1.92328 0.289885 0
M  V30 2070 C 202.159 1.63853 -3.20662 0
M  V30 2071 C 202.012 0.713925 -4.44098 0
M  V30 2072 C 203.331 2.60133 -3.54991 0
M  V30 2073 H 200.45 0.312179 -0.667618 0
M  V30 2074 H 203.092 0.127953 -1.89569 0
M  V30 2075 H 201.242 2.26489 -3.1565 0
M  V30 2076 H 202.914 0.098686 -4.61194 0
M  V30 2077 H 201.157 0.0234019 -4.33794 0
M  V30 2078 H 201.828 1.29278 -5.36648 0
M  V30 2079 H 204.304 2.07616 -3.60603 0
M  V30 2080 H 203.18 3.11468 -4.51972 0
M  V30 2081 H 203.441 3.41417 -2.80868 0
M  V30 2082 N 202.5 1.5196 0.417844 0
M  V30 2083 C 203.749 1.6482 1.16264 0
M  V30 2084 C 204.062 0.379886 1.91876 0
M  V30 2085 O 205.268 0.388154 2.68711 0
M  V30 2086 C 203.724 2.91161 2.1155 0
M  V30 2087 C 203.332 4.25068 1.41495 0
M  V30 2088 C 205.076 3.13383 2.86341 0
M  V30 2089 C 202.983 5.42541 2.35379 0
M  V30 2090 H 201.913 0.613954 0.437694 0
M  V30 2091 H 204.564 1.78442 0.427871 0
M  V30 2092 H 202.946 2.71218 2.88543 0
M  V30 2093 H 204.12 4.55463 0.699263 0
M  V30 2094 H 202.435 4.0888 0.787792 0
M  V30 2095 H 205.032 3.98324 3.5671 0
M  V30 2096 H 205.375 2.27256 3.48798 0
M  V30 2097 H 205.908 3.33757 2.1645 0
M  V30 2098 H 202.647 6.30987 1.77582 0
M  V30 2099 H 202.167 5.16497 3.04945 0
M  V30 2100 H 203.846 5.75272 2.96093 0
M  V30 2101 N 203.978 -0.674533 1.42435 0
M  V30 2102 C 205.226 -1.43175 1.42637 0
M  V30 2103 C 205.547 -1.94951 0.0438992 0
M  V30 2104 O 204.817 -1.7308 -0.917607 0
M  V30 2105 H 203.397 -0.531307 0.525092 0
M  V30 2106 H 206.059 -0.797006 1.77859 0
M  V30 2107 H 205.155 -2.28463 2.12629 0
M  V30 2108 N 205.456 -1.28612 -0.910864 0
M  V30 2109 C 206.704 -1.15705 -1.65701 0
M  V30 2110 C 207.025 0.29416 -1.92769 0
M  V30 2111 O 206.295 1.20331 -1.54588 0
M  V30 2112 H 204.875 -0.425216 -0.614167 0
M  V30 2113 H 207.537 -1.61381 -1.0928 0
M  V30 2114 H 206.633 -1.6988 -2.61815 0
M  V30 2115 N 206.934 1.1197 -1.10907 0
M  V30 2116 C 207.844 2.21433 -0.774896 0
M  V30 2117 C 208.86 1.72478 0.229657 0
M  V30 2118 O 210.036 2.01288 0.0672008 0
M  V30 2119 C 207.101 3.4602 -0.216986 0
M  V30 2120 C 206.162 4.09791 -1.27944 0
M  V30 2121 C 205.395 5.28431 -0.748055 0
M  V30 2122 O 205.618 5.68823 0.423833 0
M  V30 2123 O 204.552 5.82644 -1.51027 0
M  V30 2124 H 208.378 2.5242 -1.68873 0
M  V30 2125 H 205.963 1.20399 -0.884555 0
M  V30 2126 H 207.845 4.21304 0.090059 0
M  V30 2127 H 206.52 3.16698 0.669633 0
M  V30 2128 H 205.427 3.36265 -1.63941 0
M  V30 2129 H 206.76 4.4328 -2.13925 0
M  V30 2130 N 208.412 0.89855 1.29475 0
M  V30 2131 C 209.64 0.539261 1.99749 0
M  V30 2132 C 210.055 -0.875716 1.67262 0
M  V30 2133 O 209.412 -1.57786 0.917049 0
M  V30 2134 C 209.463 0.72061 3.54245 0
M  V30 2135 O 209.184 2.07989 3.8558 0
M  V30 2136 C 210.685 0.366118 4.41786 0
M  V30 2137 H 207.905 0.207047 0.638258 0
M  V30 2138 H 210.449 1.20758 1.65039 0
M  V30 2139 H 208.604 0.0994862 3.87272 0
M  V30 2140 H 209.018 2.10841 4.80257 0
M  V30 2141 H 210.492 0.543848 5.49314 0
M  V30 2142 H 210.969 -0.696763 4.33638 0
M  V30 2143 H 211.575 0.964135 4.14228 0
M  V30 2144 N 209.89 -1.43072 0.660911 0
M  V30 2145 C 211.137 -2.01721 0.177445 0
M  V30 2146 C 211.465 -1.5218 -1.21126 0
M  V30 2147 O 210.72 -0.708659 -1.82419 0
M  V30 2148 C 211.019 -3.57103 0.145563 0
M  V30 2149 C 210.685 -4.26021 1.47705 0
M  V30 2150 C 209.347 -4.44563 1.84165 0
M  V30 2151 C 211.699 -4.64983 2.35458 0
M  V30 2152 C 209.027 -4.99334 3.0803 0
M  V30 2153 C 211.379 -5.21127 3.58622 0
M  V30 2154 C 210.043 -5.37884 3.95268 0
M  V30 2155 H 209.313 -0.73815 0.0649317 0
M  V30 2156 H 211.96 -1.71446 0.853144 0
M  V30 2157 H 210.265 -3.86965 -0.61361 0
M  V30 2158 H 211.962 -4.00248 -0.2455 0
M  V30 2159 H 208.552 -4.11939 1.18339 0
M  V30 2160 H 212.736 -4.50343 2.08579 0
M  V30 2161 H 207.992 -5.10493 3.36462 0
M  V30 2162 H 212.166 -5.50262 4.26831 0
M  V30 2163 H 209.793 -5.80089 4.91325 0
M  V30 2164 N 211.368 -0.403325 -1.52352 0
M  V30 2165 C 212.593 0.176499 -2.06648 0
M  V30 2166 C 213.018 1.38577 -1.27193 0
M  V30 2167 O 212.376 1.7879 -0.300637 0
M  V30 2168 C 212.424 0.511061 -3.5696 0
M  V30 2169 O 211.528 1.60294 -3.79973 0
M  V30 2170 H 210.869 0.0167337 -0.663789 0
M  V30 2171 H 213.399 -0.574848 -1.96359 0
M  V30 2172 H 213.409 0.771362 -4.00642 0
M  V30 2173 H 212.084 -0.37296 -4.14224 0
M  V30 2174 H 210.661 1.33526 -3.48174 0
M  V30 2175 N 212.846 1.57033 -0.133567 0
M  V30 2176 C 213.793 2.16074 0.811208 0
M  V30 2177 C 214.763 1.08979 1.2535 0
M  V30 2178 O 215.948 1.36958 1.32843 0
M  V30 2179 C 213.088 2.77595 2.05024 0
M  V30 2180 C 212.201 3.99042 1.65498 0
M  V30 2181 C 211.336 4.48603 2.84479 0
M  V30 2182 C 210.375 5.62547 2.41262 0
M  V30 2183 N 209.512 6.06787 3.53206 0
M  V30 2184 H 214.352 2.96477 0.300906 0
M  V30 2185 H 211.889 1.46462 0.136822 0
M  V30 2186 H 213.847 3.11402 2.77642 0
M  V30 2187 H 212.477 1.99859 2.53488 0
M  V30 2188 H 211.529 3.71302 0.826981 0
M  V30 2189 H 212.841 4.81629 1.29748 0
M  V30 2190 H 211.995 4.84395 3.65303 0
M  V30 2191 H 210.734 3.64995 3.23465 0
M  V30 2192 H 209.739 5.26345 1.58874 0
M  V30 2193 H 210.964 6.47931 2.03377 0
M  V30 2194 H 208.91 5.26117 3.91838 0
M  V30 2195 H 208.827 6.84266 3.21427 0
M  V30 2196 H 210.095 6.4722 4.34427 0
M  V30 2197 N 214.325 -0.140222 1.56975 0
M  V30 2198 C 215.258 -1.20266 1.93936 0
M  V30 2199 C 216.236 -1.41212 0.806099 0
M  V30 2200 O 217.42 -1.55713 1.06234 0
M  V30 2201 C 214.547 -2.56037 2.21726 0
M  V30 2202 C 213.593 -2.51646 3.44349 0
M  V30 2203 S 214.426 -1.97678 4.97678 0
M  V30 2204 C 215.582 -3.35165 5.28597 0
M  V30 2205 H 215.815 -0.887358 2.83749 0
M  V30 2206 H 213.348 -0.346119 1.50471 0
M  V30 2207 H 215.306 -3.34167 2.38416 0
M  V30 2208 H 213.967 -2.84755 1.32566 0
M  V30 2209 H 213.16 -3.51608 3.61092 0
M  V30 2210 H 212.762 -1.81628 3.26936 0
M  V30 2211 H 215.054 -4.31302 5.2248 0
M  V30 2212 H 215.997 -3.23269 6.30002 0
M  V30 2213 H 216.405 -3.32614 4.56101 0
M  V30 2214 N 215.803 -1.52179 -0.40978 0
M  V30 2215 C 216.733 -1.78435 -1.5061 0
M  V30 2216 C 217.714 -0.635295 -1.57791 0
M  V30 2217 O 218.899 -0.880823 -1.73076 0
M  V30 2218 C 216.029 -1.93444 -2.88439 0
M  V30 2219 C 214.983 -3.09038 -2.96108 0
M  V30 2220 C 214.309 -3.09268 -4.36185 0
M  V30 2221 C 215.609 -4.48508 -2.67652 0
M  V30 2222 H 217.303 -2.70237 -1.28889 0
M  V30 2223 H 214.849 -1.30036 -0.618605 0
M  V30 2224 H 216.802 -2.10394 -3.65119 0
M  V30 2225 H 215.526 -0.983129 -3.11452 0
M  V30 2226 H 214.185 -2.91837 -2.21872 0
M  V30 2227 H 213.833 -2.11861 -4.56206 0
M  V30 2228 H 213.533 -3.86907 -4.42241 0
M  V30 2229 H 215.057 -3.28348 -5.14801 0
M  V30 2230 H 216.471 -4.65918 -3.34056 0
M  V30 2231 H 214.868 -5.28059 -2.85085 0
M  V30 2232 H 215.938 -4.56649 -1.63095 0
M  V30 2233 N 217.281 0.66697 -1.42791 0
M  V30 2234 C 218.558 1.4234 -1.34159 0
M  V30 2235 C 218.938 2.11093 0.0172729 0
M  V30 2236 O 218.286 2.03808 1.03318 0
M  V30 2237 C 218.496 2.41942 -2.51526 0
M  V30 2238 C 219.844 3.06353 -2.93995 0
M  V30 2239 O 220.868 2.52269 -2.51473 0
M  V30 2240 O 219.727 4.04376 -3.67617 0
M  V30 2241 H 216.821 0.635277 -0.529483 0
M  V30 2242 H 219.367 0.695034 -1.54814 0
M  V30 2243 H 218.139 1.89991 -3.42081 0
M  V30 2244 H 217.762 3.22249 -2.32898 0
M  V30 2245 N 218.759 1.29093 0.90403 0
M  V30 2246 C 220.005 1.17996 1.65676 0
M  V30 2247 C 220.36 -0.266816 1.90541 0
M  V30 2248 O 219.653 -1.19 1.50165 0
M  V30 2249 C 219.847 1.92224 3.01305 0
M  V30 2250 C 219.676 3.43972 2.89678 0
M  V30 2251 C 218.446 4.1332 2.90679 0
M  V30 2252 C 220.644 4.39546 2.67028 0
M  V30 2253 N 218.626 5.51463 2.69743 0
M  V30 2254 C 219.997 5.65119 2.5503 0
M  V30 2255 C 222.052 4.29359 2.52101 0
M  V30 2256 C 220.755 6.81663 2.29626 0
M  V30 2257 C 222.781 5.4565 2.28079 0
M  V30 2258 C 222.143 6.70193 2.16843 0
M  V30 2259 H 218.242 0.486759 0.612037 0
M  V30 2260 H 220.826 1.62868 1.06688 0
M  V30 2261 H 218.997 1.49773 3.58361 0
M  V30 2262 H 220.729 1.73429 3.65656 0
M  V30 2263 H 217.484 3.64984 3.01801 0
M  V30 2264 H 217.908 6.24105 2.6234 0
M  V30 2265 H 222.55 3.33769 2.59534 0
M  V30 2266 H 220.268 7.77313 2.20932 0
M  V30 2267 H 223.854 5.39664 2.1738 0
M  V30 2268 H 222.734 7.58659 1.98511 0
M  V30 2269 N 220.237 -1.11381 1.11499 0
M  V30 2270 C 221.465 -1.86934 0.88675 0
M  V30 2271 C 221.88 -1.80195 -0.563476 0
M  V30 2272 O 221.237 -1.18367 -1.38908 0
M  V30 2273 C 221.288 -3.35722 1.34064 0
M  V30 2274 O 221.009 -3.4232 2.73401 0
M  V30 2275 C 222.51 -4.2818 1.14791 0
M  V30 2276 H 219.73 -0.591117 0.317523 0
M  V30 2277 H 222.274 -1.40865 1.48248 0
M  V30 2278 H 220.429 -3.79294 0.788355 0
M  V30 2279 H 220.843 -4.34971 2.93087 0
M  V30 2280 H 222.317 -5.30817 1.5145 0
M  V30 2281 H 222.794 -4.39113 0.0875279 0
M  V30 2282 H 223.4 -3.90402 1.68721 0
M  V30 2283 N 221.715 -0.905404 -1.28997 0
M  V30 2284 C 222.992 -0.453513 -1.9027 0
M  V30 2285 C 223.372 1.06721 -1.82137 0
M  V30 2286 O 222.72 1.91159 -1.25182 0
M  V30 2287 C 222.93 -0.974494 -3.35119 0
M  V30 2288 C 224.278 -1.0216 -4.12127 0
M  V30 2289 O 225.302 -0.922557 -3.44046 0
M  V30 2290 O 224.161 -1.17121 -5.33802 0
M  V30 2291 H 221.255 -0.142347 -0.814657 0
M  V30 2292 H 223.801 -0.995642 -1.37423 0
M  V30 2293 H 222.573 -2.01848 -3.35221 0
M  V30 2294 H 222.196 -0.412706 -3.95452 0
M  V30 2295 N 223.193 1.4272 -0.668489 0
M  V30 2296 C 224.609 1.55992 -0.33745 0
M  V30 2297 C 224.809 1.64933 1.15756 0
M  V30 2298 O 223.865 1.61278 1.94282 0
M  V30 2299 C 225.178 2.81314 -1.06222 0
M  V30 2300 C 226.726 2.95078 -1.04394 0
M  V30 2301 C 227.201 4.23252 -1.74991 0
M  V30 2302 N 228.692 4.3015 -1.71829 0
M  V30 2303 C 229.427 5.28127 -2.23315 0
M  V30 2304 N 228.923 6.32293 -2.83156 0
M  V30 2305 N 230.716 5.19882 -2.13726 0
M  V30 2306 H 222.867 1.3516 -1.63846 0
M  V30 2307 H 225.13 0.650174 -0.689912 0
M  V30 2308 H 224.836 2.80823 -2.11734 0
M  V30 2309 H 224.71 3.72012 -0.62344 0
M  V30 2310 H 227.097 2.951 0.0028244 0
M  V30 2311 H 227.178 2.05627 -1.52155 0
M  V30 2312 H 226.822 4.2399 -2.79633 0
M  V30 2313 H 226.752 5.11626 -1.24685 0
M  V30 2314 H 229.243 3.55499 -1.28175 0
M  V30 2315 H 229.556 7.03398 -3.20079 0
M  V30 2316 H 227.901 6.32873 -2.87223 0
M  V30 2317 H 231.092 4.37423 -1.66669 0
M  V30 2318 H 231.265 5.96077 -2.54158 0
M  V30 2319 N 224.671 0.411399 1.52136 0
M  V30 2320 C 225.896 -0.165538 2.06738 0
M  V30 2321 C 226.321 -1.379 1.27926 0
M  V30 2322 O 225.679 -1.78628 0.310114 0
M  V30 2323 C 225.727 -0.492124 3.57226 0
M  V30 2324 O 224.831 -1.58276 3.80818 0
M  V30 2325 H 224.172 -0.0132132 0.663869 0
M  V30 2326 H 226.702 0.585253 1.96051 0
M  V30 2327 H 226.712 -0.750104 4.01045 0
M  V30 2328 H 225.387 0.394922 4.14021 0
M  V30 2329 H 223.964 -1.31677 3.48877 0
M  V30 2330 N 226.149 -1.5696 0.141893 0
M  V30 2331 C 227.377 -2.00322 -0.517579 0
M  V30 2332 C 227.792 -1.02193 -1.58752 0
M  V30 2333 O 227.149 -0.0181619 -1.82491 0
M  V30 2334 C 227.2 -3.43618 -1.12289 0
M  V30 2335 O 226.921 -4.37995 -0.0956929 0
M  V30 2336 C 228.422 -4.02231 -1.86347 0
M  V30 2337 H 225.642 -0.657243 -0.135177 0
M  V30 2338 H 228.186 -2.03146 0.234973 0
M  V30 2339 H 226.341 -3.41662 -1.82609 0
M  V30 2340 H 226.755 -5.21729 -0.538469 0
M  V30 2341 H 228.229 -5.04509 -2.23997 0
M  V30 2342 H 228.706 -3.42655 -2.74744 0
M  V30 2343 H 229.312 -4.07802 -1.20737 0
M  V30 2344 N 227.627 0.131896 -1.57047 0
M  V30 2345 C 228.59 1.14638 -1.98471 0
M  V30 2346 C 229.59 1.35029 -0.873148 0
M  V30 2347 O 230.78 1.31764 -1.13946 0
M  V30 2348 C 227.912 2.50358 -2.31373 0
M  V30 2349 H 229.105 0.79064 -2.8929 0
M  V30 2350 H 226.658 0.375761 -1.51716 0
M  V30 2351 H 227.393 2.90876 -1.43393 0
M  V30 2352 H 227.178 2.36915 -3.12432 0
M  V30 2353 H 228.668 3.23395 -2.64207 0
M  V30 2354 N 229.106 1.52395 0.401703 0
M  V30 2355 C 230.352 1.67065 1.14966 0
M  V30 2356 C 230.685 0.403052 1.89971 0
M  V30 2357 O 229.96 -0.598774 1.85054 0
M  V30 2358 C 230.243 2.8975 2.13815 0
M  V30 2359 C 230.096 4.26578 1.42658 0
M  V30 2360 C 231.415 3.07965 3.14397 0
M  V30 2361 H 228.534 0.607968 0.416587 0
M  V30 2362 H 231.176 1.84965 0.434511 0
M  V30 2363 H 229.326 2.74619 2.74803 0
M  V30 2364 H 230.998 4.53451 0.847329 0
M  V30 2365 H 229.241 4.27639 0.72849 0
M  V30 2366 H 229.912 5.08483 2.14823 0
M  V30 2367 H 232.388 3.22043 2.63491 0
M  V30 2368 H 231.264 3.95308 3.80819 0
M  V30 2369 H 231.525 2.21611 3.82545 0
M  V30 2370 N 230.584 -0.659388 1.43143 0
M  V30 2371 C 231.514 -1.78422 1.50625 0
M  V30 2372 C 232.495 -1.66216 0.361443 0
M  V30 2373 O 233.68 -1.85404 0.577834 0
M  V30 2374 C 230.81 -3.16815 1.42287 0
M  V30 2375 C 229.764 -3.43777 2.54954 0
M  V30 2376 C 229.09 -4.81905 2.31671 0
M  V30 2377 C 230.39 -3.39134 3.97222 0
M  V30 2378 H 232.084 -1.72417 2.44771 0
M  V30 2379 H 229.63 -0.828084 1.17808 0
M  V30 2380 H 231.583 -3.95253 1.46127 0
M  V30 2381 H 230.307 -3.23534 0.446435 0
M  V30 2382 H 228.966 -2.67707 2.50457 0
M  V30 2383 H 228.614 -4.85294 1.32284 0
M  V30 2384 H 228.314 -5.00906 3.07192 0
M  V30 2385 H 229.838 -5.62609 2.37284 0
M  V30 2386 H 231.252 -4.07518 4.03239 0
M  V30 2387 H 229.649 -3.69671 4.72719 0
M  V30 2388 H 230.719 -2.37426 4.22797 0
M  V30 2389 N 232.062 -1.29571 -0.897171 0
M  V30 2390 C 233.309 -1.17689 -1.6479 0
M  V30 2391 C 233.637 0.27107 -1.92602 0
M  V30 2392 O 232.892 1.21193 -1.53658 0
M  V30 2393 C 233.191 -1.9382 -3.00281 0
M  V30 2394 C 232.857 -3.43522 -2.92068 0
M  V30 2395 C 231.519 -3.84348 -2.89535 0
M  V30 2396 C 233.871 -4.38906 -2.81089 0
M  V30 2397 C 231.199 -5.18869 -2.73846 0
M  V30 2398 C 233.551 -5.73521 -2.66939 0
M  V30 2399 C 232.215 -6.13601 -2.62774 0
M  V30 2400 H 231.485 -0.430654 -0.603008 0
M  V30 2401 H 234.132 -1.60536 -1.04404 0
M  V30 2402 H 232.437 -1.4357 -3.64547 0
M  V30 2403 H 234.134 -1.82028 -3.57305 0
M  V30 2404 H 230.724 -3.11072 -2.94842 0
M  V30 2405 H 234.908 -4.08315 -2.82121 0
M  V30 2406 H 230.164 -5.4903 -2.69027 0
M  V30 2407 H 234.338 -6.47078 -2.57416 0
M  V30 2408 H 231.965 -7.17786 -2.50375 0
M  V30 2409 N 233.54 1.10788 -1.12088 0
M  V30 2410 C 234.788 1.8231 -0.872205 0
M  V30 2411 C 235.109 1.85419 0.603709 0
M  V30 2412 O 234.379 1.32963 1.43867 0
M  V30 2413 H 232.959 0.675137 -0.319686 0
M  V30 2414 H 235.621 1.34068 -1.41463 0
M  V30 2415 H 234.717 2.85955 -1.25045 0
M  V30 2416 N 235.018 0.912232 1.28515 0
M  V30 2417 C 236.295 0.463597 1.90027 0
M  V30 2418 C 236.675 -1.05753 1.82701 0
M  V30 2419 O 236.023 -1.90492 1.26194 0
M  V30 2420 C 236.233 0.992253 3.34597 0
M  V30 2421 C 237.581 1.04344 4.11579 0
M  V30 2422 O 238.605 0.94079 3.43551 0
M  V30 2423 O 237.464 1.1995 5.33174 0
M  V30 2424 H 234.558 0.146666 0.813891 0
M  V30 2425 H 237.104 1.00292 1.36893 0
M  V30 2426 H 235.876 2.03623 3.34146 0
M  V30 2427 H 235.499 0.433672 3.95228 0
M  V30 2428 N 236.496 -1.42363 0.676048 0
M  V30 2429 C 237.744 -2.01123 0.198437 0
M  V30 2430 C 238.065 -1.53731 -1.19966 0
M  V30 2431 O 237.335 -0.759518 -1.80577 0
M  V30 2432 H 235.915 -0.743678 0.0703721 0
M  V30 2433 H 238.577 -1.74263 0.872837 0
M  V30 2434 H 237.673 -3.11454 0.200686 0
M  V30 2435 N 237.974 -0.419461 -1.51915 0
M  V30 2436 C 238.937 0.389116 -2.25873 0
M  V30 2437 C 239.937 0.964924 -1.28631 0
M  V30 2438 O 241.127 0.842179 -1.52489 0
M  V30 2439 C 238.259 1.54874 -3.03689 0
M  V30 2440 H 239.452 -0.258799 -2.98781 0
M  V30 2441 H 237.005 -0.172209 -1.55348 0
M  V30 2442 H 237.74 2.23323 -2.35154 0
M  V30 2443 H 237.525 1.14223 -3.75094 0
M  V30 2444 H 239.015 2.12046 -3.59759 0
M  V30 2445 N 239.452 1.56882 -0.150215 0
M  V30 2446 C 240.415 2.1573 0.774157 0
M  V30 2447 C 241.415 1.0999 1.17298 0
M  V30 2448 O 242.605 1.35613 1.09338 0
M  V30 2449 C 239.737 2.72302 2.05096 0
M  V30 2450 H 240.93 2.98752 0.262201 0
M  V30 2451 H 238.483 1.55985 0.099248 0
M  V30 2452 H 239.218 1.92956 2.6065 0
M  V30 2453 H 239.003 3.49665 1.77416 0
M  V30 2454 H 240.493 3.17632 2.71109 0
M  V30 2455 N 240.93 -0.123565 1.57115 0
M  V30 2456 C 242.178 -0.83051 1.84247 0
M  V30 2457 C 242.499 -1.80629 0.73471 0
M  V30 2458 O 241.769 -1.94403 -0.241688 0
M  V30 2459 H 240.349 -0.309694 0.679778 0
M  V30 2460 H 243.011 -0.111976 1.94578 0
M  V30 2461 H 242.107 -1.37852 2.80006 0
M  V30 2462 N 242.408 -1.52605 -0.393616 0
M  V30 2463 C 243.654 -1.67672 -1.14079 0
M  V30 2464 C 243.987 -0.413121 -1.89755 0
M  V30 2465 O 243.262 0.588952 -1.85369 0
M  V30 2466 C 243.545 -2.9088 -2.12276 0
M  V30 2467 C 243.398 -4.27329 -1.40394 0
M  V30 2468 C 244.717 -3.09628 -3.12759 0
M  V30 2469 H 241.836 -0.610168 -0.413356 0
M  V30 2470 H 244.478 -1.85193 -0.424696 0
M  V30 2471 H 242.628 -2.76073 -2.73342 0
M  V30 2472 H 244.3 -4.53894 -0.82327 0
M  V30 2473 H 242.543 -4.2802 -0.705801 0
M  V30 2474 H 243.214 -5.09615 -2.12123 0
M  V30 2475 H 245.69 -3.23436 -2.61779 0
M  V30 2476 H 244.566 -3.97322 -3.78717 0
M  V30 2477 H 244.827 -2.23637 -3.81365 0
M  V30 2478 N 243.887 0.651787 -1.4349 0
M  V30 2479 C 244.817 1.77621 -1.51569 0
M  V30 2480 C 245.798 1.66022 -0.370253 0
M  V30 2481 O 246.983 1.85095 -0.587658 0
M  V30 2482 C 244.113 3.16056 -1.43966 0
M  V30 2483 C 243.067 3.4242 -2.56774 0
M  V30 2484 C 242.393 4.8067 -2.34223 0
M  V30 2485 C 243.693 3.37023 -3.99015 0
M  V30 2486 H 245.387 1.71117 -2.45681 0
M  V30 2487 H 242.933 0.821825 -1.18246 0
M  V30 2488 H 244.886 3.94472 -1.48221 0
M  V30 2489 H 243.61 3.23293 -0.463586 0
M  V30 2490 H 242.269 2.66375 -2.51873 0
M  V30 2491 H 241.917 4.84585 -1.34856 0
M  V30 2492 H 241.617 4.9927 -3.09844 0
M  V30 2493 H 243.141 5.61342 -2.40265 0
M  V30 2494 H 244.555 4.05374 -4.05395 0
M  V30 2495 H 242.952 3.67159 -4.74673 0
M  V30 2496 H 244.022 2.3518 -4.2405 0
M  V30 2497 N 245.365 1.30045 0.890287 0
M  V30 2498 C 246.614 1.17929 1.63633 0
M  V30 2499 C 246.927 -0.266204 1.9378 0
M  V30 2500 O 248.133 -0.508804 2.6669 0
M  V30 2501 C 246.589 2.06317 2.94892 0
M  V30 2502 C 246.197 3.55745 2.72305 0
M  V30 2503 C 247.941 2.0295 3.72843 0
M  V30 2504 C 245.848 4.36205 3.99348 0
M  V30 2505 H 244.778 0.437782 0.613892 0
M  V30 2506 H 247.429 1.54754 0.986075 0
M  V30 2507 H 245.811 1.6237 3.61182 0
M  V30 2508 H 246.985 4.07805 2.1455 0
M  V30 2509 H 245.3 3.6088 2.07737 0
M  V30 2510 H 247.897 2.60319 4.67053 0
M  V30 2511 H 248.24 1.0117 4.0382 0
M  V30 2512 H 248.773 2.4499 3.13408 0
M  V30 2513 H 245.512 5.38659 3.73533 0
M  V30 2514 H 245.032 3.8891 4.56628 0
M  V30 2515 H 246.711 4.47362 4.67415 0
M  V30 2516 N 246.843 -1.10192 1.12674 0
M  V30 2517 C 247.753 -2.20172 0.810026 0
M  V30 2518 C 248.769 -1.72821 -0.202188 0
M  V30 2519 O 249.945 -2.01369 -0.0351691 0
M  V30 2520 C 247.01 -3.45631 0.272007 0
M  V30 2521 C 246.071 -4.07704 1.34447 0
M  V30 2522 C 245.304 -5.27175 0.832029 0
M  V30 2523 O 245.527 -5.69425 -0.333284 0
M  V30 2524 O 244.461 -5.80168 1.60277 0
M  V30 2525 H 248.287 -2.49701 1.72867 0
M  V30 2526 H 245.872 -1.18977 0.903597 0
M  V30 2527 H 247.754 -4.21394 -0.0230219 0
M  V30 2528 H 246.429 -3.17723 -0.619164 0
M  V30 2529 H 245.336 -3.33614 1.6927 0
M  V30 2530 H 246.669 -4.3982 2.2095 0
M  V30 2531 N 248.321 -0.919034 -1.28029 0
M  V30 2532 C 249.284 -0.416182 -2.2539 0
M  V30 2533 C 250.284 0.460438 -1.54067 0
M  V30 2534 O 251.474 0.262744 -1.72207 0
M  V30 2535 C 248.606 0.402707 -3.38513 0
M  V30 2536 H 249.799 -1.27629 -2.71387 0
M  V30 2537 H 247.352 -0.698919 -1.39803 0
M  V30 2538 H 248.087 1.282 -2.97885 0
M  V30 2539 H 247.872 -0.225698 -3.9145 0
M  V30 2540 H 249.362 0.745191 -4.10897 0
M  V30 2541 N 249.799 1.42003 -0.683588 0
M  V30 2542 C 250.762 2.29191 -0.0198243 0
M  V30 2543 C 251.762 1.43773 0.72013 0
M  V30 2544 O 252.952 1.65061 0.556815 0
M  V30 2545 C 250.084 3.26435 0.982487 0
M  V30 2546 H 251.277 2.8938 -0.787345 0
M  V30 2547 H 248.83 1.49789 -0.446418 0
M  V30 2548 H 249.565 2.71203 1.77819 0
M  V30 2549 H 249.35 3.89449 0.455182 0
M  V30 2550 H 250.84 3.918 1.44508 0
M  V30 2551 N 251.277 0.427512 1.51691 0
M  V30 2552 C 252.187 -0.39527 2.31246 0
M  V30 2553 C 253.203 -1.03674 1.39742 0
M  V30 2554 O 254.379 -1.03425 1.72816 0
M  V30 2555 C 251.444 -1.48706 3.13189 0
M  V30 2556 C 250.505 -0.866743 4.20459 0
M  V30 2557 C 249.738 -1.90651 4.98486 0
M  V30 2558 O 249.961 -3.12733 4.77026 0
M  V30 2559 O 248.895 -1.5025 5.82845 0
M  V30 2560 H 252.721 0.253918 3.02637 0
M  V30 2561 H 250.306 0.190274 1.48183 0
M  V30 2562 H 252.188 -2.12047 3.64162 0
M  V30 2563 H 250.863 -2.12051 2.44573 0
M  V30 2564 H 249.77 -0.195544 3.73589 0
M  V30 2565 H 251.103 -0.276934 4.9142 0
M  V30 2566 N 252.755 -1.56801 0.158532 0
M  V30 2567 C 253.983 -2.00859 -0.496303 0
M  V30 2568 C 254.398 -1.03871 -1.57659 0
M  V30 2569 O 253.755 -0.0375165 -1.82461 0
M  V30 2570 C 253.806 -3.4479 -1.08638 0
M  V30 2571 O 253.527 -4.38072 -0.0492322 0
M  V30 2572 C 255.028 -4.04185 -1.8207 0
M  V30 2573 H 252.248 -0.65864 -0.128199 0
M  V30 2574 H 254.792 -2.02885 0.256506 0
M  V30 2575 H 252.947 -3.43579 -1.78975 0
M  V30 2576 H 253.361 -5.2227 -0.483102 0
M  V30 2577 H 254.835 -5.06857 -2.18633 0
M  V30 2578 H 255.312 -3.45549 -2.71095 0
M  V30 2579 H 255.918 -4.0906 -1.16405 0
M  V30 2580 N 254.233 0.115231 -1.57178 0
M  V30 2581 C 255.644 0.67197 -1.74188 0
M  V30 2582 C 255.995 1.80125 -0.777777 0
M  V30 2583 O 255.12 2.16346 0.0484376 0
M  V30 2584 C 255.715 1.22573 -3.1585 0
M  V30 2585 C 254.274 1.72872 -3.34353 0
M  V30 2586 C 253.421 0.629972 -2.70049 0
M  V30 2587 H 256.372 -0.110712 -1.58313 0
M  V30 2588 H 256.393 2.09535 -3.17609 0
M  V30 2589 H 255.905 0.403598 -3.85996 0
M  V30 2590 H 254.006 2.5755 -2.69256 0
M  V30 2591 H 254.119 1.83557 -4.42542 0
M  V30 2592 H 252.483 1.0645 -2.31388 0
M  V30 2593 H 253.266 -0.181241 -3.42821 0
M  V30 2594 N 255.711 1.52812 0.385517 0
M  V30 2595 C 256.661 1.74219 1.47078 0
M  V30 2596 C 257.645 0.59632 1.49442 0
M  V30 2597 O 258.837 0.85428 1.5502 0
M  V30 2598 C 255.966 1.9176 2.84751 0
M  V30 2599 C 255.052 3.12289 2.86943 0
M  V30 2600 N 255.443 4.34575 2.58802 0
M  V30 2601 C 253.741 3.12605 3.1811 0
M  V30 2602 C 254.442 5.162 2.68166 0
M  V30 2603 N 253.418 4.51964 3.02043 0
M  V30 2604 H 257.22 2.6639 1.24152 0
M  V30 2605 H 254.734 1.51166 0.593504 0
M  V30 2606 H 256.731 2.05218 3.62893 0
M  V30 2607 H 255.391 1.00805 3.08656 0
M  V30 2608 H 256.402 4.62649 2.32759 0
M  V30 2609 H 253.079 2.31472 3.47458 0
M  V30 2610 H 254.469 6.23689 2.49923 0
M  V30 2611 N 257.189 -0.644168 1.43834 0
M  V30 2612 C 258.436 -1.40395 1.4593 0
M  V30 2613 C 258.764 -1.94305 0.0869658 0
M  V30 2614 O 258.019 -1.73288 -0.909378 0
M  V30 2615 C 258.318 -2.59615 2.45631 0
M  V30 2616 C 257.984 -2.2407 3.91284 0
M  V30 2617 C 256.646 -2.14089 4.30952 0
M  V30 2618 C 258.998 -1.95775 4.83034 0
M  V30 2619 C 256.326 -1.73981 5.6031 0
M  V30 2620 C 258.678 -1.57163 6.12766 0
M  V30 2621 C 257.342 -1.45713 6.51402 0
M  V30 2622 H 256.612 -0.513741 0.533995 0
M  V30 2623 H 259.259 -0.731724 1.76969 0
M  V30 2624 H 257.564 -3.32011 2.08028 0
M  V30 2625 H 259.261 -3.17834 2.44504 0
M  V30 2626 H 255.851 -2.32753 3.59895 0
M  V30 2627 H 260.035 -2.02403 4.53152 0
M  V30 2628 H 255.291 -1.63709 5.89075 0
M  V30 2629 H 259.465 -1.34303 6.83327 0
M  V30 2630 H 257.092 -1.14406 7.51542 0
M  V30 2631 N 258.668 -1.30515 -0.883378 0
M  V30 2632 C 259.598 -1.19607 -2.00541 0
M  V30 2633 C 260.579 -0.086346 -1.69881 0
M  V30 2634 O 261.764 -0.268654 -1.92333 0
M  V30 2635 C 258.894 -0.888758 -3.35736 0
M  V30 2636 C 257.848 -1.95659 -3.8066 0
M  V30 2637 C 257.174 -1.50224 -5.13164 0
M  V30 2638 C 258.474 -3.36788 -3.99213 0
M  V30 2639 H 260.168 -2.13476 -2.09925 0
M  V30 2640 H 257.714 -1.02775 -1.00863 0
M  V30 2641 H 259.667 -0.799094 -4.13754 0
M  V30 2642 H 258.391 0.0856125 -3.26488 0
M  V30 2643 H 257.05 -2.03591 -3.04871 0
M  V30 2644 H 256.698 -0.516092 -5.00345 0
M  V30 2645 H 256.398 -2.2165 -5.44192 0
M  V30 2646 H 257.922 -1.42639 -5.93706 0
M  V30 2647 H 259.336 -3.31605 -4.67665 0
M  V30 2648 H 257.733 -4.06314 -4.41621 0
M  V30 2649 H 258.803 -3.78561 -3.03017 0
M  V30 2650 N 260.146 1.09593 -1.13257 0
M  V30 2651 C 261.094 2.18271 -0.803783 0
M  V30 2652 C 262.088 1.68054 0.213148 0
M  V30 2653 O 263.294 1.79862 0.0704699 0
M  V30 2654 H 259.669 0.711949 -0.242143 0
M  V30 2655 H 261.64 2.43235 -1.72856 0
M  V30 2656 C 260.389 3.46536 -0.28424 0
M  V30 2657 H 259.712 3.85545 -1.05807 0
M  V30 2658 H 261.152 4.23899 -0.0925945 0
M  V30 2659 C 259.611 3.22036 0.989684 0
M  V30 2660 O 260.141 3.44509 2.06584 0
M  V30 2661 N 258.347 2.7565 0.920086 0
M  V30 2662 H 257.894 2.57562 0.0442019 0
M  V30 2663 H 257.852 2.59635 1.77306 0
M  V30 2664 N 261.624 0.925811 1.2754 0
M  V30 2665 C 262.534 0.428993 2.30644 0
M  V30 2666 C 263.55 -0.489387 1.66976 0
M  V30 2667 O 264.726 -0.372653 1.97922 0
M  V30 2668 C 261.791 -0.311967 3.45294 0
M  V30 2669 C 260.852 0.641098 4.24486 0
M  V30 2670 C 260.085 -0.0645955 5.33661 0
M  V30 2671 O 260.308 -1.28429 5.55754 0
M  V30 2672 O 259.242 0.606265 5.98839 0
M  V30 2673 H 263.068 1.28504 2.75173 0
M  V30 2674 H 260.653 0.691086 1.32455 0
M  V30 2675 H 262.535 -0.729972 4.15029 0
M  V30 2676 H 261.21 -1.14365 3.02824 0
M  V30 2677 H 260.117 1.10874 3.57292 0
M  V30 2678 H 261.45 1.43995 4.70666 0
M  V30 2679 N 263.102 -1.41638 0.69111 0
M  V30 2680 C 264.049 -2.30789 0.0229705 0
M  V30 2681 C 265.019 -1.46863 -0.775911 0
M  V30 2682 O 266.204 -1.75661 -0.74485 0
M  V30 2683 C 263.344 -3.32868 -0.910666 0
M  V30 2684 C 262.457 -4.31875 -0.103874 0
M  V30 2685 C 261.592 -5.21024 -1.03475 0
M  V30 2686 C 260.631 -6.11702 -0.220598 0
M  V30 2687 N 259.768 -6.93349 -1.10504 0
M  V30 2688 H 264.608 -2.87366 0.788978 0
M  V30 2689 H 262.145 -1.41535 0.400794 0
M  V30 2690 H 264.103 -3.90596 -1.46597 0
M  V30 2691 H 262.733 -2.77851 -1.64312 0
M  V30 2692 H 261.785 -3.76131 0.568285 0
M  V30 2693 H 263.097 -4.96003 0.527504 0
M  V30 2694 H 262.251 -5.83565 -1.65943 0
M  V30 2695 H 260.99 -4.57112 -1.69999 0
M  V30 2696 H 259.995 -5.48215 0.417187 0
M  V30 2697 H 261.22 -6.77668 0.440784 0
M  V30 2698 H 259.166 -6.3205 -1.75638 0
M  V30 2699 H 259.083 -7.54146 -0.529125 0
M  V30 2700 H 260.351 -7.60362 -1.71667 0
M  V30 2701 N 264.58 -0.43555 -1.51462 0
M  V30 2702 C 265.51 0.367376 -2.30592 0
M  V30 2703 C 266.491 1.02263 -1.35928 0
M  V30 2704 O 267.676 1.02661 -1.64847 0
M  V30 2705 C 264.806 1.46983 -3.14664 0
M  V30 2706 C 263.76 0.938161 -4.17591 0
M  V30 2707 C 263.086 2.13622 -4.90173 0
M  V30 2708 C 264.386 -0.0261621 -5.22293 0
M  V30 2709 H 266.08 -0.292969 -2.97963 0
M  V30 2710 H 263.626 -0.14234 -1.43295 0
M  V30 2711 H 265.579 2.03873 -3.688 0
M  V30 2712 H 264.303 2.15843 -2.4511 0
M  V30 2713 H 262.962 0.391481 -3.64504 0
M  V30 2714 H 262.61 2.81098 -4.17124 0
M  V30 2715 H 262.31 1.78688 -5.59772 0
M  V30 2716 H 263.834 2.7107 -5.47132 0
M  V30 2717 H 265.248 0.452384 -5.71512 0
M  V30 2718 H 263.645 -0.287992 -5.99409 0
M  V30 2719 H 264.715 -0.963391 -4.75233 0
M  V30 2720 N 266.058 1.56714 -0.166846 0
M  V30 2721 C 266.99 2.14914 0.796537 0
M  V30 2722 C 268.003 1.10357 1.19688 0
M  V30 2723 O 269.192 1.37561 1.13751 0
M  V30 2724 C 266.292 2.67326 2.08303 0
M  V30 2725 C 265.465 3.96493 1.84696 0
M  V30 2726 C 264.524 4.34014 2.97521 0
M  V30 2727 O 263.55 5.01973 2.6835 0
M  V30 2728 N 264.752 3.95208 4.25196 0
M  V30 2729 H 267.517 2.98205 0.299006 0
M  V30 2730 H 265.078 1.61892 0.0160839 0
M  V30 2731 H 267.07 2.89428 2.82867 0
M  V30 2732 H 265.64 1.88649 2.4926 0
M  V30 2733 H 264.86 3.82814 0.940602 0
M  V30 2734 H 266.148 4.8086 1.66285 0
M  V30 2735 H 265.546 3.40487 4.51758 0
M  V30 2736 H 264.103 4.2232 4.96477 0
M  V30 2737 N 267.536 -0.106894 1.57237 0
M  V30 2738 C 268.499 -1.11466 2.0027 0
M  V30 2739 C 269.499 -1.33623 0.894519 0
M  V30 2740 O 270.689 -1.29935 1.16028 0
M  V30 2741 C 267.821 -2.46646 2.35327 0
M  V30 2742 H 269.014 -0.744516 2.90512 0
M  V30 2743 H 266.567 -0.351576 1.52295 0
M  V30 2744 H 267.302 -2.88558 1.48003 0
M  V30 2745 H 267.087 -2.31915 3.16161 0
M  V30 2746 H 268.577 -3.19151 2.69318 0
M  V30 2747 N 269.014 -1.53014 -0.377408 0
M  V30 2748 C 270.291 -1.59215 -1.13622 0
M  V30 2749 C 270.671 -0.392407 -2.07421 0
M  V30 2750 O 270.019 0.618342 -2.19975 0
M  V30 2751 C 270.229 -2.93669 -1.88573 0
M  V30 2752 C 271.577 -3.47822 -2.43526 0
M  V30 2753 O 272.601 -2.9562 -1.98715 0
M  V30 2754 O 271.46 -4.39055 -3.25412 0
M  V30 2755 H 268.554 -0.642625 -0.52054 0
M  V30 2756 H 271.1 -1.65353 -0.381625 0
M  V30 2757 H 269.872 -3.7243 -1.20048 0
M  V30 2758 H 269.495 -2.90968 -2.70968 0
M  V30 2759 N 270.492 0.636531 -1.44174 0
M  V30 2760 C 271.74 1.39343 -1.46383 0
M  V30 2761 C 272.061 1.94766 -0.0955715 0
M  V30 2762 O 271.331 1.75452 0.871395 0
M  V30 2763 H 269.911 0.517199 -0.538994 0
M  V30 2764 H 272.573 0.74957 -1.7991 0
M  V30 2765 H 271.669 2.22746 -2.18611 0
M  V30 2766 N 271.97 1.30982 0.876444 0
M  V30 2767 C 272.902 1.13902 1.98894 0
M  V30 2768 C 273.915 0.0798815 1.62604 0
M  V30 2769 O 275.104 0.326743 1.75484 0
M  V30 2770 C 272.204 0.716699 3.31235 0
M  V30 2771 C 271.377 1.85945 3.95908 0
M  V30 2772 C 270.436 1.42426 5.06558 0
M  V30 2773 O 269.462 2.13287 5.27729 0
M  V30 2774 N 270.664 0.308025 5.79682 0
M  V30 2775 H 273.429 2.09724 2.14094 0
M  V30 2776 H 270.99 1.2323 1.05004 0
M  V30 2777 H 272.982 0.408403 4.02634 0
M  V30 2778 H 271.552 -0.149719 3.12241 0
M  V30 2779 H 270.772 2.33541 3.17573 0
M  V30 2780 H 272.06 2.62503 4.35855 0
M  V30 2781 H 271.458 -0.282241 5.64995 0
M  V30 2782 H 270.015 0.0592282 6.51773 0
M  V30 2783 N 273.449 -1.08991 1.13837 0
M  V30 2784 C 274.865 -1.33312 0.877506 0
M  V30 2785 C 275.065 -1.95587 -0.48456 0
M  V30 2786 O 274.121 -2.20509 -1.23013 0
M  V30 2787 C 275.434 -2.24045 2.0056 0
M  V30 2788 C 276.982 -2.37542 2.03821 0
M  V30 2789 C 277.457 -3.31614 3.15905 0
M  V30 2790 N 278.948 -3.39189 3.15445 0
M  V30 2791 C 279.683 -4.11992 3.98811 0
M  V30 2792 N 279.179 -4.87553 4.92203 0
M  V30 2793 N 280.972 -4.07762 3.86894 0
M  V30 2794 H 273.123 -0.669456 2.01574 0
M  V30 2795 H 275.386 -0.357482 0.878015 0
M  V30 2796 H 275.092 -1.85521 2.98789 0
M  V30 2797 H 274.966 -3.24466 1.92359 0
M  V30 2798 H 277.353 -2.75327 1.06202 0
M  V30 2799 H 277.434 -1.36884 2.16093 0
M  V30 2800 H 277.078 -2.94551 4.13766 0
M  V30 2801 H 277.008 -4.32186 3.0087 0
M  V30 2802 H 279.499 -2.85314 2.47799 0
M  V30 2803 H 279.812 -5.40549 5.52292 0
M  V30 2804 H 278.157 -4.86627 4.96205 0
M  V30 2805 H 281.348 -3.47833 3.13257 0
M  V30 2806 H 281.521 -4.64238 4.52092 0
M  V30 2807 N 274.927 -0.932562 -1.27047 0
M  V30 2808 C 276.173 -0.585913 -1.94778 0
M  V30 2809 C 276.528 0.864142 -1.71902 0
M  V30 2810 O 275.821 1.60894 -1.04037 0
M  V30 2811 C 276.015 -0.853713 -3.47054 0
M  V30 2812 C 275.844 -2.32825 -3.84737 0
M  V30 2813 C 274.614 -2.98184 -4.07939 0
M  V30 2814 C 276.812 -3.30612 -3.93954 0
M  V30 2815 N 274.794 -4.3574 -4.3244 0
M  V30 2816 C 276.165 -4.53395 -4.22887 0
M  V30 2817 C 278.22 -3.25755 -3.76548 0
M  V30 2818 C 276.923 -5.71927 -4.36224 0
M  V30 2819 C 278.949 -4.43604 -3.91113 0
M  V30 2820 C 278.311 -5.65166 -4.20437 0
M  V30 2821 H 274.41 -0.264617 -0.735868 0
M  V30 2822 H 276.994 -1.20019 -1.53309 0
M  V30 2823 H 275.165 -0.268557 -3.8747 0
M  V30 2824 H 276.897 -0.469202 -4.01971 0
M  V30 2825 H 273.652 -2.48835 -4.02961 0
M  V30 2826 H 274.076 -5.06915 -4.48738 0
M  V30 2827 H 278.718 -2.32835 -3.52913 0
M  V30 2828 H 276.436 -6.65308 -4.58683 0
M  V30 2829 H 280.022 -4.41368 -3.79059 0
M  V30 2830 H 278.902 -6.54836 -4.31462 0
M  V30 2831 N 276.405 1.4127 -0.698611 0
M  V30 2832 C 277.368 2.29158 -0.044132 0
M  V30 2833 C 278.368 1.44529 0.704841 0
M  V30 2834 O 279.558 1.65643 0.539276 0
M  V30 2835 C 276.69 3.27459 0.947809 0
M  V30 2836 H 277.883 2.88529 -0.817994 0
M  V30 2837 H 275.436 1.49307 -0.46228 0
M  V30 2838 H 276.171 2.73073 1.74933 0
M  V30 2839 H 275.956 3.8991 0.41385 0
M  V30 2840 H 277.446 3.93311 1.40344 0
M  V30 2841 N 277.883 0.443576 1.51229 0
M  V30 2842 C 278.846 -0.353132 2.26463 0
M  V30 2843 C 279.846 -0.944338 1.3015 0
M  V30 2844 O 281.036 -0.817813 1.5381 0
M  V30 2845 C 278.168 -1.50023 3.06114 0
M  V30 2846 H 279.361 0.3063 2.98332 0
M  V30 2847 H 276.914 0.196902 1.55055 0
M  V30 2848 H 277.649 -2.19553 2.38677 0
M  V30 2849 H 277.434 -1.08241 3.76864 0
M  V30 2850 H 278.924 -2.06296 3.63087 0
M  V30 2851 N 279.361 -1.56624 0.175154 0
M  V30 2852 C 280.291 -2.21155 -0.749195 0
M  V30 2853 C 281.272 -1.16836 -1.23626 0
M  V30 2854 O 282.457 -1.45277 -1.28873 0
M  V30 2855 C 279.587 -2.8553 -1.97711 0
M  V30 2856 C 278.541 -3.95921 -1.62575 0
M  V30 2857 C 277.867 -4.47365 -2.92864 0
M  V30 2858 C 279.167 -5.15323 -0.850838 0
M  V30 2859 H 280.861 -2.98653 -0.211295 0
M  V30 2860 H 278.407 -1.43651 -0.100188 0
M  V30 2861 H 280.36 -3.2935 -2.62881 0
M  V30 2862 H 279.084 -2.05406 -2.53921 0
M  V30 2863 H 277.743 -3.52762 -0.997719 0
M  V30 2864 H 277.391 -3.64027 -3.47122 0
M  V30 2865 H 277.091 -5.21839 -2.70106 0
M  V30 2866 H 278.615 -4.93873 -3.59056 0
M  V30 2867 H 280.029 -5.55812 -1.40521 0
M  V30 2868 H 278.426 -5.95739 -0.722154 0
M  V30 2869 H 279.496 -4.84661 0.152082 0
M  V30 2870 N 280.839 0.0985539 -1.57292 0
M  V30 2871 C 282.067 0.816318 -1.90115 0
M  V30 2872 C 282.482 1.72451 -0.768509 0
M  V30 2873 O 281.839 1.80643 0.259687 0
M  V30 2874 C 281.89 1.63259 -3.22535 0
M  V30 2875 O 281.611 0.760934 -4.31441 0
M  V30 2876 C 283.112 2.45372 -3.69199 0
M  V30 2877 H 280.332 0.233595 -0.629027 0
M  V30 2878 H 282.876 0.0768229 -2.04356 0
M  V30 2879 H 281.031 2.32463 -3.09903 0
M  V30 2880 H 281.445 1.32595 -5.07463 0
M  V30 2881 H 282.919 2.98144 -4.64558 0
M  V30 2882 H 283.396 3.23677 -2.96867 0
M  V30 2883 H 284.002 1.81373 -3.84687 0
M  V30 2884 N 282.317 1.53212 0.369288 0
M  V30 2885 C 283.542 1.73423 1.1375 0
M  V30 2886 C 283.967 0.460404 1.82378 0
M  V30 2887 O 283.325 -0.585298 1.71592 0
M  V30 2888 C 283.373 2.89769 2.1463 0
M  V30 2889 O 282.477 2.58119 3.21634 0
M  V30 2890 H 281.818 0.576061 0.330227 0
M  V30 2891 H 284.348 2.00083 0.427547 0
M  V30 2892 H 284.358 3.15829 2.58294 0
M  V30 2893 H 283.033 3.8217 1.64071 0
M  V30 2894 H 281.61 2.42864 2.82969 0
M  V30 2895 N 283.795 -0.628877 1.44509 0
M  V30 2896 C 285.043 -1.38565 1.4712 0
M  V30 2897 C 285.364 -1.94712 0.105899 0
M  V30 2898 O 284.634 -1.75912 -0.862079 0
M  V30 2899 H 283.214 -0.514333 0.541729 0
M  V30 2900 H 285.876 -0.740018 1.80305 0
M  V30 2901 H 284.972 -2.21583 2.19789 0
M  V30 2902 N 285.273 -1.31445 -0.869486 0
M  V30 2903 C 286.503 -1.23942 -1.65294 0
M  V30 2904 C 286.911 0.197561 -1.88166 0
M  V30 2905 O 286.254 1.14019 -1.44033 0
M  V30 2906 C 286.316 -1.91385 -3.04322 0
M  V30 2907 C 285.98 -3.40726 -3.04557 0
M  V30 2908 C 286.977 -4.36464 -2.82481 0
M  V30 2909 C 284.662 -3.82425 -3.25663 0
M  V30 2910 C 286.656 -5.71876 -2.8149 0
M  V30 2911 C 284.343 -5.1795 -3.243 0
M  V30 2912 C 285.341 -6.12486 -3.02241 0
M  V30 2913 O 285.029 -7.45534 -3.00724 0
M  V30 2914 H 284.761 -0.429459 -0.522054 0
M  V30 2915 H 287.315 -1.73873 -1.0935 0
M  V30 2916 H 285.545 -1.36004 -3.61994 0
M  V30 2917 H 287.234 -1.77791 -3.64891 0
M  V30 2918 H 288 -4.05576 -2.65956 0
M  V30 2919 H 283.879 -3.09274 -3.41863 0
M  V30 2920 H 287.423 -6.45638 -2.64191 0
M  V30 2921 H 283.32 -5.48473 -3.40365 0
M  V30 2922 H 284.088 -7.54713 -3.16782 0
M  V30 2923 N 286.751 1.08385 -1.14413 0
M  V30 2924 C 287.979 1.84517 -0.936001 0
M  V30 2925 C 288.394 1.81626 0.515503 0
M  V30 2926 O 287.751 1.22008 1.35721 0
M  V30 2927 C 287.802 3.32049 -1.42918 0
M  V30 2928 O 287.523 3.34951 -2.82381 0
M  V30 2929 C 289.024 4.24986 -1.26103 0
M  V30 2930 H 286.244 0.582491 -0.333084 0
M  V30 2931 H 288.788 1.36885 -1.5193 0
M  V30 2932 H 286.943 3.7707 -0.888641 0
M  V30 2933 H 287.357 4.27048 -3.04517 0
M  V30 2934 H 288.831 5.26615 -1.6547 0
M  V30 2935 H 289.308 4.38726 -0.20392 0
M  V30 2936 H 289.914 3.85791 -1.79012 0
M  V30 2937 N 288.23 0.939286 1.26551 0
M  V30 2938 C 289.479 0.581601 1.93133 0
M  V30 2939 C 289.792 -0.883224 1.74524 0
M  V30 2940 O 290.998 -1.3502 2.35546 0
M  V30 2941 C 289.454 0.989425 3.46032 0
M  V30 2942 C 289.062 2.47573 3.73379 0
M  V30 2943 C 290.806 0.703544 4.18629 0
M  V30 2944 C 288.713 2.82235 5.19709 0
M  V30 2945 H 287.643 0.213803 0.723052 0
M  V30 2946 H 290.294 1.14167 1.4366 0
M  V30 2947 H 288.676 0.357902 3.94379 0
M  V30 2948 H 289.85 3.15614 3.35744 0
M  V30 2949 H 288.165 2.73471 3.1401 0
M  V30 2950 H 290.762 0.938869 5.26393 0
M  V30 2951 H 291.105 -0.359639 4.14744 0
M  V30 2952 H 291.638 1.2947 3.76141 0
M  V30 2953 H 288.377 3.87509 5.28694 0
M  V30 2954 H 287.897 2.18854 5.58447 0
M  V30 2955 H 289.576 2.70599 5.87695 0
M  V30 2956 N 289.708 -1.40897 0.706093 0
M  V30 2957 C 290.656 -2.32572 0.0361893 0
M  V30 2958 C 291.65 -1.51532 -0.757266 0
M  V30 2959 O 292.856 -1.67396 -0.661703 0
M  V30 2960 H 289.231 -0.751966 -0.00709935 0
M  V30 2961 H 291.202 -2.86733 0.826249 0
M  V30 2962 C 289.951 -3.36418 -0.87854 0
M  V30 2963 H 289.274 -3.98836 -0.277401 0
M  V30 2964 H 290.714 -4.0308 -1.3154 0
M  V30 2965 C 289.173 -2.71141 -1.99961 0
M  V30 2966 O 289.703 -2.56735 -3.0895 0
M  V30 2967 N 287.909 -2.29671 -1.78043 0
M  V30 2968 H 287.456 -2.41588 -0.894042 0
M  V30 2969 H 287.414 -1.86332 -2.53235 0
M  V30 2970 N 291.186 -0.45159 -1.50991 0
M  V30 2971 C 292.096 0.358431 -2.31846 0
M  V30 2972 C 293.112 1.01438 -1.41373 0
M  V30 2973 O 294.288 1.00663 -1.74439 0
M  V30 2974 C 291.353 1.43704 -3.15515 0
M  V30 2975 C 290.414 0.799742 -4.21785 0
M  V30 2976 C 289.647 1.82696 -5.01456 0
M  V30 2977 O 289.87 3.05105 -4.81941 0
M  V30 2978 O 288.804 1.40958 -5.85162 0
M  V30 2979 H 292.63 -0.302032 -3.02194 0
M  V30 2980 H 290.215 -0.213825 -1.47862 0
M  V30 2981 H 292.097 2.06227 -3.67489 0
M  V30 2982 H 290.772 2.08133 -2.47916 0
M  V30 2983 H 289.679 0.136084 -3.73852 0
M  V30 2984 H 291.012 0.198718 -4.91799 0
M  V30 2985 N 292.664 1.56529 -0.183458 0
M  V30 2986 C 293.889 2.02064 0.467428 0
M  V30 2987 C 294.314 1.06282 1.55196 0
M  V30 2988 O 293.672 0.0443565 1.81246 0
M  V30 2989 C 293.72 3.46122 1.01153 0
M  V30 2990 O 292.824 3.53437 2.12499 0
M  V30 2991 H 292.165 0.654726 0.110588 0
M  V30 2992 H 294.695 2.02521 -0.290917 0
M  V30 2993 H 294.705 3.85676 1.33108 0
M  V30 2994 H 293.38 4.15331 0.217533 0
M  V30 2995 H 291.957 3.2575 1.81497 0
M  V30 2996 N 294.142 -0.090211 1.57342 0
M  V30 2997 C 295.553 -0.644173 1.75235 0
M  V30 2998 C 295.904 -1.78865 0.806335 0
M  V30 2999 O 295.029 -2.16395 -0.0140128 0
M  V30 3000 C 295.624 -1.17532 3.1776 0
M  V30 3001 C 294.183 -1.67531 3.37061 0
M  V30 3002 C 293.33 -0.58693 2.71017 0
M  V30 3003 H 296.281 0.135884 1.58117 0
M  V30 3004 H 296.302 -2.04455 3.20902 0
M  V30 3005 H 295.814 -0.342138 3.86589 0
M  V30 3006 H 293.915 -2.53234 2.73319 0
M  V30 3007 H 294.028 -1.76493 4.45406 0
M  V30 3008 H 292.392 -1.02756 2.33052 0
M  V30 3009 H 293.175 0.235758 3.4249 0
M  V30 3010 N 295.62 -1.53406 -0.361157 0
M  V30 3011 C 296.867 -1.69802 -1.10333 0
M  V30 3012 C 297.195 -0.452087 -1.89173 0
M  V30 3013 O 296.45 0.566017 -1.87336 0
M  V30 3014 C 296.749 -2.90211 -2.08596 0
M  V30 3015 C 296.415 -4.26539 -1.46203 0
M  V30 3016 C 295.077 -4.6361 -1.28915 0
M  V30 3017 C 297.429 -5.113 -1.01101 0
M  V30 3018 C 294.757 -5.83075 -0.651157 0
M  V30 3019 C 297.109 -6.31415 -0.387007 0
M  V30 3020 C 295.773 -6.67195 -0.201657 0
M  V30 3021 H 295.043 -0.621351 -0.403737 0
M  V30 3022 H 297.69 -1.87598 -0.384609 0
M  V30 3023 H 295.995 -2.66946 -2.86788 0
M  V30 3024 H 297.692 -3.00091 -2.65982 0
M  V30 3025 H 294.282 -3.97352 -1.60653 0
M  V30 3026 H 298.466 -4.83206 -1.13249 0
M  V30 3027 H 293.722 -6.09385 -0.496006 0
M  V30 3028 H 297.896 -6.96394 -0.0293563 0
M  V30 3029 H 295.523 -7.59628 0.294766 0
M  V30 3030 N 297.098 0.621204 -1.44841 0
M  V30 3031 C 298.328 1.40548 -1.51426 0
M  V30 3032 C 298.736 1.88673 -0.141083 0
M  V30 3033 O 298.079 1.62053 0.865128 0
M  V30 3034 C 298.141 2.65325 -2.42576 0
M  V30 3035 C 297.805 2.3893 -3.89566 0
M  V30 3036 C 298.802 2.00138 -4.79834 0
M  V30 3037 C 296.487 2.52263 -4.3436 0
M  V30 3038 C 298.481 1.75021 -6.129 0
M  V30 3039 C 296.168 2.2676 -5.67471 0
M  V30 3040 C 297.166 1.88199 -6.56559 0
M  V30 3041 O 296.854 1.62986 -7.87204 0
M  V30 3042 H 296.586 0.437122 -0.515655 0
M  V30 3043 H 299.14 0.765987 -1.90583 0
M  V30 3044 H 297.37 3.31947 -1.98364 0
M  V30 3045 H 299.059 3.27347 -2.39998 0
M  V30 3046 H 299.825 1.89386 -4.46495 0
M  V30 3047 H 295.704 2.81246 -3.65269 0
M  V30 3048 H 299.248 1.44848 -6.82396 0
M  V30 3049 H 295.145 2.37125 -6.00368 0
M  V30 3050 H 295.913 1.7715 -7.991 0
M  V30 3051 N 298.576 1.31904 0.862503 0
M  V30 3052 C 299.508 1.16005 1.97675 0
M  V30 3053 C 300.521 0.0971234 1.6251 0
M  V30 3054 O 301.71 0.345337 1.75128 0
M  V30 3055 C 298.81 0.751791 3.30456 0
M  V30 3056 C 297.983 1.90133 3.93914 0
M  V30 3057 C 297.042 1.4779 5.05019 0
M  V30 3058 O 296.068 2.18872 5.25437 0
M  V30 3059 N 297.27 0.369491 5.79323 0
M  V30 3060 H 300.035 2.11982 2.11857 0
M  V30 3061 H 297.596 1.24337 1.03691 0
M  V30 3062 H 299.588 0.451084 4.02178 0
M  V30 3063 H 298.158 -0.116593 3.12382 0
M  V30 3064 H 297.378 2.36896 3.15078 0
M  V30 3065 H 298.666 2.67111 4.33047 0
M  V30 3066 H 298.064 -0.222299 5.65263 0
M  V30 3067 H 296.621 0.128354 6.51674 0
M  V30 3068 N 300.054 -1.07777 1.14986 0
M  V30 3069 C 301.302 -1.79934 0.920235 0
M  V30 3070 C 301.623 -1.86955 -0.554336 0
M  V30 3071 O 300.893 -1.36731 -1.40291 0
M  V30 3072 H 299.473 -0.666424 0.337473 0
M  V30 3073 H 302.135 -1.3027 1.44968 0
M  V30 3074 H 301.231 -2.82539 1.32583 0
M  V30 3075 N 301.532 -0.945985 -1.26051 0
M  V30 3076 C 302.482 -0.430164 -2.23905 0
M  V30 3077 C 303.466 0.47579 -1.53704 0
M  V30 3078 O 304.658 0.310252 -1.7426 0
M  V30 3079 C 301.787 0.298957 -3.41996 0
M  V30 3080 C 300.873 -0.624566 -4.19476 0
M  V30 3081 N 301.264 -1.75245 -4.74471 0
M  V30 3082 C 299.562 -0.431082 -4.43912 0
M  V30 3083 C 300.263 -2.32834 -5.3307 0
M  V30 3084 N 299.239 -1.61583 -5.1903 0
M  V30 3085 H 303.041 -1.29107 -2.64024 0
M  V30 3086 H 300.555 -0.802428 -1.41191 0
M  V30 3087 H 302.552 0.685565 -4.11225 0
M  V30 3088 H 301.212 1.15657 -3.03403 0
M  V30 3089 H 302.223 -2.13449 -4.71868 0
M  V30 3090 H 298.9 0.384364 -4.15727 0
M  V30 3091 H 300.29 -3.27893 -5.86461 0
M  V30 3092 N 303.011 1.40521 -0.713556 0
M  V30 3093 C 303.958 2.30723 -0.059684 0
M  V30 3094 C 304.928 1.48079 0.752448 0
M  V30 3095 O 306.113 1.76823 0.71681 0
M  V30 3096 C 303.253 3.34274 0.857594 0
M  V30 3097 C 302.366 4.31986 0.0351536 0
M  V30 3098 C 301.501 5.22605 0.951724 0
M  V30 3099 C 300.54 6.11976 0.123253 0
M  V30 3100 N 299.677 6.9502 0.99459 0
M  V30 3101 H 304.517 2.86074 -0.834596 0
M  V30 3102 H 302.054 1.40879 -0.42326 0
M  V30 3103 H 304.012 3.92879 1.40364 0
M  V30 3104 H 302.642 2.8043 1.59871 0
M  V30 3105 H 301.694 3.7518 -0.628052 0
M  V30 3106 H 303.006 4.95101 -0.606347 0
M  V30 3107 H 302.16 5.86131 1.56638 0
M  V30 3108 H 300.899 4.59759 1.62705 0
M  V30 3109 H 299.904 5.47482 -0.50435 0
M  V30 3110 H 301.129 6.76881 -0.548539 0
M  V30 3111 H 299.075 6.34764 1.6556 0
M  V30 3112 H 298.992 7.54892 0.40908 0
M  V30 3113 H 300.26 7.62997 1.59549 0
M  V30 3114 N 304.489 0.459591 1.5075 0
M  V30 3115 C 305.421 -0.37665 2.26084 0
M  V30 3116 C 306.434 -0.967109 1.30961 0
M  V30 3117 O 307.623 -0.857468 1.56556 0
M  V30 3118 C 304.723 -1.54112 3.01832 0
M  V30 3119 C 303.896 -1.06553 4.24223 0
M  V30 3120 C 302.955 -2.1027 4.82362 0
M  V30 3121 O 301.981 -1.68798 5.43595 0
M  V30 3122 N 303.183 -3.42974 4.68347 0
M  V30 3123 H 305.948 0.269124 2.98489 0
M  V30 3124 H 303.509 0.28972 1.59287 0
M  V30 3125 H 305.501 -2.23165 3.37608 0
M  V30 3126 H 304.071 -2.0918 2.32298 0
M  V30 3127 H 303.291 -0.201274 3.93686 0
M  V30 3128 H 304.579 -0.725516 5.03601 0
M  V30 3129 H 303.977 -3.79385 4.19623 0
M  V30 3130 H 302.534 -4.07858 5.08424 0
M  V30 3131 N 305.967 -1.56429 0.191757 0
M  V30 3132 C 306.93 -2.17707 -0.716688 0
M  V30 3133 C 307.93 -1.13061 -1.14341 0
M  V30 3134 O 309.12 -1.38464 -1.05704 0
M  V30 3135 C 306.252 -2.77644 -1.97804 0
M  V30 3136 H 307.445 -2.99342 -0.1829 0
M  V30 3137 H 304.998 -1.56193 -0.0578566 0
M  V30 3138 H 305.733 -1.99799 -2.55443 0
M  V30 3139 H 305.518 -3.54246 -1.68083 0
M  V30 3140 H 307.008 -3.24708 -2.62592 0
M  V30 3141 N 307.445 0.0818655 -1.57387 0
M  V30 3142 C 308.67 0.799946 -1.91352 0
M  V30 3143 C 309.095 1.70833 -0.787258 0
M  V30 3144 O 308.453 1.79419 0.26048 0
M  V30 3145 C 308.501 1.57812 -3.24234 0
M  V30 3146 O 307.605 2.68806 -3.12757 0
M  V30 3147 H 306.946 0.21891 -0.626877 0
M  V30 3148 H 309.476 0.0531256 -2.04531 0
M  V30 3149 H 309.486 1.95952 -3.57864 0
M  V30 3150 H 308.161 0.911548 -4.05788 0
M  V30 3151 H 306.738 2.33597 -2.90666 0
M  V30 3152 N 308.923 1.53595 0.353017 0
M  V30 3153 C 309.87 1.80919 1.43308 0
M  V30 3154 C 310.84 0.654288 1.5267 0
M  V30 3155 O 312.025 0.897759 1.6836 0
M  V30 3156 C 309.165 2.01605 2.80089 0
M  V30 3157 C 308.278 3.29321 2.79593 0
M  V30 3158 C 307.413 3.40125 4.0803 0
M  V30 3159 C 306.452 4.61826 4.01725 0
M  V30 3160 N 305.589 4.69716 5.21834 0
M  V30 3161 H 310.429 2.73074 1.19308 0
M  V30 3162 H 307.966 1.35263 0.578131 0
M  V30 3163 H 309.924 2.11586 3.59565 0
M  V30 3164 H 308.554 1.12772 3.0246 0
M  V30 3165 H 307.606 3.28229 1.92276 0
M  V30 3166 H 308.918 4.18884 2.70809 0
M  V30 3167 H 308.072 3.49488 4.95927 0
M  V30 3168 H 306.811 2.48601 4.19582 0
M  V30 3169 H 305.816 4.52552 3.12213 0
M  V30 3170 H 307.041 5.54705 3.91764 0
M  V30 3171 H 304.987 3.81097 5.33948 0
M  V30 3172 H 304.904 5.53202 5.1527 0
M  V30 3173 H 306.172 4.83376 6.11529 0
M  V30 3174 N 310.401 -0.613514 1.45168 0
M  V30 3175 C 311.629 -1.39946 1.5239 0
M  V30 3176 C 312.044 -1.88167 0.154531 0
M  V30 3177 O 311.401 -1.61872 -0.842843 0
M  V30 3178 C 311.452 -2.60795 2.50337 0
M  V30 3179 O 311.173 -2.1458 3.81952 0
M  V30 3180 C 312.674 -3.53723 2.67198 0
M  V30 3181 H 309.894 -0.428593 0.516284 0
M  V30 3182 H 312.438 -0.748753 1.903 0
M  V30 3183 H 310.593 -3.21919 2.15515 0
M  V30 3184 H 311.007 -2.93055 4.34993 0
M  V30 3185 H 312.481 -4.35079 3.39721 0
M  V30 3186 H 312.958 -4.0368 1.73029 0
M  V30 3187 H 313.564 -2.98456 3.02992 0
M  V30 3188 N 311.879 -1.3236 -0.855495 0
M  V30 3189 C 312.809 -1.23833 -1.97958 0
M  V30 3190 C 313.79 -0.122361 -1.69659 0
M  V30 3191 O 314.975 -0.30939 -1.9172 0
M  V30 3192 C 312.105 -0.959772 -3.33775 0
M  V30 3193 C 311.059 -2.03689 -3.76424 0
M  V30 3194 C 310.385 -1.61075 -5.09862 0
M  V30 3195 C 311.685 -3.4518 -3.9198 0
M  V30 3196 H 313.379 -2.1788 -2.0535 0
M  V30 3197 H 310.925 -1.04891 -0.986605 0
M  V30 3198 H 312.878 -0.886678 -4.11966 0
M  V30 3199 H 311.602 0.0163404 -3.26596 0
M  V30 3200 H 310.261 -2.10012 -3.00484 0
M  V30 3201 H 309.909 -0.622107 -4.99138 0
M  V30 3202 H 309.609 -2.33143 -5.39368 0
M  V30 3203 H 311.133 -1.55201 -5.90546 0
M  V30 3204 H 312.547 -3.4145 -4.60526 0
M  V30 3205 H 310.944 -4.1559 -4.32903 0
M  V30 3206 H 312.014 -3.84903 -2.94919 0
M  V30 3207 N 313.357 1.07166 -1.15556 0
M  V30 3208 C 314.289 2.14341 -0.811815 0
M  V30 3209 C 315.302 1.61835 0.177015 0
M  V30 3210 O 316.491 1.78439 -0.0464996 0
M  V30 3211 C 313.591 3.38387 -0.186481 0
M  V30 3212 C 312.764 4.20238 -1.21321 0
M  V30 3213 C 311.823 5.2266 -0.609302 0
M  V30 3214 O 310.849 5.54719 -1.27576 0
M  V30 3215 N 312.051 5.77306 0.608099 0
M  V30 3216 H 314.816 2.44431 -1.73417 0
M  V30 3217 H 312.377 1.23089 -1.0517 0
M  V30 3218 H 314.369 4.04044 0.230339 0
M  V30 3219 H 312.939 3.05994 0.639249 0
M  V30 3220 H 312.159 3.50369 -1.80652 0
M  V30 3221 H 313.447 4.71736 -1.90638 0
M  V30 3222 H 312.845 5.53513 1.1679 0
M  V30 3223 H 311.402 6.44583 0.96725 0
M  V30 3224 N 314.835 0.952656 1.25548 0
M  V30 3225 C 315.768 0.415525 2.24385 0
M  V30 3226 C 316.746 -0.502046 1.54655 0
M  V30 3227 O 317.93 -0.436875 1.83368 0
M  V30 3228 C 315.057 -0.401734 3.36309 0
M  V30 3229 C 314.103 0.455949 4.24056 0
M  V30 3230 S 314.936 1.88698 5.01152 0
M  V30 3231 C 316.092 1.07809 6.16545 0
M  V30 3232 H 316.325 1.25315 2.69599 0
M  V30 3233 H 313.858 0.756587 1.34592 0
M  V30 3234 H 315.816 -0.867329 4.01233 0
M  V30 3235 H 314.477 -1.21416 2.89684 0
M  V30 3236 H 313.67 -0.170776 5.03711 0
M  V30 3237 H 313.272 0.856675 3.64056 0
M  V30 3238 H 315.564 0.325816 6.76716 0
M  V30 3239 H 316.507 1.84849 6.83547 0
M  V30 3240 H 316.915 0.60909 5.61204 0
M  V30 3241 N 316.313 -1.40141 0.720998 0
M  V30 3242 C 317.223 -2.34486 0.0731031 0
M  V30 3243 C 318.239 -1.57587 -0.737723 0
M  V30 3244 O 319.415 -1.89949 -0.669429 0
M  V30 3245 C 316.48 -3.36528 -0.833656 0
M  V30 3246 C 315.541 -4.29298 -0.0121673 0
M  V30 3247 C 314.774 -5.26466 -0.875742 0
M  V30 3248 O 314.997 -5.29745 -2.11485 0
M  V30 3249 O 313.931 -6.01092 -0.31185 0
M  V30 3250 H 317.757 -2.9152 0.851444 0
M  V30 3251 H 315.342 -1.41427 0.481527 0
M  V30 3252 H 317.224 -3.99093 -1.35289 0
M  V30 3253 H 315.899 -2.81899 -1.59105 0
M  V30 3254 H 314.806 -3.70001 0.552262 0
M  V30 3255 H 316.139 -4.87094 0.707129 0
M  V30 3256 N 317.792 -0.46758 -1.50504 0
M  V30 3257 C 319.04 0.0884469 -2.01906 0
M  V30 3258 C 319.361 1.40532 -1.35188 0
M  V30 3259 O 318.631 1.89515 -0.496079 0
M  V30 3260 H 317.211 0.0356765 -0.746148 0
M  V30 3261 H 319.873 -0.6172 -1.84869 0
M  V30 3262 H 318.969 0.2425 -3.11156 0
M  V30 3263 N 319.27 1.56325 -0.20005 0
M  V30 3264 C 320.686 1.58839 0.155716 0
M  V30 3265 C 320.886 1.21636 1.60645 0
M  V30 3266 O 319.942 0.941437 2.34293 0
M  V30 3267 C 321.255 3.0032 -0.151124 0
M  V30 3268 C 322.803 3.12866 -0.0916284 0
M  V30 3269 C 323.278 4.56488 -0.371845 0
M  V30 3270 N 324.769 4.62089 -0.320641 0
M  V30 3271 C 325.504 5.71116 -0.511243 0
M  V30 3272 N 325 6.88592 -0.762461 0
M  V30 3273 N 326.793 5.60335 -0.445157 0
M  V30 3274 H 318.944 1.78788 -1.14668 0
M  V30 3275 H 321.207 0.829996 -0.458051 0
M  V30 3276 H 320.913 3.32117 -1.15721 0
M  V30 3277 H 320.787 3.73257 0.543986 0
M  V30 3278 H 323.174 2.80878 0.905065 0
M  V30 3279 H 323.255 2.42304 -0.81989 0
M  V30 3280 H 322.899 4.89189 -1.36588 0
M  V30 3281 H 322.829 5.25246 0.377362 0
M  V30 3282 H 325.32 3.77665 -0.13329 0
M  V30 3283 H 325.633 7.67581 -0.896576 0
M  V30 3284 H 323.978 6.90387 -0.799412 0
M  V30 3285 H 327.169 4.67436 -0.249278 0
M  V30 3286 H 327.342 6.45243 -0.597116 0
M  V30 3287 N 320.748 -0.0735177 1.57428 0
M  V30 3288 C 321.973 -0.789787 1.91774 0
M  V30 3289 C 322.398 -1.70413 0.796306 0
M  V30 3290 O 321.756 -1.79555 -0.250961 0
M  V30 3291 C 321.804 -1.5609 3.25067 0
M  V30 3292 O 320.908 -2.67144 3.14178 0
M  V30 3293 H 320.249 -0.215582 0.628029 0
M  V30 3294 H 322.779 -0.0422781 2.04556 0
M  V30 3295 H 322.789 -1.94052 3.58898 0
M  V30 3296 H 321.464 -0.890015 4.06265 0
M  V30 3297 H 320.041 -2.32052 2.91901 0
M  V30 3298 N 322.226 -1.5378 -0.344866 0
M  V30 3299 C 323.475 -1.7018 -1.08267 0
M  V30 3300 C 323.788 -0.471 -1.89845 0
M  V30 3301 O 324.994 -0.515917 -2.66553 0
M  V30 3302 C 323.45 -3.00923 -1.97417 0
M  V30 3303 C 323.058 -4.31335 -1.21053 0
M  V30 3304 C 324.802 -3.26688 -2.71063 0
M  V30 3305 C 322.709 -5.53153 -2.09225 0
M  V30 3306 H 321.639 -0.634138 -0.407903 0
M  V30 3307 H 324.29 -1.8028 -0.342246 0
M  V30 3308 H 322.672 -2.84676 -2.75274 0
M  V30 3309 H 323.846 -4.58281 -0.481159 0
M  V30 3310 H 322.161 -4.12173 -0.591813 0
M  V30 3311 H 324.758 -4.1489 -3.37299 0
M  V30 3312 H 325.101 -2.43639 -3.37558 0
M  V30 3313 H 325.634 -3.43705 -2.0028 0
M  V30 3314 H 322.373 -6.38741 -1.47274 0
M  V30 3315 H 321.893 -5.30458 -2.79955 0
M  V30 3316 H 323.572 -5.88744 -2.68308 0
M  V30 3317 N 323.704 0.605807 -1.45491 0
M  V30 3318 C 324.951 1.36476 -1.49601 0
M  V30 3319 C 325.279 1.94007 -0.138452 0
M  V30 3320 O 324.534 1.75638 0.863114 0
M  V30 3321 C 324.833 2.53012 -2.52428 0
M  V30 3322 C 324.499 2.13617 -3.97087 0
M  V30 3323 C 323.161 2.02587 -4.36477 0
M  V30 3324 C 325.513 1.82899 -4.88055 0
M  V30 3325 C 322.841 1.59064 -5.64726 0
M  V30 3326 C 325.193 1.40861 -6.16718 0
M  V30 3327 C 323.857 1.28391 -6.55036 0
M  V30 3328 H 323.127 0.499402 -0.547429 0
M  V30 3329 H 325.774 0.684546 -1.78847 0
M  V30 3330 H 324.079 3.26379 -2.16758 0
M  V30 3331 H 325.776 3.1124 -2.52845 0
M  V30 3332 H 322.366 2.23129 -3.65939 0
M  V30 3333 H 326.55 1.90317 -4.58359 0
M  V30 3334 H 321.806 1.48034 -5.93208 0
M  V30 3335 H 325.98 1.16138 -6.86648 0
M  V30 3336 H 323.607 0.944403 -7.54311 0
M  V30 3337 N 325.182 1.32811 0.848464 0
M  V30 3338 C 326.459 1.14334 1.58704 0
M  V30 3339 C 326.839 -0.293948 2.09043 0
M  V30 3340 O 326.187 -1.29153 1.88499 0
M  V30 3341 C 326.397 2.17626 2.72837 0
M  V30 3342 C 327.745 2.51282 3.42261 0
M  V30 3343 O 328.769 2.16219 2.83068 0
M  V30 3344 O 327.628 3.11413 4.49093 0
M  V30 3345 H 324.722 0.441601 0.699226 0
M  V30 3346 H 327.268 1.44362 0.892053 0
M  V30 3347 H 326.04 3.14211 2.3321 0
M  V30 3348 H 325.663 1.88628 3.50008 0
M  V30 3349 N 326.66 -1.06551 1.16123 0
M  V30 3350 C 327.907 -1.79302 0.941126 0
M  V30 3351 C 328.235 -1.87105 -0.531235 0
M  V30 3352 O 327.49 -1.35692 -1.41018 0
M  V30 3353 C 327.789 -3.23911 1.51052 0
M  V30 3354 C 327.455 -3.36193 3.00475 0
M  V30 3355 C 326.117 -3.39252 3.41265 0
M  V30 3356 C 328.469 -3.38326 3.96465 0
M  V30 3357 C 325.797 -3.42057 4.76669 0
M  V30 3358 C 328.149 -3.4267 5.31752 0
M  V30 3359 C 326.813 -3.4401 5.72026 0
M  V30 3360 H 326.083 -0.656111 0.344382 0
M  V30 3361 H 328.73 -1.25325 1.44796 0
M  V30 3362 H 327.035 -3.80723 0.925063 0
M  V30 3363 H 328.732 -3.78793 1.31593 0
M  V30 3364 H 325.322 -3.34516 2.6795 0
M  V30 3365 H 329.506 -3.35176 3.6602 0
M  V30 3366 H 324.762 -3.41398 5.07206 0
M  V30 3367 H 328.936 -3.43268 6.05921 0
M  V30 3368 H 326.563 -3.45937 6.76928 0
M  V30 3369 N 328.138 -0.959301 -1.25041 0
M  V30 3370 C 329.101 -0.487677 -2.23952 0
M  V30 3371 C 330.101 0.41119 -1.55454 0
M  V30 3372 O 331.291 0.207825 -1.72956 0
M  V30 3373 C 328.423 0.294807 -3.39623 0
M  V30 3374 H 329.616 -1.36198 -2.67189 0
M  V30 3375 H 327.169 -0.743042 -1.37508 0
M  V30 3376 H 327.904 1.18658 -3.01813 0
M  V30 3377 H 327.689 -0.35012 -3.90534 0
M  V30 3378 H 329.179 0.614089 -4.1306 0
M  V30 3379 N 329.616 1.39756 -0.72842 0
M  V30 3380 C 330.865 1.99879 -0.270407 0
M  V30 3381 C 331.178 1.58449 1.14688 0
M  V30 3382 O 332.384 2.11362 1.70407 0
M  V30 3383 C 330.84 3.57292 -0.43252 0
M  V30 3384 C 330.448 4.07688 -1.85727 0
M  V30 3385 C 332.192 4.24485 -0.0359507 0
M  V30 3386 C 330.099 5.5765 -1.96928 0
M  V30 3387 H 329.029 0.747689 -0.0973472 0
M  V30 3388 H 331.68 1.59837 -0.901355 0
M  V30 3389 H 330.062 3.95097 0.267219 0
M  V30 3390 H 331.236 3.81231 -2.58843 0
M  V30 3391 H 329.551 3.53135 -2.20646 0
M  V30 3392 H 332.148 5.34609 -0.0987484 0
M  V30 3393 H 332.491 4.03915 1.00787 0
M  V30 3394 H 333.024 3.9183 -0.686604 0
M  V30 3395 H 329.763 5.8309 -2.99476 0
M  V30 3396 H 329.283 5.8593 -1.28241 0
M  V30 3397 H 330.962 6.22957 -1.74737 0
M  V30 3398 N 331.094 0.475555 1.50254 0
M  V30 3399 C 332.041 -0.316293 2.28622 0
M  V30 3400 C 333.011 -0.983227 1.33873 0
M  V30 3401 O 334.196 -0.994805 1.62814 0
M  V30 3402 C 331.336 -1.38975 3.1588 0
M  V30 3403 C 330.449 -0.737146 4.25664 0
M  V30 3404 C 329.584 -1.78887 5.00173 0
M  V30 3405 C 328.623 -1.11676 6.01826 0
M  V30 3406 N 327.76 -2.11154 6.69596 0
M  V30 3407 H 332.6 0.358297 2.95838 0
M  V30 3408 H 330.137 0.188541 1.45887 0
M  V30 3409 H 332.095 -2.02383 3.64825 0
M  V30 3410 H 330.725 -2.03344 2.50701 0
M  V30 3411 H 329.777 0.0096065 3.80399 0
M  V30 3412 H 331.089 -0.206816 4.98371 0
M  V30 3413 H 330.243 -2.49865 5.52859 0
M  V30 3414 H 328.982 -2.35302 4.27182 0
M  V30 3415 H 327.987 -0.392633 5.48396 0
M  V30 3416 H 329.212 -0.55945 6.76792 0
M  V30 3417 H 327.158 -2.66577 5.99394 0
M  V30 3418 H 327.075 -1.63118 7.38193 0
M  V30 3419 H 328.343 -2.81497 7.26897 0
M  V30 3420 N 332.573 -1.56217 0.208337 0
M  V30 3421 C 333.85 -1.89739 -0.475234 0
M  V30 3422 C 334.23 -1.1238 -1.78701 0
M  V30 3423 O 333.578 -0.228979 -2.2735 0
M  V30 3424 C 333.788 -3.42289 -0.681101 0
M  V30 3425 C 335.136 -4.12789 -0.994507 0
M  V30 3426 O 336.16 -3.47814 -0.768357 0
M  V30 3427 O 335.019 -5.27649 -1.42299 0
M  V30 3428 H 332.113 -0.788478 -0.249461 0
M  V30 3429 H 334.659 -1.67855 0.249538 0
M  V30 3430 H 333.431 -3.90534 0.244722 0
M  V30 3431 H 333.054 -3.69909 -1.45785 0
M  V30 3432 N 334.051 0.0651679 -1.57465 0
M  V30 3433 C 335.297 0.764193 -1.87851 0
M  V30 3434 C 335.63 1.76889 -0.801495 0
M  V30 3435 O 334.905 1.93594 0.187528 0
M  V30 3436 C 335.188 1.46625 -3.28897 0
M  V30 3437 C 335.041 0.477515 -4.47258 0
M  V30 3438 C 336.36 2.4095 -3.68281 0
M  V30 3439 H 333.479 0.276351 -0.683227 0
M  V30 3440 H 336.121 0.0272868 -1.8998 0
M  V30 3441 H 334.271 2.09438 -3.27212 0
M  V30 3442 H 335.943 -0.145922 -4.61069 0
M  V30 3443 H 334.186 -0.206576 -4.33308 0
M  V30 3444 H 334.857 1.0065 -5.42746 0
M  V30 3445 H 337.333 1.88209 -3.71102 0
M  V30 3446 H 336.209 2.87072 -4.67847 0
M  V30 3447 H 336.47 3.26049 -2.98571 0
M  V30 3448 N 335.529 1.53961 0.336706 0
M  V30 3449 C 336.754 1.75797 1.10046 0
M  V30 3450 C 337.179 0.498985 1.81361 0
M  V30 3451 O 336.537 -0.548769 1.72795 0
M  V30 3452 C 336.585 2.94257 2.08436 0
M  V30 3453 O 335.689 2.64883 3.16087 0
M  V30 3454 H 335.03 0.582936 0.317934 0
M  V30 3455 H 337.56 2.00945 0.38501 0
M  V30 3456 H 337.57 3.21237 2.51537 0
M  V30 3457 H 336.245 3.85564 1.55927 0
M  V30 3458 H 334.822 2.48812 2.77753 0
M  V30 3459 N 337.007 -0.598083 1.45811 0
M  V30 3460 C 337.939 -1.72231 1.51225 0
M  V30 3461 C 338.952 -1.57757 0.402059 0
M  V30 3462 O 340.141 -1.65464 0.669624 0
M  V30 3463 C 337.241 -3.10331 1.3619 0
M  V30 3464 C 336.414 -3.50955 2.61054 0
M  V30 3465 C 335.473 -4.68055 2.40439 0
M  V30 3466 O 334.499 -4.74691 3.14097 0
M  V30 3467 N 335.701 -5.61941 1.45612 0
M  V30 3468 H 338.466 -1.68046 2.48154 0
M  V30 3469 H 336.027 -0.783637 1.41671 0
M  V30 3470 H 338.019 -3.86439 1.20195 0
M  V30 3471 H 336.589 -3.0897 0.475015 0
M  V30 3472 H 335.809 -2.64711 2.92099 0
M  V30 3473 H 337.097 -3.74858 3.44034 0
M  V30 3474 H 336.495 -5.59301 0.848431 0
M  V30 3475 H 335.052 -6.37542 1.35585 0
M  V30 3476 N 338.485 -1.33259 -0.841409 0
M  V30 3477 C 339.433 -1.23279 -1.97244 0
M  V30 3478 C 340.427 -0.134706 -1.68864 0
M  V30 3479 O 341.633 -0.298501 -1.77508 0
M  V30 3480 H 338.008 -0.382497 -0.647457 0
M  V30 3481 H 339.979 -2.18906 -2.02787 0
M  V30 3482 C 338.728 -0.986268 -3.33419 0
M  V30 3483 H 338.051 -1.82347 -3.55794 0
M  V30 3484 H 339.491 -0.956728 -4.13065 0
M  V30 3485 C 337.95 0.310842 -3.35463 0
M  V30 3486 O 338.48 1.31838 -3.79449 0
M  V30 3487 N 336.686 0.337485 -2.88634 0
M  V30 3488 H 336.233 -0.482967 -2.53032 0
M  V30 3489 H 336.191 1.20518 -2.90384 0
M  V30 3490 N 339.963 1.05934 -1.16686 0
M  V30 3491 C 341.212 1.78188 -0.945085 0
M  V30 3492 C 341.525 1.88338 0.528021 0
M  V30 3493 O 342.731 2.57258 0.867799 0
M  V30 3494 C 341.187 3.20277 -1.64167 0
M  V30 3495 C 340.795 3.18281 -3.15279 0
M  V30 3496 C 342.539 3.97039 -1.502 0
M  V30 3497 C 340.446 4.55112 -3.7766 0
M  V30 3498 H 339.376 0.667866 -0.349959 0
M  V30 3499 H 342.027 1.18794 -1.39858 0
M  V30 3500 H 340.409 3.79952 -1.11589 0
M  V30 3501 H 341.583 2.68167 -3.74731 0
M  V30 3502 H 339.898 2.55018 -3.29173 0
M  V30 3503 H 342.495 4.98194 -1.94183 0
M  V30 3504 H 342.838 4.13845 -0.451461 0
M  V30 3505 H 343.371 3.43894 -1.99954 0
M  V30 3506 H 340.11 4.43512 -4.82677 0
M  V30 3507 H 339.63 5.05406 -3.22994 0
M  V30 3508 H 341.309 5.24064 -3.79428 0
M  V30 3509 N 341.441 0.965919 1.2453 0
M  V30 3510 C 342.371 0.513476 2.27784 0
M  V30 3511 C 343.352 -0.445974 1.6415 0
M  V30 3512 O 344.537 -0.342485 1.91156 0
M  V30 3513 C 341.667 -0.198839 3.4673 0
M  V30 3514 C 340.621 0.676456 4.2262 0
M  V30 3515 C 339.947 -0.167248 5.34438 0
M  V30 3516 C 341.247 1.96017 4.84123 0
M  V30 3517 H 342.941 1.3765 2.65881 0
M  V30 3518 H 340.487 0.663321 1.27813 0
M  V30 3519 H 342.44 -0.526567 4.18097 0
M  V30 3520 H 341.164 -1.0962 3.07654 0
M  V30 3521 H 339.823 0.98743 3.53052 0
M  V30 3522 H 339.471 -1.0647 4.91603 0
M  V30 3523 H 339.171 0.415181 5.86131 0
M  V30 3524 H 340.695 -0.489688 6.08633 0
M  V30 3525 H 342.109 1.69814 5.47573 0
M  V30 3526 H 340.506 2.48918 5.4604 0
M  V30 3527 H 341.576 2.65622 4.05676 0
M  V30 3528 N 342.919 -1.39368 0.735821 0
M  V30 3529 C 344.144 -2.05319 0.293052 0
M  V30 3530 C 344.569 -1.55115 -1.064 0
M  V30 3531 O 343.927 -0.695261 -1.67439 0
M  V30 3532 C 343.975 -3.59305 0.305323 0
M  V30 3533 O 343.079 -4.06299 -0.706761 0
M  V30 3534 H 342.42 -0.650529 0.13307 0
M  V30 3535 H 344.95 -1.78386 1.00197 0
M  V30 3536 H 344.96 -4.07724 0.149997 0
M  V30 3537 H 343.635 -3.95207 1.29553 0
M  V30 3538 H 342.212 -3.69292 -0.517504 0
M  V30 3539 N 344.397 -0.483516 -1.5 0
M  V30 3540 C 345.327 0.293829 -2.31644 0
M  V30 3541 C 346.308 0.978864 -1.39112 0
M  V30 3542 O 347.493 0.973644 -1.68029 0
M  V30 3543 C 344.623 1.36897 -3.19181 0
M  V30 3544 C 343.577 0.804833 -4.20365 0
M  V30 3545 C 342.903 1.9792 -4.96721 0
M  V30 3546 C 344.203 -0.192313 -5.21946 0
M  V30 3547 H 345.897 -0.387616 -2.9688 0
M  V30 3548 H 343.443 -0.187856 -1.42769 0
M  V30 3549 H 345.396 1.92037 -3.751 0
M  V30 3550 H 344.12 2.07936 -2.51853 0
M  V30 3551 H 342.779 0.275319 -3.65565 0
M  V30 3552 H 342.427 2.67686 -4.25856 0
M  V30 3553 H 342.127 1.60789 -5.65173 0
M  V30 3554 H 343.651 2.53526 -5.55479 0
M  V30 3555 H 345.065 0.270333 -5.72662 0
M  V30 3556 H 343.462 -0.478543 -5.98189 0
M  V30 3557 H 344.532 -1.11409 -4.71928 0
M  V30 3558 N 345.875 1.56104 -0.216619 0
M  V30 3559 C 347.121 1.98466 0.417033 0
M  V30 3560 C 347.454 1.10403 1.59765 0
M  V30 3561 O 346.729 0.160632 1.93836 0
M  V30 3562 C 347.012 3.49769 0.85637 0
M  V30 3563 C 346.865 4.48606 -0.327546 0
M  V30 3564 C 348.184 4.05339 1.7143 0
M  V30 3565 H 345.303 0.721551 0.150112 0
M  V30 3566 H 347.945 1.87423 -0.311864 0
M  V30 3567 H 346.095 3.5931 1.47745 0
M  V30 3568 H 347.767 4.5108 -0.965618 0
M  V30 3569 H 346.01 4.22682 -0.975805 0
M  V30 3570 H 346.681 5.51995 0.0227149 0
M  V30 3571 H 349.157 3.98712 1.19031 0
M  V30 3572 H 348.033 5.11533 1.99061 0
M  V30 3573 H 348.294 3.51918 2.67593 0
M  V30 3574 N 347.353 -0.0568162 1.57498 0
M  V30 3575 C 348.581 -0.765626 1.92213 0
M  V30 3576 C 348.996 -1.70353 0.813961 0
M  V30 3577 O 348.353 -1.81268 -0.211701 0
M  V30 3578 C 348.404 -1.5465 3.2675 0
M  V30 3579 O 348.125 -0.646278 4.33307 0
M  V30 3580 C 349.626 -2.35497 3.75574 0
M  V30 3581 H 346.846 -0.216835 0.634999 0
M  V30 3582 H 349.39 -0.0226146 2.04487 0
M  V30 3583 H 347.545 -2.24165 3.15957 0
M  V30 3584 H 347.959 -1.19093 5.108 0
M  V30 3585 H 349.433 -2.85722 4.72299 0
M  V30 3586 H 349.91 -3.15692 3.05344 0
M  V30 3587 H 350.516 -1.7111 3.8936 0
M  V30 3588 N 348.832 -1.54138 -0.328536 0
M  V30 3589 C 350.109 -1.62749 -1.08499 0
M  V30 3590 C 350.489 -0.458198 -2.06067 0
M  V30 3591 O 349.837 0.548046 -2.2183 0
M  V30 3592 C 350.047 -2.99519 -1.79135 0
M  V30 3593 C 351.395 -3.55394 -2.32337 0
M  V30 3594 O 352.419 -3.01792 -1.89209 0
M  V30 3595 O 351.278 -4.49186 -3.11279 0
M  V30 3596 H 348.372 -0.65886 -0.499832 0
M  V30 3597 H 350.918 -1.66484 -0.328826 0
M  V30 3598 H 349.69 -3.76061 -1.08139 0
M  V30 3599 H 349.313 -2.99441 -2.61574 0
M  V30 3600 N 350.31 0.590341 -1.46126 0
M  V30 3601 C 351.22 1.72793 -1.58681 0
M  V30 3602 C 352.236 1.67516 -0.470566 0
M  V30 3603 O 353.412 1.87562 -0.733642 0
M  V30 3604 C 350.477 3.09287 -1.5666 0
M  V30 3605 C 349.538 3.25886 -2.79458 0
M  V30 3606 C 348.771 4.55869 -2.77524 0
M  V30 3607 O 348.994 5.3928 -1.85832 0
M  V30 3608 O 347.928 4.75552 -3.68964 0
M  V30 3609 H 351.754 1.65149 -2.54872 0
M  V30 3610 H 349.339 0.756486 -1.28832 0
M  V30 3611 H 351.221 3.90577 -1.58202 0
M  V30 3612 H 349.896 3.17385 -0.636271 0
M  V30 3613 H 348.803 2.44119 -2.83472 0
M  V30 3614 H 350.136 3.22675 -3.71674 0
M  V30 3615 N 351.788 1.33704 0.83433 0
M  V30 3616 C 353.016 1.28467 1.62185 0
M  V30 3617 C 353.431 -0.143526 1.88254 0
M  V30 3618 O 352.788 -1.08709 1.4659 0
M  V30 3619 C 352.839 2.06174 2.96942 0
M  V30 3620 O 352.56 3.43422 2.72016 0
M  V30 3621 C 354.061 2.08201 3.91366 0
M  V30 3622 H 351.281 0.4424 0.504503 0
M  V30 3623 H 353.825 1.76145 1.03891 0
M  V30 3624 H 351.98 1.62167 3.51825 0
M  V30 3625 H 352.394 3.83453 3.57861 0
M  V30 3626 H 353.868 2.67017 4.83121 0
M  V30 3627 H 354.345 1.07343 4.2588 0
M  V30 3628 H 354.951 2.52246 3.42421 0
M  V30 3629 N 353.266 -1.05314 1.17247 0
M  V30 3630 C 354.512 -1.78557 0.961513 0
M  V30 3631 C 354.845 -1.87419 -0.508697 0
M  V30 3632 O 354.12 -1.37307 -1.37757 0
M  V30 3633 C 354.403 -3.22514 1.60176 0
M  V30 3634 C 354.256 -3.21673 3.14399 0
M  V30 3635 C 355.575 -4.20318 1.30463 0
M  V30 3636 H 352.694 -0.6482 0.350723 0
M  V30 3637 H 355.336 -1.23102 1.44727 0
M  V30 3638 H 353.486 -3.69867 1.18871 0
M  V30 3639 H 355.158 -2.82405 3.64753 0
M  V30 3640 H 353.401 -2.60048 3.47214 0
M  V30 3641 H 354.072 -4.23271 3.54324 0
M  V30 3642 H 356.548 -3.81454 1.66229 0
M  V30 3643 H 355.424 -5.19289 1.77848 0
M  V30 3644 H 355.685 -4.41526 0.22521 0
M  V30 3645 N 354.744 -0.972509 -1.24016 0
M  V30 3646 C 356.021 -0.553733 -1.87598 0
M  V30 3647 C 356.401 0.969158 -1.87538 0
M  V30 3648 O 355.749 1.84255 -1.35139 0
M  V30 3649 C 355.959 -1.15076 -3.29482 0
M  V30 3650 C 357.307 -1.23862 -4.06132 0
M  V30 3651 O 358.331 -1.10363 -3.38672 0
M  V30 3652 O 357.19 -1.45252 -5.26844 0
M  V30 3653 H 354.284 -0.185331 -0.805966 0
M  V30 3654 H 356.83 -1.06709 -1.31952 0
M  V30 3655 H 355.602 -2.19333 -3.2405 0
M  V30 3656 H 355.225 -0.621746 -3.92709 0
M  V30 3657 N 356.222 1.38976 -0.743202 0
M  V30 3658 C 357.452 2.04339 -0.304807 0
M  V30 3659 C 357.86 1.56162 1.06819 0
M  V30 3660 O 357.203 0.725284 1.68776 0
M  V30 3661 C 357.265 3.58716 -0.237369 0
M  V30 3662 C 356.929 4.29905 -1.55018 0
M  V30 3663 C 357.926 4.55987 -2.49744 0
M  V30 3664 C 355.611 4.68294 -1.81675 0
M  V30 3665 C 357.605 5.19478 -3.69353 0
M  V30 3666 C 355.292 5.31512 -3.0156 0
M  V30 3667 C 356.29 5.57037 -3.9522 0
M  V30 3668 O 355.978 6.18941 -5.12998 0
M  V30 3669 H 355.71 0.663439 -0.12971 0
M  V30 3670 H 358.264 1.78852 -1.01001 0
M  V30 3671 H 356.494 3.83133 0.524003 0
M  V30 3672 H 358.183 4.05543 0.170121 0
M  V30 3673 H 358.949 4.26767 -2.30423 0
M  V30 3674 H 354.828 4.47779 -1.09615 0
M  V30 3675 H 358.372 5.39318 -4.42473 0
M  V30 3676 H 354.269 5.60153 -3.20778 0
M  V30 3677 H 355.037 6.37433 -5.13441 0
M  V30 3678 N 357.7 0.491464 1.49741 0
M  V30 3679 C 358.63 -0.28154 2.31796 0
M  V30 3680 C 359.611 -0.971473 1.3963 0
M  V30 3681 O 360.796 -0.964719 1.68543 0
M  V30 3682 C 357.926 -1.35203 3.19902 0
M  V30 3683 C 356.88 -0.782529 4.20786 0
M  V30 3684 C 356.206 -1.95283 4.97764 0
M  V30 3685 C 357.506 0.21999 5.21837 0
M  V30 3686 H 359.2 0.403355 2.96671 0
M  V30 3687 H 356.746 0.195425 1.42668 0
M  V30 3688 H 358.699 -1.90045 3.76113 0
M  V30 3689 H 357.423 -2.06598 2.52953 0
M  V30 3690 H 356.082 -0.255928 3.65706 0
M  V30 3691 H 355.73 -2.65423 4.2727 0
M  V30 3692 H 355.43 -1.57789 5.66018 0
M  V30 3693 H 356.954 -2.50577 5.56816 0
M  V30 3694 H 358.368 -0.23996 5.72798 0
M  V30 3695 H 356.765 0.51026 5.97927 0
M  V30 3696 H 357.835 1.13911 4.7133 0
M  V30 3697 N 359.178 -1.55987 0.224894 0
M  V30 3698 C 360.108 -2.23426 -0.678457 0
M  V30 3699 C 361.089 -1.20709 -1.19847 0
M  V30 3700 O 362.274 -1.49304 -1.24186 0
M  V30 3701 C 359.404 -2.91676 -1.88527 0
M  V30 3702 C 358.358 -4.00893 -1.49896 0
M  V30 3703 C 357.684 -4.56455 -2.78483 0
M  V30 3704 C 358.984 -5.17769 -0.686461 0
M  V30 3705 H 360.678 -2.99175 -0.116173 0
M  V30 3706 H 358.224 -1.43897 -0.054436 0
M  V30 3707 H 360.177 -3.37547 -2.5227 0
M  V30 3708 H 358.901 -2.1338 -2.47258 0
M  V30 3709 H 357.56 -3.55758 -0.884985 0
M  V30 3710 H 357.208 -3.74886 -3.35365 0
M  V30 3711 H 356.908 -5.30169 -2.53368 0
M  V30 3712 H 358.432 -5.05047 -3.43162 0
M  V30 3713 H 359.846 -5.60001 -1.22767 0
M  V30 3714 H 358.243 -5.97735 -0.532259 0
M  V30 3715 H 359.313 -4.83932 0.306196 0
M  V30 3716 N 360.656 0.0484629 -1.57525 0
M  V30 3717 C 361.586 1.0549 -2.08313 0
M  V30 3718 C 362.567 1.38929 -0.981463 0
M  V30 3719 O 363.752 1.48151 -1.25558 0
M  V30 3720 C 360.882 2.36162 -2.54646 0
M  V30 3721 C 359.836 2.17016 -3.68901 0
M  V30 3722 C 359.162 3.53278 -4.01371 0
M  V30 3723 C 360.462 1.57219 -4.98076 0
M  V30 3724 H 362.156 0.632195 -2.92649 0
M  V30 3725 H 359.702 0.302654 -1.40784 0
M  V30 3726 H 361.655 3.06882 -2.88793 0
M  V30 3727 H 360.379 2.80456 -1.67368 0
M  V30 3728 H 359.038 1.48733 -3.35073 0
M  V30 3729 H 358.686 3.95185 -3.11188 0
M  V30 3730 H 358.386 3.41299 -4.78318 0
M  V30 3731 H 359.91 4.25391 -4.38035 0
M  V30 3732 H 361.324 2.17832 -5.30304 0
M  V30 3733 H 359.721 1.55871 -5.79503 0
M  V30 3734 H 360.791 0.535956 -4.81929 0
M  V30 3735 N 362.134 1.5431 0.320358 0
M  V30 3736 C 363.084 1.803 1.39556 0
M  V30 3737 C 364.068 0.659166 1.46778 0
M  V30 3738 O 365.26 0.91926 1.51257 0
M  V30 3739 C 362.389 2.03665 2.76361 0
M  V30 3740 C 361.475 3.24178 2.73439 0
M  V30 3741 N 361.866 4.4516 2.40137 0
M  V30 3742 C 360.164 3.25816 3.04565 0
M  V30 3743 C 360.865 5.27109 2.4603 0
M  V30 3744 N 359.841 4.64368 2.82601 0
M  V30 3745 H 363.643 2.71416 1.12742 0
M  V30 3746 H 361.157 1.53548 0.528856 0
M  V30 3747 H 363.154 2.20425 3.53862 0
M  V30 3748 H 361.814 1.13805 3.04103 0
M  V30 3749 H 362.825 4.72104 2.12927 0
M  V30 3750 H 359.502 2.46001 3.37328 0
M  V30 3751 H 360.892 6.33728 2.23246 0
M  V30 3752 N 363.613 -0.582584 1.46437 0
M  V30 3753 C 364.545 -1.70618 1.53043 0
M  V30 3754 C 365.558 -1.57322 0.418769 0
M  V30 3755 O 366.747 -1.64744 0.687136 0
M  V30 3756 C 363.847 -3.08869 1.39474 0
M  V30 3757 C 363.02 -3.48166 2.64762 0
M  V30 3758 C 362.079 -4.65478 2.4539 0
M  V30 3759 O 361.105 -4.71333 3.19114 0
M  V30 3760 N 362.307 -5.60365 1.51564 0
M  V30 3761 H 365.072 -1.65405 2.49923 0
M  V30 3762 H 362.633 -0.768567 1.42494 0
M  V30 3763 H 364.625 -3.85143 1.24287 0
M  V30 3764 H 363.195 -3.08449 0.507758 0
M  V30 3765 H 362.415 -2.61598 2.9489 0
M  V30 3766 H 363.703 -3.71188 3.4799 0
M  V30 3767 H 363.101 -5.5837 0.907705 0
M  V30 3768 H 361.658 -6.36068 1.4234 0
M  V30 3769 N 365.091 -1.34144 -0.827227 0
M  V30 3770 C 366.054 -1.25264 -1.91942 0
M  V30 3771 C 367.054 -0.168866 -1.59911 0
M  V30 3772 O 368.244 -0.421198 -1.69031 0
M  V30 3773 C 365.376 -0.932952 -3.27885 0
M  V30 3774 H 366.569 -2.22357 -2.0124 0
M  V30 3775 H 364.122 -1.1837 -1.0207 0
M  V30 3776 H 364.857 0.0349917 -3.24281 0
M  V30 3777 H 364.642 -1.71682 -3.52516 0
M  V30 3778 H 366.132 -0.895874 -4.07877 0
M  V30 3779 N 366.569 1.04691 -1.17803 0
M  V30 3780 C 367.517 2.14665 -0.895635 0
M  V30 3781 C 368.511 1.68806 0.141679 0
M  V30 3782 O 369.717 1.79999 -0.00587914 0
M  V30 3783 H 366.092 0.701038 -0.272121 0
M  V30 3784 H 368.063 2.35685 -1.83017 0
M  V30 3785 C 366.812 3.45019 -0.430962 0
M  V30 3786 H 366.135 3.8071 -1.22064 0
M  V30 3787 H 367.575 4.23125 -0.272301 0
M  V30 3788 C 366.034 3.25943 0.852207 0
M  V30 3789 O 366.564 3.5296 1.91786 0
M  V30 3790 N 364.77 2.79304 0.802346 0
M  V30 3791 H 364.317 2.57518 -0.0650788 0
M  V30 3792 H 364.275 2.66921 1.66134 0
M  V30 3793 N 368.047 0.979072 1.23499 0
M  V30 3794 C 369.293 0.648178 1.92163 0
M  V30 3795 C 369.626 -0.816049 1.76222 0
M  V30 3796 O 368.901 -1.58849 1.12237 0
M  V30 3797 C 369.184 1.03773 3.44824 0
M  V30 3798 C 369.037 2.55948 3.69879 0
M  V30 3799 C 370.356 0.580653 4.36253 0
M  V30 3800 H 367.475 0.236952 0.69787 0
M  V30 3801 H 370.117 1.22012 1.45647 0
M  V30 3802 H 368.267 0.551058 3.84572 0
M  V30 3803 H 369.939 3.12179 3.3962 0
M  V30 3804 H 368.182 2.98641 3.14636 0
M  V30 3805 H 368.853 2.78255 4.76737 0
M  V30 3806 H 371.329 0.998465 4.03943 0
M  V30 3807 H 370.205 0.881663 5.41773 0
M  V30 3808 H 370.466 -0.519052 4.39042 0
M  V30 3809 N 369.525 -1.3858 0.750561 0
M  V30 3810 C 370.941 -1.53759 0.427824 0
M  V30 3811 C 371.141 -1.71401 -1.05943 0
M  V30 3812 O 370.197 -1.72331 -1.84549 0
M  V30 3813 C 371.51 -2.74642 1.22443 0
M  V30 3814 C 373.058 -2.88489 1.2142 0
M  V30 3815 C 373.533 -4.12329 1.9937 0
M  V30 3816 N 375.024 -4.194 1.96616 0
M  V30 3817 C 375.759 -5.14209 2.53727 0
M  V30 3818 N 375.255 -6.14709 3.19539 0
M  V30 3819 N 377.048 -5.06537 2.43673 0
M  V30 3820 H 369.199 -1.25377 1.71447 0
M  V30 3821 H 371.462 -0.608844 0.726645 0
M  V30 3822 H 371.168 -2.68 2.27747 0
M  V30 3823 H 371.042 -3.67745 0.839273 0
M  V30 3824 H 373.429 -2.94614 0.169232 0
M  V30 3825 H 373.51 -1.96406 1.63885 0
M  V30 3826 H 373.154 -4.06966 3.03877 0
M  V30 3827 H 373.084 -5.03486 1.54302 0
M  V30 3828 H 375.575 -3.47421 1.48684 0
M  V30 3829 H 375.888 -6.8354 3.60545 0
M  V30 3830 H 374.233 -6.1505 3.23633 0
M  V30 3831 H 377.424 -4.26962 1.91889 0
M  V30 3832 H 377.597 -5.80245 2.88479 0
M  V30 3833 N 371.003 -0.499398 -1.49478 0
M  V30 3834 C 372.252 0.0475259 -2.01644 0
M  V30 3835 C 372.565 1.38195 -1.38425 0
M  V30 3836 O 373.771 2.01547 -1.8191 0
M  V30 3837 C 372.227 0.135164 -3.59646 0
M  V30 3838 C 371.835 -1.19252 -4.31837 0
M  V30 3839 C 373.579 0.632538 -4.19761 0
M  V30 3840 C 371.486 -1.06713 -5.81693 0
M  V30 3841 H 370.416 0.0215349 -0.753692 0
M  V30 3842 H 373.067 -0.638577 -1.7203 0
M  V30 3843 H 371.449 0.885681 -3.85969 0
M  V30 3844 H 372.623 -1.9562 -4.17216 0
M  V30 3845 H 370.938 -1.62321 -3.83459 0
M  V30 3846 H 373.535 0.743833 -5.29501 0
M  V30 3847 H 373.878 1.63098 -3.83021 0
M  V30 3848 H 374.411 -0.0613987 -3.97753 0
M  V30 3849 H 371.15 -2.03979 -6.22955 0
M  V30 3850 H 370.67 -0.344307 -5.98811 0
M  V30 3851 H 372.349 -0.745208 -6.42694 0
M  V30 3852 N 372.481 1.55866 -0.233164 0
M  V30 3853 C 373.73 1.97779 0.39579 0
M  V30 3854 C 374.043 1.12419 1.60066 0
M  V30 3855 O 375.249 1.44283 2.29988 0
M  V30 3856 C 373.705 3.5188 0.755556 0
M  V30 3857 C 373.313 4.45959 -0.427152 0
M  V30 3858 C 375.057 4.02479 1.34946 0
M  V30 3859 C 372.964 5.91383 -0.0443043 0
M  V30 3860 H 371.894 0.738592 0.15165 0
M  V30 3861 H 374.545 1.80486 -0.331212 0
M  V30 3862 H 372.927 3.64816 1.5403 0
M  V30 3863 H 374.101 4.44776 -1.20462 0
M  V30 3864 H 372.416 4.05765 -0.935068 0
M  V30 3865 H 375.013 5.08637 1.649 0
M  V30 3866 H 375.356 3.49014 2.26925 0
M  V30 3867 H 375.889 3.92813 0.62791 0
M  V30 3868 H 372.628 6.48857 -0.930874 0
M  V30 3869 H 372.148 5.95734 0.697238 0
M  V30 3870 H 373.827 6.45893 0.378334 0
M  V30 3871 N 373.959 -0.0401083 1.57549 0
M  V30 3872 C 375.236 -0.767917 1.79896 0
M  V30 3873 C 375.616 -1.9416 0.82856 0
M  V30 3874 O 374.964 -2.2812 -0.131671 0
M  V30 3875 C 375.174 -1.2113 3.27305 0
M  V30 3876 C 376.522 -1.63175 3.91994 0
M  V30 3877 O 377.546 -1.30616 3.31388 0
M  V30 3878 O 376.405 -2.23565 4.98679 0
M  V30 3879 H 373.499 -0.370441 0.739393 0
M  V30 3880 H 376.045 -0.017737 1.69691 0
M  V30 3881 H 374.817 -0.372937 3.89519 0
M  V30 3882 H 374.44 -2.02183 3.42356 0
M  V30 3883 N 375.437 -1.54477 -0.31217 0
M  V30 3884 C 376.384 -1.84655 -1.38461 0
M  V30 3885 C 377.354 -0.694536 -1.50882 0
M  V30 3886 O 378.539 -0.942081 -1.6592 0
M  V30 3887 C 375.679 -2.0896 -2.74645 0
M  V30 3888 C 374.792 -3.36618 -2.70763 0
M  V30 3889 C 373.927 -3.50824 -3.98868 0
M  V30 3890 C 372.966 -4.72315 -3.89339 0
M  V30 3891 N 372.103 -4.83387 -5.09197 0
M  V30 3892 H 376.943 -2.76142 -1.12026 0
M  V30 3893 H 374.48 -1.36748 -0.542065 0
M  V30 3894 H 376.438 -2.21045 -3.53829 0
M  V30 3895 H 375.068 -1.20752 -2.99364 0
M  V30 3896 H 374.12 -3.33211 -1.83506 0
M  V30 3897 H 375.432 -4.25917 -2.59608 0
M  V30 3898 H 374.586 -3.62513 -4.86486 0
M  V30 3899 H 373.325 -2.59638 -4.12843 0
M  V30 3900 H 372.33 -4.6067 -3.00105 0
M  V30 3901 H 373.555 -5.64897 -3.76919 0
M  V30 3902 H 371.501 -3.9512 -5.23657 0
M  V30 3903 H 371.418 -5.66669 -5.00422 0
M  V30 3904 H 372.686 -4.9942 -5.98498 0
M  V30 3905 N 376.915 0.57481 -1.46744 0
M  V30 3906 C 378.164 1.32898 -1.51727 0
M  V30 3907 C 378.477 1.948 -0.176692 0
M  V30 3908 O 379.683 2.71299 -0.104385 0
M  V30 3909 C 378.139 2.40901 -2.67385 0
M  V30 3910 C 377.747 1.85266 -4.07898 0
M  V30 3911 C 379.491 3.17609 -2.81646 0
M  V30 3912 C 377.398 2.90945 -5.14883 0
M  V30 3913 H 376.328 0.499631 -0.564699 0
M  V30 3914 H 378.979 0.612536 -1.72975 0
M  V30 3915 H 377.361 3.15379 -2.39483 0
M  V30 3916 H 378.535 1.17278 -4.45626 0
M  V30 3917 H 376.85 1.21199 -3.98371 0
M  V30 3918 H 379.447 3.96493 -3.58744 0
M  V30 3919 H 379.79 3.70696 -1.89448 0
M  V30 3920 H 380.323 2.50239 -3.09233 0
M  V30 3921 H 377.062 2.42736 -6.089 0
M  V30 3922 H 376.582 3.57398 -4.81691 0
M  V30 3923 H 378.261 3.54755 -5.41071 0
M  V30 3924 N 378.394 1.34581 0.820102 0
M  V30 3925 C 379.357 1.2628 1.91275 0
M  V30 3926 C 380.357 0.177344 1.59819 0
M  V30 3927 O 381.547 0.430156 1.68806 0
M  V30 3928 C 378.679 0.950327 3.27386 0
M  V30 3929 H 379.872 2.23421 2.00057 0
M  V30 3930 H 377.425 1.1891 1.0144 0
M  V30 3931 H 378.16 -0.0177938 3.24295 0
M  V30 3932 H 377.945 1.73549 3.51601 0
M  V30 3933 H 379.435 0.917492 4.07396 0
M  V30 3934 N 379.872 -1.04064 1.18357 0
M  V30 3935 C 381.288 -1.2947 0.933258 0
M  V30 3936 C 381.488 -1.97466 -0.401169 0
M  V30 3937 O 380.544 -2.25528 -1.13549 0
M  V30 3938 C 381.857 -2.15337 2.09882 0
M  V30 3939 C 383.405 -2.28683 2.13712 0
M  V30 3940 C 383.88 -3.17917 3.29686 0
M  V30 3941 N 385.371 -3.25504 3.29547 0
M  V30 3942 C 386.106 -3.94706 4.15926 0
M  V30 3943 N 385.602 -4.66239 5.12439 0
M  V30 3944 N 387.395 -3.90986 4.0384 0
M  V30 3945 H 379.546 -0.583359 2.04232 0
M  V30 3946 H 381.809 -0.319921 0.892387 0
M  V30 3947 H 381.515 -1.72682 3.06389 0
M  V30 3948 H 381.389 -3.16015 2.05947 0
M  V30 3949 H 383.776 -2.70575 1.17784 0
M  V30 3950 H 383.857 -1.27596 2.21705 0
M  V30 3951 H 383.501 -2.76736 4.25887 0
M  V30 3952 H 383.431 -4.19036 3.1893 0
M  V30 3953 H 385.922 -2.74547 2.59677 0
M  V30 3954 H 386.235 -5.16638 5.74722 0
M  V30 3955 H 384.58 -4.65143 5.16398 0
M  V30 3956 H 387.771 -3.34234 3.27727 0
M  V30 3957 H 387.944 -4.44646 4.71375 0
M  V30 3958 N 381.35 -0.985608 -1.22978 0
M  V30 3959 C 382.297 -0.529825 -2.24636 0
M  V30 3960 C 383.267 0.434028 -1.60329 0
M  V30 3961 O 384.452 0.340414 -1.87739 0
M  V30 3962 C 381.592 0.156533 -3.44745 0
M  V30 3963 C 380.705 -0.848197 -4.23591 0
M  V30 3964 C 379.84 -0.136109 -5.31026 0
M  V30 3965 C 378.879 -1.1297 -6.01585 0
M  V30 3966 N 378.016 -0.446415 -7.00679 0
M  V30 3967 H 382.856 -1.40148 -2.62988 0
M  V30 3968 H 380.393 -0.702168 -1.29259 0
M  V30 3969 H 382.351 0.571324 -4.1327 0
M  V30 3970 H 380.981 0.992025 -3.07179 0
M  V30 3971 H 380.033 -1.38135 -3.54433 0
M  V30 3972 H 381.345 -1.60512 -4.72268 0
M  V30 3973 H 380.499 0.335784 -6.0577 0
M  V30 3974 H 379.238 0.653373 -4.83304 0
M  V30 3975 H 378.243 -1.6123 -5.25628 0
M  V30 3976 H 379.468 -1.91993 -6.51395 0
M  V30 3977 H 377.414 0.323763 -6.55201 0
M  V30 3978 H 377.331 -1.1419 -7.47326 0
M  V30 3979 H 378.599 0.00291697 -7.795 0
M  V30 3980 N 382.828 1.3818 -0.7579 0
M  V30 3981 C 384.056 2.04301 -0.326937 0
M  V30 3982 C 384.471 1.57163 1.0462 0
M  V30 3983 O 383.828 0.746626 1.66529 0
M  V30 3984 C 383.879 3.59846 -0.345363 0
M  V30 3985 O 383.6 4.05256 -1.66432 0
M  V30 3986 C 385.101 4.4319 0.098927 0
M  V30 3987 H 382.321 0.656443 -0.139012 0
M  V30 3988 H 384.865 1.76786 -1.02796 0
M  V30 3989 H 383.02 3.86182 0.306955 0
M  V30 3990 H 383.434 4.99709 -1.59345 0
M  V30 3991 H 384.908 5.51989 0.0348745 0
M  V30 3992 H 385.385 4.23947 1.14741 0
M  V30 3993 H 385.991 4.22051 -0.52468 0
M  V30 3994 N 384.306 0.507319 1.49211 0
M  V30 3995 C 385.253 -0.267728 2.29242 0
M  V30 3996 C 386.223 -0.954609 1.35928 0
M  V30 3997 O 387.408 -0.960046 1.64887 0
M  V30 3998 C 384.548 -1.32243 3.18756 0
M  V30 3999 C 383.661 -0.64669 4.27132 0
M  V30 4000 C 382.796 -1.68238 5.03855 0
M  V30 4001 C 381.835 -0.98885 6.0406 0
M  V30 4002 N 380.972 -1.96903 6.73924 0
M  V30 4003 H 385.812 0.420968 2.95012 0
M  V30 4004 H 383.349 0.219443 1.45454 0
M  V30 4005 H 385.307 -1.94599 3.69036 0
M  V30 4006 H 383.937 -1.97981 2.54958 0
M  V30 4007 H 382.989 0.0902926 3.80293 0
M  V30 4008 H 384.301 -0.101058 4.98698 0
M  V30 4009 H 383.455 -2.38081 5.58034 0
M  V30 4010 H 382.194 -2.26187 4.32077 0
M  V30 4011 H 381.199 -0.276222 5.49106 0
M  V30 4012 H 382.424 -0.415767 6.77826 0
M  V30 4013 H 380.37 -2.53803 6.04913 0
M  V30 4014 H 380.287 -1.47423 7.41487 0
M  V30 4015 H 381.555 -2.66015 7.32705 0
M  V30 4016 N 385.784 -1.5574 0.241426 0
M  V30 4017 C 387.033 -1.97986 -0.385295 0
M  V30 4018 C 387.346 -1.13267 -1.59468 0
M  V30 4019 O 388.552 -1.45501 -2.2922 0
M  V30 4020 C 387.008 -3.52275 -0.736884 0
M  V30 4021 C 386.616 -4.45726 0.450796 0
M  V30 4022 C 388.36 -4.03189 -1.3281 0
M  V30 4023 C 386.267 -5.91352 0.0756662 0
M  V30 4024 H 385.197 -0.739386 -0.147731 0
M  V30 4025 H 387.848 -1.80308 0.340779 0
M  V30 4026 H 386.23 -3.65628 -1.52094 0
M  V30 4027 H 387.404 -4.44131 1.22819 0
M  V30 4028 H 385.719 -4.05264 0.956573 0
M  V30 4029 H 388.316 -5.09505 -1.62201 0
M  V30 4030 H 388.659 -3.50212 -2.25071 0
M  V30 4031 H 389.192 -3.93141 -0.607069 0
M  V30 4032 H 385.931 -6.48354 0.965272 0
M  V30 4033 H 385.451 -5.96095 -0.665635 0
M  V30 4034 H 387.13 -6.46084 -0.344075 0
M  V30 4035 N 387.262 0.0317525 -1.57568 0
M  V30 4036 C 388.487 0.738664 -1.938 0
M  V30 4037 C 388.912 1.68242 -0.841208 0
M  V30 4038 O 388.27 1.80157 0.203267 0
M  V30 4039 C 388.318 1.47417 -3.29091 0
M  V30 4040 O 387.422 2.5872 -3.2115 0
M  V30 4041 H 386.763 0.198856 -0.633524 0
M  V30 4042 H 389.293 -0.0119713 -2.04596 0
M  V30 4043 H 389.303 1.84468 -3.63917 0
M  V30 4044 H 387.978 0.781988 -4.08482 0
M  V30 4045 H 386.555 2.24231 -2.97951 0
M  V30 4046 N 388.74 1.54641 0.303973 0
M  V30 4047 C 390.156 1.45788 0.649463 0
M  V30 4048 C 390.356 0.64666 1.90842 0
M  V30 4049 O 389.412 0.153183 2.52035 0
M  V30 4050 C 390.725 2.89718 0.805227 0
M  V30 4051 C 392.273 2.99742 0.901305 0
M  V30 4052 C 392.748 4.44863 1.08909 0
M  V30 4053 N 394.239 4.48559 1.15536 0
M  V30 4054 C 394.974 5.58026 1.3189 0
M  V30 4055 N 394.47 6.77422 1.45161 0
M  V30 4056 N 396.263 5.45708 1.34755 0
M  V30 4057 H 388.414 2.05854 -0.523237 0
M  V30 4058 H 390.677 0.932186 -0.172431 0
M  V30 4059 H 390.383 3.51666 -0.0489108 0
M  V30 4060 H 390.257 3.36964 1.69513 0
M  V30 4061 H 392.644 2.3791 1.74593 0
M  V30 4062 H 392.725 2.55797 -0.0125531 0
M  V30 4063 H 392.369 5.07288 0.249241 0
M  V30 4064 H 392.299 4.86436 2.01713 0
M  V30 4065 H 394.79 3.6254 1.06646 0
M  V30 4066 H 395.103 7.56604 1.57387 0
M  V30 4067 H 393.448 6.80292 1.42223 0
M  V30 4068 H 396.639 4.51378 1.23996 0
M  V30 4069 H 396.812 6.3107 1.47157 0
M  V30 4070 N 390.218 -0.567019 1.47046 0
M  V30 4071 C 391.128 -1.70247 1.6141 0
M  V30 4072 C 392.144 -1.66746 0.497157 0
M  V30 4073 O 393.32 -1.86371 0.763389 0
M  V30 4074 C 390.385 -3.06756 1.61561 0
M  V30 4075 C 389.446 -3.21399 2.84607 0
M  V30 4076 C 388.679 -4.51396 2.84741 0
M  V30 4077 O 388.902 -5.36255 1.94388 0
M  V30 4078 O 387.836 -4.69621 3.76483 0
M  V30 4079 H 391.662 -1.61073 2.57467 0
M  V30 4080 H 389.247 -0.735894 1.30019 0
M  V30 4081 H 391.129 -3.8801 1.64396 0
M  V30 4082 H 389.804 -3.16333 0.686684 0
M  V30 4083 H 388.711 -2.39579 2.8732 0
M  V30 4084 H 390.044 -3.16721 3.76761 0
M  V30 4085 N 391.696 -1.35014 -0.812953 0
M  V30 4086 C 392.643 -1.27412 -1.92444 0
M  V30 4087 C 393.613 -0.14733 -1.65445 0
M  V30 4088 O 394.798 -0.329974 -1.87925 0
M  V30 4089 C 391.938 -1.04558 -3.28879 0
M  V30 4090 C 391.051 -2.26101 -3.68106 0
M  V30 4091 C 390.186 -1.96449 -4.9354 0
M  V30 4092 C 389.225 -3.14081 -5.25376 0
M  V30 4093 N 388.362 -2.84246 -6.41988 0
M  V30 4094 H 393.202 -2.22463 -1.98278 0
M  V30 4095 H 390.739 -1.10593 -0.969933 0
M  V30 4096 H 392.697 -0.893413 -4.07522 0
M  V30 4097 H 391.327 -0.131719 -3.22531 0
M  V30 4098 H 390.379 -2.52204 -2.84775 0
M  V30 4099 H 391.691 -3.13959 -3.87597 0
M  V30 4100 H 390.845 -1.78026 -5.79993 0
M  V30 4101 H 389.584 -1.05867 -4.76071 0
M  V30 4102 H 388.589 -3.33089 -4.37415 0
M  V30 4103 H 389.814 -4.05455 -5.44778 0
M  V30 4104 H 387.76 -1.96252 -6.25956 0
M  V30 4105 H 387.677 -3.65637 -6.61699 0
M  V30 4106 H 388.945 -2.6935 -7.31485 0
M  V30 4107 N 393.175 1.03435 -1.18907 0
M  V30 4108 C 394.422 1.76743 -0.988334 0
M  V30 4109 C 394.75 1.88447 0.481441 0
M  V30 4110 O 394.005 1.39383 1.37371 0
M  V30 4111 C 394.304 3.19792 -1.59586 0
M  V30 4112 C 393.97 3.28108 -3.09283 0
M  V30 4113 C 392.632 3.30084 -3.5014 0
M  V30 4114 C 394.984 3.27696 -4.05296 0
M  V30 4115 C 392.312 3.29299 -4.85571 0
M  V30 4116 C 394.664 3.28451 -5.4065 0
M  V30 4117 C 393.328 3.28723 -5.80946 0
M  V30 4118 H 392.598 0.64675 -0.361657 0
M  V30 4119 H 395.245 1.21442 -1.48068 0
M  V30 4120 H 393.55 3.78136 -1.02568 0
M  V30 4121 H 395.247 3.75171 -1.41589 0
M  V30 4122 H 391.837 3.27294 -2.76725 0
M  V30 4123 H 396.021 3.25354 -3.74778 0
M  V30 4124 H 391.277 3.2783 -5.16079 0
M  V30 4125 H 395.451 3.27082 -6.14809 0
M  V30 4126 H 393.078 3.27868 -6.85862 0
M  V30 4127 N 394.653 0.992116 1.22453 0
M  V30 4128 C 395.583 0.561677 2.26644 0
M  V30 4129 C 396.564 -0.411055 1.65059 0
M  V30 4130 O 397.749 -0.301861 1.9184 0
M  V30 4131 C 394.879 -0.125247 3.47074 0
M  V30 4132 C 393.833 0.765948 4.21091 0
M  V30 4133 C 393.159 -0.0538484 5.34673 0
M  V30 4134 C 394.459 2.06242 4.79856 0
M  V30 4135 H 396.153 1.43259 2.62902 0
M  V30 4136 H 393.699 0.690283 1.26377 0
M  V30 4137 H 395.652 -0.437764 4.1912 0
M  V30 4138 H 394.376 -1.03069 3.0991 0
M  V30 4139 H 393.035 1.0621 3.50878 0
M  V30 4140 H 392.683 -0.960188 4.9375 0
M  V30 4141 H 392.383 0.539415 5.85119 0
M  V30 4142 H 393.907 -0.360477 6.09535 0
M  V30 4143 H 395.321 1.8139 5.43848 0
M  V30 4144 H 393.718 2.60444 5.40638 0
M  V30 4145 H 394.788 2.74167 3.99951 0
M  V30 4146 N 396.131 -1.37776 0.765217 0
M  V30 4147 C 397.359 -2.04124 0.337767 0
M  V30 4148 C 397.774 -1.57715 -1.03785 0
M  V30 4149 O 397.131 -0.755447 -1.6613 0
M  V30 4150 C 397.182 -3.59658 0.364442 0
M  V30 4151 O 396.903 -4.04367 1.68579 0
M  V30 4152 C 398.404 -4.43236 -0.0754221 0
M  V30 4153 H 395.624 -0.655696 0.142491 0
M  V30 4154 H 398.168 -1.76238 1.03732 0
M  V30 4155 H 396.323 -3.86339 -0.286471 0
M  V30 4156 H 396.737 -4.98857 1.61993 0
M  V30 4157 H 398.211 -5.52 -0.00560067 0
M  V30 4158 H 398.688 -4.2455 -1.12491 0
M  V30 4159 H 399.294 -4.21767 0.547055 0
M  V30 4160 N 397.609 -0.515225 -1.4894 0
M  V30 4161 C 398.557 0.269115 -2.31038 0
M  V30 4162 C 399.551 0.949443 -1.40292 0
M  V30 4163 O 400.757 0.87551 -1.57273 0
M  V30 4164 H 397.132 0.10565 -0.744542 0
M  V30 4165 H 399.103 -0.443096 -2.95092 0
M  V30 4166 C 397.852 1.31213 -3.21991 0
M  V30 4167 H 397.175 0.798034 -3.91754 0
M  V30 4168 H 398.615 1.83263 -3.82349 0
M  V30 4169 C 397.074 2.33791 -2.42576 0
M  V30 4170 O 397.604 3.3995 -2.14003 0
M  V30 4171 N 395.81 2.06625 -2.0434 0
M  V30 4172 H 395.357 1.20314 -2.27777 0
M  V30 4173 H 395.315 2.75483 -1.51514 0
M  V30 4174 N 399.087 1.5561 -0.249682 0
M  V30 4175 C 400.02 2.17537 0.689408 0
M  V30 4176 C 400.998 1.12829 1.17083 0
M  V30 4177 O 402.182 1.41229 1.24846 0
M  V30 4178 C 399.309 2.77828 1.93725 0
M  V30 4179 C 398.355 3.95615 1.59346 0
M  V30 4180 S 399.188 5.30988 0.69367 0
M  V30 4181 C 400.344 5.94734 1.95046 0
M  V30 4182 H 400.577 2.96852 0.163142 0
M  V30 4183 H 398.11 1.54362 -0.0341166 0
M  V30 4184 H 400.068 3.13199 2.65361 0
M  V30 4185 H 398.729 1.98454 2.43465 0
M  V30 4186 H 397.922 4.364 2.52132 0
M  V30 4187 H 397.524 3.61535 0.957512 0
M  V30 4188 H 399.816 6.12419 2.89739 0
M  V30 4189 H 400.759 6.90109 1.58604 0
M  V30 4190 H 401.167 5.23832 2.10381 0
M  V30 4191 N 400.565 -0.0233959 1.57583 0
M  V30 4192 C 401.842 -0.748794 1.807 0
M  V30 4193 C 402.222 -1.9327 0.849106 0
M  V30 4194 O 401.57 -2.28247 -0.107468 0
M  V30 4195 C 401.78 -1.17651 3.28571 0
M  V30 4196 C 403.128 -1.59008 3.93702 0
M  V30 4197 O 404.152 -1.27094 3.32755 0
M  V30 4198 O 403.011 -2.18264 5.01022 0
M  V30 4199 H 400.105 -0.362578 0.743281 0
M  V30 4200 H 402.651 0.000261958 1.697 0
M  V30 4201 H 401.423 -0.331603 3.89892 0
M  V30 4202 H 401.046 -1.98541 3.44481 0
M  V30 4203 N 402.043 -1.548 -0.295768 0
M  V30 4204 C 402.99 -1.86113 -1.36494 0
M  V30 4205 C 403.96 -0.7105 -1.50137 0
M  V30 4206 O 405.145 -0.959626 -1.64912 0
M  V30 4207 C 402.285 -2.11861 -2.72413 0
M  V30 4208 C 401.398 -3.39471 -2.67177 0
M  V30 4209 C 400.533 -3.55035 -3.95125 0
M  V30 4210 C 399.572 -4.76418 -3.84308 0
M  V30 4211 N 398.709 -4.8876 -5.04042 0
M  V30 4212 H 403.549 -2.77314 -1.09091 0
M  V30 4213 H 401.086 -1.37315 -0.52753 0
M  V30 4214 H 403.044 -2.24786 -3.51464 0
M  V30 4215 H 401.674 -1.2392 -2.98066 0
M  V30 4216 H 400.726 -3.35139 -1.79962 0
M  V30 4217 H 402.038 -4.28646 -2.55076 0
M  V30 4218 H 401.192 -3.67653 -4.82614 0
M  V30 4219 H 399.931 -2.64002 -4.10066 0
M  V30 4220 H 398.936 -4.63827 -2.95202 0
M  V30 4221 H 400.161 -5.68863 -3.70906 0
M  V30 4222 H 398.107 -4.00652 -5.19436 0
M  V30 4223 H 398.024 -5.71945 -4.94384 0
M  V30 4224 H 399.292 -5.0574 -5.93167 0
M  V30 4225 N 403.521 0.559213 -1.47345 0
M  V30 4226 C 404.751 1.33999 -1.57251 0
M  V30 4227 C 405.159 1.87905 -0.220978 0
M  V30 4228 O 404.502 1.65577 0.795617 0
M  V30 4229 C 404.564 2.54798 -2.53611 0
M  V30 4230 C 404.228 2.22192 -3.99349 0
M  V30 4231 C 405.225 1.79607 -4.87891 0
M  V30 4232 C 402.91 2.33613 -4.44669 0
M  V30 4233 C 404.904 1.48868 -6.19772 0
M  V30 4234 C 402.591 2.02487 -5.76578 0
M  V30 4235 C 403.589 1.60183 -6.63951 0
M  V30 4236 O 403.277 1.29451 -7.93409 0
M  V30 4237 H 403.009 0.414858 -0.533731 0
M  V30 4238 H 405.563 0.684465 -1.9366 0
M  V30 4239 H 403.793 3.23235 -2.12265 0
M  V30 4240 H 405.482 3.16873 -2.53666 0
M  V30 4241 H 406.248 1.70278 -4.54126 0
M  V30 4242 H 402.127 2.65501 -3.76869 0
M  V30 4243 H 405.671 1.15775 -6.87926 0
M  V30 4244 H 401.568 2.11448 -6.09885 0
M  V30 4245 H 402.336 1.43098 -8.05894 0
M  V30 4246 N 404.999 1.35443 0.805782 0
M  V30 4247 C 406.247 1.28507 1.55982 0
M  V30 4248 C 406.568 -0.140046 1.94496 0
M  V30 4249 O 405.838 -1.07666 1.63661 0
M  V30 4250 H 404.418 0.472676 0.578434 0
M  V30 4251 H 407.08 1.69555 0.961098 0
M  V30 4252 H 406.176 1.90148 2.47488 0
M  V30 4253 N 406.477 -1.02803 1.19454 0
M  V30 4254 C 407.425 -2.13213 0.929673 0
M  V30 4255 C 408.419 -1.69011 -0.114806 0
M  V30 4256 O 409.625 -1.79967 0.0345147 0
M  V30 4257 H 406 -0.69662 0.28324 0
M  V30 4258 H 407.971 -2.32744 1.86743 0
M  V30 4259 C 406.72 -3.4429 0.485797 0
M  V30 4260 H 406.043 -3.7872 1.28105 0
M  V30 4261 H 407.483 -4.22638 0.339582 0
M  V30 4262 C 405.942 -3.27258 -0.800244 0
M  V30 4263 O 406.472 -3.55967 -1.86146 0
M  V30 4264 N 404.678 -2.80545 -0.75781 0
M  V30 4265 H 404.225 -2.57382 0.106039 0
M  V30 4266 H 404.183 -2.6953 -1.61867 0
M  V30 4267 N 407.956 -0.998596 -1.21925 0
M  V30 4268 C 409.184 -0.696286 -1.94832 0
M  V30 4269 C 409.599 0.740032 -1.73692 0
M  V30 4270 O 408.956 1.5 -1.03953 0
M  V30 4271 C 409.007 -0.999833 -3.47398 0
M  V30 4272 O 408.728 -2.37972 -3.67833 0
M  V30 4273 C 410.229 -0.716025 -4.37479 0
M  V30 4274 H 407.449 -0.257111 -0.619786 0
M  V30 4275 H 409.993 -1.33491 -1.54921 0
M  V30 4276 H 408.148 -0.406918 -3.85257 0
M  V30 4277 H 408.562 -2.48338 -4.61983 0
M  V30 4278 H 410.036 -0.978642 -5.43256 0
M  V30 4279 H 410.513 0.349968 -4.37803 0
M  V30 4280 H 411.119 -1.29025 -4.05256 0
M  V30 4281 N 409.434 1.37368 -0.772513 0
M  V30 4282 C 410.659 2.0447 -0.347386 0
M  V30 4283 C 411.084 1.57882 1.0225 0
M  V30 4284 O 410.442 0.73941 1.65537 0
M  V30 4285 C 410.49 3.58369 -0.400479 0
M  V30 4286 O 409.594 4.0803 0.598789 0
M  V30 4287 H 408.935 0.646773 -0.15027 0
M  V30 4288 H 411.465 1.75667 -1.04892 0
M  V30 4289 H 411.475 4.07183 -0.258045 0
M  V30 4290 H 410.15 3.91633 -1.39986 0
M  V30 4291 H 408.727 3.70534 0.419411 0
M  V30 4292 N 410.912 0.523116 1.48665 0
M  V30 4293 C 411.875 -0.232592 2.28017 0
M  V30 4294 C 412.875 -0.874021 1.34972 0
M  V30 4295 O 414.065 -0.735132 1.57929 0
M  V30 4296 C 411.197 -1.33586 3.13636 0
M  V30 4297 H 412.39 0.464008 2.96289 0
M  V30 4298 H 409.943 0.278816 1.53793 0
M  V30 4299 H 410.678 -2.06593 2.4998 0
M  V30 4300 H 410.463 -0.881125 3.82071 0
M  V30 4301 H 411.953 -1.86759 3.73511 0
M  V30 4302 N 412.39 -1.55475 0.257931 0
M  V30 4303 C 413.353 -2.20551 -0.623706 0
M  V30 4304 C 414.353 -1.17809 -1.09443 0
M  V30 4305 O 415.543 -1.42823 -0.997362 0
M  V30 4306 C 412.675 -2.85784 -1.8585 0
M  V30 4307 H 413.868 -2.99848 -0.0557743 0
M  V30 4308 H 411.421 -1.56298 0.0084422 0
M  V30 4309 H 412.156 -2.10453 -2.46739 0
M  V30 4310 H 411.941 -3.61057 -1.52907 0
M  V30 4311 H 413.431 -3.35553 -2.48584 0
M  V30 4312 N 413.868 0.0150385 -1.57593 0
M  V30 4313 C 415.093 0.718067 -1.94573 0
M  V30 4314 C 415.518 1.6734 -0.859005 0
M  V30 4315 O 414.876 1.80362 0.184147 0
M  V30 4316 C 414.924 1.43918 -3.30636 0
M  V30 4317 O 414.028 2.55299 -3.23876 0
M  V30 4318 H 413.369 0.192125 -0.635597 0
M  V30 4319 H 415.899 -0.0336708 -2.04572 0
M  V30 4320 H 415.909 1.80598 -3.65853 0
M  V30 4321 H 414.584 0.738619 -4.09289 0
M  V30 4322 H 413.161 2.21058 -3.00312 0
M  V30 4323 N 415.346 1.54954 0.287554 0
M  V30 4324 C 416.595 1.74081 1.01877 0
M  V30 4325 C 416.908 0.541135 1.87966 0
M  V30 4326 O 418.114 0.614491 2.64455 0
M  V30 4327 C 416.57 3.08042 1.86113 0
M  V30 4328 C 416.178 4.35531 1.04961 0
M  V30 4329 C 417.922 3.36523 2.58752 0
M  V30 4330 C 415.829 5.60538 1.88551 0
M  V30 4331 H 414.759 0.64884 0.384087 0
M  V30 4332 H 417.41 1.81426 0.275101 0
M  V30 4333 H 415.792 2.94696 2.64519 0
M  V30 4334 H 416.966 4.59751 0.31074 0
M  V30 4335 H 415.281 4.14085 0.43843 0
M  V30 4336 H 417.878 4.27122 3.21668 0
M  V30 4337 H 418.221 2.56 3.28283 0
M  V30 4338 H 418.754 3.50901 1.87386 0
M  V30 4339 H 415.493 6.43767 1.23466 0
M  V30 4340 H 415.013 5.40483 2.60074 0
M  V30 4341 H 416.692 5.98297 2.46273 0
M  V30 4342 N 416.824 -0.551391 1.4764 0
M  V30 4343 C 418.235 -1.13349 1.48354 0
M  V30 4344 C 418.586 -1.94709 0.241432 0
M  V30 4345 O 417.711 -2.06306 -0.653205 0
M  V30 4346 C 418.306 -2.0623 2.68802 0
M  V30 4347 C 416.865 -2.597 2.72457 0
M  V30 4348 C 416.012 -1.36201 2.41546 0
M  V30 4349 H 418.963 -0.337698 1.55065 0
M  V30 4350 H 418.984 -2.90196 2.46103 0
M  V30 4351 H 418.496 -1.46987 3.59188 0
M  V30 4352 H 416.597 -3.22724 1.86225 0
M  V30 4353 H 416.71 -3.00296 3.73308 0
M  V30 4354 H 415.074 -1.67068 1.9225 0
M  V30 4355 H 415.857 -0.787425 3.34147 0
M  V30 4356 N 418.302 -1.35869 -0.798587 0
M  V30 4357 C 419.551 -1.28921 -1.5512 0
M  V30 4358 C 419.864 0.13208 -1.95154 0
M  V30 4359 O 421.07 0.323879 -2.69561 0
M  V30 4360 C 419.526 -2.26141 -2.79979 0
M  V30 4361 C 419.134 -3.73658 -2.47151 0
M  V30 4362 C 420.878 -2.28152 -3.57976 0
M  V30 4363 C 418.785 -4.62679 -3.6835 0
M  V30 4364 H 417.715 -0.479031 -0.582276 0
M  V30 4365 H 420.366 -1.61179 -0.877125 0
M  V30 4366 H 418.748 -1.86865 -3.49138 0
M  V30 4367 H 419.922 -4.21616 -1.85947 0
M  V30 4368 H 418.237 -3.74333 -1.82383 0
M  V30 4369 H 420.834 -2.91875 -4.4801 0
M  V30 4370 H 421.177 -1.28748 -3.95891 0
M  V30 4371 H 421.71 -2.65998 -2.95787 0
M  V30 4372 H 418.449 -5.63111 -3.35538 0
M  V30 4373 H 417.969 -4.19442 -4.28752 0
M  V30 4374 H 419.648 -4.78498 -4.35487 0
M  V30 4375 N 419.78 1.02168 -1.19998 0
M  V30 4376 C 420.71 2.12488 -0.96804 0
M  V30 4377 C 421.691 1.69799 0.101185 0
M  V30 4378 O 422.876 1.94121 -0.0552993 0
M  V30 4379 C 420.006 3.43479 -0.513776 0
M  V30 4380 C 418.96 3.99884 -1.52566 0
M  V30 4381 C 418.286 5.26582 -0.928214 0
M  V30 4382 C 419.586 4.33861 -2.90795 0
M  V30 4383 H 421.28 2.32149 -1.89069 0
M  V30 4384 H 418.826 1.11564 -0.910468 0
M  V30 4385 H 420.779 4.20036 -0.338774 0
M  V30 4386 H 419.503 3.23561 0.444493 0
M  V30 4387 H 418.162 3.25429 -1.68794 0
M  V30 4388 H 417.81 5.02986 0.0378289 0
M  V30 4389 H 417.51 5.65284 -1.60397 0
M  V30 4390 H 419.034 6.05799 -0.764167 0
M  V30 4391 H 420.448 5.01327 -2.78109 0
M  V30 4392 H 418.845 4.83664 -3.55231 0
M  V30 4393 H 419.915 3.42848 -3.42904 0
M  V30 4394 N 421.258 1.00505 1.21394 0
M  V30 4395 C 422.188 0.585684 2.26035 0
M  V30 4396 C 423.169 -0.393525 1.65485 0
M  V30 4397 O 424.354 -0.281497 1.92149 0
M  V30 4398 C 421.484 -0.0884283 3.47187 0
M  V30 4399 C 420.438 0.810567 4.20254 0
M  V30 4400 C 419.764 0.00286382 5.347 0
M  V30 4401 C 421.064 2.1132 4.77641 0
M  V30 4402 H 422.758 1.46039 2.61368 0
M  V30 4403 H 420.304 0.703648 1.25638 0
M  V30 4404 H 422.257 -0.393286 4.19561 0
M  V30 4405 H 420.981 -0.997766 3.10986 0
M  V30 4406 H 419.64 1.09925 3.49731 0
M  V30 4407 H 419.288 -0.907765 4.94741 0
M  V30 4408 H 418.988 0.601444 5.84514 0
M  V30 4409 H 420.512 -0.295808 6.09883 0
M  V30 4410 H 421.926 1.87148 5.41893 0
M  V30 4411 H 420.323 2.66164 5.37845 0
M  V30 4412 H 421.393 2.78393 3.9702 0
M  V30 4413 N 422.737 -1.36956 0.779787 0
M  V30 4414 C 424.014 -1.93697 0.272156 0
M  V30 4415 C 424.394 -1.71267 -1.23413 0
M  V30 4416 O 423.742 -1.06607 -2.02107 0
M  V30 4417 C 423.952 -3.42812 0.654291 0
M  V30 4418 C 425.3 -4.19921 0.628602 0
M  V30 4419 O 426.324 -3.51209 0.594172 0
M  V30 4420 O 425.183 -5.42465 0.662864 0
M  V30 4421 H 422.277 -0.824447 0.0649286 0
M  V30 4422 H 424.823 -1.46196 0.861682 0
M  V30 4423 H 423.595 -3.52754 1.69353 0
M  V30 4424 H 423.218 -3.97582 0.0381369 0
M  V30 4425 N 424.215 -0.530993 -1.48385 0
M  V30 4426 C 425.125 0.23503 -2.3342 0
M  V30 4427 C 426.141 0.93801 -1.46552 0
M  V30 4428 O 427.317 0.912745 -1.7953 0
M  V30 4429 C 424.382 1.26778 -3.22689 0
M  V30 4430 C 423.443 0.575038 -4.25431 0
M  V30 4431 C 422.676 1.55858 -5.10435 0
M  V30 4432 O 422.899 2.79129 -4.97437 0
M  V30 4433 O 421.833 1.09742 -5.91811 0
M  V30 4434 H 425.659 -0.461794 -3.00169 0
M  V30 4435 H 423.244 -0.291903 -1.46521 0
M  V30 4436 H 425.126 1.86457 -3.77904 0
M  V30 4437 H 423.801 1.94699 -2.586 0
M  V30 4438 H 422.708 -0.0622782 -3.74048 0
M  V30 4439 H 424.041 -0.062253 -4.92161 0
M  V30 4440 N 425.693 1.55336 -0.266172 0
M  V30 4441 C 426.656 2.20878 0.612001 0
M  V30 4442 C 427.656 1.18388 1.08816 0
M  V30 4443 O 428.846 1.4335 0.989774 0
M  V30 4444 C 425.978 2.86765 1.84332 0
M  V30 4445 H 427.171 2.99873 0.0398718 0
M  V30 4446 H 424.724 1.56291 -0.0167309 0
M  V30 4447 H 425.459 2.11759 2.45619 0
M  V30 4448 H 425.244 3.61862 1.5099 0
M  V30 4449 H 426.734 3.36867 2.46801 0
M  V30 4450 N 427.171 -0.0066808 1.57599 0
M  V30 4451 C 428.417 -0.693947 1.90558 0
M  V30 4452 C 428.75 -1.73792 0.866594 0
M  V30 4453 O 428.025 -1.94156 -0.115548 0
M  V30 4454 C 428.308 -1.34317 3.34112 0
M  V30 4455 C 428.161 -0.311189 4.48722 0
M  V30 4456 C 429.48 -2.27116 3.7697 0
M  V30 4457 H 426.599 -0.250803 0.693013 0
M  V30 4458 H 429.241 0.043242 1.89951 0
M  V30 4459 H 427.391 -1.9715 3.3476 0
M  V30 4460 H 429.063 0.316944 4.6021 0
M  V30 4461 H 427.306 0.367253 4.32243 0
M  V30 4462 H 427.977 -0.804366 5.46108 0
M  V30 4463 H 430.453 -1.74306 3.77831 0
M  V30 4464 H 429.329 -2.69511 4.78179 0
M  V30 4465 H 429.59 -3.14743 3.10466 0
M  V30 4466 N 428.649 -1.55105 -0.279332 0
M  V30 4467 C 429.559 -1.90638 -1.36727 0
M  V30 4468 C 430.575 -0.802899 -1.54368 0
M  V30 4469 O 431.751 -1.10138 -1.68616 0
M  V30 4470 C 428.816 -2.16547 -2.70755 0
M  V30 4471 C 427.877 -3.40146 -2.61915 0
M  V30 4472 C 427.11 -3.6481 -3.8955 0
M  V30 4473 O 427.333 -2.92095 -4.89935 0
M  V30 4474 O 426.267 -4.58343 -3.90135 0
M  V30 4475 H 430.093 -2.83237 -1.09591 0
M  V30 4476 H 427.678 -1.4157 -0.477306 0
M  V30 4477 H 429.56 -2.34665 -3.50014 0
M  V30 4478 H 428.235 -1.27131 -2.9769 0
M  V30 4479 H 427.142 -3.2737 -1.81052 0
M  V30 4480 H 428.475 -4.29761 -2.3993 0
M  V30 4481 N 430.127 0.543554 -1.4793 0
M  V30 4482 C 431.075 1.67039 -1.61866 0
M  V30 4483 C 432.069 1.62294 -0.48549 0
M  V30 4484 O 433.275 1.67315 -0.66376 0
M  V30 4485 H 429.65 0.552954 -0.509652 0
M  V30 4486 H 431.621 1.52426 -2.56533 0
M  V30 4487 C 430.37 3.05357 -1.6629 0
M  V30 4488 H 429.693 3.09696 -2.5284 0
M  V30 4489 H 431.133 3.83855 -1.80088 0
M  V30 4490 C 429.592 3.34531 -0.398861 0
M  V30 4491 O 430.122 3.98649 0.494162 0
M  V30 4492 N 428.328 2.89299 -0.2747 0
M  V30 4493 H 427.875 2.37298 -1.00236 0
M  V30 4494 H 427.833 3.09188 0.570075 0
M  V30 4495 N 431.605 1.3629 0.791371 0
M  V30 4496 C 432.853 1.30154 1.5461 0
M  V30 4497 C 433.174 -0.119409 1.94634 0
M  V30 4498 O 432.444 -1.05924 1.64794 0
M  V30 4499 H 431.024 0.478784 0.573389 0
M  V30 4500 H 433.686 1.70565 0.94306 0
M  V30 4501 H 432.782 1.92762 2.45457 0
M  V30 4502 N 433.083 -1.0153 1.20538 0
M  V30 4503 C 434.311 -1.78746 1.04199 0
M  V30 4504 C 434.726 -1.84323 -0.408733 0
M  V30 4505 O 434.083 -1.29714 -1.28377 0
M  V30 4506 C 434.134 -3.23152 1.62035 0
M  V30 4507 O 433.855 -3.17918 3.0143 0
M  V30 4508 C 435.356 -4.16911 1.50666 0
M  V30 4509 H 432.576 -0.56208 0.366479 0
M  V30 4510 H 435.12 -1.27794 1.59653 0
M  V30 4511 H 433.275 -3.71248 1.10697 0
M  V30 4512 H 433.689 -4.08567 3.28897 0
M  V30 4513 H 435.163 -5.16072 1.95892 0
M  V30 4514 H 435.64 -4.36791 0.459363 0
M  V30 4515 H 436.246 -3.74698 2.01201 0
M  V30 4516 N 434.561 -1.01147 -1.20859 0
M  V30 4517 C 435.491 -0.597663 -2.25722 0
M  V30 4518 C 436.472 0.384744 -1.65692 0
M  V30 4519 O 437.657 0.271303 -1.92296 0
M  V30 4520 C 434.787 0.0700149 -3.47229 0
M  V30 4521 C 433.741 -0.832843 -4.19819 0
M  V30 4522 C 433.067 -0.0312202 -5.34691 0
M  V30 4523 C 434.367 -2.1385 -4.76514 0
M  V30 4524 H 436.061 -1.47423 -2.60589 0
M  V30 4525 H 433.607 -0.710301 -1.25263 0
M  V30 4526 H 435.56 0.37103 -4.19763 0
M  V30 4527 H 434.284 0.981259 -3.11511 0
M  V30 4528 H 432.943 -1.11778 -3.49144 0
M  V30 4529 H 432.591 0.881515 -4.95215 0
M  V30 4530 H 432.291 -0.632434 -5.84187 0
M  V30 4531 H 433.815 0.26346 -6.10031 0
M  V30 4532 H 435.229 -1.9002 -5.40893 0
M  V30 4533 H 433.626 -2.69012 -5.36426 0
M  V30 4534 H 434.696 -2.80495 -3.95538 0
M  V30 4535 N 436.039 1.36541 -0.78704 0
M  V30 4536 C 437.288 1.98552 -0.35494 0
M  V30 4537 C 437.601 1.63171 1.07864 0
M  V30 4538 O 438.807 2.18399 1.61289 0
M  V30 4539 C 437.263 3.55136 -0.583671 0
M  V30 4540 C 436.871 3.99444 -2.02851 0
M  V30 4541 C 438.615 4.2395 -0.215957 0
M  V30 4542 C 436.522 5.48796 -2.20403 0
M  V30 4543 H 435.452 0.742888 -0.128972 0
M  V30 4544 H 438.103 1.5587 -0.968337 0
M  V30 4545 H 436.485 3.95875 0.0994046 0
M  V30 4546 H 437.659 3.6991 -2.74779 0
M  V30 4547 H 435.974 3.43459 -2.35425 0
M  V30 4548 H 438.571 5.33709 -0.325405 0
M  V30 4549 H 438.914 4.07827 0.835646 0
M  V30 4550 H 439.447 3.88565 -0.852175 0
M  V30 4551 H 436.186 5.69864 -3.23937 0
M  V30 4552 H 435.706 5.79964 -1.52977 0
M  V30 4553 H 437.385 6.14986 -2.01002 0
M  V30 4554 N 437.518 0.538854 1.48102 0
M  V30 4555 C 438.448 -0.207654 2.32575 0
M  V30 4556 C 439.429 -0.926559 1.4265 0
M  V30 4557 O 440.614 -0.91061 1.71527 0
M  V30 4558 C 437.744 -1.24957 3.24042 0
M  V30 4559 C 436.698 -0.648263 4.23062 0
M  V30 4560 C 436.024 -1.79348 5.03725 0
M  V30 4561 C 437.324 0.385897 5.20872 0
M  V30 4562 H 439.018 0.497534 2.95237 0
M  V30 4563 H 436.564 0.240715 1.41974 0
M  V30 4564 H 438.517 -1.77983 3.81969 0
M  V30 4565 H 437.241 -1.98446 2.59397 0
M  V30 4566 H 435.9 -0.139452 3.66335 0
M  V30 4567 H 435.548 -2.51696 4.35498 0
M  V30 4568 H 435.248 -1.39702 5.70751 0
M  V30 4569 H 436.772 -2.32735 5.64506 0
M  V30 4570 H 438.186 -0.057607 5.73271 0
M  V30 4571 H 436.583 0.700227 5.96001 0
M  V30 4572 H 437.653 1.28848 4.67468 0
M  V30 4573 N 438.996 -1.55193 0.274407 0
M  V30 4574 C 440.244 -1.99187 -0.341902 0
M  V30 4575 C 440.565 -1.16422 -1.56431 0
M  V30 4576 O 439.835 -0.253573 -1.94252 0
M  V30 4577 H 438.415 -0.735721 -0.129317 0
M  V30 4578 H 441.077 -1.91168 0.379578 0
M  V30 4579 H 440.173 -3.05629 -0.632253 0
M  V30 4580 N 440.474 -0.00167713 -1.576 0
M  V30 4581 C 441.699 0.69739 -1.95323 0
M  V30 4582 C 442.124 1.6642 -0.876706 0
M  V30 4583 O 441.482 1.80548 0.165007 0
M  V30 4584 C 441.53 1.40403 -3.32144 0
M  V30 4585 O 440.634 2.5185 -3.26566 0
M  V30 4586 H 439.975 0.185373 -0.637599 0
M  V30 4587 H 442.505 -0.0553665 -2.04525 0
M  V30 4588 H 442.515 1.76707 -3.67748 0
M  V30 4589 H 441.19 0.695167 -4.10049 0
M  V30 4590 H 439.767 2.17861 -3.0264 0
M  V30 4591 N 441.952 1.55251 0.271103 0
M  V30 4592 C 442.884 1.84675 1.35749 0
M  V30 4593 C 443.897 0.731366 1.45447 0
M  V30 4594 O 445.086 1.00924 1.4723 0
M  V30 4595 C 442.186 1.99638 2.73857 0
M  V30 4596 C 441.359 3.30312 2.86727 0
M  V30 4597 C 440.418 3.35318 4.05522 0
M  V30 4598 O 439.444 4.08682 3.96191 0
M  V30 4599 N 440.646 2.62857 5.17577 0
M  V30 4600 H 443.411 2.78445 1.10853 0
M  V30 4601 H 440.972 1.55191 0.461218 0
M  V30 4602 H 442.964 2.00355 3.51625 0
M  V30 4603 H 441.534 1.12725 2.91568 0
M  V30 4604 H 440.754 3.42118 1.95829 0
M  V30 4605 H 442.042 4.16488 2.92258 0
M  V30 4606 H 441.44 2.02939 5.28046 0
M  V30 4607 H 439.997 2.69295 5.93568 0
M  V30 4608 N 443.43 -0.535701 1.48216 0
M  V30 4609 C 444.362 -1.65662 1.58394 0
M  V30 4610 C 445.375 -1.5591 0.468607 0
M  V30 4611 O 446.564 -1.62475 0.7392 0
M  V30 4612 C 443.664 -3.04276 1.4923 0
M  V30 4613 C 442.837 -3.39567 2.75705 0
M  V30 4614 C 441.896 -4.57436 2.60075 0
M  V30 4615 O 440.922 -4.60942 3.33948 0
M  V30 4616 N 442.124 -5.55259 1.69315 0
M  V30 4617 H 444.889 -1.5737 2.55058 0
M  V30 4618 H 442.45 -0.722845 1.44867 0
M  V30 4619 H 444.442 -3.80994 1.36477 0
M  V30 4620 H 443.012 -3.06677 0.605632 0
M  V30 4621 H 442.232 -2.52083 3.03064 0
M  V30 4622 H 443.52 -3.59929 3.59623 0
M  V30 4623 H 442.918 -5.552 1.08489 0
M  V30 4624 H 441.475 -6.31218 1.62504 0
M  V30 4625 N 444.908 -1.36708 -0.784132 0
M  V30 4626 C 446.324 -1.17237 -1.08294 0
M  V30 4627 C 446.524 -5.93947e-05 -2.015 0
M  V30 4628 O 445.58 0.663686 -2.43622 0
M  V30 4629 C 446.893 -2.48557 -1.69233 0
M  V30 4630 C 448.441 -2.54968 -1.8155 0
M  V30 4631 C 448.916 -3.86388 -2.45904 0
M  V30 4632 N 450.407 -3.87762 -2.53367 0
M  V30 4633 C 451.142 -4.86191 -3.03983 0
M  V30 4634 N 450.638 -5.95015 -3.54866 0
M  V30 4635 N 452.431 -4.73606 -3.02743 0
M  V30 4636 H 444.582 -2.11758 -0.16501 0
M  V30 4637 H 446.845 -0.93822 -0.135822 0
M  V30 4638 H 446.551 -3.34638 -1.08215 0
M  V30 4639 H 446.425 -2.64748 -2.68679 0
M  V30 4640 H 448.812 -1.69302 -2.41704 0
M  V30 4641 H 448.893 -2.42672 -0.80895 0
M  V30 4642 H 448.537 -4.72462 -1.86392 0
M  V30 4643 H 448.467 -3.95982 -3.4714 0
M  V30 4644 H 450.958 -3.09145 -2.17343 0
M  V30 4645 H 451.271 -6.66086 -3.91854 0
M  V30 4646 H 449.616 -5.98676 -3.53003 0
M  V30 4647 H 452.807 -3.87717 -2.62284 0
M  V30 4648 H 452.98 -5.50473 -3.41881 0
M  V30 4649 N 446.386 1.0089 -1.21074 0
M  V30 4650 C 447.632 1.74866 -1.02712 0
M  V30 4651 C 447.965 1.89178 0.438787 0
M  V30 4652 O 447.24 1.42325 1.32567 0
M  V30 4653 C 447.523 3.16347 -1.72036 0
M  V30 4654 C 447.376 3.09782 -3.26121 0
M  V30 4655 C 448.695 4.15187 -1.45973 0
M  V30 4656 H 445.814 0.634736 -0.374539 0
M  V30 4657 H 448.456 1.17646 -1.49196 0
M  V30 4658 H 446.606 3.65201 -1.32517 0
M  V30 4659 H 448.278 2.68673 -3.74983 0
M  V30 4660 H 446.521 2.46982 -3.56626 0
M  V30 4661 H 447.192 4.09829 -3.6979 0
M  V30 4662 H 449.668 3.75022 -1.80272 0
M  V30 4663 H 448.544 5.12331 -1.96999 0
M  V30 4664 H 448.805 4.40386 -0.388924 0
M  V30 4665 N 447.864 1.01787 1.20321 0
M  V30 4666 C 449.11 0.708985 1.90003 0
M  V30 4667 C 449.443 -0.759572 1.78729 0
M  V30 4668 O 448.718 -1.55198 1.17234 0
M  V30 4669 C 449.001 1.1469 3.41348 0
M  V30 4670 C 448.854 2.67586 3.61549 0
M  V30 4671 C 450.173 0.71915 4.34185 0
M  V30 4672 H 447.292 0.259034 0.689978 0
M  V30 4673 H 449.934 1.26584 1.41692 0
M  V30 4674 H 448.084 0.673128 3.82624 0
M  V30 4675 H 449.756 3.22826 3.29517 0
M  V30 4676 H 447.999 3.085 3.04976 0
M  V30 4677 H 448.67 2.93281 4.67643 0
M  V30 4678 H 451.146 1.12647 4.00562 0
M  V30 4679 H 450.022 1.05358 5.38694 0
M  V30 4680 H 450.283 -0.379111 4.40472 0
M  V30 4681 N 449.342 -1.36122 0.79427 0
M  V30 4682 C 450.272 -2.32551 0.210328 0
M  V30 4683 C 451.253 -1.56884 -0.657386 0
M  V30 4684 O 452.438 -1.85014 -0.590207 0
M  V30 4685 C 449.568 -3.41128 -0.651819 0
M  V30 4686 C 448.522 -4.27842 0.116395 0
M  V30 4687 C 447.848 -5.2763 -0.86666 0
M  V30 4688 C 449.148 -5.05647 1.30837 0
M  V30 4689 H 450.842 -2.81636 1.01594 0
M  V30 4690 H 448.388 -1.35407 0.489981 0
M  V30 4691 H 450.341 -4.07581 -1.07031 0
M  V30 4692 H 449.065 -2.90622 -1.49019 0
M  V30 4693 H 447.724 -3.62952 0.515915 0
M  V30 4694 H 447.372 -4.73395 -1.70019 0
M  V30 4695 H 447.072 -5.86514 -0.35705 0
M  V30 4696 H 448.596 -5.96955 -1.28361 0
M  V30 4697 H 450.01 -5.65113 0.965393 0
M  V30 4698 H 448.407 -5.73967 1.75161 0
M  V30 4699 H 449.477 -4.37006 2.10128 0
M  V30 4700 N 450.82 -0.546701 -1.47814 0
M  V30 4701 C 452.048 -0.0232857 -2.06887 0
M  V30 4702 C 452.463 1.26571 -1.4009 0
M  V30 4703 O 451.82 1.7569 -0.493906 0
M  V30 4704 C 451.871 0.186975 -3.61016 0
M  V30 4705 O 451.592 -1.05097 -4.25307 0
M  V30 4706 C 453.093 0.748872 -4.36929 0
M  V30 4707 H 450.313 -0.0410763 -0.669742 0
M  V30 4708 H 452.857 -0.757117 -1.89968 0
M  V30 4709 H 451.012 0.870903 -3.77484 0
M  V30 4710 H 451.426 -0.842121 -5.17695 0
M  V30 4711 H 452.9 0.845334 -5.45489 0
M  V30 4712 H 453.377 1.75772 -4.02493 0
M  V30 4713 H 453.983 0.100979 -4.2518 0
M  V30 4714 N 452.299 1.55045 -0.282633 0
M  V30 4715 C 453.547 1.99365 0.331334 0
M  V30 4716 C 453.868 1.1725 1.55812 0
M  V30 4717 O 453.138 0.263871 1.94115 0
M  V30 4718 H 451.718 0.736397 0.125414 0
M  V30 4719 H 454.38 1.90964 -0.389711 0
M  V30 4720 H 453.476 3.0596 0.616036 0
M  V30 4721 N 453.777 0.010035 1.57597 0
M  V30 4722 C 455.024 -0.6727 1.91 0
M  V30 4723 C 455.352 -1.73219 0.884614 0
M  V30 4724 O 454.607 -1.95395 -0.109215 0
M  V30 4725 C 454.906 -1.34434 3.31153 0
M  V30 4726 C 454.572 -0.417083 4.48967 0
M  V30 4727 C 453.234 -0.161809 4.80928 0
M  V30 4728 C 455.586 0.220753 5.20732 0
M  V30 4729 C 452.914 0.739426 5.82022 0
M  V30 4730 C 455.266 1.10993 6.22787 0
M  V30 4731 C 453.93 1.37428 6.532 0
M  V30 4732 H 453.2 -0.246158 0.698918 0
M  V30 4733 H 455.847 0.0677145 1.9138 0
M  V30 4734 H 454.152 -2.15905 3.26944 0
M  V30 4735 H 455.849 -1.87883 3.54261 0
M  V30 4736 H 452.439 -0.626217 4.24001 0
M  V30 4737 H 456.623 0.0365643 4.96287 0
M  V30 4738 H 451.879 0.952139 6.03941 0
M  V30 4739 H 456.053 1.61046 6.77523 0
M  V30 4740 H 453.68 2.0743 7.31353 0
M  V30 4741 N 455.255 -1.55392 -0.262866 0
M  V30 4742 C 456.503 -1.76127 -0.991147 0
M  V30 4743 C 456.824 -0.571083 -1.8645 0
M  V30 4744 O 456.094 0.413698 -1.91482 0
M  V30 4745 H 454.674 -0.649528 -0.368948 0
M  V30 4746 H 457.336 -1.9281 -0.284655 0
M  V30 4747 H 456.432 -2.6663 -1.62219 0
M  V30 4748 N 456.733 0.527833 -1.48498 0
M  V30 4749 C 457.981 1.28101 -1.56316 0
M  V30 4750 C 458.302 1.9352 -0.239781 0
M  V30 4751 O 457.572 1.81433 0.738849 0
M  V30 4752 H 456.152 0.475793 -0.575873 0
M  V30 4753 H 458.814 0.614052 -1.84974 0
M  V30 4754 H 457.91 2.05916 -2.34532 0
M  V30 4755 N 458.211 1.37122 0.776871 0
M  V30 4756 C 459.459 1.31787 1.53221 0
M  V30 4757 C 459.78 -0.0987589 1.9475 0
M  V30 4758 O 459.05 -1.0417 1.65908 0
M  V30 4759 H 457.63 0.484839 0.568278 0
M  V30 4760 H 460.292 1.71556 0.924917 0
M  V30 4761 H 459.388 1.95355 2.43398 0
M  V30 4762 N 459.689 -1.00246 1.21608 0
M  V30 4763 C 460.619 -2.10921 1.00172 0
M  V30 4764 C 461.6 -1.69938 -0.0741587 0
M  V30 4765 O 462.785 -1.94009 0.0861753 0
M  V30 4766 C 459.915 -3.42618 0.568355 0
M  V30 4767 C 458.869 -3.97407 1.58909 0
M  V30 4768 C 458.195 -5.25038 1.01187 0
M  V30 4769 C 459.495 -4.2918 2.97661 0
M  V30 4770 H 461.189 -2.29112 1.92739 0
M  V30 4771 H 458.735 -1.10101 0.928102 0
M  V30 4772 H 460.688 -4.19444 0.405555 0
M  V30 4773 H 459.412 -3.24227 -0.392961 0
M  V30 4774 H 458.071 -3.22703 1.73949 0
M  V30 4775 H 457.719 -5.02982 0.0421965 0
M  V30 4776 H 457.419 -5.62661 1.6937 0
M  V30 4777 H 458.943 -6.04507 0.860448 0
M  V30 4778 H 460.357 -4.96839 2.86049 0
M  V30 4779 H 458.754 -4.77952 3.6288 0
M  V30 4780 H 459.824 -3.3735 3.48315 0
M  V30 4781 N 461.167 -1.02423 -1.1978 0
M  V30 4782 C 462.395 -0.737456 -1.93311 0
M  V30 4783 C 462.81 0.703023 -1.75223 0
M  V30 4784 O 462.167 1.47761 -1.07112 0
M  V30 4785 C 462.218 -1.0733 -3.45199 0
M  V30 4786 O 461.939 -2.4572 -3.62702 0
M  V30 4787 C 463.44 -0.80866 -4.35862 0
M  V30 4788 H 460.66 -0.2702 -0.614193 0
M  V30 4789 H 463.204 -1.36747 -1.52054 0
M  V30 4790 H 461.359 -0.488545 -3.84307 0
M  V30 4791 H 461.773 -2.58081 -4.56612 0
M  V30 4792 H 463.247 -1.09365 -5.41057 0
M  V30 4793 H 463.724 0.257025 -4.38447 0
M  V30 4794 H 464.33 -1.37592 -4.02428 0
M  V30 4795 N 462.645 1.35699 -0.801477 0
M  V30 4796 C 463.891 1.99643 -0.389135 0
M  V30 4797 C 464.246 1.62447 1.03095 0
M  V30 4798 O 463.539 0.875064 1.7045 0
M  V30 4799 C 463.733 3.53828 -0.504041 0
M  V30 4800 C 463.562 4.06 -1.93375 0
M  V30 4801 C 462.332 4.35592 -2.561 0
M  V30 4802 C 464.53 4.24905 -2.89759 0
M  V30 4803 N 462.512 4.73663 -3.90534 0
M  V30 4804 C 463.883 4.65914 -4.09052 0
M  V30 4805 C 465.938 4.07101 -2.86658 0
M  V30 4806 C 464.641 4.90984 -5.25669 0
M  V30 4807 C 466.667 4.33324 -4.02472 0
M  V30 4808 C 466.029 4.74601 -5.20512 0
M  V30 4809 H 462.128 0.758552 -0.19006 0
M  V30 4810 H 464.712 1.64493 -1.04164 0
M  V30 4811 H 462.883 3.88219 0.118437 0
M  V30 4812 H 464.615 4.04645 -0.0667794 0
M  V30 4813 H 461.37 4.25728 -2.07492 0
M  V30 4814 H 461.794 4.96965 -4.59734 0
M  V30 4815 H 466.436 3.74335 -1.96552 0
M  V30 4816 H 464.154 5.22626 -6.1635 0
M  V30 4817 H 467.74 4.21107 -4.01447 0
M  V30 4818 H 466.62 4.94497 -6.08639 0
M  V30 4819 N 464.123 0.554532 1.47522 0
M  V30 4820 C 465.371 0.0294208 2.02079 0
M  V30 4821 C 465.692 -1.32411 1.43151 0
M  V30 4822 O 464.962 -1.863 0.605728 0
M  V30 4823 H 463.542 0.00788672 0.746958 0
M  V30 4824 H 466.204 0.723934 1.80956 0
M  V30 4825 H 465.3 -0.0606745 3.12041 0
M  V30 4826 N 465.601 -1.54893 0.290851 0
M  V30 4827 C 466.826 -2.04804 -0.32712 0
M  V30 4828 C 467.251 -1.16721 -1.47506 0
M  V30 4829 O 466.609 -0.169107 -1.8051 0
M  V30 4830 C 466.657 -3.52268 -0.770689 0
M  V30 4831 O 465.761 -3.67236 -1.87647 0
M  V30 4832 H 465.102 -0.660789 -0.0652227 0
M  V30 4833 H 467.632 -2.00036 0.429739 0
M  V30 4834 H 467.642 -3.9393 -1.06223 0
M  V30 4835 H 466.317 -4.15843 0.069096 0
M  V30 4836 H 464.894 -3.37479 -1.58626 0
M  V30 4837 N 467.08 -0.0183926 -1.57589 0
M  V30 4838 C 468.01 0.965596 -2.12599 0
M  V30 4839 C 468.991 1.34641 -1.0395 0
M  V30 4840 O 470.176 1.42693 -1.31729 0
M  V30 4841 C 467.306 2.25149 -2.64434 0
M  V30 4842 C 466.26 2.01175 -3.77773 0
M  V30 4843 C 465.586 3.35937 -4.15994 0
M  V30 4844 C 466.886 1.35953 -5.04296 0
M  V30 4845 H 468.58 0.507504 -2.95067 0
M  V30 4846 H 466.126 0.242671 -1.41941 0
M  V30 4847 H 468.079 2.94357 -3.01549 0
M  V30 4848 H 466.803 2.73105 -1.79112 0
M  V30 4849 H 465.462 1.34388 -3.4108 0
M  V30 4850 H 465.11 3.81631 -3.27669 0
M  V30 4851 H 464.81 3.20705 -4.92364 0
M  V30 4852 H 466.334 4.0643 -4.55683 0
M  V30 4853 H 467.748 1.95144 -5.39065 0
M  V30 4854 H 466.145 1.31152 -5.85593 0
M  V30 4855 H 467.215 0.331071 -4.83768 0
M  V30 4856 N 468.558 1.5553 0.254621 0
M  V30 4857 C 469.488 1.9268 1.31897 0
M  V30 4858 C 470.469 0.790797 1.506 0
M  V30 4859 O 471.654 1.05045 1.63337 0
M  V30 4860 C 468.784 2.21477 2.67517 0
M  V30 4861 C 467.738 3.37256 2.63519 0
M  V30 4862 C 467.064 3.51576 4.02862 0
M  V30 4863 C 468.364 4.73157 2.21179 0
M  V30 4864 H 470.058 2.81832 1.01051 0
M  V30 4865 H 467.604 1.35599 0.484662 0
M  V30 4866 H 469.557 2.46055 3.42104 0
M  V30 4867 H 468.281 1.29144 2.99982 0
M  V30 4868 H 466.94 3.12675 1.9139 0
M  V30 4869 H 466.588 2.56676 4.32581 0
M  V30 4870 H 466.288 4.2943 4.01078 0
M  V30 4871 H 467.812 3.78467 4.79161 0
M  V30 4872 H 469.226 4.97158 2.85494 0
M  V30 4873 H 467.623 5.54058 2.30521 0
M  V30 4874 H 468.693 4.70739 1.16332 0
M  V30 4875 N 470.036 -0.519951 1.48776 0
M  V30 4876 C 470.966 -1.63253 1.66945 0
M  V30 4877 C 471.947 -1.62014 0.518224 0
M  V30 4878 O 473.132 -1.79053 0.751919 0
M  V30 4879 C 470.262 -3.0181 1.71836 0
M  V30 4880 C 469.216 -3.17911 2.8656 0
M  V30 4881 C 468.542 -4.5763 2.76548 0
M  V30 4882 C 469.842 -2.99729 4.27738 0
M  V30 4883 H 471.536 -1.48302 2.6009 0
M  V30 4884 H 469.082 -0.712026 1.25165 0
M  V30 4885 H 471.035 -3.79525 1.83135 0
M  V30 4886 H 469.759 -3.17806 0.752775 0
M  V30 4887 H 468.418 -2.42616 2.74833 0
M  V30 4888 H 468.066 -4.70476 1.77937 0
M  V30 4889 H 467.766 -4.69346 3.53536 0
M  V30 4890 H 469.29 -5.37431 2.89828 0
M  V30 4891 H 470.704 -3.67228 4.40246 0
M  V30 4892 H 469.101 -3.22932 5.05801 0
M  V30 4893 H 470.171 -1.96047 4.43502 0
M  V30 4894 N 471.514 -1.37532 -0.769588 0
M  V30 4895 C 472.742 -1.36059 -1.55871 0
M  V30 4896 C 473.157 0.053544 -1.88724 0
M  V30 4897 O 472.514 1.01591 -1.5161 0
M  V30 4898 C 472.565 -2.20107 -2.86767 0
M  V30 4899 O 472.286 -3.56009 -2.55321 0
M  V30 4900 C 473.787 -2.26636 -3.80987 0
M  V30 4901 H 471.007 -0.465967 -0.482821 0
M  V30 4902 H 473.551 -1.80901 -0.953686 0
M  V30 4903 H 471.706 -1.78768 -3.43687 0
M  V30 4904 H 472.12 -4.0009 -3.39158 0
M  V30 4905 H 473.594 -2.89763 -4.69831 0
M  V30 4906 H 474.071 -1.2754 -4.20274 0
M  V30 4907 H 474.677 -2.68296 -3.29996 0
M  V30 4908 N 472.992 0.995999 -1.22138 0
M  V30 4909 C 473.922 2.10387 -1.01289 0
M  V30 4910 C 474.903 1.69975 0.0651454 0
M  V30 4911 O 476.088 1.9396 -0.0964628 0
M  V30 4912 C 473.218 3.42312 -0.586517 0
M  V30 4913 C 472.172 3.96558 -1.61014 0
M  V30 4914 C 471.498 5.24494 -1.0397 0
M  V30 4915 C 472.798 4.27595 -2.99933 0
M  V30 4916 H 474.492 2.28086 -1.93951 0
M  V30 4917 H 472.038 1.09607 -0.933928 0
M  V30 4918 H 473.991 4.19223 -0.427793 0
M  V30 4919 H 472.715 3.24431 0.375761 0
M  V30 4920 H 471.374 3.21776 -1.75658 0
M  V30 4921 H 471.022 5.02953 -0.0688703 0
M  V30 4922 H 470.722 5.61755 -1.72352 0
M  V30 4923 H 472.246 6.04042 -0.892494 0
M  V30 4924 H 473.66 4.95315 -2.8868 0
M  V30 4925 H 472.057 4.76021 -3.6541 0
M  V30 4926 H 473.127 3.35498 -3.50099 0
M  V30 4927 O 474.509 1.15683 1.12693 0
M  V30 4928 H 475.2 0.884984 1.72301 0
M  V30 END ATOM
M  V30 BEGIN BOND
M  V30 END BOND
M  V30 END CTAB
M  END
$$$$
