drugbank_target|Q82IZ1 1-deoxypentalenic acid 11-beta-hydroxylase (DB06903)
 OpenBabel12092120383D

  0  0  0     0  0            999 V3000
M  V30 BEGIN CTAB
M  V30 COUNTS 4449 4513 0 0 0
M  V30 BEGIN ATOM
M  V30 1 H -0.908 1.98254 -0.117106 0
M  V30 2 N 0 1.576 0 0
M  V30 3 C 0.933 2.03868 1.02534 0
M  V30 4 C 1.911 0.928543 1.3348 0
M  V30 5 O 3.095 1.19667 1.45644 0
M  V30 6 C 0.222 2.43627 2.35294 0
M  V30 7 C -0.732 3.65373 2.2001 0
M  V30 8 S 0.101 5.13292 1.52614 0
M  V30 9 C 1.257 5.56322 2.86805 0
M  V30 10 H 1.49 2.90518 0.631377 0
M  V30 11 H -0.977 1.52953 0.210867 0
M  V30 12 H 0.981 2.67203 3.11629 0
M  V30 13 H -0.358 1.57376 2.7183 0
M  V30 14 H -1.165 3.90944 3.18086 0
M  V30 15 H -1.563 3.418 1.51819 0
M  V30 16 H 0.729 5.58782 3.83104 0
M  V30 17 H 1.672 6.56266 2.65933 0
M  V30 18 H 2.08 4.83886 2.90714 0
M  V30 19 N 1.4781 -0.272755 1.55222 0
M  V30 20 C 2.7061 -1.02255 1.79865 0
M  V30 21 C 3.1211 -1.79924 0.572088 0
M  V30 22 O 2.4781 -1.76638 -0.458842 0
M  V30 23 C 2.5291 -1.98094 3.02392 0
M  V30 24 O 2.2501 -1.23572 4.20311 0
M  V30 25 C 3.7511 -2.84884 3.39641 0
M  V30 26 H 0.9711 -0.302057 0.599168 0
M  V30 27 H 3.5151 -0.303465 2.02236 0
M  V30 28 H 1.6701 -2.65465 2.82147 0
M  V30 29 H 2.0841 -1.88172 4.89583 0
M  V30 30 H 3.5581 -3.47927 4.28545 0
M  V30 31 H 4.0351 -3.54665 2.59055 0
M  V30 32 H 4.6411 -2.23003 3.62146 0
M  V30 33 N 2.9562 -1.48159 -0.537278 0
M  V30 34 C 3.9042 -1.62573 -1.66352 0
M  V30 35 C 4.8982 -0.492366 -1.62087 0
M  V30 36 O 6.1042 -0.670847 -1.67032 0
M  V30 37 H 2.4792 -0.511992 -0.550789 0
M  V30 38 H 4.4502 -2.57176 -1.51337 0
M  V30 39 C 3.1992 -1.67583 -3.04649 0
M  V30 40 H 2.5222 -2.54151 -3.08622 0
M  V30 41 H 3.9622 -1.81713 -3.83088 0
M  V30 42 C 2.4212 -0.413039 -3.34358 0
M  V30 43 O 2.9512 0.477259 -3.98855 0
M  V30 44 N 1.1572 -0.286961 -2.8918 0
M  V30 45 H 0.7042 -1.01241 -2.36871 0
M  V30 46 H 0.6622 0.556963 -3.09427 0
M  V30 47 N 4.4343 0.785586 -1.36625 0
M  V30 48 C 5.6803 1.54591 -1.31261 0
M  V30 49 C 6.0133 1.93906 0.106823 0
M  V30 50 O 5.2883 1.63007 1.06108 0
M  V30 51 C 5.5713 2.82038 -2.23889 0
M  V30 52 C 5.4243 2.49066 -3.74548 0
M  V30 53 C 6.7433 3.83887 -2.15217 0
M  V30 54 H 3.8623 0.560846 -0.478143 0
M  V30 55 H 6.5043 0.902278 -1.67209 0
M  V30 56 H 4.6543 3.36961 -1.93363 0
M  V30 57 H 6.3263 2.00164 -4.15611 0
M  V30 58 H 4.5693 1.81954 -3.93796 0
M  V30 59 H 5.2403 3.40109 -4.34776 0
M  V30 60 H 7.7163 3.38421 -2.42096 0
M  V30 61 H 6.5923 4.70806 -2.82193 0
M  V30 62 H 6.8533 4.27131 -1.14068 0
M  V30 63 N 5.9124 1.20967 1.01018 0
M  V30 64 C 7.1404 1.04956 1.78303 0
M  V30 65 C 7.5554 -0.400915 1.84494 0
M  V30 66 O 6.9124 -1.27826 1.30257 0
M  V30 67 C 6.9634 1.63403 3.22462 0
M  V30 68 O 6.6844 3.02775 3.16637 0
M  V30 69 C 8.1854 1.52432 4.16268 0
M  V30 70 H 5.4054 0.368858 0.560522 0
M  V30 71 H 7.9494 1.60193 1.27116 0
M  V30 72 H 6.1044 1.1227 3.70775 0
M  V30 73 H 6.5184 3.30626 4.07169 0
M  V30 74 H 7.9924 1.98078 5.15237 0
M  V30 75 H 8.4694 0.477875 4.36592 0
M  V30 76 H 9.0754 2.02787 3.73841 0
M  V30 77 N 7.3905 -1.2043 1.01659 0
M  V30 78 C 8.6385 -1.89423 0.704522 0
M  V30 79 C 8.9595 -1.79231 -0.768197 0
M  V30 80 O 8.2295 -1.1947 -1.55254 0
M  V30 81 H 6.8095 -0.701178 0.257602 0
M  V30 82 H 9.4715 -1.4626 1.28818 0
M  V30 83 H 8.5675 -2.96052 0.987916 0
M  V30 84 N 8.8686 -0.792821 -1.36206 0
M  V30 85 C 10.1456 -0.290627 -1.93429 0
M  V30 86 C 10.5256 1.21773 -1.72437 0
M  V30 87 O 9.8736 2.0108 -1.08531 0
M  V30 88 C 10.0836 -0.686973 -3.42172 0
M  V30 89 C 11.4316 -0.668643 -4.19302 0
M  V30 90 O 12.4556 -0.627658 -3.50626 0
M  V30 91 O 11.3146 -0.714597 -5.41808 0
M  V30 92 H 8.4086 -0.0727927 -0.82379 0
M  V30 93 H 10.9546 -0.875593 -1.45367 0
M  V30 94 H 9.7266 -1.72711 -3.51122 0
M  V30 95 H 9.3496 -0.0760733 -3.97527 0
M  V30 96 N 10.3467 1.47872 -0.545128 0
M  V30 97 C 11.5767 2.06589 -0.0210534 0
M  V30 98 C 11.9847 1.39997 1.27269 0
M  V30 99 O 11.3277 0.486421 1.77143 0
M  V30 100 C 11.3897 3.58574 0.257933 0
M  V30 101 C 11.0537 4.47132 -0.944573 0
M  V30 102 C 12.0507 4.85986 -1.84699 0
M  V30 103 C 9.7357 4.88821 -1.15584 0
M  V30 104 C 11.7297 5.65314 -2.94446 0
M  V30 105 C 9.4167 5.67916 -2.25642 0
M  V30 106 C 10.4147 6.06073 -3.14905 0
M  V30 107 O 10.1027 6.83578 -4.23057 0
M  V30 108 H 9.8347 0.674971 -0.0372899 0
M  V30 109 H 12.3887 1.91037 -0.754599 0
M  V30 110 H 10.6187 3.72295 1.04564 0
M  V30 111 H 12.3077 3.99356 0.72592 0
M  V30 112 H 13.0737 4.54388 -1.69577 0
M  V30 113 H 8.9527 4.58595 -0.470279 0
M  V30 114 H 12.4967 5.95016 -3.64145 0
M  V30 115 H 8.3937 5.98927 -2.40742 0
M  V30 116 H 9.1617 7.01954 -4.20954 0
M  V30 117 N 11.8248 0.280983 1.55075 0
M  V30 118 C 13.0528 -0.337293 2.04132 0
M  V30 119 C 13.4678 -1.4903 1.15912 0
M  V30 120 O 12.8248 -1.81606 0.180459 0
M  V30 121 C 12.8758 -0.812706 3.52246 0
M  V30 122 O 12.5968 0.294387 4.3711 0
M  V30 123 C 14.0978 -1.4982 4.17216 0
M  V30 124 H 11.3178 -0.0761638 0.666663 0
M  V30 125 H 13.8618 0.414787 2.00249 0
M  V30 126 H 12.0168 -1.51486 3.56554 0
M  V30 127 H 12.4308 -0.0721325 5.2445 0
M  V30 128 H 13.9048 -1.7822 5.22438 0
M  V30 129 H 14.3818 -2.43168 3.65741 0
M  V30 130 H 14.9878 -0.839742 4.16927 0
M  V30 131 N 13.3029 -1.57598 0.00835791 0
M  V30 132 C 14.5799 -1.82172 -0.712235 0
M  V30 133 C 14.9599 -0.887873 -1.9152 0
M  V30 134 O 14.3079 0.06146 -2.28417 0
M  V30 135 C 14.5179 -3.30875 -1.11008 0
M  V30 136 C 15.8659 -3.96826 -1.51044 0
M  V30 137 O 16.8899 -3.35248 -1.20364 0
M  V30 138 O 15.7489 -5.05318 -2.08125 0
M  V30 139 H 12.8429 -0.750435 -0.347529 0
M  V30 140 H 15.3889 -1.69665 0.0344523 0
M  V30 141 H 14.1609 -3.90481 -0.252982 0
M  V30 142 H 13.7839 -3.48412 -1.9156 0
M  V30 143 N 14.781 0.264519 -1.55364 0
M  V30 144 C 16.021 1.00254 -1.78125 0
M  V30 145 C 16.385 1.83187 -0.575017 0
M  V30 146 O 17.586 2.60029 -0.681042 0
M  V30 147 C 15.857 1.85478 -3.05504 0
M  V30 148 S 17.416 2.6543 -3.49417 0
M  V30 149 H 14.234 0.337522 -0.625779 0
M  V30 150 H 16.836 0.272111 -1.93597 0
M  V30 151 H 15.54 1.23491 -3.9138 0
M  V30 152 H 15.071 2.62827 -2.92721 0
M  V30 153 H 17.086 3.87958 -3.09359 0
M  V30 154 N 16.2591 1.48442 0.529413 0
M  V30 155 C 17.4871 1.60151 1.30994 0
M  V30 156 C 17.9021 0.261985 1.86973 0
M  V30 157 O 17.2591 -0.748805 1.66431 0
M  V30 158 C 17.3101 2.64854 2.46038 0
M  V30 159 O 17.0311 3.93608 1.92365 0
M  V30 160 C 18.5321 2.87007 3.37849 0
M  V30 161 H 15.7521 0.539971 0.398338 0
M  V30 162 H 18.2961 1.94273 0.638597 0
M  V30 163 H 16.4511 2.33589 3.09055 0
M  V30 164 H 16.8651 4.51055 2.67675 0
M  V30 165 H 18.3391 3.64068 4.14919 0
M  V30 166 H 18.8161 1.95852 3.93114 0
M  V30 167 H 19.4221 3.19579 2.80623 0
M  V30 168 N 17.7372 -0.778329 1.37039 0
M  V30 169 C 19.1482 -1.35421 1.28523 0
M  V30 170 C 19.4992 -1.96075 -0.0700901 0
M  V30 171 O 18.6242 -1.93352 -0.971801 0
M  V30 172 C 19.2192 -2.46211 2.32735 0
M  V30 173 C 17.7782 -2.99585 2.27873 0
M  V30 174 C 16.9252 -1.72748 2.16918 0
M  V30 175 H 19.8762 -0.5791 1.47757 0
M  V30 176 H 19.8972 -3.2552 1.9702 0
M  V30 177 H 19.4092 -2.02036 3.31365 0
M  V30 178 H 17.5102 -3.48152 1.32745 0
M  V30 179 H 17.6232 -3.55646 3.21018 0
M  V30 180 H 15.9872 -1.95416 1.63354 0
M  V30 181 H 16.7702 -1.30686 3.17452 0
M  V30 182 N 19.2153 -1.21501 -1.00376 0
M  V30 183 C 20.1453 -0.999478 -2.11028 0
M  V30 184 C 21.1263 0.0759671 -1.6993 0
M  V30 185 O 22.3113 -0.0841106 -1.94018 0
M  V30 186 C 19.4413 -0.564709 -3.42678 0
M  V30 187 C 18.3953 -1.58486 -3.97576 0
M  V30 188 C 17.7213 -1.00628 -5.25146 0
M  V30 189 C 19.0213 -2.97204 -4.29496 0
M  V30 190 H 20.7153 -1.92495 -2.29317 0
M  V30 191 H 18.2613 -0.92693 -1.102 0
M  V30 192 H 20.2143 -0.401091 -4.19487 0
M  V30 193 H 18.9383 0.396411 -3.24185 0
M  V30 194 H 17.5973 -1.73606 -3.22888 0
M  V30 195 H 17.2453 -0.0368439 -5.02987 0
M  V30 196 H 16.9453 -1.68771 -5.62841 0
M  V30 197 H 18.4693 -0.854015 -6.04598 0
M  V30 198 H 19.8833 -2.8552 -4.97143 0
M  V30 199 H 18.2803 -3.62372 -4.78338 0
M  V30 200 H 19.3503 -3.47956 -3.3772 0
M  V30 201 N 20.6934 1.19889 -1.02296 0
M  V30 202 C 21.6234 2.25141 -0.619174 0
M  V30 203 C 22.6044 1.66051 0.368915 0
M  V30 204 O 23.7894 1.92546 0.252941 0
M  V30 205 C 20.9194 3.4728 0.0368783 0
M  V30 206 C 19.8734 4.19005 -0.872865 0
M  V30 207 C 19.1994 5.34637 -0.0822402 0
M  V30 208 C 20.4994 4.74452 -2.18387 0
M  V30 209 H 22.1934 2.59171 -1.49903 0
M  V30 210 H 19.7394 1.24579 -0.722222 0
M  V30 211 H 21.6924 4.20098 0.330958 0
M  V30 212 H 20.4164 3.12433 0.95149 0
M  V30 213 H 19.0754 3.48061 -1.15105 0
M  V30 214 H 18.7234 4.96034 0.83422 0
M  V30 215 H 18.4234 5.83557 -0.688149 0
M  V30 216 H 19.9474 6.10255 0.205238 0
M  V30 217 H 21.3614 5.39055 -1.95172 0
M  V30 218 H 19.7584 5.33834 -2.74119 0
M  V30 219 H 20.8284 3.92844 -2.84257 0
M  V30 220 N 22.1715 0.800033 1.35784 0
M  V30 221 C 23.4195 0.376597 1.9856 0
M  V30 222 C 23.7405 -1.05812 1.63795 0
M  V30 223 O 23.0105 -1.73103 0.917171 0
M  V30 224 H 21.5905 0.136261 0.734467 0
M  V30 225 H 24.2525 1.02442 1.65806 0
M  V30 226 H 23.3485 0.477002 3.08433 0
M  V30 227 N 23.6496 -1.47581 0.552962 0
M  V30 228 C 24.9266 -1.95563 -0.0381515 0
M  V30 229 C 25.3066 -1.49552 -1.48988 0
M  V30 230 O 24.6546 -0.732414 -2.16444 0
M  V30 231 C 24.8646 -3.48848 0.102919 0
M  V30 232 C 26.2126 -4.24577 -0.0446082 0
M  V30 233 O 27.2366 -3.56187 0.0302548 0
M  V30 234 O 26.0956 -5.46116 -0.204923 0
M  V30 235 H 23.1896 -0.824321 -0.0665067 0
M  V30 236 H 25.7356 -1.58001 0.619186 0
M  V30 237 H 24.5076 -3.75129 1.11328 0
M  V30 238 H 24.1306 -3.93165 -0.592224 0
M  V30 239 N 25.1277 -0.289203 -1.54924 0
M  V30 240 C 26.5437 0.0645403 -1.59469 0
M  V30 241 C 26.7437 1.53419 -1.30632 0
M  V30 242 O 25.7997 2.2852 -1.074 0
M  V30 243 C 27.1127 -0.32278 -2.98963 0
M  V30 244 C 28.6607 -0.270564 -3.11828 0
M  V30 245 C 29.1357 -0.632532 -4.53611 0
M  V30 246 N 30.6267 -0.584617 -4.59496 0
M  V30 247 C 31.3617 -0.837314 -5.67254 0
M  V30 248 N 30.8577 -1.15536 -6.83098 0
M  V30 249 N 32.6507 -0.765166 -5.56868 0
M  V30 250 H 24.8017 -1.24714 -1.71931 0
M  V30 251 H 27.0647 -0.504809 -0.802416 0
M  V30 252 H 26.7707 -1.34541 -3.24948 0
M  V30 253 H 26.6447 0.32944 -3.75759 0
M  V30 254 H 29.0317 0.742805 -2.85598 0
M  V30 255 H 29.1127 -0.957242 -2.37214 0
M  V30 256 H 28.7567 -1.64365 -4.80569 0
M  V30 257 H 28.6867 0.07609 -5.26545 0
M  V30 258 H 31.1777 -0.349248 -3.76283 0
M  V30 259 H 31.4907 -1.33447 -7.61191 0
M  V30 260 H 29.8357 -1.19328 -6.84679 0
M  V30 261 H 33.0267 -0.516432 -4.65243 0
M  V30 262 H 33.1997 -0.965477 -6.40767 0
M  V30 263 N 26.6058 1.57591 -0.0167156 0
M  V30 264 C 27.5688 2.08393 0.954204 0
M  V30 265 C 28.5688 0.996531 1.26198 0
M  V30 266 O 29.7588 1.25858 1.20438 0
M  V30 267 C 26.8908 2.5394 2.27436 0
M  V30 268 H 28.0838 2.95455 0.514451 0
M  V30 269 H 25.6368 1.54582 0.231089 0
M  V30 270 H 26.3718 1.70171 2.76066 0
M  V30 271 H 26.1568 3.33371 2.06412 0
M  V30 272 H 27.6468 2.93512 2.97053 0
M  V30 273 N 28.0839 -0.256276 1.55502 0
M  V30 274 C 29.0469 -1.30047 1.88734 0
M  V30 275 C 30.0469 -1.4154 0.763086 0
M  V30 276 O 31.2369 -1.40403 1.03115 0
M  V30 277 C 28.3689 -2.67953 2.10747 0
M  V30 278 H 29.5619 -1.01802 2.82093 0
M  V30 279 H 27.1149 -0.495134 1.4825 0
M  V30 280 H 27.8499 -3.01351 1.19825 0
M  V30 281 H 27.6349 -2.60993 2.92617 0
M  V30 282 H 29.1249 -3.43368 2.37673 0
M  V30 283 N 29.562 -1.4872 -0.521534 0
M  V30 284 C 30.492 -1.66771 -1.63431 0
M  V30 285 C 31.473 -0.516499 -1.62069 0
M  V30 286 O 32.658 -0.750013 -1.79132 0
M  V30 287 C 29.788 -1.71515 -3.01993 0
M  V30 288 C 28.742 -2.86222 -3.18216 0
M  V30 289 C 28.068 -2.76061 -4.57924 0
M  V30 290 C 29.368 -4.27419 -3.00184 0
M  V30 291 H 31.062 -2.59932 -1.48579 0
M  V30 292 H 28.608 -1.25089 -0.713358 0
M  V30 293 H 30.561 -1.82731 -3.7972 0
M  V30 294 H 29.285 -0.749393 -3.17886 0
M  V30 295 H 27.944 -2.74575 -2.42908 0
M  V30 296 H 27.592 -1.77437 -4.70665 0
M  V30 297 H 27.292 -3.53037 -4.69722 0
M  V30 298 H 28.816 -2.89256 -5.37739 0
M  V30 299 H 30.23 -4.39855 -3.67697 0
M  V30 300 H 28.627 -5.05458 -3.2347 0
M  V30 301 H 29.697 -4.43293 -1.96518 0
M  V30 302 N 31.0401 0.771051 -1.3745 0
M  V30 303 C 32.3171 1.519 -1.23231 0
M  V30 304 C 32.6971 2.10383 0.173809 0
M  V30 305 O 32.0451 1.95583 1.18151 0
M  V30 306 C 32.2551 2.59933 -2.32886 0
M  V30 307 C 33.6031 3.27316 -2.70461 0
M  V30 308 O 34.6271 2.70228 -2.32068 0
M  V30 309 O 33.4861 4.30531 -3.36608 0
M  V30 310 H 30.5801 0.672803 -0.480901 0
M  V30 311 H 33.1261 0.807957 -1.49232 0
M  V30 312 H 31.8981 2.14842 -3.27045 0
M  V30 313 H 31.5211 3.38637 -2.08353 0
M  V30 314 N 32.5182 1.22032 0.997298 0
M  V30 315 C 33.7432 1.06921 1.77715 0
M  V30 316 C 34.1682 -0.376226 1.84299 0
M  V30 317 O 33.5262 -1.27165 1.29223 0
M  V30 318 C 33.5742 1.67996 3.19076 0
M  V30 319 O 32.6782 0.930653 4.01762 0
M  V30 320 H 32.0192 0.375814 0.547412 0
M  V30 321 H 34.5492 1.61737 1.25309 0
M  V30 322 H 34.5592 1.72538 3.69723 0
M  V30 323 H 33.2342 2.73182 3.13599 0
M  V30 324 H 31.8112 0.960917 3.60307 0
M  V30 325 N 33.9963 -1.19345 1.0293 0
M  V30 326 C 35.2433 -1.89038 0.726008 0
M  V30 327 C 35.5713 -1.79649 -0.745427 0
M  V30 328 O 34.8263 -1.18354 -1.55855 0
M  V30 329 C 35.1253 -3.39292 1.12319 0
M  V30 330 C 34.7913 -3.68885 2.59297 0
M  V30 331 C 33.4533 -3.76671 2.99453 0
M  V30 332 C 35.8053 -3.82178 3.54386 0
M  V30 333 C 33.1333 -3.9522 4.33611 0
M  V30 334 C 35.4853 -4.0224 4.88248 0
M  V30 335 C 34.1493 -4.08259 5.28092 0
M  V30 336 H 33.4193 -0.691739 0.265665 0
M  V30 337 H 36.0663 -1.41328 1.29223 0
M  V30 338 H 34.3713 -3.88903 0.475584 0
M  V30 339 H 36.0683 -3.91536 0.866037 0
M  V30 340 H 32.6583 -3.63433 2.27189 0
M  V30 341 H 36.8423 -3.75505 3.24514 0
M  V30 342 H 32.0983 -3.98119 4.64016 0
M  V30 343 H 36.2723 -4.11468 5.61843 0
M  V30 344 H 33.8993 -4.22384 6.32057 0
M  V30 345 N 35.4744 -0.807222 -1.35358 0
M  V30 346 C 36.7044 -0.399796 -2.02695 0
M  V30 347 C 37.1124 0.994176 -1.60974 0
M  V30 348 O 36.4554 1.65209 -0.803226 0
M  V30 349 C 36.5174 -0.404445 -3.57218 0
M  V30 350 C 36.1814 -1.74904 -4.22206 0
M  V30 351 C 37.1784 -2.70743 -4.4384 0
M  V30 352 C 34.8634 -2.03322 -4.5931 0
M  V30 353 C 36.8574 -3.93183 -5.01683 0
M  V30 354 C 34.5444 -3.26026 -5.16866 0
M  V30 355 C 35.5424 -4.20774 -5.37994 0
M  V30 356 O 35.2304 -5.41312 -5.94337 0
M  V30 357 H 34.9624 -0.160517 -0.656666 0
M  V30 358 H 37.5164 -1.09235 -1.73945 0
M  V30 359 H 35.7464 0.344707 -3.85161 0
M  V30 360 H 37.4354 -0.0192429 -4.05895 0
M  V30 361 H 38.2014 -2.5008 -4.15554 0
M  V30 362 H 34.0804 -1.30384 -4.42178 0
M  V30 363 H 37.6244 -4.6715 -5.1809 0
M  V30 364 H 33.5214 -3.46559 -5.44579 0
M  V30 365 H 34.2894 -5.42618 -6.12787 0
M  V30 366 N 36.9525 1.47285 -0.560781 0
M  V30 367 C 37.8625 2.33846 0.187954 0
M  V30 368 C 38.8785 1.48412 0.908293 0
M  V30 369 O 40.0545 1.81332 0.876388 0
M  V30 370 C 37.1195 3.25178 1.2025 0
M  V30 371 C 36.1805 4.26504 0.489208 0
M  V30 372 C 35.4135 5.13472 1.45542 0
M  V30 373 O 35.6365 5.02959 2.6905 0
M  V30 374 O 34.5705 5.93902 0.977963 0
M  V30 375 H 38.3965 2.99177 -0.522177 0
M  V30 376 H 35.9815 1.45903 -0.321364 0
M  V30 377 H 37.8635 3.81584 1.78805 0
M  V30 378 H 36.5385 2.6247 1.89449 0
M  V30 379 H 35.4455 3.73847 -0.137627 0
M  V30 380 H 36.7785 4.91935 -0.161399 0
M  V30 381 N 38.4306 0.297415 1.54768 0
M  V30 382 C 39.3406 -0.58983 2.27064 0
M  V30 383 C 40.3566 -1.15144 1.30453 0
M  V30 384 O 41.5326 -1.17699 1.63428 0
M  V30 385 C 38.5976 -1.74714 2.9946 0
M  V30 386 C 37.6586 -1.21997 4.11601 0
M  V30 387 C 36.8916 -2.32212 4.80535 0
M  V30 388 O 37.1146 -3.52036 4.48806 0
M  V30 389 O 36.0486 -1.99106 5.68014 0
M  V30 390 H 39.8746 -0.00348199 3.037 0
M  V30 391 H 37.4596 0.0640035 1.49263 0
M  V30 392 H 39.3416 -2.42147 3.44881 0
M  V30 393 H 38.0166 -2.32016 2.25722 0
M  V30 394 H 36.9236 -0.511458 3.70587 0
M  V30 395 H 38.2566 -0.692419 4.87305 0
M  V30 396 N 39.9087 -1.5758 0.0250728 0
M  V30 397 C 40.8587 -2.06468 -0.967201 0
M  V30 398 C 41.8427 -0.964376 -1.28797 0
M  V30 399 O 43.0347 -1.22797 -1.27475 0
M  V30 400 C 40.1637 -2.59203 -2.25097 0
M  V30 401 C 39.2497 -3.76157 -1.95874 0
M  V30 402 N 39.6407 -4.86919 -1.36905 0
M  V30 403 C 37.9387 -3.84566 -2.25887 0
M  V30 404 C 38.6397 -5.68172 -1.24724 0
M  V30 405 N 37.6157 -5.14953 -1.74138 0
M  V30 406 H 41.4177 -2.89508 -0.506176 0
M  V30 407 H 38.9317 -1.61399 -0.18004 0
M  V30 408 H 40.9287 -2.92517 -2.97052 0
M  V30 409 H 39.5887 -1.77592 -2.71829 0
M  V30 410 H 40.5997 -5.07256 -1.04459 0
M  V30 411 H 37.2767 -3.13854 -2.75321 0
M  V30 412 H 38.6667 -6.67221 -0.791605 0
M  V30 413 N 41.3868 0.248026 -1.55636 0
M  V30 414 C 42.6348 0.974295 -1.77065 0
M  V30 415 C 42.9558 1.85897 -0.588849 0
M  V30 416 O 42.2258 1.91868 0.395407 0
M  V30 417 H 40.8058 0.362733 -0.653019 0
M  V30 418 H 43.4678 0.266244 -1.93073 0
M  V30 419 H 42.5638 1.59667 -2.68166 0
M  V30 420 N 42.8649 1.48995 0.513639 0
M  V30 421 C 44.0949 1.61297 1.291 0
M  V30 422 C 44.5029 0.278656 1.87137 0
M  V30 423 O 43.8459 -0.744325 1.67945 0
M  V30 424 C 43.9079 2.61326 2.46879 0
M  V30 425 C 43.5719 4.05993 2.09807 0
M  V30 426 C 44.5689 4.93183 1.64519 0
M  V30 427 C 42.2539 4.51642 2.19829 0
M  V30 428 C 44.2479 6.24056 1.2974 0
M  V30 429 C 41.9349 5.82532 1.84662 0
M  V30 430 C 42.9329 6.68562 1.3969 0
M  V30 431 O 42.6209 7.97014 1.04992 0
M  V30 432 H 42.3529 0.546236 0.39825 0
M  V30 433 H 44.9069 1.95673 0.62459 0
M  V30 434 H 43.1369 2.22104 3.16554 0
M  V30 435 H 44.8259 2.6329 3.08923 0
M  V30 436 H 45.5919 4.59147 1.56233 0
M  V30 437 H 41.4709 3.84855 2.53786 0
M  V30 438 H 45.0149 6.91161 0.945659 0
M  V30 439 H 40.9119 6.16099 1.92594 0
M  V30 440 H 41.6799 8.09913 1.18249 0
M  V30 441 N 44.343 -0.763751 1.37857 0
M  V30 442 C 45.273 -1.89103 1.36975 0
M  V30 443 C 46.254 -1.68439 0.237152 0
M  V30 444 O 47.439 -1.8918 0.438713 0
M  V30 445 C 44.569 -3.26496 1.18395 0
M  V30 446 C 43.523 -3.61741 2.28751 0
M  V30 447 C 42.849 -4.97762 1.95286 0
M  V30 448 C 44.149 -3.67665 3.70972 0
M  V30 449 H 45.843 -1.90099 2.31307 0
M  V30 450 H 43.389 -0.91319 1.11341 0
M  V30 451 H 45.342 -4.05003 1.16406 0
M  V30 452 H 44.066 -3.25955 0.205215 0
M  V30 453 H 42.725 -2.85547 2.29909 0
M  V30 454 H 42.373 -4.93769 0.959221 0
M  V30 455 H 42.073 -5.22313 2.69189 0
M  V30 456 H 43.597 -5.7866 1.94898 0
M  V30 457 H 45.011 -4.36307 3.719 0
M  V30 458 H 43.408 -4.03718 4.43995 0
M  V30 459 H 44.478 -2.68134 4.0402 0
M  V30 460 N 45.8211 -1.22559 -0.990812 0
M  V30 461 C 47.0681 -1.05141 -1.73065 0
M  V30 462 C 47.3961 0.413191 -1.9006 0
M  V30 463 O 46.6511 1.32257 -1.44245 0
M  V30 464 C 46.9501 -1.71011 -3.13831 0
M  V30 465 C 46.6161 -3.20911 -3.16745 0
M  V30 466 C 45.2781 -3.61812 -3.17247 0
M  V30 467 C 47.6301 -4.16846 -3.12872 0
M  V30 468 C 44.9581 -4.97127 -3.1158 0
M  V30 469 C 47.3101 -5.5214 -3.08746 0
M  V30 470 C 45.9741 -5.92419 -3.07565 0
M  V30 471 H 45.2441 -0.384738 -0.633291 0
M  V30 472 H 47.8911 -1.5235 -1.16025 0
M  V30 473 H 46.1961 -1.16133 -3.74193 0
M  V30 474 H 47.8931 -1.55023 -3.69823 0
M  V30 475 H 44.4831 -2.88344 -3.17105 0
M  V30 476 H 48.6671 -3.86263 -3.11632 0
M  V30 477 H 43.9231 -5.27562 -3.09012 0
M  V30 478 H 48.0971 -6.26201 -3.04705 0
M  V30 479 H 45.7241 -6.97236 -3.02929 0
M  V30 480 N 47.2992 1.18797 -1.03562 0
M  V30 481 C 48.2292 2.24472 -0.643019 0
M  V30 482 C 49.2102 1.66433 0.351283 0
M  V30 483 O 50.3952 1.92803 0.232505 0
M  V30 484 C 47.5252 3.473 4.24935e-05 0
M  V30 485 C 46.4792 4.18055 -0.917257 0
M  V30 486 C 45.8052 5.34519 -0.138941 0
M  V30 487 C 47.1052 4.72109 -2.23407 0
M  V30 488 H 48.7992 2.57566 -1.52643 0
M  V30 489 H 46.3452 1.23806 -0.735394 0
M  V30 490 H 48.2982 4.20426 0.286383 0
M  V30 491 H 47.0222 3.13424 0.918299 0
M  V30 492 H 45.6812 3.46821 -1.1879 0
M  V30 493 H 45.3292 4.96891 0.781562 0
M  V30 494 H 45.0292 5.82794 -0.750005 0
M  V30 495 H 46.5532 6.10438 0.1405 0
M  V30 496 H 47.9672 5.36955 -2.00879 0
M  V30 497 H 46.3642 5.30897 -2.79765 0
M  V30 498 H 47.4342 3.89807 -2.88407 0
M  V30 499 N 48.7773 0.814389 1.34928 0
M  V30 500 C 50.1933 0.499084 1.51596 0
M  V30 501 C 50.3933 -0.978319 1.76157 0
M  V30 502 O 49.4493 -1.76309 1.80752 0
M  V30 503 C 50.7623 1.35121 2.68631 0
M  V30 504 C 52.3103 1.34746 2.82511 0
M  V30 505 C 52.7853 2.18388 4.0258 0
M  V30 506 N 54.2763 2.15966 4.09772 0
M  V30 507 C 55.0113 2.77437 5.01813 0
M  V30 508 N 54.5073 3.47866 5.99134 0
M  V30 509 N 56.3003 2.67037 4.94619 0
M  V30 510 H 48.4513 1.7711 1.17243 0
M  V30 511 H 50.7143 0.754256 0.574284 0
M  V30 512 H 50.4203 2.40001 2.57085 0
M  V30 513 H 50.2943 1.00991 3.63429 0
M  V30 514 H 52.6813 0.30648 2.93504 0
M  V30 515 H 52.7623 1.72869 1.88547 0
M  V30 516 H 52.4063 3.2253 3.92347 0
M  V30 517 H 52.3363 1.77621 4.9574 0
M  V30 518 H 54.8273 1.64729 3.40107 0
M  V30 519 H 55.1403 3.92038 6.65977 0
M  V30 520 H 53.4853 3.51972 5.99284 0
M  V30 521 H 56.6763 2.11597 4.17546 0
M  V30 522 H 56.8493 3.15232 5.66156 0
M  V30 523 N 50.2554 -1.46986 0.568584 0
M  V30 524 C 51.2034 -2.31858 -0.185649 0
M  V30 525 C 52.1974 -1.43624 -0.898249 0
M  V30 526 O 53.4034 -1.60327 -0.818242 0
M  V30 527 H 49.7784 -0.747866 -0.0787399 0
M  V30 528 H 51.7494 -2.93303 0.549191 0
M  V30 529 C 50.4984 -3.26513 -1.19519 0
M  V30 530 H 49.8214 -3.94377 -0.656285 0
M  V30 531 H 51.2614 -3.88707 -1.6936 0
M  V30 532 C 49.7204 -2.50847 -2.24894 0
M  V30 533 O 50.2504 -2.26119 -3.32014 0
M  V30 534 N 48.4564 -2.11656 -1.99124 0
M  V30 535 H 48.0034 -2.31966 -1.12024 0
M  V30 536 H 47.9614 -1.61347 -2.69842 0
M  V30 537 N 51.7335 -0.305618 -1.54608 0
M  V30 538 C 52.9795 0.302746 -2.00528 0
M  V30 539 C 53.3125 1.53184 -1.19367 0
M  V30 540 O 52.5875 1.92598 -0.271321 0
M  V30 541 C 52.8705 0.654756 -3.54097 0
M  V30 542 C 52.7235 -0.583793 -4.45995 0
M  V30 543 C 54.0425 1.47947 -4.14487 0
M  V30 544 H 51.1615 0.108564 -0.72896 0
M  V30 545 H 53.8035 -0.418634 -1.85331 0
M  V30 546 H 51.9535 1.26935 -3.67178 0
M  V30 547 H 53.6255 -1.22224 -4.44814 0
M  V30 548 H 51.8685 -1.21615 -4.16404 0
M  V30 549 H 52.5395 -0.293287 -5.5122 0
M  V30 550 H 55.0155 0.96013 -4.04871 0
M  V30 551 H 53.8915 1.69454 -5.22088 0
M  V30 552 H 54.1525 2.47011 -3.66658 0
M  V30 553 N 53.2116 1.57565 -0.0334293 0
M  V30 554 C 54.1416 2.13511 0.945265 0
M  V30 555 C 55.1226 1.05231 1.33643 0
M  V30 556 O 56.3076 1.33084 1.41429 0
M  V30 557 C 53.4376 2.6657 2.22616 0
M  V30 558 C 52.3916 3.79676 1.97561 0
M  V30 559 C 51.7176 4.1918 3.31952 0
M  V30 560 C 53.0176 5.0557 1.31135 0
M  V30 561 H 54.7116 2.95538 0.479325 0
M  V30 562 H 52.2576 1.42166 0.229115 0
M  V30 563 H 54.2106 3.04344 2.91466 0
M  V30 564 H 52.9346 1.8171 2.71384 0
M  V30 565 H 51.5936 3.42347 1.31127 0
M  V30 566 H 51.2416 3.31296 3.78487 0
M  V30 567 H 50.9416 4.95402 3.15992 0
M  V30 568 H 52.4656 4.59541 4.02063 0
M  V30 569 H 53.8796 5.40903 1.89992 0
M  V30 570 H 52.2766 5.86818 1.25559 0
M  V30 571 H 53.3466 4.84062 0.284894 0
M  V30 572 N 54.6897 -0.239769 1.55765 0
M  V30 573 C 55.9667 -0.990056 1.68693 0
M  V30 574 C 56.3467 -2.03107 0.5754 0
M  V30 575 O 55.6947 -2.24604 -0.42017 0
M  V30 576 C 55.9047 -1.61696 3.09282 0
M  V30 577 C 57.2527 -2.11613 3.6811 0
M  V30 578 O 58.2767 -1.71624 3.12127 0
M  V30 579 O 57.1357 -2.85057 4.66267 0
M  V30 580 H 54.2297 -0.461299 0.686391 0
M  V30 581 H 56.7757 -0.232991 1.68093 0
M  V30 582 H 55.5477 -0.864357 3.81634 0
M  V30 583 H 55.1707 -2.44005 3.13923 0
M  V30 584 N 56.1678 -1.49265 -0.50573 0
M  V30 585 C 57.5838 -1.35923 -0.836486 0
M  V30 586 C 57.7838 -0.388704 -1.97715 0
M  V30 587 O 56.8398 0.181336 -2.51848 0
M  V30 588 C 58.1528 -2.76531 -1.18115 0
M  V30 589 C 59.7008 -2.85197 -1.28964 0
M  V30 590 C 60.1758 -4.26561 -1.66761 0
M  V30 591 N 61.6668 -4.2935 -1.73819 0
M  V30 592 C 62.4018 -5.35693 -2.045 0
M  V30 593 N 61.8978 -6.52287 -2.33438 0
M  V30 594 N 63.6908 -5.23105 -2.05711 0
M  V30 595 H 55.8418 -2.10965 0.246519 0
M  V30 596 H 58.1048 -0.9468 0.0476887 0
M  V30 597 H 57.8108 -3.49226 -0.416398 0
M  V30 598 H 57.6848 -3.11599 -2.1257 0
M  V30 599 H 60.0718 -2.12742 -2.04511 0
M  V30 600 H 60.1528 -2.53718 -0.325704 0
M  V30 601 H 59.7968 -4.99541 -0.917656 0
M  V30 602 H 59.7268 -4.55502 -2.64246 0
M  V30 603 H 62.2178 -3.4526 -1.53635 0
M  V30 604 H 62.5308 -7.29158 -2.56024 0
M  V30 605 H 60.8758 -6.55521 -2.30905 0
M  V30 606 H 64.0668 -4.31026 -1.82577 0
M  V30 607 H 64.2398 -6.06078 -2.29289 0
M  V30 608 N 57.6459 0.756429 -1.3826 0
M  V30 609 C 58.9229 1.50584 -1.24835 0
M  V30 610 C 59.3029 2.10556 0.151485 0
M  V30 611 O 58.6509 1.96825 1.1607 0
M  V30 612 C 58.8609 2.57448 -2.3563 0
M  V30 613 C 60.2089 3.24429 -2.73917 0
M  V30 614 O 61.2329 2.67751 -2.34921 0
M  V30 615 O 60.0919 4.26937 -3.41156 0
M  V30 616 H 57.1859 0.667664 -0.48801 0
M  V30 617 H 59.7319 0.792083 -1.5008 0
M  V30 618 H 58.5039 2.11362 -3.29305 0
M  V30 619 H 58.1269 3.36408 -2.11933 0
M  V30 620 N 59.124 1.23083 0.984299 0
M  V30 621 C 60.054 1.03292 2.09411 0
M  V30 622 C 61.035 -0.048923 1.7003 0
M  V30 623 O 62.22 0.114967 1.93859 0
M  V30 624 C 59.35 0.619155 3.41736 0
M  V30 625 C 58.304 1.64791 3.95004 0
M  V30 626 C 57.63 1.0897 5.23478 0
M  V30 627 C 58.93 3.03999 4.24714 0
M  V30 628 H 60.624 1.96119 2.26225 0
M  V30 629 H 58.17 0.944344 1.08711 0
M  V30 630 H 60.123 0.467777 4.18796 0
M  V30 631 H 58.847 -0.344786 3.24775 0
M  V30 632 H 57.506 1.78721 3.20085 0
M  V30 633 H 57.154 0.11686 5.02864 0
M  V30 634 H 56.854 1.77704 5.60085 0
M  V30 635 H 58.378 0.950093 6.03163 0
M  V30 636 H 59.792 2.93393 4.92538 0
M  V30 637 H 58.189 3.69936 4.72512 0
M  V30 638 H 59.259 3.53285 3.32142 0
M  V30 639 N 60.6021 -1.18246 1.0419 0
M  V30 640 C 61.8481 -1.88536 0.747122 0
M  V30 641 C 62.1811 -1.80223 -0.723409 0
M  V30 642 O 61.4561 -1.20337 -1.52804 0
M  V30 643 C 61.7391 -3.38968 1.21544 0
M  V30 644 C 61.5921 -3.56084 2.74816 0
M  V30 645 C 62.9111 -4.32648 0.806482 0
M  V30 646 H 60.0301 -0.684619 0.272883 0
M  V30 647 H 62.6721 -1.39113 1.29413 0
M  V30 648 H 60.8221 -3.8119 0.750081 0
M  V30 649 H 62.4941 -3.22946 3.29399 0
M  V30 650 H 60.7371 -2.98699 3.14582 0
M  V30 651 H 61.4081 -4.61639 3.02644 0
M  V30 652 H 63.8841 -3.98211 1.20695 0
M  V30 653 H 62.7601 -5.36462 1.1619 0
M  V30 654 H 63.0211 -4.41146 -0.29029 0
M  V30 655 N 62.0802 -0.821533 -1.34494 0
M  V30 656 C 63.0272 -0.240397 -2.29545 0
M  V30 657 C 63.9972 0.634031 -1.53523 0
M  V30 658 O 65.1822 0.575966 -1.81899 0
M  V30 659 C 62.3222 0.592869 -3.39969 0
M  V30 660 C 61.4352 -0.30365 -4.30932 0
M  V30 661 C 60.5702 0.539049 -5.28458 0
M  V30 662 C 59.6092 -0.356942 -6.11058 0
M  V30 663 N 58.7462 0.446603 -7.00678 0
M  V30 664 H 63.5862 -1.05632 -2.7865 0
M  V30 665 H 61.1232 -0.532413 -1.37127 0
M  V30 666 H 63.0812 1.09129 -4.02675 0
M  V30 667 H 61.7112 1.37392 -2.92102 0
M  V30 668 H 60.7632 -0.920276 -3.691 0
M  V30 669 H 62.0752 -0.992661 -4.88823 0
M  V30 670 H 61.2292 1.102 -5.96608 0
M  V30 671 H 59.9682 1.26157 -4.71101 0
M  V30 672 H 58.9732 -0.932047 -5.41842 0
M  V30 673 H 60.1982 -1.07755 -6.70497 0
M  V30 674 H 58.1442 1.15282 -6.45791 0
M  V30 675 H 58.0612 -0.184048 -7.55776 0
M  V30 676 H 59.3292 0.992352 -7.73158 0
M  V30 677 N 63.5583 1.46682 -0.576371 0
M  V30 678 C 64.7863 2.06798 -0.0649635 0
M  V30 679 C 65.2013 1.42612 1.23723 0
M  V30 680 O 64.5583 0.529203 1.74659 0
M  V30 681 C 64.6093 3.6132 0.114202 0
M  V30 682 O 64.3303 4.23104 -1.13644 0
M  V30 683 C 65.8313 4.38349 0.66069 0
M  V30 684 H 63.0513 0.668778 -0.0545616 0
M  V30 685 H 65.5953 1.88404 -0.795237 0
M  V30 686 H 63.7503 3.79162 0.794673 0
M  V30 687 H 64.1643 5.15894 -0.946253 0
M  V30 688 H 65.6383 5.47081 0.73526 0
M  V30 689 H 66.1153 4.05953 1.67627 0
M  V30 690 H 66.7213 4.25297 0.0152951 0
M  V30 691 N 65.0364 0.313813 1.54444 0
M  V30 692 C 66.2824 -0.292108 2.00685 0
M  V30 693 C 66.6154 -1.52548 1.20177 0
M  V30 694 O 65.8904 -1.92452 0.281531 0
M  V30 695 C 66.1734 -0.635968 3.5444 0
M  V30 696 C 66.0264 0.607437 4.4568 0
M  V30 697 C 67.3454 -1.45747 4.15266 0
M  V30 698 H 64.4644 -0.104697 0.729526 0
M  V30 699 H 67.1064 0.428457 1.85106 0
M  V30 700 H 65.2564 -1.24986 3.67846 0
M  V30 701 H 66.9284 1.24581 4.44159 0
M  V30 702 H 65.1714 1.23822 4.15753 0
M  V30 703 H 65.8424 0.322515 5.51057 0
M  V30 704 H 68.3184 -0.938645 4.05375 0
M  V30 705 H 67.1944 -1.66683 5.2298 0
M  V30 706 H 67.4554 -2.45063 3.67963 0
M  V30 707 N 66.5145 -1.57545 0.0417849 0
M  V30 708 C 67.4775 -2.09885 -0.92093 0
M  V30 709 C 68.4775 -1.01648 -1.24596 0
M  V30 710 O 69.6675 -1.27759 -1.1842 0
M  V30 711 C 66.7995 -2.57527 -2.23367 0
M  V30 712 H 67.9925 -2.96236 -0.467382 0
M  V30 713 H 65.5455 -1.5493 -0.206467 0
M  V30 714 H 66.2805 -1.74542 -2.73323 0
M  V30 715 H 66.0655 -3.36613 -2.01083 0
M  V30 716 H 67.5555 -2.98201 -2.92346 0
M  V30 717 N 67.9926 0.231505 -1.5589 0
M  V30 718 C 68.9026 1.308 -1.94752 0
M  V30 719 C 69.9186 1.51826 -0.849989 0
M  V30 720 O 71.0946 1.6515 -1.15271 0
M  V30 721 C 68.1596 2.63968 -2.24771 0
M  V30 722 C 67.2206 2.51331 -3.48039 0
M  V30 723 C 66.4536 3.78148 -3.76616 0
M  V30 724 O 66.6766 4.80722 -3.07022 0
M  V30 725 O 65.6106 3.75857 -4.70123 0
M  V30 726 H 69.4366 1.0083 -2.86474 0
M  V30 727 H 67.0216 0.433547 -1.42971 0
M  V30 728 H 68.9036 3.42633 -2.45318 0
M  V30 729 H 67.5786 2.9364 -1.36225 0
M  V30 730 H 66.4856 1.709 -3.32782 0
M  V30 731 H 67.8186 2.26601 -4.36936 0
M  V30 732 N 69.4707 1.49531 0.497807 0
M  V30 733 C 70.4027 1.62559 1.61578 0
M  V30 734 C 71.4157 0.508134 1.54667 0
M  V30 735 O 72.6047 0.780309 1.60541 0
M  V30 736 C 69.7047 1.56925 3.00379 0
M  V30 737 C 68.8777 2.84257 3.3244 0
M  V30 738 C 67.9367 2.71632 4.50669 0
M  V30 739 O 66.9627 3.4557 4.52294 0
M  V30 740 N 68.1647 1.83391 5.5077 0
M  V30 741 H 70.9297 2.58981 1.50828 0
M  V30 742 H 68.4907 1.4666 0.685743 0
M  V30 743 H 70.4827 1.46129 3.77397 0
M  V30 744 H 69.0527 0.683483 3.05037 0
M  V30 745 H 68.2727 3.09381 2.44289 0
M  V30 746 H 69.5607 3.68666 3.5066 0
M  V30 747 H 68.9587 1.22583 5.52259 0
M  V30 748 H 67.5157 1.78515 6.26878 0
M  V30 749 N 70.9488 -0.749086 1.3866 0
M  V30 750 C 71.8818 -1.87111 1.30631 0
M  V30 751 C 72.8598 -1.61572 0.18251 0
M  V30 752 O 74.0438 -1.85019 0.360592 0
M  V30 753 C 71.1708 -3.22815 1.02511 0
M  V30 754 C 70.2168 -3.67234 2.1689 0
M  V30 755 S 71.0498 -3.78245 3.79066 0
M  V30 756 C 72.2058 -5.16761 3.53142 0
M  V30 757 H 72.4388 -1.93636 2.25594 0
M  V30 758 H 69.9718 -0.912525 1.24549 0
M  V30 759 H 71.9298 -4.01181 0.869701 0
M  V30 760 H 70.5908 -3.13964 0.0925884 0
M  V30 761 H 69.7838 -4.65677 1.92771 0
M  V30 762 H 69.3858 -2.96034 2.28561 0
M  V30 763 H 71.6778 -6.02656 3.09534 0
M  V30 764 H 72.6208 -5.45902 4.50995 0
M  V30 765 H 73.0288 -4.85771 2.87554 0
M  V30 766 N 72.4269 -1.23603 -0.977757 0
M  V30 767 C 73.8429 -0.999251 -1.24447 0
M  V30 768 C 74.0429 0.298053 -1.99283 0
M  V30 769 O 73.0989 1.01681 -2.31122 0
M  V30 770 C 74.4119 -2.20784 -2.04144 0
M  V30 771 C 75.9599 -2.25303 -2.17273 0
M  V30 772 C 76.4349 -3.45755 -3.00362 0
M  V30 773 N 77.9259 -3.4601 -3.07947 0
M  V30 774 C 78.6609 -4.35868 -3.72568 0
M  V30 775 N 78.1569 -5.35966 -4.38991 0
M  V30 776 N 79.9499 -4.23605 -3.6948 0
M  V30 777 H 72.1009 -2.06986 -0.476483 0
M  V30 778 H 74.3639 -0.907801 -0.273134 0
M  V30 779 H 74.0699 -3.14945 -1.56533 0
M  V30 780 H 73.9439 -2.22085 -3.04891 0
M  V30 781 H 76.3309 -1.3168 -2.64092 0
M  V30 782 H 76.4119 -2.28033 -1.15907 0
M  V30 783 H 76.0559 -4.39687 -2.5424 0
M  V30 784 H 75.9859 -3.40266 -4.01904 0
M  V30 785 H 78.4769 -2.73588 -2.60688 0
M  V30 786 H 78.7899 -6.00783 -4.86086 0
M  V30 787 H 77.1349 -5.39863 -4.37691 0
M  V30 788 H 80.3259 -3.44647 -3.16759 0
M  V30 789 H 80.4989 -4.93836 -4.1956 0
M  V30 790 N 73.905 1.17692 -1.04816 0
M  V30 791 C 74.815 2.25229 -0.65643 0
M  V30 792 C 75.831 1.71018 0.320761 0
M  V30 793 O 77.007 2.00649 0.173805 0
M  V30 794 C 74.072 3.46684 -0.0332629 0
M  V30 795 C 73.133 4.15997 -1.06042 0
M  V30 796 C 72.366 5.31654 -0.466893 0
M  V30 797 O 72.589 5.65777 0.724758 0
M  V30 798 O 71.523 5.89831 -1.1993 0
M  V30 799 H 75.349 2.61016 -1.55255 0
M  V30 800 H 72.934 1.24919 -0.81949 0
M  V30 801 H 74.816 4.20234 0.313256 0
M  V30 802 H 73.491 3.12703 0.836566 0
M  V30 803 H 72.398 3.44482 -1.45886 0
M  V30 804 H 73.731 4.53996 -1.90127 0
M  V30 805 N 75.3831 0.828654 1.34056 0
M  V30 806 C 76.6311 0.41863 1.97717 0
M  V30 807 C 76.9521 -1.02314 1.66002 0
M  V30 808 O 76.2221 -1.71119 0.953683 0
M  V30 809 H 74.8021 0.151809 0.731412 0
M  V30 810 H 77.4641 1.05936 1.63596 0
M  V30 811 H 76.5601 0.542318 3.07352 0
M  V30 812 N 76.8612 -1.46375 0.584142 0
M  V30 813 C 77.7912 -2.33103 -0.136037 0
M  V30 814 C 78.7722 -1.45431 -0.882255 0
M  V30 815 O 79.9572 -1.74246 -0.857434 0
M  V30 816 C 77.0872 -3.27731 -1.14933 0
M  V30 817 C 76.0412 -4.24855 -0.517862 0
M  V30 818 C 75.3672 -5.09001 -1.63773 0
M  V30 819 C 76.6672 -5.19439 0.545886 0
M  V30 820 H 78.3612 -2.93568 0.588086 0
M  V30 821 H 75.9072 -1.41166 0.284259 0
M  V30 822 H 77.8602 -3.87261 -1.66153 0
M  V30 823 H 76.5842 -2.65377 -1.90375 0
M  V30 824 H 75.2432 -3.6659 -0.0267361 0
M  V30 825 H 74.8912 -4.43031 -2.38185 0
M  V30 826 H 74.5912 -5.74777 -1.22085 0
M  V30 827 H 76.1152 -5.71396 -2.15266 0
M  V30 828 H 77.5292 -5.73177 0.118704 0
M  V30 829 H 75.9262 -5.93566 0.88317 0
M  V30 830 H 76.9962 -4.63285 1.43162 0
M  V30 831 N 78.3393 -0.321999 -1.54275 0
M  V30 832 C 79.5853 0.281461 -2.00837 0
M  V30 833 C 79.9183 1.51909 -1.20985 0
M  V30 834 O 79.1933 1.923 -0.291733 0
M  V30 835 C 79.4763 0.617162 -3.54772 0
M  V30 836 C 79.3293 -0.631064 -4.45351 0
M  V30 837 C 80.6483 1.43542 -4.16033 0
M  V30 838 H 77.7673 0.100826 -0.730071 0
M  V30 839 H 80.4093 -0.438268 -1.84876 0
M  V30 840 H 78.5593 1.23034 -3.68504 0
M  V30 841 H 80.2313 -1.26934 -4.43492 0
M  V30 842 H 78.4743 -1.26025 -4.15091 0
M  V30 843 H 79.1453 -0.351735 -5.50878 0
M  V30 844 H 81.6213 0.917134 -4.05867 0
M  V30 845 H 80.4973 1.63907 -5.23856 0
M  V30 846 H 80.7583 2.43108 -3.69257 0
M  V30 847 N 79.8174 1.5752 -0.0501392 0
M  V30 848 C 80.7804 2.1037 0.909786 0
M  V30 849 C 81.7804 1.02308 1.24056 0
M  V30 850 O 82.9704 1.28385 1.17741 0
M  V30 851 C 80.1024 2.58708 2.21998 0
M  V30 852 H 81.2954 2.96479 0.451665 0
M  V30 853 H 78.8484 1.55038 0.198248 0
M  V30 854 H 79.5834 1.75989 2.72394 0
M  V30 855 H 79.3684 3.37675 1.99295 0
M  V30 856 H 80.8584 2.99747 2.9076 0
M  V30 857 N 81.2955 -0.223234 1.56011 0
M  V30 858 C 82.2255 -1.27988 1.95298 0
M  V30 859 C 83.2065 -1.48976 0.820979 0
M  V30 860 O 84.3915 -1.61188 1.08315 0
M  V30 861 C 81.5215 -2.63 2.26822 0
M  V30 862 C 80.4755 -2.56671 3.42497 0
M  V30 863 C 79.8015 -3.95697 3.59622 0
M  V30 864 C 81.1015 -2.11601 4.77517 0
M  V30 865 H 82.7955 -0.953525 2.8381 0
M  V30 866 H 80.3415 -0.457244 1.36548 0
M  V30 867 H 82.2945 -3.37077 2.52898 0
M  V30 868 H 81.0185 -2.9732 1.35161 0
M  V30 869 H 79.6775 -1.85051 3.16467 0
M  V30 870 H 79.3255 -4.27322 2.6534 0
M  V30 871 H 79.0255 -3.92345 4.37424 0
M  V30 872 H 80.5495 -4.71438 3.88044 0
M  V30 873 H 81.9635 -2.7542 5.02809 0
M  V30 874 H 80.3605 -2.19311 5.5859 0
M  V30 875 H 81.4305 -1.06824 4.72987 0
M  V30 876 N 82.7736 -1.49793 -0.48987 0
M  V30 877 C 84.0216 -1.59525 -1.24081 0
M  V30 878 C 84.3426 -0.288953 -1.92847 0
M  V30 879 O 83.6126 0.692436 -1.83254 0
M  V30 880 H 82.1926 -0.587796 -0.460983 0
M  V30 881 H 84.8546 -1.86477 -0.566778 0
M  V30 882 H 83.9506 -2.39696 -1.99881 0
M  V30 883 N 84.2517 0.741722 -1.39055 0
M  V30 884 C 85.2147 1.83733 -1.37021 0
M  V30 885 C 86.2147 1.58542 -0.268534 0
M  V30 886 O 87.4047 1.66067 -0.526076 0
M  V30 887 C 84.5367 3.2141 -1.13617 0
M  V30 888 H 85.7297 1.86941 -2.34506 0
M  V30 889 H 83.2827 0.944676 -1.24521 0
M  V30 890 H 84.0177 3.23865 -0.167863 0
M  V30 891 H 83.8027 3.4109 -1.93391 0
M  V30 892 H 85.2927 4.01477 -1.14918 0
M  V30 893 N 85.7298 1.2412 0.971189 0
M  V30 894 C 86.6928 1.03156 2.04674 0
M  V30 895 C 87.6928 -0.00990322 1.60797 0
M  V30 896 O 88.8828 0.230729 1.72665 0
M  V30 897 C 86.0148 0.562765 3.36223 0
M  V30 898 H 87.2078 1.98614 2.24705 0
M  V30 899 H 84.7608 1.06293 1.14593 0
M  V30 900 H 85.4958 -0.395176 3.21883 0
M  V30 901 H 85.2808 1.31441 3.69413 0
M  V30 902 H 86.7708 0.437015 4.15307 0
M  V30 903 N 87.2079 -1.17134 1.05439 0
M  V30 904 C 88.4849 -1.83411 0.679699 0
M  V30 905 C 88.8649 -1.9368 -0.839726 0
M  V30 906 O 88.2129 -1.47325 -1.74664 0
M  V30 907 C 88.4229 -3.20918 1.37159 0
M  V30 908 C 89.7709 -3.96796 1.51123 0
M  V30 909 O 90.7949 -3.30406 1.3308 0
M  V30 910 O 89.6539 -5.15778 1.80651 0
M  V30 911 H 86.7479 -0.79154 0.239569 0
M  V30 912 H 89.2939 -1.24411 1.15413 0
M  V30 913 H 88.0659 -3.08428 2.40807 0
M  V30 914 H 87.6889 -3.87587 0.886674 0
M  V30 915 N 88.686 -0.835752 -1.33615 0
M  V30 916 C 90.097 -0.487099 -1.80234 0
M  V30 917 C 90.448 0.993627 -1.69179 0
M  V30 918 O 89.573 1.77403 -1.23924 0
M  V30 919 C 90.168 -0.877385 -3.27242 0
M  V30 920 C 88.727 -0.580915 -3.7189 0
M  V30 921 C 87.874 -1.0874 -2.5509 0
M  V30 922 H 90.825 -1.02474 -1.2118 0
M  V30 923 H 90.846 -0.186195 -3.80044 0
M  V30 924 H 90.358 -1.95512 -3.35256 0
M  V30 925 H 88.459 0.486881 -3.69405 0
M  V30 926 H 88.572 -1.13396 -4.65487 0
M  V30 927 H 86.936 -0.508392 -2.49575 0
M  V30 928 H 87.719 -2.17184 -2.65868 0
M  V30 929 N 90.1641 1.46063 -0.591896 0
M  V30 930 C 91.1141 2.27458 0.157172 0
M  V30 931 C 92.0981 1.3641 0.853301 0
M  V30 932 O 93.2901 1.60517 0.74588 0
M  V30 933 C 90.4191 3.22956 1.16423 0
M  V30 934 C 89.5051 4.2149 0.469742 0
M  V30 935 N 89.8961 5.03519 -0.479839 0
M  V30 936 C 88.1941 4.40161 0.719319 0
M  V30 937 C 88.8951 5.74904 -0.886591 0
M  V30 938 N 87.8711 5.43097 -0.233731 0
M  V30 939 H 91.6731 2.88272 -0.572392 0
M  V30 940 H 89.1871 1.57024 -0.414375 0
M  V30 941 H 91.1841 3.79986 1.71513 0
M  V30 942 H 89.8441 2.63701 1.89451 0
M  V30 943 H 90.8551 5.1078 -0.855823 0
M  V30 944 H 87.5321 3.92046 1.43548 0
M  V30 945 H 88.9221 6.50844 -1.66888 0
M  V30 946 N 91.6422 0.330177 1.54103 0
M  V30 947 C 92.6052 -0.520144 2.2322 0
M  V30 948 C 93.6052 -1.03828 1.22786 0
M  V30 949 O 94.7952 -0.929652 1.4732 0
M  V30 950 C 91.9272 -1.72317 2.94142 0
M  V30 951 H 93.1202 0.0841605 2.99782 0
M  V30 952 H 90.6732 0.0813433 1.56088 0
M  V30 953 H 91.4082 -2.36653 2.21734 0
M  V30 954 H 91.1932 -1.35898 3.67796 0
M  V30 955 H 92.6832 -2.3266 3.46784 0
M  V30 956 N 93.1203 -1.57491 0.0584922 0
M  V30 957 C 94.3483 -1.97296 -0.623037 0
M  V30 958 C 94.7633 -0.936338 -1.63946 0
M  V30 959 O 94.1203 0.0785981 -1.82331 0
M  V30 960 C 94.1713 -3.37183 -1.30345 0
M  V30 961 O 93.8923 -4.36872 -0.32773 0
M  V30 962 C 95.3933 -3.91788 -2.07406 0
M  V30 963 H 92.6133 -0.649153 -0.169826 0
M  V30 964 H 95.1573 -2.04106 0.12696 0
M  V30 965 H 93.3123 -3.31502 -2.00463 0
M  V30 966 H 93.7263 -5.18141 -0.814269 0
M  V30 967 H 95.2003 -4.91926 -2.50425 0
M  V30 968 H 95.6773 -3.27609 -2.92521 0
M  V30 969 H 96.2833 -4.00829 -1.42184 0
M  V30 970 N 94.5984 0.214957 -1.56127 0
M  V30 971 C 95.5284 1.2695 -1.95974 0
M  V30 972 C 96.5094 1.48539 -0.828868 0
M  V30 973 O 97.6944 1.60611 -1.09168 0
M  V30 974 C 94.8244 2.61794 -2.28214 0
M  V30 975 C 93.7784 2.54851 -3.43853 0
M  V30 976 C 93.1044 3.93785 -3.61715 0
M  V30 977 C 94.4044 2.09065 -4.78632 0
M  V30 978 H 96.0984 0.93846 -2.84312 0
M  V30 979 H 93.6444 0.449996 -1.36788 0
M  V30 980 H 95.5974 3.35731 -2.54682 0
M  V30 981 H 94.3214 2.96599 -1.36736 0
M  V30 982 H 92.9804 1.8337 -3.17444 0
M  V30 983 H 92.6284 4.25908 -2.67602 0
M  V30 984 H 92.3284 3.90019 -4.39498 0
M  V30 985 H 93.8524 4.69374 -3.90539 0
M  V30 986 H 95.2664 2.7275 -5.04262 0
M  V30 987 H 93.6634 2.16346 -5.59745 0
M  V30 988 H 94.7334 1.04315 -4.73547 0
M  V30 989 N 96.0765 1.50051 0.48192 0
M  V30 990 C 96.9865 1.7089 1.60728 0
M  V30 991 C 98.0025 0.591788 1.63627 0
M  V30 992 O 99.1785 0.868817 1.81696 0
M  V30 993 C 96.2435 1.78855 2.97005 0
M  V30 994 C 95.3045 3.02537 3.04581 0
M  V30 995 C 94.5375 3.10112 4.34357 0
M  V30 996 O 94.7605 2.24765 5.24249 0
M  V30 997 O 93.6945 4.02747 4.47301 0
M  V30 998 H 97.5205 2.66264 1.46072 0
M  V30 999 H 95.1055 1.34018 0.660264 0
M  V30 1000 H 96.9875 1.86336 3.77964 0
M  V30 1001 H 95.6625 0.866628 3.11883 0
M  V30 1002 H 94.5695 3.00563 2.22739 0
M  V30 1003 H 95.9025 3.94272 2.94636 0
M  V30 1004 N 97.5546 -0.734337 1.39446 0
M  V30 1005 C 98.4646 -1.87879 1.40495 0
M  V30 1006 C 99.4806 -1.714 0.299672 0
M  V30 1007 O 100.657 -1.93991 0.541249 0
M  V30 1008 C 97.7216 -3.23477 1.24754 0
M  V30 1009 C 96.7826 -3.52344 2.45259 0
M  V30 1010 C 96.0156 -4.81473 2.30259 0
M  V30 1011 O 96.2386 -5.55237 1.30643 0
M  V30 1012 O 95.1726 -5.10254 3.19256 0
M  V30 1013 H 98.9986 -1.89949 2.36966 0
M  V30 1014 H 96.5836 -0.882243 1.20569 0
M  V30 1015 H 98.4656 -4.04509 1.18111 0
M  V30 1016 H 97.1406 -3.22176 0.313781 0
M  V30 1017 H 96.0476 -2.71396 2.57478 0
M  V30 1018 H 97.3806 -3.58426 3.37331 0
M  V30 1019 N 99.0327 -1.24633 -0.964593 0
M  V30 1020 C 99.9627 -1.06611 -2.07741 0
M  V30 1021 C 100.944 0.0218666 -1.70086 0
M  V30 1022 O 102.129 -0.145793 -1.93652 0
M  V30 1023 C 99.2587 -0.673444 -3.40708 0
M  V30 1024 C 98.2127 -1.71054 -3.92332 0
M  V30 1025 C 97.5387 -1.17285 -5.21678 0
M  V30 1026 C 98.8387 -3.10718 -4.19824 0
M  V30 1027 H 100.533 -1.99693 -2.23076 0
M  V30 1028 H 98.0787 -0.96152 -1.07195 0
M  V30 1029 H 100.032 -0.534345 -4.17998 0
M  V30 1030 H 98.7557 0.293073 -3.25282 0
M  V30 1031 H 97.4147 -1.83791 -3.17201 0
M  V30 1032 H 97.0627 -0.196847 -5.02615 0
M  V30 1033 H 96.7627 -1.86592 -5.57187 0
M  V30 1034 H 98.2867 -1.04593 -6.01575 0
M  V30 1035 H 99.7007 -3.01192 -4.87808 0
M  V30 1036 H 98.0977 -3.77406 -4.66567 0
M  V30 1037 H 99.1677 -3.58524 -3.26479 0
M  V30 1038 N 100.511 1.16574 -1.06058 0
M  V30 1039 C 101.739 1.90952 -0.796552 0
M  V30 1040 C 102.154 1.77302 0.648808 0
M  V30 1041 O 101.511 1.11605 1.44397 0
M  V30 1042 C 101.562 3.41736 -1.17894 0
M  V30 1043 O 101.283 3.54975 -2.56758 0
M  V30 1044 C 102.784 4.33169 -0.942308 0
M  V30 1045 H 100.004 0.605594 -0.288959 0
M  V30 1046 H 102.548 1.47777 -1.41358 0
M  V30 1047 H 100.703 3.82623 -0.606491 0
M  V30 1048 H 101.117 4.4846 -2.72 0
M  V30 1049 H 102.591 5.37439 -1.25952 0
M  V30 1050 H 103.068 4.3903 0.122078 0
M  V30 1051 H 103.674 3.98007 -1.49902 0
M  V30 1052 N 101.989 0.842826 1.3317 0
M  V30 1053 C 103.238 0.436738 1.96915 0
M  V30 1054 C 103.551 -1.01025 1.67491 0
M  V30 1055 O 104.757 -1.5212 2.24881 0
M  V30 1056 C 103.213 0.730021 3.52418 0
M  V30 1057 C 102.821 2.19195 3.90714 0
M  V30 1058 C 104.565 0.391076 4.22695 0
M  V30 1059 C 102.472 2.42907 5.39212 0
M  V30 1060 H 101.402 0.15958 0.736919 0
M  V30 1061 H 104.053 1.03196 1.51733 0
M  V30 1062 H 102.435 0.0643755 3.95948 0
M  V30 1063 H 103.609 2.8984 3.58231 0
M  V30 1064 H 101.924 2.49425 3.33431 0
M  V30 1065 H 104.521 0.545817 5.31907 0
M  V30 1066 H 104.864 -0.666294 4.10933 0
M  V30 1067 H 105.397 1.01212 3.84709 0
M  V30 1068 H 102.136 3.47224 5.55982 0
M  V30 1069 H 101.656 1.76827 5.73142 0
M  V30 1070 H 103.335 2.2626 6.06148 0
M  V30 1071 N 103.467 -1.45747 0.599634 0
M  V30 1072 C 104.744 -1.95585 0.0240846 0
M  V30 1073 C 105.124 -1.54217 -1.44154 0
M  V30 1074 O 104.472 -0.800903 -2.14004 0
M  V30 1075 C 104.682 -3.48344 0.21385 0
M  V30 1076 C 106.03 -4.24504 0.0904902 0
M  V30 1077 O 107.054 -3.55911 0.143558 0
M  V30 1078 O 105.913 -5.46491 -0.0310766 0
M  V30 1079 H 103.007 -0.82602 -0.0402478 0
M  V30 1080 H 105.553 -1.55951 0.669139 0
M  V30 1081 H 104.325 -3.71397 1.23206 0
M  V30 1082 H 103.948 -3.9485 -0.466842 0
M  V30 1083 N 104.945 -0.338344 -1.53925 0
M  V30 1084 C 106.17 0.263987 -2.05713 0
M  V30 1085 C 106.595 1.43847 -1.21201 0
M  V30 1086 O 105.953 1.79904 -0.224535 0
M  V30 1087 C 106.001 0.662 -3.54471 0
M  V30 1088 O 105.105 1.76265 -3.72833 0
M  V30 1089 H 104.446 0.0448722 -0.662482 0
M  V30 1090 H 106.976 -0.491048 -1.9862 0
M  V30 1091 H 106.986 0.940594 -3.9701 0
M  V30 1092 H 105.661 -0.196937 -4.15433 0
M  V30 1093 H 104.238 1.48173 -3.42198 0
M  V30 1094 N 106.423 1.57458 -0.0668435 0
M  V30 1095 C 107.67 1.93301 0.603406 0
M  V30 1096 C 107.998 0.946486 1.69917 0
M  V30 1097 O 107.253 -0.0387021 1.95662 0
M  V30 1098 C 107.552 3.35784 1.22409 0
M  V30 1099 C 107.218 4.50179 0.254955 0
M  V30 1100 C 105.88 4.81199 -0.0116746 0
M  V30 1101 C 108.232 5.19598 -0.408338 0
M  V30 1102 C 105.56 5.78978 -0.94877 0
M  V30 1103 C 107.912 6.18381 -1.33372 0
M  V30 1104 C 106.576 6.47821 -1.60887 0
M  V30 1105 H 105.846 0.707338 0.220802 0
M  V30 1106 H 108.493 1.91012 -0.136665 0
M  V30 1107 H 106.798 3.34515 2.03978 0
M  V30 1108 H 108.495 3.60804 1.74989 0
M  V30 1109 H 105.085 4.25983 0.472954 0
M  V30 1110 H 109.269 4.95832 -0.215456 0
M  V30 1111 H 104.525 6.00115 -1.16925 0
M  V30 1112 H 108.699 6.71277 -1.85367 0
M  V30 1113 H 106.326 7.23399 -2.33661 0
M  V30 1114 N 107.901 -0.206675 1.56239 0
M  V30 1115 C 108.811 -1.27686 1.96808 0
M  V30 1116 C 109.827 -1.50455 0.874035 0
M  V30 1117 O 111.003 -1.63295 1.17884 0
M  V30 1118 C 108.068 -2.60358 2.28942 0
M  V30 1119 C 107.129 -2.45762 3.51994 0
M  V30 1120 C 106.362 -3.72108 3.82585 0
M  V30 1121 O 106.585 -4.75776 3.14631 0
M  V30 1122 O 105.519 -3.6833 4.76043 0
M  V30 1123 H 109.345 -0.962593 2.88041 0
M  V30 1124 H 106.93 -0.410746 1.43643 0
M  V30 1125 H 108.812 -3.38687 2.50737 0
M  V30 1126 H 107.487 -2.91435 1.4088 0
M  V30 1127 H 106.394 -1.65584 3.35459 0
M  V30 1128 H 107.727 -2.19621 4.40486 0
M  V30 1129 N 109.379 -1.50304 -0.473955 0
M  V30 1130 C 110.604 -1.65175 -1.25427 0
M  V30 1131 C 111.029 -0.333673 -1.85117 0
M  V30 1132 O 110.387 0.702114 -1.67153 0
M  V30 1133 C 110.435 -2.74295 -2.34082 0
M  V30 1134 O 109.539 -2.35349 -3.38651 0
M  V30 1135 H 108.88 -0.551944 -0.369126 0
M  V30 1136 H 111.41 -1.96662 -0.564364 0
M  V30 1137 H 111.42 -2.97285 -2.79438 0
M  V30 1138 H 110.095 -3.69959 -1.90008 0
M  V30 1139 H 108.672 -2.22794 -2.99027 0
M  V30 1140 N 110.857 0.726932 -1.39834 0
M  V30 1141 C 112.103 1.48884 -1.377 0
M  V30 1142 C 112.436 1.94185 0.0244852 0
M  V30 1143 O 111.711 1.67361 0.990986 0
M  V30 1144 C 111.994 2.72288 -2.3565 0
M  V30 1145 C 111.847 2.32956 -3.84775 0
M  V30 1146 C 113.166 3.74414 -2.31306 0
M  V30 1147 H 110.285 0.540062 -0.5015 0
M  V30 1148 H 112.927 0.830547 -1.70886 0
M  V30 1149 H 111.077 3.28457 -2.07481 0
M  V30 1150 H 112.749 1.82356 -4.23726 0
M  V30 1151 H 110.992 1.65088 -4.01159 0
M  V30 1152 H 111.663 3.21362 -4.4881 0
M  V30 1153 H 114.139 3.27849 -2.56231 0
M  V30 1154 H 113.015 4.58414 -3.01907 0
M  V30 1155 H 113.276 4.21909 -1.32081 0
M  V30 1156 N 112.336 1.25143 0.95797 0
M  V30 1157 C 113.613 1.00472 1.67823 0
M  V30 1158 C 113.993 -0.470056 2.058 0
M  V30 1159 O 113.341 -1.44663 1.76875 0
M  V30 1160 C 113.551 1.9372 2.90299 0
M  V30 1161 C 114.899 2.21371 3.62326 0
M  V30 1162 O 115.923 1.91451 3.00375 0
M  V30 1163 O 114.782 2.72231 4.7387 0
M  V30 1164 H 111.876 0.380752 0.734137 0
M  V30 1165 H 114.422 1.36283 1.01119 0
M  V30 1166 H 113.194 2.93316 2.59001 0
M  V30 1167 H 112.817 1.58286 3.64735 0
M  V30 1168 N 113.814 -1.1601 1.06675 0
M  V30 1169 C 114.724 -2.24156 0.692179 0
M  V30 1170 C 115.74 -1.71507 -0.293513 0
M  V30 1171 O 116.916 -2.009 -0.141861 0
M  V30 1172 C 113.981 -3.46587 0.0884131 0
M  V30 1173 C 113.042 -4.14257 1.12646 0
M  V30 1174 C 112.275 -5.30844 0.551416 0
M  V30 1175 O 112.498 -5.66858 -0.634656 0
M  V30 1176 O 111.432 -5.87848 1.29298 0
M  V30 1177 H 115.258 -2.58513 1.59388 0
M  V30 1178 H 112.843 -1.23599 0.83926 0
M  V30 1179 H 114.725 -4.20679 -0.246361 0
M  V30 1180 H 113.4 -3.13994 -0.786712 0
M  V30 1181 H 112.307 -3.42118 1.51348 0
M  V30 1182 H 113.64 -4.50914 1.97325 0
M  V30 1183 N 115.292 -0.849877 -1.32721 0
M  V30 1184 C 116.538 -0.451591 -1.97708 0
M  V30 1185 C 116.871 0.989175 -1.6712 0
M  V30 1186 O 116.146 1.69334 -0.956891 0
M  V30 1187 C 116.429 -0.685598 -3.53513 0
M  V30 1188 C 116.282 -2.17444 -3.93749 0
M  V30 1189 C 117.601 -0.138874 -4.39881 0
M  V30 1190 H 114.72 -0.16555 -0.718166 0
M  V30 1191 H 117.362 -1.06742 -1.57182 0
M  V30 1192 H 115.512 -0.161416 -3.88165 0
M  V30 1193 H 117.184 -2.76433 -3.693 0
M  V30 1194 H 115.427 -2.65476 -3.43081 0
M  V30 1195 H 116.098 -2.28888 -5.02309 0
M  V30 1196 H 118.574 -0.587068 -4.11938 0
M  V30 1197 H 117.45 -0.332213 -5.47894 0
M  V30 1198 H 117.711 0.95806 -4.31594 0
M  V30 1199 N 116.77 1.45427 -0.607355 0
M  V30 1200 C 117.733 2.28974 0.101693 0
M  V30 1201 C 118.733 1.39754 0.795329 0
M  V30 1202 O 119.923 1.61878 0.643527 0
M  V30 1203 C 117.055 3.20768 1.15414 0
M  V30 1204 H 118.248 2.93147 -0.632844 0
M  V30 1205 H 115.801 1.51945 -0.366391 0
M  V30 1206 H 116.536 2.61395 1.91945 0
M  V30 1207 H 116.321 3.86489 0.66098 0
M  V30 1208 H 117.811 3.83589 1.65073 0
M  V30 1209 N 118.248 0.346503 1.53744 0
M  V30 1210 C 119.181 -0.552023 2.21423 0
M  V30 1211 C 120.159 -1.09798 1.19929 0
M  V30 1212 O 121.343 -1.1577 1.4876 0
M  V30 1213 C 118.47 -1.75972 2.89398 0
M  V30 1214 C 117.516 -1.34295 4.04805 0
M  V30 1215 S 118.349 -0.360263 5.34287 0
M  V30 1216 C 119.505 -1.57473 6.05767 0
M  V30 1217 H 119.738 0.0228119 2.97291 0
M  V30 1218 H 117.271 0.130579 1.53847 0
M  V30 1219 H 119.229 -2.45256 3.2918 0
M  V30 1220 H 117.89 -2.30578 2.1329 0
M  V30 1221 H 117.083 -2.24349 4.51313 0
M  V30 1222 H 116.685 -0.729555 3.66815 0
M  V30 1223 H 118.977 -2.50875 6.29339 0
M  V30 1224 H 119.92 -1.15138 6.98676 0
M  V30 1225 H 120.328 -1.77212 5.35963 0
M  V30 1226 N 119.726 -1.57421 0.075193 0
M  V30 1227 C 120.676 -2.09441 -0.901025 0
M  V30 1228 C 121.66 -1.00486 -1.25663 0
M  V30 1229 O 122.852 -1.2679 -1.23504 0
M  V30 1230 C 119.981 -2.66233 -2.16737 0
M  V30 1231 C 119.067 -3.82198 -1.83808 0
M  V30 1232 N 119.458 -4.91028 -1.21345 0
M  V30 1233 C 117.756 -3.91558 -2.13538 0
M  V30 1234 C 118.457 -5.71852 -1.06585 0
M  V30 1235 N 117.433 -5.20233 -1.57667 0
M  V30 1236 H 121.235 -2.90972 -0.413815 0
M  V30 1237 H 118.749 -1.6189 -0.128601 0
M  V30 1238 H 120.746 -3.01819 -2.87595 0
M  V30 1239 H 119.406 -1.8615 -2.66042 0
M  V30 1240 H 120.417 -5.10323 -0.88268 0
M  V30 1241 H 117.094 -3.22454 -2.65197 0
M  V30 1242 H 118.484 -6.69401 -0.578933 0
M  V30 1243 N 121.204 0.198386 -1.56346 0
M  V30 1244 C 122.481 0.944982 -1.71258 0
M  V30 1245 C 122.861 2.0151 -0.629048 0
M  V30 1246 O 122.209 2.25639 0.360473 0
M  V30 1247 C 122.419 1.5344 -3.1346 0
M  V30 1248 C 123.767 2.01778 -3.73591 0
M  V30 1249 O 124.791 1.63288 -3.16568 0
M  V30 1250 O 123.65 2.72594 -4.73661 0
M  V30 1251 H 120.744 0.442939 -0.69838 0
M  V30 1252 H 123.29 0.188342 -1.68652 0
M  V30 1253 H 122.062 0.762869 -3.83792 0
M  V30 1254 H 121.685 2.35596 -3.20282 0
M  V30 1255 N 122.682 1.50554 0.465978 0
M  V30 1256 C 123.912 1.65323 1.23903 0
M  V30 1257 C 124.32 0.338051 1.86155 0
M  V30 1258 O 123.663 -0.690518 1.70228 0
M  V30 1259 C 123.725 2.69048 2.3844 0
M  V30 1260 C 123.389 4.12462 1.96784 0
M  V30 1261 C 124.386 4.98168 1.48745 0
M  V30 1262 C 122.071 4.58407 2.05349 0
M  V30 1263 C 124.065 6.27868 1.0982 0
M  V30 1264 C 121.752 5.88112 1.66035 0
M  V30 1265 C 122.75 6.72668 1.18349 0
M  V30 1266 O 122.438 7.99951 0.795825 0
M  V30 1267 H 122.17 0.558629 0.38067 0
M  V30 1268 H 124.724 1.97561 0.562022 0
M  V30 1269 H 122.954 2.32062 3.09328 0
M  V30 1270 H 124.643 2.72985 3.0039 0
M  V30 1271 H 125.409 4.63885 1.41546 0
M  V30 1272 H 121.288 3.92735 2.41414 0
M  V30 1273 H 124.832 6.93819 0.725293 0
M  V30 1274 H 120.729 6.21914 1.72895 0
M  V30 1275 H 121.497 8.13265 0.924222 0
M  V30 1276 N 124.16 -0.719506 1.40217 0
M  V30 1277 C 125.406 -1.48152 1.38488 0
M  V30 1278 C 125.739 -1.94195 -0.0141867 0
M  V30 1279 O 125.014 -1.67884 -0.982096 0
M  V30 1280 C 125.297 -2.71035 2.37091 0
M  V30 1281 C 125.15 -2.30912 3.86005 0
M  V30 1282 C 126.469 -3.73182 2.33288 0
M  V30 1283 H 123.588 -0.537395 0.504357 0
M  V30 1284 H 126.23 -0.821472 1.71324 0
M  V30 1285 H 124.38 -3.27352 2.0922 0
M  V30 1286 H 126.052 -1.80107 4.24687 0
M  V30 1287 H 124.295 -1.62958 4.02029 0
M  V30 1288 H 124.966 -3.18978 4.50508 0
M  V30 1289 H 127.442 -3.26485 2.57966 0
M  V30 1290 H 126.318 -4.56806 3.04334 0
M  V30 1291 H 126.579 -4.21202 1.34317 0
M  V30 1292 N 125.638 -1.25649 -0.95132 0
M  V30 1293 C 126.585 -1.06323 -2.04851 0
M  V30 1294 C 127.555 0.0286491 -1.66075 0
M  V30 1295 O 128.74 -0.12917 -1.90362 0
M  V30 1296 C 125.88 -0.691529 -3.381 0
M  V30 1297 C 124.993 -1.85861 -3.89974 0
M  V30 1298 C 124.128 -1.43096 -5.11563 0
M  V30 1299 C 123.167 -2.56696 -5.55674 0
M  V30 1300 N 122.304 -2.14684 -6.68472 0
M  V30 1301 H 127.144 -2.00222 -2.20715 0
M  V30 1302 H 124.681 -0.997027 -1.08156 0
M  V30 1303 H 126.639 -0.456963 -4.1469 0
M  V30 1304 H 125.269 0.210474 -3.22113 0
M  V30 1305 H 124.321 -2.20639 -3.09875 0
M  V30 1306 H 125.633 -2.71161 -4.18657 0
M  V30 1307 H 124.787 -1.15624 -5.9558 0
M  V30 1308 H 123.526 -0.548722 -4.84603 0
M  V30 1309 H 122.531 -2.84909 -4.7022 0
M  V30 1310 H 123.756 -3.45503 -5.8464 0
M  V30 1311 H 121.702 -1.28881 -6.43215 0
M  V30 1312 H 121.619 -2.9353 -6.96689 0
M  V30 1313 H 122.887 -1.90397 -7.5589 0
M  V30 1314 N 127.117 1.15442 -1.07289 0
M  V30 1315 C 128.347 1.89821 -0.815576 0
M  V30 1316 C 128.755 1.7823 0.634867 0
M  V30 1317 O 128.098 1.13152 1.44715 0
M  V30 1318 C 128.16 3.40817 -1.14385 0
M  V30 1319 C 127.824 3.76193 -2.59476 0
M  V30 1320 C 128.821 3.77269 -3.57721 0
M  V30 1321 C 126.506 4.0652 -2.95037 0
M  V30 1322 C 128.5 4.08176 -4.89562 0
M  V30 1323 C 126.187 4.37092 -4.27076 0
M  V30 1324 C 127.185 4.37902 -5.24148 0
M  V30 1325 O 126.873 4.67741 -6.53815 0
M  V30 1326 H 126.605 0.608465 -0.294528 0
M  V30 1327 H 129.159 1.472 -1.43252 0
M  V30 1328 H 127.389 3.83835 -0.469865 0
M  V30 1329 H 129.078 3.96485 -0.869179 0
M  V30 1330 H 129.844 3.5394 -3.3159 0
M  V30 1331 H 125.723 4.05049 -2.20128 0
M  V30 1332 H 129.267 4.08723 -5.65324 0
M  V30 1333 H 125.164 4.59889 -4.5296 0
M  V30 1334 H 125.932 4.85509 -6.58957 0
M  V30 1335 N 128.595 0.856903 1.32268 0
M  V30 1336 C 129.872 0.382583 1.91822 0
M  V30 1337 C 130.252 -1.13407 1.78051 0
M  V30 1338 O 129.6 -1.95673 1.18001 0
M  V30 1339 C 129.81 0.849446 3.38505 0
M  V30 1340 C 131.158 0.867936 4.15634 0
M  V30 1341 O 132.182 0.794232 3.47232 0
M  V30 1342 O 131.041 0.972286 5.37781 0
M  V30 1343 H 128.135 0.112014 0.819379 0
M  V30 1344 H 130.681 0.943952 1.41024 0
M  V30 1345 H 129.453 1.89267 3.42482 0
M  V30 1346 H 129.076 0.265652 3.96712 0
M  V30 1347 N 130.073 -1.45103 0.615059 0
M  V30 1348 C 131.036 -2.29025 -0.0895485 0
M  V30 1349 C 132.036 -1.40174 -0.787906 0
M  V30 1350 O 133.226 -1.62217 -0.634933 0
M  V30 1351 C 130.358 -3.21376 -1.13711 0
M  V30 1352 H 131.551 -2.92807 0.648382 0
M  V30 1353 H 129.104 -1.51749 0.374444 0
M  V30 1354 H 129.839 -2.6241 -1.90556 0
M  V30 1355 H 129.624 -3.86834 -0.640475 0
M  V30 1356 H 131.114 -3.84459 -1.63036 0
M  V30 1357 N 131.551 -0.354651 -1.53558 0
M  V30 1358 C 132.798 0.238443 -2.01091 0
M  V30 1359 C 133.126 1.49663 -1.24222 0
M  V30 1360 O 132.381 1.93049 -0.321003 0
M  V30 1361 C 132.68 0.587121 -3.52545 0
M  V30 1362 C 132.346 -0.575472 -4.47213 0
M  V30 1363 C 131.008 -0.894497 -4.72813 0
M  V30 1364 C 133.36 -1.35489 -5.03281 0
M  V30 1365 C 130.688 -1.99511 -5.51736 0
M  V30 1366 C 133.04 -2.44583 -5.83405 0
M  V30 1367 C 131.704 -2.77033 -6.07296 0
M  V30 1368 H 130.974 0.0872526 -0.735845 0
M  V30 1369 H 133.621 -0.484859 -1.8526 0
M  V30 1370 H 131.926 1.39129 -3.66265 0
M  V30 1371 H 133.623 1.05809 -3.86789 0
M  V30 1372 H 130.213 -0.316774 -4.27428 0
M  V30 1373 H 134.397 -1.12167 -4.83459 0
M  V30 1374 H 129.653 -2.25063 -5.68469 0
M  V30 1375 H 133.827 -3.05401 -6.25862 0
M  V30 1376 H 131.454 -3.6244 -6.68237 0
M  V30 1377 N 133.029 1.57378 -0.0835403 0
M  V30 1378 C 134.275 1.95025 0.577664 0
M  V30 1379 C 134.63 0.964049 1.66505 0
M  V30 1380 O 133.923 -0.0118235 1.91596 0
M  V30 1381 C 134.117 3.37063 1.1884 0
M  V30 1382 C 133.946 4.49409 0.16171 0
M  V30 1383 C 132.716 5.04642 -0.257756 0
M  V30 1384 C 134.914 5.10722 -0.605634 0
M  V30 1385 N 132.896 6.00537 -1.27393 0
M  V30 1386 C 134.267 6.02225 -1.47395 0
M  V30 1387 C 136.322 4.93501 -0.660418 0
M  V30 1388 C 135.025 6.78355 -2.39221 0
M  V30 1389 C 137.051 5.70283 -1.56623 0
M  V30 1390 C 136.413 6.61444 -2.4222 0
M  V30 1391 H 132.512 0.760512 0.182058 0
M  V30 1392 H 135.096 1.94013 -0.163419 0
M  V30 1393 H 133.267 3.3879 1.89936 0
M  V30 1394 H 134.999 3.61917 1.81103 0
M  V30 1395 H 131.754 4.73428 0.127702 0
M  V30 1396 H 132.178 6.53184 -1.77987 0
M  V30 1397 H 136.82 4.22798 -0.0128221 0
M  V30 1398 H 134.538 7.48327 -3.05011 0
M  V30 1399 H 138.124 5.58976 -1.61361 0
M  V30 1400 H 137.004 7.1982 -3.11174 0
M  V30 1401 N 134.507 -0.190092 1.56449 0
M  V30 1402 C 135.455 -1.25501 1.95837 0
M  V30 1403 C 136.449 -1.4685 0.844485 0
M  V30 1404 O 137.655 -1.47651 1.02952 0
M  V30 1405 H 134.03 -0.421447 0.622805 0
M  V30 1406 H 136.001 -0.895821 2.84636 0
M  V30 1407 C 134.75 -2.59124 2.31841 0
M  V30 1408 H 134.073 -2.43514 3.17082 0
M  V30 1409 H 135.513 -3.32371 2.6326 0
M  V30 1410 C 133.972 -3.16488 1.15486 0
M  V30 1411 O 134.502 -3.99365 0.432535 0
M  V30 1412 N 132.708 -2.75305 0.930349 0
M  V30 1413 H 132.255 -2.08013 1.51948 0
M  V30 1414 H 132.213 -3.14024 0.153634 0
M  V30 1415 N 135.985 -1.50799 -0.457987 0
M  V30 1416 C 136.933 -1.71162 -1.575 0
M  V30 1417 C 137.927 -0.577592 -1.59249 0
M  V30 1418 O 139.133 -0.758443 -1.63241 0
M  V30 1419 H 135.508 -0.540468 -0.522875 0
M  V30 1420 H 137.479 -2.64837 -1.37492 0
M  V30 1421 C 136.228 -1.83496 -2.95338 0
M  V30 1422 H 135.551 -2.70153 -2.94716 0
M  V30 1423 H 136.991 -2.01765 -3.72917 0
M  V30 1424 C 135.45 -0.589694 -3.31699 0
M  V30 1425 O 135.98 0.265163 -4.00824 0
M  V30 1426 N 134.186 -0.439845 -2.87252 0
M  V30 1427 H 133.733 -1.13655 -2.31172 0
M  V30 1428 H 133.691 0.392159 -3.11945 0
M  V30 1429 N 137.463 0.71206 -1.40597 0
M  V30 1430 C 138.874 1.29135 -1.34837 0
M  V30 1431 C 139.225 1.96186 -0.0235395 0
M  V30 1432 O 138.35 1.97768 0.878444 0
M  V30 1433 C 138.945 2.34827 -2.44217 0
M  V30 1434 C 137.504 2.88371 -2.41907 0
M  V30 1435 C 136.651 1.62202 -2.24913 0
M  V30 1436 H 139.602 0.507944 -1.50352 0
M  V30 1437 H 139.623 3.15749 -2.12327 0
M  V30 1438 H 139.135 1.85996 -3.40627 0
M  V30 1439 H 137.236 3.41422 -1.49204 0
M  V30 1440 H 137.349 3.39925 -3.37621 0
M  V30 1441 H 135.713 1.874 -1.72492 0
M  V30 1442 H 136.496 1.15391 -3.23326 0
M  V30 1443 N 138.941 1.26152 0.944643 0
M  V30 1444 C 140.166 1.14363 1.7302 0
M  V30 1445 C 140.591 -0.29772 1.85729 0
M  V30 1446 O 139.949 -1.2157 1.34501 0
M  V30 1447 C 139.997 1.81378 3.11664 0
M  V30 1448 O 139.101 1.10022 3.97453 0
M  V30 1449 H 138.442 0.398694 0.53098 0
M  V30 1450 H 140.972 1.66906 1.18337 0
M  V30 1451 H 140.982 1.88064 3.62072 0
M  V30 1452 H 139.657 2.86237 3.0173 0
M  V30 1453 H 138.234 1.11287 3.55907 0
M  V30 1454 N 140.419 -1.14872 1.07899 0
M  V30 1455 C 141.647 -1.89661 0.82683 0
M  V30 1456 C 142.062 -1.78312 -0.620519 0
M  V30 1457 O 141.419 -1.13888 -1.42604 0
M  V30 1458 C 141.47 -3.39817 1.23316 0
M  V30 1459 O 141.191 -3.50845 2.62372 0
M  V30 1460 C 142.692 -4.31615 1.0111 0
M  V30 1461 H 139.912 -0.60092 0.298557 0
M  V30 1462 H 142.456 -1.4551 1.43691 0
M  V30 1463 H 140.611 -3.8161 0.667286 0
M  V30 1464 H 141.025 -4.44076 2.79101 0
M  V30 1465 H 142.499 -5.35367 1.34486 0
M  V30 1466 H 142.976 -4.39169 -0.0522168 0
M  V30 1467 H 143.582 -3.95572 1.56215 0
M  V30 1468 N 141.898 -0.863906 -1.31812 0
M  V30 1469 C 143.147 -0.46801 -1.96195 0
M  V30 1470 C 143.46 0.983474 -1.69077 0
M  V30 1471 O 144.666 1.48523 -2.27273 0
M  V30 1472 C 143.122 -0.785995 -3.51212 0
M  V30 1473 C 142.73 -2.25383 -3.87178 0
M  V30 1474 C 144.474 -0.458274 -4.22019 0
M  V30 1475 C 142.381 -2.51455 -5.3528 0
M  V30 1476 H 141.311 -0.171283 -0.734287 0
M  V30 1477 H 143.962 -1.05597 -1.50072 0
M  V30 1478 H 142.344 -0.127359 -3.95795 0
M  V30 1479 H 143.518 -2.95502 -3.53575 0
M  V30 1480 H 141.833 -2.54698 -3.2942 0
M  V30 1481 H 144.43 -0.630369 -5.30971 0
M  V30 1482 H 144.773 0.600834 -4.11941 0
M  V30 1483 H 145.306 -1.07319 -3.8305 0
M  V30 1484 H 142.045 -3.56025 -5.50387 0
M  V30 1485 H 141.565 -1.85923 -5.70257 0
M  V30 1486 H 143.244 -2.35874 -6.02472 0
M  V30 1487 N 143.376 1.44774 -0.622745 0
M  V30 1488 C 144.323 2.30635 0.0871679 0
M  V30 1489 C 145.293 1.42994 0.845097 0
M  V30 1490 O 146.478 1.71907 0.827812 0
M  V30 1491 C 143.618 3.28144 1.06844 0
M  V30 1492 C 142.731 4.30888 0.309809 0
M  V30 1493 C 141.866 5.15494 1.28215 0
M  V30 1494 C 140.905 6.09953 0.512198 0
M  V30 1495 N 140.042 6.87287 1.43458 0
M  V30 1496 H 144.882 2.90803 -0.650974 0
M  V30 1497 H 142.419 1.43286 -0.33281 0
M  V30 1498 H 144.377 3.83157 1.65066 0
M  V30 1499 H 143.007 2.69695 1.77382 0
M  V30 1500 H 142.059 3.78414 -0.388181 0
M  V30 1501 H 143.371 4.97955 -0.290254 0
M  V30 1502 H 142.525 5.74983 1.93596 0
M  V30 1503 H 141.264 4.48481 1.91614 0
M  V30 1504 H 140.269 5.49581 -0.155151 0
M  V30 1505 H 141.494 6.78999 -0.116958 0
M  V30 1506 H 139.44 6.2295 2.05594 0
M  V30 1507 H 139.357 7.50763 0.888335 0
M  V30 1508 H 140.625 7.51306 2.07749 0
M  V30 1509 N 144.854 0.36279 1.53368 0
M  V30 1510 C 146.1 -0.228113 2.01513 0
M  V30 1511 C 146.433 -1.48648 1.2497 0
M  V30 1512 O 145.708 -1.91459 0.342616 0
M  V30 1513 C 145.991 -0.522884 3.56284 0
M  V30 1514 C 145.844 0.74892 4.43521 0
M  V30 1515 C 147.163 -1.32461 4.19693 0
M  V30 1516 H 144.282 -0.0814343 0.732487 0
M  V30 1517 H 146.924 0.48713 1.83649 0
M  V30 1518 H 145.074 -1.1322 3.71636 0
M  V30 1519 H 146.746 1.38648 4.39971 0
M  V30 1520 H 144.989 1.36986 4.11603 0
M  V30 1521 H 145.66 0.497667 5.49752 0
M  V30 1522 H 148.136 -0.809203 4.08156 0
M  V30 1523 H 147.012 -1.49961 5.28018 0
M  V30 1524 H 147.273 -2.33232 3.75573 0
M  V30 1525 N 146.332 -1.57332 0.0918853 0
M  V30 1526 C 147.579 -1.94236 -0.572577 0
M  V30 1527 C 147.907 -0.973398 -1.6839 0
M  V30 1528 O 147.162 0.00756912 -1.95699 0
M  V30 1529 C 147.461 -3.37689 -1.17051 0
M  V30 1530 C 147.127 -4.50527 -0.183304 0
M  V30 1531 C 145.789 -4.81119 0.0882276 0
M  V30 1532 C 148.141 -5.18883 0.49095 0
M  V30 1533 C 145.469 -5.77395 1.04076 0
M  V30 1534 C 147.821 -6.1618 1.43193 0
M  V30 1535 C 146.485 -6.45179 1.71173 0
M  V30 1536 H 145.755 -0.710762 -0.209521 0
M  V30 1537 H 148.402 -1.9077 0.167036 0
M  V30 1538 H 146.707 -3.37718 -1.9863 0
M  V30 1539 H 148.404 -3.63543 -1.69227 0
M  V30 1540 H 144.994 -4.26681 -0.405124 0
M  V30 1541 H 149.178 -4.95427 0.294312 0
M  V30 1542 H 144.434 -5.98179 1.26457 0
M  V30 1543 H 148.608 -6.68243 1.96023 0
M  V30 1544 H 146.235 -7.1959 2.4514 0
M  V30 1545 N 147.81 0.181792 -1.56548 0
M  V30 1546 C 148.72 1.24538 -1.98815 0
M  V30 1547 C 149.736 1.49045 -0.897861 0
M  V30 1548 O 150.912 1.61399 -1.20467 0
M  V30 1549 C 147.977 2.56683 -2.33055 0
M  V30 1550 C 147.038 2.40131 -3.55859 0
M  V30 1551 C 146.271 3.65975 -3.88456 0
M  V30 1552 O 146.494 4.70711 -3.22161 0
M  V30 1553 O 145.428 3.6071 -4.81842 0
M  V30 1554 H 149.254 0.916647 -2.89536 0
M  V30 1555 H 146.839 0.387842 -1.44278 0
M  V30 1556 H 148.721 3.34655 -2.56094 0
M  V30 1557 H 147.396 2.89157 -1.45498 0
M  V30 1558 H 146.303 1.60226 -3.38051 0
M  V30 1559 H 147.636 2.12585 -4.43924 0
M  V30 1560 N 149.288 1.51039 0.449983 0
M  V30 1561 C 150.22 1.67617 1.56324 0
M  V30 1562 C 151.233 0.557083 1.52972 0
M  V30 1563 O 152.422 0.830989 1.57977 0
M  V30 1564 C 149.522 1.66402 2.95235 0
M  V30 1565 C 148.695 2.9469 3.23229 0
M  V30 1566 C 147.754 2.85832 4.41799 0
M  V30 1567 O 146.78 3.59785 4.41071 0
M  V30 1568 N 147.982 2.00821 5.44657 0
M  V30 1569 H 150.747 2.63648 1.42512 0
M  V30 1570 H 148.308 1.48767 0.638737 0
M  V30 1571 H 150.3 1.58062 3.72557 0
M  V30 1572 H 148.87 0.780182 3.02708 0
M  V30 1573 H 148.09 3.16996 2.34323 0
M  V30 1574 H 149.378 3.79636 3.38754 0
M  V30 1575 H 148.776 1.40091 5.48079 0
M  V30 1576 H 147.333 1.98368 6.20881 0
M  V30 1577 N 150.766 -0.704594 1.40972 0
M  V30 1578 C 152.012 -1.46675 1.40051 0
M  V30 1579 C 152.345 -1.94199 0.00641102 0
M  V30 1580 O 151.62 -1.68916 -0.964235 0
M  V30 1581 C 151.903 -2.68505 2.39952 0
M  V30 1582 C 151.756 -2.26805 3.88432 0
M  V30 1583 C 153.075 -3.70686 2.37233 0
M  V30 1584 H 150.194 -0.532015 0.510028 0
M  V30 1585 H 152.836 -0.803255 1.72185 0
M  V30 1586 H 150.986 -3.25114 2.1268 0
M  V30 1587 H 152.658 -1.75592 4.26574 0
M  V30 1588 H 150.901 -1.58685 4.03734 0
M  V30 1589 H 151.572 -3.14181 4.53866 0
M  V30 1590 H 154.048 -3.23731 2.61415 0
M  V30 1591 H 152.924 -4.53553 3.09162 0
M  V30 1592 H 153.185 -4.19754 1.38777 0
M  V30 1593 N 152.244 -1.26651 -0.937939 0
M  V30 1594 C 153.491 -1.12387 -1.6845 0
M  V30 1595 C 153.819 0.332208 -1.91642 0
M  V30 1596 O 153.074 1.2602 -1.49725 0
M  V30 1597 C 153.373 -1.84168 -3.06295 0
M  V30 1598 C 153.039 -3.34056 -3.02849 0
M  V30 1599 C 151.701 -3.74942 -3.01616 0
M  V30 1600 C 154.053 -4.29741 -2.9491 0
M  V30 1601 C 151.381 -5.09894 -2.90215 0
M  V30 1602 C 153.733 -5.64738 -2.8505 0
M  V30 1603 C 152.397 -6.0493 -2.82162 0
M  V30 1604 H 151.667 -0.411252 -0.616403 0
M  V30 1605 H 154.314 -1.57134 -1.09459 0
M  V30 1606 H 152.619 -1.319 -3.6893 0
M  V30 1607 H 154.316 -1.70569 -3.62915 0
M  V30 1608 H 150.906 -3.01534 -3.0459 0
M  V30 1609 H 155.09 -3.99133 -2.94969 0
M  V30 1610 H 150.346 -5.40194 -2.86358 0
M  V30 1611 H 154.52 -6.38561 -2.77872 0
M  V30 1612 H 152.147 -7.09457 -2.73084 0
M  V30 1613 N 153.722 1.14298 -1.08507 0
M  V30 1614 C 154.97 1.84993 -0.813763 0
M  V30 1615 C 155.291 1.83405 0.662393 0
M  V30 1616 O 154.561 1.28319 1.48024 0
M  V30 1617 H 153.141 0.684966 -0.298045 0
M  V30 1618 H 155.803 1.385 -1.37126 0
M  V30 1619 H 154.899 2.89788 -1.15884 0
M  V30 1620 N 155.201 0.870884 1.31352 0
M  V30 1621 C 156.111 0.330783 2.32256 0
M  V30 1622 C 157.127 -0.559767 1.6475 0
M  V30 1623 O 158.303 -0.456263 1.96164 0
M  V30 1624 C 155.368 -0.458137 3.4366 0
M  V30 1625 C 154.429 0.460482 4.26823 0
M  V30 1626 C 153.662 -0.290881 5.32907 0
M  V30 1627 O 153.885 -1.51885 5.49806 0
M  V30 1628 O 152.819 0.351732 6.00871 0
M  V30 1629 H 156.645 1.16718 2.80376 0
M  V30 1630 H 154.23 0.634285 1.35267 0
M  V30 1631 H 156.112 -0.905343 4.1156 0
M  V30 1632 H 154.787 -1.27106 2.97701 0
M  V30 1633 H 153.694 0.956207 3.61673 0
M  V30 1634 H 155.027 1.23903 4.7635 0
M  V30 1635 N 156.679 -1.44442 0.630414 0
M  V30 1636 C 158.09 -1.85434 0.217063 0
M  V30 1637 C 158.441 -1.52748 -1.23136 0
M  V30 1638 O 157.566 -0.965205 -1.93682 0
M  V30 1639 C 158.161 -3.36581 0.387168 0
M  V30 1640 C 156.72 -3.76389 0.0283297 0
M  V30 1641 C 155.867 -2.68296 0.700889 0
M  V30 1642 H 158.818 -1.34919 0.83562 0
M  V30 1643 H 158.839 -3.78657 -0.374086 0
M  V30 1644 H 158.351 -3.60339 1.44144 0
M  V30 1645 H 156.452 -3.58246 -1.02423 0
M  V30 1646 H 156.565 -4.77095 0.437892 0
M  V30 1647 H 154.929 -2.54335 0.136267 0
M  V30 1648 H 155.712 -2.94887 1.75774 0
M  V30 1649 N 158.157 -0.370918 -1.53173 0
M  V30 1650 C 159.403 0.217423 -2.01631 0
M  V30 1651 C 159.736 1.47983 -1.25756 0
M  V30 1652 O 159.011 1.91274 -0.352764 0
M  V30 1653 C 159.294 0.503982 -3.56556 0
M  V30 1654 C 159.147 -0.77243 -4.43118 0
M  V30 1655 C 160.466 1.30234 -4.20389 0
M  V30 1656 H 157.585 0.0775486 -0.732909 0
M  V30 1657 H 160.227 -0.496863 -1.83388 0
M  V30 1658 H 158.377 1.11248 -3.72231 0
M  V30 1659 H 160.049 -1.4098 -4.39229 0
M  V30 1660 H 158.292 -1.39167 -4.10871 0
M  V30 1661 H 158.963 -0.526815 -5.4948 0
M  V30 1662 H 161.439 0.787546 -4.08579 0
M  V30 1663 H 160.315 1.47158 -5.28806 0
M  V30 1664 H 160.576 2.31237 -3.76805 0
M  V30 1665 N 159.635 1.57281 -0.100228 0
M  V30 1666 C 160.882 1.94537 0.562268 0
M  V30 1667 C 161.21 0.982315 1.67871 0
M  V30 1668 O 160.465 0.00280936 1.957 0
M  V30 1669 C 160.764 3.38305 1.15259 0
M  V30 1670 C 160.43 4.50618 0.159409 0
M  V30 1671 C 159.092 4.81066 -0.113741 0
M  V30 1672 C 161.444 5.18615 -0.518461 0
M  V30 1673 C 158.772 5.76835 -1.07137 0
M  V30 1674 C 161.124 6.15412 -1.46459 0
M  V30 1675 C 159.788 6.44262 -1.74592 0
M  V30 1676 H 159.058 0.711863 0.205748 0
M  V30 1677 H 161.705 1.90679 -0.17715 0
M  V30 1678 H 160.01 3.38766 1.96836 0
M  V30 1679 H 161.707 3.64435 1.67297 0
M  V30 1680 H 158.297 4.2689 0.382491 0
M  V30 1681 H 162.481 4.95264 -0.320581 0
M  V30 1682 H 157.737 5.975 -1.29628 0
M  V30 1683 H 161.911 6.67194 -1.99564 0
M  V30 1684 H 159.538 7.1828 -2.48953 0
M  V30 1685 N 161.113 -0.173488 1.56642 0
M  V30 1686 C 162.359 -0.891784 1.8214 0
M  V30 1687 C 162.692 -1.8199 0.677736 0
M  V30 1688 O 161.967 -1.91842 -0.320446 0
M  V30 1689 C 162.25 -1.68933 3.18015 0
M  V30 1690 C 162.103 -0.784487 4.42906 0
M  V30 1691 C 163.422 -2.65748 3.50808 0
M  V30 1692 H 160.541 -0.322761 0.662567 0
M  V30 1693 H 163.183 -0.158095 1.89341 0
M  V30 1694 H 161.333 -2.31482 3.12007 0
M  V30 1695 H 163.005 -0.172046 4.60979 0
M  V30 1696 H 161.248 -0.0924117 4.33702 0
M  V30 1697 H 161.919 -1.37799 5.34524 0
M  V30 1698 H 164.395 -2.13327 3.57255 0
M  V30 1699 H 163.271 -3.18619 4.4696 0
M  V30 1700 H 163.532 -3.45842 2.75401 0
M  V30 1701 N 162.591 -1.51276 -0.441967 0
M  V30 1702 C 163.838 -1.63715 -1.19179 0
M  V30 1703 C 164.166 -0.351175 -1.91303 0
M  V30 1704 O 163.421 0.664524 -1.84072 0
M  V30 1705 C 163.72 -2.78746 -2.23686 0
M  V30 1706 C 163.386 -4.18189 -1.68607 0
M  V30 1707 C 162.048 -4.56125 -1.53308 0
M  V30 1708 C 164.4 -5.05222 -1.28062 0
M  V30 1709 C 161.728 -5.78804 -0.959317 0
M  V30 1710 C 164.08 -6.28476 -0.721162 0
M  V30 1711 C 162.744 -6.65188 -0.55504 0
M  V30 1712 H 162.014 -0.599076 -0.436106 0
M  V30 1713 H 164.661 -1.85296 -0.48351 0
M  V30 1714 H 162.966 -2.51369 -3.00535 0
M  V30 1715 H 164.663 -2.8557 -2.81515 0
M  V30 1716 H 161.253 -3.88277 -1.8149 0
M  V30 1717 H 165.437 -4.76524 -1.38704 0
M  V30 1718 H 160.693 -6.05899 -0.81833 0
M  V30 1719 H 164.867 -6.95259 -0.398458 0
M  V30 1720 H 162.494 -7.60123 -0.108311 0
M  V30 1721 N 164.069 0.697108 -1.41344 0
M  V30 1722 C 164.999 1.82353 -1.45841 0
M  V30 1723 C 165.98 1.67115 -0.317247 0
M  V30 1724 O 167.165 1.86871 -0.528474 0
M  V30 1725 C 164.295 3.20476 -1.33838 0
M  V30 1726 C 163.249 3.50415 -2.4575 0
M  V30 1727 C 162.575 4.87878 -2.18813 0
M  V30 1728 C 163.875 3.49546 -3.88091 0
M  V30 1729 H 165.569 1.78846 -2.40113 0
M  V30 1730 H 163.115 0.859028 -1.15571 0
M  V30 1731 H 165.068 3.98988 -1.35596 0
M  V30 1732 H 163.792 3.24604 -0.360498 0
M  V30 1733 H 162.451 2.74253 -2.43271 0
M  V30 1734 H 162.099 4.8863 -1.19371 0
M  V30 1735 H 161.799 5.08875 -2.93803 0
M  V30 1736 H 163.323 5.68702 -2.22284 0
M  V30 1737 H 164.737 4.18066 -3.92293 0
M  V30 1738 H 163.134 3.82075 -4.62751 0
M  V30 1739 H 164.204 2.48552 -4.16353 0
M  V30 1740 N 165.547 1.27147 0.931209 0
M  V30 1741 C 166.772 1.16191 1.71797 0
M  V30 1742 C 167.197 -0.278004 1.86034 0
M  V30 1743 O 166.555 -1.20137 1.35782 0
M  V30 1744 C 166.603 1.84673 3.09723 0
M  V30 1745 O 165.707 1.14231 3.96264 0
M  V30 1746 H 165.048 0.404303 0.526721 0
M  V30 1747 H 167.578 1.68152 1.1656 0
M  V30 1748 H 167.588 1.91893 3.60057 0
M  V30 1749 H 166.263 2.89421 2.98677 0
M  V30 1750 H 164.84 1.15056 3.54706 0
M  V30 1751 N 167.025 -1.13721 1.09112 0
M  V30 1752 C 168.253 -1.88773 0.846899 0
M  V30 1753 C 168.668 -1.7896 -0.601572 0
M  V30 1754 O 168.025 -1.15394 -1.41388 0
M  V30 1755 C 168.076 -3.3849 1.26913 0
M  V30 1756 O 167.797 -3.48043 2.66079 0
M  V30 1757 C 169.298 -4.30518 1.05682 0
M  V30 1758 H 166.518 -0.59772 0.304914 0
M  V30 1759 H 169.062 -1.43977 1.45227 0
M  V30 1760 H 167.217 -3.80881 0.707723 0
M  V30 1761 H 167.631 -4.4109 2.83795 0
M  V30 1762 H 169.105 -5.3391 1.40156 0
M  V30 1763 H 169.582 -4.392 -0.00563416 0
M  V30 1764 H 170.188 -3.93893 1.60402 0
M  V30 1765 N 168.503 -0.877838 -1.30888 0
M  V30 1766 C 169.731 -0.507414 -2.00581 0
M  V30 1767 C 170.146 0.902216 -1.65848 0
M  V30 1768 O 169.503 1.59225 -0.891831 0
M  V30 1769 C 169.554 -0.664162 -3.55347 0
M  V30 1770 O 169.275 -2.01829 -3.8884 0
M  V30 1771 C 170.776 -0.295787 -4.42312 0
M  V30 1772 H 167.996 -0.196866 -0.641471 0
M  V30 1773 H 170.54 -1.18117 -1.66939 0
M  V30 1774 H 168.695 -0.0378619 -3.87381 0
M  V30 1775 H 169.109 -2.03174 -4.8355 0
M  V30 1776 H 170.583 -0.456388 -5.5011 0
M  V30 1777 H 171.06 0.765663 -4.32475 0
M  V30 1778 H 171.666 -0.898113 -4.15709 0
M  V30 1779 N 169.982 1.44106 -0.638065 0
M  V30 1780 C 171.231 2.01194 -0.142744 0
M  V30 1781 C 171.544 1.50835 1.24532 0
M  V30 1782 O 172.75 2.00096 1.83504 0
M  V30 1783 C 171.206 3.59319 -0.20442 0
M  V30 1784 C 170.814 4.18674 -1.59423 0
M  V30 1785 C 172.558 4.23854 0.234079 0
M  V30 1786 C 170.465 5.69045 -1.61065 0
M  V30 1787 H 169.395 0.752367 -0.0495998 0
M  V30 1788 H 172.046 1.65246 -0.797881 0
M  V30 1789 H 170.428 3.92598 0.517946 0
M  V30 1790 H 171.602 3.96921 -2.34074 0
M  V30 1791 H 169.917 3.66453 -1.97741 0
M  V30 1792 H 172.514 5.34155 0.241443 0
M  V30 1793 H 172.857 3.96688 1.2627 0
M  V30 1794 H 173.39 3.95403 -0.436025 0
M  V30 1795 H 170.129 6.00956 -2.61787 0
M  V30 1796 H 169.649 5.929 -0.90718 0
M  V30 1797 H 171.328 6.32809 -1.34766 0
M  V30 1798 N 171.46 0.379036 1.52974 0
M  V30 1799 C 172.876 0.0285448 1.59574 0
M  V30 1800 C 173.076 -1.45542 1.39355 0
M  V30 1801 O 172.132 -2.2187 1.20541 0
M  V30 1802 C 173.445 0.496535 2.96572 0
M  V30 1803 C 174.993 0.451909 3.0972 0
M  V30 1804 C 175.468 0.895924 4.49152 0
M  V30 1805 N 176.959 0.851522 4.55306 0
M  V30 1806 C 177.694 1.16661 5.61407 0
M  V30 1807 N 177.19 1.55166 6.752 0
M  V30 1808 N 178.983 1.08853 5.51459 0
M  V30 1809 H 171.134 1.34525 1.64367 0
M  V30 1810 H 173.397 0.550733 0.771619 0
M  V30 1811 H 173.103 1.53258 3.16552 0
M  V30 1812 H 172.977 -0.109802 3.7704 0
M  V30 1813 H 175.364 -0.575029 2.89443 0
M  V30 1814 H 175.445 1.09392 2.3123 0
M  V30 1815 H 175.089 1.92104 4.70168 0
M  V30 1816 H 175.019 0.23103 5.26093 0
M  V30 1817 H 177.51 0.568038 3.73606 0
M  V30 1818 H 177.823 1.776 7.52116 0
M  V30 1819 H 176.168 1.59044 6.76557 0
M  V30 1820 H 179.359 0.786803 4.6144 0
M  V30 1821 H 179.532 1.33742 6.34048 0
M  V30 1822 N 172.938 -1.57226 0.108567 0
M  V30 1823 C 174.168 -1.9889 -0.559142 0
M  V30 1824 C 174.576 -0.986889 -1.61422 0
M  V30 1825 O 173.919 0.0298705 -1.83676 0
M  V30 1826 C 173.981 -3.36952 -1.25315 0
M  V30 1827 C 173.645 -4.55679 -0.347248 0
M  V30 1828 C 174.642 -5.18281 0.409996 0
M  V30 1829 C 172.327 -5.0162 -0.261367 0
M  V30 1830 C 174.321 -6.25203 1.24096 0
M  V30 1831 C 172.008 -6.08405 0.573238 0
M  V30 1832 C 173.006 -6.70063 1.32304 0
M  V30 1833 O 172.694 -7.74788 2.14381 0
M  V30 1834 H 172.426 -0.658343 -0.153492 0
M  V30 1835 H 174.98 -2.04532 0.188584 0
M  V30 1836 H 173.21 -3.28032 -2.04773 0
M  V30 1837 H 174.899 -3.62974 -1.81673 0
M  V30 1838 H 175.665 -4.8371 0.353457 0
M  V30 1839 H 171.544 -4.53381 -0.834656 0
M  V30 1840 H 175.088 -6.73259 1.82669 0
M  V30 1841 H 170.985 -6.42406 0.631208 0
M  V30 1842 H 171.753 -7.91837 2.07209 0
M  V30 1843 N 174.416 0.165178 -1.56732 0
M  V30 1844 C 175.646 0.894919 -1.86212 0
M  V30 1845 C 176.054 1.76066 -0.692627 0
M  V30 1846 O 175.397 1.80387 0.347303 0
M  V30 1847 C 175.459 1.8174 -3.10179 0
M  V30 1848 C 175.123 1.13064 -4.42793 0
M  V30 1849 C 176.12 0.493169 -5.17556 0
M  V30 1850 C 173.805 1.12556 -4.89527 0
M  V30 1851 C 175.799 -0.140209 -6.37246 0
M  V30 1852 C 173.486 0.488366 -6.09145 0
M  V30 1853 C 174.484 -0.143411 -6.82849 0
M  V30 1854 O 174.172 -0.77055 -8.00199 0
M  V30 1855 H 173.904 0.265114 -0.621844 0
M  V30 1856 H 176.458 0.168242 -2.0471 0
M  V30 1857 H 174.688 2.58455 -2.87642 0
M  V30 1858 H 176.377 2.4175 -3.26055 0
M  V30 1859 H 177.143 0.489023 -4.82528 0
M  V30 1860 H 173.022 1.60672 -4.32094 0
M  V30 1861 H 176.566 -0.633932 -6.94714 0
M  V30 1862 H 172.463 0.490116 -6.43637 0
M  V30 1863 H 173.231 -0.670408 -8.1575 0
M  V30 1864 N 175.894 1.51508 0.433938 0
M  V30 1865 C 177.305 1.56784 1.01369 0
M  V30 1866 C 177.656 0.393349 1.92217 0
M  V30 1867 O 176.781 -0.489441 2.10792 0
M  V30 1868 C 177.376 2.84144 1.8452 0
M  V30 1869 C 175.935 2.9198 2.37539 0
M  V30 1870 C 175.082 2.51482 1.16843 0
M  V30 1871 H 178.033 1.57236 0.215081 0
M  V30 1872 H 178.054 2.68098 2.70007 0
M  V30 1873 H 177.566 3.69607 1.18373 0
M  V30 1874 H 175.667 2.10955 3.0713 0
M  V30 1875 H 175.78 3.95704 2.70103 0
M  V30 1876 H 174.144 2.04758 1.51481 0
M  V30 1877 H 174.927 3.39293 0.523015 0
M  V30 1878 N 177.372 -0.689602 1.41712 0
M  V30 1879 C 178.597 -1.48329 1.44959 0
M  V30 1880 C 179.022 -1.8801 0.0581283 0
M  V30 1881 O 178.38 -1.55026 -0.940035 0
M  V30 1882 C 178.428 -2.71835 2.36935 0
M  V30 1883 O 177.532 -3.69549 1.8305 0
M  V30 1884 H 176.873 -0.446199 0.491734 0
M  V30 1885 H 179.403 -0.847127 1.86239 0
M  V30 1886 H 179.413 -3.20076 2.53013 0
M  V30 1887 H 178.088 -2.42291 3.38035 0
M  V30 1888 H 176.665 -3.2851 1.76452 0
M  V30 1889 N 178.85 -1.27639 -0.924453 0
M  V30 1890 C 179.782 -1.06442 -2.02985 0
M  V30 1891 C 180.795 -0.0194771 -1.62788 0
M  V30 1892 O 181.984 -0.261388 -1.76576 0
M  V30 1893 C 179.084 -0.59327 -3.33667 0
M  V30 1894 C 178.257 -1.71123 -4.02537 0
M  V30 1895 C 177.316 -1.23527 -5.11495 0
M  V30 1896 O 176.342 -1.93553 -5.35281 0
M  V30 1897 N 177.544 -0.0926678 -5.80426 0
M  V30 1898 H 180.309 -2.01633 -2.2173 0
M  V30 1899 H 177.87 -1.19248 -1.09505 0
M  V30 1900 H 179.862 -0.258686 -4.03872 0
M  V30 1901 H 178.432 0.265502 -3.1147 0
M  V30 1902 H 177.652 -2.21593 -3.26022 0
M  V30 1903 H 178.94 -2.46145 -4.45298 0
M  V30 1904 H 178.338 0.491741 -5.63559 0
M  V30 1905 H 176.895 0.182714 -6.51544 0
M  V30 1906 N 180.328 1.1314 -1.09713 0
M  V30 1907 C 181.291 2.16831 -0.742751 0
M  V30 1908 C 182.291 1.59159 0.229129 0
M  V30 1909 O 183.481 1.74199 0.00693237 0
M  V30 1910 C 180.613 3.40756 -0.0989168 0
M  V30 1911 H 181.806 2.49695 -1.66109 0
M  V30 1912 H 179.359 1.2802 -0.896699 0
M  V30 1913 H 180.094 3.13485 0.830514 0
M  V30 1914 H 179.879 3.83888 -0.798265 0
M  V30 1915 H 181.369 4.17386 0.133524 0
M  V30 1916 N 181.806 0.884767 1.30421 0
M  V30 1917 C 183.054 0.502112 1.95763 0
M  V30 1918 C 183.375 -0.951815 1.70192 0
M  V30 1919 O 182.645 -1.6692 1.0254 0
M  V30 1920 H 181.225 0.182694 0.724315 0
M  V30 1921 H 183.887 1.1278 1.58955 0
M  V30 1922 H 182.983 0.672188 3.04775 0
M  V30 1923 N 183.284 -1.43765 0.645699 0
M  V30 1924 C 184.509 -2.06767 0.161883 0
M  V30 1925 C 184.934 -1.48034 -1.16049 0
M  V30 1926 O 184.292 -0.587369 -1.71522 0
M  V30 1927 C 184.34 -3.60519 0.0762003 0
M  V30 1928 O 183.444 -4.00982 -0.963721 0
M  V30 1929 H 182.785 -0.657675 0.091429 0
M  V30 1930 H 185.315 -1.84397 0.886499 0
M  V30 1931 H 185.325 -4.07853 -0.109604 0
M  V30 1932 H 184 -4.02646 1.04157 0
M  V30 1933 H 182.577 -3.65253 -0.751312 0
M  V30 1934 N 184.763 -0.387143 -1.52771 0
M  V30 1935 C 185.673 0.456442 -2.30117 0
M  V30 1936 C 186.689 1.07342 -1.36944 0
M  V30 1937 O 187.865 1.07971 -1.70013 0
M  V30 1938 C 184.93 1.56957 -3.09136 0
M  V30 1939 C 183.991 0.977916 -4.18014 0
M  V30 1940 C 183.224 2.038 -4.93256 0
M  V30 1941 O 183.447 3.25271 -4.68567 0
M  V30 1942 O 182.381 1.6565 -5.78657 0
M  V30 1943 H 186.207 -0.17359 -3.03203 0
M  V30 1944 H 183.792 -0.150919 -1.48636 0
M  V30 1945 H 185.674 2.21628 -3.58412 0
M  V30 1946 H 184.349 2.18461 -2.38865 0
M  V30 1947 H 183.256 0.294525 -3.72939 0
M  V30 1948 H 184.589 0.407128 -4.90513 0
M  V30 1949 N 186.241 1.57166 -0.116904 0
M  V30 1950 C 187.151 2.18745 0.847812 0
M  V30 1951 C 188.167 1.163 1.29423 0
M  V30 1952 O 189.343 1.48761 1.35765 0
M  V30 1953 C 186.408 2.77307 2.0809 0
M  V30 1954 C 185.469 3.94781 1.68661 0
M  V30 1955 C 184.702 4.50541 2.86091 0
M  V30 1956 O 184.925 4.05202 4.01456 0
M  V30 1957 O 183.859 5.41256 2.63298 0
M  V30 1958 H 187.685 3.01632 0.353778 0
M  V30 1959 H 185.27 1.49005 0.108599 0
M  V30 1960 H 187.152 3.14647 2.80313 0
M  V30 1961 H 185.827 1.97452 2.56504 0
M  V30 1962 H 184.734 3.62214 0.935518 0
M  V30 1963 H 186.067 4.76065 1.24991 0
M  V30 1964 N 187.719 -0.156864 1.56817 0
M  V30 1965 C 189.13 -0.717916 1.72345 0
M  V30 1966 C 189.481 -1.82124 0.729747 0
M  V30 1967 O 188.606 -2.16141 -0.105781 0
M  V30 1968 C 189.201 -1.30904 3.12489 0
M  V30 1969 C 187.76 -1.81676 3.29653 0
M  V30 1970 C 186.907 -0.701349 2.68284 0
M  V30 1971 H 189.858 0.0686989 1.58551 0
M  V30 1972 H 189.879 -2.17882 3.11942 0
M  V30 1973 H 189.391 -0.505796 3.8479 0
M  V30 1974 H 187.492 -2.64598 2.62333 0
M  V30 1975 H 187.605 -1.95226 4.3752 0
M  V30 1976 H 185.969 -1.12548 2.28484 0
M  V30 1977 H 186.752 0.0902846 3.43181 0
M  V30 1978 N 189.197 -1.51736 -0.425897 0
M  V30 1979 C 190.422 -1.69082 -1.20108 0
M  V30 1980 C 190.847 -0.392398 -1.83962 0
M  V30 1981 O 190.205 0.64858 -1.69302 0
M  V30 1982 C 190.253 -2.81604 -2.25237 0
M  V30 1983 O 189.357 -2.46004 -3.30992 0
M  V30 1984 H 188.698 -0.563408 -0.35138 0
M  V30 1985 H 191.228 -1.98358 -0.501512 0
M  V30 1986 H 191.238 -3.06025 -2.69838 0
M  V30 1987 H 189.913 -3.75817 -1.78142 0
M  V30 1988 H 188.49 -2.32195 -2.91787 0
M  V30 1989 N 190.675 0.682077 -1.42076 0
M  V30 1990 C 191.922 1.44215 -1.42156 0
M  V30 1991 C 192.25 1.94468 -0.0354186 0
M  V30 1992 O 191.505 1.70816 0.955002 0
M  V30 1993 C 191.804 2.66036 -2.38662 0
M  V30 1994 C 191.47 2.34366 -3.85206 0
M  V30 1995 C 190.132 2.25439 -4.25124 0
M  V30 1996 C 192.484 2.08513 -4.77673 0
M  V30 1997 C 189.812 1.88775 -5.55501 0
M  V30 1998 C 192.164 1.73354 -6.08384 0
M  V30 1999 C 190.828 1.62933 -6.47309 0
M  V30 2000 H 190.098 0.527718 -0.520187 0
M  V30 2001 H 192.745 0.778387 -1.74967 0
M  V30 2002 H 191.05 3.3741 -1.99152 0
M  V30 2003 H 192.747 3.24205 -2.35991 0
M  V30 2004 H 189.337 2.42213 -3.53597 0
M  V30 2005 H 193.521 2.14346 -4.47626 0
M  V30 2006 H 188.777 1.7927 -5.84527 0
M  V30 2007 H 192.951 1.52373 -6.79526 0
M  V30 2008 H 190.578 1.34292 -7.48244 0
M  V30 2009 N 192.153 1.28127 0.917671 0
M  V30 2010 C 193.103 1.08361 2.00604 0
M  V30 2011 C 194.087 0.00847518 1.60898 0
M  V30 2012 O 195.279 0.228167 1.75523 0
M  V30 2013 C 192.408 0.743376 3.35155 0
M  V30 2014 C 191.494 1.85716 3.81275 0
M  V30 2015 N 191.885 3.09822 3.99805 0
M  V30 2016 C 190.183 1.74612 4.10398 0
M  V30 2017 C 190.884 3.82368 4.38372 0
M  V30 2018 N 189.86 3.10192 4.4641 0
M  V30 2019 H 193.662 2.02531 2.12975 0
M  V30 2020 H 191.176 1.18989 1.10523 0
M  V30 2021 H 193.173 0.582859 4.12805 0
M  V30 2022 H 191.833 -0.190595 3.2414 0
M  V30 2023 H 192.844 3.45475 3.85833 0
M  V30 2024 H 189.521 0.883657 4.08041 0
M  V30 2025 H 190.911 4.89082 4.60704 0
M  V30 2026 N 193.631 -1.12557 1.10312 0
M  V30 2027 C 194.861 -1.87592 0.865617 0
M  V30 2028 C 195.269 -1.79851 -0.587389 0
M  V30 2029 O 194.612 -1.16949 -1.41664 0
M  V30 2030 C 194.674 -3.37665 1.23381 0
M  V30 2031 C 194.338 -3.69181 2.69359 0
M  V30 2032 C 195.335 -3.67652 3.67597 0
M  V30 2033 C 193.02 -3.98555 3.05711 0
M  V30 2034 C 195.014 -3.95053 5.00212 0
M  V30 2035 C 192.701 -4.25616 4.38514 0
M  V30 2036 C 193.699 -4.23851 5.35574 0
M  V30 2037 O 193.387 -4.50242 6.65986 0
M  V30 2038 H 193.119 -0.600442 0.310557 0
M  V30 2039 H 195.673 -1.4335 1.47105 0
M  V30 2040 H 193.903 -3.82454 0.571467 0
M  V30 2041 H 195.592 -3.94041 0.973994 0
M  V30 2042 H 196.358 -3.45024 3.40857 0
M  V30 2043 H 192.237 -3.99071 2.30789 0
M  V30 2044 H 195.781 -3.93591 5.75962 0
M  V30 2045 H 191.678 -4.47718 4.64994 0
M  V30 2046 H 192.446 -4.67867 6.71597 0
M  V30 2047 N 195.109 -0.891671 -1.2995 0
M  V30 2048 C 196.039 -0.379797 -2.30391 0
M  V30 2049 C 197.02 0.540919 -1.6127 0
M  V30 2050 O 198.205 0.453352 -1.88834 0
M  V30 2051 C 195.335 0.400654 -3.44981 0
M  V30 2052 C 194.289 -0.428905 -4.25846 0
M  V30 2053 C 193.615 0.478557 -5.32554 0
M  V30 2054 C 194.915 -1.67458 -4.94727 0
M  V30 2055 H 196.609 -1.21914 -2.73454 0
M  V30 2056 H 194.155 -0.587675 -1.31462 0
M  V30 2057 H 196.108 0.769434 -4.14316 0
M  V30 2058 H 194.832 1.27371 -3.0074 0
M  V30 2059 H 193.491 -0.779911 -3.58208 0
M  V30 2060 H 193.139 1.34951 -4.84559 0
M  V30 2061 H 192.839 -0.0727433 -5.87555 0
M  V30 2062 H 194.363 0.843705 -6.04743 0
M  V30 2063 H 195.777 -1.376 -5.56542 0
M  V30 2064 H 194.174 -2.16659 -5.59624 0
M  V30 2065 H 195.244 -2.41518 -4.20473 0
M  V30 2066 N 196.587 1.43421 -0.653314 0
M  V30 2067 C 197.815 2.06163 -0.174491 0
M  V30 2068 C 198.23 1.48969 1.1599 0
M  V30 2069 O 197.587 0.621042 1.71608 0
M  V30 2070 C 197.638 3.61417 -0.0774865 0
M  V30 2071 O 197.359 4.16485 -1.35912 0
M  V30 2072 C 198.86 4.41235 0.427402 0
M  V30 2073 H 196.08 0.664946 -0.0899353 0
M  V30 2074 H 198.624 1.83924 -0.893988 0
M  V30 2075 H 196.779 3.82841 0.59257 0
M  V30 2076 H 197.193 5.10153 -1.21839 0
M  V30 2077 H 198.667 5.5021 0.44423 0
M  V30 2078 H 199.144 4.14268 1.45873 0
M  V30 2079 H 199.75 4.2478 -0.210167 0
M  V30 2080 N 198.065 0.39524 1.52563 0
M  V30 2081 C 199.476 -0.0774719 1.86539 0
M  V30 2082 C 199.827 -1.45641 1.31466 0
M  V30 2083 O 198.952 -2.06459 0.648367 0
M  V30 2084 C 199.547 -0.147356 3.38479 0
M  V30 2085 C 198.106 -0.564373 3.72145 0
M  V30 2086 C 197.253 0.269919 2.75983 0
M  V30 2087 H 200.204 0.612876 1.46388 0
M  V30 2088 H 200.225 -0.965343 3.68051 0
M  V30 2089 H 199.737 0.856387 3.78534 0
M  V30 2090 H 197.838 -1.57527 3.37663 0
M  V30 2091 H 197.951 -0.318402 4.78041 0
M  V30 2092 H 196.315 -0.265696 2.5331 0
M  V30 2093 H 197.098 1.27175 3.18875 0
M  V30 2094 N 199.544 -1.57102 0.125237 0
M  V30 2095 C 200.791 -1.95407 -0.531248 0
M  V30 2096 C 201.119 -1.0089 -1.66287 0
M  V30 2097 O 200.374 -0.0339431 -1.95671 0
M  V30 2098 C 200.673 -3.40096 -1.09862 0
M  V30 2099 C 200.339 -4.50815 -0.0876989 0
M  V30 2100 C 199.001 -4.80824 0.19026 0
M  V30 2101 C 201.353 -5.17724 0.600902 0
M  V30 2102 C 198.681 -5.75058 1.163 0
M  V30 2103 C 201.033 -6.13005 1.56231 0
M  V30 2104 C 199.697 -6.41403 1.8482 0
M  V30 2105 H 198.967 -0.715046 -0.194397 0
M  V30 2106 H 201.614 -1.90373 0.207463 0
M  V30 2107 H 199.919 -3.41855 -1.91422 0
M  V30 2108 H 201.616 -3.6705 -1.61478 0
M  V30 2109 H 198.206 -4.27444 -0.314528 0
M  V30 2110 H 202.39 -4.94691 0.399333 0
M  V30 2111 H 197.646 -5.95362 1.39117 0
M  V30 2112 H 201.82 -6.63934 2.10153 0
M  V30 2113 H 199.447 -7.14229 2.60349 0
M  V30 2114 N 201.022 0.148545 -1.56898 0
M  V30 2115 C 201.972 1.1886 -1.94567 0
M  V30 2116 C 202.956 1.3863 -0.816735 0
M  V30 2117 O 204.148 1.40218 -1.08018 0
M  V30 2118 C 201.277 2.52262 -2.32849 0
M  V30 2119 C 200.363 2.36092 -3.52309 0
M  V30 2120 N 200.754 1.89674 -4.6889 0
M  V30 2121 C 199.052 2.66848 -3.57363 0
M  V30 2122 C 199.753 1.86511 -5.50989 0
M  V30 2123 N 198.729 2.29766 -4.92655 0
M  V30 2124 H 202.531 0.821793 -2.82177 0
M  V30 2125 H 200.045 0.356615 -1.58436 0
M  V30 2126 H 202.042 3.27447 -2.58039 0
M  V30 2127 H 200.702 2.89727 -1.46589 0
M  V30 2128 H 201.713 1.59663 -4.92674 0
M  V30 2129 H 198.39 3.08198 -2.81639 0
M  V30 2130 H 199.78 1.52128 -6.54452 0
M  V30 2131 N 202.5 1.5196 0.417844 0
M  V30 2132 C 203.432 1.70895 1.52733 0
M  V30 2133 C 204.445 0.589405 1.51756 0
M  V30 2134 O 205.634 0.864312 1.56179 0
M  V30 2135 C 202.734 1.72627 2.91639 0
M  V30 2136 C 201.907 3.01479 3.16905 0
M  V30 2137 C 200.966 2.95139 4.35637 0
M  V30 2138 O 199.992 3.69059 4.3334 0
M  V30 2139 N 201.194 2.12328 5.40275 0
M  V30 2140 H 203.959 2.66612 1.36888 0
M  V30 2141 H 201.52 1.50089 0.607037 0
M  V30 2142 H 203.512 1.65928 3.6912 0
M  V30 2143 H 202.082 0.844216 3.00985 0
M  V30 2144 H 201.302 3.21895 2.27546 0
M  V30 2145 H 202.59 3.86736 3.30625 0
M  V30 2146 H 201.988 1.51685 5.44985 0
M  V30 2147 H 200.545 2.11494 6.16534 0
M  V30 2148 N 203.978 -0.674533 1.42435 0
M  V30 2149 C 205.255 -1.4305 1.33402 0
M  V30 2150 C 205.635 -2.11081 -0.0284674 0
M  V30 2151 O 204.983 -2.03257 -1.04397 0
M  V30 2152 C 205.193 -2.43272 2.50239 0
M  V30 2153 C 206.541 -3.07907 2.92367 0
M  V30 2154 O 207.565 -2.53599 2.50132 0
M  V30 2155 O 206.424 -4.0632 3.65467 0
M  V30 2156 H 203.518 -0.638076 0.526106 0
M  V30 2157 H 206.064 -0.703235 1.54443 0
M  V30 2158 H 204.836 -1.91803 3.41068 0
M  V30 2159 H 204.459 -3.23479 2.31186 0
M  V30 2160 N 205.456 -1.28612 -0.910864 0
M  V30 2161 C 206.704 -1.15705 -1.65701 0
M  V30 2162 C 207.025 0.29416 -1.92769 0
M  V30 2163 O 206.295 1.20331 -1.54588 0
M  V30 2164 H 204.875 -0.425216 -0.614167 0
M  V30 2165 H 207.537 -1.61381 -1.0928 0
M  V30 2166 H 206.633 -1.6988 -2.61815 0
M  V30 2167 N 206.934 1.1197 -1.10907 0
M  V30 2168 C 208.181 1.83588 -0.854507 0
M  V30 2169 C 208.509 1.84357 0.6199 0
M  V30 2170 O 207.764 1.28809 1.47332 0
M  V30 2171 C 208.063 3.30749 -1.35425 0
M  V30 2172 C 207.729 3.50146 -2.84093 0
M  V30 2173 C 206.391 3.55148 -3.2469 0
M  V30 2174 C 208.743 3.56857 -3.79872 0
M  V30 2175 C 206.071 3.6441 -4.59806 0
M  V30 2176 C 208.423 3.6765 -5.14797 0
M  V30 2177 C 207.087 3.7091 -5.54961 0
M  V30 2178 H 206.357 0.671795 -0.312686 0
M  V30 2179 H 209.004 1.32091 -1.38652 0
M  V30 2180 H 207.309 3.84703 -0.742361 0
M  V30 2181 H 209.006 3.8464 -1.1337 0
M  V30 2182 H 205.596 3.46919 -2.51685 0
M  V30 2183 H 209.78 3.52258 -3.49611 0
M  V30 2184 H 205.036 3.65208 -4.9034 0
M  V30 2185 H 209.21 3.71786 -5.88853 0
M  V30 2186 H 206.837 3.7784 -6.59652 0
M  V30 2187 N 208.412 0.89855 1.29475 0
M  V30 2188 C 209.642 0.538479 1.99459 0
M  V30 2189 C 210.05 -0.880922 1.67441 0
M  V30 2190 O 209.393 -1.59283 0.915127 0
M  V30 2191 C 209.455 0.649564 3.53583 0
M  V30 2192 C 209.119 2.03573 4.09154 0
M  V30 2193 C 210.116 3.00675 4.24135 0
M  V30 2194 C 207.801 2.3448 4.44212 0
M  V30 2195 C 209.795 4.26809 4.73405 0
M  V30 2196 C 207.482 3.60857 4.93179 0
M  V30 2197 C 208.48 4.56836 5.0773 0
M  V30 2198 O 208.168 5.80969 5.55635 0
M  V30 2199 H 207.9 0.205372 0.644048 0
M  V30 2200 H 210.454 1.20958 1.66007 0
M  V30 2201 H 208.684 -0.0785592 3.8662 0
M  V30 2202 H 210.373 0.29881 4.04799 0
M  V30 2203 H 211.139 2.78112 3.97339 0
M  V30 2204 H 207.018 1.60534 4.32145 0
M  V30 2205 H 210.562 5.0173 4.84678 0
M  V30 2206 H 206.459 3.83251 5.19412 0
M  V30 2207 H 207.227 5.83542 5.73952 0
M  V30 2208 N 209.89 -1.43072 0.660911 0
M  V30 2209 C 211.139 -2.00942 0.174735 0
M  V30 2210 C 211.452 -1.52797 -1.22117 0
M  V30 2211 O 212.658 -2.02991 -1.80297 0
M  V30 2212 C 211.114 -3.58948 0.261559 0
M  V30 2213 C 210.722 -4.16085 1.66064 0
M  V30 2214 C 212.466 -4.24173 -0.166617 0
M  V30 2215 C 210.373 -5.6641 1.70098 0
M  V30 2216 H 209.303 -0.751483 0.0615631 0
M  V30 2217 H 211.954 -1.63955 0.824069 0
M  V30 2218 H 210.336 -3.93372 -0.455421 0
M  V30 2219 H 211.51 -3.93147 2.40359 0
M  V30 2220 H 209.825 -3.6326 2.03546 0
M  V30 2221 H 212.422 -5.34471 -0.156433 0
M  V30 2222 H 212.765 -3.98647 -1.19943 0
M  V30 2223 H 213.298 -3.94659 0.498875 0
M  V30 2224 H 210.037 -5.96715 2.71315 0
M  V30 2225 H 209.557 -5.91382 1.00139 0
M  V30 2226 H 211.236 -6.30585 1.44816 0
M  V30 2227 N 211.368 -0.403325 -1.52352 0
M  V30 2228 C 212.616 0.174003 -2.0135 0
M  V30 2229 C 212.937 1.46139 -1.29106 0
M  V30 2230 O 212.207 1.91448 -0.415253 0
M  V30 2231 H 210.787 0.0672911 -0.743963 0
M  V30 2232 H 213.449 -0.538235 -1.87321 0
M  V30 2233 H 212.545 0.374254 -3.09848 0
M  V30 2234 N 212.846 1.57033 -0.133567 0
M  V30 2235 C 214.257 1.82593 0.389464 0
M  V30 2236 C 214.608 1.05156 1.6564 0
M  V30 2237 O 213.733 0.292644 2.14412 0
M  V30 2238 C 214.328 3.31204 0.713377 0
M  V30 2239 C 212.887 3.57393 1.18098 0
M  V30 2240 C 212.034 2.76598 0.197126 0
M  V30 2241 H 214.985 1.54598 -0.358481 0
M  V30 2242 H 215.006 3.46627 1.56939 0
M  V30 2243 H 214.518 3.87537 -0.2089 0
M  V30 2244 H 212.619 3.06433 2.11966 0
M  V30 2245 H 212.732 4.65915 1.11624 0
M  V30 2246 H 211.096 2.45257 0.687088 0
M  V30 2247 H 211.879 3.35697 -0.718504 0
M  V30 2248 N 214.325 -0.140222 1.56975 0
M  V30 2249 C 215.273 -1.19207 1.99731 0
M  V30 2250 C 216.267 -1.44089 0.890777 0
M  V30 2251 O 217.473 -1.44301 1.07597 0
M  V30 2252 H 213.848 -0.40142 0.635898 0
M  V30 2253 H 215.819 -0.804813 2.87342 0
M  V30 2254 C 214.568 -2.51617 2.39967 0
M  V30 2255 H 213.891 -2.33303 3.24669 0
M  V30 2256 H 215.331 -3.23827 2.73701 0
M  V30 2257 C 213.79 -3.12654 1.25496 0
M  V30 2258 O 214.32 -3.97786 0.559371 0
M  V30 2259 N 212.526 -2.72206 1.01746 0
M  V30 2260 H 212.073 -2.03074 1.58489 0
M  V30 2261 H 212.031 -3.13377 0.253461 0
M  V30 2262 N 215.803 -1.52179 -0.40978 0
M  V30 2263 C 216.735 -1.71703 -1.51825 0
M  V30 2264 C 217.748 -0.597445 -1.51441 0
M  V30 2265 O 218.937 -0.872582 -1.55719 0
M  V30 2266 C 216.037 -1.74171 -2.90719 0
M  V30 2267 C 215.21 -3.03156 -3.15302 0
M  V30 2268 C 214.269 -2.97445 -4.34065 0
M  V30 2269 O 213.295 -3.71352 -4.31377 0
M  V30 2270 N 214.497 -2.15191 -5.39141 0
M  V30 2271 H 217.262 -2.67334 -1.35472 0
M  V30 2272 H 214.823 -1.50409 -0.599069 0
M  V30 2273 H 216.815 -1.67884 -3.68235 0
M  V30 2274 H 215.385 -0.860166 -3.00533 0
M  V30 2275 H 214.605 -3.23097 -2.25836 0
M  V30 2276 H 215.893 -3.88484 -3.28569 0
M  V30 2277 H 215.291 -1.54573 -5.44173 0
M  V30 2278 H 213.848 -2.1476 -6.15403 0
M  V30 2279 N 217.281 0.66697 -1.42791 0
M  V30 2280 C 218.558 1.4234 -1.34159 0
M  V30 2281 C 218.938 2.11093 0.0172729 0
M  V30 2282 O 218.286 2.03808 1.03318 0
M  V30 2283 C 218.496 2.41942 -2.51526 0
M  V30 2284 C 219.844 3.06353 -2.93995 0
M  V30 2285 O 220.868 2.52269 -2.51473 0
M  V30 2286 O 219.727 4.04376 -3.67617 0
M  V30 2287 H 216.821 0.635277 -0.529483 0
M  V30 2288 H 219.367 0.695034 -1.54814 0
M  V30 2289 H 218.139 1.89991 -3.42081 0
M  V30 2290 H 217.762 3.22249 -2.32898 0
M  V30 2291 N 218.759 1.29093 0.90403 0
M  V30 2292 C 220.006 1.16813 1.65411 0
M  V30 2293 C 220.334 -0.28128 1.92455 0
M  V30 2294 O 219.589 -1.22006 1.53013 0
M  V30 2295 C 219.888 1.92224 3.01305 0
M  V30 2296 C 219.554 3.41968 2.93885 0
M  V30 2297 C 218.216 3.82807 2.91569 0
M  V30 2298 C 220.568 4.37409 2.83413 0
M  V30 2299 C 217.896 5.1741 2.76594 0
M  V30 2300 C 220.248 5.72097 2.69977 0
M  V30 2301 C 218.912 6.12199 2.66024 0
M  V30 2302 H 218.182 0.42745 0.605283 0
M  V30 2303 H 220.829 1.59981 1.05254 0
M  V30 2304 H 219.134 1.41635 3.65304 0
M  V30 2305 H 220.831 1.80131 3.58265 0
M  V30 2306 H 217.421 3.09504 2.96488 0
M  V30 2307 H 221.605 4.06813 2.84283 0
M  V30 2308 H 216.861 5.47596 2.71935 0
M  V30 2309 H 221.035 6.45704 2.60844 0
M  V30 2310 H 218.662 7.16448 2.54178 0
M  V30 2311 N 220.237 -1.11381 1.11499 0
M  V30 2312 C 221.653 -1.35143 0.849031 0
M  V30 2313 C 221.853 -1.94515 -0.525938 0
M  V30 2314 O 220.909 -2.1785 -1.27662 0
M  V30 2315 C 222.222 -2.28249 1.95762 0
M  V30 2316 C 223.77 -2.41812 1.98736 0
M  V30 2317 C 224.245 -3.3824 3.088 0
M  V30 2318 N 225.736 -3.45803 3.08179 0
M  V30 2319 C 226.471 -4.20358 3.89982 0
M  V30 2320 N 225.967 -4.97884 4.8175 0
M  V30 2321 N 227.76 -4.15877 3.78157 0
M  V30 2322 H 219.911 -0.712062 2.00109 0
M  V30 2323 H 222.174 -0.376025 0.870235 0
M  V30 2324 H 221.88 -1.91817 2.94787 0
M  V30 2325 H 221.754 -3.28473 1.85433 0
M  V30 2326 H 224.141 -2.77518 1.00338 0
M  V30 2327 H 224.222 -1.41437 2.13141 0
M  V30 2328 H 223.866 -3.03261 4.07425 0
M  V30 2329 H 223.796 -4.38471 2.91635 0
M  V30 2330 H 226.287 -2.90506 2.41691 0
M  V30 2331 H 226.6 -5.52142 5.40702 0
M  V30 2332 H 224.945 -4.97043 4.85771 0
M  V30 2333 H 228.136 -3.544 3.05808 0
M  V30 2334 H 228.309 -4.73723 4.42143 0
M  V30 2335 N 221.715 -0.905404 -1.28997 0
M  V30 2336 C 222.943 -0.549846 -1.9946 0
M  V30 2337 C 223.358 0.866834 -1.67724 0
M  V30 2338 O 222.715 1.57298 -0.925404 0
M  V30 2339 C 222.766 -0.739387 -3.53858 0
M  V30 2340 O 222.487 -2.10031 -3.84472 0
M  V30 2341 C 223.988 -0.389541 -4.41585 0
M  V30 2342 H 221.208 -0.210429 -0.637151 0
M  V30 2343 H 223.752 -1.21632 -1.64396 0
M  V30 2344 H 221.907 -0.120023 -3.87214 0
M  V30 2345 H 222.321 -2.13385 -4.79132 0
M  V30 2346 H 223.795 -0.572972 -5.49018 0
M  V30 2347 H 224.272 0.673756 -4.34001 0
M  V30 2348 H 224.878 -0.986089 -4.1371 0
M  V30 2349 N 223.193 1.4272 -0.668489 0
M  V30 2350 C 224.44 2.01624 -0.18814 0
M  V30 2351 C 224.768 1.5282 1.20317 0
M  V30 2352 O 224.023 0.718323 1.8204 0
M  V30 2353 C 224.322 3.57021 -0.164499 0
M  V30 2354 C 223.988 4.25232 -1.49962 0
M  V30 2355 C 222.65 4.4358 -1.8652 0
M  V30 2356 C 225.002 4.63727 -2.37921 0
M  V30 2357 C 222.33 4.97694 -3.10674 0
M  V30 2358 C 224.682 5.19218 -3.6138 0
M  V30 2359 C 223.346 5.3578 -3.98115 0
M  V30 2360 H 222.616 0.737795 -0.0688454 0
M  V30 2361 H 225.263 1.70991 -0.862225 0
M  V30 2362 H 223.568 3.87285 0.593079 0
M  V30 2363 H 225.265 4.00372 0.224271 0
M  V30 2364 H 221.855 4.11306 -1.20522 0
M  V30 2365 H 226.039 4.4923 -2.10964 0
M  V30 2366 H 221.295 5.08702 -3.39164 0
M  V30 2367 H 225.469 5.4799 -4.29743 0
M  V30 2368 H 223.096 5.77475 -4.94395 0
M  V30 2369 N 224.671 0.411399 1.52136 0
M  V30 2370 C 225.917 -0.156262 2.02799 0
M  V30 2371 C 226.272 -1.42613 1.29149 0
M  V30 2372 O 225.565 -1.87592 0.389839 0
M  V30 2373 C 225.759 -0.455872 3.54481 0
M  V30 2374 C 225.588 0.783404 4.42824 0
M  V30 2375 C 224.358 1.30928 4.88043 0
M  V30 2376 C 226.556 1.66217 4.86699 0
M  V30 2377 N 224.538 2.5038 5.6052 0
M  V30 2378 C 225.909 2.70292 5.5798 0
M  V30 2379 C 227.964 1.67966 4.68713 0
M  V30 2380 C 226.667 3.7603 6.13184 0
M  V30 2381 C 228.693 2.72624 5.24815 0
M  V30 2382 C 228.055 3.7542 5.9602 0
M  V30 2383 H 224.154 -0.0186886 0.781777 0
M  V30 2384 H 226.738 0.566255 1.86284 0
M  V30 2385 H 224.909 -1.14743 3.71064 0
M  V30 2386 H 226.641 -1.01261 3.91827 0
M  V30 2387 H 223.396 0.866977 4.65597 0
M  V30 2388 H 223.82 3.10881 6.014 0
M  V30 2389 H 228.462 0.898312 4.13147 0
M  V30 2390 H 226.18 4.55019 6.6782 0
M  V30 2391 H 229.766 2.74887 5.12765 0
M  V30 2392 H 228.646 4.55073 6.38654 0
M  V30 2393 N 226.149 -1.5696 0.141893 0
M  V30 2394 C 227.398 -1.95135 -0.510427 0
M  V30 2395 C 227.711 -1.02896 -1.66348 0
M  V30 2396 O 228.917 -1.30629 -2.38009 0
M  V30 2397 C 227.373 -3.46876 -0.959427 0
M  V30 2398 C 226.981 -4.47691 0.166419 0
M  V30 2399 C 228.725 -3.93927 -1.58183 0
M  V30 2400 C 226.632 -5.90636 -0.300565 0
M  V30 2401 H 225.562 -0.728494 -0.194454 0
M  V30 2402 H 228.213 -1.8211 0.22542 0
M  V30 2403 H 226.595 -3.55215 -1.75038 0
M  V30 2404 H 227.769 -4.51043 0.94325 0
M  V30 2405 H 226.084 -4.10527 0.696905 0
M  V30 2406 H 228.681 -4.98158 -1.94275 0
M  V30 2407 H 229.024 -3.3519 -2.46888 0
M  V30 2408 H 229.557 -3.88484 -0.855863 0
M  V30 2409 H 226.296 -6.5318 0.550989 0
M  V30 2410 H 225.816 -5.90655 -1.04338 0
M  V30 2411 H 227.495 -6.42588 -0.754265 0
M  V30 2412 N 227.627 0.131896 -1.57047 0
M  V30 2413 C 229.038 0.690407 -1.73465 0
M  V30 2414 C 229.389 1.8094 -0.758629 0
M  V30 2415 O 228.514 2.16282 0.0713813 0
M  V30 2416 C 229.109 1.25916 -3.14532 0
M  V30 2417 C 227.668 1.76409 -3.32501 0
M  V30 2418 C 226.815 0.658579 -2.69366 0
M  V30 2419 H 229.766 -0.0939144 -1.58422 0
M  V30 2420 H 229.787 2.12892 -3.15369 0
M  V30 2421 H 229.299 0.444515 -3.85546 0
M  V30 2422 H 227.4 2.60391 -2.66509 0
M  V30 2423 H 227.513 1.88241 -4.4057 0
M  V30 2424 H 225.877 1.08899 -2.30246 0
M  V30 2425 H 226.66 -0.14487 -3.42994 0
M  V30 2426 N 229.106 1.52395 0.401703 0
M  V30 2427 C 230.036 1.79231 1.49661 0
M  V30 2428 C 231.017 0.643654 1.57452 0
M  V30 2429 O 232.202 0.889989 1.72606 0
M  V30 2430 C 229.332 1.94971 2.87409 0
M  V30 2431 C 228.286 3.10604 2.94465 0
M  V30 2432 C 227.612 3.11577 4.34538 0
M  V30 2433 C 228.912 4.49921 2.6527 0
M  V30 2434 H 230.606 2.70917 1.27454 0
M  V30 2435 H 228.152 1.30362 0.6117 0
M  V30 2436 H 230.105 2.12328 3.63999 0
M  V30 2437 H 228.829 0.999632 3.10926 0
M  V30 2438 H 227.488 2.93009 2.20321 0
M  V30 2439 H 227.136 2.14277 4.55076 0
M  V30 2440 H 226.836 3.89247 4.40183 0
M  V30 2441 H 228.36 3.31073 5.13053 0
M  V30 2442 H 229.774 4.67683 3.31581 0
M  V30 2443 H 228.171 5.29564 2.82281 0
M  V30 2444 H 229.241 4.57507 1.60671 0
M  V30 2445 N 230.584 -0.659388 1.43143 0
M  V30 2446 C 231.833 -1.41518 1.43721 0
M  V30 2447 C 232.146 -1.95499 0.0628176 0
M  V30 2448 O 233.352 -2.71446 -0.0539683 0
M  V30 2449 C 231.808 -2.5608 2.52885 0
M  V30 2450 C 231.416 -2.08733 3.96402 0
M  V30 2451 C 233.16 -3.3349 2.62649 0
M  V30 2452 C 231.067 -3.20469 4.97045 0
M  V30 2453 H 229.997 -0.531705 0.534608 0
M  V30 2454 H 232.648 -0.712343 1.69109 0
M  V30 2455 H 231.03 -3.28805 2.20688 0
M  V30 2456 H 232.204 -1.43059 4.3803 0
M  V30 2457 H 230.519 -1.44219 3.90627 0
M  V30 2458 H 233.116 -4.16734 3.35017 0
M  V30 2459 H 233.459 -3.8111 1.67513 0
M  V30 2460 H 233.992 -2.67842 2.94118 0
M  V30 2461 H 230.731 -2.77824 5.93712 0
M  V30 2462 H 230.251 -3.84874 4.60034 0
M  V30 2463 H 231.93 -3.85698 5.19467 0
M  V30 2464 N 232.062 -1.29571 -0.897171 0
M  V30 2465 C 233.478 -1.07637 -1.17841 0
M  V30 2466 C 233.678 0.170713 -2.00776 0
M  V30 2467 O 232.734 0.867768 -2.3712 0
M  V30 2468 C 234.047 -2.3332 -1.8969 0
M  V30 2469 C 235.595 -2.38664 -2.02505 0
M  V30 2470 C 236.07 -3.64157 -2.77765 0
M  V30 2471 N 237.561 -3.64894 -2.85318 0
M  V30 2472 C 238.296 -4.58679 -3.44094 0
M  V30 2473 N 237.792 -5.62799 -4.04017 0
M  V30 2474 N 239.585 -4.46245 -3.41793 0
M  V30 2475 H 231.736 -2.09598 -0.343883 0
M  V30 2476 H 233.999 -0.923333 -0.214848 0
M  V30 2477 H 233.705 -3.24262 -1.36187 0
M  V30 2478 H 233.579 -2.41025 -2.9015 0
M  V30 2479 H 235.966 -1.48208 -2.55183 0
M  V30 2480 H 236.047 -2.34943 -1.01171 0
M  V30 2481 H 235.691 -4.54965 -2.25763 0
M  V30 2482 H 235.621 -3.65137 -3.7945 0
M  V30 2483 H 238.112 -2.89613 -2.42761 0
M  V30 2484 H 238.425 -6.3048 -4.46895 0
M  V30 2485 H 236.77 -5.66605 -4.02472 0
M  V30 2486 H 239.961 -3.64094 -2.94199 0
M  V30 2487 H 240.134 -5.19518 -3.87304 0
M  V30 2488 N 233.54 1.10788 -1.12088 0
M  V30 2489 C 234.768 1.86461 -0.896651 0
M  V30 2490 C 235.183 1.80492 0.553912 0
M  V30 2491 O 234.54 1.19102 1.38278 0
M  V30 2492 C 234.591 3.35006 -1.35843 0
M  V30 2493 O 234.312 3.40866 -2.75213 0
M  V30 2494 C 235.813 4.27565 -1.1706 0
M  V30 2495 H 233.033 0.589425 -0.320654 0
M  V30 2496 H 235.577 1.40076 -1.48993 0
M  V30 2497 H 233.732 3.7887 -0.808458 0
M  V30 2498 H 234.146 4.33411 -2.9539 0
M  V30 2499 H 235.62 5.30007 -1.54263 0
M  V30 2500 H 236.097 4.3906 -0.110814 0
M  V30 2501 H 236.703 3.89501 -1.70789 0
M  V30 2502 N 235.018 0.912232 1.28515 0
M  V30 2503 C 236.246 0.560416 1.99166 0
M  V30 2504 C 236.661 -0.857927 1.68182 0
M  V30 2505 O 236.018 -1.56805 0.933733 0
M  V30 2506 C 236.069 0.758142 3.53461 0
M  V30 2507 O 235.79 2.12067 3.83352 0
M  V30 2508 C 237.291 0.412954 4.41372 0
M  V30 2509 H 234.511 0.213805 0.636026 0
M  V30 2510 H 237.055 1.22502 1.63749 0
M  V30 2511 H 235.21 0.140556 3.87145 0
M  V30 2512 H 235.624 2.15923 4.77993 0
M  V30 2513 H 237.098 0.60208 5.48707 0
M  V30 2514 H 237.575 -0.65073 4.34353 0
M  V30 2515 H 238.181 1.00802 4.13182 0
M  V30 2516 N 236.496 -1.42363 0.676048 0
M  V30 2517 C 237.912 -1.55811 0.345718 0
M  V30 2518 C 238.112 -1.65544 -1.14879 0
M  V30 2519 O 237.168 -1.62306 -1.93424 0
M  V30 2520 C 238.481 -2.80746 1.07713 0
M  V30 2521 C 240.029 -2.9452 1.05958 0
M  V30 2522 C 240.504 -4.22318 1.77233 0
M  V30 2523 N 241.995 -4.29233 1.74108 0
M  V30 2524 C 242.73 -5.26935 2.26113 0
M  V30 2525 N 242.226 -6.30783 2.86505 0
M  V30 2526 N 244.019 -5.18741 2.1648 0
M  V30 2527 H 236.17 -1.34289 1.6456 0
M  V30 2528 H 238.433 -0.646506 0.69335 0
M  V30 2529 H 238.139 -2.79696 2.13221 0
M  V30 2530 H 238.013 -3.71676 0.64316 0
M  V30 2531 H 240.4 -2.95097 0.0128255 0
M  V30 2532 H 240.481 -2.04817 1.53244 0
M  V30 2533 H 240.125 -4.22502 2.81877 0
M  V30 2534 H 240.055 -5.10958 1.27396 0
M  V30 2535 H 242.546 -3.54814 1.30059 0
M  V30 2536 H 242.859 -7.01691 3.23805 0
M  V30 2537 H 241.204 -6.31341 2.90575 0
M  V30 2538 H 244.395 -4.36533 1.68987 0
M  V30 2539 H 244.568 -5.94721 2.57316 0
M  V30 2540 N 237.974 -0.419461 -1.51915 0
M  V30 2541 C 238.884 0.407528 -2.31033 0
M  V30 2542 C 239.9 1.04413 -1.3919 0
M  V30 2543 O 241.076 1.0434 -1.72265 0
M  V30 2544 C 238.141 1.50365 -3.12396 0
M  V30 2545 C 237.202 0.889029 -4.19994 0
M  V30 2546 C 236.435 1.93291 -4.97468 0
M  V30 2547 O 236.658 3.15259 -4.75361 0
M  V30 2548 O 235.592 1.53339 -5.8204 0
M  V30 2549 H 239.418 -0.237865 -3.02767 0
M  V30 2550 H 237.003 -0.182413 -1.48282 0
M  V30 2551 H 238.885 2.13975 -3.63032 0
M  V30 2552 H 237.56 2.13345 -2.43445 0
M  V30 2553 H 236.467 0.215353 -3.7348 0
M  V30 2554 H 237.8 0.302991 -4.91267 0
M  V30 2555 N 239.452 1.56882 -0.150215 0
M  V30 2556 C 240.677 2.01027 0.510184 0
M  V30 2557 C 241.102 1.02966 1.57415 0
M  V30 2558 O 240.46 0.00590158 1.81299 0
M  V30 2559 C 240.508 3.43899 1.08472 0
M  V30 2560 O 239.612 3.4885 2.19948 0
M  V30 2561 H 238.953 0.652233 0.124451 0
M  V30 2562 H 241.483 2.03093 -0.247894 0
M  V30 2563 H 241.493 3.82766 1.41259 0
M  V30 2564 H 240.168 4.14776 0.305582 0
M  V30 2565 H 238.745 3.21827 1.88366 0
M  V30 2566 N 240.93 -0.123565 1.57115 0
M  V30 2567 C 242.178 -0.83051 1.84247 0
M  V30 2568 C 242.499 -1.80629 0.73471 0
M  V30 2569 O 241.769 -1.94403 -0.241688 0
M  V30 2570 H 240.349 -0.309694 0.679778 0
M  V30 2571 H 243.011 -0.111976 1.94578 0
M  V30 2572 H 242.107 -1.37852 2.80006 0
M  V30 2573 N 242.408 -1.52605 -0.393616 0
M  V30 2574 C 243.656 -1.67093 -1.13685 0
M  V30 2575 C 243.977 -0.411011 -1.90619 0
M  V30 2576 O 243.247 0.574491 -1.87287 0
M  V30 2577 H 241.827 -0.615923 -0.422668 0
M  V30 2578 H 244.489 -1.89704 -0.447039 0
M  V30 2579 H 243.585 -2.51922 -1.84232 0
M  V30 2580 N 243.887 0.651787 -1.4349 0
M  V30 2581 C 245.133 1.41376 -1.45398 0
M  V30 2582 C 245.466 1.94041 -0.0784823 0
M  V30 2583 O 244.741 1.72379 0.900878 0
M  V30 2584 C 245.024 2.59414 -2.49752 0
M  V30 2585 C 244.877 2.12232 -3.96582 0
M  V30 2586 C 246.196 3.61626 -2.50827 0
M  V30 2587 H 243.315 0.512719 -0.529422 0
M  V30 2588 H 245.957 0.738796 -1.75048 0
M  V30 2589 H 244.107 3.16997 -2.246 0
M  V30 2590 H 245.779 1.59639 -4.32797 0
M  V30 2591 H 244.022 1.43592 -4.09346 0
M  V30 2592 H 244.693 2.9712 -4.65214 0
M  V30 2593 H 247.169 3.13805 -2.7325 0
M  V30 2594 H 246.045 4.41766 -3.25783 0
M  V30 2595 H 246.306 4.14314 -1.5426 0
M  V30 2596 N 245.365 1.30045 0.890287 0
M  V30 2597 C 246.328 1.15963 1.977 0
M  V30 2598 C 247.328 0.0923777 1.60534 0
M  V30 2599 O 248.518 0.340071 1.70848 0
M  V30 2600 C 245.65 0.775451 3.31963 0
M  V30 2601 H 246.843 2.12502 2.11619 0
M  V30 2602 H 244.396 1.13366 1.07601 0
M  V30 2603 H 245.131 -0.189671 3.23745 0
M  V30 2604 H 244.916 1.54668 3.60306 0
M  V30 2605 H 246.406 0.700251 4.11687 0
M  V30 2606 N 246.843 -1.10192 1.12674 0
M  V30 2607 C 247.773 -2.18652 0.819362 0
M  V30 2608 C 248.754 -1.68698 -0.217915 0
M  V30 2609 O 249.939 -1.94041 -0.0785581 0
M  V30 2610 C 247.069 -3.46202 0.27594 0
M  V30 2611 C 246.023 -4.09444 1.24656 0
M  V30 2612 C 245.349 -5.31725 0.563258 0
M  V30 2613 C 246.649 -4.52863 2.60217 0
M  V30 2614 H 248.343 -2.44622 1.72628 0
M  V30 2615 H 245.889 -1.17571 0.831451 0
M  V30 2616 H 247.842 -4.21372 0.0486149 0
M  V30 2617 H 246.566 -3.1973 -0.666331 0
M  V30 2618 H 245.225 -3.36284 1.45974 0
M  V30 2619 H 244.873 -5.0153 -0.384235 0
M  V30 2620 H 244.573 -5.74991 1.21075 0
M  V30 2621 H 246.097 -6.09624 0.34503 0
M  V30 2622 H 247.511 -5.19294 2.42913 0
M  V30 2623 H 245.908 -5.06986 3.21068 0
M  V30 2624 H 246.978 -3.65656 3.18471 0
M  V30 2625 N 248.321 -0.919034 -1.28029 0
M  V30 2626 C 249.284 -0.416182 -2.2539 0
M  V30 2627 C 250.284 0.460438 -1.54067 0
M  V30 2628 O 251.474 0.262744 -1.72207 0
M  V30 2629 C 248.606 0.402707 -3.38513 0
M  V30 2630 H 249.799 -1.27629 -2.71387 0
M  V30 2631 H 247.352 -0.698919 -1.39803 0
M  V30 2632 H 248.087 1.282 -2.97885 0
M  V30 2633 H 247.872 -0.225698 -3.9145 0
M  V30 2634 H 249.362 0.745191 -4.10897 0
M  V30 2635 N 249.799 1.42003 -0.683588 0
M  V30 2636 C 251.076 1.95112 -0.138075 0
M  V30 2637 C 251.456 1.62359 1.34918 0
M  V30 2638 O 250.804 0.924311 2.08971 0
M  V30 2639 C 251.014 3.46505 -0.416581 0
M  V30 2640 C 252.362 4.23254 -0.337834 0
M  V30 2641 O 253.386 3.54468 -0.35082 0
M  V30 2642 O 252.245 5.45743 -0.287596 0
M  V30 2643 H 249.339 0.826961 -0.00797996 0
M  V30 2644 H 251.885 1.51784 -0.758924 0
M  V30 2645 H 250.657 3.63582 -1.4465 0
M  V30 2646 H 250.28 3.969 0.235839 0
M  V30 2647 N 251.277 0.427512 1.51691 0
M  V30 2648 C 252.525 -0.141948 2.01601 0
M  V30 2649 C 252.846 -1.44067 1.31414 0
M  V30 2650 O 252.116 -1.90763 0.445658 0
M  V30 2651 H 250.696 -0.0554468 0.744939 0
M  V30 2652 H 253.358 0.567968 1.86441 0
M  V30 2653 H 252.454 -0.324913 3.10404 0
M  V30 2654 N 252.755 -1.56801 0.158532 0
M  V30 2655 C 253.98 -2.01295 -0.499516 0
M  V30 2656 C 254.405 -1.03799 -1.56867 0
M  V30 2657 O 253.763 -0.0155162 -1.81293 0
M  V30 2658 C 253.811 -3.44469 -1.06647 0
M  V30 2659 O 252.915 -3.50012 -2.18095 0
M  V30 2660 H 252.256 -0.652884 -0.12099 0
M  V30 2661 H 254.786 -2.02958 0.258661 0
M  V30 2662 H 254.796 -3.8351 -1.39227 0
M  V30 2663 H 253.471 -4.14932 -0.283581 0
M  V30 2664 H 252.048 -3.22822 -1.86656 0
M  V30 2665 N 254.233 0.115231 -1.57178 0
M  V30 2666 C 255.183 1.14707 -1.97044 0
M  V30 2667 C 256.167 1.36866 -0.845957 0
M  V30 2668 O 257.359 1.37895 -1.10968 0
M  V30 2669 C 254.488 2.47266 -2.38148 0
M  V30 2670 C 253.574 2.28566 -3.57237 0
M  V30 2671 N 253.965 1.79685 -4.72807 0
M  V30 2672 C 252.263 2.59208 -3.62943 0
M  V30 2673 C 252.964 1.74781 -5.54821 0
M  V30 2674 N 251.94 2.19264 -4.97417 0
M  V30 2675 H 255.742 0.761754 -2.83857 0
M  V30 2676 H 253.256 0.322928 -1.59157 0
M  V30 2677 H 255.253 3.219 -2.64927 0
M  V30 2678 H 253.913 2.86552 -1.52702 0
M  V30 2679 H 254.924 1.49177 -4.9595 0
M  V30 2680 H 251.601 3.02154 -2.88113 0
M  V30 2681 H 252.991 1.38212 -6.57531 0
M  V30 2682 N 255.711 1.52812 0.385517 0
M  V30 2683 C 257.127 1.4214 0.725829 0
M  V30 2684 C 257.327 0.544589 1.94001 0
M  V30 2685 O 256.383 0.0193693 2.52493 0
M  V30 2686 C 257.696 2.85042 0.957668 0
M  V30 2687 C 259.244 2.94543 1.05892 0
M  V30 2688 C 259.719 4.38464 1.32337 0
M  V30 2689 N 261.21 4.41804 1.39151 0
M  V30 2690 C 261.945 5.5025 1.61285 0
M  V30 2691 N 261.441 6.68775 1.80866 0
M  V30 2692 N 263.234 5.37798 1.63492 0
M  V30 2693 H 255.385 2.08338 -0.413383 0
M  V30 2694 H 257.648 0.940016 -0.122775 0
M  V30 2695 H 257.354 3.51431 0.137568 0
M  V30 2696 H 257.228 3.27505 1.87137 0
M  V30 2697 H 259.615 2.28321 1.86959 0
M  V30 2698 H 259.696 2.55504 0.123057 0
M  V30 2699 H 259.34 5.05254 0.517793 0
M  V30 2700 H 259.27 4.75059 2.27214 0
M  V30 2701 H 261.761 3.56377 1.25713 0
M  V30 2702 H 262.074 7.47197 1.97271 0
M  V30 2703 H 260.419 6.71797 1.78083 0
M  V30 2704 H 263.61 4.44171 1.47749 0
M  V30 2705 H 263.783 6.22382 1.80402 0
M  V30 2706 N 257.189 -0.644168 1.43834 0
M  V30 2707 C 258.605 -0.960875 1.27434 0
M  V30 2708 C 258.805 -2.00499 0.200618 0
M  V30 2709 O 257.861 -2.49018 -0.417906 0
M  V30 2710 C 259.174 -1.43653 2.64167 0
M  V30 2711 C 260.722 -1.55271 2.71772 0
M  V30 2712 C 261.197 -2.06224 4.08944 0
M  V30 2713 N 262.688 -2.13513 4.11055 0
M  V30 2714 C 263.423 -2.54081 5.14033 0
M  V30 2715 N 262.919 -2.9388 6.27381 0
M  V30 2716 N 264.712 -2.54101 5.01387 0
M  V30 2717 H 256.863 0.0465779 2.12349 0
M  V30 2718 H 259.126 -0.0417638 0.94708 0
M  V30 2719 H 258.832 -0.743706 3.43747 0
M  V30 2720 H 258.706 -2.40993 2.90176 0
M  V30 2721 H 261.093 -2.23653 1.92519 0
M  V30 2722 H 261.174 -0.563395 2.49519 0
M  V30 2723 H 260.818 -1.38441 4.88668 0
M  V30 2724 H 260.748 -3.06003 4.28567 0
M  V30 2725 H 263.239 -1.85493 3.29242 0
M  V30 2726 H 263.552 -3.2361 7.01781 0
M  V30 2727 H 261.897 -2.91663 6.30839 0
M  V30 2728 H 265.088 -2.22391 4.11898 0
M  V30 2729 H 265.261 -2.85394 5.81768 0
M  V30 2730 N 258.668 -1.30515 -0.883378 0
M  V30 2731 C 259.916 -1.19194 -1.63209 0
M  V30 2732 C 260.237 0.253205 -1.93349 0
M  V30 2733 O 259.507 1.17025 -1.57105 0
M  V30 2734 H 258.087 -0.438148 -0.605009 0
M  V30 2735 H 260.749 -1.63663 -1.05832 0
M  V30 2736 H 259.845 -1.75396 -2.58153 0
M  V30 2737 N 260.146 1.09593 -1.13257 0
M  V30 2738 C 261.093 2.1618 -0.808381 0
M  V30 2739 C 262.063 1.64517 0.228754 0
M  V30 2740 O 263.248 1.9053 0.101381 0
M  V30 2741 C 260.388 3.43973 -0.278675 0
M  V30 2742 C 259.501 4.09545 -1.37466 0
M  V30 2743 C 258.636 5.25088 -0.803479 0
M  V30 2744 C 257.675 5.82579 -1.87799 0
M  V30 2745 N 256.812 6.89486 -1.32488 0
M  V30 2746 H 261.652 2.43254 -1.72138 0
M  V30 2747 H 259.189 1.19392 -0.859294 0
M  V30 2748 H 261.147 4.17174 0.0465583 0
M  V30 2749 H 259.777 3.17223 0.597459 0
M  V30 2750 H 258.829 3.34226 -1.81652 0
M  V30 2751 H 260.141 4.48307 -2.18684 0
M  V30 2752 H 259.295 6.05178 -0.429427 0
M  V30 2753 H 258.034 4.87684 0.0397956 0
M  V30 2754 H 257.039 5.01152 -2.26113 0
M  V30 2755 H 258.264 6.22045 -2.72463 0
M  V30 2756 H 256.21 6.54064 -0.503575 0
M  V30 2757 H 256.127 7.27007 -2.07355 0
M  V30 2758 H 257.395 7.73336 -0.978336 0
M  V30 2759 N 261.624 0.925811 1.2754 0
M  V30 2760 C 263.04 0.625767 1.46821 0
M  V30 2761 C 263.24 -0.825506 1.83814 0
M  V30 2762 O 262.296 -1.60356 1.95044 0
M  V30 2763 C 263.609 1.57402 2.56213 0
M  V30 2764 C 265.157 1.58204 2.70075 0
M  V30 2765 C 265.632 2.51721 3.82623 0
M  V30 2766 N 267.123 2.49917 3.89994 0
M  V30 2767 C 267.858 3.18968 4.76494 0
M  V30 2768 N 267.354 3.97391 5.67496 0
M  V30 2769 N 269.147 3.07996 4.70208 0
M  V30 2770 H 261.298 1.86409 1.01811 0
M  V30 2771 H 263.561 0.800213 0.508295 0
M  V30 2772 H 263.267 2.60925 2.35819 0
M  V30 2773 H 263.141 1.31428 3.53563 0
M  V30 2774 H 265.528 0.554124 2.89851 0
M  V30 2775 H 265.609 1.88226 1.73218 0
M  V30 2776 H 265.253 3.54622 3.63601 0
M  V30 2777 H 265.183 2.18996 4.78903 0
M  V30 2778 H 267.674 1.9296 3.24923 0
M  V30 2779 H 267.987 4.4707 6.30356 0
M  V30 2780 H 266.332 4.01495 5.67298 0
M  V30 2781 H 269.523 2.46223 3.9811 0
M  V30 2782 H 269.696 3.6208 5.37403 0
M  V30 2783 N 263.102 -1.41638 0.69111 0
M  V30 2784 C 264.379 -1.95036 0.148421 0
M  V30 2785 C 264.759 -1.63072 -1.34055 0
M  V30 2786 O 264.107 -0.93538 -2.08478 0
M  V30 2787 C 264.317 -3.46279 0.434951 0
M  V30 2788 C 265.665 -4.23069 0.360275 0
M  V30 2789 O 266.689 -3.54277 0.369613 0
M  V30 2790 O 265.548 -5.45583 0.316534 0
M  V30 2791 H 262.642 -0.826908 0.0123654 0
M  V30 2792 H 265.188 -1.5138 0.766963 0
M  V30 2793 H 263.96 -3.6281 1.46576 0
M  V30 2794 H 263.583 -3.97019 -0.214787 0
M  V30 2795 N 264.58 -0.43555 -1.51462 0
M  V30 2796 C 265.53 0.394701 -2.24558 0
M  V30 2797 C 266.514 0.99157 -1.26715 0
M  V30 2798 O 267.706 0.910007 -1.51815 0
M  V30 2799 C 264.835 1.4963 -3.08975 0
M  V30 2800 C 263.921 0.908912 -4.14246 0
M  V30 2801 N 264.312 0.0505335 -5.05775 0
M  V30 2802 C 262.61 1.17668 -4.30198 0
M  V30 2803 C 263.311 -0.279161 -5.8103 0
M  V30 2804 N 262.287 0.336767 -5.42556 0
M  V30 2805 H 266.089 -0.267106 -2.92684 0
M  V30 2806 H 263.603 -0.247518 -1.60503 0
M  V30 2807 H 265.6 2.10394 -3.59917 0
M  V30 2808 H 264.26 2.16046 -2.42393 0
M  V30 2809 H 265.271 -0.31577 -5.16936 0
M  V30 2810 H 261.948 1.83847 -3.74842 0
M  V30 2811 H 263.338 -0.977553 -6.64751 0
M  V30 2812 N 266.058 1.56714 -0.166846 0
M  V30 2813 C 267.304 1.97039 0.479962 0
M  V30 2814 C 267.637 1.05264 1.63197 0
M  V30 2815 O 266.912 0.0988833 1.94248 0
M  V30 2816 C 267.195 3.46867 0.967212 0
M  V30 2817 C 267.048 4.49421 -0.18466 0
M  V30 2818 C 268.367 3.9968 1.84238 0
M  V30 2819 H 265.486 0.71641 0.172992 0
M  V30 2820 H 268.128 1.8832 -0.252079 0
M  V30 2821 H 266.278 3.54428 1.59101 0
M  V30 2822 H 267.95 4.53924 -0.821621 0
M  V30 2823 H 266.193 4.25573 -0.840837 0
M  V30 2824 H 266.864 5.51644 0.198317 0
M  V30 2825 H 269.34 3.94723 1.31655 0
M  V30 2826 H 268.216 5.04941 2.15234 0
M  V30 2827 H 268.477 3.43226 2.78654 0
M  V30 2828 N 267.536 -0.106894 1.57237 0
M  V30 2829 C 268.466 -1.13148 2.04254 0
M  V30 2830 C 269.447 -1.42476 0.929224 0
M  V30 2831 O 270.632 -1.52709 1.19973 0
M  V30 2832 C 267.762 -2.4545 2.45706 0
M  V30 2833 C 266.716 -2.30558 3.60592 0
M  V30 2834 C 266.042 -3.67931 3.87983 0
M  V30 2835 C 267.342 -1.75597 4.91897 0
M  V30 2836 H 269.036 -0.740374 2.90101 0
M  V30 2837 H 266.582 -0.354696 1.39563 0
M  V30 2838 H 268.535 -3.17389 2.77205 0
M  V30 2839 H 267.259 -2.86475 1.56843 0
M  V30 2840 H 265.918 -1.61067 3.29322 0
M  V30 2841 H 265.566 -4.06462 2.96306 0
M  V30 2842 H 265.266 -3.58817 4.65322 0
M  V30 2843 H 266.79 -4.41356 4.21945 0
M  V30 2844 H 268.204 -2.37364 5.21854 0
M  V30 2845 H 266.601 -1.77272 5.73319 0
M  V30 2846 H 267.671 -0.714451 4.79608 0
M  V30 2847 N 269.014 -1.53014 -0.377408 0
M  V30 2848 C 269.962 -1.7927 -1.48206 0
M  V30 2849 C 270.956 -0.661195 -1.55963 0
M  V30 2850 O 272.162 -0.843908 -1.58991 0
M  V30 2851 H 268.537 -0.567425 -0.493491 0
M  V30 2852 H 270.508 -2.71753 -1.2326 0
M  V30 2853 C 269.257 -1.98894 -2.85196 0
M  V30 2854 H 268.58 -2.85395 -2.79981 0
M  V30 2855 H 270.02 -2.21249 -3.61698 0
M  V30 2856 C 268.479 -0.764691 -3.28107 0
M  V30 2857 O 269.009 0.0523226 -4.01666 0
M  V30 2858 N 267.215 -0.591493 -2.84517 0
M  V30 2859 H 266.762 -1.25749 -2.24822 0
M  V30 2860 H 266.72 0.226253 -3.13585 0
M  V30 2861 N 270.492 0.636531 -1.44174 0
M  V30 2862 C 271.402 1.77754 -1.53103 0
M  V30 2863 C 272.418 1.68928 -0.417034 0
M  V30 2864 O 273.594 1.89801 -0.6736 0
M  V30 2865 C 270.659 3.14115 -1.46741 0
M  V30 2866 C 269.72 3.34612 -2.68948 0
M  V30 2867 C 268.953 4.64467 -2.6288 0
M  V30 2868 O 269.176 5.44919 -1.68581 0
M  V30 2869 O 268.11 4.87049 -3.53648 0
M  V30 2870 H 271.936 1.73174 -2.49489 0
M  V30 2871 H 269.521 0.79709 -1.2636 0
M  V30 2872 H 271.403 3.95412 -1.45696 0
M  V30 2873 H 270.078 3.19249 -0.534975 0
M  V30 2874 H 268.985 2.53014 -2.75562 0
M  V30 2875 H 270.318 3.34336 -3.61221 0
M  V30 2876 N 271.97 1.30982 0.876444 0
M  V30 2877 C 273.195 1.23373 1.66715 0
M  V30 2878 C 273.62 -0.19885 1.87046 0
M  V30 2879 O 272.978 -1.1427 1.40756 0
M  V30 2880 C 273.026 1.97644 3.01611 0
M  V30 2881 O 272.13 1.30935 3.91062 0
M  V30 2882 H 271.471 0.426279 0.509099 0
M  V30 2883 H 274.001 1.72944 1.09323 0
M  V30 2884 H 274.011 2.06992 3.51594 0
M  V30 2885 H 272.686 3.01829 2.86133 0
M  V30 2886 H 271.263 1.29996 3.49507 0
M  V30 2887 N 273.449 -1.08991 1.13837 0
M  V30 2888 C 274.696 -1.81258 0.902882 0
M  V30 2889 C 275.024 -1.85936 -0.570803 0
M  V30 2890 O 274.279 -1.3267 -1.43865 0
M  V30 2891 C 274.578 -3.27042 1.44147 0
M  V30 2892 C 274.244 -3.4249 2.93276 0
M  V30 2893 C 272.906 -3.46414 3.33992 0
M  V30 2894 C 275.258 -3.4666 3.892 0
M  V30 2895 C 272.586 -3.52091 4.69307 0
M  V30 2896 C 274.938 -3.53872 5.24364 0
M  V30 2897 C 273.602 -3.56066 5.646 0
M  V30 2898 H 272.872 -0.663268 0.330388 0
M  V30 2899 H 275.519 -1.28368 1.42105 0
M  V30 2900 H 273.824 -3.82599 0.844097 0
M  V30 2901 H 275.521 -3.81499 1.23528 0
M  V30 2902 H 272.111 -3.40124 2.60794 0
M  V30 2903 H 276.295 -3.42865 3.58828 0
M  V30 2904 H 271.551 -3.52079 4.9985 0
M  V30 2905 H 275.725 -3.56043 5.98503 0
M  V30 2906 H 273.352 -3.60218 6.69438 0
M  V30 2907 N 274.927 -0.932562 -1.27047 0
M  V30 2908 C 276.343 -0.633544 -1.46487 0
M  V30 2909 C 276.543 0.815746 -1.84249 0
M  V30 2910 O 275.599 1.59319 -1.95892 0
M  V30 2911 C 276.912 -1.58758 -2.55375 0
M  V30 2912 C 278.46 -1.59634 -2.69232 0
M  V30 2913 C 278.935 -2.53747 -3.81283 0
M  V30 2914 N 280.426 -2.51982 -3.88664 0
M  V30 2915 C 281.161 -3.21491 -4.74796 0
M  V30 2916 N 280.657 -4.00395 -5.65381 0
M  V30 2917 N 282.45 -3.10485 -4.68568 0
M  V30 2918 H 274.601 -1.86946 -1.00821 0
M  V30 2919 H 276.864 -0.802897 -0.504044 0
M  V30 2920 H 276.57 -2.62172 -2.34432 0
M  V30 2921 H 276.444 -1.33301 -3.52861 0
M  V30 2922 H 278.831 -0.569488 -2.89553 0
M  V30 2923 H 278.912 -1.89142 -1.72218 0
M  V30 2924 H 278.556 -3.56545 -3.61715 0
M  V30 2925 H 278.486 -2.21532 -4.77735 0
M  V30 2926 H 280.977 -1.94681 -3.23895 0
M  V30 2927 H 281.29 -4.50406 -6.27976 0
M  V30 2928 H 279.635 -4.04498 -5.65161 0
M  V30 2929 H 282.826 -2.48331 -3.96799 0
M  V30 2930 H 282.999 -3.64925 -5.35475 0
M  V30 2931 N 276.405 1.4127 -0.698611 0
M  V30 2932 C 277.821 1.55241 -0.370462 0
M  V30 2933 C 278.021 1.67351 1.12231 0
M  V30 2934 O 277.077 1.65363 1.90818 0
M  V30 2935 C 278.39 2.78997 -1.12165 0
M  V30 2936 C 279.938 2.92797 -1.1063 0
M  V30 2937 C 280.413 4.19445 -1.8393 0
M  V30 2938 N 281.904 4.26409 -1.80914 0
M  V30 2939 C 282.639 5.23271 -2.34467 0
M  V30 2940 N 282.135 6.26145 -2.96504 0
M  V30 2941 N 283.928 5.15232 -2.24706 0
M  V30 2942 H 276.079 1.31654 -1.66676 0
M  V30 2943 H 278.342 0.635393 -0.703548 0
M  V30 2944 H 278.048 2.76268 -2.17644 0
M  V30 2945 H 277.922 3.70606 -0.702209 0
M  V30 2946 H 280.309 2.95039 -0.0597713 0
M  V30 2947 H 280.39 2.02353 -1.56483 0
M  V30 2948 H 280.034 4.17964 -2.88563 0
M  V30 2949 H 279.964 5.08866 -1.35509 0
M  V30 2950 H 282.455 3.527 -1.35687 0
M  V30 2951 H 282.768 6.96451 -3.34927 0
M  V30 2952 H 281.113 6.26638 -3.00583 0
M  V30 2953 H 284.304 4.33789 -1.7591 0
M  V30 2954 H 284.477 5.90552 -2.66745 0
M  V30 2955 N 277.883 0.443576 1.51229 0
M  V30 2956 C 279.13 -0.120796 2.02139 0
M  V30 2957 C 279.458 -1.42166 1.32736 0
M  V30 2958 O 278.713 -1.90849 0.43301 0
M  V30 2959 C 279.012 -0.380579 3.55368 0
M  V30 2960 C 278.678 0.83523 4.43097 0
M  V30 2961 C 277.34 1.16864 4.66794 0
M  V30 2962 C 279.692 1.64601 4.94526 0
M  V30 2963 C 277.02 2.31339 5.39165 0
M  V30 2964 C 279.372 2.78181 5.68153 0
M  V30 2965 C 278.036 3.11969 5.90112 0
M  V30 2966 H 277.306 -0.0442023 0.73968 0
M  V30 2967 H 279.953 0.592046 1.82118 0
M  V30 2968 H 278.258 -1.17538 3.73754 0
M  V30 2969 H 279.955 -0.830777 3.923 0
M  V30 2970 H 276.545 0.565437 4.24854 0
M  V30 2971 H 280.729 1.40163 4.76097 0
M  V30 2972 H 275.985 2.57823 5.5438 0
M  V30 2973 H 280.159 3.41371 6.06992 0
M  V30 2974 H 277.786 4.00784 6.45969 0
M  V30 2975 N 279.361 -1.56624 0.175154 0
M  V30 2976 C 280.609 -1.96609 -0.467885 0
M  V30 2977 C 280.93 -1.06238 -1.63519 0
M  V30 2978 O 280.2 -0.129523 -1.95471 0
M  V30 2979 H 278.78 -0.726008 -0.175845 0
M  V30 2980 H 281.442 -1.93195 0.257234 0
M  V30 2981 H 280.538 -3.00989 -0.825342 0
M  V30 2982 N 280.839 0.0985539 -1.57292 0
M  V30 2983 C 281.789 1.1261 -1.9825 0
M  V30 2984 C 282.773 1.35961 -0.860426 0
M  V30 2985 O 283.965 1.36711 -1.12424 0
M  V30 2986 C 281.094 2.44727 -2.40757 0
M  V30 2987 C 280.18 2.24764 -3.59642 0
M  V30 2988 N 280.571 1.74661 -4.74687 0
M  V30 2989 C 278.869 2.55344 -3.65672 0
M  V30 2990 C 279.57 1.68887 -5.56644 0
M  V30 2991 N 278.546 2.13976 -4.99715 0
M  V30 2992 H 282.348 0.731604 -2.84648 0
M  V30 2993 H 279.862 0.306029 -1.59491 0
M  V30 2994 H 281.859 3.19072 -2.68326 0
M  V30 2995 H 280.519 2.84917 -1.55733 0
M  V30 2996 H 281.53 1.43908 -4.97505 0
M  V30 2997 H 278.207 2.99081 -2.91302 0
M  V30 2998 H 279.597 1.3123 -6.5896 0
M  V30 2999 N 282.317 1.53212 0.369288 0
M  V30 3000 C 283.728 1.60943 0.946276 0
M  V30 3001 C 284.079 0.47452 1.90375 0
M  V30 3002 O 283.204 -0.399597 2.12679 0
M  V30 3003 C 283.799 2.91715 1.72302 0
M  V30 3004 C 282.358 3.01792 2.24941 0
M  V30 3005 C 281.505 2.56211 1.06072 0
M  V30 3006 H 284.456 1.58007 0.148198 0
M  V30 3007 H 284.477 2.79309 2.58393 0
M  V30 3008 H 283.989 3.74295 1.0259 0
M  V30 3009 H 282.09 2.23791 2.97906 0
M  V30 3010 H 282.203 4.06803 2.53077 0
M  V30 3011 H 280.567 2.10998 1.4266 0
M  V30 3012 H 281.35 3.41206 0.378639 0
M  V30 3013 N 283.795 -0.628877 1.44509 0
M  V30 3014 C 285.041 -1.39045 1.47629 0
M  V30 3015 C 285.374 -1.93892 0.109343 0
M  V30 3016 O 284.649 -1.7379 -0.87334 0
M  V30 3017 C 284.932 -2.55408 2.53848 0
M  V30 3018 C 284.785 -2.05896 3.99909 0
M  V30 3019 C 286.104 -3.5759 2.56549 0
M  V30 3020 H 283.223 -0.504232 0.537512 0
M  V30 3021 H 285.865 -0.710854 1.76201 0
M  V30 3022 H 284.015 -3.13384 2.29615 0
M  V30 3023 H 285.687 -1.52734 4.35282 0
M  V30 3024 H 283.93 -1.37061 4.11578 0
M  V30 3025 H 284.601 -2.89681 4.69882 0
M  V30 3026 H 287.077 -3.09419 2.78207 0
M  V30 3027 H 285.953 -4.36527 3.32769 0
M  V30 3028 H 286.214 -4.11808 1.60832 0
M  V30 3029 N 285.273 -1.31445 -0.869486 0
M  V30 3030 C 286.689 -1.10113 -1.15531 0
M  V30 3031 C 286.889 0.128087 -2.01092 0
M  V30 3032 O 285.945 0.817276 -2.38908 0
M  V30 3033 C 287.258 -2.37291 -1.84698 0
M  V30 3034 C 288.806 -2.42906 -1.97397 0
M  V30 3035 C 289.281 -3.69967 -2.69979 0
M  V30 3036 N 290.772 -3.70864 -2.77514 0
M  V30 3037 C 291.507 -4.65875 -3.34287 0
M  V30 3038 N 291.003 -5.71242 -3.91988 0
M  V30 3039 N 292.796 -4.53394 -3.3225 0
M  V30 3040 H 284.947 -2.1028 -0.299347 0
M  V30 3041 H 287.21 -0.927683 -0.195214 0
M  V30 3042 H 286.916 -3.27078 -1.29278 0
M  V30 3043 H 286.79 -2.47125 -2.84972 0
M  V30 3044 H 289.177 -1.53588 -2.51982 0
M  V30 3045 H 289.258 -2.37036 -0.961643 0
M  V30 3046 H 288.902 -4.59652 -2.16062 0
M  V30 3047 H 288.832 -3.73103 -3.7162 0
M  V30 3048 H 291.323 -2.94697 -2.36563 0
M  V30 3049 H 291.636 -6.39817 -4.33421 0
M  V30 3050 H 289.981 -5.75015 -3.90362 0
M  V30 3051 H 293.172 -3.70252 -2.8641 0
M  V30 3052 H 293.345 -5.27617 -3.76197 0
M  V30 3053 N 286.751 1.08385 -1.14413 0
M  V30 3054 C 287.999 1.80419 -0.910679 0
M  V30 3055 C 288.32 1.86658 0.564243 0
M  V30 3056 O 287.59 1.35985 1.41014 0
M  V30 3057 H 286.17 0.668204 -0.333934 0
M  V30 3058 H 288.832 1.31037 -1.44275 0
M  V30 3059 H 287.928 2.83238 -1.31082 0
M  V30 3060 N 288.23 0.939286 1.26551 0
M  V30 3061 C 289.479 0.581601 1.93133 0
M  V30 3062 C 289.792 -0.883224 1.74524 0
M  V30 3063 O 290.998 -1.3502 2.35546 0
M  V30 3064 C 289.454 0.989425 3.46032 0
M  V30 3065 C 289.062 2.47573 3.73379 0
M  V30 3066 C 290.806 0.703544 4.18629 0
M  V30 3067 C 288.713 2.82235 5.19709 0
M  V30 3068 H 287.643 0.213803 0.723052 0
M  V30 3069 H 290.294 1.14167 1.4366 0
M  V30 3070 H 288.676 0.357902 3.94379 0
M  V30 3071 H 289.85 3.15614 3.35744 0
M  V30 3072 H 288.165 2.73471 3.1401 0
M  V30 3073 H 290.762 0.938869 5.26393 0
M  V30 3074 H 291.105 -0.359639 4.14744 0
M  V30 3075 H 291.638 1.2947 3.76141 0
M  V30 3076 H 288.377 3.87509 5.28694 0
M  V30 3077 H 287.897 2.18854 5.58447 0
M  V30 3078 H 289.576 2.70599 5.87695 0
M  V30 3079 N 289.708 -1.40897 0.706093 0
M  V30 3080 C 291.119 -1.84023 0.315052 0
M  V30 3081 C 291.47 -1.5906 -1.14866 0
M  V30 3082 O 290.595 -1.06651 -1.88293 0
M  V30 3083 C 291.19 -3.34055 0.565038 0
M  V30 3084 C 289.749 -3.7571 0.227806 0
M  V30 3085 C 288.896 -2.64204 0.842122 0
M  V30 3086 H 291.847 -1.303 0.905963 0
M  V30 3087 H 291.868 -3.80107 -0.172843 0
M  V30 3088 H 291.38 -3.52192 1.63042 0
M  V30 3089 H 289.481 -3.63172 -0.832895 0
M  V30 3090 H 289.594 -4.74103 0.690174 0
M  V30 3091 H 287.958 -2.53255 0.270893 0
M  V30 3092 H 288.741 -2.85155 1.91158 0
M  V30 3093 N 291.186 -0.45159 -1.50991 0
M  V30 3094 C 292.597 0.00818571 -1.86698 0
M  V30 3095 C 292.948 1.40661 -1.3678 0
M  V30 3096 O 292.073 2.0391 -0.724546 0
M  V30 3097 C 292.668 0.0216303 -3.38793 0
M  V30 3098 C 291.227 0.425865 -3.73983 0
M  V30 3099 C 290.374 -0.372163 -2.74791 0
M  V30 3100 H 293.325 -0.666785 -1.44013 0
M  V30 3101 H 293.346 0.828078 -3.7138 0
M  V30 3102 H 292.858 -0.996288 -3.75094 0
M  V30 3103 H 290.959 1.44886 -3.43277 0
M  V30 3104 H 291.072 0.140761 -4.78893 0
M  V30 3105 H 289.436 0.171498 -2.54122 0
M  V30 3106 H 290.219 -1.38922 -3.13935 0
M  V30 3107 N 292.664 1.56529 -0.183458 0
M  V30 3108 C 293.892 2.01623 0.464285 0
M  V30 3109 C 294.307 1.06366 1.55986 0
M  V30 3110 O 293.664 0.0665398 1.82379 0
M  V30 3111 C 293.715 3.46475 1.03139 0
M  V30 3112 O 293.436 4.38095 -0.0204675 0
M  V30 3113 C 294.937 4.0703 1.75617 0
M  V30 3114 H 292.157 0.660596 0.117704 0
M  V30 3115 H 294.701 2.02451 -0.288751 0
M  V30 3116 H 292.856 3.46383 1.73486 0
M  V30 3117 H 293.27 5.22973 0.399952 0
M  V30 3118 H 294.744 5.10271 2.10542 0
M  V30 3119 H 295.221 3.49819 2.65563 0
M  V30 3120 H 295.827 4.1086 1.09882 0
M  V30 3121 N 294.142 -0.090211 1.57342 0
M  V30 3122 C 295.052 -1.12735 2.05738 0
M  V30 3123 C 296.068 -1.43557 0.983231 0
M  V30 3124 O 297.244 -1.54101 1.29672 0
M  V30 3125 C 294.309 -2.42659 2.47624 0
M  V30 3126 C 293.37 -2.18975 3.69254 0
M  V30 3127 C 292.603 -3.42704 4.09133 0
M  V30 3128 O 292.826 -4.51127 3.49057 0
M  V30 3129 O 291.76 -3.32003 5.02053 0
M  V30 3130 H 295.586 -0.746279 2.94388 0
M  V30 3131 H 293.171 -0.303064 1.46294 0
M  V30 3132 H 295.053 -3.19155 2.7517 0
M  V30 3133 H 293.728 -2.80182 1.62109 0
M  V30 3134 H 292.635 -1.40244 3.46818 0
M  V30 3135 H 293.968 -1.86342 4.55563 0
M  V30 3136 N 295.62 -1.53406 -0.361157 0
M  V30 3137 C 296.866 -1.70054 -1.10496 0
M  V30 3138 C 297.199 -0.453278 -1.88836 0
M  V30 3139 O 296.474 0.5495 -1.86576 0
M  V30 3140 C 296.757 -2.95317 -2.06058 0
M  V30 3141 C 296.61 -4.3021 -1.31298 0
M  V30 3142 C 297.929 -3.16193 -3.06121 0
M  V30 3143 H 295.048 -0.618799 -0.400321 0
M  V30 3144 H 297.69 -1.86052 -0.385318 0
M  V30 3145 H 295.84 -2.81809 -2.67425 0
M  V30 3146 H 297.512 -4.55538 -0.726807 0
M  V30 3147 H 295.755 -4.29421 -0.614853 0
M  V30 3148 H 296.426 -5.14 -2.01265 0
M  V30 3149 H 298.902 -3.28916 -2.5486 0
M  V30 3150 H 297.778 -4.05266 -3.70204 0
M  V30 3151 H 298.039 -2.31676 -3.76535 0
M  V30 3152 N 297.098 0.621204 -1.44841 0
M  V30 3153 C 298.323 1.41244 -1.51871 0
M  V30 3154 C 298.748 1.87519 -0.147764 0
M  V30 3155 O 298.106 1.59334 0.865 0
M  V30 3156 C 298.154 2.60221 -2.49634 0
M  V30 3157 O 297.258 3.60395 -2.00473 0
M  V30 3158 H 296.599 0.42223 -0.512463 0
M  V30 3159 H 299.129 0.757305 -1.90069 0
M  V30 3160 H 299.139 3.0764 -2.67996 0
M  V30 3161 H 297.814 2.25887 -3.4921 0
M  V30 3162 H 296.391 3.19717 -1.91925 0
M  V30 3163 N 298.576 1.31904 0.862503 0
M  V30 3164 C 299.486 1.22161 2.00285 0
M  V30 3165 C 300.502 0.136785 1.73462 0
M  V30 3166 O 301.678 0.355994 1.98229 0
M  V30 3167 C 298.743 0.937093 3.33796 0
M  V30 3168 C 297.804 2.10957 3.73893 0
M  V30 3169 C 297.037 1.83853 5.01033 0
M  V30 3170 O 297.26 0.777274 5.65079 0
M  V30 3171 O 296.194 2.69741 5.38074 0
M  V30 3172 H 300.02 2.18008 2.11439 0
M  V30 3173 H 297.605 1.11716 0.991957 0
M  V30 3174 H 299.487 0.794583 4.13841 0
M  V30 3175 H 298.162 0.00871894 3.23699 0
M  V30 3176 H 297.069 2.30752 2.94456 0
M  V30 3177 H 298.402 3.02046 3.88625 0
M  V30 3178 N 300.054 -1.07777 1.14986 0
M  V30 3179 C 301.331 -1.7699 0.832695 0
M  V30 3180 C 301.711 -2.001 -0.672561 0
M  V30 3181 O 301.059 -1.61598 -1.6155 0
M  V30 3182 C 301.269 -3.08139 1.63863 0
M  V30 3183 C 302.617 -3.8256 1.84208 0
M  V30 3184 O 303.641 -3.17939 1.60603 0
M  V30 3185 O 302.5 -4.98612 2.23714 0
M  V30 3186 H 299.594 -0.768389 0.305791 0
M  V30 3187 H 302.14 -1.14182 1.25541 0
M  V30 3188 H 300.912 -2.86909 2.6608 0
M  V30 3189 H 300.535 -3.78678 1.21197 0
M  V30 3190 N 301.532 -0.945985 -1.26051 0
M  V30 3191 C 302.442 -0.465633 -2.29933 0
M  V30 3192 C 303.458 0.462761 -1.67733 0
M  V30 3193 O 304.634 0.341118 -1.9849 0
M  V30 3194 C 301.699 0.256994 -3.45746 0
M  V30 3195 C 300.76 -0.708549 -4.23412 0
M  V30 3196 C 299.993 -0.0203135 -5.33696 0
M  V30 3197 O 300.216 1.19571 -5.57726 0
M  V30 3198 O 299.15 -0.701459 -5.97799 0
M  V30 3199 H 302.976 -1.32866 -2.73094 0
M  V30 3200 H 300.561 -0.712071 -1.31339 0
M  V30 3201 H 302.443 0.663852 -4.16138 0
M  V30 3202 H 301.118 1.09533 -3.04605 0
M  V30 3203 H 300.025 -1.16545 -3.55483 0
M  V30 3204 H 301.358 -1.51465 -4.68315 0
M  V30 3205 N 303.011 1.40521 -0.713556 0
M  V30 3206 C 303.961 2.27971 -0.036165 0
M  V30 3207 C 304.945 1.43151 0.734623 0
M  V30 3208 O 306.137 1.66261 0.607158 0
M  V30 3209 C 303.266 3.31661 0.886331 0
M  V30 3210 C 302.352 4.23955 0.110836 0
M  V30 3211 N 302.743 4.97641 -0.904847 0
M  V30 3212 C 301.041 4.44674 0.343692 0
M  V30 3213 C 301.742 5.65322 -1.37064 0
M  V30 3214 N 300.718 5.39162 -0.693168 0
M  V30 3215 H 304.52 2.82384 -0.814645 0
M  V30 3216 H 302.034 1.52948 -0.545963 0
M  V30 3217 H 304.031 3.93154 1.38692 0
M  V30 3218 H 302.691 2.78808 1.66421 0
M  V30 3219 H 303.702 5.01689 -1.28563 0
M  V30 3220 H 300.379 4.02801 1.09805 0
M  V30 3221 H 301.769 6.34359 -2.21447 0
M  V30 3222 N 304.489 0.459591 1.5075 0
M  V30 3223 C 305.419 -0.330644 2.31147 0
M  V30 3224 C 306.4 -1.00087 1.37538 0
M  V30 3225 O 307.585 -1.00025 1.66459 0
M  V30 3226 C 304.715 -1.41958 3.16962 0
M  V30 3227 C 303.669 -0.871608 4.19031 0
M  V30 3228 C 302.995 -2.05797 4.9351 0
M  V30 3229 C 304.295 0.109251 5.22186 0
M  V30 3230 H 305.989 0.340336 2.97459 0
M  V30 3231 H 303.535 0.165119 1.4305 0
M  V30 3232 H 305.488 -1.9798 3.71997 0
M  V30 3233 H 304.212 -2.11917 2.48513 0
M  V30 3234 H 302.871 -0.333442 3.6508 0
M  V30 3235 H 302.519 -2.74427 4.21544 0
M  V30 3236 H 302.219 -1.6976 5.62544 0
M  V30 3237 H 303.743 -2.62331 5.51375 0
M  V30 3238 H 305.157 -0.361405 5.7216 0
M  V30 3239 H 303.554 0.383316 5.98875 0
M  V30 3240 H 304.624 1.03887 4.73641 0
M  V30 3241 N 305.967 -1.56429 0.191757 0
M  V30 3242 C 306.897 -2.21937 -0.725696 0
M  V30 3243 C 307.878 -1.1814 -1.2238 0
M  V30 3244 O 309.063 -1.46636 -1.27325 0
M  V30 3245 C 306.193 -2.87611 -1.94672 0
M  V30 3246 C 305.147 -3.97623 -1.58366 0
M  V30 3247 C 304.473 -4.50446 -2.88102 0
M  V30 3248 C 305.773 -5.16197 -0.796133 0
M  V30 3249 H 307.467 -2.98861 -0.179606 0
M  V30 3250 H 305.013 -1.43749 -0.0849464 0
M  V30 3251 H 306.966 -3.3212 -2.59373 0
M  V30 3252 H 305.69 -2.08087 -2.51728 0
M  V30 3253 H 304.349 -3.53801 -0.960247 0
M  V30 3254 H 303.997 -3.67688 -3.43241 0
M  V30 3255 H 303.697 -5.24675 -2.64556 0
M  V30 3256 H 305.221 -4.97654 -3.53798 0
M  V30 3257 H 306.635 -5.57271 -1.34618 0
M  V30 3258 H 305.032 -5.96471 -0.658928 0
M  V30 3259 H 306.102 -4.84473 0.203478 0
M  V30 3260 N 307.445 0.0818655 -1.57387 0
M  V30 3261 C 308.395 1.10501 -1.99433 0
M  V30 3262 C 309.379 1.35041 -0.874798 0
M  V30 3263 O 310.571 1.35511 -1.13868 0
M  V30 3264 C 307.7 2.42159 -2.43339 0
M  V30 3265 C 306.786 2.20937 -3.62005 0
M  V30 3266 N 307.177 1.69616 -4.76512 0
M  V30 3267 C 305.475 2.51451 -3.68359 0
M  V30 3268 C 306.176 1.62973 -5.58404 0
M  V30 3269 N 305.152 2.08664 -5.01956 0
M  V30 3270 H 308.954 0.701373 -2.85408 0
M  V30 3271 H 306.468 0.289096 -1.59806 0
M  V30 3272 H 308.465 3.16208 -2.71695 0
M  V30 3273 H 307.125 2.83249 -1.58746 0
M  V30 3274 H 308.136 1.38624 -4.99003 0
M  V30 3275 H 304.813 2.95975 -2.94457 0
M  V30 3276 H 306.203 1.24233 -6.60315 0
M  V30 3277 N 308.923 1.53595 0.353017 0
M  V30 3278 C 310.148 1.7462 1.11904 0
M  V30 3279 C 310.573 0.479721 1.8188 0
M  V30 3280 O 309.931 -0.567066 1.72204 0
M  V30 3281 C 309.979 2.92029 2.11545 0
M  V30 3282 O 309.083 2.61516 3.18878 0
M  V30 3283 H 308.424 0.579531 0.324099 0
M  V30 3284 H 310.954 2.00525 0.406301 0
M  V30 3285 H 310.964 3.18551 2.5493 0
M  V30 3286 H 309.639 3.83888 1.60008 0
M  V30 3287 H 308.216 2.45852 2.80377 0
M  V30 3288 N 310.401 -0.613514 1.45168 0
M  V30 3289 C 311.812 -1.19539 1.43413 0
M  V30 3290 C 312.163 -1.95558 0.158632 0
M  V30 3291 O 311.288 -2.0335 -0.740119 0
M  V30 3292 C 311.883 -2.17445 2.59813 0
M  V30 3293 C 310.442 -2.71022 2.61197 0
M  V30 3294 C 309.589 -1.46323 2.35552 0
M  V30 3295 H 312.54 -0.403163 1.53494 0
M  V30 3296 H 312.561 -3.00373 2.33574 0
M  V30 3297 H 312.073 -1.62089 3.52631 0
M  V30 3298 H 310.174 -3.30332 1.7237 0
M  V30 3299 H 310.287 -3.15859 3.60236 0
M  V30 3300 H 308.651 -1.75072 1.84992 0
M  V30 3301 H 309.434 -0.92844 3.30507 0
M  V30 3302 N 311.879 -1.3236 -0.855495 0
M  V30 3303 C 312.812 -1.15559 -1.96777 0
M  V30 3304 C 313.79 -0.0552681 -1.62506 0
M  V30 3305 O 314.974 -0.214419 -1.87277 0
M  V30 3306 C 312.101 -0.768851 -3.29858 0
M  V30 3307 C 311.147 -1.87429 -3.83109 0
M  V30 3308 S 311.98 -3.48243 -4.06801 0
M  V30 3309 C 313.136 -3.11539 -5.42858 0
M  V30 3310 H 313.369 -2.09717 -2.10727 0
M  V30 3311 H 310.902 -1.17011 -1.00737 0
M  V30 3312 H 312.86 -0.55248 -4.06765 0
M  V30 3313 H 311.521 0.153857 -3.13723 0
M  V30 3314 H 310.714 -1.55667 -4.79358 0
M  V30 3315 H 310.316 -2.04647 -3.13042 0
M  V30 3316 H 312.608 -2.61331 -6.2507 0
M  V30 3317 H 313.551 -4.06806 -5.79582 0
M  V30 3318 H 313.959 -2.48582 -5.06821 0
M  V30 3319 N 313.357 1.07166 -1.15556 0
M  V30 3320 C 314.267 2.17947 -0.868116 0
M  V30 3321 C 315.283 1.73297 0.156297 0
M  V30 3322 O 316.459 2.01392 -0.0182327 0
M  V30 3323 C 313.524 3.44789 -0.36355 0
M  V30 3324 C 312.585 4.03996 -1.45209 0
M  V30 3325 C 311.818 5.24783 -0.971508 0
M  V30 3326 O 312.041 5.70109 0.182194 0
M  V30 3327 O 310.975 5.75715 -1.75603 0
M  V30 3328 H 314.801 2.4503 -1.79427 0
M  V30 3329 H 312.386 1.16539 -0.934824 0
M  V30 3330 H 314.268 4.21307 -0.0887113 0
M  V30 3331 H 312.943 3.19253 0.534708 0
M  V30 3332 H 311.85 3.29009 -1.78056 0
M  V30 3333 H 313.183 4.33808 -2.32533 0
M  V30 3334 N 314.835 0.952656 1.25548 0
M  V30 3335 C 316.246 0.647392 1.75116 0
M  V30 3336 C 316.597 -0.837274 1.77438 0
M  V30 3337 O 315.722 -1.65525 1.39393 0
M  V30 3338 C 316.317 1.16845 3.18014 0
M  V30 3339 C 314.876 0.913382 3.6515 0
M  V30 3340 C 314.023 1.31265 2.44264 0
M  V30 3341 H 316.974 1.12968 1.11462 0
M  V30 3342 H 316.995 0.527606 3.76824 0
M  V30 3343 H 316.507 2.24902 3.16292 0
M  V30 3344 H 314.608 -0.152316 3.72289 0
M  V30 3345 H 314.721 1.54845 4.53387 0
M  V30 3346 H 313.085 0.731028 2.43984 0
M  V30 3347 H 313.868 2.40239 2.45234 0
M  V30 3348 N 316.313 -1.40141 0.720998 0
M  V30 3349 C 317.561 -2.0039 0.262323 0
M  V30 3350 C 317.882 -1.57469 -1.15015 0
M  V30 3351 O 317.152 -0.816582 -1.78069 0
M  V30 3352 H 315.732 -0.741063 0.093996 0
M  V30 3353 H 318.394 -1.71398 0.927835 0
M  V30 3354 H 317.49 -3.10658 0.299671 0
M  V30 3355 N 317.792 -0.46758 -1.50504 0
M  V30 3356 C 319.069 0.15003 -1.95024 0
M  V30 3357 C 319.449 1.57304 -1.40779 0
M  V30 3358 O 318.797 2.20281 -0.607319 0
M  V30 3359 C 319.007 0.0969324 -3.48865 0
M  V30 3360 C 320.355 0.287565 -4.23625 0
M  V30 3361 O 321.379 0.173678 -3.55776 0
M  V30 3362 O 320.238 0.517186 -5.44047 0
M  V30 3363 H 317.332 0.113582 -0.819163 0
M  V30 3364 H 319.878 -0.52773 -1.61286 0
M  V30 3365 H 318.65 -0.896732 -3.80886 0
M  V30 3366 H 318.273 0.816303 -3.8913 0
M  V30 3367 N 319.27 1.56325 -0.20005 0
M  V30 3368 C 320.519 1.96895 0.437652 0
M  V30 3369 C 320.832 1.08999 1.62415 0
M  V30 3370 O 322.038 1.39372 2.32997 0
M  V30 3371 C 320.494 3.50198 0.830025 0
M  V30 3372 C 320.102 4.46765 -0.332461 0
M  V30 3373 C 321.846 3.99526 1.43453 0
M  V30 3374 C 319.753 5.91344 0.0811468 0
M  V30 3375 H 318.683 0.735209 0.167282 0
M  V30 3376 H 321.334 1.81148 -0.292853 0
M  V30 3377 H 319.716 3.61467 1.61734 0
M  V30 3378 H 320.89 4.47231 -1.11 0
M  V30 3379 H 319.205 4.07657 -0.848789 0
M  V30 3380 H 321.802 5.05025 1.75652 0
M  V30 3381 H 322.145 3.44122 2.34277 0
M  V30 3382 H 322.678 3.91393 0.71109 0
M  V30 3383 H 319.417 6.50685 -0.793033 0
M  V30 3384 H 318.937 5.94121 0.823445 0
M  V30 3385 H 320.616 6.44945 0.515252 0
M  V30 3386 N 320.748 -0.0735177 1.57428 0
M  V30 3387 C 321.678 -1.0879 2.06608 0
M  V30 3388 C 322.659 -1.40473 0.959237 0
M  V30 3389 O 323.844 -1.5013 1.23185 0
M  V30 3390 C 320.974 -2.40183 2.50857 0
M  V30 3391 C 319.928 -2.22858 3.65402 0
M  V30 3392 C 319.254 -3.59619 3.957 0
M  V30 3393 C 320.554 -1.65123 4.95511 0
M  V30 3394 H 322.248 -0.678673 2.91607 0
M  V30 3395 H 319.794 -0.325013 1.40284 0
M  V30 3396 H 321.747 -3.11437 2.83874 0
M  V30 3397 H 320.471 -2.83083 1.62885 0
M  V30 3398 H 319.13 -1.54045 3.32664 0
M  V30 3399 H 318.778 -4.00086 3.04861 0
M  V30 3400 H 318.478 -3.48866 4.72828 0
M  V30 3401 H 320.002 -4.32306 4.31212 0
M  V30 3402 H 321.416 -2.26241 5.26771 0
M  V30 3403 H 319.813 -1.65071 5.7695 0
M  V30 3404 H 320.883 -0.612559 4.81015 0
M  V30 3405 N 322.226 -1.5378 -0.344866 0
M  V30 3406 C 323.156 -1.84662 -1.42906 0
M  V30 3407 C 324.137 -0.701648 -1.54955 0
M  V30 3408 O 325.322 -0.953438 -1.69184 0
M  V30 3409 C 322.452 -2.05503 -2.79974 0
M  V30 3410 C 321.406 -3.21318 -2.82734 0
M  V30 3411 C 320.732 -3.2749 -4.22675 0
M  V30 3412 C 322.032 -4.59456 -2.48389 0
M  V30 3413 H 323.726 -2.75461 -1.17311 0
M  V30 3414 H 321.272 -1.32542 -0.562896 0
M  V30 3415 H 323.225 -2.25691 -3.55867 0
M  V30 3416 H 321.949 -1.11434 -3.07002 0
M  V30 3417 H 320.608 -3.00984 -2.09294 0
M  V30 3418 H 320.256 -2.31019 -4.4681 0
M  V30 3419 H 319.956 -4.05316 -4.25433 0
M  V30 3420 H 321.48 -3.49887 -5.00412 0
M  V30 3421 H 322.894 -4.79667 -3.13995 0
M  V30 3422 H 321.291 -5.39675 -2.62432 0
M  V30 3423 H 322.361 -4.63155 -1.4358 0
M  V30 3424 N 323.704 0.605807 -1.45491 0
M  V30 3425 C 324.951 1.36476 -1.49601 0
M  V30 3426 C 325.279 1.94007 -0.138452 0
M  V30 3427 O 324.534 1.75638 0.863114 0
M  V30 3428 C 324.833 2.53012 -2.52428 0
M  V30 3429 C 324.499 2.13617 -3.97087 0
M  V30 3430 C 323.161 2.02587 -4.36477 0
M  V30 3431 C 325.513 1.82899 -4.88055 0
M  V30 3432 C 322.841 1.59064 -5.64726 0
M  V30 3433 C 325.193 1.40861 -6.16718 0
M  V30 3434 C 323.857 1.28391 -6.55036 0
M  V30 3435 H 323.127 0.499402 -0.547429 0
M  V30 3436 H 325.774 0.684546 -1.78847 0
M  V30 3437 H 324.079 3.26379 -2.16758 0
M  V30 3438 H 325.776 3.1124 -2.52845 0
M  V30 3439 H 322.366 2.23129 -3.65939 0
M  V30 3440 H 326.55 1.90317 -4.58359 0
M  V30 3441 H 321.806 1.48034 -5.93208 0
M  V30 3442 H 325.98 1.16138 -6.86648 0
M  V30 3443 H 323.607 0.944403 -7.54311 0
M  V30 3444 N 325.182 1.32811 0.848464 0
M  V30 3445 C 326.132 1.18842 1.94578 0
M  V30 3446 C 327.116 0.0937517 1.60627 0
M  V30 3447 O 328.308 0.320887 1.74067 0
M  V30 3448 C 325.437 0.91999 3.30743 0
M  V30 3449 C 324.523 2.05665 3.70894 0
M  V30 3450 N 324.914 3.30579 3.8282 0
M  V30 3451 C 323.212 1.9612 4.00566 0
M  V30 3452 C 323.913 4.05067 4.17487 0
M  V30 3453 N 322.889 3.33419 4.2934 0
M  V30 3454 H 326.691 2.13536 2.0194 0
M  V30 3455 H 324.205 1.2468 1.0406 0
M  V30 3456 H 326.202 0.800859 4.09136 0
M  V30 3457 H 324.862 -0.0185076 3.24695 0
M  V30 3458 H 325.873 3.65441 3.66978 0
M  V30 3459 H 322.55 1.09871 4.02784 0
M  V30 3460 H 323.94 5.12815 4.34131 0
M  V30 3461 N 326.66 -1.06551 1.16123 0
M  V30 3462 C 327.623 -2.12132 0.867906 0
M  V30 3463 C 328.623 -1.60224 -0.135944 0
M  V30 3464 O 329.813 -1.73943 0.0946422 0
M  V30 3465 C 326.945 -3.396 0.297419 0
M  V30 3466 H 328.138 -2.39586 1.80385 0
M  V30 3467 H 325.691 -1.22574 0.969812 0
M  V30 3468 H 326.426 -3.17794 -0.64633 0
M  V30 3469 H 326.211 -3.78581 1.02073 0
M  V30 3470 H 327.701 -4.17455 0.110052 0
M  V30 3471 N 328.138 -0.959301 -1.25041 0
M  V30 3472 C 329.088 -0.453888 -2.23436 0
M  V30 3473 C 330.072 0.459461 -1.542 0
M  V30 3474 O 331.264 0.291752 -1.74579 0
M  V30 3475 C 328.393 0.262667 -3.42294 0
M  V30 3476 C 327.479 -0.669022 -4.1879 0
M  V30 3477 N 327.87 -1.80267 -4.72586 0
M  V30 3478 C 326.168 -0.47814 -4.4343 0
M  V30 3479 C 326.869 -2.38475 -5.3057 0
M  V30 3480 N 325.845 -1.67078 -5.17287 0
M  V30 3481 H 329.647 -1.319 -2.6264 0
M  V30 3482 H 327.161 -0.817358 -1.40332 0
M  V30 3483 H 329.158 0.641911 -4.11929 0
M  V30 3484 H 327.818 1.12432 -3.04613 0
M  V30 3485 H 328.829 -2.18442 -4.69578 0
M  V30 3486 H 325.506 0.340249 -4.16111 0
M  V30 3487 H 326.896 -3.34094 -5.8295 0
M  V30 3488 N 329.616 1.39756 -0.72842 0
M  V30 3489 C 330.549 2.28176 -0.0330172 0
M  V30 3490 C 331.527 1.44035 0.754501 0
M  V30 3491 O 332.711 1.73434 0.738445 0
M  V30 3492 C 329.838 3.24795 0.960504 0
M  V30 3493 C 328.884 4.25693 0.262264 0
M  V30 3494 S 329.717 5.25714 -1.01906 0
M  V30 3495 C 330.873 6.25894 -0.0279717 0
M  V30 3496 H 331.106 2.86807 -0.78287 0
M  V30 3497 H 328.639 1.45382 -0.519951 0
M  V30 3498 H 330.597 3.80983 1.52846 0
M  V30 3499 H 329.258 2.65196 1.68315 0
M  V30 3500 H 328.451 4.93699 1.01379 0
M  V30 3501 H 328.053 3.7327 -0.233482 0
M  V30 3502 H 330.345 6.72585 0.814621 0
M  V30 3503 H 331.288 7.04876 -0.67499 0
M  V30 3504 H 331.696 5.63466 0.341489 0
M  V30 3505 N 331.094 0.475555 1.50254 0
M  V30 3506 C 332.334 -0.0765802 2.04256 0
M  V30 3507 C 332.698 -1.36587 1.34937 0
M  V30 3508 O 333.899 -2.00066 1.79519 0
M  V30 3509 C 332.17 -0.251668 3.56513 0
M  V30 3510 S 333.729 -0.761716 4.32138 0
M  V30 3511 H 330.547 -0.0138456 0.710865 0
M  V30 3512 H 333.149 0.643714 1.84598 0
M  V30 3513 H 331.853 0.692404 4.04517 0
M  V30 3514 H 331.384 -0.997946 3.80532 0
M  V30 3515 H 333.399 -2.03451 4.52573 0
M  V30 3516 N 332.573 -1.56217 0.208337 0
M  V30 3517 C 333.523 -2.16324 -0.720281 0
M  V30 3518 C 334.507 -1.10775 -1.16695 0
M  V30 3519 O 335.699 -1.36801 -1.12314 0
M  V30 3520 C 332.828 -2.83644 -1.93393 0
M  V30 3521 C 331.914 -3.96401 -1.50755 0
M  V30 3522 N 332.305 -4.99546 -0.792937 0
M  V30 3523 C 330.603 -4.08246 -1.79585 0
M  V30 3524 C 331.304 -5.78828 -0.577364 0
M  V30 3525 N 330.28 -5.31723 -1.1301 0
M  V30 3526 H 334.082 -2.93432 -0.165725 0
M  V30 3527 H 331.596 -1.62397 0.00906463 0
M  V30 3528 H 333.593 -3.25107 -2.60981 0
M  V30 3529 H 332.253 -2.08027 -2.49308 0
M  V30 3530 H 333.264 -5.15967 -0.447004 0
M  V30 3531 H 329.941 -3.4377 -2.36915 0
M  V30 3532 H 331.331 -6.71899 -0.00952956 0
M  V30 3533 N 334.051 0.0651679 -1.57465 0
M  V30 3534 C 334.998 1.07675 -2.04144 0
M  V30 3535 C 335.968 1.38071 -0.923335 0
M  V30 3536 O 337.153 1.49026 -1.19146 0
M  V30 3537 C 334.293 2.38337 -2.49579 0
M  V30 3538 C 333.406 2.14413 -3.75035 0
M  V30 3539 C 332.541 3.38686 -4.09225 0
M  V30 3540 C 331.58 3.10156 -5.27702 0
M  V30 3541 N 330.717 4.26778 -5.57499 0
M  V30 3542 H 335.557 0.671716 -2.90331 0
M  V30 3543 H 333.094 0.3201 -1.43575 0
M  V30 3544 H 335.052 3.14632 -2.73975 0
M  V30 3545 H 333.682 2.7663 -1.6636 0
M  V30 3546 H 332.734 1.2878 -3.57939 0
M  V30 3547 H 334.046 1.89344 -4.61466 0
M  V30 3548 H 333.2 4.23373 -4.34558 0
M  V30 3549 H 331.939 3.66837 -3.21374 0
M  V30 3550 H 330.944 2.23866 -5.02159 0
M  V30 3551 H 332.169 2.8332 -6.17176 0
M  V30 3552 H 330.115 4.54948 -4.72608 0
M  V30 3553 H 330.032 4.05005 -6.38362 0
M  V30 3554 H 331.3 5.12443 -5.87386 0
M  V30 3555 N 335.529 1.53961 0.336706 0
M  V30 3556 C 336.754 1.75797 1.10046 0
M  V30 3557 C 337.179 0.498985 1.81361 0
M  V30 3558 O 336.537 -0.548769 1.72795 0
M  V30 3559 C 336.585 2.94257 2.08436 0
M  V30 3560 O 335.689 2.64883 3.16087 0
M  V30 3561 H 335.03 0.582936 0.317934 0
M  V30 3562 H 337.56 2.00945 0.38501 0
M  V30 3563 H 337.57 3.21237 2.51537 0
M  V30 3564 H 336.245 3.85564 1.55927 0
M  V30 3565 H 334.822 2.48812 2.77753 0
M  V30 3566 N 337.007 -0.598083 1.45811 0
M  V30 3567 C 338.256 -1.35295 1.49594 0
M  V30 3568 C 338.569 -1.95057 0.145679 0
M  V30 3569 O 339.775 -2.71431 0.0612099 0
M  V30 3570 C 338.231 -2.45124 2.63519 0
M  V30 3571 C 337.839 -1.91732 4.04899 0
M  V30 3572 C 339.583 -3.2205 2.76558 0
M  V30 3573 C 337.49 -2.991 5.1019 0
M  V30 3574 H 336.42 -0.508552 0.556679 0
M  V30 3575 H 339.071 -0.639977 1.71978 0
M  V30 3576 H 337.453 -3.19149 2.34435 0
M  V30 3577 H 338.627 -1.24352 4.43704 0
M  V30 3578 H 336.942 -1.27522 3.96393 0
M  V30 3579 H 339.539 -4.0215 3.52391 0
M  V30 3580 H 339.882 -3.73663 1.83526 0
M  V30 3581 H 340.415 -2.55127 3.05213 0
M  V30 3582 H 337.154 -2.52393 6.04961 0
M  V30 3583 H 336.674 -3.65017 4.75944 0
M  V30 3584 H 338.353 -3.63318 5.35359 0
M  V30 3585 N 338.485 -1.33259 -0.841409 0
M  V30 3586 C 339.896 -1.22066 -1.41269 0
M  V30 3587 C 340.247 0.161479 -1.95534 0
M  V30 3588 O 339.372 1.06094 -1.88608 0
M  V30 3589 C 339.967 -2.20996 -2.568 0
M  V30 3590 C 338.526 -2.13649 -3.09888 0
M  V30 3591 C 337.673 -2.08623 -1.82679 0
M  V30 3592 H 340.624 -1.44895 -0.647395 0
M  V30 3593 H 340.645 -1.81621 -3.34356 0
M  V30 3594 H 340.157 -3.2158 -2.17274 0
M  V30 3595 H 338.258 -1.16359 -3.53965 0
M  V30 3596 H 338.371 -3.04079 -3.70234 0
M  V30 3597 H 336.735 -1.54061 -2.02824 0
M  V30 3598 H 337.518 -3.1101 -1.45353 0
M  V30 3599 N 339.963 1.05934 -1.16686 0
M  V30 3600 C 340.911 2.15603 -0.872817 0
M  V30 3601 C 341.905 1.68647 0.159576 0
M  V30 3602 O 343.111 1.79995 0.0132125 0
M  V30 3603 H 339.486 0.703885 -0.264671 0
M  V30 3604 H 341.457 2.37613 -1.80507 0
M  V30 3605 C 340.206 3.45457 -0.394344 0
M  V30 3606 H 339.529 3.81984 -1.18019 0
M  V30 3607 H 340.969 4.2339 -0.227408 0
M  V30 3608 C 339.428 3.25021 0.88673 0
M  V30 3609 O 339.958 3.50906 1.95519 0
M  V30 3610 N 338.164 2.78437 0.831925 0
M  V30 3611 H 337.711 2.57572 -0.0377619 0
M  V30 3612 H 337.669 2.65144 1.68956 0
M  V30 3613 N 341.441 0.965919 1.2453 0
M  V30 3614 C 342.371 0.513476 2.27784 0
M  V30 3615 C 343.352 -0.445974 1.6415 0
M  V30 3616 O 344.537 -0.342485 1.91156 0
M  V30 3617 C 341.667 -0.198839 3.4673 0
M  V30 3618 C 340.621 0.676456 4.2262 0
M  V30 3619 C 339.947 -0.167248 5.34438 0
M  V30 3620 C 341.247 1.96017 4.84123 0
M  V30 3621 H 342.941 1.3765 2.65881 0
M  V30 3622 H 340.487 0.663321 1.27813 0
M  V30 3623 H 342.44 -0.526567 4.18097 0
M  V30 3624 H 341.164 -1.0962 3.07654 0
M  V30 3625 H 339.823 0.98743 3.53052 0
M  V30 3626 H 339.471 -1.0647 4.91603 0
M  V30 3627 H 339.171 0.415181 5.86131 0
M  V30 3628 H 340.695 -0.489688 6.08633 0
M  V30 3629 H 342.109 1.69814 5.47573 0
M  V30 3630 H 340.506 2.48918 5.4604 0
M  V30 3631 H 341.576 2.65622 4.05676 0
M  V30 3632 N 342.919 -1.39368 0.735821 0
M  V30 3633 C 344.144 -2.05319 0.293052 0
M  V30 3634 C 344.569 -1.55115 -1.064 0
M  V30 3635 O 343.927 -0.695261 -1.67439 0
M  V30 3636 C 343.975 -3.59305 0.305323 0
M  V30 3637 O 343.079 -4.06299 -0.706761 0
M  V30 3638 H 342.42 -0.650529 0.13307 0
M  V30 3639 H 344.95 -1.78386 1.00197 0
M  V30 3640 H 344.96 -4.07724 0.149997 0
M  V30 3641 H 343.635 -3.95207 1.29553 0
M  V30 3642 H 342.212 -3.69292 -0.517504 0
M  V30 3643 N 344.397 -0.483516 -1.5 0
M  V30 3644 C 345.344 0.304164 -2.28787 0
M  V30 3645 C 346.314 0.976114 -1.34392 0
M  V30 3646 O 347.499 0.986156 -1.63339 0
M  V30 3647 C 344.639 1.37298 -3.16612 0
M  V30 3648 C 343.752 0.714561 -4.26049 0
M  V30 3649 C 342.887 1.76232 -5.01114 0
M  V30 3650 C 341.926 1.08483 -6.0241 0
M  V30 3651 N 341.063 2.076 -6.70706 0
M  V30 3652 H 345.903 -0.373981 -2.95644 0
M  V30 3653 H 343.44 -0.196275 -1.45785 0
M  V30 3654 H 345.398 2.00445 -3.65893 0
M  V30 3655 H 344.028 2.02012 -2.51776 0
M  V30 3656 H 343.08 -0.0297798 -3.80388 0
M  V30 3657 H 344.392 0.180383 -4.98474 0
M  V30 3658 H 343.546 2.46929 -5.54176 0
M  V30 3659 H 342.285 2.33033 -4.28424 0
M  V30 3660 H 341.29 0.363545 -5.48597 0
M  V30 3661 H 342.515 0.523551 -6.77079 0
M  V30 3662 H 340.461 2.63394 -6.00799 0
M  V30 3663 H 340.378 1.59201 -7.39047 0
M  V30 3664 H 341.646 2.77639 -7.2838 0
M  V30 3665 N 345.875 1.56104 -0.216619 0
M  V30 3666 C 347.152 1.89988 0.465165 0
M  V30 3667 C 347.532 1.13326 1.78102 0
M  V30 3668 O 346.88 0.241033 2.27225 0
M  V30 3669 C 347.09 3.42646 0.662939 0
M  V30 3670 C 348.438 4.13311 0.972602 0
M  V30 3671 O 349.462 3.48217 0.749901 0
M  V30 3672 O 348.321 5.28396 1.39499 0
M  V30 3673 H 345.415 0.78979 0.245276 0
M  V30 3674 H 347.961 1.67721 -0.258436 0
M  V30 3675 H 346.733 3.90399 -0.26543 0
M  V30 3676 H 346.356 3.70677 1.43821 0
M  V30 3677 N 347.353 -0.0568162 1.57498 0
M  V30 3678 C 348.764 -0.606858 1.76562 0
M  V30 3679 C 349.115 -1.77114 0.844094 0
M  V30 3680 O 348.24 -2.16376 0.0318911 0
M  V30 3681 C 348.835 -1.10766 3.20182 0
M  V30 3682 C 347.394 -1.60344 3.40539 0
M  V30 3683 C 346.541 -0.529311 2.72201 0
M  V30 3684 H 349.492 0.169393 1.57793 0
M  V30 3685 H 349.513 -1.97602 3.25167 0
M  V30 3686 H 349.025 -0.26006 3.87228 0
M  V30 3687 H 347.126 -2.47379 2.78629 0
M  V30 3688 H 347.239 -1.67006 4.4905 0
M  V30 3689 H 345.603 -0.977893 2.35179 0
M  V30 3690 H 346.386 0.308352 3.41912 0
M  V30 3691 N 348.832 -1.54138 -0.328536 0
M  V30 3692 C 350.248 -1.44736 -0.672574 0
M  V30 3693 C 350.448 -0.616217 -1.91846 0
M  V30 3694 O 349.504 -0.113067 -2.52247 0
M  V30 3695 C 350.817 -2.884 -0.851217 0
M  V30 3696 C 352.365 -2.98271 -0.948877 0
M  V30 3697 C 352.84 -4.43074 -1.15973 0
M  V30 3698 N 354.331 -4.46665 -1.22658 0
M  V30 3699 C 355.066 -5.55857 -1.40751 0
M  V30 3700 N 354.562 -6.75026 -1.5592 0
M  V30 3701 N 356.355 -5.43495 -1.4342 0
M  V30 3702 H 348.506 -2.06661 0.490421 0
M  V30 3703 H 350.769 -0.934812 0.157579 0
M  V30 3704 H 350.475 -3.51699 -0.00704236 0
M  V30 3705 H 350.349 -3.34225 -1.74853 0
M  V30 3706 H 352.736 -2.35102 -1.78356 0
M  V30 3707 H 352.817 -2.55785 -0.0281435 0
M  V30 3708 H 352.461 -5.06827 -0.329915 0
M  V30 3709 H 352.391 -4.83165 -2.09426 0
M  V30 3710 H 354.882 -3.60797 -1.124 0
M  V30 3711 H 355.195 -7.54004 -1.69404 0
M  V30 3712 H 353.54 -6.77944 -1.53027 0
M  V30 3713 H 356.731 -4.49349 -1.31162 0
M  V30 3714 H 356.904 -6.28649 -1.57178 0
M  V30 3715 N 350.31 0.590341 -1.46126 0
M  V30 3716 C 351.24 1.71032 -1.58966 0
M  V30 3717 C 352.221 1.64302 -0.440335 0
M  V30 3718 O 353.406 1.82436 -0.665634 0
M  V30 3719 C 350.536 3.09665 -1.57241 0
M  V30 3720 C 349.49 3.31221 -2.71066 0
M  V30 3721 C 348.816 4.70303 -2.54399 0
M  V30 3722 C 350.116 3.19796 -4.1295 0
M  V30 3723 H 351.81 1.60543 -2.52718 0
M  V30 3724 H 349.356 0.770933 -1.21625 0
M  V30 3725 H 351.309 3.87831 -1.64819 0
M  V30 3726 H 350.033 3.21036 -0.600289 0
M  V30 3727 H 348.692 2.55452 -2.62944 0
M  V30 3728 H 348.34 4.78429 -1.55288 0
M  V30 3729 H 348.04 4.85679 -3.30741 0
M  V30 3730 H 349.564 5.50647 -2.63857 0
M  V30 3731 H 350.978 3.87815 -4.22223 0
M  V30 3732 H 349.375 3.46696 -4.89818 0
M  V30 3733 H 350.445 2.16983 -4.33643 0
M  V30 3734 N 351.788 1.33704 0.83433 0
M  V30 3735 C 352.721 1.18675 1.94914 0
M  V30 3736 C 353.699 0.0811145 1.62398 0
M  V30 3737 O 354.883 0.244186 1.86912 0
M  V30 3738 C 352.01 0.821231 3.28593 0
M  V30 3739 C 351.056 1.93501 3.80079 0
M  V30 3740 S 351.889 3.54671 4.01209 0
M  V30 3741 C 353.045 3.20136 5.37833 0
M  V30 3742 H 353.278 2.13043 2.07364 0
M  V30 3743 H 350.811 1.18598 0.988624 0
M  V30 3744 H 352.769 0.617123 4.05835 0
M  V30 3745 H 351.43 -0.103927 3.13928 0
M  V30 3746 H 350.623 1.63273 4.76821 0
M  V30 3747 H 350.225 2.09601 3.09747 0
M  V30 3748 H 352.517 2.71242 6.20833 0
M  V30 3749 H 353.46 4.15975 5.73036 0
M  V30 3750 H 353.868 2.56613 5.02802 0
M  V30 3751 N 353.266 -1.05314 1.17247 0
M  V30 3752 C 354.682 -1.30452 0.919473 0
M  V30 3753 C 354.882 -1.9703 -0.42209 0
M  V30 3754 O 353.938 -2.24311 -1.15935 0
M  V30 3755 C 355.251 -2.17551 2.07586 0
M  V30 3756 C 356.799 -2.30937 2.11275 0
M  V30 3757 C 357.274 -3.21396 3.26296 0
M  V30 3758 N 358.765 -3.28981 3.26076 0
M  V30 3759 C 359.5 -3.99095 4.11716 0
M  V30 3760 N 358.996 -4.71648 5.07465 0
M  V30 3761 N 360.789 -3.95247 3.9967 0
M  V30 3762 H 352.94 -0.604988 2.03602 0
M  V30 3763 H 355.203 -0.329368 0.888944 0
M  V30 3764 H 354.909 -1.75921 3.0454 0
M  V30 3765 H 354.783 -3.18182 2.02584 0
M  V30 3766 H 357.17 -2.71809 1.14907 0
M  V30 3767 H 357.251 -1.2994 2.20339 0
M  V30 3768 H 356.895 -2.81238 4.22927 0
M  V30 3769 H 356.825 -4.22395 3.14467 0
M  V30 3770 H 359.316 -2.77286 2.5675 0
M  V30 3771 H 359.629 -5.22705 5.6921 0
M  V30 3772 H 357.974 -4.70594 5.11435 0
M  V30 3773 H 361.165 -3.37691 3.24164 0
M  V30 3774 H 361.338 -4.4962 4.66632 0
M  V30 3775 N 354.744 -0.972509 -1.24016 0
M  V30 3776 C 355.677 -0.45117 -2.23696 0
M  V30 3777 C 356.655 0.477378 -1.55434 0
M  V30 3778 O 357.839 0.407647 -1.84039 0
M  V30 3779 C 354.966 0.34818 -3.36906 0
M  V30 3780 C 354.012 -0.523355 -4.23277 0
M  V30 3781 S 354.845 -1.96647 -4.98087 0
M  V30 3782 C 356.001 -1.17604 -6.14752 0
M  V30 3783 H 356.234 -1.29588 -2.67571 0
M  V30 3784 H 353.767 -0.777903 -1.33372 0
M  V30 3785 H 355.725 0.803387 -4.02562 0
M  V30 3786 H 354.386 1.16792 -2.91579 0
M  V30 3787 H 353.579 0.0906181 -5.03919 0
M  V30 3788 H 353.181 -0.914485 -3.62647 0
M  V30 3789 H 355.473 -0.433434 -6.76112 0
M  V30 3790 H 356.416 -1.95701 -6.8052 0
M  V30 3791 H 356.824 -0.698295 -5.60164 0
M  V30 3792 N 356.222 1.38976 -0.743202 0
M  V30 3793 C 357.447 2.05161 -0.303936 0
M  V30 3794 C 357.872 1.55677 1.05576 0
M  V30 3795 O 357.23 0.704131 1.67068 0
M  V30 3796 C 357.278 3.59138 -0.324373 0
M  V30 3797 O 356.382 4.06668 0.685204 0
M  V30 3798 H 355.723 0.649815 -0.136518 0
M  V30 3799 H 358.253 1.77852 -1.01142 0
M  V30 3800 H 358.263 4.07639 -0.171618 0
M  V30 3801 H 356.938 3.94515 -1.31647 0
M  V30 3802 H 355.515 3.69561 0.497913 0
M  V30 3803 N 357.7 0.491464 1.49741 0
M  V30 3804 C 358.633 -0.338464 2.25676 0
M  V30 3805 C 359.611 -0.978676 1.29849 0
M  V30 3806 O 360.795 -1.01064 1.59117 0
M  V30 3807 C 357.922 -1.47588 3.04853 0
M  V30 3808 C 356.968 -0.951 4.15762 0
M  V30 3809 S 357.801 0.150626 5.35288 0
M  V30 3810 C 358.957 -0.990178 6.18018 0
M  V30 3811 H 359.19 0.306068 2.9572 0
M  V30 3812 H 356.723 0.276622 1.51902 0
M  V30 3813 H 358.681 -2.12764 3.51058 0
M  V30 3814 H 357.342 -2.09199 2.34296 0
M  V30 3815 H 356.535 -1.80311 4.70642 0
M  V30 3816 H 356.137 -0.376607 3.72099 0
M  V30 3817 H 358.429 -1.89748 6.50386 0
M  V30 3818 H 359.372 -0.480205 7.0647 0
M  V30 3819 H 359.78 -1.25321 5.50413 0
M  V30 3820 N 359.178 -1.55987 0.224894 0
M  V30 3821 C 360.455 -1.90232 -0.455083 0
M  V30 3822 C 360.835 -1.14269 -1.77499 0
M  V30 3823 O 360.183 -0.253079 -2.27094 0
M  V30 3824 C 360.393 -3.42993 -0.644758 0
M  V30 3825 C 361.741 -4.13821 -0.950669 0
M  V30 3826 O 362.765 -3.4861 -0.731423 0
M  V30 3827 O 361.624 -5.29128 -1.36695 0
M  V30 3828 H 358.718 -0.79108 -0.241084 0
M  V30 3829 H 361.264 -1.67581 0.267327 0
M  V30 3830 H 360.036 -3.90252 0.28613 0
M  V30 3831 H 359.659 -3.71434 -1.41853 0
M  V30 3832 N 360.656 0.0484629 -1.57525 0
M  V30 3833 C 361.884 0.755421 -1.92616 0
M  V30 3834 C 362.299 1.69919 -0.822984 0
M  V30 3835 O 361.656 1.81378 0.202085 0
M  V30 3836 C 361.707 1.52915 -3.27566 0
M  V30 3837 O 361.428 0.62329 -4.33644 0
M  V30 3838 C 362.929 2.33502 -3.76818 0
M  V30 3839 H 360.149 0.213465 -0.63614 0
M  V30 3840 H 362.693 0.0117698 -2.04497 0
M  V30 3841 H 360.848 2.22486 -3.17142 0
M  V30 3842 H 361.262 1.16383 -5.11425 0
M  V30 3843 H 362.736 2.83214 -4.73808 0
M  V30 3844 H 363.213 3.14068 -3.07014 0
M  V30 3845 H 363.819 1.69043 -3.90262 0
M  V30 3846 N 362.134 1.5431 0.320358 0
M  V30 3847 C 363.55 1.45091 0.664889 0
M  V30 3848 C 363.75 0.626382 1.91517 0
M  V30 3849 O 362.806 0.126443 2.52183 0
M  V30 3850 C 364.119 2.88848 0.83591 0
M  V30 3851 C 365.667 2.9877 0.933046 0
M  V30 3852 C 366.142 4.43683 1.13621 0
M  V30 3853 N 367.633 4.47309 1.20287 0
M  V30 3854 C 368.368 5.56595 1.37801 0
M  V30 3855 N 367.864 6.75844 1.52338 0
M  V30 3856 N 369.657 5.44248 1.40535 0
M  V30 3857 H 361.808 2.06398 -0.501374 0
M  V30 3858 H 364.071 0.933963 -0.162534 0
M  V30 3859 H 363.777 3.51698 -0.0116092 0
M  V30 3860 H 363.651 3.35148 1.73078 0
M  V30 3861 H 366.038 2.36045 1.77107 0
M  V30 3862 H 366.119 2.55796 0.0145782 0
M  V30 3863 H 365.763 5.06995 0.303032 0
M  V30 3864 H 365.693 4.84269 2.0686 0
M  V30 3865 H 368.184 3.61388 1.10485 0
M  V30 3866 H 368.497 7.54892 1.65403 0
M  V30 3867 H 366.842 6.78746 1.4943 0
M  V30 3868 H 370.033 4.50038 1.28777 0
M  V30 3869 H 370.206 6.29473 1.53842 0
M  V30 3870 N 363.613 -0.582584 1.46437 0
M  V30 3871 C 364.859 -1.34278 1.51978 0
M  V30 3872 C 365.192 -1.93446 0.170973 0
M  V30 3873 O 364.467 -1.76481 -0.817608 0
M  V30 3874 C 364.75 -2.47203 2.61845 0
M  V30 3875 C 364.603 -1.93069 4.06257 0
M  V30 3876 C 365.922 -3.49247 2.67795 0
M  V30 3877 H 363.041 -0.486876 0.553282 0
M  V30 3878 H 365.683 -0.654437 1.78374 0
M  V30 3879 H 363.833 -3.0592 2.39469 0
M  V30 3880 H 365.505 -1.38808 4.3992 0
M  V30 3881 H 363.748 -1.23898 4.1573 0
M  V30 3882 H 364.419 -2.74586 4.7886 0
M  V30 3883 H 366.895 -3.00411 2.8791 0
M  V30 3884 H 365.771 -4.25719 3.46489 0
M  V30 3885 H 366.032 -4.06482 1.73852 0
M  V30 3886 N 365.091 -1.34144 -0.827227 0
M  V30 3887 C 366.023 -1.21206 -1.9453 0
M  V30 3888 C 367.036 -0.140176 -1.62195 0
M  V30 3889 O 368.225 -0.391647 -1.7415 0
M  V30 3890 C 365.325 -0.839141 -3.28347 0
M  V30 3891 C 364.498 -2.0051 -3.88734 0
M  V30 3892 C 363.557 -1.61128 -5.00923 0
M  V30 3893 O 362.583 -2.32726 -5.19449 0
M  V30 3894 N 363.785 -0.522958 -5.7814 0
M  V30 3895 H 366.55 -2.17525 -2.06162 0
M  V30 3896 H 364.111 -1.27043 -1.00358 0
M  V30 3897 H 366.103 -0.557556 -4.00841 0
M  V30 3898 H 364.673 0.0337293 -3.12582 0
M  V30 3899 H 363.893 -2.45166 -3.08686 0
M  V30 3900 H 365.181 -2.78498 -4.25812 0
M  V30 3901 H 364.579 0.0723518 -5.65654 0
M  V30 3902 H 363.136 -0.301089 -6.51104 0
M  V30 3903 N 366.569 1.04691 -1.17803 0
M  V30 3904 C 367.98 1.59238 -0.974689 0
M  V30 3905 C 368.331 1.90306 0.477292 0
M  V30 3906 O 367.456 1.68846 1.35352 0
M  V30 3907 C 368.051 2.89318 -1.76296 0
M  V30 3908 C 366.61 3.40506 -1.60414 0
M  V30 3909 C 365.757 2.14172 -1.76141 0
M  V30 3910 H 368.708 0.874395 -1.32439 0
M  V30 3911 H 368.729 3.5944 -1.24833 0
M  V30 3912 H 368.241 2.66675 -2.81968 0
M  V30 3913 H 366.342 3.68175 -0.572519 0
M  V30 3914 H 366.455 4.14753 -2.39827 0
M  V30 3915 H 364.819 2.25176 -1.19028 0
M  V30 3916 H 365.602 1.93992 -2.83235 0
M  V30 3917 N 368.047 0.979072 1.23499 0
M  V30 3918 C 369.01 0.523244 2.23147 0
M  V30 3919 C 370.01 -0.386406 1.56088 0
M  V30 3920 O 371.2 -0.180283 1.73265 0
M  V30 3921 C 368.332 -0.240739 3.40049 0
M  V30 3922 H 369.525 1.40432 2.64989 0
M  V30 3923 H 367.078 0.764824 1.36309 0
M  V30 3924 H 367.813 -1.13841 3.03662 0
M  V30 3925 H 367.598 0.412207 3.89927 0
M  V30 3926 H 369.088 -0.548297 4.13985 0
M  V30 3927 N 369.525 -1.3858 0.750561 0
M  V30 3928 C 370.472 -2.30483 0.120835 0
M  V30 3929 C 371.442 -1.50022 -0.712923 0
M  V30 3930 O 372.627 -1.78662 -0.669676 0
M  V30 3931 C 369.767 -3.36431 -0.768666 0
M  V30 3932 C 368.88 -4.31927 0.0793922 0
M  V30 3933 C 368.015 -5.24944 -0.81283 0
M  V30 3934 C 367.054 -6.12088 0.0390447 0
M  V30 3935 N 366.191 -6.97412 -0.809969 0
M  V30 3936 H 371.031 -2.83761 0.91015 0
M  V30 3937 H 368.568 -1.39707 0.460463 0
M  V30 3938 H 370.526 -3.96462 -1.29898 0
M  V30 3939 H 369.156 -2.8457 -1.5238 0
M  V30 3940 H 368.208 -3.73382 0.727303 0
M  V30 3941 H 369.52 -4.93319 0.737401 0
M  V30 3942 H 368.674 -5.90078 -1.41042 0
M  V30 3943 H 367.413 -4.63911 -1.50458 0
M  V30 3944 H 366.418 -5.45952 0.649328 0
M  V30 3945 H 367.643 -6.75189 0.727809 0
M  V30 3946 H 365.589 -6.38931 -1.48672 0
M  V30 3947 H 365.506 -7.55712 -0.208789 0
M  V30 3948 H 366.774 -7.66959 -1.39263 0
M  V30 3949 N 371.003 -0.499398 -1.49478 0
M  V30 3950 C 372.228 0.044722 -2.07352 0
M  V30 3951 C 372.653 1.30207 -1.35749 0
M  V30 3952 O 372.011 1.76516 -0.413732 0
M  V30 3953 C 372.059 0.283013 -3.59488 0
M  V30 3954 O 371.163 1.35804 -3.89398 0
M  V30 3955 H 370.504 -0.0255147 -0.66351 0
M  V30 3956 H 373.034 -0.698561 -1.92305 0
M  V30 3957 H 373.044 0.515007 -4.04737 0
M  V30 3958 H 371.719 -0.635636 -4.11014 0
M  V30 3959 H 370.296 1.11113 -3.55961 0
M  V30 3960 N 372.481 1.55866 -0.233164 0
M  V30 3961 C 373.431 2.17442 0.685774 0
M  V30 3962 C 374.415 1.12617 1.14918 0
M  V30 3963 O 375.607 1.3857 1.10124 0
M  V30 3964 C 372.736 2.86685 1.88856 0
M  V30 3965 C 371.822 3.98749 1.4443 0
M  V30 3966 N 372.213 5.00744 0.713364 0
M  V30 3967 C 370.511 4.11052 1.73068 0
M  V30 3968 C 371.212 5.79673 0.485205 0
M  V30 3969 N 370.188 5.33454 1.04536 0
M  V30 3970 H 373.99 2.93659 0.119022 0
M  V30 3971 H 371.504 1.62362 -0.0348995 0
M  V30 3972 H 373.501 3.29218 2.55776 0
M  V30 3973 H 372.161 2.11967 2.45967 0
M  V30 3974 H 373.172 5.16613 0.364861 0
M  V30 3975 H 369.849 3.47495 2.31416 0
M  V30 3976 H 371.239 6.71829 -0.097365 0
M  V30 3977 N 373.959 -0.0401083 1.57549 0
M  V30 3978 C 375.375 -0.395556 1.54621 0
M  V30 3979 C 375.575 -1.77281 0.957799 0
M  V30 3980 O 374.631 -2.45888 0.574031 0
M  V30 3981 C 375.944 -0.307535 2.99123 0
M  V30 3982 C 377.492 -0.385425 3.10618 0
M  V30 3983 C 377.967 -0.326973 4.56831 0
M  V30 3984 N 379.458 -0.386102 4.61588 0
M  V30 3985 C 380.193 -0.363591 5.72246 0
M  V30 3986 N 379.689 -0.29402 6.92176 0
M  V30 3987 N 381.482 -0.412503 5.60584 0
M  V30 3988 H 373.633 0.861325 1.94152 0
M  V30 3989 H 375.896 0.326445 0.890021 0
M  V30 3990 H 375.602 0.638461 3.45856 0
M  V30 3991 H 375.476 -1.10552 3.60636 0
M  V30 3992 H 377.863 -1.32185 2.63839 0
M  V30 3993 H 377.944 0.44171 2.51957 0
M  V30 3994 H 377.588 0.605738 5.04275 0
M  V30 3995 H 377.518 -1.17207 5.13391 0
M  V30 3996 H 380.009 -0.442832 3.75296 0
M  V30 3997 H 380.322 -0.28164 7.72287 0
M  V30 3998 H 378.667 -0.260232 6.94513 0
M  V30 3999 H 381.858 -0.464769 4.65787 0
M  V30 4000 H 382.031 -0.391492 6.46816 0
M  V30 4001 N 375.437 -1.54477 -0.31217 0
M  V30 4002 C 376.685 -1.72884 -1.04668 0
M  V30 4003 C 377.006 -0.511477 -1.88173 0
M  V30 4004 O 376.276 0.474407 -1.90069 0
M  V30 4005 H 374.856 -0.637461 -0.389425 0
M  V30 4006 H 377.518 -1.91807 -0.345852 0
M  V30 4007 H 376.614 -2.61334 -1.70619 0
M  V30 4008 N 376.915 0.57481 -1.46744 0
M  V30 4009 C 378.162 1.33272 -1.52462 0
M  V30 4010 C 378.49 1.93669 -0.179572 0
M  V30 4011 O 377.745 1.7743 0.825664 0
M  V30 4012 C 378.044 2.476 -2.57738 0
M  V30 4013 C 377.71 2.05146 -4.01529 0
M  V30 4014 C 376.372 1.93284 -4.40676 0
M  V30 4015 C 378.724 1.72506 -4.91824 0
M  V30 4016 C 376.052 1.47049 -5.67973 0
M  V30 4017 C 378.404 1.27748 -6.19567 0
M  V30 4018 C 377.068 1.14468 -6.57612 0
M  V30 4019 H 376.338 0.487678 -0.557899 0
M  V30 4020 H 378.985 0.646456 -1.80259 0
M  V30 4021 H 377.29 3.21708 -2.23632 0
M  V30 4022 H 378.987 3.05807 -2.5939 0
M  V30 4023 H 375.577 2.15316 -3.7059 0
M  V30 4024 H 379.761 1.80552 -4.62293 0
M  V30 4025 H 375.017 1.35417 -5.96215 0
M  V30 4026 H 379.191 1.01547 -6.88957 0
M  V30 4027 H 376.818 0.78419 -7.56145 0
M  V30 4028 N 378.394 1.34581 0.820102 0
M  V30 4029 C 379.342 1.26401 1.95258 0
M  V30 4030 C 380.336 0.161553 1.68628 0
M  V30 4031 O 381.542 0.326703 1.7701 0
M  V30 4032 H 377.917 0.392749 0.64129 0
M  V30 4033 H 379.888 2.22105 1.99279 0
M  V30 4034 C 378.637 1.03919 3.31807 0
M  V30 4035 H 377.96 1.87984 3.52848 0
M  V30 4036 H 379.4 1.02232 4.11491 0
M  V30 4037 C 377.859 -0.257433 3.35915 0
M  V30 4038 O 378.389 -1.25784 3.81499 0
M  V30 4039 N 376.595 -0.291524 2.89134 0
M  V30 4040 H 376.142 0.523161 2.52232 0
M  V30 4041 H 376.1 -1.15883 2.92264 0
M  V30 4042 N 379.872 -1.04064 1.18357 0
M  V30 4043 C 380.835 -2.10243 0.912707 0
M  V30 4044 C 381.835 -1.60477 -0.101928 0
M  V30 4045 O 383.025 -1.73703 0.131517 0
M  V30 4046 C 380.157 -3.38893 0.369387 0
M  V30 4047 H 381.35 -2.35706 1.85426 0
M  V30 4048 H 378.903 -1.20489 0.995594 0
M  V30 4049 H 379.638 -3.19094 -0.578776 0
M  V30 4050 H 379.423 -3.76331 1.1008 0
M  V30 4051 H 380.913 -4.17128 0.198575 0
M  V30 4052 N 381.35 -0.985608 -1.22978 0
M  V30 4053 C 382.283 -0.47487 -2.23204 0
M  V30 4054 C 383.261 0.460865 -1.55932 0
M  V30 4055 O 384.445 0.388105 -1.84461 0
M  V30 4056 C 381.572 0.312427 -3.37256 0
M  V30 4057 C 380.618 -0.568219 -4.22698 0
M  V30 4058 S 381.451 -2.01919 -4.95973 0
M  V30 4059 C 382.607 -1.24118 -6.1347 0
M  V30 4060 H 382.84 -1.32419 -2.66181 0
M  V30 4061 H 380.373 -0.792005 -1.32539 0
M  V30 4062 H 382.331 0.760645 -4.03391 0
M  V30 4063 H 380.992 1.13693 -2.92801 0
M  V30 4064 H 380.185 0.0371657 -5.03986 0
M  V30 4065 H 379.787 -0.952897 -3.61657 0
M  V30 4066 H 382.079 -0.505121 -6.75614 0
M  V30 4067 H 383.022 -2.02907 -6.78406 0
M  V30 4068 H 383.43 -0.757669 -5.59392 0
M  V30 4069 N 382.828 1.3818 -0.7579 0
M  V30 4070 C 384.056 2.04301 -0.326937 0
M  V30 4071 C 384.471 1.57163 1.0462 0
M  V30 4072 O 383.828 0.746626 1.66529 0
M  V30 4073 C 383.879 3.59846 -0.345363 0
M  V30 4074 O 383.6 4.05256 -1.66432 0
M  V30 4075 C 385.101 4.4319 0.098927 0
M  V30 4076 H 382.321 0.656443 -0.139012 0
M  V30 4077 H 384.865 1.76786 -1.02796 0
M  V30 4078 H 383.02 3.86182 0.306955 0
M  V30 4079 H 383.434 4.99709 -1.59345 0
M  V30 4080 H 384.908 5.51989 0.0348745 0
M  V30 4081 H 385.385 4.23947 1.14741 0
M  V30 4082 H 385.991 4.22051 -0.52468 0
M  V30 4083 N 384.306 0.507319 1.49211 0
M  V30 4084 C 385.717 0.0611118 1.866 0
M  V30 4085 C 386.068 -1.35488 1.41907 0
M  V30 4086 O 385.193 -2.0108 0.799726 0
M  V30 4087 C 385.788 0.104125 3.3864 0
M  V30 4088 C 384.347 -0.28677 3.75306 0
M  V30 4089 C 383.494 0.473893 2.73221 0
M  V30 4090 H 386.445 0.719775 1.41439 0
M  V30 4091 H 386.466 -0.689672 3.74198 0
M  V30 4092 H 385.978 1.13482 3.71138 0
M  V30 4093 H 384.079 -1.32046 3.48417 0
M  V30 4094 H 384.192 0.0370745 4.79086 0
M  V30 4095 H 382.556 -0.0770644 2.54583 0
M  V30 4096 H 383.339 1.50478 3.08563 0
M  V30 4097 N 385.784 -1.5574 0.241426 0
M  V30 4098 C 387.03 -1.99846 -0.378555 0
M  V30 4099 C 387.385 -1.12665 -1.55963 0
M  V30 4100 O 386.678 -0.180966 -1.90743 0
M  V30 4101 C 386.872 -3.47308 -0.843317 0
M  V30 4102 C 386.701 -4.48756 0.291178 0
M  V30 4103 C 385.471 -4.9949 0.764077 0
M  V30 4104 C 387.669 -5.02039 1.11631 0
M  V30 4105 N 385.651 -5.84676 1.87156 0
M  V30 4106 C 387.022 -5.84343 2.07226 0
M  V30 4107 C 389.077 -4.84354 1.15349 0
M  V30 4108 C 387.78 -6.50851 3.06245 0
M  V30 4109 C 389.806 -5.51636 2.13195 0
M  V30 4110 C 389.168 -6.33724 3.07528 0
M  V30 4111 H 385.267 -0.774968 -0.104634 0
M  V30 4112 H 387.851 -1.91385 0.357751 0
M  V30 4113 H 386.022 -3.56178 -1.54893 0
M  V30 4114 H 387.754 -3.78299 -1.43779 0
M  V30 4115 H 384.509 -4.72311 0.349175 0
M  V30 4116 H 384.933 -6.31967 2.42789 0
M  V30 4117 H 389.575 -4.20525 0.438057 0
M  V30 4118 H 387.293 -7.1385 3.78739 0
M  V30 4119 H 390.879 -5.39909 2.16771 0
M  V30 4120 H 389.759 -6.84867 3.82003 0
M  V30 4121 N 387.262 0.0317525 -1.57568 0
M  V30 4122 C 388.49 0.734949 -1.93407 0
M  V30 4123 C 388.905 1.69036 -0.84096 0
M  V30 4124 O 388.262 1.81582 0.182836 0
M  V30 4125 C 388.313 1.49432 -3.29169 0
M  V30 4126 O 388.034 0.577261 -4.3428 0
M  V30 4127 C 389.535 2.29492 -3.79273 0
M  V30 4128 H 386.755 0.206706 -0.638368 0
M  V30 4129 H 389.299 -0.00992046 -2.04498 0
M  V30 4130 H 387.454 2.1911 -3.19483 0
M  V30 4131 H 387.868 1.10952 -5.1263 0
M  V30 4132 H 389.342 2.78172 -4.76785 0
M  V30 4133 H 389.819 3.10794 -3.10328 0
M  V30 4134 H 390.425 1.64894 -3.92033 0
M  V30 4135 N 388.74 1.54641 0.303973 0
M  V30 4136 C 389.65 1.88439 1.39743 0
M  V30 4137 C 390.666 0.778239 1.55626 0
M  V30 4138 O 391.842 1.07442 1.70347 0
M  V30 4139 C 388.907 2.12212 2.74166 0
M  V30 4140 C 387.968 3.35936 2.67293 0
M  V30 4141 C 387.201 3.58566 3.95305 0
M  V30 4142 O 387.424 2.84263 4.9452 0
M  V30 4143 O 386.358 4.52078 3.97378 0
M  V30 4144 H 390.184 2.81458 1.14083 0
M  V30 4145 H 387.769 1.40793 0.499768 0
M  V30 4146 H 389.651 2.29067 3.53704 0
M  V30 4147 H 388.326 1.22379 2.99675 0
M  V30 4148 H 387.233 3.24448 1.86237 0
M  V30 4149 H 388.566 4.2589 2.46736 0
M  V30 4150 N 390.218 -0.567019 1.47046 0
M  V30 4151 C 391.443 -1.3551 1.57009 0
M  V30 4152 C 391.868 -1.86841 0.217259 0
M  V30 4153 O 391.226 -1.62435 -0.805268 0
M  V30 4154 C 391.274 -2.50777 2.5912 0
M  V30 4155 O 390.378 -3.52706 2.13711 0
M  V30 4156 H 389.719 -0.402919 0.52778 0
M  V30 4157 H 392.249 -0.686241 1.92748 0
M  V30 4158 H 392.259 -2.97481 2.79229 0
M  V30 4159 H 390.934 -2.12771 3.57353 0
M  V30 4160 H 389.511 -3.12374 2.03659 0
M  V30 4161 N 391.696 -1.35014 -0.812953 0
M  V30 4162 C 392.659 -1.27292 -1.90602 0
M  V30 4163 C 393.659 -0.185817 -1.59723 0
M  V30 4164 O 394.849 -0.439102 -1.68575 0
M  V30 4165 C 391.981 -0.967676 -3.26877 0
M  V30 4166 H 393.174 -2.24479 -1.9887 0
M  V30 4167 H 390.727 -1.19446 -1.00808 0
M  V30 4168 H 391.462 0.0005954 -3.243 0
M  V30 4169 H 391.247 -1.75412 -3.50675 0
M  V30 4170 H 392.737 -0.939085 -4.06904 0
M  V30 4171 N 393.175 1.03435 -1.18907 0
M  V30 4172 C 394.122 2.11591 -0.921837 0
M  V30 4173 C 395.092 1.65499 0.141226 0
M  V30 4174 O 396.277 1.908 0.000242829 0
M  V30 4175 C 393.417 3.42012 -0.460616 0
M  V30 4176 C 392.53 4.01682 -1.58982 0
M  V30 4177 C 391.665 5.20091 -1.08069 0
M  V30 4178 C 390.704 5.71805 -2.18416 0
M  V30 4179 N 389.841 6.81494 -1.68849 0
M  V30 4180 H 394.681 2.33787 -1.8479 0
M  V30 4181 H 392.218 1.1467 -0.921373 0
M  V30 4182 H 394.176 4.16834 -0.174642 0
M  V30 4183 H 392.806 3.19944 0.428467 0
M  V30 4184 H 391.858 3.24127 -1.99113 0
M  V30 4185 H 393.17 4.36084 -2.4214 0
M  V30 4186 H 392.324 6.02051 -0.749615 0
M  V30 4187 H 391.063 4.87209 -0.218771 0
M  V30 4188 H 390.068 4.88461 -2.5236 0
M  V30 4189 H 391.293 6.06728 -3.05054 0
M  V30 4190 H 389.239 6.50475 -0.849572 0
M  V30 4191 H 389.156 7.14994 -2.45601 0
M  V30 4192 H 390.424 7.67063 -1.38689 0
M  V30 4193 N 394.653 0.992116 1.22453 0
M  V30 4194 C 395.93 0.583508 1.86694 0
M  V30 4195 C 396.31 -0.9392 1.89056 0
M  V30 4196 O 395.658 -1.82081 1.38053 0
M  V30 4197 C 395.868 1.20304 3.2761 0
M  V30 4198 C 397.216 1.30308 4.0411 0
M  V30 4199 O 398.24 1.15737 3.36873 0
M  V30 4200 O 397.099 1.53615 5.24466 0
M  V30 4201 H 394.193 0.198129 0.802916 0
M  V30 4202 H 396.739 1.08794 1.30238 0
M  V30 4203 H 395.511 2.24461 3.2052 0
M  V30 4204 H 395.134 0.684144 3.9167 0
M  V30 4205 N 396.131 -1.37776 0.765217 0
M  V30 4206 C 397.094 -2.28686 0.153416 0
M  V30 4207 C 398.094 -1.47727 -0.635081 0
M  V30 4208 O 399.284 -1.68027 -0.459632 0
M  V30 4209 C 396.416 -3.31608 -0.790495 0
M  V30 4210 H 397.609 -2.84297 0.954723 0
M  V30 4211 H 395.162 -1.46932 0.53299 0
M  V30 4212 H 395.897 -2.81109 -1.61705 0
M  V30 4213 H 395.682 -3.9144 -0.227348 0
M  V30 4214 H 397.172 -3.99559 -1.21419 0
M  V30 4215 N 397.609 -0.515225 -1.4894 0
M  V30 4216 C 398.834 0.022727 -2.07388 0
M  V30 4217 C 399.259 1.2876 -1.37122 0
M  V30 4218 O 398.617 1.76067 -0.432431 0
M  V30 4219 C 398.665 0.244869 -3.59768 0
M  V30 4220 O 397.769 1.31667 -3.90817 0
M  V30 4221 H 397.11 -0.0325506 -0.663202 0
M  V30 4222 H 399.64 -0.718918 -1.91553 0
M  V30 4223 H 399.65 0.47205 -4.0526 0
M  V30 4224 H 398.325 -0.679194 -4.10317 0
M  V30 4225 H 396.902 1.07331 -3.5712 0
M  V30 4226 N 399.087 1.5561 -0.249682 0
M  V30 4227 C 400.034 2.21496 0.648694 0
M  V30 4228 C 401.004 1.17977 1.16921 0
M  V30 4229 O 402.189 1.46434 1.22318 0
M  V30 4230 C 399.329 2.92039 1.83868 0
M  V30 4231 C 398.442 4.10219 1.35442 0
M  V30 4232 C 397.577 4.6847 2.50419 0
M  V30 4233 C 396.616 5.78893 1.98869 0
M  V30 4234 N 395.753 6.31315 3.07223 0
M  V30 4235 H 400.593 2.97892 0.0801582 0
M  V30 4236 H 398.13 1.47074 0.0278031 0
M  V30 4237 H 400.088 3.31138 2.53778 0
M  V30 4238 H 398.718 2.18111 2.37965 0
M  V30 4239 H 397.77 3.76413 0.54928 0
M  V30 4240 H 399.082 4.89927 0.936649 0
M  V30 4241 H 398.236 5.10158 3.28366 0
M  V30 4242 H 396.975 3.87984 2.95499 0
M  V30 4243 H 395.98 5.3668 1.19393 0
M  V30 4244 H 397.205 6.61232 1.54755 0
M  V30 4245 H 395.151 5.53733 3.51732 0
M  V30 4246 H 395.068 7.06224 2.69784 0
M  V30 4247 H 396.336 6.77662 3.8522 0
M  V30 4248 N 400.565 -0.0233959 1.57583 0
M  V30 4249 C 401.813 -0.711654 1.89156 0
M  V30 4250 C 402.134 -1.75591 0.848096 0
M  V30 4251 O 401.404 -1.95547 -0.117566 0
M  V30 4252 H 399.984 -0.265835 0.698098 0
M  V30 4253 H 402.646 0.0119948 1.94896 0
M  V30 4254 H 401.742 -1.19766 2.88206 0
M  V30 4255 N 402.043 -1.548 -0.295768 0
M  V30 4256 C 403.292 -1.73538 -1.02798 0
M  V30 4257 C 403.605 -0.531159 -1.8825 0
M  V30 4258 O 404.811 -0.600458 -2.64777 0
M  V30 4259 C 403.267 -3.07051 -1.87744 0
M  V30 4260 C 402.875 -4.34968 -1.07269 0
M  V30 4261 C 404.619 -3.35146 -2.60533 0
M  V30 4262 C 402.526 -5.5953 -1.91521 0
M  V30 4263 H 401.456 -0.646794 -0.387522 0
M  V30 4264 H 404.107 -1.81278 -0.284718 0
M  V30 4265 H 402.489 -2.93289 -2.66078 0
M  V30 4266 H 403.663 -4.5958 -0.335117 0
M  V30 4267 H 401.978 -4.13847 -0.460384 0
M  V30 4268 H 404.575 -4.2541 -3.23929 0
M  V30 4269 H 404.918 -2.54255 -3.29636 0
M  V30 4270 H 405.451 -3.49902 -1.89244 0
M  V30 4271 H 402.19 -6.43103 -1.26878 0
M  V30 4272 H 401.71 -5.39096 -2.62937 0
M  V30 4273 H 403.389 -5.96982 -2.49442 0
M  V30 4274 N 403.521 0.559213 -1.47345 0
M  V30 4275 C 404.454 1.68201 -1.5422 0
M  V30 4276 C 405.432 1.57742 -0.394497 0
M  V30 4277 O 406.616 1.78628 -0.60201 0
M  V30 4278 C 403.743 3.0643 -1.44285 0
M  V30 4279 C 402.789 3.3534 -2.63532 0
M  V30 4280 S 403.622 3.24816 -4.25741 0
M  V30 4281 C 404.778 4.65542 -4.18355 0
M  V30 4282 H 405.011 1.62114 -2.49211 0
M  V30 4283 H 402.544 0.739871 -1.35519 0
M  V30 4284 H 404.502 3.86164 -1.3924 0
M  V30 4285 H 403.163 3.09984 -0.506816 0
M  V30 4286 H 402.356 4.36107 -2.52639 0
M  V30 4287 H 401.958 2.63221 -2.65689 0
M  V30 4288 H 404.25 5.56449 -3.86485 0
M  V30 4289 H 405.193 4.81493 -5.19202 0
M  V30 4290 H 405.601 4.43495 -3.49246 0
M  V30 4291 N 404.999 1.35443 0.805782 0
M  V30 4292 C 405.962 1.28301 1.89925 0
M  V30 4293 C 406.962 0.194285 1.59622 0
M  V30 4294 O 408.152 0.448036 1.6834 0
M  V30 4295 C 405.284 0.984997 3.2636 0
M  V30 4296 H 406.477 2.2553 1.97677 0
M  V30 4297 H 404.03 1.19979 1.00173 0
M  V30 4298 H 404.765 0.016603 3.24296 0
M  V30 4299 H 404.55 1.77269 3.4974 0
M  V30 4300 H 406.04 0.960651 4.064 0
M  V30 4301 N 406.477 -1.02803 1.19454 0
M  V30 4302 C 407.424 -2.11099 0.933046 0
M  V30 4303 C 408.394 -1.65571 -0.132447 0
M  V30 4304 O 409.579 -1.90797 0.00987576 0
M  V30 4305 C 406.719 -3.41763 0.478747 0
M  V30 4306 C 405.832 -4.00833 1.6111 0
M  V30 4307 C 404.967 -5.19511 1.10825 0
M  V30 4308 C 404.006 -5.70639 2.21445 0
M  V30 4309 N 403.143 -6.80589 1.72461 0
M  V30 4310 H 407.983 -2.32804 1.86028 0
M  V30 4311 H 405.52 -1.14179 0.927441 0
M  V30 4312 H 407.478 -4.16736 0.196745 0
M  V30 4313 H 406.108 -3.20166 -0.411493 0
M  V30 4314 H 405.16 -3.23066 2.00829 0
M  V30 4315 H 406.472 -4.34794 2.4445 0
M  V30 4316 H 405.626 -6.01645 0.781533 0
M  V30 4317 H 404.365 -4.87086 0.244606 0
M  V30 4318 H 403.37 -4.87116 2.54947 0
M  V30 4319 H 404.595 -6.05102 3.08267 0
M  V30 4320 H 402.541 -6.50016 0.884056 0
M  V30 4321 H 402.458 -7.13681 2.49389 0
M  V30 4322 H 403.726 -7.66317 1.42755 0
M  V30 4323 N 407.956 -0.998596 -1.21925 0
M  V30 4324 C 409.205 -0.673085 -1.90138 0
M  V30 4325 C 409.518 0.79895 -1.78539 0
M  V30 4326 O 410.724 1.23628 -2.4172 0
M  V30 4327 C 409.18 -1.15339 -3.40918 0
M  V30 4328 C 408.788 -2.65106 -3.61141 0
M  V30 4329 C 410.532 -0.902476 -4.14796 0
M  V30 4330 C 408.439 -3.0671 -5.05651 0
M  V30 4331 H 407.369 -0.248057 -0.712028 0
M  V30 4332 H 410.02 -1.20891 -1.38049 0
M  V30 4333 H 408.402 -0.545658 -3.92223 0
M  V30 4334 H 409.576 -3.31274 -3.20304 0
M  V30 4335 H 407.891 -2.88142 -3.00605 0
M  V30 4336 H 410.488 -1.18895 -5.21314 0
M  V30 4337 H 410.831 0.161349 -4.15987 0
M  V30 4338 H 411.364 -1.47269 -3.69536 0
M  V30 4339 H 408.103 -4.12292 -5.09603 0
M  V30 4340 H 407.623 -2.45249 -5.47369 0
M  V30 4341 H 409.302 -2.9833 -5.74115 0
M  V30 4342 N 409.434 1.37368 -0.772513 0
M  V30 4343 C 410.662 2.03942 -0.348588 0
M  V30 4344 C 411.077 1.58264 1.02947 0
M  V30 4345 O 410.434 0.764246 1.65727 0
M  V30 4346 C 410.485 3.5946 -0.38351 0
M  V30 4347 O 410.206 4.03468 -1.70721 0
M  V30 4348 C 411.707 4.4327 0.0519152 0
M  V30 4349 H 408.927 0.654931 -0.145966 0
M  V30 4350 H 411.471 1.75686 -1.04665 0
M  V30 4351 H 409.626 3.86486 0.265978 0
M  V30 4352 H 410.04 4.97991 -1.64636 0
M  V30 4353 H 411.514 5.51995 -0.0236733 0
M  V30 4354 H 411.991 4.2514 1.10238 0
M  V30 4355 H 412.597 4.21471 -0.569415 0
M  V30 4356 N 410.912 0.523116 1.48665 0
M  V30 4357 C 412.16 -0.0134497 2.02096 0
M  V30 4358 C 412.481 -1.35418 1.40311 0
M  V30 4359 O 411.751 -1.87543 0.566074 0
M  V30 4360 H 410.331 -0.00795915 0.746958 0
M  V30 4361 H 412.993 0.685388 1.82451 0
M  V30 4362 H 412.089 -0.126849 3.11842 0
M  V30 4363 N 412.39 -1.55475 0.257931 0
M  V30 4364 C 413.618 -2.03609 -0.367559 0
M  V30 4365 C 414.033 -1.13687 -1.50734 0
M  V30 4366 O 413.39 -0.153479 -1.81853 0
M  V30 4367 C 413.441 -3.51001 -0.864908 0
M  V30 4368 O 413.162 -4.37499 0.229465 0
M  V30 4369 C 414.663 -4.14946 -1.55997 0
M  V30 4370 H 411.883 -0.665459 -0.0860521 0
M  V30 4371 H 414.427 -2.00843 0.385014 0
M  V30 4372 H 412.582 -3.54266 -1.56762 0
M  V30 4373 H 412.996 -5.24286 -0.14998 0
M  V30 4374 H 414.47 -5.19735 -1.85956 0
M  V30 4375 H 414.947 -3.6209 -2.4857 0
M  V30 4376 H 415.553 -4.15635 -0.901543 0
M  V30 4377 N 413.868 0.0150385 -1.57593 0
M  V30 4378 C 415.279 0.559832 -1.78109 0
M  V30 4379 C 415.63 1.74814 -0.890756 0
M  V30 4380 O 414.755 2.16216 -0.0892482 0
M  V30 4381 C 415.35 1.02238 -3.23006 0
M  V30 4382 C 413.909 1.51258 -3.44671 0
M  V30 4383 C 413.056 0.456955 -2.73509 0
M  V30 4384 H 416.007 -0.211169 -1.57289 0
M  V30 4385 H 416.028 1.88912 -3.30292 0
M  V30 4386 H 415.54 0.157302 -3.87781 0
M  V30 4387 H 413.641 2.39905 -2.8509 0
M  V30 4388 H 413.754 1.55042 -4.5332 0
M  V30 4389 H 412.118 0.915196 -2.37689 0
M  V30 4390 H 412.901 -0.398896 -3.40975 0
M  V30 4391 N 415.346 1.54954 0.287554 0
M  V30 4392 C 416.574 1.78881 1.03967 0
M  V30 4393 C 416.989 0.554894 1.80462 0
M  V30 4394 O 416.346 -0.475676 1.76192 0
M  V30 4395 C 416.397 3.00488 2.0097 0
M  V30 4396 O 416.118 4.19113 1.27577 0
M  V30 4397 C 417.619 3.36907 2.88112 0
M  V30 4398 H 414.839 0.596259 0.307761 0
M  V30 4399 H 417.383 2.01937 0.322749 0
M  V30 4400 H 415.538 2.79601 2.68145 0
M  V30 4401 H 415.952 4.87765 1.92835 0
M  V30 4402 H 417.426 4.25205 3.52001 0
M  V30 4403 H 417.903 2.55659 3.57121 0
M  V30 4404 H 418.509 3.60001 2.26449 0
M  V30 4405 N 416.824 -0.551391 1.4764 0
M  V30 4406 C 418.101 -1.31229 1.45046 0
M  V30 4407 C 418.481 -2.10563 0.150527 0
M  V30 4408 O 417.829 -2.11374 -0.867956 0
M  V30 4409 C 418.039 -2.21189 2.69956 0
M  V30 4410 C 419.387 -2.82021 3.1741 0
M  V30 4411 O 420.411 -2.31488 2.70724 0
M  V30 4412 O 419.27 -3.73885 3.98588 0
M  V30 4413 H 416.364 -0.591193 0.578291 0
M  V30 4414 H 418.91 -0.569813 1.59847 0
M  V30 4415 H 417.682 -1.62207 3.56096 0
M  V30 4416 H 417.305 -3.02722 2.57769 0
M  V30 4417 N 418.302 -1.35869 -0.798587 0
M  V30 4418 C 419.548 -1.2978 -1.55836 0
M  V30 4419 C 419.881 0.125322 -1.93795 0
M  V30 4420 O 419.156 1.07658 -1.61987 0
M  V30 4421 C 419.439 -2.21188 -2.84162 0
M  V30 4422 C 419.292 -3.72155 -2.52628 0
M  V30 4423 C 420.611 -2.11545 -3.85923 0
M  V30 4424 H 417.73 -0.472769 -0.565383 0
M  V30 4425 H 420.372 -1.66341 -0.918192 0
M  V30 4426 H 418.522 -1.90139 -3.38791 0
M  V30 4427 H 420.194 -4.13682 -2.04121 0
M  V30 4428 H 418.437 -3.92042 -1.85704 0
M  V30 4429 H 419.108 -4.31511 -3.44242 0
M  V30 4430 H 421.584 -2.38855 -3.40716 0
M  V30 4431 H 420.46 -2.77688 -4.73477 0
M  V30 4432 H 420.721 -1.09987 -4.282 0
M  V30 4433 N 419.78 1.02168 -1.19998 0
M  V30 4434 C 420.69 2.14069 -0.959774 0
M  V30 4435 C 421.706 1.73804 0.082655 0
M  V30 4436 O 422.882 2.01133 -0.103633 0
M  V30 4437 C 419.947 3.42936 -0.509459 0
M  V30 4438 C 419.008 3.97474 -1.62213 0
M  V30 4439 C 418.241 5.2019 -1.19321 0
M  V30 4440 O 418.464 5.70369 -0.0597726 0
M  V30 4441 O 417.398 5.67749 -1.99863 0
M  V30 4442 H 421.224 2.37199 -1.89658 0
M  V30 4443 H 418.809 1.12469 -0.983411 0
M  V30 4444 H 420.691 4.20551 -0.267322 0
M  V30 4445 H 419.366 3.21234 0.398821 0
M  V30 4446 H 418.273 3.21161 -1.9185 0
M  V30 4447 H 419.606 4.23555 -2.50723 0
M  V30 4448 O 421.297 1.13266 1.15122 0
M  V30 4449 H 421.988 0.848237 1.7414 0
M  V30 END ATOM
M  V30 BEGIN BOND
M  V30 END BOND
M  V30 END CTAB
M  END
$$$$
