drugbank_target|Q82ZJ0 Peptide deformylase (DB04310)
 OpenBabel12092120423D

  0  0  0     0  0            999 V3000
M  V30 BEGIN CTAB
M  V30 COUNTS 2936 2962 0 0 0
M  V30 BEGIN ATOM
M  V30 1 H -0.908 1.98254 -0.117106 0
M  V30 2 N 0 1.576 0 0
M  V30 3 C 0.933 2.03868 1.02534 0
M  V30 4 C 1.911 0.928543 1.3348 0
M  V30 5 O 3.095 1.19667 1.45644 0
M  V30 6 C 0.222 2.43627 2.35294 0
M  V30 7 C -0.732 3.65373 2.2001 0
M  V30 8 S 0.101 5.13292 1.52614 0
M  V30 9 C 1.257 5.56322 2.86805 0
M  V30 10 H 1.49 2.90518 0.631377 0
M  V30 11 H -0.977 1.52953 0.210867 0
M  V30 12 H 0.981 2.67203 3.11629 0
M  V30 13 H -0.358 1.57376 2.7183 0
M  V30 14 H -1.165 3.90944 3.18086 0
M  V30 15 H -1.563 3.418 1.51819 0
M  V30 16 H 0.729 5.58782 3.83104 0
M  V30 17 H 1.672 6.56266 2.65933 0
M  V30 18 H 2.08 4.83886 2.90714 0
M  V30 19 N 1.4781 -0.272755 1.55222 0
M  V30 20 C 2.7271 -1.00211 1.75045 0
M  V30 21 C 3.0401 -1.87441 0.559046 0
M  V30 22 O 4.2461 -2.63856 0.639698 0
M  V30 23 C 2.7021 -1.83165 3.09804 0
M  V30 24 C 2.3101 -1.008 4.36513 0
M  V30 25 C 4.0541 -2.55529 3.38977 0
M  V30 26 C 1.9611 -1.83194 5.62311 0
M  V30 27 H 0.8911 -0.377878 0.652476 0
M  V30 28 H 3.5421 -0.257776 1.8168 0
M  V30 29 H 1.9241 -2.61694 2.97207 0
M  V30 30 H 3.0981 -0.266855 4.60027 0
M  V30 31 H 1.4131 -0.398897 4.14485 0
M  V30 32 H 4.0101 -3.17578 4.30172 0
M  V30 33 H 4.3531 -3.25825 2.59121 0
M  V30 34 H 4.8861 -1.84029 3.52673 0
M  V30 35 H 1.6251 -1.17318 6.44916 0
M  V30 36 H 1.1451 -2.54905 5.4294 0
M  V30 37 H 2.8241 -2.40552 6.00619 0
M  V30 38 N 2.9562 -1.48159 -0.537278 0
M  V30 39 C 4.1842 -1.59454 -1.31841 0
M  V30 40 C 4.5992 -0.252065 -1.8711 0
M  V30 41 O 3.9562 0.757621 -1.66031 0
M  V30 42 C 4.0072 -2.63546 -2.47439 0
M  V30 43 O 3.7282 -3.92583 -1.94449 0
M  V30 44 C 5.2292 -2.85212 -3.39366 0
M  V30 45 H 2.4492 -0.53785 -0.401196 0
M  V30 46 H 4.9932 -1.93932 -0.648891 0
M  V30 47 H 3.1482 -2.31946 -3.1029 0
M  V30 48 H 3.5622 -4.49629 -2.70063 0
M  V30 49 H 5.0362 -3.61863 -4.16844 0
M  V30 50 H 5.5132 -1.93765 -3.94147 0
M  V30 51 H 6.1192 -3.18086 -2.82314 0
M  V30 52 N 4.4343 0.785586 -1.36625 0
M  V30 53 C 5.3673 1.90509 -1.25625 0
M  V30 54 C 6.3453 1.62 -0.139607 0
M  V30 55 O 7.5293 1.8591 -0.31141 0
M  V30 56 C 4.6563 3.25419 -0.939158 0
M  V30 57 C 3.7023 3.72856 -2.07077 0
M  V30 58 S 4.5353 3.88162 -3.68904 0
M  V30 59 C 5.6913 5.25942 -3.39317 0
M  V30 60 H 5.9243 1.99549 -2.20381 0
M  V30 61 H 3.4573 0.945226 -1.22085 0
M  V30 62 H 5.4153 4.03346 -0.763029 0
M  V30 63 H 4.0763 3.14099 -0.00931402 0
M  V30 64 H 3.2693 4.70624 -1.80357 0
M  V30 65 H 2.8713 3.01989 -2.20632 0
M  V30 66 H 5.1633 6.10651 -2.93447 0
M  V30 67 H 6.1063 5.57668 -4.36363 0
M  V30 68 H 6.5143 4.93224 -2.74573 0
M  V30 69 N 5.9124 1.20967 1.01018 0
M  V30 70 C 6.8594 0.964281 2.09691 0
M  V30 71 C 7.8294 -0.107853 1.65749 0
M  V30 72 O 9.0144 0.0381987 1.90762 0
M  V30 73 C 6.1544 0.52943 3.41015 0
M  V30 74 C 5.2674 1.67043 3.98398 0
M  V30 75 C 4.4024 1.18525 5.17808 0
M  V30 76 C 3.4414 2.29892 5.67288 0
M  V30 77 N 2.5784 1.82546 6.77954 0
M  V30 78 H 7.4184 1.89463 2.30017 0
M  V30 79 H 4.9554 0.944289 1.1279 0
M  V30 80 H 6.9134 0.258588 4.16398 0
M  V30 81 H 5.5434 -0.363919 3.20742 0
M  V30 82 H 4.5954 2.05603 3.20049 0
M  V30 83 H 5.9074 2.50877 4.31117 0
M  V30 84 H 5.0614 0.870762 6.00419 0
M  V30 85 H 3.8004 0.316887 4.86669 0
M  V30 86 H 2.8054 2.6215 4.83278 0
M  V30 87 H 4.0304 3.17216 6.00459 0
M  V30 88 H 1.9764 0.980454 6.48632 0
M  V30 89 H 1.8934 2.59956 7.09901 0
M  V30 90 H 3.1614 1.54115 7.64113 0
M  V30 91 N 7.3905 -1.2043 1.01659 0
M  V30 92 C 8.6675 -1.8548 0.621004 0
M  V30 93 C 9.0475 -1.9091 -0.900919 0
M  V30 94 O 8.3955 -1.41694 -1.79263 0
M  V30 95 C 8.6055 -3.25119 1.2688 0
M  V30 96 C 9.9535 -4.01403 1.38423 0
M  V30 97 O 10.9775 -3.34473 1.22501 0
M  V30 98 O 9.8365 -5.21265 1.64151 0
M  V30 99 H 6.9305 -0.798761 0.214266 0
M  V30 100 H 9.4765 -1.28019 1.11396 0
M  V30 101 H 8.2485 -3.15932 2.30873 0
M  V30 102 H 7.8715 -3.90212 0.762917 0
M  V30 103 N 8.8686 -0.792821 -1.36206 0
M  V30 104 C 10.1176 -0.363353 -1.984 0
M  V30 105 C 10.4306 1.07172 -1.63626 0
M  V30 106 O 11.6366 1.60362 -2.19081 0
M  V30 107 C 10.0926 -0.59872 -3.54885 0
M  V30 108 C 9.7006 -2.04543 -3.9858 0
M  V30 109 C 11.4446 -0.233926 -4.23855 0
M  V30 110 C 9.3516 -2.22727 -5.47856 0
M  V30 111 H 8.2816 -0.13212 -0.742334 0
M  V30 112 H 10.9326 -0.974935 -1.55458 0
M  V30 113 H 9.3146 0.0826222 -3.95914 0
M  V30 114 H 10.4886 -2.76345 -3.68741 0
M  V30 115 H 8.8036 -2.36879 -3.42458 0
M  V30 116 H 11.4006 -0.348027 -5.33566 0
M  V30 117 H 11.7436 0.818351 -4.08177 0
M  V30 118 H 12.2766 -0.868639 -3.882 0
M  V30 119 H 9.0156 -3.2635 -5.68486 0
M  V30 120 H 8.5356 -1.55434 -5.7931 0
M  V30 121 H 10.2146 -2.03607 -6.14128 0
M  V30 122 N 10.3467 1.47872 -0.545128 0
M  V30 123 C 11.5957 2.01695 -0.0145033 0
M  V30 124 C 11.9087 1.42609 1.33873 0
M  V30 125 O 13.1147 1.88021 1.95858 0
M  V30 126 C 11.5707 3.59892 0.0245068 0
M  V30 127 C 11.1787 4.27966 -1.32475 0
M  V30 128 C 12.9227 4.21507 0.50316 0
M  V30 129 C 10.8297 5.78136 -1.2455 0
M  V30 130 H 9.7597 0.753998 -0.00165172 0
M  V30 131 H 12.4107 1.69985 -0.691175 0
M  V30 132 H 10.7927 3.88509 0.766575 0
M  V30 133 H 11.9667 4.11003 -2.08357 0
M  V30 134 H 10.2817 3.78286 -1.74036 0
M  V30 135 H 12.8787 5.31538 0.580656 0
M  V30 136 H 13.2217 3.87855 1.51243 0
M  V30 137 H 13.7547 3.97376 -0.183681 0
M  V30 138 H 10.4937 6.16388 -2.23039 0
M  V30 139 H 10.0137 5.97469 -0.528282 0
M  V30 140 H 11.6927 6.40099 -0.942488 0
M  V30 141 N 11.8248 0.280983 1.55075 0
M  V30 142 C 13.2408 -0.0729964 1.59433 0
M  V30 143 C 13.4408 -1.5411 1.29817 0
M  V30 144 O 12.4968 -2.29086 1.06187 0
M  V30 145 C 13.8098 0.306921 2.9913 0
M  V30 146 C 15.3578 0.254023 3.11968 0
M  V30 147 C 15.8328 0.608467 4.5394 0
M  V30 148 N 17.3238 0.560241 4.59799 0
M  V30 149 C 18.0588 0.80722 5.6769 0
M  V30 150 N 17.5548 1.11912 6.83701 0
M  V30 151 N 19.3478 0.735623 5.57266 0
M  V30 152 H 11.4988 1.238 1.7259 0
M  V30 153 H 13.7618 0.500547 0.805082 0
M  V30 154 H 13.4678 1.32816 3.25657 0
M  V30 155 H 13.3418 -0.349363 3.75579 0
M  V30 156 H 15.7288 -0.75794 2.852 0
M  V30 157 H 15.8098 0.944649 2.37718 0
M  V30 158 H 15.4538 1.61814 4.81434 0
M  V30 159 H 15.3838 -0.104013 5.26497 0
M  V30 160 H 17.8748 0.329288 3.76463 0
M  V30 161 H 18.1878 1.29409 7.61888 0
M  V30 162 H 16.5328 1.15695 6.85303 0
M  V30 163 H 19.7238 0.491752 4.6551 0
M  V30 164 H 19.8968 0.931482 6.4127 0
M  V30 165 N 13.3029 -1.57598 0.00835791 0
M  V30 166 C 14.2129 -2.12385 -0.996487 0
M  V30 167 C 15.2289 -1.07108 -1.37127 0
M  V30 168 O 16.4049 -1.39055 -1.4569 0
M  V30 169 C 13.4699 -2.62314 -2.26699 0
M  V30 170 C 12.5309 -3.82225 -1.95456 0
M  V30 171 C 11.7639 -4.29763 -3.16449 0
M  V30 172 O 11.9869 -3.76584 -4.28416 0
M  V30 173 O 10.9209 -5.21832 -2.99958 0
M  V30 174 H 14.7469 -2.98479 -0.560725 0
M  V30 175 H 12.3319 -1.47903 -0.210987 0
M  V30 176 H 14.2139 -2.94589 -3.01322 0
M  V30 177 H 12.8889 -1.79313 -2.69497 0
M  V30 178 H 11.7959 -3.54909 -1.18282 0
M  V30 179 H 13.1289 -4.66324 -1.57489 0
M  V30 180 N 14.781 0.264519 -1.55364 0
M  V30 181 C 16.029 0.993021 -1.76021 0
M  V30 182 C 16.35 1.86511 -0.569099 0
M  V30 183 O 15.62 1.91438 0.415735 0
M  V30 184 H 14.2 0.369639 -0.649135 0
M  V30 185 H 16.862 0.286707 -1.9278 0
M  V30 186 H 15.958 1.62502 -2.66457 0
M  V30 187 N 16.2591 1.48442 0.529413 0
M  V30 188 C 17.2071 1.63452 1.65487 0
M  V30 189 C 18.2011 0.500955 1.61823 0
M  V30 190 O 19.4071 0.679695 1.66674 0
M  V30 191 H 15.7821 0.514905 0.548066 0
M  V30 192 H 17.7531 2.57975 1.49971 0
M  V30 193 C 16.5021 1.69196 3.03756 0
M  V30 194 H 15.8251 2.55784 3.07269 0
M  V30 195 H 17.2651 1.83743 3.82119 0
M  V30 196 C 15.7241 0.430765 3.34135 0
M  V30 197 O 16.2541 -0.4561 3.99102 0
M  V30 198 N 14.4601 0.302293 2.89023 0
M  V30 199 H 14.0071 1.02496 2.36331 0
M  V30 200 H 13.9651 -0.540546 3.09718 0
M  V30 201 N 17.7372 -0.778329 1.37039 0
M  V30 202 C 19.1482 -1.35421 1.28523 0
M  V30 203 C 19.4992 -1.96075 -0.0700901 0
M  V30 204 O 18.6242 -1.93352 -0.971801 0
M  V30 205 C 19.2192 -2.46211 2.32735 0
M  V30 206 C 17.7782 -2.99585 2.27873 0
M  V30 207 C 16.9252 -1.72748 2.16918 0
M  V30 208 H 19.8762 -0.5791 1.47757 0
M  V30 209 H 19.8972 -3.2552 1.9702 0
M  V30 210 H 19.4092 -2.02036 3.31365 0
M  V30 211 H 17.5102 -3.48152 1.32745 0
M  V30 212 H 17.6232 -3.55646 3.21018 0
M  V30 213 H 15.9872 -1.95416 1.63354 0
M  V30 214 H 16.7702 -1.30686 3.17452 0
M  V30 215 N 19.2153 -1.21501 -1.00376 0
M  V30 216 C 20.4433 -1.059 -1.77744 0
M  V30 217 C 20.8583 0.391125 -1.84704 0
M  V30 218 O 20.2153 1.27133 -1.30933 0
M  V30 219 C 20.2663 -1.65111 -3.21591 0
M  V30 220 O 19.9873 -3.0445 -3.15027 0
M  V30 221 C 21.4883 -1.54637 -4.15454 0
M  V30 222 H 18.7083 -0.371825 -0.558558 0
M  V30 223 H 21.2523 -1.60865 -1.26264 0
M  V30 224 H 19.4073 -1.14235 -3.70175 0
M  V30 225 H 19.8213 -3.3278 -4.0541 0
M  V30 226 H 21.2953 -2.00808 -5.14179 0
M  V30 227 H 21.7723 -0.501022 -4.36333 0
M  V30 228 H 22.3783 -2.04767 -3.72761 0
M  V30 229 N 20.6934 1.19889 -1.02296 0
M  V30 230 C 21.6234 2.25141 -0.619174 0
M  V30 231 C 22.6044 1.66051 0.368915 0
M  V30 232 O 23.7894 1.92546 0.252941 0
M  V30 233 C 20.9194 3.4728 0.0368783 0
M  V30 234 C 19.8734 4.19005 -0.872865 0
M  V30 235 C 19.1994 5.34637 -0.0822402 0
M  V30 236 C 20.4994 4.74452 -2.18387 0
M  V30 237 H 22.1934 2.59171 -1.49903 0
M  V30 238 H 19.7394 1.24579 -0.722222 0
M  V30 239 H 21.6924 4.20098 0.330958 0
M  V30 240 H 20.4164 3.12433 0.95149 0
M  V30 241 H 19.0754 3.48061 -1.15105 0
M  V30 242 H 18.7234 4.96034 0.83422 0
M  V30 243 H 18.4234 5.83557 -0.688149 0
M  V30 244 H 19.9474 6.10255 0.205238 0
M  V30 245 H 21.3614 5.39055 -1.95172 0
M  V30 246 H 19.7584 5.33834 -2.74119 0
M  V30 247 H 20.8284 3.92844 -2.84257 0
M  V30 248 N 22.1715 0.800033 1.35784 0
M  V30 249 C 23.5875 0.482977 1.52117 0
M  V30 250 C 23.7875 -0.996948 1.75109 0
M  V30 251 O 22.8435 -1.78216 1.78872 0
M  V30 252 C 24.1565 1.32264 2.70049 0
M  V30 253 C 25.7045 1.31742 2.83924 0
M  V30 254 C 26.1795 2.14106 4.04874 0
M  V30 255 N 27.6705 2.11607 4.12039 0
M  V30 256 C 28.4055 2.72099 5.04727 0
M  V30 257 N 27.9015 3.41492 6.02789 0
M  V30 258 N 29.6945 2.61776 4.97423 0
M  V30 259 H 21.8455 1.75856 1.19115 0
M  V30 260 H 24.1085 0.748122 0.582252 0
M  V30 261 H 23.8145 2.37261 2.59616 0
M  V30 262 H 23.6885 0.971303 3.6448 0
M  V30 263 H 26.0755 0.275333 2.93813 0
M  V30 264 H 26.1565 1.70859 1.9037 0
M  V30 265 H 25.8005 3.18351 3.95746 0
M  V30 266 H 25.7305 1.72353 4.97596 0
M  V30 267 H 28.2215 1.61112 3.41835 0
M  V30 268 H 28.5345 3.84953 6.70098 0
M  V30 269 H 26.8795 3.45596 6.02983 0
M  V30 270 H 30.0705 2.07157 4.19766 0
M  V30 271 H 30.2435 3.0921 5.69468 0
M  V30 272 N 23.6496 -1.47581 0.552962 0
M  V30 273 C 24.6126 -2.28439 -0.186605 0
M  V30 274 C 25.6126 -1.36706 -0.84665 0
M  V30 275 O 26.8026 -1.59378 -0.703164 0
M  V30 276 C 23.9346 -3.16264 -1.2724 0
M  V30 277 H 25.1276 -2.95294 0.523609 0
M  V30 278 H 22.6806 -1.532 0.309745 0
M  V30 279 H 23.4156 -2.54091 -2.01514 0
M  V30 280 H 23.2006 -3.83769 -0.803968 0
M  V30 281 H 24.6906 -3.77198 -1.79196 0
M  V30 282 N 25.1277 -0.289203 -1.54924 0
M  V30 283 C 26.3737 0.323998 -2.00195 0
M  V30 284 C 26.7067 1.54441 -1.17735 0
M  V30 285 O 25.9817 1.92875 -0.250878 0
M  V30 286 C 26.2647 0.692276 -3.53383 0
M  V30 287 C 26.1177 -0.536457 -4.46589 0
M  V30 288 C 27.4367 1.52335 -4.12895 0
M  V30 289 H 24.5557 0.116289 -0.727768 0
M  V30 290 H 27.1977 -0.398954 -1.85764 0
M  V30 291 H 25.3477 1.30822 -3.65811 0
M  V30 292 H 27.0197 -1.17499 -4.46085 0
M  V30 293 H 25.2627 -1.17192 -4.1767 0
M  V30 294 H 25.9337 -0.234806 -5.515 0
M  V30 295 H 28.4097 1.00302 -4.0383 0
M  V30 296 H 27.2857 1.74982 -5.20262 0
M  V30 297 H 27.5467 2.50886 -3.64018 0
M  V30 298 N 26.6058 1.57591 -0.0167156 0
M  V30 299 C 27.5688 2.08393 0.954204 0
M  V30 300 C 28.5688 0.996531 1.26198 0
M  V30 301 O 29.7588 1.25858 1.20438 0
M  V30 302 C 26.8908 2.5394 2.27436 0
M  V30 303 H 28.0838 2.95455 0.514451 0
M  V30 304 H 25.6368 1.54582 0.231089 0
M  V30 305 H 26.3718 1.70171 2.76066 0
M  V30 306 H 26.1568 3.33371 2.06412 0
M  V30 307 H 27.6468 2.93512 2.97053 0
M  V30 308 N 28.0839 -0.256276 1.55502 0
M  V30 309 C 28.9939 -1.33882 1.92647 0
M  V30 310 C 30.0099 -1.53159 0.825727 0
M  V30 311 O 31.1859 -1.66963 1.12629 0
M  V30 312 C 28.2509 -2.6751 2.20543 0
M  V30 313 C 27.3119 -2.56836 3.43997 0
M  V30 314 C 26.5449 -3.84092 3.70553 0
M  V30 315 O 26.7679 -4.85545 2.99336 0
M  V30 316 O 25.7019 -3.83288 4.64084 0
M  V30 317 H 29.5279 -1.05374 2.84833 0
M  V30 318 H 27.1129 -0.456237 1.42263 0
M  V30 319 H 28.9949 -3.46492 2.39835 0
M  V30 320 H 27.6699 -2.9577 1.31536 0
M  V30 321 H 26.5769 -1.76172 3.30021 0
M  V30 322 H 27.9099 -2.33523 4.33275 0
M  V30 323 N 29.562 -1.4872 -0.521534 0
M  V30 324 C 30.472 -1.66569 -1.65203 0
M  V30 325 C 31.488 -0.548197 -1.65139 0
M  V30 326 O 32.664 -0.820339 -1.83936 0
M  V30 327 C 29.729 -1.70917 -3.01642 0
M  V30 328 C 28.79 -2.94356 -3.12495 0
M  V30 329 C 28.023 -2.98487 -4.42426 0
M  V30 330 O 28.246 -2.10786 -5.30024 0
M  V30 331 O 27.18 -3.90746 -4.57822 0
M  V30 332 H 31.006 -2.62298 -1.5308 0
M  V30 333 H 28.591 -1.3222 -0.695565 0
M  V30 334 H 30.473 -1.7625 -3.82771 0
M  V30 335 H 29.148 -0.783633 -3.14071 0
M  V30 336 H 28.055 -2.94552 -2.3063 0
M  V30 337 H 29.388 -3.86322 -3.04986 0
M  V30 338 N 31.0401 0.771051 -1.3745 0
M  V30 339 C 32.2861 1.5319 -1.32894 0
M  V30 340 C 32.6191 1.94008 0.0862511 0
M  V30 341 O 31.8941 1.64124 1.04373 0
M  V30 342 C 32.1771 2.79648 -2.26868 0
M  V30 343 C 32.0301 2.45079 -3.77169 0
M  V30 344 C 33.3491 3.81583 -2.19277 0
M  V30 345 H 30.4681 0.555744 -0.484064 0
M  V30 346 H 33.1101 0.884492 -1.68157 0
M  V30 347 H 31.2601 3.34891 -1.96926 0
M  V30 348 H 32.9321 1.95745 -4.1771 0
M  V30 349 H 31.1751 1.77767 -3.95704 0
M  V30 350 H 31.8461 3.35478 -4.38359 0
M  V30 351 H 34.3221 3.35835 -2.45671 0
M  V30 352 H 33.1981 4.67787 -2.87171 0
M  V30 353 H 33.4591 4.25897 -1.18592 0
M  V30 354 N 32.5182 1.22032 0.997298 0
M  V30 355 C 33.9292 1.0397 1.55071 0
M  V30 356 C 34.2802 -0.398192 1.92117 0
M  V30 357 O 33.4052 -1.28254 1.74298 0
M  V30 358 C 34.0002 1.88109 2.81781 0
M  V30 359 C 32.5592 1.74357 3.33581 0
M  V30 360 C 31.7062 1.84846 2.06706 0
M  V30 361 H 34.6572 1.35941 0.818883 0
M  V30 362 H 34.6782 1.39589 3.53971 0
M  V30 363 H 34.1902 2.92754 2.54787 0
M  V30 364 H 32.2912 0.72427 3.65493 0
M  V30 365 H 32.4042 2.56772 4.04481 0
M  V30 366 H 30.7682 1.28238 2.20062 0
M  V30 367 H 31.5512 2.91014 1.82114 0
M  V30 368 N 33.9963 -1.19345 1.0293 0
M  V30 369 C 35.2423 -1.89318 0.727083 0
M  V30 370 C 35.5753 -1.79446 -0.742483 0
M  V30 371 O 34.8503 -1.1871 -1.54072 0
M  V30 372 C 35.1333 -3.40238 1.17942 0
M  V30 373 C 34.9863 -3.58979 2.71024 0
M  V30 374 C 36.3053 -4.33479 0.760548 0
M  V30 375 H 33.4243 -0.687475 0.265606 0
M  V30 376 H 36.0663 -1.40477 1.2793 0
M  V30 377 H 34.2163 -3.81964 0.709608 0
M  V30 378 H 35.8883 -3.26421 3.25955 0
M  V30 379 H 34.1313 -3.02018 3.11396 0
M  V30 380 H 34.8023 -4.64823 2.9773 0
M  V30 381 H 37.2783 -3.99469 1.16464 0
M  V30 382 H 36.1543 -5.37664 1.10493 0
M  V30 383 H 36.4153 -4.40813 -0.337063 0
M  V30 384 N 35.4744 -0.807222 -1.35358 0
M  V30 385 C 36.8854 -0.44876 -1.81226 0
M  V30 386 C 37.2364 1.02929 -1.67033 0
M  V30 387 O 36.3614 1.79991 -1.20133 0
M  V30 388 C 36.9564 -0.807774 -3.2903 0
M  V30 389 C 35.5154 -0.501901 -3.73039 0
M  V30 390 C 34.6624 -1.03304 -2.57339 0
M  V30 391 H 37.6134 -0.998808 -1.23327 0
M  V30 392 H 37.6344 -0.10554 -3.80354 0
M  V30 393 H 37.1464 -1.88357 -3.39328 0
M  V30 394 H 35.2474 0.565128 -3.68289 0
M  V30 395 H 35.3604 -1.03497 -4.67787 0
M  V30 396 H 33.7244 -0.455339 -2.50597 0
M  V30 397 H 34.5074 -2.11496 -2.70415 0
M  V30 398 N 36.9525 1.47285 -0.560781 0
M  V30 399 C 38.2015 2.01668 -0.035895 0
M  V30 400 C 38.5145 1.44021 1.32353 0
M  V30 401 O 39.7205 1.90088 1.93853 0
M  V30 402 C 38.1765 3.59897 -0.0136659 0
M  V30 403 C 37.7845 4.26536 -1.37006 0
M  V30 404 C 39.5285 4.22017 0.458425 0
M  V30 405 C 37.4355 5.76782 -1.30675 0
M  V30 406 H 36.3655 0.753938 -0.00964879 0
M  V30 407 H 39.0165 1.69243 -0.709166 0
M  V30 408 H 37.3985 3.89301 0.725325 0
M  V30 409 H 38.5725 4.0877 -2.12705 0
M  V30 410 H 36.8875 3.76419 -1.78038 0
M  V30 411 H 39.4845 5.32124 0.524247 0
M  V30 412 H 39.8275 3.89437 1.4712 0
M  V30 413 H 40.3605 3.97159 -0.225818 0
M  V30 414 H 37.0995 6.13988 -2.29564 0
M  V30 415 H 36.6195 5.96875 -0.591622 0
M  V30 416 H 38.2985 6.39063 -1.01033 0
M  V30 417 N 38.4306 0.297415 1.54768 0
M  V30 418 C 39.6586 -0.315623 2.04478 0
M  V30 419 C 40.0736 -1.47792 1.17486 0
M  V30 420 O 39.4306 -1.81404 0.19971 0
M  V30 421 C 39.4816 -0.7753 3.53088 0
M  V30 422 O 39.2026 0.340732 4.36773 0
M  V30 423 C 40.7036 -1.45386 4.18781 0
M  V30 424 H 37.9236 -0.0690887 0.667434 0
M  V30 425 H 40.4676 0.436003 1.99798 0
M  V30 426 H 38.6226 -1.47696 3.58141 0
M  V30 427 H 39.0366 -0.0165035 5.24497 0
M  V30 428 H 40.5106 -1.72669 5.24299 0
M  V30 429 H 40.9876 -2.39275 3.68299 0
M  V30 430 H 41.5936 -0.795475 4.17795 0
M  V30 431 N 39.9087 -1.5758 0.0250728 0
M  V30 432 C 40.8187 -2.1343 -0.973905 0
M  V30 433 C 41.8347 -1.08556 -1.35984 0
M  V30 434 O 43.0107 -1.40592 -1.44207 0
M  V30 435 C 40.0757 -2.64703 -2.23904 0
M  V30 436 C 39.1367 -3.84276 -1.91391 0
M  V30 437 C 38.3697 -4.33095 -3.11873 0
M  V30 438 O 38.5927 -3.81107 -4.24398 0
M  V30 439 O 37.5267 -5.24984 -2.94406 0
M  V30 440 H 41.3527 -2.99057 -0.529036 0
M  V30 441 H 38.9377 -1.48118 -0.195288 0
M  V30 442 H 40.8197 -2.97769 -2.98181 0
M  V30 443 H 39.4947 -1.82161 -2.6758 0
M  V30 444 H 38.4017 -3.56143 -1.14511 0
M  V30 445 H 39.7347 -4.67968 -1.52534 0
M  V30 446 N 41.3868 0.248026 -1.55636 0
M  V30 447 C 42.2968 1.32859 -1.93354 0
M  V30 448 C 43.3128 1.52719 -0.833838 0
M  V30 449 O 44.4888 1.66363 -1.13513 0
M  V30 450 C 41.5538 2.66337 -2.21958 0
M  V30 451 C 40.6148 2.55008 -3.45354 0
M  V30 452 C 39.8478 3.82121 -3.72584 0
M  V30 453 O 40.0708 4.83951 -3.01907 0
M  V30 454 O 39.0048 3.80822 -4.6611 0
M  V30 455 H 42.8308 1.03862 -2.85388 0
M  V30 456 H 40.4158 0.448686 -1.42503 0
M  V30 457 H 42.2978 3.45216 -2.4167 0
M  V30 458 H 40.9728 2.95068 -1.33103 0
M  V30 459 H 39.8798 1.7442 -3.30951 0
M  V30 460 H 41.2128 2.31222 -4.34508 0
M  V30 461 N 42.8649 1.48995 0.513639 0
M  V30 462 C 44.1419 1.48338 1.27495 0
M  V30 463 C 44.5219 0.204065 2.10111 0
M  V30 464 O 43.8699 -0.813881 2.13514 0
M  V30 465 C 44.0799 2.75498 2.14247 0
M  V30 466 C 45.4279 3.24484 2.73852 0
M  V30 467 O 46.4519 2.76528 2.24523 0
M  V30 468 O 45.3109 4.07974 3.6362 0
M  V30 469 H 42.4049 0.593149 0.576284 0
M  V30 470 H 44.9509 1.61246 0.528948 0
M  V30 471 H 43.7229 3.60109 1.53092 0
M  V30 472 H 43.3459 2.6539 2.96064 0
M  V30 473 N 44.343 -0.763751 1.37857 0
M  V30 474 C 45.759 -1.06542 1.18832 0
M  V30 475 C 45.959 -2.01478 0.0299722 0
M  V30 476 O 45.015 -2.4458 -0.627447 0
M  V30 477 C 46.328 -1.65525 2.51042 0
M  V30 478 C 47.876 -1.77745 2.57635 0
M  V30 479 C 48.351 -2.4014 3.89996 0
M  V30 480 N 49.842 -2.47582 3.91481 0
M  V30 481 C 50.577 -2.96732 4.9065 0
M  V30 482 N 50.073 -3.45993 6.00217 0
M  V30 483 N 51.866 -2.95679 4.78048 0
M  V30 484 H 44.017 -0.133556 2.1198 0
M  V30 485 H 46.28 -0.121879 0.940133 0
M  V30 486 H 45.986 -1.03236 3.36207 0
M  V30 487 H 45.86 -2.64719 2.68707 0
M  V30 488 H 48.247 -2.39164 1.72872 0
M  V30 489 H 48.328 -0.772836 2.43846 0
M  V30 490 H 47.972 -1.79358 4.75177 0
M  V30 491 H 47.902 -3.41223 4.01092 0
M  V30 492 H 50.393 -2.1273 3.12337 0
M  V30 493 H 50.706 -3.81922 6.7183 0
M  V30 494 H 49.051 -3.44077 6.03851 0
M  V30 495 H 52.242 -2.56499 3.91568 0
M  V30 496 H 52.415 -3.33672 5.55488 0
M  V30 497 N 45.8211 -1.22559 -0.990812 0
M  V30 498 C 46.7531 -0.955325 -2.08342 0
M  V30 499 C 47.7661 0.0668408 -1.62663 0
M  V30 500 O 48.9551 -0.167421 -1.77713 0
M  V30 501 C 46.0551 -0.415566 -3.36342 0
M  V30 502 C 45.2281 -1.49544 -4.11042 0
M  V30 503 C 44.2871 -0.962399 -5.17324 0
M  V30 504 O 43.3131 -1.64907 -5.44788 0
M  V30 505 N 44.5151 0.215134 -5.80101 0
M  V30 506 H 47.2801 -1.89596 -2.32106 0
M  V30 507 H 44.8411 -1.13276 -1.15673 0
M  V30 508 H 46.8331 -0.0442386 -4.04676 0
M  V30 509 H 45.4031 0.430232 -3.09625 0
M  V30 510 H 44.6231 -2.04 -3.37309 0
M  V30 511 H 45.9111 -2.22195 -4.57719 0
M  V30 512 H 45.3091 0.789779 -5.6016 0
M  V30 513 H 43.8661 0.527826 -6.49659 0
M  V30 514 N 47.2992 1.18797 -1.03562 0
M  V30 515 C 48.2292 2.24472 -0.643019 0
M  V30 516 C 49.2102 1.66433 0.351283 0
M  V30 517 O 50.3952 1.92803 0.232505 0
M  V30 518 C 47.5252 3.473 4.24935e-05 0
M  V30 519 C 46.4792 4.18055 -0.917257 0
M  V30 520 C 45.8052 5.34519 -0.138941 0
M  V30 521 C 47.1052 4.72109 -2.23407 0
M  V30 522 H 48.7992 2.57566 -1.52643 0
M  V30 523 H 46.3452 1.23806 -0.735394 0
M  V30 524 H 48.2982 4.20426 0.286383 0
M  V30 525 H 47.0222 3.13424 0.918299 0
M  V30 526 H 45.6812 3.46821 -1.1879 0
M  V30 527 H 45.3292 4.96891 0.781562 0
M  V30 528 H 45.0292 5.82794 -0.750005 0
M  V30 529 H 46.5532 6.10438 0.1405 0
M  V30 530 H 47.9672 5.36955 -2.00879 0
M  V30 531 H 46.3642 5.30897 -2.79765 0
M  V30 532 H 47.4342 3.89807 -2.88407 0
M  V30 533 N 48.7773 0.814389 1.34928 0
M  V30 534 C 50.0253 0.397636 1.9815 0
M  V30 535 C 50.3463 -1.04069 1.64908 0
M  V30 536 O 49.6163 -1.72121 0.93548 0
M  V30 537 H 48.1963 0.144043 0.732981 0
M  V30 538 H 50.8583 1.04195 1.6471 0
M  V30 539 H 49.9543 0.509688 3.0791 0
M  V30 540 N 50.2554 -1.46986 0.568584 0
M  V30 541 C 51.1654 -2.33942 -0.17555 0
M  V30 542 C 52.1814 -1.48891 -0.90041 0
M  V30 543 O 53.3574 -1.81794 -0.86676 0
M  V30 544 C 50.4224 -3.25811 -1.18524 0
M  V30 545 C 49.4834 -4.26757 -0.466582 0
M  V30 546 C 48.7164 -5.14236 -1.42817 0
M  V30 547 O 48.9394 -5.04379 -2.66379 0
M  V30 548 O 47.8734 -5.94412 -0.946453 0
M  V30 549 H 51.6994 -2.98896 0.538036 0
M  V30 550 H 49.2844 -1.4573 0.329097 0
M  V30 551 H 51.1664 -3.82527 -1.76779 0
M  V30 552 H 49.8414 -2.63471 -1.88055 0
M  V30 553 H 48.7484 -3.73769 0.157451 0
M  V30 554 H 50.0814 -4.91843 0.187485 0
M  V30 555 N 51.7335 -0.305618 -1.54608 0
M  V30 556 C 53.0105 0.355652 -1.92339 0
M  V30 557 C 53.3905 1.71324 -1.23335 0
M  V30 558 O 52.7385 2.25473 -0.370702 0
M  V30 559 C 52.9485 0.46572 -3.45879 0
M  V30 560 C 54.2965 0.734426 -4.182 0
M  V30 561 O 55.3205 0.54935 -3.51938 0
M  V30 562 O 54.1795 1.09024 -5.35515 0
M  V30 563 H 51.2735 0.199666 -0.802535 0
M  V30 564 H 53.8195 -0.354017 -1.65966 0
M  V30 565 H 52.5915 -0.488461 -3.88239 0
M  V30 566 H 52.2145 1.22367 -3.78301 0
M  V30 567 N 53.2116 1.57565 -0.0334293 0
M  V30 568 C 54.1446 2.05997 0.981866 0
M  V30 569 C 55.1226 0.956647 1.3148 0
M  V30 570 O 56.3066 1.22729 1.43073 0
M  V30 571 C 53.4336 2.48564 2.30074 0
M  V30 572 C 52.4796 3.69958 2.12211 0
M  V30 573 S 53.3126 5.16414 1.41692 0
M  V30 574 C 54.4686 5.6228 2.7494 0
M  V30 575 H 54.7016 2.91792 0.569612 0
M  V30 576 H 52.2346 1.53366 0.178376 0
M  V30 577 H 54.1926 2.73753 3.05892 0
M  V30 578 H 52.8536 1.63106 2.68431 0
M  V30 579 H 52.0466 3.97603 3.09722 0
M  V30 580 H 51.6486 3.44943 1.44535 0
M  V30 581 H 53.9406 5.66783 3.71165 0
M  V30 582 H 54.8836 6.61759 2.51953 0
M  V30 583 H 55.2916 4.89944 2.80384 0
M  V30 584 N 54.6897 -0.239769 1.55765 0
M  V30 585 C 55.6197 -1.30052 1.9393 0
M  V30 586 C 56.6007 -1.49839 0.805132 0
M  V30 587 O 57.7857 -1.62328 1.06599 0
M  V30 588 C 54.9157 -2.65391 2.2402 0
M  V30 589 C 53.8697 -2.60289 3.39755 0
M  V30 590 C 53.1957 -3.99489 3.55405 0
M  V30 591 C 54.4957 -2.16654 4.75246 0
M  V30 592 H 56.1897 -0.983573 2.82783 0
M  V30 593 H 53.7357 -0.471701 1.36055 0
M  V30 594 H 55.6887 -3.3974 2.49308 0
M  V30 595 H 54.4127 -2.98736 1.32 0
M  V30 596 H 53.0717 -1.88398 3.14487 0
M  V30 597 H 52.7197 -4.30112 2.60793 0
M  V30 598 H 52.4197 -3.96962 4.33238 0
M  V30 599 H 53.9437 -4.75528 3.83022 0
M  V30 600 H 55.3577 -2.80737 4.99859 0
M  V30 601 H 53.7547 -2.25223 5.56232 0
M  V30 602 H 54.8247 -1.11835 4.71827 0
M  V30 603 N 56.1678 -1.49265 -0.50573 0
M  V30 604 C 57.3958 -1.62215 -1.28429 0
M  V30 605 C 57.8108 -0.291697 -1.86533 0
M  V30 606 O 57.1678 0.722233 -1.67601 0
M  V30 607 C 57.2188 -2.68735 -2.41793 0
M  V30 608 O 56.9398 -3.96619 -1.86078 0
M  V30 609 C 58.4408 -2.92346 -3.3324 0
M  V30 610 H 55.6608 -0.546239 -0.389697 0
M  V30 611 H 58.2048 -1.95265 -0.607609 0
M  V30 612 H 56.3598 -2.38476 -3.053 0
M  V30 613 H 56.7738 -4.55256 -2.60465 0
M  V30 614 H 58.2478 -3.70623 -4.09075 0
M  V30 615 H 58.7248 -2.02081 -3.89948 0
M  V30 616 H 59.3308 -3.24003 -2.75503 0
M  V30 617 N 57.6459 0.756429 -1.3826 0
M  V30 618 C 58.8929 1.51547 -1.34312 0
M  V30 619 C 59.2209 1.94382 0.0677144 0
M  V30 620 O 58.4759 1.65514 1.04421 0
M  V30 621 C 58.7749 2.78313 -2.24224 0
M  V30 622 C 58.4409 2.54455 -3.72241 0
M  V30 623 C 57.1029 2.47657 -4.12576 0
M  V30 624 C 59.4549 2.3354 -4.65949 0
M  V30 625 C 56.7829 2.17956 -5.44713 0
M  V30 626 C 59.1349 2.05359 -5.9834 0
M  V30 627 C 57.7989 1.97016 -6.37762 0
M  V30 628 H 57.0689 0.55455 -0.491482 0
M  V30 629 H 59.7159 0.870039 -1.70595 0
M  V30 630 H 58.0209 3.47492 -1.80987 0
M  V30 631 H 59.7179 3.36259 -2.18474 0
M  V30 632 H 56.3079 2.60616 -3.40261 0
M  V30 633 H 60.4919 2.37772 -4.35635 0
M  V30 634 H 55.7479 2.10003 -5.74203 0
M  V30 635 H 59.9219 1.88179 -6.70494 0
M  V30 636 H 57.5489 1.73766 -7.40074 0
M  V30 637 N 59.124 1.23083 0.984299 0
M  V30 638 C 60.054 1.03292 2.09411 0
M  V30 639 C 61.035 -0.048923 1.7003 0
M  V30 640 O 62.22 0.114967 1.93859 0
M  V30 641 C 59.35 0.619155 3.41736 0
M  V30 642 C 58.304 1.64791 3.95004 0
M  V30 643 C 57.63 1.0897 5.23478 0
M  V30 644 C 58.93 3.03999 4.24714 0
M  V30 645 H 60.624 1.96119 2.26225 0
M  V30 646 H 58.17 0.944344 1.08711 0
M  V30 647 H 60.123 0.467777 4.18796 0
M  V30 648 H 58.847 -0.344786 3.24775 0
M  V30 649 H 57.506 1.78721 3.20085 0
M  V30 650 H 57.154 0.11686 5.02864 0
M  V30 651 H 56.854 1.77704 5.60085 0
M  V30 652 H 58.378 0.950093 6.03163 0
M  V30 653 H 59.792 2.93393 4.92538 0
M  V30 654 H 58.189 3.69936 4.72512 0
M  V30 655 H 59.259 3.53285 3.32142 0
M  V30 656 N 60.6021 -1.18246 1.0419 0
M  V30 657 C 61.5491 -2.2192 0.634037 0
M  V30 658 C 62.5191 -1.62179 -0.358765 0
M  V30 659 O 63.7041 -1.89122 -0.252466 0
M  V30 660 C 60.8441 -3.451 0.00445535 0
M  V30 661 C 59.9571 -4.19174 1.04487 0
M  V30 662 C 59.0921 -5.29813 0.383676 0
M  V30 663 C 58.1311 -5.9566 1.4091 0
M  V30 664 N 57.2681 -6.97834 0.772784 0
M  V30 665 H 62.1081 -2.56164 1.52263 0
M  V30 666 H 59.6451 -1.25843 0.761701 0
M  V30 667 H 61.6031 -4.15485 -0.377919 0
M  V30 668 H 60.2331 -3.11472 -0.847652 0
M  V30 669 H 59.2851 -3.47604 1.54518 0
M  V30 670 H 60.5971 -4.64267 1.82368 0
M  V30 671 H 59.7511 -6.06677 -0.0528366 0
M  V30 672 H 58.4901 -4.85825 -0.427208 0
M  V30 673 H 57.4951 -5.17535 1.85574 0
M  V30 674 H 58.7201 -6.4173 2.22171 0
M  V30 675 H 56.6661 -6.55998 -0.0177708 0
M  V30 676 H 56.5831 -7.41186 1.48928 0
M  V30 677 H 57.8511 -7.78665 0.36071 0
M  V30 678 N 62.0802 -0.821533 -1.34494 0
M  V30 679 C 63.0282 -0.230702 -2.31453 0
M  V30 680 C 64.0222 0.627793 -1.57338 0
M  V30 681 O 65.2282 0.519288 -1.72347 0
M  V30 682 H 61.6032 -0.0558577 -0.749923 0
M  V30 683 H 63.5742 -1.06332 -2.78812 0
M  V30 684 C 62.3232 0.59391 -3.4259 0
M  V30 685 H 61.6462 -0.0573588 -3.99759 0
M  V30 686 H 63.0862 0.973446 -4.12674 0
M  V30 687 C 61.5452 1.76568 -2.86924 0
M  V30 688 O 62.0752 2.8638 -2.81691 0
M  V30 689 N 60.2812 1.58198 -2.43766 0
M  V30 690 H 59.8282 0.68872 -2.48222 0
M  V30 691 H 59.7862 2.36752 -2.06871 0
M  V30 692 N 63.5583 1.46682 -0.576371 0
M  V30 693 C 64.7833 2.07304 -0.0630475 0
M  V30 694 C 65.2083 1.42329 1.2298 0
M  V30 695 O 64.5663 0.504865 1.74129 0
M  V30 696 C 64.6143 3.60472 0.095895 0
M  V30 697 O 63.7183 3.95927 1.15394 0
M  V30 698 H 63.0593 0.661288 -0.0599463 0
M  V30 699 H 65.5893 1.88417 -0.797511 0
M  V30 700 H 65.5993 4.06865 0.304071 0
M  V30 701 H 64.2743 4.07157 -0.84828 0
M  V30 702 H 62.8513 3.61252 0.924724 0
M  V30 703 N 65.0364 0.313813 1.54444 0
M  V30 704 C 65.9684 -0.590425 2.21465 0
M  V30 705 C 66.9814 -1.08753 1.21147 0
M  V30 706 O 68.1704 -1.00278 1.4767 0
M  V30 707 C 65.2704 -1.82179 2.85769 0
M  V30 708 C 64.4434 -1.46502 4.12136 0
M  V30 709 C 63.5024 -2.55288 4.60124 0
M  V30 710 O 62.5284 -2.19842 5.25032 0
M  V30 711 N 63.7304 -3.86053 4.33525 0
M  V30 712 H 66.4954 -0.0166033 2.99695 0
M  V30 713 H 64.0564 0.136578 1.61323 0
M  V30 714 H 66.0484 -2.54328 3.14801 0
M  V30 715 H 64.6184 -2.30369 2.11303 0
M  V30 716 H 63.8384 -0.575595 3.89975 0
M  V30 717 H 65.1264 -1.20221 4.94393 0
M  V30 718 H 64.5244 -4.17654 3.81552 0
M  V30 719 H 63.0814 -4.54461 4.67235 0
M  V30 720 N 66.5145 -1.57545 0.0417849 0
M  V30 721 C 67.7915 -1.83642 -0.673433 0
M  V30 722 C 68.1715 -0.928298 -1.89594 0
M  V30 723 O 67.5195 0.0129955 -2.28496 0
M  V30 724 C 67.7295 -3.33155 -1.03964 0
M  V30 725 C 69.0775 -3.99941 -1.42592 0
M  V30 726 O 70.1015 -3.37725 -1.13226 0
M  V30 727 O 68.9605 -5.09619 -1.9736 0
M  V30 728 H 66.0545 -0.757638 -0.331533 0
M  V30 729 H 68.6005 -1.69554 0.070433 0
M  V30 730 H 67.3725 -3.9093 -0.170098 0
M  V30 731 H 66.9955 -3.52396 -1.84126 0
M  V30 732 N 67.9926 0.231505 -1.5589 0
M  V30 733 C 69.4036 0.799327 -1.68724 0
M  V30 734 C 69.7546 1.85398 -0.642022 0
M  V30 735 O 68.8796 2.1539 0.208784 0
M  V30 736 C 69.4746 1.45664 -3.05888 0
M  V30 737 C 68.0336 1.97197 -3.20609 0
M  V30 738 C 67.1806 0.828552 -2.64632 0
M  V30 739 H 70.1316 0.00702616 -1.58698 0
M  V30 740 H 70.1526 2.32517 -3.01191 0
M  V30 741 H 69.6646 0.688808 -3.81939 0
M  V30 742 H 67.7656 2.76813 -2.4941 0
M  V30 743 H 67.8786 2.15878 -4.27707 0
M  V30 744 H 66.2426 1.23321 -2.22854 0
M  V30 745 H 67.0256 0.0735544 -3.43221 0
M  V30 746 N 69.4707 1.49531 0.497807 0
M  V30 747 C 70.7167 1.59415 1.25358 0
M  V30 748 C 71.0497 0.281422 1.9215 0
M  V30 749 O 70.3247 -0.715249 1.80871 0
M  V30 750 C 70.6077 2.75566 2.3181 0
M  V30 751 C 70.4607 4.16642 1.69498 0
M  V30 752 C 71.7797 2.87347 3.33346 0
M  V30 753 H 68.8987 0.580244 0.454408 0
M  V30 754 H 71.5407 1.81827 0.551262 0
M  V30 755 H 69.6907 2.56587 2.91711 0
M  V30 756 H 71.3627 4.47145 1.13399 0
M  V30 757 H 69.6057 4.22141 0.998978 0
M  V30 758 H 70.2767 4.93792 2.46725 0
M  V30 759 H 72.7527 3.04634 2.83438 0
M  V30 760 H 71.6287 3.70289 4.05188 0
M  V30 761 H 71.8897 1.96834 3.95865 0
M  V30 762 N 70.9488 -0.749086 1.3866 0
M  V30 763 C 71.8958 -1.86291 1.36251 0
M  V30 764 C 72.8658 -1.64578 0.224347 0
M  V30 765 O 74.0508 -1.86181 0.417279 0
M  V30 766 C 71.1908 -3.23644 1.19786 0
M  V30 767 C 70.3038 -3.57158 2.43027 0
M  V30 768 C 69.4388 -4.83838 2.19258 0
M  V30 769 C 68.4778 -5.10152 3.38247 0
M  V30 770 N 67.6148 -6.28029 3.13884 0
M  V30 771 H 72.4548 -1.87685 2.3147 0
M  V30 772 H 69.9918 -0.917287 1.14997 0
M  V30 773 H 71.9498 -4.0291 1.08254 0
M  V30 774 H 70.5798 -3.21566 0.282031 0
M  V30 775 H 69.6318 -2.72701 2.65214 0
M  V30 776 H 70.9438 -3.7253 3.31697 0
M  V30 777 H 70.0978 -5.71057 2.04888 0
M  V30 778 H 68.8368 -4.70614 1.2796 0
M  V30 779 H 67.8418 -4.21401 3.53131 0
M  V30 780 H 69.0668 -5.25271 4.30427 0
M  V30 781 H 67.0128 -6.1612 2.25238 0
M  V30 782 H 66.9298 -6.43922 3.96106 0
M  V30 783 H 68.1978 -7.18124 3.03179 0
M  V30 784 N 72.4269 -1.23603 -0.977757 0
M  V30 785 C 73.3899 -1.02069 -2.05218 0
M  V30 786 C 74.3899 0.0184305 -1.60789 0
M  V30 787 O 75.5799 -0.221569 -1.72785 0
M  V30 788 C 72.7119 -0.544926 -3.36517 0
M  V30 789 H 73.9049 -1.9742 -2.25755 0
M  V30 790 H 71.4579 -1.05684 -1.15155 0
M  V30 791 H 72.1929 0.412241 -3.21669 0
M  V30 792 H 71.9779 -1.2948 -3.70105 0
M  V30 793 H 73.4679 -0.414985 -4.15533 0
M  V30 794 N 73.905 1.17692 -1.04816 0
M  V30 795 C 74.815 2.25229 -0.65643 0
M  V30 796 C 75.831 1.71018 0.320761 0
M  V30 797 O 77.007 2.00649 0.173805 0
M  V30 798 C 74.072 3.46684 -0.0332629 0
M  V30 799 C 73.133 4.15997 -1.06042 0
M  V30 800 C 72.366 5.31654 -0.466893 0
M  V30 801 O 72.589 5.65777 0.724758 0
M  V30 802 O 71.523 5.89831 -1.1993 0
M  V30 803 H 75.349 2.61016 -1.55255 0
M  V30 804 H 72.934 1.24919 -0.81949 0
M  V30 805 H 74.816 4.20234 0.313256 0
M  V30 806 H 73.491 3.12703 0.836566 0
M  V30 807 H 72.398 3.44482 -1.45886 0
M  V30 808 H 73.731 4.53996 -1.90127 0
M  V30 809 N 75.3831 0.828654 1.34056 0
M  V30 810 C 76.2931 0.256725 2.33191 0
M  V30 811 C 77.3091 -0.611898 1.62886 0
M  V30 812 O 78.4851 -0.51844 1.94613 0
M  V30 813 C 75.5501 -0.567238 3.42028 0
M  V30 814 C 74.6111 0.324458 4.28072 0
M  V30 815 C 73.8441 -0.460274 5.31712 0
M  V30 816 O 74.0671 -1.693 5.44696 0
M  V30 817 O 73.0011 0.160391 6.01686 0
M  V30 818 H 76.8271 1.07739 2.83947 0
M  V30 819 H 74.4121 0.59093 1.37217 0
M  V30 820 H 76.2941 -1.03582 4.08471 0
M  V30 821 H 74.9691 -1.36513 2.93506 0
M  V30 822 H 73.8761 0.840659 3.64532 0
M  V30 823 H 75.2091 1.08685 4.8005 0
M  V30 824 N 76.8612 -1.46375 0.584142 0
M  V30 825 C 77.7912 -2.33103 -0.136037 0
M  V30 826 C 78.7722 -1.45431 -0.882255 0
M  V30 827 O 79.9572 -1.74246 -0.857434 0
M  V30 828 C 77.0872 -3.27731 -1.14933 0
M  V30 829 C 76.0412 -4.24855 -0.517862 0
M  V30 830 C 75.3672 -5.09001 -1.63773 0
M  V30 831 C 76.6672 -5.19439 0.545886 0
M  V30 832 H 78.3612 -2.93568 0.588086 0
M  V30 833 H 75.9072 -1.41166 0.284259 0
M  V30 834 H 77.8602 -3.87261 -1.66153 0
M  V30 835 H 76.5842 -2.65377 -1.90375 0
M  V30 836 H 75.2432 -3.6659 -0.0267361 0
M  V30 837 H 74.8912 -4.43031 -2.38185 0
M  V30 838 H 74.5912 -5.74777 -1.22085 0
M  V30 839 H 76.1152 -5.71396 -2.15266 0
M  V30 840 H 77.5292 -5.73177 0.118704 0
M  V30 841 H 75.9262 -5.93566 0.88317 0
M  V30 842 H 76.9962 -4.63285 1.43162 0
M  V30 843 N 78.3393 -0.321999 -1.54275 0
M  V30 844 C 79.2713 0.578671 -2.21775 0
M  V30 845 C 80.2843 1.08109 -1.21722 0
M  V30 846 O 81.4733 0.994938 -1.482 0
M  V30 847 C 78.5733 1.80661 -2.86731 0
M  V30 848 C 77.7463 1.44314 -4.12907 0
M  V30 849 C 76.8053 2.52845 -4.61472 0
M  V30 850 O 75.8313 2.17054 -5.2619 0
M  V30 851 N 77.0333 3.83748 -4.35566 0
M  V30 852 H 79.7983 0.000709447 -2.997 0
M  V30 853 H 77.3593 -0.145132 -1.61248 0
M  V30 854 H 79.3513 2.52655 -3.16145 0
M  V30 855 H 77.9213 2.29245 -2.12521 0
M  V30 856 H 77.1413 0.554906 -3.90275 0
M  V30 857 H 78.4293 1.17598 -4.95023 0
M  V30 858 H 77.8273 4.15625 -3.83761 0
M  V30 859 H 76.3843 4.51977 -4.69638 0
M  V30 860 N 79.8174 1.5752 -0.0501392 0
M  V30 861 C 80.7474 2.14502 0.922566 0
M  V30 862 C 81.7284 1.06642 1.3252 0
M  V30 863 O 82.9134 1.34577 1.4001 0
M  V30 864 C 80.0434 2.68916 2.19776 0
M  V30 865 C 78.9974 3.8175 1.93523 0
M  V30 866 C 78.3234 4.22677 3.27487 0
M  V30 867 C 79.6234 5.06932 1.25765 0
M  V30 868 H 81.3174 2.9603 0.447952 0
M  V30 869 H 78.8634 1.42401 0.214024 0
M  V30 870 H 80.8164 3.07419 2.88222 0
M  V30 871 H 79.5404 1.84578 2.69441 0
M  V30 872 H 78.1994 3.43718 1.27489 0
M  V30 873 H 77.8474 3.35291 3.74952 0
M  V30 874 H 77.5474 4.98725 3.1072 0
M  V30 875 H 79.0714 4.63779 3.97166 0
M  V30 876 H 80.4854 5.42888 1.84244 0
M  V30 877 H 78.8824 5.88116 1.19328 0
M  V30 878 H 79.9524 4.84337 0.233536 0
M  V30 879 N 81.2955 -0.223234 1.56011 0
M  V30 880 C 82.7115 -0.572856 1.48965 0
M  V30 881 C 82.9115 -1.87225 0.74492 0
M  V30 882 O 81.9675 -2.50899 0.283896 0
M  V30 883 C 83.2805 -0.653646 2.9351 0
M  V30 884 C 84.8285 -0.744386 3.0402 0
M  V30 885 C 85.3035 -0.856535 4.49919 0
M  V30 886 N 86.7945 -0.9208 4.53955 0
M  V30 887 C 87.5295 -1.02726 5.64123 0
M  V30 888 N 87.0255 -1.09777 6.84047 0
M  V30 889 N 88.8185 -1.06226 5.51971 0
M  V30 890 H 80.9695 0.629462 2.02858 0
M  V30 891 H 83.2325 0.220621 0.921971 0
M  V30 892 H 82.9385 0.231518 3.50937 0
M  V30 893 H 82.8125 -1.51781 3.45315 0
M  V30 894 H 85.1995 -1.61999 2.46658 0
M  V30 895 H 85.2805 0.14541 2.55386 0
M  V30 896 H 84.9245 0.0146069 5.07898 0
M  V30 897 H 84.8545 -1.76172 4.96257 0
M  V30 898 H 87.3455 -0.876694 3.6759 0
M  V30 899 H 87.6585 -1.17872 7.63758 0
M  V30 900 H 86.0035 -1.06693 6.86762 0
M  V30 901 H 89.1945 -1.00382 4.5721 0
M  V30 902 H 89.3675 -1.14177 6.37862 0
M  V30 903 N 82.7736 -1.49793 -0.48987 0
M  V30 904 C 84.0216 -1.59525 -1.24081 0
M  V30 905 C 84.3426 -0.288953 -1.92847 0
M  V30 906 O 83.6126 0.692436 -1.83254 0
M  V30 907 H 82.1926 -0.587796 -0.460983 0
M  V30 908 H 84.8546 -1.86477 -0.566778 0
M  V30 909 H 83.9506 -2.39696 -1.99881 0
M  V30 910 N 84.2517 0.741722 -1.39055 0
M  V30 911 C 85.4997 1.49818 -1.35643 0
M  V30 912 C 85.8207 1.94938 0.0491642 0
M  V30 913 O 85.0907 1.68505 0.999141 0
M  V30 914 H 83.6707 0.555755 -0.499144 0
M  V30 915 H 86.3327 0.880957 -1.73854 0
M  V30 916 H 85.4287 2.38348 -2.01486 0
M  V30 917 N 85.7298 1.2412 0.971189 0
M  V30 918 C 86.9758 1.08041 1.71625 0
M  V30 919 C 87.3088 -0.380407 1.90438 0
M  V30 920 O 86.5838 -1.28127 1.46334 0
M  V30 921 C 86.8668 1.81682 3.10908 0
M  V30 922 C 86.7198 3.35493 2.99608 0
M  V30 923 C 88.0388 1.58671 4.10501 0
M  V30 924 H 85.1578 0.39388 0.622919 0
M  V30 925 H 87.7998 1.52743 1.13003 0
M  V30 926 H 85.9498 1.43684 3.60953 0
M  V30 927 H 87.6218 3.83068 2.57015 0
M  V30 928 H 85.8648 3.64052 2.35899 0
M  V30 929 H 86.5358 3.82217 3.98264 0
M  V30 930 H 89.0118 1.91719 3.69301 0
M  V30 931 H 87.8878 2.1266 5.06031 0
M  V30 932 H 88.1488 0.524161 4.38982 0
M  V30 933 N 87.2079 -1.17134 1.05439 0
M  V30 934 C 88.4559 -1.87085 0.764429 0
M  V30 935 C 88.7769 -1.81584 -0.710787 0
M  V30 936 O 88.0469 -1.24349 -1.51374 0
M  V30 937 H 86.6269 -0.692627 0.279779 0
M  V30 938 H 89.2889 -1.42087 1.33406 0
M  V30 939 H 88.3849 -2.92759 1.0816 0
M  V30 940 N 88.686 -0.835752 -1.33615 0
M  V30 941 C 89.616 -0.281739 -2.31794 0
M  V30 942 C 90.597 0.608833 -1.58831 0
M  V30 943 O 91.782 0.533035 -1.86741 0
M  V30 944 C 88.912 0.546612 -3.42971 0
M  V30 945 C 87.866 -0.247904 -4.27281 0
M  V30 946 C 87.192 0.704001 -5.30045 0
M  V30 947 C 88.492 -1.46324 -5.01385 0
M  V30 948 H 90.186 -1.10206 -2.78379 0
M  V30 949 H 87.732 -0.531388 -1.33837 0
M  V30 950 H 89.685 0.944467 -4.1068 0
M  V30 951 H 88.409 1.40011 -2.95067 0
M  V30 952 H 87.068 -0.627281 -3.61194 0
M  V30 953 H 86.716 1.55381 -4.78399 0
M  V30 954 H 86.416 0.176524 -5.87335 0
M  V30 955 H 87.94 1.09944 -6.0062 0
M  V30 956 H 89.354 -1.13871 -5.61877 0
M  V30 957 H 87.751 -1.92728 -5.6831 0
M  V30 958 H 88.821 -2.23467 -4.30338 0
M  V30 959 N 90.1641 1.46063 -0.591896 0
M  V30 960 C 91.1271 2.28854 0.125973 0
M  V30 961 C 92.1271 1.38903 0.810107 0
M  V30 962 O 93.3171 1.61186 0.66066 0
M  V30 963 C 90.4491 3.19526 1.1881 0
M  V30 964 H 91.6421 2.93802 -0.601717 0
M  V30 965 H 89.1951 1.52325 -0.350254 0
M  V30 966 H 89.9301 2.59345 1.94707 0
M  V30 967 H 89.7151 3.85766 0.701936 0
M  V30 968 H 91.2051 3.81817 1.69132 0
M  V30 969 N 91.6422 0.330177 1.54103 0
M  V30 970 C 92.6052 -0.520144 2.2322 0
M  V30 971 C 93.6052 -1.03828 1.22786 0
M  V30 972 O 94.7952 -0.929652 1.4732 0
M  V30 973 C 91.9272 -1.72317 2.94142 0
M  V30 974 H 93.1202 0.0841605 2.99782 0
M  V30 975 H 90.6732 0.0813433 1.56088 0
M  V30 976 H 91.4082 -2.36653 2.21734 0
M  V30 977 H 91.1932 -1.35898 3.67796 0
M  V30 978 H 92.6832 -2.3266 3.46784 0
M  V30 979 N 93.1203 -1.57491 0.0584922 0
M  V30 980 C 94.5313 -1.80526 -0.476138 0
M  V30 981 C 94.8823 -0.971334 -1.70469 0
M  V30 982 O 94.0073 -0.190012 -2.15564 0
M  V30 983 C 94.6023 -3.27424 -0.870587 0
M  V30 984 C 93.1613 -3.51351 -1.35015 0
M  V30 985 C 92.3083 -2.75343 -0.32887 0
M  V30 986 H 95.2593 -1.56133 0.284312 0
M  V30 987 H 95.2803 -3.38745 -1.73299 0
M  V30 988 H 94.7923 -3.88093 0.0237627 0
M  V30 989 H 92.8933 -2.95971 -2.26345 0
M  V30 990 H 93.0063 -4.60059 -1.33726 0
M  V30 991 H 91.3703 -2.417 -0.803321 0
M  V30 992 H 92.1533 -3.38743 0.557521 0
M  V30 993 N 94.5984 0.214957 -1.56127 0
M  V30 994 C 95.5304 1.29004 -1.89448 0
M  V30 995 C 96.5434 1.42716 -0.783326 0
M  V30 996 O 97.7324 1.43496 -1.06166 0
M  V30 997 C 94.8324 2.66482 -2.09381 0
M  V30 998 C 94.0054 2.74633 -3.40434 0
M  V30 999 C 93.0644 3.9317 -3.49719 0
M  V30 1000 O 92.0904 3.812 -4.227 0
M  V30 1001 N 93.2924 5.07765 -2.81346 0
M  V30 1002 H 96.0574 1.00743 -2.82261 0
M  V30 1003 H 93.6184 0.40497 -1.56753 0
M  V30 1004 H 95.6104 3.44173 -2.12901 0
M  V30 1005 H 94.1804 2.87314 -1.23163 0
M  V30 1006 H 93.4004 1.83368 -3.48955 0
M  V30 1007 H 94.6884 2.77054 -4.26754 0
M  V30 1008 H 94.0864 5.20386 -2.21843 0
M  V30 1009 H 92.6434 5.83474 -2.90519 0
M  V30 1010 N 96.0765 1.50051 0.48192 0
M  V30 1011 C 97.0065 1.71046 1.58951 0
M  V30 1012 C 97.9875 0.559288 1.60642 0
M  V30 1013 O 99.1725 0.797243 1.77081 0
M  V30 1014 C 96.3025 1.79462 2.97339 0
M  V30 1015 C 95.2565 2.94558 3.10515 0
M  V30 1016 C 94.5825 2.88105 4.50444 0
M  V30 1017 C 95.8825 4.35227 2.88747 0
M  V30 1018 H 97.5765 2.6378 1.41635 0
M  V30 1019 H 95.1225 1.26936 0.679942 0
M  V30 1020 H 97.0755 1.92734 3.74742 0
M  V30 1021 H 95.7995 0.833412 3.15788 0
M  V30 1022 H 94.4585 2.80918 2.35543 0
M  V30 1023 H 94.1065 1.89853 4.65795 0
M  V30 1024 H 93.8065 3.65366 4.60197 0
M  V30 1025 H 95.3305 3.03412 5.29881 0
M  V30 1026 H 96.7445 4.49449 3.55905 0
M  V30 1027 H 95.1415 5.13856 3.09955 0
M  V30 1028 H 96.2115 4.48347 1.84696 0
M  V30 1029 N 97.5546 -0.734337 1.39446 0
M  V30 1030 C 98.8316 -1.48579 1.27215 0
M  V30 1031 C 99.2116 -2.1077 -0.117968 0
M  V30 1032 O 98.5596 -1.98646 -1.12924 0
M  V30 1033 C 98.7696 -2.53667 2.39696 0
M  V30 1034 C 100.118 -3.20031 2.79044 0
M  V30 1035 O 101.142 -2.6398 2.39151 0
M  V30 1036 O 100.001 -4.21455 3.47905 0
M  V30 1037 H 97.0946 -0.659816 0.49857 0
M  V30 1038 H 99.6406 -0.768106 1.51322 0
M  V30 1039 H 98.4126 -2.06096 3.32626 0
M  V30 1040 H 98.0356 -3.32994 2.17258 0
M  V30 1041 N 99.0327 -1.24633 -0.964593 0
M  V30 1042 C 100.282 -1.08188 -1.7023 0
M  V30 1043 C 100.595 0.37873 -1.91898 0
M  V30 1044 O 101.801 0.663427 -2.6327 0
M  V30 1045 C 100.257 -1.88773 -3.06419 0
M  V30 1046 C 99.8647 -3.39263 -2.92582 0
M  V30 1047 C 101.609 -1.80867 -3.84041 0
M  V30 1048 C 99.5157 -4.1218 -4.24101 0
M  V30 1049 H 98.4457 -0.401245 -0.638372 0
M  V30 1050 H 101.097 -1.48742 -1.07462 0
M  V30 1051 H 99.4787 -1.41035 -3.70034 0
M  V30 1052 H 100.653 -3.94603 -2.37961 0
M  V30 1053 H 98.9677 -3.48154 -2.28424 0
M  V30 1054 H 101.565 -2.32646 -4.81435 0
M  V30 1055 H 101.908 -0.774543 -4.09031 0
M  V30 1056 H 102.441 -2.26301 -3.27159 0
M  V30 1057 H 99.1797 -5.15965 -4.04303 0
M  V30 1058 H 98.6997 -3.61626 -4.78526 0
M  V30 1059 H 100.379 -4.19349 -4.92702 0
M  V30 1060 N 100.511 1.16574 -1.06058 0
M  V30 1061 C 101.736 1.91493 -0.796562 0
M  V30 1062 C 102.161 1.76773 0.642868 0
M  V30 1063 O 101.519 1.09142 1.44768 0
M  V30 1064 C 101.567 3.40293 -1.19303 0
M  V30 1065 O 100.671 4.11074 -0.330394 0
M  V30 1066 H 100.012 0.596678 -0.291326 0
M  V30 1067 H 102.542 1.47708 -1.41575 0
M  V30 1068 H 102.552 3.91057 -1.16356 0
M  V30 1069 H 101.227 3.50326 -2.24153 0
M  V30 1070 H 99.8038 3.70513 -0.421225 0
M  V30 1071 N 101.989 0.842826 1.3317 0
M  V30 1072 C 102.936 0.276885 2.29133 0
M  V30 1073 C 103.906 -0.609527 1.54512 0
M  V30 1074 O 105.091 -0.546955 1.82792 0
M  V30 1075 C 102.231 -0.538707 3.40869 0
M  V30 1076 C 101.344 0.372169 4.30394 0
M  V30 1077 C 100.479 -0.454908 5.29249 0
M  V30 1078 C 99.5179 0.45411 6.10413 0
M  V30 1079 N 98.6549 -0.335075 7.013 0
M  V30 1080 H 103.495 1.10052 2.76934 0
M  V30 1081 H 101.032 0.554161 1.36262 0
M  V30 1082 H 102.99 -1.02709 4.0436 0
M  V30 1083 H 101.62 -1.32727 2.9425 0
M  V30 1084 H 100.672 0.97888 3.6759 0
M  V30 1085 H 101.984 1.0703 4.87182 0
M  V30 1086 H 101.138 -1.00695 5.98285 0
M  V30 1087 H 99.8769 -1.18646 4.73048 0
M  V30 1088 H 98.8819 1.01813 5.40291 0
M  V30 1089 H 100.107 1.18409 6.68697 0
M  V30 1090 H 98.0529 -1.04994 6.47543 0
M  V30 1091 H 97.9699 0.304262 7.55387 0
M  V30 1092 H 99.2379 -0.869224 7.74638 0
M  V30 1093 N 103.467 -1.45747 0.599634 0
M  V30 1094 C 104.883 -1.57424 0.26264 0
M  V30 1095 C 105.083 -1.59222 -1.23493 0
M  V30 1096 O 104.139 -1.51825 -2.01756 0
M  V30 1097 C 105.452 -2.86061 0.926795 0
M  V30 1098 C 107 -2.99722 0.901967 0
M  V30 1099 C 107.475 -4.31119 1.54598 0
M  V30 1100 N 108.966 -4.37858 1.5111 0
M  V30 1101 C 109.701 -5.3818 1.97863 0
M  V30 1102 N 109.197 -6.45083 2.52666 0
M  V30 1103 N 110.99 -5.29487 1.88679 0
M  V30 1104 H 103.141 -1.42823 1.57211 0
M  V30 1105 H 105.404 -0.68235 0.658105 0
M  V30 1106 H 105.11 -2.90605 1.98095 0
M  V30 1107 H 104.984 -3.74563 0.445238 0
M  V30 1108 H 107.371 -2.9475 -0.143617 0
M  V30 1109 H 107.452 -2.12652 1.42171 0
M  V30 1110 H 107.096 -4.36849 2.59085 0
M  V30 1111 H 107.026 -5.16992 1.00132 0
M  V30 1112 H 109.517 -3.61209 1.11068 0
M  V30 1113 H 109.83 -7.17869 2.86155 0
M  V30 1114 H 108.175 -6.45856 2.56701 0
M  V30 1115 H 111.366 -4.44877 1.4561 0
M  V30 1116 H 111.539 -6.07524 2.25429 0
M  V30 1117 N 104.945 -0.338344 -1.53925 0
M  V30 1118 C 106.194 0.260732 -2.00008 0
M  V30 1119 C 106.507 1.52073 -1.23017 0
M  V30 1120 O 107.713 2.19672 -1.5955 0
M  V30 1121 C 106.169 0.51515 -3.56194 0
M  V30 1122 C 105.777 -0.728645 -4.42035 0
M  V30 1123 C 107.521 1.07337 -4.10706 0
M  V30 1124 C 105.428 -0.445315 -5.89721 0
M  V30 1125 H 104.358 0.101205 -0.747177 0
M  V30 1126 H 107.009 -0.452866 -1.77824 0
M  V30 1127 H 105.391 1.28932 -3.74423 0
M  V30 1128 H 106.565 -1.50352 -4.35581 0
M  V30 1129 H 104.88 -1.20813 -3.98489 0
M  V30 1130 H 107.477 1.30022 -5.18651 0
M  V30 1131 H 107.82 2.0273 -3.63602 0
M  V30 1132 H 108.353 0.360034 -3.96167 0
M  V30 1133 H 105.092 -1.36883 -6.41049 0
M  V30 1134 H 104.612 0.291569 -5.99091 0
M  V30 1135 H 106.291 -0.0606218 -6.46972 0
M  V30 1136 N 106.423 1.57458 -0.0668435 0
M  V30 1137 C 107.672 1.92477 0.602947 0
M  V30 1138 C 107.985 0.948419 1.71068 0
M  V30 1139 O 109.191 1.19124 2.43971 0
M  V30 1140 C 107.647 3.41903 1.12383 0
M  V30 1141 C 107.255 4.47975 0.04737 0
M  V30 1142 C 108.999 3.85931 1.76797 0
M  V30 1143 C 106.906 5.88529 0.582022 0
M  V30 1144 H 105.836 0.718387 0.22899 0
M  V30 1145 H 108.487 1.82978 -0.138276 0
M  V30 1146 H 106.869 3.46459 1.91787 0
M  V30 1147 H 108.043 4.55029 -0.726978 0
M  V30 1148 H 106.358 4.13384 -0.500243 0
M  V30 1149 H 108.955 4.88322 2.17821 0
M  V30 1150 H 109.298 3.23029 2.62599 0
M  V30 1151 H 109.831 3.83958 1.04024 0
M  V30 1152 H 106.57 6.55065 -0.238721 0
M  V30 1153 H 106.09 5.85004 1.324 0
M  V30 1154 H 107.769 6.38258 1.05999 0
M  V30 1155 N 107.901 -0.206675 1.56239 0
M  V30 1156 C 108.864 -1.23976 1.92776 0
M  V30 1157 C 109.864 -1.39041 0.807729 0
M  V30 1158 O 111.054 -1.37051 1.0753 0
M  V30 1159 C 108.186 -2.61112 2.19165 0
M  V30 1160 H 109.379 -0.927764 2.85189 0
M  V30 1161 H 106.932 -0.447718 1.4975 0
M  V30 1162 H 107.667 -2.97386 1.29352 0
M  V30 1163 H 107.452 -2.51552 3.00772 0
M  V30 1164 H 108.942 -3.35633 2.48476 0
M  V30 1165 N 109.379 -1.50304 -0.473955 0
M  V30 1166 C 110.625 -1.61389 -1.22806 0
M  V30 1167 C 110.958 -0.311955 -1.91678 0
M  V30 1168 O 110.233 0.686384 -1.81986 0
M  V30 1169 C 110.516 -2.79219 -2.27396 0
M  V30 1170 C 110.369 -4.19286 -1.62848 0
M  V30 1171 C 111.688 -2.92614 -3.28732 0
M  V30 1172 H 108.807 -0.587399 -0.445119 0
M  V30 1173 H 111.449 -1.82681 -0.522265 0
M  V30 1174 H 109.599 -2.61195 -2.87592 0
M  V30 1175 H 111.271 -4.48892 -1.06271 0
M  V30 1176 H 109.514 -4.23677 -0.931693 0
M  V30 1177 H 110.185 -4.97655 -2.38838 0
M  V30 1178 H 112.661 -3.09105 -2.78556 0
M  V30 1179 H 111.537 -3.76688 -3.99246 0
M  V30 1180 H 111.798 -2.03107 -3.92683 0
M  V30 1181 N 110.857 0.726932 -1.39834 0
M  V30 1182 C 111.807 1.83232 -1.35683 0
M  V30 1183 C 112.791 1.59155 -0.236295 0
M  V30 1184 O 113.983 1.70522 -0.474488 0
M  V30 1185 C 111.112 3.21246 -1.21062 0
M  V30 1186 C 110.198 3.51125 -2.37849 0
M  V30 1187 N 110.589 3.51889 -3.63329 0
M  V30 1188 C 108.887 3.81527 -2.30982 0
M  V30 1189 C 109.588 3.79791 -4.40606 0
M  V30 1190 N 108.564 3.97971 -3.70297 0
M  V30 1191 H 112.366 1.8214 -2.30656 0
M  V30 1192 H 109.88 0.925545 -1.33444 0
M  V30 1193 H 111.877 4.00387 -1.16171 0
M  V30 1194 H 110.537 3.23572 -0.270458 0
M  V30 1195 H 111.548 3.33008 -3.96643 0
M  V30 1196 H 108.225 3.91411 -1.45272 0
M  V30 1197 H 109.615 3.86783 -5.49408 0
M  V30 1198 N 112.336 1.25143 0.95797 0
M  V30 1199 C 113.582 1.09855 1.70469 0
M  V30 1200 C 113.915 -0.360187 1.90831 0
M  V30 1201 O 113.19 -1.26568 1.47685 0
M  V30 1202 C 113.473 1.8497 3.08963 0
M  V30 1203 C 113.326 3.38652 2.96032 0
M  V30 1204 C 114.645 1.63016 4.08795 0
M  V30 1205 H 111.764 0.400465 0.618706 0
M  V30 1206 H 114.406 1.53933 1.11376 0
M  V30 1207 H 112.556 1.47505 3.59409 0
M  V30 1208 H 114.228 3.85772 2.52938 0
M  V30 1209 H 112.471 3.66534 2.32025 0
M  V30 1210 H 113.142 3.8642 3.94187 0
M  V30 1211 H 115.618 1.95625 3.67247 0
M  V30 1212 H 114.494 2.18015 5.03747 0
M  V30 1213 H 114.755 0.570692 4.38401 0
M  V30 1214 N 113.814 -1.1601 1.06675 0
M  V30 1215 C 115.225 -1.68235 0.809565 0
M  V30 1216 C 115.576 -1.8454 -0.666303 0
M  V30 1217 O 114.701 -1.54374 -1.5165 0
M  V30 1218 C 115.296 -3.05585 1.46299 0
M  V30 1219 C 113.855 -3.54915 1.25349 0
M  V30 1220 C 113.002 -2.30804 1.53703 0
M  V30 1221 H 115.953 -1.00318 1.22971 0
M  V30 1222 H 115.974 -3.70174 0.880431 0
M  V30 1223 H 115.486 -2.93686 2.53713 0
M  V30 1224 H 113.587 -3.72067 0.199261 0
M  V30 1225 H 113.7 -4.36774 1.9689 0
M  V30 1226 H 112.064 -2.36007 0.957739 0
M  V30 1227 H 112.847 -2.21499 2.62284 0
M  V30 1228 N 115.292 -0.849877 -1.32721 0
M  V30 1229 C 116.517 -0.463856 -2.02146 0
M  V30 1230 C 116.942 0.930449 -1.63476 0
M  V30 1231 O 116.3 1.61033 -0.832952 0
M  V30 1232 C 116.348 -0.604955 -3.55489 0
M  V30 1233 O 115.452 0.36425 -4.10788 0
M  V30 1234 H 114.793 -0.187046 -0.637111 0
M  V30 1235 H 117.323 -1.14775 -1.69375 0
M  V30 1236 H 117.333 -0.490696 -4.05038 0
M  V30 1237 H 116.008 -1.62174 -3.82978 0
M  V30 1238 H 114.585 0.206628 -3.72327 0
M  V30 1239 N 116.77 1.45427 -0.607355 0
M  V30 1240 C 117.718 2.32269 0.12411 0
M  V30 1241 C 118.712 1.45955 0.859854 0
M  V30 1242 O 119.918 1.6244 0.775447 0
M  V30 1243 H 116.293 0.749691 0.0588839 0
M  V30 1244 H 118.264 2.91743 -0.626762 0
M  V30 1245 C 117.013 3.29567 1.1082 0
M  V30 1246 H 116.336 3.95978 0.551492 0
M  V30 1247 H 117.776 3.93061 1.58995 0
M  V30 1248 C 116.235 2.56722 2.18164 0
M  V30 1249 O 116.765 2.34842 3.25902 0
M  V30 1250 N 114.971 2.16861 1.93442 0
M  V30 1251 H 114.518 2.34855 1.05834 0
M  V30 1252 H 114.476 1.68444 2.65469 0
M  V30 1253 N 118.248 0.346503 1.53744 0
M  V30 1254 C 119.525 -0.304532 1.93215 0
M  V30 1255 C 119.905 -1.67993 1.27834 0
M  V30 1256 O 119.253 -2.24411 0.430352 0
M  V30 1257 C 119.463 -0.373852 3.46992 0
M  V30 1258 C 120.811 -0.62329 4.2 0
M  V30 1259 O 121.835 -0.455847 3.53271 0
M  V30 1260 O 120.694 -0.947879 5.38217 0
M  V30 1261 H 117.788 -0.178318 0.807547 0
M  V30 1262 H 120.334 0.397895 1.64969 0
M  V30 1263 H 119.106 0.591224 3.86808 0
M  V30 1264 H 118.729 -1.12294 3.81413 0
M  V30 1265 N 119.726 -1.57421 0.075193 0
M  V30 1266 C 121.137 -1.81021 -0.456964 0
M  V30 1267 C 121.488 -0.98936 -1.69429 0
M  V30 1268 O 120.613 -0.212865 -2.15351 0
M  V30 1269 C 121.208 -3.28329 -0.83581 0
M  V30 1270 C 119.767 -3.52764 -1.31281 0
M  V30 1271 C 118.914 -2.75676 -0.299648 0
M  V30 1272 H 121.865 -1.55822 0.300856 0
M  V30 1273 H 121.886 -3.40564 -1.69696 0
M  V30 1274 H 121.398 -3.88046 0.0649238 0
M  V30 1275 H 119.499 -2.98355 -2.23193 0
M  V30 1276 H 119.612 -4.61451 -1.28839 0
M  V30 1277 H 117.976 -2.42538 -0.777641 0
M  V30 1278 H 118.759 -3.38132 0.593417 0
M  V30 1279 N 121.204 0.198386 -1.56346 0
M  V30 1280 C 122.114 1.2664 -1.97483 0
M  V30 1281 C 123.13 1.49989 -0.882002 0
M  V30 1282 O 124.306 1.62668 -1.18748 0
M  V30 1283 C 121.371 2.59141 -2.30319 0
M  V30 1284 C 120.432 2.43892 -3.53292 0
M  V30 1285 C 119.665 3.70074 -3.84553 0
M  V30 1286 O 119.888 4.74101 -3.1715 0
M  V30 1287 O 118.822 3.658 -4.7799 0
M  V30 1288 H 122.648 0.947304 -2.88548 0
M  V30 1289 H 120.233 0.403123 -1.43859 0
M  V30 1290 H 122.115 3.37352 -2.5253 0
M  V30 1291 H 120.79 2.90684 -1.42423 0
M  V30 1292 H 119.697 1.63803 -3.36332 0
M  V30 1293 H 121.03 2.17282 -4.41644 0
M  V30 1294 N 122.682 1.50554 0.465978 0
M  V30 1295 C 123.63 1.70324 1.58406 0
M  V30 1296 C 124.624 0.569139 1.59553 0
M  V30 1297 O 125.83 0.749776 1.63641 0
M  V30 1298 H 122.205 0.537688 0.525734 0
M  V30 1299 H 124.176 2.64104 1.38894 0
M  V30 1300 C 122.925 1.81928 2.96307 0
M  V30 1301 H 122.248 2.68586 2.96144 0
M  V30 1302 H 123.688 1.99784 3.73982 0
M  V30 1303 C 122.147 0.572095 3.32007 0
M  V30 1304 O 122.677 -0.286416 4.00678 0
M  V30 1305 N 120.883 0.424606 2.87481 0
M  V30 1306 H 120.43 1.12427 2.31771 0
M  V30 1307 H 120.388 -0.408697 3.11732 0
M  V30 1308 N 124.16 -0.719506 1.40217 0
M  V30 1309 C 125.07 -1.86378 1.42479 0
M  V30 1310 C 126.086 -1.71073 0.317834 0
M  V30 1311 O 127.262 -1.93406 0.561794 0
M  V30 1312 C 124.327 -3.22136 1.28178 0
M  V30 1313 C 123.388 -3.49723 2.48982 0
M  V30 1314 C 122.621 -4.79004 2.35353 0
M  V30 1315 O 122.844 -5.53821 1.36524 0
M  V30 1316 O 121.778 -5.06839 3.2465 0
M  V30 1317 H 125.604 -1.87425 2.38968 0
M  V30 1318 H 123.189 -0.869405 1.21498 0
M  V30 1319 H 125.071 -4.03234 1.22395 0
M  V30 1320 H 123.746 -3.21825 0.347934 0
M  V30 1321 H 122.653 -2.6865 2.60342 0
M  V30 1322 H 123.986 -3.54828 3.41113 0
M  V30 1323 N 125.638 -1.25649 -0.95132 0
M  V30 1324 C 126.866 -1.13343 -1.73092 0
M  V30 1325 C 127.281 0.312434 -1.86197 0
M  V30 1326 O 126.638 1.21465 -1.36207 0
M  V30 1327 C 126.689 -1.78602 -3.14299 0
M  V30 1328 O 126.41 -3.17537 -3.01831 0
M  V30 1329 C 127.911 -1.72119 -4.08522 0
M  V30 1330 H 125.131 -0.395181 -0.542285 0
M  V30 1331 H 127.675 -1.66076 -1.19328 0
M  V30 1332 H 125.83 -1.29832 -3.64996 0
M  V30 1333 H 126.244 -3.49676 -3.90931 0
M  V30 1334 H 127.718 -2.22435 -5.052 0
M  V30 1335 H 128.195 -0.685635 -4.33815 0
M  V30 1336 H 128.801 -2.20393 -3.63741 0
M  V30 1337 N 127.117 1.15442 -1.07289 0
M  V30 1338 C 128.528 1.67803 -0.818475 0
M  V30 1339 C 128.879 1.8489 0.656507 0
M  V30 1340 O 128.004 1.55176 1.50829 0
M  V30 1341 C 128.599 3.04805 -1.47917 0
M  V30 1342 C 127.158 3.54245 -1.27229 0
M  V30 1343 C 126.305 2.29986 -1.54925 0
M  V30 1344 H 129.256 0.996646 -1.23502 0
M  V30 1345 H 129.277 3.69702 -0.90005 0
M  V30 1346 H 128.789 2.92336 -2.55267 0
M  V30 1347 H 126.89 3.71956 -0.21899 0
M  V30 1348 H 127.003 4.35723 -1.99203 0
M  V30 1349 H 125.367 2.35496 -0.970242 0
M  V30 1350 H 126.15 2.20105 -2.63455 0
M  V30 1351 N 128.595 0.856903 1.32268 0
M  V30 1352 C 129.82 0.474569 2.01897 0
M  V30 1353 C 130.245 -0.921766 1.63967 0
M  V30 1354 O 129.603 -1.60589 0.84148 0
M  V30 1355 C 129.651 0.623799 3.55164 0
M  V30 1356 O 128.755 -0.342459 4.10976 0
M  V30 1357 H 128.096 0.190422 0.63611 0
M  V30 1358 H 130.626 1.15672 1.68764 0
M  V30 1359 H 130.636 0.512169 4.04773 0
M  V30 1360 H 129.311 1.64202 3.82113 0
M  V30 1361 H 127.888 -0.18688 3.72431 0
M  V30 1362 N 130.073 -1.45103 0.615059 0
M  V30 1363 C 131.003 -2.33339 -0.0865619 0
M  V30 1364 C 131.984 -1.4727 -0.851209 0
M  V30 1365 O 133.169 -1.76026 -0.820281 0
M  V30 1366 C 130.299 -3.30095 -1.07956 0
M  V30 1367 C 129.253 -4.25858 -0.427628 0
M  V30 1368 C 128.579 -5.12361 -1.5294 0
M  V30 1369 C 129.879 -5.18165 0.655944 0
M  V30 1370 H 131.573 -2.92254 0.650224 0
M  V30 1371 H 129.119 -1.40532 0.314138 0
M  V30 1372 H 131.072 -3.90698 -1.57901 0
M  V30 1373 H 129.796 -2.69355 -1.84703 0
M  V30 1374 H 128.455 -3.66564 0.0510292 0
M  V30 1375 H 128.103 -4.47984 -2.28734 0
M  V30 1376 H 127.803 -5.77238 -1.09865 0
M  V30 1377 H 129.327 -5.75833 -2.03098 0
M  V30 1378 H 130.741 -5.72796 0.240257 0
M  V30 1379 H 129.138 -5.91559 1.00888 0
M  V30 1380 H 130.208 -4.60144 1.52957 0
M  V30 1381 N 131.551 -0.354651 -1.53558 0
M  V30 1382 C 132.776 0.242153 -2.05981 0
M  V30 1383 C 133.201 1.42553 -1.2272 0
M  V30 1384 O 132.559 1.79656 -0.243604 0
M  V30 1385 C 132.607 0.624367 -3.55154 0
M  V30 1386 O 131.711 1.72301 -3.74681 0
M  V30 1387 H 131.052 0.0378432 -0.662921 0
M  V30 1388 H 133.582 -0.512087 -1.98088 0
M  V30 1389 H 133.592 0.898433 -3.97985 0
M  V30 1390 H 132.267 -0.240989 -4.15201 0
M  V30 1391 H 130.844 1.44535 -3.4375 0
M  V30 1392 N 133.029 1.57378 -0.0835403 0
M  V30 1393 C 134.257 1.98263 0.59157 0
M  V30 1394 C 134.672 0.962302 1.62435 0
M  V30 1395 O 134.029 -0.049581 1.82433 0
M  V30 1396 C 134.08 3.39214 1.24965 0
M  V30 1397 O 133.801 4.37339 0.258186 0
M  V30 1398 C 135.302 3.95038 2.01147 0
M  V30 1399 H 132.522 0.651773 0.159477 0
M  V30 1400 H 135.066 2.03878 -0.159415 0
M  V30 1401 H 133.221 3.34649 1.95164 0
M  V30 1402 H 133.635 5.19371 0.731734 0
M  V30 1403 H 135.109 4.95848 2.42567 0
M  V30 1404 H 135.586 3.32222 2.87272 0
M  V30 1405 H 136.192 4.0304 1.35789 0
M  V30 1406 N 134.507 -0.190092 1.56449 0
M  V30 1407 C 135.753 -0.911052 1.81184 0
M  V30 1408 C 136.086 -1.82699 0.658396 0
M  V30 1409 O 135.361 -1.91491 -0.340775 0
M  V30 1410 C 135.644 -1.72297 3.16205 0
M  V30 1411 C 135.497 -0.831419 4.42049 0
M  V30 1412 C 136.816 -2.69454 3.47969 0
M  V30 1413 H 133.935 -0.32977 0.659106 0
M  V30 1414 H 136.577 -0.178169 1.89163 0
M  V30 1415 H 134.727 -2.34778 3.09534 0
M  V30 1416 H 136.399 -0.220929 4.60771 0
M  V30 1417 H 134.642 -0.138406 4.33579 0
M  V30 1418 H 135.313 -1.43461 5.33032 0
M  V30 1419 H 137.789 -2.17104 3.54972 0
M  V30 1420 H 136.665 -3.23342 4.43555 0
M  V30 1421 H 136.926 -3.48744 2.71717 0
M  V30 1422 N 135.985 -1.50799 -0.457987 0
M  V30 1423 C 136.918 -1.65273 -1.57353 0
M  V30 1424 C 137.896 -0.500578 -1.54703 0
M  V30 1425 O 139.08 -0.721781 -1.74134 0
M  V30 1426 C 136.207 -1.64737 -2.95938 0
M  V30 1427 C 135.253 -2.8567 -3.16693 0
M  V30 1428 S 136.086 -4.46791 -2.95191 0
M  V30 1429 C 137.242 -4.48968 -4.36095 0
M  V30 1430 H 137.475 -2.59633 -1.44838 0
M  V30 1431 H 135.008 -1.40225 -0.64625 0
M  V30 1432 H 136.966 -1.65112 -3.7583 0
M  V30 1433 H 135.627 -0.715899 -3.05833 0
M  V30 1434 H 134.82 -2.81637 -4.17967 0
M  V30 1435 H 134.422 -2.8293 -2.44594 0
M  V30 1436 H 136.714 -4.23337 -5.28954 0
M  V30 1437 H 137.657 -5.50664 -4.45168 0
M  V30 1438 H 138.065 -3.78522 -4.18786 0
M  V30 1439 N 137.463 0.71206 -1.40597 0
M  V30 1440 C 138.693 1.49894 -1.42181 0
M  V30 1441 C 139.101 1.89189 -0.0208078 0
M  V30 1442 O 138.444 1.56223 0.966436 0
M  V30 1443 C 138.506 2.80215 -2.25211 0
M  V30 1444 C 138.17 2.63221 -3.73582 0
M  V30 1445 C 139.167 2.30249 -4.66135 0
M  V30 1446 C 136.852 2.79376 -4.17438 0
M  V30 1447 C 138.846 2.13645 -6.00529 0
M  V30 1448 C 136.533 2.6239 -5.51901 0
M  V30 1449 C 137.531 2.29573 -6.43262 0
M  V30 1450 O 137.219 2.12719 -7.75246 0
M  V30 1451 H 136.951 0.469031 -0.486812 0
M  V30 1452 H 139.505 0.88564 -1.85326 0
M  V30 1453 H 137.735 3.4389 -1.76852 0
M  V30 1454 H 139.424 3.41947 -2.18694 0
M  V30 1455 H 140.19 2.17398 -4.33547 0
M  V30 1456 H 136.069 3.03906 -3.46644 0
M  V30 1457 H 139.613 1.87953 -6.71803 0
M  V30 1458 H 135.51 2.74826 -5.84073 0
M  V30 1459 H 136.278 2.27611 -7.86216 0
M  V30 1460 N 138.941 1.26152 0.944643 0
M  V30 1461 C 139.889 1.07215 2.06417 0
M  V30 1462 C 140.883 9.2007e-05 1.694 0
M  V30 1463 O 142.089 0.1565 1.79318 0
M  V30 1464 H 138.464 0.329837 0.675805 0
M  V30 1465 H 140.435 2.02099 2.19541 0
M  V30 1466 C 139.184 0.718197 3.40202 0
M  V30 1467 H 138.507 1.53497 3.69159 0
M  V30 1468 H 139.947 0.625459 4.19361 0
M  V30 1469 C 138.406 -0.576435 3.31932 0
M  V30 1470 O 138.936 -1.61574 3.67773 0
M  V30 1471 N 137.142 -0.565781 2.85039 0
M  V30 1472 H 136.689 0.280367 2.5607 0
M  V30 1473 H 136.647 -1.43213 2.79888 0
M  V30 1474 N 140.419 -1.14872 1.07899 0
M  V30 1475 C 141.83 -1.67367 0.827363 0
M  V30 1476 C 142.181 -1.85236 -0.646693 0
M  V30 1477 O 141.306 -1.55974 -1.50004 0
M  V30 1478 C 141.901 -3.04016 1.49532 0
M  V30 1479 C 140.46 -3.53566 1.29106 0
M  V30 1480 C 139.607 -2.29161 1.56143 0
M  V30 1481 H 142.558 -0.990083 1.24028 0
M  V30 1482 H 142.579 -3.69219 0.919643 0
M  V30 1483 H 142.091 -2.90978 2.56814 0
M  V30 1484 H 140.192 -3.71835 0.238713 0
M  V30 1485 H 140.305 -4.34661 2.01511 0
M  V30 1486 H 138.669 -2.34978 0.982717 0
M  V30 1487 H 139.452 -2.18705 2.64619 0
M  V30 1488 N 141.898 -0.863906 -1.31812 0
M  V30 1489 C 142.845 -0.313303 -2.28664 0
M  V30 1490 C 143.815 0.584868 -1.55462 0
M  V30 1491 O 145 0.517805 -1.83639 0
M  V30 1492 C 142.14 0.48441 -3.41683 0
M  V30 1493 C 141.253 -0.440594 -4.29747 0
M  V30 1494 C 140.388 0.370652 -5.29905 0
M  V30 1495 C 139.427 -0.551164 -6.09613 0
M  V30 1496 N 138.564 0.223462 -7.01744 0
M  V30 1497 H 143.404 -1.14444 -2.75148 0
M  V30 1498 H 140.941 -0.575769 -1.35364 0
M  V30 1499 H 142.899 0.962627 -4.05943 0
M  V30 1500 H 141.529 1.28029 -2.96325 0
M  V30 1501 H 140.581 -1.03724 -3.65986 0
M  V30 1502 H 141.893 -1.14767 -4.85417 0
M  V30 1503 H 141.047 0.911638 -5.99812 0
M  V30 1504 H 139.786 1.11105 -4.74876 0
M  V30 1505 H 138.791 -1.10396 -5.38603 0
M  V30 1506 H 140.016 -1.29032 -6.66729 0
M  V30 1507 H 137.962 0.946787 -6.49132 0
M  V30 1508 H 137.879 -0.424399 -7.54808 0
M  V30 1509 H 139.147 0.745876 -7.75923 0
M  V30 1510 N 143.376 1.44774 -0.622745 0
M  V30 1511 C 144.625 2.01334 -0.121397 0
M  V30 1512 C 144.938 1.49505 1.26125 0
M  V30 1513 O 146.144 1.98139 1.85616 0
M  V30 1514 C 144.6 3.59516 -0.166298 0
M  V30 1515 C 144.208 4.20342 -1.54974 0
M  V30 1516 C 145.952 4.23582 0.279021 0
M  V30 1517 C 143.859 5.70721 -1.55021 0
M  V30 1518 H 142.789 0.752851 -0.0416172 0
M  V30 1519 H 145.44 1.66083 -0.780309 0
M  V30 1520 H 143.822 3.92027 0.559557 0
M  V30 1521 H 144.996 3.99381 -2.29851 0
M  V30 1522 H 143.311 3.68529 -1.93843 0
M  V30 1523 H 145.908 5.33868 0.298083 0
M  V30 1524 H 146.251 3.95327 1.30471 0
M  V30 1525 H 146.784 3.95843 -0.394063 0
M  V30 1526 H 143.523 6.03698 -2.55399 0
M  V30 1527 H 143.043 5.93829 -0.844245 0
M  V30 1528 H 144.722 6.34203 -1.28047 0
M  V30 1529 N 144.854 0.36279 1.53368 0
M  V30 1530 C 145.784 -0.476976 2.28576 0
M  V30 1531 C 146.765 -1.08631 1.30894 0
M  V30 1532 O 147.95 -1.10409 1.59761 0
M  V30 1533 C 145.08 -1.61828 3.07293 0
M  V30 1534 C 144.034 -1.13633 4.1264 0
M  V30 1535 C 143.36 -2.36766 4.79423 0
M  V30 1536 C 144.66 -0.223061 5.21823 0
M  V30 1537 H 146.354 0.150474 2.99022 0
M  V30 1538 H 143.9 0.0738103 1.43811 0
M  V30 1539 H 145.853 -2.21237 3.58653 0
M  V30 1540 H 144.577 -2.27292 2.34533 0
M  V30 1541 H 143.236 -0.564945 3.62221 0
M  V30 1542 H 142.884 -3.0068 4.03238 0
M  V30 1543 H 142.584 -2.05192 5.50609 0
M  V30 1544 H 144.108 -2.96865 5.33576 0
M  V30 1545 H 145.522 -0.724545 5.68703 0
M  V30 1546 H 143.919 0.001678 6.001 0
M  V30 1547 H 144.989 0.735553 4.79289 0
M  V30 1548 N 146.332 -1.57332 0.0918853 0
M  V30 1549 C 147.557 -1.98995 -0.584442 0
M  V30 1550 C 147.982 -0.970528 -1.61128 0
M  V30 1551 O 147.34 0.0613904 -1.81196 0
M  V30 1552 C 147.388 -3.39636 -1.21161 0
M  V30 1553 O 146.492 -3.40447 -2.32744 0
M  V30 1554 H 145.833 -0.647165 -0.148572 0
M  V30 1555 H 148.363 -2.03873 0.172347 0
M  V30 1556 H 148.373 -3.7726 -1.55367 0
M  V30 1557 H 147.048 -4.13356 -0.459313 0
M  V30 1558 H 145.625 -3.14614 -2.0018 0
M  V30 1559 N 147.81 0.181792 -1.56548 0
M  V30 1560 C 148.76 1.22961 -1.92002 0
M  V30 1561 C 149.744 1.40331 -0.787146 0
M  V30 1562 O 150.936 1.42478 -1.05019 0
M  V30 1563 C 148.065 2.57144 -2.27446 0
M  V30 1564 C 147.151 2.43512 -3.47222 0
M  V30 1565 N 147.542 1.99577 -4.64761 0
M  V30 1566 C 145.84 2.74368 -3.51622 0
M  V30 1567 C 146.541 1.98156 -5.46909 0
M  V30 1568 N 145.517 2.40164 -4.8767 0
M  V30 1569 H 149.319 0.881462 -2.8037 0
M  V30 1570 H 146.833 0.390141 -1.57644 0
M  V30 1571 H 148.83 3.32847 -2.51035 0
M  V30 1572 H 147.49 2.92771 -1.40411 0
M  V30 1573 H 148.501 1.70078 -4.89177 0
M  V30 1574 H 145.178 3.14102 -2.75038 0
M  V30 1575 H 146.568 1.65975 -6.51077 0
M  V30 1576 N 149.288 1.51039 0.449983 0
M  V30 1577 C 150.513 1.6715 1.22783 0
M  V30 1578 C 150.938 0.363081 1.84563 0
M  V30 1579 O 150.296 -0.675433 1.68249 0
M  V30 1580 C 150.344 2.77985 2.29689 0
M  V30 1581 O 149.448 2.40707 3.34864 0
M  V30 1582 H 148.789 0.557746 0.360299 0
M  V30 1583 H 151.319 1.97535 0.533005 0
M  V30 1584 H 151.329 3.01693 2.74673 0
M  V30 1585 H 150.004 3.72935 1.84098 0
M  V30 1586 H 148.581 2.27523 2.95445 0
M  V30 1587 N 150.766 -0.704594 1.40972 0
M  V30 1588 C 152.012 -1.46675 1.40051 0
M  V30 1589 C 152.345 -1.94199 0.00641102 0
M  V30 1590 O 151.62 -1.68916 -0.964235 0
M  V30 1591 C 151.903 -2.68505 2.39952 0
M  V30 1592 C 151.756 -2.26805 3.88432 0
M  V30 1593 C 153.075 -3.70686 2.37233 0
M  V30 1594 H 150.194 -0.532015 0.510028 0
M  V30 1595 H 152.836 -0.803255 1.72185 0
M  V30 1596 H 150.986 -3.25114 2.1268 0
M  V30 1597 H 152.658 -1.75592 4.26574 0
M  V30 1598 H 150.901 -1.58685 4.03734 0
M  V30 1599 H 151.572 -3.14181 4.53866 0
M  V30 1600 H 154.048 -3.23731 2.61415 0
M  V30 1601 H 152.924 -4.53553 3.09162 0
M  V30 1602 H 153.185 -4.19754 1.38777 0
M  V30 1603 N 152.244 -1.26651 -0.937939 0
M  V30 1604 C 153.176 -1.04283 -2.04102 0
M  V30 1605 C 154.189 -0.00221014 -1.628 0
M  V30 1606 O 155.378 -0.242645 -1.76843 0
M  V30 1607 C 152.478 -0.557846 -3.34277 0
M  V30 1608 C 151.651 -1.66843 -4.04329 0
M  V30 1609 C 150.71 -1.18095 -5.12777 0
M  V30 1610 O 149.736 -1.87865 -5.37304 0
M  V30 1611 N 150.938 -0.0311006 -5.80492 0
M  V30 1612 H 153.703 -1.9927 -2.23856 0
M  V30 1613 H 151.264 -1.1808 -1.10764 0
M  V30 1614 H 153.256 -0.215836 -4.04124 0
M  V30 1615 H 151.826 0.298523 -3.11171 0
M  V30 1616 H 151.046 -2.18123 -3.28353 0
M  V30 1617 H 152.334 -2.41408 -4.47883 0
M  V30 1618 H 151.732 0.551486 -5.63005 0
M  V30 1619 H 150.289 0.251809 -6.51313 0
M  V30 1620 N 153.722 1.14298 -1.08507 0
M  V30 1621 C 154.999 1.81544 -0.728088 0
M  V30 1622 C 155.379 1.95838 0.78808 0
M  V30 1623 O 154.727 1.51904 1.70697 0
M  V30 1624 C 154.937 3.17169 -1.45619 0
M  V30 1625 C 156.285 3.9265 -1.61591 0
M  V30 1626 O 157.309 3.26762 -1.41793 0
M  V30 1627 O 156.168 5.10807 -1.94263 0
M  V30 1628 H 153.262 0.78491 -0.260471 0
M  V30 1629 H 155.808 1.21307 -1.18671 0
M  V30 1630 H 154.58 3.01934 -2.489 0
M  V30 1631 H 154.203 3.851 -0.989124 0
M  V30 1632 N 155.201 0.870884 1.31352 0
M  V30 1633 C 156.447 0.482987 1.96965 0
M  V30 1634 C 156.78 -0.962462 1.68672 0
M  V30 1635 O 156.055 -1.6779 0.98371 0
M  V30 1636 C 156.338 0.741752 3.52378 0
M  V30 1637 C 156.191 2.2368 3.9024 0
M  V30 1638 C 157.51 0.208838 4.39604 0
M  V30 1639 H 154.629 0.176955 0.715441 0
M  V30 1640 H 157.271 1.09229 1.55464 0
M  V30 1641 H 155.421 0.223149 3.87859 0
M  V30 1642 H 157.093 2.82273 3.64856 0
M  V30 1643 H 155.336 2.70901 3.38814 0
M  V30 1644 H 156.007 2.3685 4.98604 0
M  V30 1645 H 158.483 0.652529 4.10952 0
M  V30 1646 H 157.359 0.419336 5.47296 0
M  V30 1647 H 157.62 -0.889275 4.33064 0
M  V30 1648 N 156.679 -1.44442 0.630414 0
M  V30 1649 C 157.919 -2.03934 0.137919 0
M  V30 1650 C 158.283 -1.48509 -1.21692 0
M  V30 1651 O 159.484 -1.99499 -1.80149 0
M  V30 1652 C 157.755 -3.57187 0.123373 0
M  V30 1653 S 159.314 -4.37741 -0.304604 0
M  V30 1654 H 156.132 -0.708401 0.0607353 0
M  V30 1655 H 158.734 -1.76835 0.833643 0
M  V30 1656 H 157.438 -3.95032 1.11256 0
M  V30 1657 H 156.969 -3.88895 -0.59362 0
M  V30 1658 H 158.984 -4.71403 -1.54897 0
M  V30 1659 N 158.157 -0.370918 -1.53173 0
M  V30 1660 C 159.087 0.464847 -2.28826 0
M  V30 1661 C 160.068 1.07936 -1.31468 0
M  V30 1662 O 161.253 1.0956 -1.60344 0
M  V30 1663 C 158.383 1.60196 -3.08147 0
M  V30 1664 C 157.337 1.11443 -4.13237 0
M  V30 1665 C 156.663 2.3422 -4.80672 0
M  V30 1666 C 157.963 0.195384 -5.21934 0
M  V30 1667 H 159.657 -0.166329 -2.98938 0
M  V30 1668 H 157.203 -0.0814359 -1.4377 0
M  V30 1669 H 159.156 2.19332 -3.59822 0
M  V30 1670 H 157.88 2.26045 -2.35735 0
M  V30 1671 H 156.539 0.545727 -3.62515 0
M  V30 1672 H 156.187 2.98537 -4.04827 0
M  V30 1673 H 155.887 2.02269 -5.51689 0
M  V30 1674 H 157.411 2.94032 -5.35143 0
M  V30 1675 H 158.825 0.694375 -5.69079 0
M  V30 1676 H 157.222 -0.0335027 -6.00091 0
M  V30 1677 H 158.292 -0.760961 -4.78892 0
M  V30 1678 N 159.635 1.57281 -0.100228 0
M  V30 1679 C 160.883 1.94153 0.561157 0
M  V30 1680 C 161.204 0.983157 1.68401 0
M  V30 1681 O 160.474 0.0361132 1.95867 0
M  V30 1682 H 159.054 0.716791 0.210283 0
M  V30 1683 H 161.716 1.94202 -0.164765 0
M  V30 1684 H 160.812 2.96709 0.968008 0
M  V30 1685 N 161.113 -0.173488 1.56642 0
M  V30 1686 C 162.023 -1.23482 1.99473 0
M  V30 1687 C 163.039 -1.48567 0.905752 0
M  V30 1688 O 164.215 -1.60758 1.21321 0
M  V30 1689 C 161.28 -2.55444 2.34413 0
M  V30 1690 C 160.341 -2.38241 3.57127 0
M  V30 1691 C 159.574 -3.63909 3.90392 0
M  V30 1692 O 159.797 -4.68996 3.24653 0
M  V30 1693 O 158.731 -3.58149 4.83749 0
M  V30 1694 H 162.557 -0.901279 2.90018 0
M  V30 1695 H 160.142 -0.380185 1.44482 0
M  V30 1696 H 162.024 -3.33292 2.57865 0
M  V30 1697 H 160.699 -2.88382 1.4703 0
M  V30 1698 H 159.606 -1.58431 3.38896 0
M  V30 1699 H 160.939 -2.10228 4.45045 0
M  V30 1700 N 162.591 -1.51276 -0.441967 0
M  V30 1701 C 163.839 -1.63392 -1.18943 0
M  V30 1702 C 164.16 -0.350159 -1.9183 0
M  V30 1703 O 163.43 0.633784 -1.85364 0
M  V30 1704 H 162.01 -0.602164 -0.442049 0
M  V30 1705 H 164.672 -1.88186 -0.507165 0
M  V30 1706 H 163.768 -2.45934 -1.92154 0
M  V30 1707 N 164.069 0.697108 -1.41344 0
M  V30 1708 C 164.979 1.84088 -1.45427 0
M  V30 1709 C 165.995 1.70545 -0.34501 0
M  V30 1710 O 167.171 1.92488 -0.592492 0
M  V30 1711 C 164.236 3.20056 -1.33286 0
M  V30 1712 C 163.297 3.45718 -2.54514 0
M  V30 1713 C 162.53 4.75199 -2.42944 0
M  V30 1714 O 162.753 5.51579 -1.45318 0
M  V30 1715 O 161.687 5.0161 -3.32672 0
M  V30 1716 H 165.513 1.836 -2.41919 0
M  V30 1717 H 163.098 0.849966 -1.22866 0
M  V30 1718 H 164.98 4.01236 -1.28794 0
M  V30 1719 H 163.655 3.2123 -0.39909 0
M  V30 1720 H 162.562 2.64474 -2.64583 0
M  V30 1721 H 163.895 3.49356 -3.46715 0
M  V30 1722 N 165.547 1.27147 0.931209 0
M  V30 1723 C 166.795 1.13055 1.6752 0
M  V30 1724 C 167.116 -0.324791 1.92276 0
M  V30 1725 O 166.386 -1.22775 1.52654 0
M  V30 1726 H 164.966 0.415391 0.620854 0
M  V30 1727 H 167.628 1.59623 1.11833 0
M  V30 1728 H 166.724 1.65694 2.64485 0
M  V30 1729 N 167.025 -1.13721 1.09112 0
M  V30 1730 C 168.265 -1.86576 0.834801 0
M  V30 1731 C 168.629 -1.81435 -0.628122 0
M  V30 1732 O 169.83 -2.49497 -1.00024 0
M  V30 1733 C 168.101 -3.30872 1.35124 0
M  V30 1734 S 169.66 -4.21257 1.22832 0
M  V30 1735 H 166.478 -0.643666 0.302017 0
M  V30 1736 H 169.08 -1.37085 1.39385 0
M  V30 1737 H 167.784 -3.32166 2.41027 0
M  V30 1738 H 167.315 -3.85423 0.788185 0
M  V30 1739 H 169.33 -4.95884 0.177191 0
M  V30 1740 N 168.503 -0.877838 -1.30888 0
M  V30 1741 C 169.433 -0.35534 -2.3078 0
M  V30 1742 C 170.414 0.557994 -1.60687 0
M  V30 1743 O 171.599 0.473355 -1.88343 0
M  V30 1744 C 168.729 0.437221 -3.44537 0
M  V30 1745 C 167.683 -0.383715 -4.26276 0
M  V30 1746 C 167.009 0.535014 -5.32017 0
M  V30 1747 C 168.309 -1.62201 -4.96476 0
M  V30 1748 H 170.003 -1.19007 -2.74732 0
M  V30 1749 H 167.549 -0.573698 -1.32078 0
M  V30 1750 H 169.502 0.813334 -4.13477 0
M  V30 1751 H 168.226 1.30553 -2.99372 0
M  V30 1752 H 166.885 -0.741874 -3.59015 0
M  V30 1753 H 166.533 1.40083 -4.831 0
M  V30 1754 H 166.233 -0.0104211 -5.87599 0
M  V30 1755 H 167.757 0.907799 -6.03814 0
M  V30 1756 H 169.171 -1.31689 -5.5797 0
M  V30 1757 H 167.568 -2.10711 -5.61891 0
M  V30 1758 H 168.638 -2.37044 -4.23011 0
M  V30 1759 N 169.982 1.44106 -0.638065 0
M  V30 1760 C 171.207 2.0685 -0.150916 0
M  V30 1761 C 171.632 1.47417 1.16833 0
M  V30 1762 O 170.99 0.578264 1.71831 0
M  V30 1763 C 171.038 3.60555 -0.05708 0
M  V30 1764 O 170.142 4.00465 0.984972 0
M  V30 1765 H 169.483 0.658151 -0.0879399 0
M  V30 1766 H 172.013 1.84865 -0.876707 0
M  V30 1767 H 172.023 4.07789 0.131232 0
M  V30 1768 H 170.698 4.03193 -1.02021 0
M  V30 1769 H 169.275 3.64849 0.770672 0
M  V30 1770 N 171.46 0.379036 1.52974 0
M  V30 1771 C 172.706 -0.206727 2.01744 0
M  V30 1772 C 173.039 -1.47314 1.26539 0
M  V30 1773 O 172.314 -1.91084 0.362903 0
M  V30 1774 C 172.597 -0.485066 3.56818 0
M  V30 1775 C 172.45 0.795919 4.42702 0
M  V30 1776 C 173.769 -1.28003 4.21074 0
M  V30 1777 H 170.888 -0.0736607 0.73331 0
M  V30 1778 H 173.53 0.506581 1.83122 0
M  V30 1779 H 171.68 -1.09272 3.72816 0
M  V30 1780 H 173.352 1.43307 4.38476 0
M  V30 1781 H 171.595 1.41344 4.10127 0
M  V30 1782 H 172.266 0.555947 5.49193 0
M  V30 1783 H 174.742 -0.765867 4.08991 0
M  V30 1784 H 173.618 -1.44352 5.29579 0
M  V30 1785 H 173.879 -2.29236 3.78026 0
M  V30 1786 N 172.938 -1.57226 0.108567 0
M  V30 1787 C 174.215 -1.86333 -0.594939 0
M  V30 1788 C 174.595 -1.00788 -1.85486 0
M  V30 1789 O 173.943 -0.0839293 -2.28346 0
M  V30 1790 C 174.153 -3.37265 -0.897405 0
M  V30 1791 C 175.501 -4.05629 -1.25501 0
M  V30 1792 O 176.525 -3.42224 -0.987998 0
M  V30 1793 O 175.384 -5.17531 -1.75567 0
M  V30 1794 H 172.478 -0.771018 -0.2991 0
M  V30 1795 H 175.024 -1.69102 0.142283 0
M  V30 1796 H 173.796 -3.913 -0.00413806 0
M  V30 1797 H 173.419 -3.59889 -1.69014 0
M  V30 1798 N 174.416 0.165178 -1.56732 0
M  V30 1799 C 175.832 0.517174 -1.50988 0
M  V30 1800 C 176.032 1.84331 -0.813894 0
M  V30 1801 O 175.088 2.49672 -0.37682 0
M  V30 1802 C 176.401 0.544261 -2.95733 0
M  V30 1803 C 177.949 0.631039 -3.06573 0
M  V30 1804 C 178.424 0.68896 -4.52788 0
M  V30 1805 N 179.915 0.751683 -4.5706 0
M  V30 1806 C 180.65 0.817177 -5.67547 0
M  V30 1807 N 180.146 0.843129 -6.8765 0
M  V30 1808 N 181.939 0.856668 -5.55534 0
M  V30 1809 H 174.09 -0.704318 -2.00382 0
M  V30 1810 H 176.353 -0.254687 -0.913148 0
M  V30 1811 H 176.059 -0.361607 -3.49836 0
M  V30 1812 H 175.933 1.3886 -3.5071 0
M  V30 1813 H 178.32 1.52733 -2.52501 0
M  V30 1814 H 178.401 -0.240095 -2.54671 0
M  V30 1815 H 178.045 -0.2031 -5.07494 0
M  V30 1816 H 177.975 1.57633 -5.02454 0
M  V30 1817 H 180.466 0.739661 -3.70591 0
M  V30 1818 H 180.779 0.894448 -7.67606 0
M  V30 1819 H 179.124 0.811304 -6.90248 0
M  V30 1820 H 182.315 0.833437 -4.60621 0
M  V30 1821 H 182.488 0.904247 -6.4166 0
M  V30 1822 N 175.894 1.51508 0.433938 0
M  V30 1823 C 177.171 1.54888 1.19453 0
M  V30 1824 C 177.551 0.315154 2.08734 0
M  V30 1825 O 176.899 -0.699558 2.17528 0
M  V30 1826 C 177.109 2.86467 1.99342 0
M  V30 1827 C 178.457 3.38545 2.56267 0
M  V30 1828 O 179.481 2.88041 2.0955 0
M  V30 1829 O 178.34 4.26675 3.41483 0
M  V30 1830 H 175.434 0.622863 0.544032 0
M  V30 1831 H 177.98 1.63823 0.442732 0
M  V30 1832 H 176.752 3.67718 1.33788 0
M  V30 1833 H 176.375 2.8071 2.8158 0
M  V30 1834 N 177.372 -0.689602 1.41712 0
M  V30 1835 C 178.618 -1.45181 1.41599 0
M  V30 1836 C 178.951 -1.94181 0.0270081 0
M  V30 1837 O 178.226 -1.6993 -0.946265 0
M  V30 1838 C 178.509 -2.65945 2.42787 0
M  V30 1839 C 178.362 -2.22672 3.90816 0
M  V30 1840 C 179.681 -3.68149 2.41151 0
M  V30 1841 H 176.8 -0.526576 0.515642 0
M  V30 1842 H 179.442 -0.784947 1.73028 0
M  V30 1843 H 177.592 -3.2284 2.16116 0
M  V30 1844 H 179.264 -1.71058 4.28412 0
M  V30 1845 H 177.507 -1.54394 4.05395 0
M  V30 1846 H 178.178 -3.0935 4.57172 0
M  V30 1847 H 180.654 -3.2094 2.64834 0
M  V30 1848 H 179.53 -4.50248 3.13955 0
M  V30 1849 H 179.791 -4.18259 1.43221 0
M  V30 1850 N 178.85 -1.27639 -0.924453 0
M  V30 1851 C 180.261 -1.12834 -1.48746 0
M  V30 1852 C 180.612 0.285505 -1.94112 0
M  V30 1853 O 179.737 1.17874 -1.81479 0
M  V30 1854 C 180.332 -2.04217 -2.70334 0
M  V30 1855 C 178.891 -1.93509 -3.22848 0
M  V30 1856 C 178.038 -1.96583 -1.95577 0
M  V30 1857 H 180.989 -1.40484 -0.738233 0
M  V30 1858 H 181.01 -1.59989 -3.4523 0
M  V30 1859 H 180.522 -3.07111 -2.37285 0
M  V30 1860 H 178.623 -0.936131 -3.60649 0
M  V30 1861 H 178.736 -2.79917 -3.88823 0
M  V30 1862 H 177.1 -1.4085 -2.12211 0
M  V30 1863 H 177.883 -3.01137 -1.64837 0
M  V30 1864 N 180.328 1.1314 -1.09713 0
M  V30 1865 C 181.576 1.84119 -0.833338 0
M  V30 1866 C 181.897 1.84097 0.642904 0
M  V30 1867 O 181.167 1.29881 1.46655 0
M  V30 1868 H 179.747 0.681766 -0.305293 0
M  V30 1869 H 182.409 1.37038 -1.38588 0
M  V30 1870 H 181.505 2.88543 -1.18951 0
M  V30 1871 N 181.806 0.884767 1.30421 0
M  V30 1872 C 183.036 0.517293 2.00019 0
M  V30 1873 C 183.444 -0.898632 1.66497 0
M  V30 1874 O 182.787 -1.60245 0.898181 0
M  V30 1875 C 182.849 0.612025 3.54252 0
M  V30 1876 C 182.513 1.99222 4.1129 0
M  V30 1877 C 183.51 2.9616 4.273 0
M  V30 1878 C 181.195 2.29755 4.46674 0
M  V30 1879 C 183.189 4.21764 4.77906 0
M  V30 1880 C 180.876 3.55606 4.96979 0
M  V30 1881 C 181.874 4.51425 5.12547 0
M  V30 1882 O 181.562 5.75043 5.61766 0
M  V30 1883 H 181.294 0.198529 0.64619 0
M  V30 1884 H 183.848 1.1919 1.67281 0
M  V30 1885 H 182.078 -0.119561 3.86515 0
M  V30 1886 H 183.767 0.255859 4.05093 0
M  V30 1887 H 184.533 2.73882 4.00267 0
M  V30 1888 H 180.412 1.55942 4.33824 0
M  V30 1889 H 183.956 4.96561 4.89972 0
M  V30 1890 H 179.853 3.7772 5.23448 0
M  V30 1891 H 180.621 5.77422 5.80109 0
M  V30 1892 N 183.284 -1.43765 0.645699 0
M  V30 1893 C 184.53 -2.02197 0.156271 0
M  V30 1894 C 184.863 -1.50776 -1.22393 0
M  V30 1895 O 184.138 -0.697771 -1.81553 0
M  V30 1896 C 184.421 -3.59749 0.158872 0
M  V30 1897 C 184.274 -4.21419 1.57245 0
M  V30 1898 C 185.593 -4.37149 -0.50879 0
M  V30 1899 H 182.712 -0.734694 0.0582602 0
M  V30 1900 H 185.354 -1.71157 0.824951 0
M  V30 1901 H 183.504 -3.86325 -0.410525 0
M  V30 1902 H 185.176 -4.059 2.19186 0
M  V30 1903 H 183.419 -3.78356 2.122 0
M  V30 1904 H 184.09 -5.30482 1.52619 0
M  V30 1905 H 186.566 -4.16093 -0.024412 0
M  V30 1906 H 185.442 -5.4683 -0.476213 0
M  V30 1907 H 185.703 -4.12839 -1.58165 0
M  V30 1908 N 184.763 -0.387143 -1.52771 0
M  V30 1909 C 186.009 0.196025 -2.0185 0
M  V30 1910 C 186.342 1.46641 -1.27319 0
M  V30 1911 O 185.617 1.90889 -0.373032 0
M  V30 1912 C 185.9 0.466136 -3.5707 0
M  V30 1913 C 185.753 -0.819385 -4.42274 0
M  V30 1914 C 187.072 1.25768 -4.21747 0
M  V30 1915 H 184.191 0.0697708 -0.73369 0
M  V30 1916 H 186.833 -0.516286 -1.82851 0
M  V30 1917 H 184.983 1.07293 -3.7339 0
M  V30 1918 H 186.655 -1.4563 -4.37709 0
M  V30 1919 H 184.898 -1.43517 -4.09372 0
M  V30 1920 H 185.569 -0.585065 -5.48891 0
M  V30 1921 H 188.045 0.744167 -4.09391 0
M  V30 1922 H 186.921 1.41541 -5.30337 0
M  V30 1923 H 187.182 2.27228 -3.79236 0
M  V30 1924 N 186.241 1.57166 -0.116904 0
M  V30 1925 C 187.657 1.5779 0.239693 0
M  V30 1926 C 187.857 1.1295 1.66867 0
M  V30 1927 O 186.913 0.81592 2.38954 0
M  V30 1928 C 188.226 3.00699 0.00828202 0
M  V30 1929 C 189.774 3.12912 0.0743438 0
M  V30 1930 C 190.249 4.57817 -0.129348 0
M  V30 1931 N 191.74 4.63139 -0.075247 0
M  V30 1932 C 192.475 5.73023 -0.207788 0
M  V30 1933 N 191.971 6.91665 -0.396382 0
M  V30 1934 N 193.764 5.61906 -0.14751 0
M  V30 1935 H 185.915 1.84615 -1.05029 0
M  V30 1936 H 188.178 0.85311 -0.41341 0
M  V30 1937 H 187.884 3.37784 -0.979531 0
M  V30 1938 H 187.758 3.69848 0.741077 0
M  V30 1939 H 190.145 2.75686 1.05268 0
M  V30 1940 H 190.226 2.4631 -0.690297 0
M  V30 1941 H 189.87 4.95742 -1.10465 0
M  V30 1942 H 189.8 5.22507 0.655253 0
M  V30 1943 H 192.291 3.7784 0.0670898 0
M  V30 1944 H 192.604 7.71255 -0.488437 0
M  V30 1945 H 190.949 6.93654 -0.432329 0
M  V30 1946 H 194.14 4.681 -0.00115036 0
M  V30 1947 H 194.313 6.47501 -0.254247 0
M  V30 1948 N 187.719 -0.156864 1.56817 0
M  V30 1949 C 188.669 -1.19891 1.93934 0
M  V30 1950 C 189.653 -1.39061 0.809372 0
M  V30 1951 O 190.845 -1.40789 1.07273 0
M  V30 1952 C 187.974 -2.53493 2.31508 0
M  V30 1953 C 187.06 -2.37957 3.51052 0
M  V30 1954 N 187.451 -1.92158 4.67877 0
M  V30 1955 C 185.749 -2.68739 3.55943 0
M  V30 1956 C 186.45 -1.8943 5.49992 0
M  V30 1957 N 185.426 -2.32375 4.91429 0
M  V30 1958 H 189.228 -0.836746 2.81737 0
M  V30 1959 H 186.742 -0.365012 1.58245 0
M  V30 1960 H 188.739 -3.28811 2.56299 0
M  V30 1961 H 187.399 -2.905 1.45051 0
M  V30 1962 H 188.41 -1.62274 4.91821 0
M  V30 1963 H 185.087 -3.09687 2.80001 0
M  V30 1964 H 186.477 -1.55596 6.53636 0
M  V30 1965 N 189.197 -1.51736 -0.425897 0
M  V30 1966 C 190.145 -1.74464 -1.53834 0
M  V30 1967 C 191.139 -0.611241 -1.57988 0
M  V30 1968 O 192.345 -0.792899 -1.61596 0
M  V30 1969 H 188.72 -0.551437 -0.511293 0
M  V30 1970 H 190.691 -2.67694 -1.31843 0
M  V30 1971 C 189.44 -1.8972 -2.91379 0
M  V30 1972 H 188.763 -2.76344 -2.88919 0
M  V30 1973 H 190.203 -2.09629 -3.68553 0
M  V30 1974 C 188.662 -0.65992 -3.30374 0
M  V30 1975 O 189.192 0.180083 -4.01296 0
M  V30 1976 N 187.398 -0.500677 -2.86254 0
M  V30 1977 H 186.945 -1.18532 -2.28709 0
M  V30 1978 H 186.903 0.325903 -3.12706 0
M  V30 1979 N 190.675 0.682077 -1.42076 0
M  V30 1980 C 191.622 1.79578 -1.44984 0
M  V30 1981 C 192.592 1.6332 -0.302614 0
M  V30 1982 O 193.777 1.83978 -0.505633 0
M  V30 1983 C 190.917 3.1756 -1.35091 0
M  V30 1984 C 190.03 3.45156 -2.59791 0
M  V30 1985 C 189.165 4.72826 -2.42093 0
M  V30 1986 C 188.204 4.93433 -3.62202 0
M  V30 1987 N 187.341 6.12338 -3.43491 0
M  V30 1988 H 192.181 1.76427 -2.40161 0
M  V30 1989 H 189.718 0.861376 -1.19242 0
M  V30 1990 H 191.676 3.97287 -1.27354 0
M  V30 1991 H 190.306 3.19854 -0.435133 0
M  V30 1992 H 189.358 2.59736 -2.77923 0
M  V30 1993 H 190.67 3.5628 -3.49094 0
M  V30 1994 H 189.824 5.60631 -2.319 0
M  V30 1995 H 188.563 4.63973 -1.50268 0
M  V30 1996 H 187.568 4.04073 -3.72834 0
M  V30 1997 H 188.793 5.04136 -4.54998 0
M  V30 1998 H 186.739 6.04672 -2.54377 0
M  V30 1999 H 186.656 6.2429 -4.26377 0
M  V30 2000 H 187.924 7.02841 -3.37097 0
M  V30 2001 N 192.153 1.28127 0.917671 0
M  V30 2002 C 193.402 1.14432 1.66097 0
M  V30 2003 C 193.715 -0.307247 1.93172 0
M  V30 2004 O 194.921 -0.565259 2.65551 0
M  V30 2005 C 193.377 2.00015 2.99202 0
M  V30 2006 C 192.985 3.49889 2.79789 0
M  V30 2007 C 194.729 1.94996 3.77064 0
M  V30 2008 C 192.636 4.27636 4.08511 0
M  V30 2009 H 191.566 0.424662 0.62304 0
M  V30 2010 H 194.217 1.52628 1.01868 0
M  V30 2011 H 192.599 1.54672 3.64544 0
M  V30 2012 H 193.773 4.03162 2.23152 0
M  V30 2013 H 192.088 3.56392 2.15345 0
M  V30 2014 H 194.685 2.50354 4.72469 0
M  V30 2015 H 195.028 0.925819 4.05875 0
M  V30 2016 H 195.561 2.38287 3.18534 0
M  V30 2017 H 192.3 5.30615 3.84874 0
M  V30 2018 H 191.82 3.79137 4.64774 0
M  V30 2019 H 193.499 4.37346 4.76799 0
M  V30 2020 N 193.631 -1.12557 1.10312 0
M  V30 2021 C 194.859 -1.87864 0.866873 0
M  V30 2022 C 195.274 -1.79588 -0.582557 0
M  V30 2023 O 194.631 -1.16887 -1.40156 0
M  V30 2024 C 194.682 -3.37125 1.30496 0
M  V30 2025 O 194.403 -3.45201 2.69755 0
M  V30 2026 C 195.904 -4.29373 1.10243 0
M  V30 2027 H 193.124 -0.594452 0.311236 0
M  V30 2028 H 195.668 -1.42429 1.46745 0
M  V30 2029 H 193.823 -3.80109 0.748081 0
M  V30 2030 H 194.237 -4.38056 2.88457 0
M  V30 2031 H 195.711 -5.32394 1.45811 0
M  V30 2032 H 196.188 -4.39181 0.0409492 0
M  V30 2033 H 196.794 -3.92169 1.64571 0
M  V30 2034 N 195.109 -0.891671 -1.2995 0
M  V30 2035 C 196.355 -0.514261 -1.96171 0
M  V30 2036 C 196.688 0.935506 -1.70182 0
M  V30 2037 O 195.963 1.66204 -1.01028 0
M  V30 2038 C 196.246 -0.797719 -3.51153 0
M  V30 2039 C 196.099 -2.2986 -3.86632 0
M  V30 2040 C 197.418 -0.278749 -4.39216 0
M  V30 2041 H 194.537 -0.188314 -0.712535 0
M  V30 2042 H 197.179 -1.11689 -1.53706 0
M  V30 2043 H 195.329 -0.284826 -3.87455 0
M  V30 2044 H 197.001 -2.88042 -3.60319 0
M  V30 2045 H 195.244 -2.76257 -3.34462 0
M  V30 2046 H 195.915 -2.44753 -4.94773 0
M  V30 2047 H 198.391 -0.717825 -4.09862 0
M  V30 2048 H 197.267 -0.506353 -5.46559 0
M  V30 2049 H 197.528 0.820266 -4.34424 0
M  V30 2050 N 196.587 1.43421 -0.653314 0
M  V30 2051 C 197.812 2.06678 -0.172846 0
M  V30 2052 C 198.237 1.48648 1.15262 0
M  V30 2053 O 197.595 0.596457 1.71208 0
M  V30 2054 C 197.643 3.60474 -0.0953184 0
M  V30 2055 O 196.747 4.01487 0.942442 0
M  V30 2056 H 196.088 0.657181 -0.0949155 0
M  V30 2057 H 198.618 1.83925 -0.896265 0
M  V30 2058 H 198.628 4.07905 0.0879728 0
M  V30 2059 H 197.303 4.02088 -1.06291 0
M  V30 2060 H 195.88 3.65646 0.731932 0
M  V30 2061 N 198.065 0.39524 1.52563 0
M  V30 2062 C 199.295 -0.184675 2.05773 0
M  V30 2063 C 199.703 -1.40571 1.26635 0
M  V30 2064 O 199.046 -1.81105 0.30769 0
M  V30 2065 C 199.108 -0.613551 3.54226 0
M  V30 2066 C 198.772 0.49484 4.54313 0
M  V30 2067 C 199.769 1.3541 5.01956 0
M  V30 2068 C 197.454 0.663565 4.97898 0
M  V30 2069 C 199.448 2.36716 5.91814 0
M  V30 2070 C 197.135 1.67996 5.87555 0
M  V30 2071 C 198.133 2.53017 6.34406 0
M  V30 2072 O 197.821 3.52917 7.22291 0
M  V30 2073 H 197.553 -0.030077 0.675331 0
M  V30 2074 H 200.107 0.560708 1.97599 0
M  V30 2075 H 198.337 -1.411 3.60038 0
M  V30 2076 H 200.026 -1.11981 3.90148 0
M  V30 2077 H 200.792 1.23509 4.6901 0
M  V30 2078 H 196.671 0.0114913 4.60999 0
M  V30 2079 H 200.215 3.03113 6.28306 0
M  V30 2080 H 196.112 1.79933 6.19915 0
M  V30 2081 H 196.88 3.48996 7.40367 0
M  V30 2082 N 199.544 -1.57102 0.125237 0
M  V30 2083 C 200.791 -1.95407 -0.531248 0
M  V30 2084 C 201.119 -1.0089 -1.66287 0
M  V30 2085 O 200.374 -0.0339431 -1.95671 0
M  V30 2086 C 200.673 -3.40096 -1.09862 0
M  V30 2087 C 200.339 -4.50815 -0.0876989 0
M  V30 2088 C 199.001 -4.80824 0.19026 0
M  V30 2089 C 201.353 -5.17724 0.600902 0
M  V30 2090 C 198.681 -5.75058 1.163 0
M  V30 2091 C 201.033 -6.13005 1.56231 0
M  V30 2092 C 199.697 -6.41403 1.8482 0
M  V30 2093 H 198.967 -0.715046 -0.194397 0
M  V30 2094 H 201.614 -1.90373 0.207463 0
M  V30 2095 H 199.919 -3.41855 -1.91422 0
M  V30 2096 H 201.616 -3.6705 -1.61478 0
M  V30 2097 H 198.206 -4.27444 -0.314528 0
M  V30 2098 H 202.39 -4.94691 0.399333 0
M  V30 2099 H 197.646 -5.95362 1.39117 0
M  V30 2100 H 201.82 -6.63934 2.10153 0
M  V30 2101 H 199.447 -7.14229 2.60349 0
M  V30 2102 N 201.022 0.148545 -1.56898 0
M  V30 2103 C 202.299 0.890019 -1.74178 0
M  V30 2104 C 202.679 1.99407 -0.692839 0
M  V30 2105 O 202.027 2.26671 0.288505 0
M  V30 2106 C 202.237 1.43389 -3.18183 0
M  V30 2107 C 203.585 1.89791 -3.79822 0
M  V30 2108 O 204.609 1.53134 -3.21603 0
M  V30 2109 O 203.468 2.57387 -4.82093 0
M  V30 2110 H 200.562 0.420496 -0.712118 0
M  V30 2111 H 203.108 0.134591 -1.69165 0
M  V30 2112 H 201.88 0.640383 -3.86024 0
M  V30 2113 H 201.503 2.25287 -3.27615 0
M  V30 2114 N 202.5 1.5196 0.417844 0
M  V30 2115 C 203.433 1.69387 1.52916 0
M  V30 2116 C 204.411 0.541419 1.53321 0
M  V30 2117 O 205.595 0.767695 1.72159 0
M  V30 2118 C 202.722 1.72525 2.91467 0
M  V30 2119 C 201.768 2.93967 3.09008 0
M  V30 2120 S 202.601 4.54461 2.83242 0
M  V30 2121 C 203.757 4.60372 4.24038 0
M  V30 2122 H 203.99 2.63382 1.37903 0
M  V30 2123 H 201.523 1.41889 0.608845 0
M  V30 2124 H 203.481 1.75018 3.7132 0
M  V30 2125 H 202.142 0.796733 3.03827 0
M  V30 2126 H 201.335 2.92619 4.10353 0
M  V30 2127 H 200.937 2.89316 2.37007 0
M  V30 2128 H 203.229 4.37213 5.17544 0
M  V30 2129 H 204.172 5.62273 4.30412 0
M  V30 2130 H 204.58 3.89492 4.08602 0
M  V30 2131 N 203.978 -0.674533 1.42435 0
M  V30 2132 C 204.941 -1.76986 1.45632 0
M  V30 2133 C 205.941 -1.5708 0.343871 0
M  V30 2134 O 207.131 -1.63367 0.604709 0
M  V30 2135 C 204.263 -3.15623 1.28822 0
M  V30 2136 H 205.456 -1.75539 2.43158 0
M  V30 2137 H 203.009 -0.884189 1.28887 0
M  V30 2138 H 203.744 -3.22696 0.322193 0
M  V30 2139 H 203.529 -3.31475 2.09444 0
M  V30 2140 H 205.019 -3.95537 1.33942 0
M  V30 2141 N 205.456 -1.28612 -0.910864 0
M  V30 2142 C 206.704 -1.15705 -1.65701 0
M  V30 2143 C 207.025 0.29416 -1.92769 0
M  V30 2144 O 206.295 1.20331 -1.54588 0
M  V30 2145 H 204.875 -0.425216 -0.614167 0
M  V30 2146 H 207.537 -1.61381 -1.0928 0
M  V30 2147 H 206.633 -1.6988 -2.61815 0
M  V30 2148 N 206.934 1.1197 -1.10907 0
M  V30 2149 C 207.844 2.21433 -0.774896 0
M  V30 2150 C 208.86 1.72478 0.229657 0
M  V30 2151 O 210.036 2.01288 0.0672008 0
M  V30 2152 C 207.101 3.4602 -0.216986 0
M  V30 2153 C 206.162 4.09791 -1.27944 0
M  V30 2154 C 205.395 5.28431 -0.748055 0
M  V30 2155 O 205.618 5.68823 0.423833 0
M  V30 2156 O 204.552 5.82644 -1.51027 0
M  V30 2157 H 208.378 2.5242 -1.68873 0
M  V30 2158 H 205.963 1.20399 -0.884555 0
M  V30 2159 H 207.845 4.21304 0.090059 0
M  V30 2160 H 206.52 3.16698 0.669633 0
M  V30 2161 H 205.427 3.36265 -1.63941 0
M  V30 2162 H 206.76 4.4328 -2.13925 0
M  V30 2163 N 208.412 0.89855 1.29475 0
M  V30 2164 C 209.359 0.373819 2.27753 0
M  V30 2165 C 210.329 -0.543444 1.56958 0
M  V30 2166 O 211.514 -0.468934 1.84948 0
M  V30 2167 C 208.654 -0.393648 3.42848 0
M  V30 2168 C 207.767 0.554379 4.28428 0
M  V30 2169 C 206.902 -0.230026 5.30702 0
M  V30 2170 C 205.941 0.712599 6.07938 0
M  V30 2171 N 205.078 -0.0373283 7.0209 0
M  V30 2172 H 209.918 1.21699 2.72017 0
M  V30 2173 H 207.455 0.611456 1.33789 0
M  V30 2174 H 209.413 -0.85466 4.08352 0
M  V30 2175 H 208.043 -1.20128 2.99615 0
M  V30 2176 H 207.095 1.13391 3.63107 0
M  V30 2177 H 208.407 1.27597 4.82204 0
M  V30 2178 H 207.561 -0.752288 6.02018 0
M  V30 2179 H 206.3 -0.984758 4.77654 0
M  V30 2180 H 205.305 1.24637 5.35486 0
M  V30 2181 H 206.53 1.46664 6.63074 0
M  V30 2182 H 204.476 -0.774348 6.51414 0
M  V30 2183 H 204.393 0.624374 7.53417 0
M  V30 2184 H 205.661 -0.539891 7.77628 0
M  V30 2185 N 209.89 -1.43072 0.660911 0
M  V30 2186 C 210.84 -2.27948 -0.04847 0
M  V30 2187 C 211.824 -1.40325 -0.787246 0
M  V30 2188 O 213.016 -1.63893 -0.668446 0
M  V30 2189 C 210.145 -3.28143 -1.00881 0
M  V30 2190 C 209.231 -4.23252 -0.268108 0
M  V30 2191 N 209.622 -5.00656 0.719528 0
M  V30 2192 C 207.92 -4.43092 -0.508493 0
M  V30 2193 C 208.621 -5.70019 1.15988 0
M  V30 2194 N 207.597 -5.41364 0.492584 0
M  V30 2195 H 211.399 -2.85213 0.709279 0
M  V30 2196 H 208.913 -1.54869 0.488822 0
M  V30 2197 H 210.91 -3.87736 -1.53188 0
M  V30 2198 H 209.57 -2.7244 -1.76654 0
M  V30 2199 H 210.581 -5.06115 1.09855 0
M  V30 2200 H 207.258 -3.98449 -1.24679 0
M  V30 2201 H 208.648 -6.4214 1.97751 0
M  V30 2202 N 211.368 -0.403325 -1.52352 0
M  V30 2203 C 212.315 0.425011 -2.26853 0
M  V30 2204 C 213.285 1.04598 -1.29029 0
M  V30 2205 O 214.47 1.07135 -1.57882 0
M  V30 2206 C 211.61 1.53888 -3.08889 0
M  V30 2207 C 210.723 0.939396 -4.21663 0
M  V30 2208 C 209.858 2.02547 -4.91068 0
M  V30 2209 C 208.897 1.40263 -5.95813 0
M  V30 2210 N 208.034 2.4286 -6.58759 0
M  V30 2211 H 212.874 -0.21674 -2.97211 0
M  V30 2212 H 210.411 -0.118722 -1.4662 0
M  V30 2213 H 212.369 2.19558 -3.54753 0
M  V30 2214 H 210.999 2.15074 -2.40714 0
M  V30 2215 H 210.051 0.171898 -3.80011 0
M  V30 2216 H 211.363 0.44436 -4.96817 0
M  V30 2217 H 210.517 2.75958 -5.40308 0
M  V30 2218 H 209.256 2.55415 -4.15469 0
M  V30 2219 H 208.261 0.653833 -5.45898 0
M  V30 2220 H 209.486 0.881719 -6.73352 0
M  V30 2221 H 207.432 2.94871 -5.85992 0
M  V30 2222 H 207.349 1.98152 -7.2957 0
M  V30 2223 H 208.617 3.15858 -7.12639 0
M  V30 2224 N 212.846 1.57033 -0.133567 0
M  V30 2225 C 214.092 1.95976 0.521649 0
M  V30 2226 C 214.425 1.01779 1.65393 0
M  V30 2227 O 213.7 0.0576581 1.94415 0
M  V30 2228 C 213.983 3.44738 1.04057 0
M  V30 2229 C 213.836 4.49711 -0.0892897 0
M  V30 2230 C 215.155 3.95682 1.92675 0
M  V30 2231 H 212.274 0.712579 0.188149 0
M  V30 2232 H 214.916 1.88813 -0.212076 0
M  V30 2233 H 213.066 3.50973 1.66583 0
M  V30 2234 H 214.738 4.55565 -0.725152 0
M  V30 2235 H 212.981 4.27261 -0.750378 0
M  V30 2236 H 213.652 5.51099 0.315284 0
M  V30 2237 H 216.128 3.91841 1.39998 0
M  V30 2238 H 215.004 5.00262 2.25897 0
M  V30 2239 H 215.265 3.37239 2.85872 0
M  V30 2240 N 214.325 -0.140222 1.56975 0
M  V30 2241 C 215.741 -0.493088 1.51792 0
M  V30 2242 C 215.941 -1.83013 0.843116 0
M  V30 2243 O 214.997 -2.49041 0.416493 0
M  V30 2244 C 216.31 -0.497144 2.96562 0
M  V30 2245 C 217.858 -0.582186 3.07538 0
M  V30 2246 C 218.333 -0.616838 4.53827 0
M  V30 2247 N 219.824 -0.678873 4.58198 0
M  V30 2248 C 220.559 -0.726782 5.68775 0
M  V30 2249 N 220.055 -0.733623 6.88905 0
M  V30 2250 N 221.848 -0.768179 5.56826 0
M  V30 2251 H 213.999 0.736108 1.99237 0
M  V30 2252 H 216.262 0.269182 0.90898 0
M  V30 2253 H 215.968 0.417217 3.49217 0
M  V30 2254 H 215.842 -1.33263 3.52875 0
M  V30 2255 H 218.229 -1.48697 2.54899 0
M  V30 2256 H 218.31 0.280581 2.54257 0
M  V30 2257 H 217.954 0.283812 5.07106 0
M  V30 2258 H 217.884 -1.49619 5.04898 0
M  V30 2259 H 220.375 -0.68061 3.7172 0
M  V30 2260 H 220.688 -0.772215 7.68932 0
M  V30 2261 H 219.033 -0.701389 6.91452 0
M  V30 2262 H 222.224 -0.760051 4.61888 0
M  V30 2263 H 222.397 -0.80205 6.43017 0
M  V30 2264 N 215.803 -1.52179 -0.40978 0
M  V30 2265 C 216.733 -1.78435 -1.5061 0
M  V30 2266 C 217.714 -0.635295 -1.57791 0
M  V30 2267 O 218.899 -0.880823 -1.73076 0
M  V30 2268 C 216.029 -1.93444 -2.88439 0
M  V30 2269 C 214.983 -3.09038 -2.96108 0
M  V30 2270 C 214.309 -3.09268 -4.36185 0
M  V30 2271 C 215.609 -4.48508 -2.67652 0
M  V30 2272 H 217.303 -2.70237 -1.28889 0
M  V30 2273 H 214.849 -1.30036 -0.618605 0
M  V30 2274 H 216.802 -2.10394 -3.65119 0
M  V30 2275 H 215.526 -0.983129 -3.11452 0
M  V30 2276 H 214.185 -2.91837 -2.21872 0
M  V30 2277 H 213.833 -2.11861 -4.56206 0
M  V30 2278 H 213.533 -3.86907 -4.42241 0
M  V30 2279 H 215.057 -3.28348 -5.14801 0
M  V30 2280 H 216.471 -4.65918 -3.34056 0
M  V30 2281 H 214.868 -5.28059 -2.85085 0
M  V30 2282 H 215.938 -4.56649 -1.63095 0
M  V30 2283 N 217.281 0.66697 -1.42791 0
M  V30 2284 C 218.228 1.7803 -1.4688 0
M  V30 2285 C 219.198 1.6299 -0.319919 0
M  V30 2286 O 220.383 1.83432 -0.525118 0
M  V30 2287 C 217.523 3.1611 -1.38451 0
M  V30 2288 C 216.636 3.42381 -2.63437 0
M  V30 2289 C 215.771 4.70232 -2.47094 0
M  V30 2290 C 214.81 4.89564 -3.67415 0
M  V30 2291 N 213.947 6.08661 -3.49966 0
M  V30 2292 H 218.787 1.7387 -2.42019 0
M  V30 2293 H 216.324 0.84868 -1.20149 0
M  V30 2294 H 218.282 3.95914 -1.31561 0
M  V30 2295 H 216.912 3.19374 -0.469033 0
M  V30 2296 H 215.964 2.56774 -2.80662 0
M  V30 2297 H 217.276 3.52557 -3.52853 0
M  V30 2298 H 216.43 5.5814 -2.37834 0
M  V30 2299 H 215.169 4.62353 -1.5518 0
M  V30 2300 H 214.174 4.00096 -3.77099 0
M  V30 2301 H 215.399 4.99282 -4.6032 0
M  V30 2302 H 213.345 6.0194 -2.60776 0
M  V30 2303 H 213.262 6.19733 -4.32975 0
M  V30 2304 H 214.53 6.99226 -3.44532 0
M  V30 2305 N 218.759 1.29093 0.90403 0
M  V30 2306 C 219.707 1.13727 2.02901 0
M  V30 2307 C 220.701 0.0539853 1.69314 0
M  V30 2308 O 221.907 0.213469 1.7873 0
M  V30 2309 H 218.282 0.35117 0.664969 0
M  V30 2310 H 220.253 2.08982 2.13001 0
M  V30 2311 C 219.002 0.826066 3.37745 0
M  V30 2312 H 218.325 1.65164 3.64089 0
M  V30 2313 H 219.765 0.758559 4.17159 0
M  V30 2314 C 218.224 -0.470541 3.33598 0
M  V30 2315 O 218.754 -1.49792 3.72727 0
M  V30 2316 N 216.96 -0.474812 2.86695 0
M  V30 2317 H 216.507 0.361692 2.55048 0
M  V30 2318 H 216.465 -1.34236 2.84303 0
M  V30 2319 N 220.237 -1.11381 1.11499 0
M  V30 2320 C 221.467 -1.86663 0.885464 0
M  V30 2321 C 221.875 -1.80464 -0.568281 0
M  V30 2322 O 221.218 -1.18445 -1.40415 0
M  V30 2323 C 221.28 -3.36337 1.26956 0
M  V30 2324 C 220.944 -3.66304 2.73259 0
M  V30 2325 C 221.941 -3.63733 3.71476 0
M  V30 2326 C 219.626 -3.9529 3.09921 0
M  V30 2327 C 221.62 -3.89725 5.04374 0
M  V30 2328 C 219.307 -4.20941 4.43004 0
M  V30 2329 C 220.305 -4.18147 5.40039 0
M  V30 2330 O 219.993 -4.43153 6.70724 0
M  V30 2331 H 219.725 -0.597114 0.316908 0
M  V30 2332 H 222.279 -1.41782 1.48617 0
M  V30 2333 H 220.509 -3.81826 0.611999 0
M  V30 2334 H 222.198 -3.92986 1.01573 0
M  V30 2335 H 222.964 -3.41389 3.44498 0
M  V30 2336 H 218.843 -3.966 2.35009 0
M  V30 2337 H 222.387 -3.8746 5.80104 0
M  V30 2338 H 218.284 -4.42761 4.69716 0
M  V30 2339 H 219.052 -4.60717 6.76522 0
M  V30 2340 N 221.715 -0.905404 -1.28997 0
M  V30 2341 C 222.625 -0.392246 -2.31298 0
M  V30 2342 C 223.641 0.515889 -1.66176 0
M  V30 2343 O 224.817 0.404093 -1.97304 0
M  V30 2344 C 221.882 0.36686 -3.44754 0
M  V30 2345 C 220.943 -0.573485 -4.25452 0
M  V30 2346 C 220.176 0.149488 -5.33491 0
M  V30 2347 O 220.399 1.37255 -5.5364 0
M  V30 2348 O 219.333 -0.510919 -5.99728 0
M  V30 2349 H 223.159 -1.2411 -2.77183 0
M  V30 2350 H 220.744 -0.669926 -1.33538 0
M  V30 2351 H 222.626 0.795907 -4.13816 0
M  V30 2352 H 221.301 1.19169 -3.00966 0
M  V30 2353 H 220.208 -1.05176 -3.59011 0
M  V30 2354 H 221.541 -1.36489 -4.72897 0
M  V30 2355 N 223.193 1.4272 -0.668489 0
M  V30 2356 C 224.156 2.292 0.00448567 0
M  V30 2357 C 225.156 1.43001 0.735339 0
M  V30 2358 O 226.346 1.64461 0.57429 0
M  V30 2359 C 223.478 3.25375 1.01705 0
M  V30 2360 H 224.671 2.90199 -0.756608 0
M  V30 2361 H 222.224 1.50254 -0.430506 0
M  V30 2362 H 222.959 2.69301 1.80686 0
M  V30 2363 H 222.744 3.88944 0.496463 0
M  V30 2364 H 224.234 3.90245 1.48655 0
M  V30 2365 N 224.671 0.411399 1.52136 0
M  V30 2366 C 225.92 -0.165009 2.01024 0
M  V30 2367 C 226.233 -1.4603 1.30133 0
M  V30 2368 O 227.439 -2.1181 1.69849 0
M  V30 2369 C 225.895 -0.344618 3.58246 0
M  V30 2370 C 225.503 0.938716 4.38055 0
M  V30 2371 C 227.247 -0.876195 4.15359 0
M  V30 2372 C 225.154 0.726172 5.86925 0
M  V30 2373 H 224.084 -0.0654407 0.751155 0
M  V30 2374 H 226.735 0.537192 1.75461 0
M  V30 2375 H 225.117 -1.10921 3.80148 0
M  V30 2376 H 226.291 1.70963 4.27912 0
M  V30 2377 H 224.606 1.39688 3.92271 0
M  V30 2378 H 227.203 -1.05128 5.24263 0
M  V30 2379 H 227.546 -1.85152 3.7286 0
M  V30 2380 H 228.079 -0.170607 3.97434 0
M  V30 2381 H 224.818 1.67312 6.33788 0
M  V30 2382 H 224.338 -0.00540283 5.998 0
M  V30 2383 H 226.017 0.369231 6.45946 0
M  V30 2384 N 226.149 -1.5696 0.141893 0
M  V30 2385 C 227.395 -1.9625 -0.511248 0
M  V30 2386 C 227.728 -1.02654 -1.64851 0
M  V30 2387 O 227.003 -0.0679676 -1.94381 0
M  V30 2388 C 227.286 -3.45285 -1.02227 0
M  V30 2389 C 227.139 -4.49658 0.113138 0
M  V30 2390 C 228.458 -3.96698 -1.90574 0
M  V30 2391 H 225.577 -0.713567 -0.184367 0
M  V30 2392 H 228.219 -1.88698 0.222087 0
M  V30 2393 H 226.369 -3.51852 -1.64719 0
M  V30 2394 H 228.041 -4.55174 0.749302 0
M  V30 2395 H 226.284 -4.26857 0.773026 0
M  V30 2396 H 226.955 -5.51258 -0.286053 0
M  V30 2397 H 229.431 -3.92578 -1.37918 0
M  V30 2398 H 228.307 -5.01453 -2.2324 0
M  V30 2399 H 228.568 -3.3875 -2.84079 0
M  V30 2400 N 227.627 0.131896 -1.57047 0
M  V30 2401 C 228.873 0.843179 -1.84441 0
M  V30 2402 C 229.206 1.80129 -0.725749 0
M  V30 2403 O 228.481 1.92624 0.269469 0
M  V30 2404 C 228.764 1.60442 -3.22382 0
M  V30 2405 C 228.617 0.666782 -4.4483 0
M  V30 2406 C 229.936 2.56354 -3.5773 0
M  V30 2407 H 227.055 0.305081 -0.670891 0
M  V30 2408 H 229.697 0.107839 -1.89694 0
M  V30 2409 H 227.847 2.23128 -3.18035 0
M  V30 2410 H 229.519 0.0497646 -4.61273 0
M  V30 2411 H 227.762 -0.022609 -4.33794 0
M  V30 2412 H 228.433 1.23579 -5.37989 0
M  V30 2413 H 230.909 2.0378 -3.62785 0
M  V30 2414 H 229.785 3.06657 -4.5525 0
M  V30 2415 H 230.046 3.38419 -2.84473 0
M  V30 2416 N 229.106 1.52395 0.401703 0
M  V30 2417 C 230.038 1.72505 1.50912 0
M  V30 2418 C 231.051 0.605468 1.51122 0
M  V30 2419 O 232.24 0.880828 1.55254 0
M  V30 2420 C 229.34 1.75711 2.89791 0
M  V30 2421 C 228.513 3.04824 3.1369 0
M  V30 2422 C 227.572 2.99743 4.32482 0
M  V30 2423 O 226.598 3.73635 4.29402 0
M  V30 2424 N 227.8 2.18047 5.37992 0
M  V30 2425 H 230.565 2.68049 1.34052 0
M  V30 2426 H 228.126 1.50724 0.591084 0
M  V30 2427 H 230.118 1.69834 3.6734 0
M  V30 2428 H 228.688 0.876092 3.00072 0
M  V30 2429 H 227.908 3.2429 2.24119 0
M  V30 2430 H 229.196 3.90221 3.26504 0
M  V30 2431 H 228.594 1.57456 5.43345 0
M  V30 2432 H 227.151 2.18021 6.14256 0
M  V30 2433 N 230.584 -0.659388 1.43143 0
M  V30 2434 C 231.534 -1.7655 1.44271 0
M  V30 2435 C 232.518 -1.57847 0.311961 0
M  V30 2436 O 233.71 -1.68064 0.555306 0
M  V30 2437 C 230.839 -3.15104 1.36251 0
M  V30 2438 C 229.925 -3.39377 2.54331 0
M  V30 2439 N 230.316 -3.34153 3.79704 0
M  V30 2440 C 228.614 -3.70072 2.48922 0
M  V30 2441 C 229.315 -3.58337 4.58225 0
M  V30 2442 N 228.291 -3.79851 3.88863 0
M  V30 2443 H 232.093 -1.70928 2.39083 0
M  V30 2444 H 229.607 -0.860823 1.37708 0
M  V30 2445 H 231.604 -3.94389 1.35141 0
M  V30 2446 H 230.264 -3.21913 0.424531 0
M  V30 2447 H 231.275 -3.13704 4.1208 0
M  V30 2448 H 227.952 -3.84034 1.63781 0
M  V30 2449 H 229.342 -3.60129 5.67236 0
M  V30 2450 N 232.062 -1.29571 -0.897171 0
M  V30 2451 C 232.972 -1.16808 -2.03453 0
M  V30 2452 C 233.988 -0.0907471 -1.73763 0
M  V30 2453 O 235.164 -0.303312 -1.99103 0
M  V30 2454 C 232.229 -0.848264 -3.36163 0
M  V30 2455 C 231.29 -2.0097 -3.79354 0
M  V30 2456 C 230.523 -1.70505 -5.05731 0
M  V30 2457 O 230.746 -0.62718 -5.66941 0
M  V30 2458 O 229.68 -2.5538 -5.45036 0
M  V30 2459 H 233.506 -2.12325 -2.17144 0
M  V30 2460 H 231.091 -1.09047 -1.02123 0
M  V30 2461 H 232.973 -0.684581 -4.15802 0
M  V30 2462 H 231.648 0.0771071 -3.23608 0
M  V30 2463 H 230.555 -2.22863 -3.00471 0
M  V30 2464 H 231.888 -2.91636 -3.96496 0
M  V30 2465 N 233.54 1.10788 -1.12088 0
M  V30 2466 C 234.789 1.82036 -0.868659 0
M  V30 2467 C 235.102 1.85929 0.607426 0
M  V30 2468 O 236.308 2.53346 0.97613 0
M  V30 2469 C 234.764 3.26951 -1.50435 0
M  V30 2470 C 234.372 3.31367 -3.01496 0
M  V30 2471 C 236.116 4.03053 -1.33225 0
M  V30 2472 C 234.023 4.7072 -3.58017 0
M  V30 2473 H 232.953 0.682108 -0.321318 0
M  V30 2474 H 235.604 1.24618 -1.34694 0
M  V30 2475 H 233.986 3.84343 -0.953735 0
M  V30 2476 H 235.16 2.83819 -3.6302 0
M  V30 2477 H 233.475 2.6875 -3.18061 0
M  V30 2478 H 236.072 5.05981 -1.72878 0
M  V30 2479 H 236.415 4.15387 -0.275529 0
M  V30 2480 H 236.948 3.52066 -1.85188 0
M  V30 2481 H 233.687 4.63585 -4.63432 0
M  V30 2482 H 233.207 5.1865 -3.01268 0
M  V30 2483 H 234.886 5.39685 -3.56859 0
M  V30 2484 N 235.018 0.912232 1.28515 0
M  V30 2485 C 236.295 0.463597 1.90027 0
M  V30 2486 C 236.675 -1.05753 1.82701 0
M  V30 2487 O 236.023 -1.90492 1.26194 0
M  V30 2488 C 236.233 0.992253 3.34597 0
M  V30 2489 C 237.581 1.04344 4.11579 0
M  V30 2490 O 238.605 0.94079 3.43551 0
M  V30 2491 O 237.464 1.1995 5.33174 0
M  V30 2492 H 234.558 0.146666 0.813891 0
M  V30 2493 H 237.104 1.00292 1.36893 0
M  V30 2494 H 235.876 2.03623 3.34146 0
M  V30 2495 H 235.499 0.433672 3.95228 0
M  V30 2496 N 236.496 -1.42363 0.676048 0
M  V30 2497 C 237.446 -2.27987 -0.0242903 0
M  V30 2498 C 238.43 -1.41153 -0.772319 0
M  V30 2499 O 239.622 -1.64592 -0.651025 0
M  V30 2500 C 236.751 -3.29195 -0.973953 0
M  V30 2501 C 235.837 -4.23512 -0.223202 0
M  V30 2502 N 236.228 -4.99865 0.772589 0
M  V30 2503 C 234.526 -4.43606 -0.461469 0
M  V30 2504 C 235.227 -5.68757 1.22027 0
M  V30 2505 N 234.203 -5.40811 0.549975 0
M  V30 2506 H 238.005 -2.84445 0.73949 0
M  V30 2507 H 235.519 -1.54341 0.50522 0
M  V30 2508 H 237.516 -3.89339 -1.49067 0
M  V30 2509 H 236.176 -2.74298 -1.73755 0
M  V30 2510 H 237.187 -5.04921 1.15217 0
M  V30 2511 H 233.864 -3.99749 -1.20446 0
M  V30 2512 H 235.254 -6.40007 2.0455 0
M  V30 2513 N 237.974 -0.419461 -1.51915 0
M  V30 2514 C 239.223 0.154346 -2.01109 0
M  V30 2515 C 239.536 1.45338 -1.30905 0
M  V30 2516 O 240.742 2.10906 -1.7097 0
M  V30 2517 C 239.198 0.325615 -3.58424 0
M  V30 2518 C 238.806 -0.961934 -4.37551 0
M  V30 2519 C 240.55 0.854155 -4.15818 0
M  V30 2520 C 238.457 -0.757287 -5.86531 0
M  V30 2521 H 237.387 0.0614563 -0.751491 0
M  V30 2522 H 240.038 -0.54649 -1.75173 0
M  V30 2523 H 238.42 1.08903 -3.80731 0
M  V30 2524 H 239.594 -1.7323 -4.26999 0
M  V30 2525 H 237.909 -1.41766 -3.91524 0
M  V30 2526 H 240.506 1.02346 -5.24814 0
M  V30 2527 H 240.849 1.83172 -3.73837 0
M  V30 2528 H 241.382 0.149528 -3.97519 0
M  V30 2529 H 238.121 -1.70671 -6.32892 0
M  V30 2530 H 237.641 -0.0264061 -5.99794 0
M  V30 2531 H 239.32 -0.403482 -6.45741 0
M  V30 2532 N 239.452 1.56882 -0.150215 0
M  V30 2533 C 240.4 2.18214 0.805313 0
M  V30 2534 C 241.394 1.14006 1.25296 0
M  V30 2535 O 242.6 1.3225 1.22107 0
M  V30 2536 H 238.975 0.698762 0.277913 0
M  V30 2537 H 240.946 2.97231 0.263862 0
M  V30 2538 C 239.695 2.82065 2.03309 0
M  V30 2539 H 239.018 3.61968 1.69763 0
M  V30 2540 H 240.458 3.28477 2.68103 0
M  V30 2541 C 238.917 1.80739 2.84315 0
M  V30 2542 O 239.447 1.27983 3.80767 0
M  V30 2543 N 237.653 1.4997 2.48913 0
M  V30 2544 H 237.2 1.93062 1.70542 0
M  V30 2545 H 237.158 0.824217 3.03404 0
M  V30 2546 N 240.93 -0.123565 1.57115 0
M  V30 2547 C 242.178 -0.83051 1.84247 0
M  V30 2548 C 242.499 -1.80629 0.73471 0
M  V30 2549 O 241.769 -1.94403 -0.241688 0
M  V30 2550 H 240.349 -0.309694 0.679778 0
M  V30 2551 H 243.011 -0.111976 1.94578 0
M  V30 2552 H 242.107 -1.37852 2.80006 0
M  V30 2553 N 242.408 -1.52605 -0.393616 0
M  V30 2554 C 243.657 -1.66649 -1.13627 0
M  V30 2555 C 243.97 -0.410364 -1.91247 0
M  V30 2556 O 245.176 -0.430854 -2.68059 0
M  V30 2557 C 243.632 -2.9449 -2.06891 0
M  V30 2558 C 243.24 -4.27266 -1.34714 0
M  V30 2559 C 244.984 -3.17899 -2.81319 0
M  V30 2560 C 242.891 -5.46217 -2.26717 0
M  V30 2561 H 241.821 -0.62084 -0.427871 0
M  V30 2562 H 244.472 -1.791 -0.399428 0
M  V30 2563 H 242.854 -2.75774 -2.84191 0
M  V30 2564 H 244.028 -4.56518 -0.626714 0
M  V30 2565 H 242.343 -4.10081 -0.722643 0
M  V30 2566 H 244.94 -4.03949 -3.50328 0
M  V30 2567 H 245.283 -2.32777 -3.45139 0
M  V30 2568 H 245.816 -3.37159 -2.11113 0
M  V30 2569 H 242.555 -6.33733 -1.67521 0
M  V30 2570 H 242.075 -5.21283 -2.96689 0
M  V30 2571 H 243.754 -5.7991 -2.86903 0
M  V30 2572 N 243.887 0.651787 -1.4349 0
M  V30 2573 C 244.82 1.77668 -1.43211 0
M  V30 2574 C 245.798 1.59931 -0.29338 0
M  V30 2575 O 246.982 1.82095 -0.487191 0
M  V30 2576 C 244.109 3.14986 -1.24505 0
M  V30 2577 C 243.155 3.51421 -2.41673 0
M  V30 2578 S 243.988 3.51234 -4.04222 0
M  V30 2579 C 245.144 4.91206 -3.87902 0
M  V30 2580 H 245.377 1.77635 -2.38397 0
M  V30 2581 H 242.91 0.824558 -1.30539 0
M  V30 2582 H 244.868 3.94237 -1.144 0
M  V30 2583 H 243.529 3.1258 -0.308651 0
M  V30 2584 H 242.722 4.51291 -2.24393 0
M  V30 2585 H 242.324 2.79585 -2.48411 0
M  V30 2586 H 244.616 5.79902 -3.50315 0
M  V30 2587 H 245.559 5.13537 -4.8753 0
M  V30 2588 H 245.967 4.64808 -3.20334 0
M  V30 2589 N 245.365 1.30045 0.890287 0
M  V30 2590 C 246.612 1.18561 1.64163 0
M  V30 2591 C 246.94 -0.260852 1.92743 0
M  V30 2592 O 246.195 -1.20376 1.54299 0
M  V30 2593 C 246.494 1.95409 2.99249 0
M  V30 2594 C 246.16 3.45066 2.90242 0
M  V30 2595 C 244.822 3.85878 2.87492 0
M  V30 2596 C 247.174 4.4039 2.78758 0
M  V30 2597 C 244.502 5.20314 2.7109 0
M  V30 2598 C 246.854 5.74928 2.63894 0
M  V30 2599 C 245.518 6.14986 2.59516 0
M  V30 2600 H 244.788 0.433846 0.600715 0
M  V30 2601 H 247.435 1.61088 1.03552 0
M  V30 2602 H 245.74 1.45501 3.63781 0
M  V30 2603 H 247.437 1.8392 3.56334 0
M  V30 2604 H 244.027 3.12631 2.93189 0
M  V30 2605 H 248.211 4.09806 2.79952 0
M  V30 2606 H 243.467 5.50449 2.66112 0
M  V30 2607 H 247.641 6.48434 2.53981 0
M  V30 2608 H 245.268 7.19104 2.46565 0
M  V30 2609 N 246.843 -1.10192 1.12674 0
M  V30 2610 C 248.073 -1.85713 0.905213 0
M  V30 2611 C 248.481 -1.81056 -0.549108 0
M  V30 2612 O 247.824 -1.19927 -1.39151 0
M  V30 2613 C 247.886 -3.34972 1.30516 0
M  V30 2614 C 247.55 -3.63385 2.77129 0
M  V30 2615 C 248.547 -3.59772 3.75313 0
M  V30 2616 C 246.232 -3.91981 3.14096 0
M  V30 2617 C 248.226 -3.84354 5.08479 0
M  V30 2618 C 245.913 -4.16218 4.47443 0
M  V30 2619 C 246.911 -4.12395 5.44444 0
M  V30 2620 O 246.599 -4.36014 6.75387 0
M  V30 2621 H 246.331 -0.593719 0.323223 0
M  V30 2622 H 248.885 -1.40198 1.50112 0
M  V30 2623 H 247.115 -3.81156 0.652463 0
M  V30 2624 H 248.804 -3.91886 1.05736 0
M  V30 2625 H 249.57 -3.37716 3.48099 0
M  V30 2626 H 245.449 -3.94085 2.39202 0
M  V30 2627 H 248.993 -3.81285 5.84181 0
M  V30 2628 H 244.89 -4.37754 4.74386 0
M  V30 2629 H 245.658 -4.53516 6.8137 0
M  V30 2630 N 248.321 -0.919034 -1.28029 0
M  V30 2631 C 249.598 -0.473668 -1.89778 0
M  V30 2632 C 249.978 1.04783 -1.83259 0
M  V30 2633 O 249.326 1.8982 -1.27202 0
M  V30 2634 C 249.536 -1.00998 -3.34066 0
M  V30 2635 C 250.884 -1.06525 -4.1102 0
M  V30 2636 O 251.908 -0.958996 -3.43048 0
M  V30 2637 O 250.767 -1.22776 -5.3253 0
M  V30 2638 H 247.861 -0.15098 -0.813101 0
M  V30 2639 H 250.407 -1.01016 -1.36359 0
M  V30 2640 H 249.179 -2.05392 -3.33061 0
M  V30 2641 H 248.802 -0.454626 -3.94992 0
M  V30 2642 N 249.799 1.42003 -0.683588 0
M  V30 2643 C 250.749 2.27997 0.0121992 0
M  V30 2644 C 251.733 1.4156 0.764822 0
M  V30 2645 O 252.925 1.64935 0.642287 0
M  V30 2646 C 250.054 3.29706 0.956482 0
M  V30 2647 C 249.14 4.23625 0.200739 0
M  V30 2648 N 249.531 4.99448 -0.799087 0
M  V30 2649 C 247.829 4.43845 0.437937 0
M  V30 2650 C 248.53 5.68102 -1.25041 0
M  V30 2651 N 247.506 5.40511 -0.578648 0
M  V30 2652 H 251.308 2.84048 -0.754564 0
M  V30 2653 H 248.822 1.54071 -0.513398 0
M  V30 2654 H 250.819 3.90124 1.47 0
M  V30 2655 H 249.479 2.75216 1.72297 0
M  V30 2656 H 250.49 5.04303 -1.17893 0
M  V30 2657 H 247.167 4.00382 1.18325 0
M  V30 2658 H 248.557 6.38913 -2.07942 0
M  V30 2659 N 251.277 0.427512 1.51691 0
M  V30 2660 C 252.526 -0.143679 2.01188 0
M  V30 2661 C 252.839 -1.44642 1.31674 0
M  V30 2662 O 254.045 -2.09997 1.72086 0
M  V30 2663 C 252.501 -0.306602 3.58592 0
M  V30 2664 C 252.109 0.985125 4.37035 0
M  V30 2665 C 253.853 -0.832091 4.16265 0
M  V30 2666 C 251.76 0.788382 5.86122 0
M  V30 2667 H 250.69 -0.0574701 0.751807 0
M  V30 2668 H 253.341 0.555772 1.74881 0
M  V30 2669 H 251.723 -1.06882 3.81303 0
M  V30 2670 H 252.897 1.75492 4.26074 0
M  V30 2671 H 251.212 1.4384 3.90767 0
M  V30 2672 H 253.809 -0.995617 5.25349 0
M  V30 2673 H 254.152 -1.81186 3.74803 0
M  V30 2674 H 254.685 -0.128444 3.97593 0
M  V30 2675 H 251.424 1.74025 6.31978 0
M  V30 2676 H 250.944 0.0582143 5.99772 0
M  V30 2677 H 252.623 0.437722 6.45518 0
M  V30 2678 N 252.755 -1.56801 0.158532 0
M  V30 2679 C 253.703 -2.18638 -0.793729 0
M  V30 2680 C 254.697 -1.14669 -1.24689 0
M  V30 2681 O 255.903 -1.32895 -1.21403 0
M  V30 2682 H 252.278 -0.700226 -0.274204 0
M  V30 2683 H 254.249 -2.97367 -0.248095 0
M  V30 2684 C 252.998 -2.83139 -2.0181 0
M  V30 2685 H 252.321 -3.62863 -1.67841 0
M  V30 2686 H 253.761 -3.29894 -2.66357 0
M  V30 2687 C 252.22 -1.82244 -2.83353 0
M  V30 2688 O 252.75 -1.3 -3.80083 0
M  V30 2689 N 250.956 -1.51288 -2.48114 0
M  V30 2690 H 250.503 -1.93964 -1.69516 0
M  V30 2691 H 250.461 -0.840296 -3.02963 0
M  V30 2692 N 254.233 0.115231 -1.57178 0
M  V30 2693 C 255.18 1.14115 -2.00615 0
M  V30 2694 C 256.15 1.40939 -0.878941 0
M  V30 2695 O 257.335 1.52741 -1.14345 0
M  V30 2696 C 254.475 2.46156 -2.4187 0
M  V30 2697 C 253.588 2.26236 -3.68024 0
M  V30 2698 C 252.723 3.51534 -3.98243 0
M  V30 2699 C 251.762 3.26787 -5.17568 0
M  V30 2700 N 250.899 4.44298 -5.43639 0
M  V30 2701 H 255.739 0.763743 -2.88047 0
M  V30 2702 H 253.276 0.365615 -1.42484 0
M  V30 2703 H 255.234 3.23189 -2.63827 0
M  V30 2704 H 253.864 2.81783 -1.57475 0
M  V30 2705 H 252.916 1.40102 -3.5366 0
M  V30 2706 H 254.228 2.03929 -4.55208 0
M  V30 2707 H 253.382 4.36984 -4.20868 0
M  V30 2708 H 252.121 3.76876 -3.09541 0
M  V30 2709 H 251.126 2.39729 -4.94783 0
M  V30 2710 H 252.351 3.02812 -6.0785 0
M  V30 2711 H 250.297 4.69754 -4.57895 0
M  V30 2712 H 250.214 4.25109 -6.25154 0
M  V30 2713 H 251.482 5.3087 -5.70786 0
M  V30 2714 N 255.711 1.52812 0.385517 0
M  V30 2715 C 256.621 1.80766 1.49535 0
M  V30 2716 C 257.637 0.694651 1.59532 0
M  V30 2717 O 258.813 0.982611 1.75803 0
M  V30 2718 C 255.878 1.97381 2.85029 0
M  V30 2719 C 254.939 3.21295 2.84724 0
M  V30 2720 C 254.172 3.37108 4.13756 0
M  V30 2721 O 254.395 2.5765 5.08893 0
M  V30 2722 O 253.329 4.30378 4.20783 0
M  V30 2723 H 257.155 2.75015 1.28842 0
M  V30 2724 H 254.74 1.37946 0.573697 0
M  V30 2725 H 256.622 2.09996 3.65349 0
M  V30 2726 H 255.297 1.06322 3.05741 0
M  V30 2727 H 254.204 3.1412 2.03174 0
M  V30 2728 H 255.537 4.12212 2.68965 0
M  V30 2729 N 257.189 -0.644168 1.43834 0
M  V30 2730 C 258.137 -1.77793 1.49974 0
M  V30 2731 C 259.131 -1.65253 0.372536 0
M  V30 2732 O 260.337 -1.7149 0.546924 0
M  V30 2733 H 256.712 -0.58675 0.47035 0
M  V30 2734 H 258.683 -1.69736 2.45423 0
M  V30 2735 C 257.432 -3.16087 1.4486 0
M  V30 2736 H 256.755 -3.26378 2.30905 0
M  V30 2737 H 258.195 -3.95349 1.53217 0
M  V30 2738 C 256.654 -3.36484 0.167463 0
M  V30 2739 O 257.184 -3.94298 -0.767609 0
M  V30 2740 N 255.39 -2.90504 0.0747556 0
M  V30 2741 H 254.937 -2.4364 0.836507 0
M  V30 2742 H 254.895 -3.04527 -0.781714 0
M  V30 2743 N 258.668 -1.30515 -0.883378 0
M  V30 2744 C 260.079 -1.17509 -1.45081 0
M  V30 2745 C 260.43 0.223605 -1.94922 0
M  V30 2746 O 259.555 1.12041 -1.85137 0
M  V30 2747 C 260.15 -2.12715 -2.63701 0
M  V30 2748 C 258.709 -2.03682 -3.16529 0
M  V30 2749 C 257.856 -2.02706 -1.89224 0
M  V30 2750 H 260.807 -1.42762 -0.693165 0
M  V30 2751 H 260.828 -1.70891 -3.39965 0
M  V30 2752 H 260.34 -3.14505 -2.27395 0
M  V30 2753 H 258.441 -1.05039 -3.57488 0
M  V30 2754 H 258.554 -2.92146 -3.7972 0
M  V30 2755 H 256.918 -1.4753 -2.07622 0
M  V30 2756 H 257.701 -3.06229 -1.55174 0
M  V30 2757 N 260.146 1.09593 -1.13257 0
M  V30 2758 C 261.393 1.81734 -0.893257 0
M  V30 2759 C 261.721 1.8563 0.580656 0
M  V30 2760 O 260.976 1.31906 1.44566 0
M  V30 2761 C 261.275 3.27802 -1.42411 0
M  V30 2762 C 260.941 3.44041 -2.91456 0
M  V30 2763 C 259.603 3.48181 -3.3215 0
M  V30 2764 C 261.955 3.48719 -3.87356 0
M  V30 2765 C 259.283 3.54575 -4.67433 0
M  V30 2766 C 261.635 3.56648 -5.2248 0
M  V30 2767 C 260.299 3.59055 -5.62704 0
M  V30 2768 H 259.569 0.665011 -0.326866 0
M  V30 2769 H 262.216 1.2912 -1.41422 0
M  V30 2770 H 260.521 3.83042 -0.823795 0
M  V30 2771 H 262.218 3.82149 -1.21503 0
M  V30 2772 H 258.808 3.41502 -2.58987 0
M  V30 2773 H 262.992 3.44763 -3.57004 0
M  V30 2774 H 258.248 3.54725 -4.97976 0
M  V30 2775 H 262.422 3.59212 -5.96607 0
M  V30 2776 H 260.049 3.63763 -6.67518 0
M  V30 2777 N 261.624 0.925811 1.2754 0
M  V30 2778 C 262.587 0.428129 2.25166 0
M  V30 2779 C 263.587 -0.452261 1.54309 0
M  V30 2780 O 264.777 -0.253608 1.72344 0
M  V30 2781 C 261.909 -0.384749 3.38722 0
M  V30 2782 H 263.102 1.29066 2.70706 0
M  V30 2783 H 260.655 0.706323 1.3943 0
M  V30 2784 H 261.39 -1.26618 2.98561 0
M  V30 2785 H 261.175 0.246454 3.91325 0
M  V30 2786 H 262.665 -0.723389 4.11287 0
M  V30 2787 N 263.102 -1.41638 0.69111 0
M  V30 2788 C 264.032 -2.3347 0.037248 0
M  V30 2789 C 265.013 -1.51575 -0.771947 0
M  V30 2790 O 266.198 -1.80126 -0.72582 0
M  V30 2791 C 263.328 -3.35354 -0.903064 0
M  V30 2792 C 262.282 -4.27526 -0.201288 0
M  V30 2793 C 261.608 -5.19747 -1.25565 0
M  V30 2794 C 262.908 -5.13959 0.929689 0
M  V30 2795 H 264.602 -2.88397 0.804227 0
M  V30 2796 H 262.148 -1.38669 0.388189 0
M  V30 2797 H 264.101 -3.98519 -1.36969 0
M  V30 2798 H 262.825 -2.78767 -1.70166 0
M  V30 2799 H 261.484 -3.65779 0.245265 0
M  V30 2800 H 261.132 -4.59479 -2.04666 0
M  V30 2801 H 260.832 -5.8225 -0.791128 0
M  V30 2802 H 262.356 -5.85789 -1.72288 0
M  V30 2803 H 263.77 -5.70718 0.543546 0
M  V30 2804 H 262.167 -5.85379 1.32103 0
M  V30 2805 H 263.237 -4.51389 1.77133 0
M  V30 2806 N 264.58 -0.43555 -1.51462 0
M  V30 2807 C 265.527 0.376797 -2.27703 0
M  V30 2808 C 266.497 1.01838 -1.31219 0
M  V30 2809 O 267.682 1.03762 -1.60119 0
M  V30 2810 C 264.822 1.47301 -3.12084 0
M  V30 2811 C 263.935 0.849744 -4.2356 0
M  V30 2812 C 263.07 1.92086 -4.95254 0
M  V30 2813 C 262.109 1.27593 -5.98654 0
M  V30 2814 N 261.246 2.28833 -6.63762 0
M  V30 2815 H 266.086 -0.279734 -2.96684 0
M  V30 2816 H 263.623 -0.149795 -1.46335 0
M  V30 2817 H 265.581 2.11984 -3.59331 0
M  V30 2818 H 264.211 2.0992 -2.45221 0
M  V30 2819 H 263.263 0.0912529 -3.80291 0
M  V30 2820 H 264.575 0.338878 -4.97648 0
M  V30 2821 H 263.729 2.64435 -5.46039 0
M  V30 2822 H 262.468 2.46545 -4.20793 0
M  V30 2823 H 261.473 0.537893 -5.47162 0
M  V30 2824 H 262.698 0.738693 -6.7507 0
M  V30 2825 H 260.644 2.82375 -5.92115 0
M  V30 2826 H 260.561 1.82632 -7.33608 0
M  V30 2827 H 261.829 3.00671 -7.19178 0
M  V30 2828 N 266.058 1.56714 -0.166846 0
M  V30 2829 C 266.968 2.21331 0.777791 0
M  V30 2830 C 267.984 1.20358 1.25658 0
M  V30 2831 O 269.16 1.53005 1.30964 0
M  V30 2832 C 266.225 2.83787 1.99163 0
M  V30 2833 C 265.286 3.99947 1.56016 0
M  V30 2834 C 264.519 4.59415 2.71613 0
M  V30 2835 O 264.742 4.17769 3.88362 0
M  V30 2836 O 263.676 5.49359 2.45945 0
M  V30 2837 H 267.502 3.02605 0.257636 0
M  V30 2838 H 265.087 1.49275 0.0611393 0
M  V30 2839 H 266.969 3.23405 2.70161 0
M  V30 2840 H 265.644 2.05513 2.50092 0
M  V30 2841 H 264.551 3.65007 0.819809 0
M  V30 2842 H 265.884 4.79801 1.09782 0
M  V30 2843 N 267.536 -0.106894 1.57237 0
M  V30 2844 C 268.784 -0.810921 1.85117 0
M  V30 2845 C 269.105 -1.7984 0.753827 0
M  V30 2846 O 268.375 -1.94649 -0.221056 0
M  V30 2847 H 266.955 -0.302466 0.683025 0
M  V30 2848 H 269.617 -0.0913324 1.94686 0
M  V30 2849 H 268.713 -1.34875 2.81452 0
M  V30 2850 N 269.014 -1.53014 -0.377408 0
M  V30 2851 C 270.26 -1.68872 -1.12294 0
M  V30 2852 C 270.593 -0.433224 -1.89306 0
M  V30 2853 O 269.868 0.569258 -1.85983 0
M  V30 2854 C 270.151 -2.93115 -2.09179 0
M  V30 2855 C 270.004 -4.28794 -1.35853 0
M  V30 2856 C 271.323 -3.12928 -3.09458 0
M  V30 2857 H 268.442 -0.614518 -0.406862 0
M  V30 2858 H 271.084 -1.85633 -0.40503 0
M  V30 2859 H 269.234 -2.78956 -2.70399 0
M  V30 2860 H 270.906 -4.54742 -0.775082 0
M  V30 2861 H 269.149 -4.28744 -0.660364 0
M  V30 2862 H 269.82 -5.11837 -2.06706 0
M  V30 2863 H 272.296 -3.26194 -2.58334 0
M  V30 2864 H 271.172 -4.01316 -3.74482 0
M  V30 2865 H 271.433 -2.27669 -3.78971 0
M  V30 2866 N 270.492 0.636531 -1.44174 0
M  V30 2867 C 271.422 1.76003 -1.53444 0
M  V30 2868 C 272.403 1.65619 -0.387841 0
M  V30 2869 O 273.588 1.84461 -0.607257 0
M  V30 2870 C 270.718 3.14511 -1.4731 0
M  V30 2871 C 269.672 3.39677 -2.60391 0
M  V30 2872 C 268.998 4.78159 -2.39308 0
M  V30 2873 C 270.298 3.32772 -4.02567 0
M  V30 2874 H 271.992 1.68501 -2.47483 0
M  V30 2875 H 269.538 0.809237 -1.19111 0
M  V30 2876 H 271.491 3.92878 -1.52397 0
M  V30 2877 H 270.215 3.22783 -0.49785 0
M  V30 2878 H 268.874 2.63688 -2.54684 0
M  V30 2879 H 268.522 4.83128 -1.39988 0
M  V30 2880 H 268.222 4.95956 -3.15122 0
M  V30 2881 H 269.746 5.58762 -2.46205 0
M  V30 2882 H 271.16 4.01051 -4.09672 0
M  V30 2883 H 269.557 3.62104 -4.7854 0
M  V30 2884 H 270.627 2.30669 -4.2652 0
M  V30 2885 N 271.97 1.30982 0.876444 0
M  V30 2886 C 273.216 1.20474 1.63138 0
M  V30 2887 C 273.549 -0.238096 1.92735 0
M  V30 2888 O 272.824 -1.1692 1.55435 0
M  V30 2889 C 273.107 2.04244 2.96574 0
M  V30 2890 C 272.96 3.56793 2.73896 0
M  V30 2891 C 274.279 1.88684 3.97601 0
M  V30 2892 H 271.398 0.439001 0.591985 0
M  V30 2893 H 274.04 1.60704 1.01361 0
M  V30 2894 H 272.19 1.70063 3.493 0
M  V30 2895 H 273.862 4.01077 2.27892 0
M  V30 2896 H 272.105 3.80548 2.08245 0
M  V30 2897 H 272.776 4.10706 3.68815 0
M  V30 2898 H 275.252 2.18584 3.54062 0
M  V30 2899 H 274.128 2.4961 4.88862 0
M  V30 2900 H 274.389 0.848343 4.33884 0
M  V30 2901 N 273.449 -1.08991 1.13837 0
M  V30 2902 C 274.698 -1.80631 0.897509 0
M  V30 2903 C 275.011 -1.86872 -0.57777 0
M  V30 2904 O 276.217 -2.54866 -0.935701 0
M  V30 2905 C 274.673 -3.24517 1.55618 0
M  V30 2906 C 274.281 -3.26529 3.0673 0
M  V30 2907 C 276.025 -4.00882 1.3962 0
M  V30 2908 C 273.932 -4.64965 3.65461 0
M  V30 2909 H 272.862 -0.67691 0.332129 0
M  V30 2910 H 275.513 -1.2246 1.3666 0
M  V30 2911 H 273.895 -3.82778 1.01476 0
M  V30 2912 H 275.069 -2.78008 3.67489 0
M  V30 2913 H 273.384 -2.63656 3.22296 0
M  V30 2914 H 275.981 -5.03167 1.80906 0
M  V30 2915 H 276.324 -4.14896 0.341578 0
M  V30 2916 H 276.857 -3.49075 1.90766 0
M  V30 2917 H 273.596 -4.56153 4.70749 0
M  V30 2918 H 273.116 -5.13792 3.09481 0
M  V30 2919 H 274.795 -5.3394 3.654 0
M  V30 2920 N 274.927 -0.932562 -1.27047 0
M  V30 2921 C 275.837 -0.441219 -2.30414 0
M  V30 2922 C 276.853 0.480525 -1.67233 0
M  V30 2923 O 278.029 0.362151 -1.98117 0
M  V30 2924 C 275.094 0.293651 -3.45454 0
M  V30 2925 C 274.155 -0.663601 -4.2414 0
M  V30 2926 C 273.388 0.0362932 -5.33688 0
M  V30 2927 O 273.611 1.2548 -5.56427 0
M  V30 2928 O 272.545 -0.638015 -5.98509 0
M  V30 2929 H 276.371 -1.29962 -2.74488 0
M  V30 2930 H 273.956 -0.6981 -1.32087 0
M  V30 2931 H 275.838 0.707951 -4.15411 0
M  V30 2932 H 274.513 1.12758 -3.03426 0
M  V30 2933 H 273.42 -1.12768 -3.56699 0
M  V30 2934 H 274.753 -1.46489 -4.69896 0
M  V30 2935 O 276.444 1.38103 -0.83724 0
M  V30 2936 H 277.135 1.88989 -0.424593 0
M  V30 END ATOM
M  V30 BEGIN BOND
M  V30 END BOND
M  V30 END CTAB
M  END
$$$$
