drugbank_target|Q83JC4 Elongation factor Tu (DB02975; DB04315)
 OpenBabel12092120013D

  0  0  0     0  0            999 V3000
M  V30 BEGIN CTAB
M  V30 COUNTS 6101 6157 0 0 0
M  V30 BEGIN ATOM
M  V30 1 H -0.908 1.98254 -0.117106 0
M  V30 2 N 0 1.576 0 0
M  V30 3 C 0.933 2.03868 1.02534 0
M  V30 4 C 1.911 0.928543 1.3348 0
M  V30 5 O 3.095 1.19667 1.45644 0
M  V30 6 C 0.222 2.43627 2.35294 0
M  V30 7 C -0.732 3.65373 2.2001 0
M  V30 8 S 0.101 5.13292 1.52614 0
M  V30 9 C 1.257 5.56322 2.86805 0
M  V30 10 H 1.49 2.90518 0.631377 0
M  V30 11 H -0.977 1.52953 0.210867 0
M  V30 12 H 0.981 2.67203 3.11629 0
M  V30 13 H -0.358 1.57376 2.7183 0
M  V30 14 H -1.165 3.90944 3.18086 0
M  V30 15 H -1.563 3.418 1.51819 0
M  V30 16 H 0.729 5.58782 3.83104 0
M  V30 17 H 1.672 6.56266 2.65933 0
M  V30 18 H 2.08 4.83886 2.90714 0
M  V30 19 N 1.4781 -0.272755 1.55222 0
M  V30 20 C 2.7031 -1.02683 1.80197 0
M  V30 21 C 3.1281 -1.79142 0.573551 0
M  V30 22 O 2.4861 -1.74917 -0.476849 0
M  V30 23 C 2.5341 -1.9609 3.02624 0
M  V30 24 O 1.6381 -3.04863 2.77727 0
M  V30 25 H 0.9791 -0.293557 0.595584 0
M  V30 26 H 3.5091 -0.30159 2.02365 0
M  V30 27 H 3.5191 -2.38039 3.31363 0
M  V30 28 H 2.1941 -1.39851 3.91682 0
M  V30 29 H 0.7711 -2.67228 2.60084 0
M  V30 30 N 2.9562 -1.48159 -0.537278 0
M  V30 31 C 3.9032 -1.62138 -1.64256 0
M  V30 32 C 4.8732 -0.463668 -1.59497 0
M  V30 33 O 6.0582 -0.686241 -1.78032 0
M  V30 34 C 3.1982 -1.66028 -3.02537 0
M  V30 35 C 2.3112 -2.92855 -3.17585 0
M  V30 36 C 1.4462 -2.87952 -4.46382 0
M  V30 37 C 0.4852 -4.09516 -4.54932 0
M  V30 38 N -0.3778 -4.02733 -5.75109 0
M  V30 39 H 4.4622 -2.56529 -1.51647 0
M  V30 40 H 1.9992 -1.27224 -0.738414 0
M  V30 41 H 3.9572 -1.66265 -3.82638 0
M  V30 42 H 2.5872 -0.751331 -3.13934 0
M  V30 43 H 1.6392 -3.02395 -2.30784 0
M  V30 44 H 2.9512 -3.82822 -3.19764 0
M  V30 45 H 2.1052 -2.8655 -5.34765 0
M  V30 46 H 0.8442 -1.95702 -4.46712 0
M  V30 47 H -0.1508 -4.11201 -3.64957 0
M  V30 48 H 1.0742 -5.02917 -4.56346 0
M  V30 49 H -0.9798 -3.13299 -5.76351 0
M  V30 50 H -1.0628 -4.86397 -5.78752 0
M  V30 51 H 0.2052 -4.05379 -6.65799 0
M  V30 52 N 4.4343 0.785586 -1.36625 0
M  V30 53 C 5.3443 1.92964 -1.33425 0
M  V30 54 C 6.3603 1.72394 -0.235851 0
M  V30 55 O 7.5363 1.95866 -0.468878 0
M  V30 56 C 4.6013 3.27884 -1.12662 0
M  V30 57 C 3.6623 3.61204 -2.32013 0
M  V30 58 C 2.8953 4.89687 -2.12231 0
M  V30 59 O 3.1183 5.59704 -1.09945 0
M  V30 60 O 2.0523 5.21752 -3.00098 0
M  V30 61 H 5.8783 1.98613 -2.29753 0
M  V30 62 H 3.4633 0.926384 -1.17211 0
M  V30 63 H 5.3453 4.08614 -1.03016 0
M  V30 64 H 4.0203 3.23118 -0.193991 0
M  V30 65 H 2.9273 2.80765 -2.47228 0
M  V30 66 H 4.2603 3.70698 -3.23796 0
M  V30 67 N 5.9124 1.20967 1.01018 0
M  V30 68 C 6.8594 0.964281 2.09691 0
M  V30 69 C 7.8294 -0.107853 1.65749 0
M  V30 70 O 9.0144 0.0381987 1.90762 0
M  V30 71 C 6.1544 0.52943 3.41015 0
M  V30 72 C 5.2674 1.67043 3.98398 0
M  V30 73 C 4.4024 1.18525 5.17808 0
M  V30 74 C 3.4414 2.29892 5.67288 0
M  V30 75 N 2.5784 1.82546 6.77954 0
M  V30 76 H 7.4184 1.89463 2.30017 0
M  V30 77 H 4.9554 0.944289 1.1279 0
M  V30 78 H 6.9134 0.258588 4.16398 0
M  V30 79 H 5.5434 -0.363919 3.20742 0
M  V30 80 H 4.5954 2.05603 3.20049 0
M  V30 81 H 5.9074 2.50877 4.31117 0
M  V30 82 H 5.0614 0.870762 6.00419 0
M  V30 83 H 3.8004 0.316887 4.86669 0
M  V30 84 H 2.8054 2.6215 4.83278 0
M  V30 85 H 4.0304 3.17216 6.00459 0
M  V30 86 H 1.9764 0.980454 6.48632 0
M  V30 87 H 1.8934 2.59956 7.09901 0
M  V30 88 H 3.1614 1.54115 7.64113 0
M  V30 89 N 7.3905 -1.2043 1.01659 0
M  V30 90 C 8.6375 -1.89797 0.705917 0
M  V30 91 C 8.9655 -1.78848 -0.764439 0
M  V30 92 O 8.2205 -1.16694 -1.57102 0
M  V30 93 C 8.5195 -3.40464 1.08714 0
M  V30 94 C 8.1855 -3.71614 2.5537 0
M  V30 95 C 6.8475 -3.79826 2.95441 0
M  V30 96 C 9.1995 -3.85915 3.50313 0
M  V30 97 C 6.5275 -3.99797 4.29394 0
M  V30 98 C 8.8795 -4.07396 4.83954 0
M  V30 99 C 7.5435 -4.13837 5.23732 0
M  V30 100 H 6.8135 -0.694518 0.258313 0
M  V30 101 H 9.4605 -1.42691 1.27717 0
M  V30 102 H 7.7655 -3.89385 0.434309 0
M  V30 103 H 9.4625 -3.92433 0.824461 0
M  V30 104 H 6.0525 -3.65822 2.23321 0
M  V30 105 H 10.2365 -3.78926 3.20513 0
M  V30 106 H 5.4925 -4.03018 4.59768 0
M  V30 107 H 9.6665 -4.17404 5.57447 0
M  V30 108 H 7.2935 -4.29064 6.27541 0
M  V30 109 N 8.8686 -0.792821 -1.36206 0
M  V30 110 C 9.7786 -0.194808 -2.3379 0
M  V30 111 C 10.7946 0.654869 -1.61206 0
M  V30 112 O 11.9706 0.569856 -1.9317 0
M  V30 113 C 9.0356 0.657721 -3.40404 0
M  V30 114 C 8.0966 -0.210849 -4.28782 0
M  V30 115 C 7.3296 0.601086 -5.30304 0
M  V30 116 O 7.5526 1.83682 -5.40016 0
M  V30 117 O 6.4866 -0.000808277 -6.019 0
M  V30 118 H 10.3126 -1.00172 -2.86704 0
M  V30 119 H 7.8976 -0.554341 -1.38735 0
M  V30 120 H 9.7796 1.14375 -4.05581 0
M  V30 121 H 8.4546 1.44247 -2.89784 0
M  V30 122 H 7.3616 -0.743714 -3.66633 0
M  V30 123 H 8.6946 -0.959195 -4.82763 0
M  V30 124 N 10.3467 1.47872 -0.545128 0
M  V30 125 C 11.7627 1.5829 -0.204032 0
M  V30 126 C 11.9627 1.54529 1.29317 0
M  V30 127 O 11.0187 1.44232 2.07252 0
M  V30 128 C 12.3317 2.89304 -0.819987 0
M  V30 129 C 13.8797 3.02864 -0.790105 0
M  V30 130 C 14.3547 4.3656 -1.38491 0
M  V30 131 N 15.8457 4.43165 -1.34755 0
M  V30 132 C 16.5807 5.45153 -1.77753 0
M  V30 133 N 16.0767 6.54016 -2.2855 0
M  V30 134 N 17.8697 5.36125 -1.68897 0
M  V30 135 H 10.0207 1.4856 -1.51802 0
M  V30 136 H 12.2837 0.706305 -0.632327 0
M  V30 137 H 11.9897 2.97757 -1.87173 0
M  V30 138 H 11.8637 3.75957 -0.305915 0
M  V30 139 H 14.2507 2.94014 0.252913 0
M  V30 140 H 14.3317 2.17782 -1.34181 0
M  V30 141 H 13.9757 4.46164 -2.42693 0
M  V30 142 H 13.9057 5.20353 -0.808754 0
M  V30 143 H 16.3967 3.65083 -0.975855 0
M  V30 144 H 16.7097 7.27994 -2.59314 0
M  V30 145 H 15.0547 6.54938 -2.32553 0
M  V30 146 H 18.2457 4.49975 -1.28998 0
M  V30 147 H 18.4187 6.15472 -2.02726 0
M  V30 148 N 11.8248 0.280983 1.55075 0
M  V30 149 C 13.0528 -0.337293 2.04132 0
M  V30 150 C 13.4678 -1.4903 1.15912 0
M  V30 151 O 12.8248 -1.81606 0.180459 0
M  V30 152 C 12.8758 -0.812706 3.52246 0
M  V30 153 O 12.5968 0.294387 4.3711 0
M  V30 154 C 14.0978 -1.4982 4.17216 0
M  V30 155 H 11.3178 -0.0761638 0.666663 0
M  V30 156 H 13.8618 0.414787 2.00249 0
M  V30 157 H 12.0168 -1.51486 3.56554 0
M  V30 158 H 12.4308 -0.0721325 5.2445 0
M  V30 159 H 13.9048 -1.7822 5.22438 0
M  V30 160 H 14.3818 -2.43168 3.65741 0
M  V30 161 H 14.9878 -0.839742 4.16927 0
M  V30 162 N 13.3029 -1.57598 0.00835791 0
M  V30 163 C 14.2499 -2.08945 -0.980346 0
M  V30 164 C 15.2199 -0.986738 -1.33614 0
M  V30 165 O 16.4049 -1.25968 -1.43306 0
M  V30 166 C 13.5449 -2.60425 -2.26435 0
M  V30 167 C 12.6579 -3.84628 -1.96685 0
M  V30 168 C 11.7929 -4.24579 -3.19228 0
M  V30 169 C 10.8319 -5.41596 -2.85202 0
M  V30 170 N 9.9689 -5.768 -4.00307 0
M  V30 171 H 14.8089 -2.93148 -0.535551 0
M  V30 172 H 12.3459 -1.44912 -0.252776 0
M  V30 173 H 14.3039 -2.88354 -3.01509 0
M  V30 174 H 12.9339 -1.79083 -2.68568 0
M  V30 175 H 11.9859 -3.63556 -1.11942 0
M  V30 176 H 13.2979 -4.69796 -1.67611 0
M  V30 177 H 12.4519 -4.53834 -4.02641 0
M  V30 178 H 11.1909 -3.38137 -3.51447 0
M  V30 179 H 10.1959 -5.12056 -2.00198 0
M  V30 180 H 11.4209 -6.29721 -2.54222 0
M  V30 181 H 9.3669 -4.93316 -4.32407 0
M  V30 182 H 9.2839 -6.5656 -3.74786 0
M  V30 183 H 10.5519 -6.10652 -4.84484 0
M  V30 184 N 14.781 0.264519 -1.55364 0
M  V30 185 C 16.192 0.834936 -1.6699 0
M  V30 186 C 16.543 1.86718 -0.602552 0
M  V30 187 O 15.668 2.14899 0.254425 0
M  V30 188 C 16.263 1.5212 -3.02729 0
M  V30 189 C 14.822 2.03954 -3.16354 0
M  V30 190 C 13.969 0.884498 -2.62815 0
M  V30 191 H 16.92 0.0406869 -1.58648 0
M  V30 192 H 16.941 2.38853 -2.96191 0
M  V30 193 H 16.453 0.769668 -3.80392 0
M  V30 194 H 14.554 2.82041 -2.43482 0
M  V30 195 H 14.667 2.24902 -4.23032 0
M  V30 196 H 13.031 1.2802 -2.20188 0
M  V30 197 H 13.814 0.14634 -3.42988 0
M  V30 198 N 16.2591 1.48442 0.529413 0
M  V30 199 C 17.2091 1.59407 1.63014 0
M  V30 200 C 18.1931 0.451166 1.54445 0
M  V30 201 O 19.3851 0.702635 1.62456 0
M  V30 202 C 16.5141 1.63746 3.01732 0
M  V30 203 C 15.6001 2.83518 3.15402 0
M  V30 204 N 15.9911 4.07929 2.99045 0
M  V30 205 C 14.2891 2.80862 3.46457 0
M  V30 206 C 14.9901 4.8829 3.16146 0
M  V30 207 N 13.9661 4.21117 3.43746 0
M  V30 208 H 17.7681 2.53343 1.48978 0
M  V30 209 H 15.2821 1.44821 0.734885 0
M  V30 210 H 17.2791 1.69695 3.80801 0
M  V30 211 H 15.9391 0.709264 3.16859 0
M  V30 212 H 16.9501 4.38357 2.75796 0
M  V30 213 H 13.6271 1.97301 3.67938 0
M  V30 214 H 15.0171 5.97028 3.08232 0
M  V30 215 N 17.7372 -0.778329 1.37039 0
M  V30 216 C 18.9832 -1.53892 1.32079 0
M  V30 217 C 19.3162 -1.9396 -0.0965386 0
M  V30 218 O 18.5912 -1.63568 -1.05242 0
M  V30 219 C 18.8742 -2.80847 2.25382 0
M  V30 220 C 18.7272 -2.47076 3.75864 0
M  V30 221 C 20.0462 -3.82741 2.1725 0
M  V30 222 H 17.1652 -0.558303 0.48111 0
M  V30 223 H 19.8072 -0.893397 1.67685 0
M  V30 224 H 17.9572 -3.35931 1.95148 0
M  V30 225 H 19.6292 -1.97957 4.16666 0
M  V30 226 H 17.8722 -1.79863 3.94755 0
M  V30 227 H 18.5432 -3.37798 4.36574 0
M  V30 228 H 21.0192 -3.37133 2.43887 0
M  V30 229 H 19.8952 -4.69303 2.84686 0
M  V30 230 H 20.1562 -4.2652 1.16331 0
M  V30 231 N 19.2153 -1.21501 -1.00376 0
M  V30 232 C 20.1633 -0.972442 -2.11297 0
M  V30 233 C 21.1573 0.080731 -1.69208 0
M  V30 234 O 22.3633 -0.0707666 -1.79861 0
M  V30 235 H 18.7383 -0.297218 -0.690772 0
M  V30 236 H 20.7093 -1.91394 -2.28934 0
M  V30 237 C 19.4583 -0.555065 -3.43241 0
M  V30 238 H 18.7813 -1.35709 -3.76062 0
M  V30 239 H 20.2213 -0.424664 -4.21868 0
M  V30 240 C 18.6803 0.734147 -3.28804 0
M  V30 241 O 19.2103 1.78937 -3.59645 0
M  V30 242 N 17.4163 0.701133 -2.82015 0
M  V30 243 H 16.9633 -0.157874 -2.57116 0
M  V30 244 H 16.9213 1.56403 -2.72737 0
M  V30 245 N 20.6934 1.19889 -1.02296 0
M  V30 246 C 21.9394 1.89701 -0.717033 0
M  V30 247 C 22.2724 1.7905 0.751989 0
M  V30 248 O 21.5474 1.17891 1.547 0
M  V30 249 C 21.8304 3.40858 -1.16136 0
M  V30 250 C 21.6834 3.60411 -2.69117 0
M  V30 251 C 23.0024 4.33876 -0.737549 0
M  V30 252 H 20.1214 0.688874 -0.261957 0
M  V30 253 H 22.7634 1.41154 -1.27183 0
M  V30 254 H 20.9134 3.82335 -0.689342 0
M  V30 255 H 22.5854 3.28145 -3.2422 0
M  V30 256 H 20.8284 3.03665 -3.0979 0
M  V30 257 H 21.4994 4.66396 -2.95261 0
M  V30 258 H 23.9754 4.00081 -1.14344 0
M  V30 259 H 22.8514 5.38242 -1.0764 0
M  V30 260 H 23.1124 4.40628 0.360436 0
M  V30 261 N 22.1715 0.800033 1.35784 0
M  V30 262 C 23.4195 0.376597 1.9856 0
M  V30 263 C 23.7405 -1.05812 1.63795 0
M  V30 264 O 23.0105 -1.73103 0.917171 0
M  V30 265 H 21.5905 0.136261 0.734467 0
M  V30 266 H 24.2525 1.02442 1.65806 0
M  V30 267 H 23.3485 0.477002 3.08433 0
M  V30 268 N 23.6496 -1.47581 0.552962 0
M  V30 269 C 24.8776 -2.06875 0.0320556 0
M  V30 270 C 25.2926 -1.40625 -1.25976 0
M  V30 271 O 24.6496 -0.501349 -1.75479 0
M  V30 272 C 24.7006 -3.61092 -0.17167 0
M  V30 273 O 24.4216 -4.24858 1.06899 0
M  V30 274 C 25.9226 -4.37242 -0.730344 0
M  V30 275 H 23.1426 -0.669561 0.043915 0
M  V30 276 H 25.6866 -1.89646 0.765163 0
M  V30 277 H 23.8416 -3.7785 -0.854894 0
M  V30 278 H 24.2556 -5.17334 0.864059 0
M  V30 279 H 25.7296 -5.45842 -0.822203 0
M  V30 280 H 26.2066 -4.03235 -1.74064 0
M  V30 281 H 26.8126 -4.25219 -0.0829543 0
M  V30 282 N 25.1277 -0.289203 -1.54924 0
M  V30 283 C 26.3767 0.324231 -1.99077 0
M  V30 284 C 26.6897 1.5591 -1.18117 0
M  V30 285 O 27.8957 2.24637 -1.52481 0
M  V30 286 C 26.3517 0.628209 -3.54375 0
M  V30 287 C 25.9597 -0.587647 -4.44129 0
M  V30 288 C 27.7037 1.20349 -4.07083 0
M  V30 289 C 25.6107 -0.257475 -5.90839 0
M  V30 290 H 24.5407 0.124924 -0.743579 0
M  V30 291 H 27.1917 -0.396063 -1.79175 0
M  V30 292 H 25.5737 1.40778 -3.70132 0
M  V30 293 H 26.7477 -1.36418 -4.40144 0
M  V30 294 H 25.0627 -1.08074 -4.0213 0
M  V30 295 H 27.6597 1.46456 -5.14252 0
M  V30 296 H 28.0027 2.14195 -3.56968 0
M  V30 297 H 28.5357 0.485889 -3.94821 0
M  V30 298 H 25.2747 -1.16419 -6.45079 0
M  V30 299 H 24.7947 0.482018 -5.9786 0
M  V30 300 H 26.4737 0.145238 -6.46837 0
M  V30 301 N 26.6058 1.57591 -0.0167156 0
M  V30 302 C 27.8538 1.90906 0.663285 0
M  V30 303 C 28.1748 0.892509 1.73376 0
M  V30 304 O 27.4448 -0.0677623 1.95783 0
M  V30 305 H 26.0248 0.704637 0.247983 0
M  V30 306 H 28.6868 1.94803 -0.0615909 0
M  V30 307 H 27.7828 2.9116 1.12393 0
M  V30 308 N 28.0839 -0.256276 1.55502 0
M  V30 309 C 29.0339 -1.31981 1.85916 0
M  V30 310 C 30.0179 -1.43927 0.719296 0
M  V30 311 O 31.2099 -1.47326 0.981019 0
M  V30 312 C 28.3389 -2.67703 2.14918 0
M  V30 313 C 27.4249 -2.59801 3.35208 0
M  V30 314 N 27.8159 -2.21524 4.54709 0
M  V30 315 C 26.1139 -2.90832 3.38131 0
M  V30 316 C 26.8149 -2.24024 5.36832 0
M  V30 317 N 25.7909 -2.63158 4.75656 0
M  V30 318 H 29.5929 -1.01423 2.75845 0
M  V30 319 H 27.1069 -0.464911 1.55603 0
M  V30 320 H 29.1039 -3.44445 2.34869 0
M  V30 321 H 27.7639 -2.99137 1.26282 0
M  V30 322 H 28.7749 -1.93223 4.80505 0
M  V30 323 H 25.4519 -3.26867 2.59739 0
M  V30 324 H 26.8419 -1.9685 6.42417 0
M  V30 325 N 29.562 -1.4872 -0.521534 0
M  V30 326 C 30.808 -1.574 -1.27879 0
M  V30 327 C 31.141 -0.250817 -1.92573 0
M  V30 328 O 30.416 0.743934 -1.79711 0
M  V30 329 C 30.699 -2.71843 -2.36164 0
M  V30 330 C 30.552 -4.13893 -1.76105 0
M  V30 331 C 31.871 -2.82008 -3.37875 0
M  V30 332 H 28.99 -0.572941 -0.463581 0
M  V30 333 H 31.632 -1.80927 -0.580119 0
M  V30 334 H 29.782 -2.51914 -2.95756 0
M  V30 335 H 31.454 -4.45284 -1.20499 0
M  V30 336 H 29.697 -4.20498 -1.06601 0
M  V30 337 H 30.368 -4.89804 -2.5455 0
M  V30 338 H 32.844 -3.00086 -2.88249 0
M  V30 339 H 31.72 -3.63796 -4.11028 0
M  V30 340 H 31.981 -1.90511 -3.98946 0
M  V30 341 N 31.0401 0.771051 -1.3745 0
M  V30 342 C 32.3171 1.519 -1.23231 0
M  V30 343 C 32.6971 2.10383 0.173809 0
M  V30 344 O 32.0451 1.95583 1.18151 0
M  V30 345 C 32.2551 2.59933 -2.32886 0
M  V30 346 C 33.6031 3.27316 -2.70461 0
M  V30 347 O 34.6271 2.70228 -2.32068 0
M  V30 348 O 33.4861 4.30531 -3.36608 0
M  V30 349 H 30.5801 0.672803 -0.480901 0
M  V30 350 H 33.1261 0.807957 -1.49232 0
M  V30 351 H 31.8981 2.14842 -3.27045 0
M  V30 352 H 31.5211 3.38637 -2.08353 0
M  V30 353 N 32.5182 1.22032 0.997298 0
M  V30 354 C 33.4682 0.953838 2.07089 0
M  V30 355 C 34.4522 -0.0938669 1.60626 0
M  V30 356 O 35.6442 0.116078 1.76619 0
M  V30 357 C 32.7732 0.528726 3.39204 0
M  V30 358 C 31.8592 1.61092 3.92314 0
M  V30 359 N 32.2502 2.83768 4.18699 0
M  V30 360 C 30.5482 1.48158 4.20672 0
M  V30 361 C 31.2492 3.53715 4.61802 0
M  V30 362 N 30.2252 2.81174 4.65233 0
M  V30 363 H 34.0272 1.88577 2.25424 0
M  V30 364 H 31.5412 1.11719 1.17867 0
M  V30 365 H 33.5382 0.31915 4.15677 0
M  V30 366 H 32.1982 -0.39635 3.22272 0
M  V30 367 H 33.2092 3.20238 4.07023 0
M  V30 368 H 29.8862 0.622369 4.12835 0
M  V30 369 H 31.2762 4.58793 4.90875 0
M  V30 370 N 33.9963 -1.19345 1.0293 0
M  V30 371 C 35.2443 -1.88665 0.724574 0
M  V30 372 C 35.5653 -1.80036 -0.749144 0
M  V30 373 O 34.8353 -1.2111 -1.53978 0
M  V30 374 H 33.4153 -0.698406 0.265025 0
M  V30 375 H 36.0773 -1.44885 1.30362 0
M  V30 376 H 35.1733 -2.94987 1.01926 0
M  V30 377 N 35.4744 -0.807222 -1.35358 0
M  V30 378 C 36.4214 -0.216037 -2.29787 0
M  V30 379 C 37.3914 0.650278 -1.52842 0
M  V30 380 O 38.5764 0.595227 -1.81278 0
M  V30 381 C 35.7164 0.628893 -3.39321 0
M  V30 382 C 34.8294 -0.257927 -4.31229 0
M  V30 383 C 33.9644 0.595069 -5.27856 0
M  V30 384 C 33.0034 -0.292111 -6.11403 0
M  V30 385 N 32.1404 0.520895 -7.00165 0
M  V30 386 H 36.9804 -1.02671 -2.79755 0
M  V30 387 H 34.5174 -0.517839 -1.37684 0
M  V30 388 H 36.4754 1.13393 -4.01494 0
M  V30 389 H 35.1054 1.40482 -2.90628 0
M  V30 390 H 34.1574 -0.881076 -3.70056 0
M  V30 391 H 35.4694 -0.940759 -4.89848 0
M  V30 392 H 34.6234 1.16522 -5.95405 0
M  V30 393 H 33.3624 1.31146 -4.69736 0
M  V30 394 H 32.3674 -0.874525 -5.428 0
M  V30 395 H 33.5924 -1.00638 -6.71602 0
M  V30 396 H 31.5384 1.22125 -6.44532 0
M  V30 397 H 31.4554 -0.103877 -7.55929 0
M  V30 398 H 32.7234 1.0743 -7.72062 0
M  V30 399 N 36.9525 1.47285 -0.560781 0
M  V30 400 C 38.1805 2.06855 -0.0430262 0
M  V30 401 C 38.5955 1.41291 1.25229 0
M  V30 402 O 37.9525 0.510648 1.7521 0
M  V30 403 C 38.0035 3.61178 0.152518 0
M  V30 404 O 37.7245 4.24285 -1.0915 0
M  V30 405 C 39.2255 4.37624 0.707145 0
M  V30 406 H 36.4455 0.669319 -0.0474652 0
M  V30 407 H 38.9895 1.89237 -0.77521 0
M  V30 408 H 37.1445 3.78298 0.834843 0
M  V30 409 H 37.5585 5.16868 -0.891482 0
M  V30 410 H 39.0325 5.46271 0.793244 0
M  V30 411 H 39.5095 4.04152 1.71923 0
M  V30 412 H 40.1155 4.25257 0.0604027 0
M  V30 413 N 38.4306 0.297415 1.54768 0
M  V30 414 C 39.6586 -0.315623 2.04478 0
M  V30 415 C 40.0736 -1.47792 1.17486 0
M  V30 416 O 39.4306 -1.81404 0.19971 0
M  V30 417 C 39.4816 -0.7753 3.53088 0
M  V30 418 O 39.2026 0.340732 4.36773 0
M  V30 419 C 40.7036 -1.45386 4.18781 0
M  V30 420 H 37.9236 -0.0690887 0.667434 0
M  V30 421 H 40.4676 0.436003 1.99798 0
M  V30 422 H 38.6226 -1.47696 3.58141 0
M  V30 423 H 39.0366 -0.0165035 5.24497 0
M  V30 424 H 40.5106 -1.72669 5.24299 0
M  V30 425 H 40.9876 -2.39275 3.68299 0
M  V30 426 H 41.5936 -0.795475 4.17795 0
M  V30 427 N 39.9087 -1.5758 0.0250728 0
M  V30 428 C 40.8387 -2.13007 -0.956575 0
M  V30 429 C 41.8197 -1.0452 -1.342 0
M  V30 430 O 43.0047 -1.32332 -1.42133 0
M  V30 431 C 40.1347 -2.65386 -2.24026 0
M  V30 432 C 39.0887 -3.78623 -1.99571 0
M  V30 433 C 38.4147 -4.17414 -3.3417 0
M  V30 434 C 39.7147 -5.04867 -1.33814 0
M  V30 435 H 41.4087 -2.9528 -0.494991 0
M  V30 436 H 38.9547 -1.42042 -0.236651 0
M  V30 437 H 40.9077 -3.02794 -2.93076 0
M  V30 438 H 39.6317 -1.80268 -2.72343 0
M  V30 439 H 38.2907 -3.41646 -1.32941 0
M  V30 440 H 37.9387 -3.29284 -3.80238 0
M  V30 441 H 37.6387 -4.93719 -3.18615 0
M  V30 442 H 39.1627 -4.57402 -4.04495 0
M  V30 443 H 40.5767 -5.39888 -1.92857 0
M  V30 444 H 38.9737 -5.86144 -1.28669 0
M  V30 445 H 40.0437 -4.83904 -0.310561 0
M  V30 446 N 41.3868 0.248026 -1.55636 0
M  V30 447 C 42.6148 0.993808 -1.81469 0
M  V30 448 C 43.0298 1.78991 -0.60064 0
M  V30 449 O 42.3868 1.77345 0.430682 0
M  V30 450 C 42.4378 1.93258 -3.05506 0
M  V30 451 O 42.1588 1.16869 -4.22224 0
M  V30 452 C 43.6598 2.79444 -3.4413 0
M  V30 453 H 40.8798 0.292486 -0.603898 0
M  V30 454 H 43.4238 0.271253 -2.02693 0
M  V30 455 H 41.5788 2.60943 -2.86335 0
M  V30 456 H 41.9928 1.80359 -4.92515 0
M  V30 457 H 43.4668 3.41066 -4.34026 0
M  V30 458 H 43.9438 3.50499 -2.64665 0
M  V30 459 H 44.5498 2.17214 -3.65648 0
M  V30 460 N 42.8649 1.48995 0.513639 0
M  V30 461 C 43.8279 1.64229 1.59879 0
M  V30 462 C 44.8279 0.514696 1.5234 0
M  V30 463 O 46.0179 0.78087 1.55718 0
M  V30 464 C 43.1499 1.62783 2.99524 0
M  V30 465 H 44.3429 2.61004 1.47705 0
M  V30 466 H 41.8959 1.37837 0.736936 0
M  V30 467 H 42.6309 0.675461 3.17188 0
M  V30 468 H 42.4159 2.4466 3.06404 0
M  V30 469 H 43.9059 1.76669 3.78388 0
M  V30 470 N 44.343 -0.763751 1.37857 0
M  V30 471 C 45.306 -1.85889 1.34081 0
M  V30 472 C 46.306 -1.58949 0.243277 0
M  V30 473 O 47.496 -1.66882 0.499589 0
M  V30 474 C 44.628 -3.23176 1.08489 0
M  V30 475 H 45.821 -1.90648 2.31502 0
M  V30 476 H 43.374 -0.964367 1.23003 0
M  V30 477 H 44.109 -3.24091 0.116318 0
M  V30 478 H 43.894 -3.44124 1.8794 0
M  V30 479 H 45.384 -4.03254 1.08517 0
M  V30 480 N 45.8211 -1.22559 -0.990812 0
M  V30 481 C 47.0701 -1.04553 -1.72486 0
M  V30 482 C 47.3831 0.419349 -1.91052 0
M  V30 483 O 48.5891 0.719121 -2.61803 0
M  V30 484 C 47.0451 -1.82231 -3.10355 0
M  V30 485 C 46.6531 -3.32981 -2.99713 0
M  V30 486 C 48.3971 -1.7268 -3.87791 0
M  V30 487 C 46.3041 -4.03091 -4.32748 0
M  V30 488 H 45.2341 -0.387614 -0.646739 0
M  V30 489 H 47.8851 -1.46429 -1.10593 0
M  V30 490 H 46.2671 -1.33155 -3.72942 0
M  V30 491 H 47.4411 -3.89466 -2.46278 0
M  V30 492 H 45.7561 -3.43231 -2.35758 0
M  V30 493 H 48.3531 -2.22381 -4.86262 0
M  V30 494 H 48.6961 -0.687607 -4.10582 0
M  V30 495 H 49.2291 -2.1931 -3.31885 0
M  V30 496 H 45.9681 -5.07273 -4.15156 0
M  V30 497 H 45.4881 -3.51394 -4.86089 0
M  V30 498 H 47.1671 -4.08804 -5.01486 0
M  V30 499 N 47.2992 1.18797 -1.03562 0
M  V30 500 C 48.5272 1.92599 -0.755869 0
M  V30 501 C 48.9422 1.75886 0.686271 0
M  V30 502 O 48.2992 1.08517 1.46732 0
M  V30 503 C 48.3502 3.44159 -1.10619 0
M  V30 504 O 48.0712 3.60341 -2.4917 0
M  V30 505 C 49.5722 4.3507 -0.850214 0
M  V30 506 H 46.7922 0.611587 -0.276048 0
M  V30 507 H 49.3362 1.50742 -1.38192 0
M  V30 508 H 47.4912 3.83823 -0.525194 0
M  V30 509 H 47.9052 4.54128 -2.62427 0
M  V30 510 H 49.3792 5.39989 -1.14523 0
M  V30 511 H 49.8562 4.38673 0.215176 0
M  V30 512 H 50.4622 4.01097 -1.41426 0
M  V30 513 N 48.7773 0.814389 1.34928 0
M  V30 514 C 50.0053 0.411136 2.02774 0
M  V30 515 C 50.4203 -0.980316 1.61354 0
M  V30 516 O 49.7773 -1.63299 0.814847 0
M  V30 517 C 49.8283 0.493865 3.58111 0
M  V30 518 O 49.5493 1.83047 3.98027 0
M  V30 519 C 51.0503 0.0844174 4.4322 0
M  V30 520 H 48.2703 0.166037 0.650133 0
M  V30 521 H 50.8143 1.10018 1.72384 0
M  V30 522 H 48.9693 -0.147006 3.87121 0
M  V30 523 H 49.3833 1.79872 4.92693 0
M  V30 524 H 50.8573 0.193404 5.51661 0
M  V30 525 H 51.3343 -0.97113 4.28329 0
M  V30 526 H 51.9403 0.69875 4.19521 0
M  V30 527 N 50.2554 -1.46986 0.568584 0
M  V30 528 C 51.5014 -2.02741 0.0488709 0
M  V30 529 C 51.8344 -1.44077 -1.30214 0
M  V30 530 O 51.1094 -0.600552 -1.84996 0
M  V30 531 C 51.3924 -3.60086 -0.032047 0
M  V30 532 C 51.2454 -4.29162 1.34686 0
M  V30 533 C 52.5644 -4.33838 -0.739798 0
M  V30 534 H 49.6834 -0.736749 0.0192338 0
M  V30 535 H 52.3254 -1.75289 0.733065 0
M  V30 536 H 50.4754 -3.83606 -0.61473 0
M  V30 537 H 52.1474 -4.16948 1.97362 0
M  V30 538 H 50.3904 -3.89073 1.91846 0
M  V30 539 H 51.0614 -5.37826 1.24285 0
M  V30 540 H 53.5374 -4.15378 -0.244939 0
M  V30 541 H 52.4134 -5.43537 -0.765406 0
M  V30 542 H 52.6744 -4.03875 -1.79827 0
M  V30 543 N 51.7335 -0.305618 -1.54608 0
M  V30 544 C 52.6635 0.561482 -2.26649 0
M  V30 545 C 53.6445 1.13415 -1.26772 0
M  V30 546 O 54.8295 1.16262 -1.55553 0
M  V30 547 C 51.9595 1.73122 -3.01075 0
M  V30 548 C 50.9135 1.2887 -4.08138 0
M  V30 549 C 50.2395 2.54396 -4.70305 0
M  V30 550 C 51.5395 0.416578 -5.20636 0
M  V30 551 H 53.2335 -0.0393902 -2.99374 0
M  V30 552 H 50.7795 -0.020385 -1.43986 0
M  V30 553 H 52.7325 2.34396 -3.50195 0
M  V30 554 H 51.4565 2.3584 -2.25936 0
M  V30 555 H 50.1155 0.698991 -3.59875 0
M  V30 556 H 49.7635 3.15439 -3.918 0
M  V30 557 H 49.4635 2.25486 -5.42614 0
M  V30 558 H 50.9875 3.16464 -5.2219 0
M  V30 559 H 52.4015 0.935116 -5.65622 0
M  V30 560 H 50.7985 0.221046 -5.99693 0
M  V30 561 H 51.8685 -0.557162 -4.81688 0
M  V30 562 N 53.2116 1.57565 -0.0334293 0
M  V30 563 C 54.1746 2.09393 0.932048 0
M  V30 564 C 55.1746 1.00986 1.25134 0
M  V30 565 O 56.3646 1.27129 1.19096 0
M  V30 566 C 53.4966 2.56338 2.2473 0
M  V30 567 H 54.6896 2.95984 0.483085 0
M  V30 568 H 52.2426 1.54819 0.21468 0
M  V30 569 H 52.9776 1.7309 2.74245 0
M  V30 570 H 52.7626 3.35542 2.02865 0
M  V30 571 H 54.2526 2.96646 2.93923 0
M  V30 572 N 54.6897 -0.239769 1.55765 0
M  V30 573 C 55.6367 -1.29696 1.90913 0
M  V30 574 C 56.6067 -1.47478 0.764164 0
M  V30 575 O 57.7917 -1.61345 1.01845 0
M  V30 576 C 54.9317 -2.64598 2.21544 0
M  V30 577 C 54.0447 -2.54765 3.48882 0
M  V30 578 C 53.1797 -3.82069 3.69049 0
M  V30 579 C 52.2187 -3.66883 4.89963 0
M  V30 580 N 51.3557 -4.86094 5.06614 0
M  V30 581 H 56.1957 -0.990224 2.81067 0
M  V30 582 H 53.7327 -0.477684 1.39128 0
M  V30 583 H 55.6907 -3.43132 2.3731 0
M  V30 584 H 54.3207 -2.93405 1.34585 0
M  V30 585 H 53.3727 -1.67763 3.41409 0
M  V30 586 H 54.6847 -2.39457 4.37563 0
M  V30 587 H 53.8387 -4.69046 3.84812 0
M  V30 588 H 52.5777 -4.00282 2.78614 0
M  V30 589 H 51.5827 -2.78289 4.74168 0
M  V30 590 H 52.8077 -3.50157 5.81865 0
M  V30 591 H 50.7537 -5.04655 4.19117 0
M  V30 592 H 50.6707 -4.73443 5.89396 0
M  V30 593 H 51.9387 -5.74549 5.26795 0
M  V30 594 N 56.1678 -1.49265 -0.50573 0
M  V30 595 C 57.3958 -1.62215 -1.28429 0
M  V30 596 C 57.8108 -0.291697 -1.86533 0
M  V30 597 O 57.1678 0.722233 -1.67601 0
M  V30 598 C 57.2188 -2.68735 -2.41793 0
M  V30 599 O 56.9398 -3.96619 -1.86078 0
M  V30 600 C 58.4408 -2.92346 -3.3324 0
M  V30 601 H 55.6608 -0.546239 -0.389697 0
M  V30 602 H 58.2048 -1.95265 -0.607609 0
M  V30 603 H 56.3598 -2.38476 -3.053 0
M  V30 604 H 56.7738 -4.55256 -2.60465 0
M  V30 605 H 58.2478 -3.70623 -4.09075 0
M  V30 606 H 58.7248 -2.02081 -3.89948 0
M  V30 607 H 59.3308 -3.24003 -2.75503 0
M  V30 608 N 57.6459 0.756429 -1.3826 0
M  V30 609 C 58.8759 1.54341 -1.3734 0
M  V30 610 C 59.2839 1.89159 0.0393917 0
M  V30 611 O 58.6269 1.5307 1.01565 0
M  V30 612 C 58.6889 2.87238 -2.16182 0
M  V30 613 C 58.3529 2.74973 -3.65019 0
M  V30 614 C 59.3499 2.44962 -4.58574 0
M  V30 615 C 57.0349 2.92515 -4.08338 0
M  V30 616 C 59.0289 2.32642 -5.93428 0
M  V30 617 C 56.7159 2.79815 -5.43274 0
M  V30 618 C 57.7139 2.49921 -6.35632 0
M  V30 619 O 57.4019 2.37275 -7.68086 0
M  V30 620 H 57.1339 0.484281 -0.471643 0
M  V30 621 H 59.6879 0.944152 -1.82414 0
M  V30 622 H 57.9179 3.49342 -1.65822 0
M  V30 623 H 59.6069 3.48731 -2.07705 0
M  V30 624 H 60.3729 2.31081 -4.26412 0
M  V30 625 H 56.2519 3.14781 -3.368 0
M  V30 626 H 59.7959 2.0923 -6.65484 0
M  V30 627 H 55.6929 2.93269 -5.75034 0
M  V30 628 H 56.4609 2.52509 -7.78577 0
M  V30 629 N 59.124 1.23083 0.984299 0
M  V30 630 C 60.372 1.05848 1.72165 0
M  V30 631 C 60.693 -0.406049 1.90726 0
M  V30 632 O 59.963 -1.29139 1.47309 0
M  V30 633 H 58.543 0.388685 0.637913 0
M  V30 634 H 61.205 1.54736 1.18503 0
M  V30 635 H 60.301 1.54327 2.71274 0
M  V30 636 N 60.6021 -1.18246 1.0419 0
M  V30 637 C 61.8501 -1.87886 0.744543 0
M  V30 638 C 62.1711 -1.8082 -0.730006 0
M  V30 639 O 61.4411 -1.22736 -1.52685 0
M  V30 640 H 60.0211 -0.695556 0.272417 0
M  V30 641 H 62.6831 -1.43494 1.31892 0
M  V30 642 H 61.7791 -2.9389 1.05049 0
M  V30 643 N 62.0802 -0.821533 -1.34494 0
M  V30 644 C 63.0432 -0.247847 -2.27856 0
M  V30 645 C 64.0432 0.573453 -1.50227 0
M  V30 646 O 65.2332 0.389759 -1.69784 0
M  V30 647 C 62.3652 0.652698 -3.34593 0
M  V30 648 H 63.5582 -1.07146 -2.80107 0
M  V30 649 H 61.1112 -0.593291 -1.44602 0
M  V30 650 H 61.8462 1.49943 -2.87555 0
M  V30 651 H 61.6312 0.065292 -3.92046 0
M  V30 652 H 63.1212 1.04793 -4.04238 0
M  V30 653 N 63.5583 1.46682 -0.576371 0
M  V30 654 C 64.5213 2.28707 0.150239 0
M  V30 655 C 65.5213 1.38035 0.824794 0
M  V30 656 O 66.7113 1.60476 0.677719 0
M  V30 657 C 63.8433 3.18248 1.22192 0
M  V30 658 H 65.0363 2.94423 -0.570521 0
M  V30 659 H 62.5893 1.52688 -0.334078 0
M  V30 660 H 63.3243 2.57265 1.97447 0
M  V30 661 H 63.1093 3.85 0.742812 0
M  V30 662 H 64.5993 3.80001 1.73172 0
M  V30 663 N 65.0364 0.313813 1.54444 0
M  V30 664 C 66.4524 -0.0391619 1.59552 0
M  V30 665 C 66.6524 -1.51322 1.33056 0
M  V30 666 O 65.7084 -2.26782 1.11022 0
M  V30 667 C 67.0214 0.370302 2.98411 0
M  V30 668 C 68.5694 0.320139 3.11358 0
M  V30 669 C 69.0444 0.704617 4.52547 0
M  V30 670 N 70.5354 0.657645 4.58508 0
M  V30 671 C 71.2704 0.927453 5.6585 0
M  V30 672 N 70.7664 1.26389 6.81174 0
M  V30 673 N 72.5594 0.853662 5.5558 0
M  V30 674 H 64.7104 1.27433 1.69925 0
M  V30 675 H 66.9734 0.517511 0.794284 0
M  V30 676 H 66.6794 1.39694 3.22767 0
M  V30 677 H 66.5534 -0.269619 3.76235 0
M  V30 678 H 68.9404 -0.697275 2.86744 0
M  V30 679 H 69.0214 0.99486 2.35661 0
M  V30 680 H 68.6654 1.7199 4.77893 0
M  V30 681 H 68.5954 0.00768843 5.26599 0
M  V30 682 H 71.0864 0.409067 3.75679 0
M  V30 683 H 71.3994 1.4554 7.58972 0
M  V30 684 H 69.7444 1.30206 6.82694 0
M  V30 685 H 72.9354 0.590383 4.64362 0
M  V30 686 H 73.1084 1.0673 6.3915 0
M  V30 687 N 66.5145 -1.57545 0.0417849 0
M  V30 688 C 67.4775 -2.09885 -0.92093 0
M  V30 689 C 68.4775 -1.01648 -1.24596 0
M  V30 690 O 69.6675 -1.27759 -1.1842 0
M  V30 691 C 66.7995 -2.57527 -2.23367 0
M  V30 692 H 67.9925 -2.96236 -0.467382 0
M  V30 693 H 65.5455 -1.5493 -0.206467 0
M  V30 694 H 66.2805 -1.74542 -2.73323 0
M  V30 695 H 66.0655 -3.36613 -2.01083 0
M  V30 696 H 67.5555 -2.98201 -2.92346 0
M  V30 697 N 67.9926 0.231505 -1.5589 0
M  V30 698 C 69.2396 0.957352 -1.78441 0
M  V30 699 C 69.5676 1.84726 -0.60882 0
M  V30 700 O 68.8226 1.91416 0.40725 0
M  V30 701 C 69.1216 1.83577 -3.0665 0
M  V30 702 C 68.7876 1.09993 -4.37278 0
M  V30 703 C 67.4496 0.896629 -4.72773 0
M  V30 704 C 69.8016 0.579558 -5.17968 0
M  V30 705 C 67.1296 0.160896 -5.86479 0
M  V30 706 C 69.4816 -0.142783 -6.32439 0
M  V30 707 C 68.1456 -0.357427 -6.66542 0
M  V30 708 H 67.4156 0.35032 -0.65296 0
M  V30 709 H 70.0626 0.226259 -1.90159 0
M  V30 710 H 68.3676 2.63441 -2.90011 0
M  V30 711 H 70.0646 2.39934 -3.21298 0
M  V30 712 H 66.6546 1.26835 -4.09403 0
M  V30 713 H 70.8386 0.724125 -4.90989 0
M  V30 714 H 66.0946 -0.0157293 -6.11398 0
M  V30 715 H 70.2686 -0.553559 -6.94196 0
M  V30 716 H 67.8956 -0.929466 -7.54497 0
M  V30 717 N 69.4707 1.49531 0.497807 0
M  V30 718 C 70.7477 1.49682 1.25915 0
M  V30 719 C 71.1277 0.226339 2.09883 0
M  V30 720 O 70.4757 -0.791189 2.14365 0
M  V30 721 C 70.6857 2.77755 2.11313 0
M  V30 722 C 72.0337 3.27371 2.70395 0
M  V30 723 O 73.0577 2.78894 2.21578 0
M  V30 724 O 71.9167 4.11808 3.59272 0
M  V30 725 H 69.0107 0.599228 0.56996 0
M  V30 726 H 71.5567 1.61798 0.511816 0
M  V30 727 H 70.3287 3.61713 1.49264 0
M  V30 728 H 69.9517 2.68515 2.93233 0
M  V30 729 N 70.9488 -0.749086 1.3866 0
M  V30 730 C 71.8808 -1.87273 1.32142 0
M  V30 731 C 72.8938 -1.61127 0.232787 0
M  V30 732 O 74.0828 -1.71623 0.49069 0
M  V30 733 C 71.1828 -3.23005 1.02571 0
M  V30 734 C 70.3558 -3.7662 2.22433 0
M  V30 735 C 69.4148 -4.90879 1.89537 0
M  V30 736 O 68.4408 -5.05276 2.62078 0
M  V30 737 N 69.6428 -5.74198 0.853031 0
M  V30 738 H 72.4078 -1.93373 2.28969 0
M  V30 739 H 69.9688 -0.929216 1.32579 0
M  V30 740 H 71.9608 -3.96992 0.786085 0
M  V30 741 H 70.5308 -3.12262 0.145249 0
M  V30 742 H 69.7508 -2.94147 2.62434 0
M  V30 743 H 71.0388 -4.09173 3.02415 0
M  V30 744 H 70.4368 -5.6514 0.25155 0
M  V30 745 H 68.9938 -6.48313 0.67329 0
M  V30 746 N 72.4269 -1.23603 -0.977757 0
M  V30 747 C 73.6759 -1.06377 -1.71368 0
M  V30 748 C 73.9889 0.399062 -1.91486 0
M  V30 749 O 75.1949 0.691312 -2.62551 0
M  V30 750 C 73.6509 -1.85512 -3.08404 0
M  V30 751 C 73.2589 -3.36141 -2.96164 0
M  V30 752 C 75.0029 -1.76783 -3.85938 0
M  V30 753 C 72.9099 -4.07659 -4.28449 0
M  V30 754 H 71.8399 -0.394452 -0.642591 0
M  V30 755 H 74.4909 -1.47594 -1.09034 0
M  V30 756 H 72.8729 -1.37103 -3.71509 0
M  V30 757 H 74.0469 -3.92056 -2.42133 0
M  V30 758 H 72.3619 -3.45712 -2.32104 0
M  V30 759 H 74.9589 -2.27526 -4.83876 0
M  V30 760 H 75.3019 -0.731116 -4.0983 0
M  V30 761 H 75.8349 -2.22818 -3.2954 0
M  V30 762 H 72.5739 -5.11648 -4.09752 0
M  V30 763 H 72.0939 -3.5653 -4.82334 0
M  V30 764 H 73.7729 -4.141 -4.97122 0
M  V30 765 N 73.905 1.17692 -1.04816 0
M  V30 766 C 75.182 1.83768 -0.669963 0
M  V30 767 C 75.562 1.93232 0.849986 0
M  V30 768 O 74.91 1.46397 1.75443 0
M  V30 769 C 75.12 3.21641 -1.35455 0
M  V30 770 C 76.468 3.97592 -1.49017 0
M  V30 771 O 77.492 3.31107 -1.31326 0
M  V30 772 O 76.351 5.16729 -1.77914 0
M  V30 773 H 73.445 0.792799 -0.235368 0
M  V30 774 H 75.991 1.25021 -1.14751 0
M  V30 775 H 74.763 3.097 -2.39168 0
M  V30 776 H 74.386 3.88052 -0.866107 0
M  V30 777 N 75.3831 0.828654 1.34056 0
M  V30 778 C 76.3311 0.242973 2.31327 0
M  V30 779 C 77.3251 -0.61944 1.57668 0
M  V30 780 O 78.5311 -0.51014 1.7262 0
M  V30 781 H 74.9061 0.059834 0.749616 0
M  V30 782 H 76.8771 1.07809 2.78244 0
M  V30 783 C 75.6261 -0.575733 3.429 0
M  V30 784 H 74.9491 0.0785582 3.99723 0
M  V30 785 H 76.3891 -0.951547 4.13185 0
M  V30 786 C 74.8481 -1.75044 2.87856 0
M  V30 787 O 75.3781 -2.84882 2.83205 0
M  V30 788 N 73.5841 -1.56903 2.44602 0
M  V30 789 H 73.1311 -0.675547 2.48584 0
M  V30 790 H 73.0891 -2.35652 2.08124 0
M  V30 791 N 76.8612 -1.46375 0.584142 0
M  V30 792 C 77.8242 -2.28784 -0.138108 0
M  V30 793 C 78.8242 -1.38471 -0.817462 0
M  V30 794 O 80.0142 -1.60833 -0.669199 0
M  V30 795 C 77.1462 -3.18892 -1.20503 0
M  V30 796 H 78.3392 -2.94117 0.586127 0
M  V30 797 H 75.8922 -1.52509 0.342171 0
M  V30 798 H 76.6272 -2.58309 -1.96079 0
M  V30 799 H 76.4122 -3.85388 -0.722384 0
M  V30 800 H 77.9022 -3.80914 -1.71155 0
M  V30 801 N 78.3393 -0.321999 -1.54275 0
M  V30 802 C 79.7503 0.166384 -1.85957 0
M  V30 803 C 80.1013 1.51747 -1.24367 0
M  V30 804 O 79.2263 2.09317 -0.549124 0
M  V30 805 C 79.8213 0.308681 -3.37391 0
M  V30 806 C 78.3803 0.741286 -3.69028 0
M  V30 807 C 77.5273 -0.137937 -2.76957 0
M  V30 808 H 80.4783 -0.542335 -1.49146 0
M  V30 809 H 80.4993 1.13984 -3.63026 0
M  V30 810 H 80.0113 -0.674809 -3.82188 0
M  V30 811 H 78.1123 1.73458 -3.29762 0
M  V30 812 H 78.2253 0.546118 -4.75977 0
M  V30 813 H 76.5893 0.386251 -2.51754 0
M  V30 814 H 77.3723 -1.11816 -3.2458 0
M  V30 815 N 79.8174 1.5752 -0.0501392 0
M  V30 816 C 80.7274 2.14952 0.939827 0
M  V30 817 C 81.7434 1.10706 1.34239 0
M  V30 818 O 82.9194 1.42869 1.41952 0
M  V30 819 C 79.9844 2.68232 2.19665 0
M  V30 820 C 79.0454 3.87272 1.85253 0
M  V30 821 C 78.2784 4.38002 3.04943 0
M  V30 822 O 78.5014 3.87811 4.18281 0
M  V30 823 O 77.4354 5.29602 2.86017 0
M  V30 824 H 81.2614 2.9986 0.481392 0
M  V30 825 H 78.8464 1.4841 0.171699 0
M  V30 826 H 80.7284 3.02475 2.93406 0
M  V30 827 H 79.4034 1.86395 2.64648 0
M  V30 828 H 78.3104 3.5792 1.0883 0
M  V30 829 H 79.6434 4.70336 1.4507 0
M  V30 830 N 81.2955 -0.223234 1.56011 0
M  V30 831 C 82.2055 -1.29766 1.95443 0
M  V30 832 C 83.2215 -1.51373 0.858028 0
M  V30 833 O 84.3975 -1.64536 1.16146 0
M  V30 834 C 81.4625 -2.62772 2.26167 0
M  V30 835 C 80.5235 -2.49482 3.49367 0
M  V30 836 C 79.7565 -3.76145 3.78616 0
M  V30 837 O 79.9795 -4.79087 3.09568 0
M  V30 838 O 78.9135 -3.73358 4.72109 0
M  V30 839 H 82.7395 -0.99309 2.87004 0
M  V30 840 H 80.3245 -0.425958 1.43199 0
M  V30 841 H 82.2065 -3.41327 2.47131 0
M  V30 842 H 80.8815 -2.92913 1.37781 0
M  V30 843 H 79.7885 -1.69133 3.33684 0
M  V30 844 H 81.1215 -2.2428 4.38131 0
M  V30 845 N 82.7736 -1.49793 -0.48987 0
M  V30 846 C 83.7206 -1.67281 -1.59014 0
M  V30 847 C 84.6906 -0.514177 -1.57941 0
M  V30 848 O 85.8756 -0.742533 -1.75759 0
M  V30 849 C 83.0156 -1.75569 -2.97102 0
M  V30 850 C 82.1286 -3.0281 -3.08107 0
M  V30 851 C 81.2636 -3.02008 -4.36995 0
M  V30 852 C 80.3026 -4.23782 -4.41673 0
M  V30 853 N 79.4396 -4.20826 -5.62005 0
M  V30 854 H 84.2796 -2.61224 -1.43409 0
M  V30 855 H 81.8166 -1.29508 -0.697565 0
M  V30 856 H 83.7746 -1.78354 -3.77155 0
M  V30 857 H 82.4046 -0.850827 -3.11385 0
M  V30 858 H 81.4566 -3.09584 -2.21047 0
M  V30 859 H 82.7686 -3.92801 -3.07423 0
M  V30 860 H 81.9226 -3.03418 -5.25378 0
M  V30 861 H 80.6616 -2.09815 -4.4026 0
M  V30 862 H 79.6666 -4.22604 -3.5169 0
M  V30 863 H 80.8916 -5.17181 -4.40115 0
M  V30 864 H 78.8376 -3.31476 -5.66091 0
M  V30 865 H 78.7546 -5.04564 -5.62984 0
M  V30 866 H 80.0226 -4.26355 -6.52565 0
M  V30 867 N 84.2517 0.741722 -1.39055 0
M  V30 868 C 85.2147 1.83733 -1.37021 0
M  V30 869 C 86.2147 1.58542 -0.268534 0
M  V30 870 O 87.4047 1.66067 -0.526076 0
M  V30 871 C 84.5367 3.2141 -1.13617 0
M  V30 872 H 85.7297 1.86941 -2.34506 0
M  V30 873 H 83.2827 0.944676 -1.24521 0
M  V30 874 H 84.0177 3.23865 -0.167863 0
M  V30 875 H 83.8027 3.4109 -1.93391 0
M  V30 876 H 85.2927 4.01477 -1.14918 0
M  V30 877 N 85.7298 1.2412 0.971189 0
M  V30 878 C 87.1458 1.00584 1.23916 0
M  V30 879 C 87.3458 -0.287481 1.99439 0
M  V30 880 O 86.4018 -1.00454 2.31658 0
M  V30 881 C 87.7148 2.21864 2.0297 0
M  V30 882 C 89.2628 2.26452 2.16076 0
M  V30 883 C 89.7378 3.47343 2.98524 0
M  V30 884 N 91.2288 3.47639 3.06107 0
M  V30 885 C 91.9638 4.37837 3.70251 0
M  V30 886 N 91.4598 5.38286 4.36142 0
M  V30 887 N 93.2528 4.25558 3.67228 0
M  V30 888 H 85.4038 2.07236 0.465499 0
M  V30 889 H 87.6668 0.909236 0.268315 0
M  V30 890 H 87.3728 3.15771 1.54861 0
M  V30 891 H 87.2468 2.23698 3.03709 0
M  V30 892 H 89.6338 1.33078 2.6339 0
M  V30 893 H 89.7148 2.28645 1.14696 0
M  V30 894 H 89.3588 4.41029 2.51905 0
M  V30 895 H 89.2888 3.42393 4.00093 0
M  V30 896 H 91.7798 2.74966 2.59233 0
M  V30 897 H 92.0928 6.03352 4.82894 0
M  V30 898 H 90.4378 5.42176 4.34822 0
M  V30 899 H 93.6288 3.46322 3.14927 0
M  V30 900 H 93.8018 4.96054 4.16935 0
M  V30 901 N 87.2079 -1.17134 1.05439 0
M  V30 902 C 88.4559 -1.87085 0.764429 0
M  V30 903 C 88.7769 -1.81584 -0.710787 0
M  V30 904 O 88.0469 -1.24349 -1.51374 0
M  V30 905 H 86.6269 -0.692627 0.279779 0
M  V30 906 H 89.2889 -1.42087 1.33406 0
M  V30 907 H 88.3849 -2.92759 1.0816 0
M  V30 908 N 88.686 -0.835752 -1.33615 0
M  V30 909 C 89.935 -0.426289 -1.97144 0
M  V30 910 C 90.248 1.01912 -1.66953 0
M  V30 911 O 91.454 1.53311 -2.24072 0
M  V30 912 C 89.91 -0.711321 -3.52801 0
M  V30 913 C 89.518 -2.1712 -3.91871 0
M  V30 914 C 91.262 -0.368654 -4.22896 0
M  V30 915 C 89.169 -2.40044 -5.40493 0
M  V30 916 H 88.099 -0.15567 -0.737755 0
M  V30 917 H 90.75 -1.0239 -1.52278 0
M  V30 918 H 89.132 -0.0433766 -3.95976 0
M  V30 919 H 90.306 -2.87936 -3.59763 0
M  V30 920 H 88.621 -2.47654 -3.34749 0
M  V30 921 H 91.218 -0.517601 -5.32189 0
M  V30 922 H 91.561 0.688078 -4.10574 0
M  V30 923 H 92.094 -0.991702 -3.8524 0
M  V30 924 H 88.833 -3.44271 -5.57815 0
M  V30 925 H 88.353 -1.73785 -5.74072 0
M  V30 926 H 90.032 -2.23042 -6.0734 0
M  V30 927 N 90.1641 1.46063 -0.591896 0
M  V30 928 C 91.3921 2.06717 -0.0868936 0
M  V30 929 C 91.8071 1.43916 1.22203 0
M  V30 930 O 91.1641 0.547698 1.74088 0
M  V30 931 C 91.2151 3.6142 0.0758725 0
M  V30 932 O 90.9361 4.21874 -1.18126 0
M  V30 933 C 92.4371 4.39025 0.61416 0
M  V30 934 H 89.6571 0.668162 -0.0616518 0
M  V30 935 H 92.2011 1.8755 -0.815175 0
M  V30 936 H 90.3561 3.79983 0.754413 0
M  V30 937 H 90.7701 5.14861 -1.00092 0
M  V30 938 H 92.2441 5.4783 0.677193 0
M  V30 939 H 92.7211 4.07708 1.63312 0
M  V30 940 H 93.3271 4.2529 -0.0298142 0
M  V30 941 N 91.6422 0.330177 1.54103 0
M  V30 942 C 92.8912 -0.271336 1.99867 0
M  V30 943 C 93.2042 -1.52723 1.22209 0
M  V30 944 O 94.4102 -2.20515 1.58383 0
M  V30 945 C 92.8662 -0.534032 3.55916 0
M  V30 946 C 92.4742 0.705193 4.42415 0
M  V30 947 C 94.2182 -1.09514 4.1013 0
M  V30 948 C 92.1252 0.414035 5.89949 0
M  V30 949 H 91.0552 -0.105166 0.74663 0
M  V30 950 H 93.7062 0.443429 1.78062 0
M  V30 951 H 92.0882 -1.30915 3.73734 0
M  V30 952 H 93.2622 1.4804 4.36372 0
M  V30 953 H 91.5772 1.18698 3.99124 0
M  V30 954 H 94.1742 -1.3277 5.17954 0
M  V30 955 H 94.5172 -2.04656 3.62521 0
M  V30 956 H 95.0502 -0.381038 3.95971 0
M  V30 957 H 91.7892 1.33481 6.41766 0
M  V30 958 H 91.3092 -0.323336 5.98928 0
M  V30 959 H 92.9882 0.0263105 6.46995 0
M  V30 960 N 93.1203 -1.57491 0.0584922 0
M  V30 961 C 94.0683 -2.13148 -0.931168 0
M  V30 962 C 95.0623 -1.06507 -1.31729 0
M  V30 963 O 96.2683 -1.24906 -1.29609 0
M  V30 964 H 92.6433 -0.68137 -0.31818 0
M  V30 965 H 94.6143 -2.95187 -0.436707 0
M  V30 966 C 93.3633 -2.69732 -2.19408 0
M  V30 967 H 92.6863 -3.51454 -1.90578 0
M  V30 968 H 94.1263 -3.12287 -2.86798 0
M  V30 969 C 92.5853 -1.63855 -2.94369 0
M  V30 970 O 93.1153 -1.05565 -3.87581 0
M  V30 971 N 91.3213 -1.35202 -2.57233 0
M  V30 972 H 90.8683 -1.82791 -1.81508 0
M  V30 973 H 90.8263 -0.645922 -3.07693 0
M  V30 974 N 94.5984 0.214957 -1.56127 0
M  V30 975 C 95.8264 0.955092 -1.83536 0
M  V30 976 C 96.2414 1.77677 -0.638472 0
M  V30 977 O 95.5984 1.78219 0.392968 0
M  V30 978 C 95.6494 1.86734 -3.09536 0
M  V30 979 O 95.3704 1.07887 -4.24608 0
M  V30 980 C 96.8714 2.72082 -3.4998 0
M  V30 981 H 94.0914 0.279611 -0.609966 0
M  V30 982 H 96.6354 0.228197 -2.03223 0
M  V30 983 H 94.7904 2.5481 -2.91806 0
M  V30 984 H 95.2044 1.69872 -4.9623 0
M  V30 985 H 96.6784 3.31782 -4.41163 0
M  V30 986 H 97.1554 3.44806 -2.7204 0
M  V30 987 H 97.7614 2.09409 -3.70173 0
M  V30 988 N 96.0765 1.50051 0.48192 0
M  V30 989 C 97.3015 1.64508 1.26301 0
M  V30 990 C 97.7265 0.323851 1.85291 0
M  V30 991 O 97.0845 -0.710969 1.66778 0
M  V30 992 C 97.1325 2.7305 2.35533 0
M  V30 993 O 96.2365 2.3355 3.39895 0
M  V30 994 H 95.5775 0.549978 0.372048 0
M  V30 995 H 98.1075 1.9636 0.574786 0
M  V30 996 H 98.1175 2.95799 2.8101 0
M  V30 997 H 96.7925 3.68946 1.91967 0
M  V30 998 H 95.3695 2.21205 3.00204 0
M  V30 999 N 97.5546 -0.734337 1.39446 0
M  V30 1000 C 98.5046 -1.83949 1.34709 0
M  V30 1001 C 99.4886 -1.59279 0.227851 0
M  V30 1002 O 100.681 -1.70771 0.465438 0
M  V30 1003 C 97.8096 -3.21884 1.19356 0
M  V30 1004 C 96.8956 -3.52381 2.35984 0
M  V30 1005 N 97.2866 -3.53811 3.61457 0
M  V30 1006 C 95.5846 -3.82747 2.28956 0
M  V30 1007 C 96.2856 -3.82122 4.38586 0
M  V30 1008 N 95.2616 -3.9993 3.68181 0
M  V30 1009 H 99.0636 -1.83361 2.29687 0
M  V30 1010 H 96.5776 -0.932609 1.32952 0
M  V30 1011 H 98.5746 -4.00998 1.14046 0
M  V30 1012 H 97.2346 -3.23711 0.253295 0
M  V30 1013 H 98.2456 -3.35107 3.94872 0
M  V30 1014 H 94.9226 -3.92175 1.43194 0
M  V30 1015 H 96.3126 -3.89691 5.47349 0
M  V30 1016 N 99.0327 -1.24633 -0.964593 0
M  V30 1017 C 100.279 -1.08949 -1.71049 0
M  V30 1018 C 100.612 0.370302 -1.90637 0
M  V30 1019 O 99.8867 1.27349 -1.47011 0
M  V30 1020 C 100.17 -1.83329 -3.0994 0
M  V30 1021 C 100.023 -3.37077 -2.97824 0
M  V30 1022 C 101.342 -1.60846 -4.09654 0
M  V30 1023 H 98.4607 -0.397178 -0.620821 0
M  V30 1024 H 101.103 -1.5334 -1.12191 0
M  V30 1025 H 99.2527 -1.45597 -3.60186 0
M  V30 1026 H 100.925 -3.84425 -2.5498 0
M  V30 1027 H 99.1677 -3.65298 -2.33965 0
M  V30 1028 H 99.8387 -3.84324 -3.96231 0
M  V30 1029 H 102.315 -1.93674 -3.68279 0
M  V30 1030 H 101.191 -2.1534 -5.04896 0
M  V30 1031 H 101.452 -0.547434 -4.38698 0
M  V30 1032 N 100.511 1.16574 -1.06058 0
M  V30 1033 C 101.421 2.2452 -0.680282 0
M  V30 1034 C 102.437 1.71348 0.302604 0
M  V30 1035 O 103.613 2.00822 0.152513 0
M  V30 1036 C 100.678 3.46629 -0.0700315 0
M  V30 1037 C 99.7388 4.14849 -1.10448 0
M  V30 1038 C 98.9718 5.31129 -0.523256 0
M  V30 1039 O 99.1948 5.66514 0.664709 0
M  V30 1040 O 98.1288 5.88526 -1.26179 0
M  V30 1041 H 101.955 2.59355 -1.58015 0
M  V30 1042 H 99.5398 1.24043 -0.832694 0
M  V30 1043 H 101.422 4.20543 0.268667 0
M  V30 1044 H 100.097 3.13573 0.803353 0
M  V30 1045 H 99.0038 3.42916 -1.49532 0
M  V30 1046 H 100.337 4.51954 -1.94931 0
M  V30 1047 N 101.989 0.842826 1.3317 0
M  V30 1048 C 103.219 0.453397 2.01564 0
M  V30 1049 C 103.627 -0.951147 1.63554 0
M  V30 1050 O 102.97 -1.63021 0.846746 0
M  V30 1051 C 103.032 0.499013 3.5602 0
M  V30 1052 C 102.696 1.86037 4.1742 0
M  V30 1053 C 103.693 2.82416 4.36506 0
M  V30 1054 C 101.378 2.15428 4.53757 0
M  V30 1055 C 103.372 4.06346 4.91082 0
M  V30 1056 C 101.059 3.39615 5.0804 0
M  V30 1057 C 102.057 4.3489 5.26649 0
M  V30 1058 O 101.745 5.5688 5.79776 0
M  V30 1059 H 101.477 0.177871 0.652179 0
M  V30 1060 H 104.031 1.13808 1.70988 0
M  V30 1061 H 102.261 -0.242467 3.85939 0
M  V30 1062 H 103.95 0.126852 4.05702 0
M  V30 1063 H 104.716 2.6101 4.08777 0
M  V30 1064 H 100.595 1.42061 4.38565 0
M  V30 1065 H 104.139 4.80722 5.05522 0
M  V30 1066 H 100.036 3.60876 5.352 0
M  V30 1067 H 100.804 5.58674 5.98185 0
M  V30 1068 N 103.467 -1.45747 0.599634 0
M  V30 1069 C 104.744 -1.95585 0.0240846 0
M  V30 1070 C 105.124 -1.54217 -1.44154 0
M  V30 1071 O 104.472 -0.800903 -2.14004 0
M  V30 1072 C 104.682 -3.48344 0.21385 0
M  V30 1073 C 106.03 -4.24504 0.0904902 0
M  V30 1074 O 107.054 -3.55911 0.143558 0
M  V30 1075 O 105.913 -5.46491 -0.0310766 0
M  V30 1076 H 103.007 -0.82602 -0.0402478 0
M  V30 1077 H 105.553 -1.55951 0.669139 0
M  V30 1078 H 104.325 -3.71397 1.23206 0
M  V30 1079 H 103.948 -3.9485 -0.466842 0
M  V30 1080 N 104.945 -0.338344 -1.53925 0
M  V30 1081 C 106.173 0.261298 -2.05243 0
M  V30 1082 C 106.588 1.44625 -1.21363 0
M  V30 1083 O 105.945 1.80811 -0.247736 0
M  V30 1084 C 105.996 0.681412 -3.5502 0
M  V30 1085 O 105.717 -0.456414 -4.35716 0
M  V30 1086 C 107.218 1.34232 -4.22489 0
M  V30 1087 H 104.438 0.0513685 -0.669031 0
M  V30 1088 H 106.982 -0.488822 -1.98572 0
M  V30 1089 H 105.137 1.38148 -3.61931 0
M  V30 1090 H 105.551 -0.122564 -5.24357 0
M  V30 1091 H 107.025 1.58708 -5.28693 0
M  V30 1092 H 107.502 2.29426 -3.74514 0
M  V30 1093 H 108.108 0.684424 -4.19757 0
M  V30 1094 N 106.423 1.57458 -0.0668435 0
M  V30 1095 C 107.834 1.80776 0.466558 0
M  V30 1096 C 108.185 0.980361 1.69951 0
M  V30 1097 O 107.31 0.201441 2.1546 0
M  V30 1098 C 107.905 3.27881 0.85321 0
M  V30 1099 C 106.464 3.52062 1.3315 0
M  V30 1100 C 105.611 2.75513 0.314264 0
M  V30 1101 H 108.562 1.5598 -0.292588 0
M  V30 1102 H 108.583 3.39659 1.715 0
M  V30 1103 H 108.095 3.88075 -0.0443439 0
M  V30 1104 H 106.196 2.97167 2.24772 0
M  V30 1105 H 106.309 4.60762 1.31285 0
M  V30 1106 H 104.673 2.42123 0.790492 0
M  V30 1107 H 105.456 3.38442 -0.575477 0
M  V30 1108 N 107.901 -0.206675 1.56239 0
M  V30 1109 C 109.129 -0.945345 1.8404 0
M  V30 1110 C 109.544 -1.77336 0.647885 0
M  V30 1111 O 108.901 -1.78425 -0.383511 0
M  V30 1112 C 108.952 -1.8509 3.10522 0
M  V30 1113 O 108.673 -1.05634 4.25174 0
M  V30 1114 C 110.174 -2.70222 3.51418 0
M  V30 1115 H 107.394 -0.276372 0.61144 0
M  V30 1116 H 109.938 -0.217417 2.03341 0
M  V30 1117 H 108.093 -2.53259 2.93153 0
M  V30 1118 H 108.507 -1.67238 4.97124 0
M  V30 1119 H 109.981 -3.29438 4.42916 0
M  V30 1120 H 110.458 -3.43358 2.73864 0
M  V30 1121 H 111.064 -2.07443 3.71278 0
M  V30 1122 N 109.379 -1.50304 -0.473955 0
M  V30 1123 C 110.795 -1.37667 -0.807466 0
M  V30 1124 C 110.995 -0.430555 -1.96846 0
M  V30 1125 O 110.051 0.127874 -2.52176 0
M  V30 1126 C 111.364 -2.78974 -1.12223 0
M  V30 1127 C 112.912 -2.87868 -1.22885 0
M  V30 1128 C 113.387 -4.30003 -1.57676 0
M  V30 1129 N 114.878 -4.3294 -1.64673 0
M  V30 1130 C 115.613 -5.3991 -1.93091 0
M  V30 1131 N 115.109 -6.57092 -2.1955 0
M  V30 1132 N 116.902 -5.27351 -1.94569 0
M  V30 1133 H 109.053 -2.10394 0.291212 0
M  V30 1134 H 111.316 -0.945575 0.0677609 0
M  V30 1135 H 111.022 -3.50031 -0.342229 0
M  V30 1136 H 110.896 -3.16038 -2.05913 0
M  V30 1137 H 113.283 -2.17032 -1.99953 0
M  V30 1138 H 113.364 -2.54352 -0.271814 0
M  V30 1139 H 113.008 -5.01375 -0.81149 0
M  V30 1140 H 112.938 -4.61004 -2.54525 0
M  V30 1141 H 115.429 -3.48441 -1.46277 0
M  V30 1142 H 115.742 -7.34425 -2.405 0
M  V30 1143 H 114.087 -6.60272 -2.16948 0
M  V30 1144 H 117.278 -4.34801 -1.73394 0
M  V30 1145 H 117.451 -6.10805 -2.16381 0
M  V30 1146 N 110.857 0.726932 -1.39834 0
M  V30 1147 C 111.807 1.83232 -1.35683 0
M  V30 1148 C 112.791 1.59155 -0.236295 0
M  V30 1149 O 113.983 1.70522 -0.474488 0
M  V30 1150 C 111.112 3.21246 -1.21062 0
M  V30 1151 C 110.198 3.51125 -2.37849 0
M  V30 1152 N 110.589 3.51889 -3.63329 0
M  V30 1153 C 108.887 3.81527 -2.30982 0
M  V30 1154 C 109.588 3.79791 -4.40606 0
M  V30 1155 N 108.564 3.97971 -3.70297 0
M  V30 1156 H 112.366 1.8214 -2.30656 0
M  V30 1157 H 109.88 0.925545 -1.33444 0
M  V30 1158 H 111.877 4.00387 -1.16171 0
M  V30 1159 H 110.537 3.23572 -0.270458 0
M  V30 1160 H 111.548 3.33008 -3.96643 0
M  V30 1161 H 108.225 3.91411 -1.45272 0
M  V30 1162 H 109.615 3.86783 -5.49408 0
M  V30 1163 N 112.336 1.25143 0.95797 0
M  V30 1164 C 113.566 1.12261 1.73439 0
M  V30 1165 C 113.974 -0.326715 1.86358 0
M  V30 1166 O 113.317 -1.2367 1.35836 0
M  V30 1167 C 113.379 1.69966 3.16784 0
M  V30 1168 C 113.043 3.18936 3.27305 0
M  V30 1169 C 114.04 4.15968 3.11877 0
M  V30 1170 C 111.725 3.59083 3.51234 0
M  V30 1171 C 113.719 5.51126 3.20217 0
M  V30 1172 C 111.406 4.9438 3.5921 0
M  V30 1173 C 112.404 5.90211 3.43716 0
M  V30 1174 O 112.092 7.23046 3.51368 0
M  V30 1175 H 111.824 0.392476 0.550399 0
M  V30 1176 H 114.378 1.65927 1.21068 0
M  V30 1177 H 112.608 1.10744 3.70503 0
M  V30 1178 H 114.297 1.52232 3.76272 0
M  V30 1179 H 115.063 3.86292 2.93264 0
M  V30 1180 H 110.942 2.84989 3.62356 0
M  V30 1181 H 114.486 6.25905 3.0804 0
M  V30 1182 H 110.383 5.23723 3.77339 0
M  V30 1183 H 111.151 7.31097 3.6802 0
M  V30 1184 N 113.814 -1.1601 1.06675 0
M  V30 1185 C 114.777 -2.18724 0.685001 0
M  V30 1186 C 115.777 -1.58496 -0.271246 0
M  V30 1187 O 116.967 -1.74119 -0.0531156 0
M  V30 1188 C 114.099 -3.40899 0.00853648 0
M  V30 1189 H 115.292 -2.54011 1.59431 0
M  V30 1190 H 112.845 -1.30352 0.862441 0
M  V30 1191 H 113.58 -3.11173 -0.913337 0
M  V30 1192 H 113.365 -3.8587 0.696204 0
M  V30 1193 H 114.855 -4.16886 -0.24414 0
M  V30 1194 N 115.292 -0.849877 -1.32721 0
M  V30 1195 C 116.242 -0.262892 -2.26479 0
M  V30 1196 C 117.226 0.588493 -1.49752 0
M  V30 1197 O 118.418 0.438659 -1.71478 0
M  V30 1198 C 115.547 0.551818 -3.38836 0
M  V30 1199 C 114.633 -0.311689 -4.22953 0
M  V30 1200 N 115.024 -1.39567 -4.86163 0
M  V30 1201 C 113.322 -0.100611 -4.45887 0
M  V30 1202 C 114.023 -1.92651 -5.48872 0
M  V30 1203 N 112.999 -1.22637 -5.29586 0
M  V30 1204 H 116.801 -1.09166 -2.72873 0
M  V30 1205 H 114.315 -0.695486 -1.46754 0
M  V30 1206 H 116.312 0.988713 -4.05006 0
M  V30 1207 H 114.972 1.37844 -2.93988 0
M  V30 1208 H 115.983 -1.77859 -4.86402 0
M  V30 1209 H 112.66 0.691681 -4.11731 0
M  V30 1210 H 114.05 -2.83487 -6.09167 0
M  V30 1211 N 116.77 1.45427 -0.607355 0
M  V30 1212 C 118.016 2.0254 -0.102607 0
M  V30 1213 C 118.349 1.47478 1.26348 0
M  V30 1214 O 117.624 0.64939 1.83339 0
M  V30 1215 C 117.907 3.60044 -0.0634347 0
M  V30 1216 C 117.76 4.2544 -1.46017 0
M  V30 1217 C 119.079 4.35646 0.624514 0
M  V30 1218 H 116.198 0.73598 -0.0387607 0
M  V30 1219 H 118.84 1.73284 -0.779282 0
M  V30 1220 H 116.99 3.85101 0.512808 0
M  V30 1221 H 118.662 4.11569 -2.08347 0
M  V30 1222 H 116.905 3.83849 -2.02094 0
M  V30 1223 H 117.576 5.34342 -1.385 0
M  V30 1224 H 120.052 4.15882 0.134723 0
M  V30 1225 H 118.928 5.45376 0.621028 0
M  V30 1226 H 119.189 4.08501 1.69055 0
M  V30 1227 N 118.248 0.346503 1.53744 0
M  V30 1228 C 119.525 -0.304532 1.93215 0
M  V30 1229 C 119.905 -1.67993 1.27834 0
M  V30 1230 O 119.253 -2.24411 0.430352 0
M  V30 1231 C 119.463 -0.373852 3.46992 0
M  V30 1232 C 120.811 -0.62329 4.2 0
M  V30 1233 O 121.835 -0.455847 3.53271 0
M  V30 1234 O 120.694 -0.947879 5.38217 0
M  V30 1235 H 117.788 -0.178318 0.807547 0
M  V30 1236 H 120.334 0.397895 1.64969 0
M  V30 1237 H 119.106 0.591224 3.86808 0
M  V30 1238 H 118.729 -1.12294 3.81413 0
M  V30 1239 N 119.726 -1.57421 0.075193 0
M  V30 1240 C 120.966 -1.95495 -0.596757 0
M  V30 1241 C 121.33 -0.954886 -1.66571 0
M  V30 1242 O 122.531 -1.22341 -2.39345 0
M  V30 1243 C 120.802 -3.382 -1.15566 0
M  V30 1244 S 122.361 -3.98254 -1.84226 0
M  V30 1245 H 119.179 -0.683649 -0.195307 0
M  V30 1246 H 121.781 -1.94925 0.149859 0
M  V30 1247 H 120.485 -4.08766 -0.36588 0
M  V30 1248 H 120.016 -3.42321 -1.93856 0
M  V30 1249 H 122.031 -3.85435 -3.12497 0
M  V30 1250 N 121.204 0.198386 -1.56346 0
M  V30 1251 C 122.615 0.763358 -1.70381 0
M  V30 1252 C 122.966 1.83995 -0.681203 0
M  V30 1253 O 122.091 2.15785 0.16305 0
M  V30 1254 C 122.686 1.39143 -3.08909 0
M  V30 1255 C 121.245 1.90352 -3.2472 0
M  V30 1256 C 120.392 0.772233 -2.6633 0
M  V30 1257 H 123.343 -0.0266377 -1.58678 0
M  V30 1258 H 123.364 2.26076 -3.06055 0
M  V30 1259 H 122.876 0.607638 -3.83314 0
M  V30 1260 H 120.977 2.71461 -2.55225 0
M  V30 1261 H 121.09 2.06757 -4.3219 0
M  V30 1262 H 119.454 1.18566 -2.2542 0
M  V30 1263 H 120.237 0.00073556 -3.433 0
M  V30 1264 N 122.682 1.50554 0.465978 0
M  V30 1265 C 123.93 1.61479 1.21528 0
M  V30 1266 C 124.251 0.319596 1.92363 0
M  V30 1267 O 123.521 -0.663194 1.84333 0
M  V30 1268 H 122.101 0.595055 0.451573 0
M  V30 1269 H 124.763 1.87355 0.53704 0
M  V30 1270 H 123.859 2.42846 1.96042 0
M  V30 1271 N 124.16 -0.719506 1.40217 0
M  V30 1272 C 125.11 -1.8251 1.36653 0
M  V30 1273 C 126.094 -1.59028 0.244732 0
M  V30 1274 O 127.286 -1.70268 0.483524 0
M  V30 1275 C 124.415 -3.20599 1.22763 0
M  V30 1276 C 123.501 -3.49858 2.39708 0
M  V30 1277 N 123.892 -3.49957 3.6519 0
M  V30 1278 C 122.19 -3.80297 2.33002 0
M  V30 1279 C 122.891 -3.77449 4.42614 0
M  V30 1280 N 121.867 -3.96002 3.72402 0
M  V30 1281 H 125.669 -1.80914 2.31619 0
M  V30 1282 H 123.183 -0.918455 1.33933 0
M  V30 1283 H 125.18 -3.99766 1.18292 0
M  V30 1284 H 123.84 -3.23424 0.287614 0
M  V30 1285 H 124.851 -3.309 3.98404 0
M  V30 1286 H 121.528 -3.90635 1.47346 0
M  V30 1287 H 122.918 -3.83863 5.51451 0
M  V30 1288 N 125.638 -1.25649 -0.95132 0
M  V30 1289 C 126.601 -1.06399 -2.03007 0
M  V30 1290 C 127.601 -0.0156794 -1.60792 0
M  V30 1291 O 128.791 -0.25817 -1.72276 0
M  V30 1292 C 125.923 -0.616184 -3.35285 0
M  V30 1293 H 127.116 -2.02164 -2.21517 0
M  V30 1294 H 124.669 -1.08103 -1.12887 0
M  V30 1295 H 125.404 0.343917 -3.22471 0
M  V30 1296 H 125.189 -1.37301 -3.67275 0
M  V30 1297 H 126.679 -0.503032 -4.14559 0
M  V30 1298 N 127.117 1.15442 -1.07289 0
M  V30 1299 C 128.394 1.82306 -0.708792 0
M  V30 1300 C 128.774 1.94991 0.808807 0
M  V30 1301 O 128.122 1.50085 1.72298 0
M  V30 1302 C 128.332 3.18695 -1.42247 0
M  V30 1303 C 129.68 3.94341 -1.57417 0
M  V30 1304 O 130.704 3.28247 -1.38319 0
M  V30 1305 O 129.563 5.12839 -1.88834 0
M  V30 1306 H 126.657 0.787628 -0.252132 0
M  V30 1307 H 129.203 1.22559 -1.17377 0
M  V30 1308 H 127.975 3.04557 -2.45684 0
M  V30 1309 H 127.598 3.86128 -0.948223 0
M  V30 1310 N 128.595 0.856903 1.32268 0
M  V30 1311 C 129.825 0.47475 2.01071 0
M  V30 1312 C 130.233 -0.933746 1.64553 0
M  V30 1313 O 129.576 -1.62114 0.863989 0
M  V30 1314 C 129.638 0.536746 3.55471 0
M  V30 1315 C 129.302 1.90453 4.15423 0
M  V30 1316 C 130.299 2.87029 4.33486 0
M  V30 1317 C 127.984 2.20229 4.51447 0
M  V30 1318 C 129.978 4.11532 4.86744 0
M  V30 1319 C 127.665 3.44984 5.0441 0
M  V30 1320 C 128.663 4.40452 5.22007 0
M  V30 1321 O 128.351 5.62998 5.73837 0
M  V30 1322 H 128.083 0.184778 0.650256 0
M  V30 1323 H 130.637 1.15615 1.69771 0
M  V30 1324 H 128.867 -0.20152 3.86175 0
M  V30 1325 H 130.556 0.169875 4.05544 0
M  V30 1326 H 131.322 2.6533 4.05986 0
M  V30 1327 H 127.201 1.46705 4.37034 0
M  V30 1328 H 130.745 4.86056 5.00395 0
M  V30 1329 H 126.642 3.66532 5.31342 0
M  V30 1330 H 127.41 5.64987 5.92226 0
M  V30 1331 N 130.073 -1.45103 0.615059 0
M  V30 1332 C 131.319 -2.02483 0.113347 0
M  V30 1333 C 131.652 -1.48146 -1.25564 0
M  V30 1334 O 130.927 -0.659104 -1.82992 0
M  V30 1335 C 131.21 -3.60005 0.0825278 0
M  V30 1336 C 131.063 -4.2466 1.48271 0
M  V30 1337 C 132.382 -4.35972 -0.601401 0
M  V30 1338 H 129.501 -0.735764 0.0426632 0
M  V30 1339 H 132.143 -1.72868 0.788461 0
M  V30 1340 H 130.293 -3.85367 -0.492378 0
M  V30 1341 H 131.965 -4.10458 2.10527 0
M  V30 1342 H 130.208 -3.82772 2.04127 0
M  V30 1343 H 130.879 -5.336 1.41332 0
M  V30 1344 H 133.355 -4.15947 -0.112666 0
M  V30 1345 H 132.231 -5.45697 -0.592097 0
M  V30 1346 H 132.492 -4.09391 -1.66887 0
M  V30 1347 N 131.551 -0.354651 -1.53558 0
M  V30 1348 C 132.498 0.496968 -2.25386 0
M  V30 1349 C 133.468 1.0865 -1.25636 0
M  V30 1350 O 134.653 1.12104 -1.54394 0
M  V30 1351 C 131.793 1.63637 -3.03837 0
M  V30 1352 C 130.906 1.07307 -4.18461 0
M  V30 1353 C 130.041 2.18068 -4.84376 0
M  V30 1354 C 129.08 1.59147 -5.91049 0
M  V30 1355 N 128.217 2.63695 -6.50699 0
M  V30 1356 H 133.057 -0.122075 -2.9775 0
M  V30 1357 H 130.594 -0.0720154 -1.46924 0
M  V30 1358 H 132.552 2.30734 -3.47589 0
M  V30 1359 H 131.182 2.22623 -2.33749 0
M  V30 1360 H 130.234 0.292708 -3.79272 0
M  V30 1361 H 131.546 0.602193 -4.95152 0
M  V30 1362 H 130.7 2.93007 -5.31255 0
M  V30 1363 H 129.439 2.68504 -4.07133 0
M  V30 1364 H 128.444 0.827175 -5.43542 0
M  V30 1365 H 129.669 1.09549 -6.70206 0
M  V30 1366 H 127.615 3.13365 -5.76315 0
M  V30 1367 H 127.532 2.21263 -7.22896 0
M  V30 1368 H 128.8 3.3837 -7.02229 0
M  V30 1369 N 133.029 1.57378 -0.0835403 0
M  V30 1370 C 133.977 2.14602 0.89714 0
M  V30 1371 C 134.971 1.08589 1.30018 0
M  V30 1372 O 136.177 1.26952 1.27606 0
M  V30 1373 H 132.552 0.686346 0.3073 0
M  V30 1374 H 134.523 2.95845 0.38969 0
M  V30 1375 C 133.272 2.73188 2.15089 0
M  V30 1376 H 132.595 3.54442 1.84962 0
M  V30 1377 H 134.035 3.1681 2.81793 0
M  V30 1378 C 132.494 1.68517 2.91725 0
M  V30 1379 O 133.024 1.11718 3.85852 0
M  V30 1380 N 131.23 1.39277 2.55049 0
M  V30 1381 H 130.777 1.85655 1.78577 0
M  V30 1382 H 130.735 0.694791 3.06627 0
M  V30 1383 N 134.507 -0.190092 1.56449 0
M  V30 1384 C 135.44 -1.26375 1.90012 0
M  V30 1385 C 136.418 -1.43705 0.760765 0
M  V30 1386 O 137.602 -1.59014 1.01226 0
M  V30 1387 C 134.729 -2.62962 2.13468 0
M  V30 1388 C 133.775 -2.62474 3.36169 0
M  V30 1389 S 134.608 -2.13412 4.91137 0
M  V30 1390 C 135.764 -3.51812 5.17667 0
M  V30 1391 H 135.997 -0.977181 2.80782 0
M  V30 1392 H 133.53 -0.393814 1.49293 0
M  V30 1393 H 135.488 -3.41583 2.27664 0
M  V30 1394 H 134.149 -2.88828 1.23439 0
M  V30 1395 H 133.342 -3.62918 3.49723 0
M  V30 1396 H 132.944 -1.91937 3.20992 0
M  V30 1397 H 135.236 -4.47706 5.08494 0
M  V30 1398 H 136.179 -3.43148 6.19399 0
M  V30 1399 H 136.587 -3.46956 4.45288 0
M  V30 1400 N 135.985 -1.50799 -0.457987 0
M  V30 1401 C 137.234 -1.6168 -1.20593 0
M  V30 1402 C 137.547 -0.32888 -1.92815 0
M  V30 1403 O 138.753 -0.316773 -2.69646 0
M  V30 1404 C 137.209 -2.8545 -2.19195 0
M  V30 1405 C 136.817 -4.21168 -1.52715 0
M  V30 1406 C 138.561 -3.05681 -2.94549 0
M  V30 1407 C 136.468 -5.3611 -2.4968 0
M  V30 1408 H 135.398 -0.602134 -0.453818 0
M  V30 1409 H 138.049 -1.77245 -0.475031 0
M  V30 1410 H 136.431 -2.63472 -2.95632 0
M  V30 1411 H 137.605 -4.53449 -0.819775 0
M  V30 1412 H 135.92 -4.06648 -0.895922 0
M  V30 1413 H 138.517 -3.88727 -3.67145 0
M  V30 1414 H 138.86 -2.17929 -3.54701 0
M  V30 1415 H 139.393 -3.27901 -2.25223 0
M  V30 1416 H 136.132 -6.26057 -1.94249 0
M  V30 1417 H 135.652 -5.0823 -3.18532 0
M  V30 1418 H 137.331 -5.6722 -3.11241 0
M  V30 1419 N 137.463 0.71206 -1.40597 0
M  V30 1420 C 138.691 1.50111 -1.42388 0
M  V30 1421 C 139.106 1.88784 -0.0245395 0
M  V30 1422 O 138.463 1.55681 0.952351 0
M  V30 1423 C 138.514 2.7742 -2.31776 0
M  V30 1424 O 138.235 2.40382 -3.66262 0
M  V30 1425 C 139.736 3.7129 -2.42196 0
M  V30 1426 H 136.956 0.46314 -0.485533 0
M  V30 1427 H 139.5 0.878068 -1.8469 0
M  V30 1428 H 137.655 3.36001 -1.92827 0
M  V30 1429 H 138.069 3.22324 -4.13772 0
M  V30 1430 H 139.543 4.57448 -3.08943 0
M  V30 1431 H 140.02 4.14641 -1.44809 0
M  V30 1432 H 140.626 3.18619 -2.81712 0
M  V30 1433 N 138.941 1.26152 0.944643 0
M  V30 1434 C 140.189 1.11271 1.6871 0
M  V30 1435 C 140.51 -0.345166 1.91921 0
M  V30 1436 O 139.78 -1.24387 1.51343 0
M  V30 1437 H 138.36 0.408783 0.625224 0
M  V30 1438 H 141.022 1.58427 1.1352 0
M  V30 1439 H 140.118 1.62879 2.66227 0
M  V30 1440 N 140.419 -1.14872 1.07899 0
M  V30 1441 C 141.382 -2.17986 0.708161 0
M  V30 1442 C 142.382 -1.58775 -0.25442 0
M  V30 1443 O 143.572 -1.74166 -0.034645 0
M  V30 1444 C 140.704 -3.40871 0.0446929 0
M  V30 1445 H 141.897 -2.52306 1.62116 0
M  V30 1446 H 139.45 -1.2943 0.876218 0
M  V30 1447 H 140.185 -3.12124 -0.880281 0
M  V30 1448 H 139.97 -3.8511 0.737091 0
M  V30 1449 H 141.46 -4.17121 -0.19991 0
M  V30 1450 N 141.898 -0.863906 -1.31812 0
M  V30 1451 C 142.861 -0.320212 -2.26952 0
M  V30 1452 C 143.861 0.525369 -1.51975 0
M  V30 1453 O 145.051 0.335547 -1.70938 0
M  V30 1454 C 142.183 0.545919 -3.365 0
M  V30 1455 H 143.376 -1.16004 -2.76556 0
M  V30 1456 H 140.929 -0.638995 -1.42641 0
M  V30 1457 H 141.664 1.40718 -2.92179 0
M  V30 1458 H 141.449 -0.0594674 -3.92055 0
M  V30 1459 H 142.939 0.918796 -4.07367 0
M  V30 1460 N 143.376 1.44774 -0.622745 0
M  V30 1461 C 144.308 2.28856 0.125485 0
M  V30 1462 C 145.321 1.40811 0.817069 0
M  V30 1463 O 146.51 1.65044 0.679918 0
M  V30 1464 C 143.61 3.16963 1.19949 0
M  V30 1465 C 142.783 4.33374 0.592064 0
M  V30 1466 C 141.842 5.02577 1.55893 0
M  V30 1467 O 140.868 5.58873 1.07933 0
M  V30 1468 N 142.07 5.03256 2.89334 0
M  V30 1469 H 144.835 2.93713 -0.596068 0
M  V30 1470 H 142.396 1.55129 -0.463303 0
M  V30 1471 H 144.388 3.60123 1.84644 0
M  V30 1472 H 142.958 2.53913 1.82337 0
M  V30 1473 H 142.178 3.93509 -0.233322 0
M  V30 1474 H 143.466 5.08527 0.166738 0
M  V30 1475 H 142.864 4.58836 3.30887 0
M  V30 1476 H 141.421 5.50232 3.49412 0
M  V30 1477 N 144.854 0.36279 1.53368 0
M  V30 1478 C 145.787 -0.528507 2.21996 0
M  V30 1479 C 146.765 -1.0852 1.21087 0
M  V30 1480 O 147.949 -1.14186 1.4998 0
M  V30 1481 C 145.076 -1.72893 2.91249 0
M  V30 1482 C 144.122 -1.29994 4.06207 0
M  V30 1483 S 144.955 -0.303575 5.34639 0
M  V30 1484 C 146.111 -1.51039 6.07403 0
M  V30 1485 H 146.344 0.0543423 2.9725 0
M  V30 1486 H 143.877 0.146889 1.537 0
M  V30 1487 H 145.835 -2.41751 3.31763 0
M  V30 1488 H 144.496 -2.28303 2.15724 0
M  V30 1489 H 143.689 -2.19549 4.53667 0
M  V30 1490 H 143.291 -0.690608 3.67569 0
M  V30 1491 H 145.583 -2.44186 6.31965 0
M  V30 1492 H 146.526 -1.07721 6.99858 0
M  V30 1493 H 146.934 -1.71518 5.37812 0
M  V30 1494 N 146.332 -1.57332 0.0918853 0
M  V30 1495 C 147.609 -1.85691 -0.614668 0
M  V30 1496 C 147.989 -0.988146 -1.86545 0
M  V30 1497 O 147.337 -0.0597055 -2.28422 0
M  V30 1498 C 147.547 -3.36294 -0.933126 0
M  V30 1499 C 148.895 -4.04275 -1.29796 0
M  V30 1500 O 149.919 -3.41157 -1.02424 0
M  V30 1501 O 148.778 -5.1564 -1.81047 0
M  V30 1502 H 145.872 -0.767802 -0.307261 0
M  V30 1503 H 148.418 -1.69244 0.12434 0
M  V30 1504 H 147.19 -3.91273 -0.0456404 0
M  V30 1505 H 146.813 -3.58076 -1.72822 0
M  V30 1506 N 147.81 0.181792 -1.56548 0
M  V30 1507 C 149.058 0.89832 -1.81038 0
M  V30 1508 C 149.379 1.83232 -0.667164 0
M  V30 1509 O 148.649 1.93372 0.313673 0
M  V30 1510 H 147.229 0.33471 -0.667816 0
M  V30 1511 H 149.891 0.184116 -1.94028 0
M  V30 1512 H 148.987 1.4815 -2.74696 0
M  V30 1513 N 149.288 1.51039 0.449983 0
M  V30 1514 C 150.251 1.70863 1.5277 0
M  V30 1515 C 151.251 0.578846 1.5002 0
M  V30 1516 O 152.441 0.846213 1.52266 0
M  V30 1517 C 149.573 1.75341 2.9235 0
M  V30 1518 H 150.766 2.67034 1.36502 0
M  V30 1519 H 148.319 1.40838 0.677812 0
M  V30 1520 H 149.054 0.809383 3.14037 0
M  V30 1521 H 148.839 2.57436 2.95752 0
M  V30 1522 H 150.329 1.92559 3.70555 0
M  V30 1523 N 150.766 -0.704594 1.40972 0
M  V30 1524 C 152.015 -1.46018 1.39146 0
M  V30 1525 C 152.328 -1.956 0.000589254 0
M  V30 1526 O 153.534 -2.71137 -0.1403 0
M  V30 1527 C 151.99 -2.63996 2.4461 0
M  V30 1528 C 151.598 -2.21238 3.89561 0
M  V30 1529 C 153.342 -3.41677 2.51907 0
M  V30 1530 C 151.249 -3.3612 4.86598 0
M  V30 1531 H 150.179 -0.548444 0.517422 0
M  V30 1532 H 152.83 -0.765784 1.66757 0
M  V30 1533 H 151.212 -3.3566 2.10115 0
M  V30 1534 H 152.386 -1.56923 4.33257 0
M  V30 1535 H 150.701 -1.56574 3.85841 0
M  V30 1536 H 153.298 -4.27182 3.2159 0
M  V30 1537 H 153.641 -3.86247 1.55303 0
M  V30 1538 H 154.174 -2.77064 2.85448 0
M  V30 1539 H 150.913 -2.96572 5.84573 0
M  V30 1540 H 150.433 -3.99315 4.47557 0
M  V30 1541 H 152.112 -4.02029 5.06934 0
M  V30 1542 N 152.244 -1.26651 -0.937939 0
M  V30 1543 C 153.174 -1.10993 -2.05433 0
M  V30 1544 C 154.155 -0.0142161 -1.70094 0
M  V30 1545 O 155.34 -0.186837 -1.93299 0
M  V30 1546 C 152.47 -0.745561 -3.39203 0
M  V30 1547 C 151.424 -1.79337 -3.88616 0
M  V30 1548 C 150.75 -1.28324 -5.19073 0
M  V30 1549 C 152.05 -3.19553 -4.13138 0
M  V30 1550 H 153.744 -2.0438 -2.1879 0
M  V30 1551 H 151.29 -0.984041 -1.05131 0
M  V30 1552 H 153.243 -0.622888 -4.16771 0
M  V30 1553 H 151.967 0.22401 -3.25831 0
M  V30 1554 H 150.626 -1.90477 -3.13231 0
M  V30 1555 H 150.274 -0.303414 -5.02084 0
M  V30 1556 H 149.974 -1.98369 -5.53103 0
M  V30 1557 H 151.498 -1.1733 -5.99221 0
M  V30 1558 H 152.912 -3.11471 -4.81309 0
M  V30 1559 H 151.309 -3.87218 -4.58457 0
M  V30 1560 H 152.379 -3.65368 -3.18801 0
M  V30 1561 N 153.722 1.14298 -1.08507 0
M  V30 1562 C 154.968 1.85633 -0.816581 0
M  V30 1563 C 155.301 1.82784 0.656021 0
M  V30 1564 O 154.576 1.25926 1.48233 0
M  V30 1565 C 154.859 3.34223 -1.34041 0
M  V30 1566 C 154.712 3.45639 -2.87843 0
M  V30 1567 C 156.031 4.29356 -0.9665 0
M  V30 1568 H 153.15 0.67402 -0.298104 0
M  V30 1569 H 155.792 1.34214 -1.34487 0
M  V30 1570 H 153.942 3.78144 -0.89104 0
M  V30 1571 H 155.614 3.10498 -3.41158 0
M  V30 1572 H 153.857 2.86817 -3.25451 0
M  V30 1573 H 154.528 4.50089 -3.19569 0
M  V30 1574 H 157.004 3.93457 -1.35391 0
M  V30 1575 H 155.88 5.3178 -1.3602 0
M  V30 1576 H 156.141 4.41919 0.126362 0
M  V30 1577 N 155.201 0.870884 1.31352 0
M  V30 1578 C 156.447 0.482987 1.96965 0
M  V30 1579 C 156.78 -0.962462 1.68672 0
M  V30 1580 O 156.055 -1.6779 0.98371 0
M  V30 1581 C 156.338 0.741752 3.52378 0
M  V30 1582 C 156.191 2.2368 3.9024 0
M  V30 1583 C 157.51 0.208838 4.39604 0
M  V30 1584 H 154.629 0.176955 0.715441 0
M  V30 1585 H 157.271 1.09229 1.55464 0
M  V30 1586 H 155.421 0.223149 3.87859 0
M  V30 1587 H 157.093 2.82273 3.64856 0
M  V30 1588 H 155.336 2.70901 3.38814 0
M  V30 1589 H 156.007 2.3685 4.98604 0
M  V30 1590 H 158.483 0.652529 4.10952 0
M  V30 1591 H 157.359 0.419336 5.47296 0
M  V30 1592 H 157.62 -0.889275 4.33064 0
M  V30 1593 N 156.679 -1.44442 0.630414 0
M  V30 1594 C 157.642 -2.29107 -0.0652523 0
M  V30 1595 C 158.642 -1.41002 -0.772995 0
M  V30 1596 O 159.832 -1.62881 -0.617692 0
M  V30 1597 C 156.964 -3.22564 -1.10296 0
M  V30 1598 H 158.157 -2.92103 0.679401 0
M  V30 1599 H 155.71 -1.51343 0.390517 0
M  V30 1600 H 156.445 -2.64416 -1.87762 0
M  V30 1601 H 156.23 -3.87491 -0.59941 0
M  V30 1602 H 157.72 -3.86167 -1.5895 0
M  V30 1603 N 158.157 -0.370918 -1.53173 0
M  V30 1604 C 159.12 0.460778 -2.24521 0
M  V30 1605 C 160.12 1.00536 -1.25496 0
M  V30 1606 O 161.31 0.890266 -1.49733 0
M  V30 1607 C 158.442 1.64457 -2.98608 0
M  V30 1608 H 159.635 -0.163613 -2.99453 0
M  V30 1609 H 157.188 -0.122699 -1.55818 0
M  V30 1610 H 157.923 2.30691 -2.2793 0
M  V30 1611 H 157.708 1.26099 -3.7127 0
M  V30 1612 H 159.198 2.23384 -3.5283 0
M  V30 1613 N 159.635 1.57281 -0.100228 0
M  V30 1614 C 160.863 1.98879 0.570509 0
M  V30 1615 C 161.278 0.979476 1.61405 0
M  V30 1616 O 160.635 -0.0302288 1.82475 0
M  V30 1617 C 160.686 3.4052 1.2136 0
M  V30 1618 O 160.407 4.37588 0.211786 0
M  V30 1619 C 161.908 3.97149 1.96945 0
M  V30 1620 H 159.128 0.653428 0.152555 0
M  V30 1621 H 161.672 2.03697 -0.18103 0
M  V30 1622 H 159.827 3.367 1.91603 0
M  V30 1623 H 160.241 5.20118 0.676607 0
M  V30 1624 H 161.715 4.98393 2.37294 0
M  V30 1625 H 162.192 3.3525 2.83733 0
M  V30 1626 H 162.798 4.04458 1.31506 0
M  V30 1627 N 161.113 -0.173488 1.56642 0
M  V30 1628 C 162.39 -0.917617 1.7274 0
M  V30 1629 C 162.77 -2.00484 0.661027 0
M  V30 1630 O 162.118 -2.26184 -0.32453 0
M  V30 1631 C 162.328 -1.48433 3.15862 0
M  V30 1632 C 163.676 -1.95809 3.76754 0
M  V30 1633 O 164.7 -1.58231 3.19126 0
M  V30 1634 O 163.559 -2.65024 4.77938 0
M  V30 1635 H 160.653 -0.431772 0.705338 0
M  V30 1636 H 163.199 -0.161487 1.6893 0
M  V30 1637 H 161.971 -0.701715 3.84957 0
M  V30 1638 H 161.594 -2.30471 3.23989 0
M  V30 1639 N 162.591 -1.51276 -0.441967 0
M  V30 1640 C 163.839 -1.63392 -1.18943 0
M  V30 1641 C 164.16 -0.350159 -1.9183 0
M  V30 1642 O 163.43 0.633784 -1.85364 0
M  V30 1643 H 162.01 -0.602164 -0.442049 0
M  V30 1644 H 164.672 -1.88186 -0.507165 0
M  V30 1645 H 163.768 -2.45934 -1.92154 0
M  V30 1646 N 164.069 0.697108 -1.41344 0
M  V30 1647 C 165.48 1.27697 -1.36199 0
M  V30 1648 C 165.831 1.9615 -0.0443463 0
M  V30 1649 O 164.956 1.98689 0.857419 0
M  V30 1650 C 165.551 2.32223 -2.46694 0
M  V30 1651 C 164.11 2.8579 -2.44952 0
M  V30 1652 C 163.257 1.59807 -2.26621 0
M  V30 1653 H 166.208 0.491968 -1.50882 0
M  V30 1654 H 166.229 3.1348 -2.15664 0
M  V30 1655 H 165.741 1.82373 -3.42581 0
M  V30 1656 H 163.842 3.3982 -1.52817 0
M  V30 1657 H 163.955 3.36325 -3.41207 0
M  V30 1658 H 162.319 1.8556 -1.7447 0
M  V30 1659 H 163.102 1.11956 -3.24532 0
M  V30 1660 N 165.547 1.27147 0.931209 0
M  V30 1661 C 166.48 1.0389 2.0318 0
M  V30 1662 C 167.458 -0.0395716 1.62552 0
M  V30 1663 O 168.642 0.104867 1.88208 0
M  V30 1664 C 165.769 0.575227 3.3378 0
M  V30 1665 C 164.815 1.64774 3.93385 0
M  V30 1666 S 165.648 3.23933 4.26413 0
M  V30 1667 C 166.804 2.79358 5.60098 0
M  V30 1668 H 167.037 1.97075 2.22596 0
M  V30 1669 H 164.57 1.10938 1.07387 0
M  V30 1670 H 166.528 0.314385 4.09294 0
M  V30 1671 H 165.189 -0.336505 3.12292 0
M  V30 1672 H 164.382 1.27454 4.87618 0
M  V30 1673 H 163.984 1.86048 3.24441 0
M  V30 1674 H 166.276 2.24443 6.39243 0
M  V30 1675 H 167.219 3.72322 6.02314 0
M  V30 1676 H 167.627 2.1861 5.20452 0
M  V30 1677 N 167.025 -1.13721 1.09112 0
M  V30 1678 C 168.436 -1.6648 0.845068 0
M  V30 1679 C 168.787 -1.85911 -0.62701 0
M  V30 1680 O 167.912 -1.57556 -1.48341 0
M  V30 1681 C 168.507 -3.02413 1.52748 0
M  V30 1682 C 167.066 -3.52176 1.32849 0
M  V30 1683 C 166.213 -2.27492 1.58564 0
M  V30 1684 H 169.164 -0.976872 1.25072 0
M  V30 1685 H 169.185 -3.68223 0.958752 0
M  V30 1686 H 168.697 -2.88238 2.59885 0
M  V30 1687 H 166.798 -3.7156 0.278137 0
M  V30 1688 H 166.911 -4.32499 2.0611 0
M  V30 1689 H 165.275 -2.33923 1.00758 0
M  V30 1690 H 166.058 -2.15886 2.66924 0
M  V30 1691 N 168.503 -0.877838 -1.30888 0
M  V30 1692 C 169.435 -0.296607 -2.27273 0
M  V30 1693 C 170.448 0.544799 -1.53414 0
M  V30 1694 O 171.637 0.365511 -1.74718 0
M  V30 1695 C 168.737 0.597481 -3.33592 0
M  V30 1696 C 167.91 -0.213251 -4.3688 0
M  V30 1697 C 166.969 0.610208 -5.2265 0
M  V30 1698 O 165.995 0.035441 -5.69189 0
M  V30 1699 N 167.197 1.92071 -5.47804 0
M  V30 1700 H 169.962 -1.12492 -2.77787 0
M  V30 1701 H 167.523 -0.740105 -1.43993 0
M  V30 1702 H 169.515 1.15425 -3.87891 0
M  V30 1703 H 168.085 1.32647 -2.83061 0
M  V30 1704 H 167.305 -0.951466 -3.82545 0
M  V30 1705 H 168.593 -0.769262 -5.02951 0
M  V30 1706 H 167.991 2.4107 -5.11763 0
M  V30 1707 H 166.548 2.42508 -6.05007 0
M  V30 1708 N 169.982 1.44106 -0.638065 0
M  V30 1709 C 171.21 2.06336 -0.152615 0
M  V30 1710 C 171.625 1.47731 1.17563 0
M  V30 1711 O 170.982 0.602806 1.72257 0
M  V30 1712 C 171.033 3.61479 -0.0391491 0
M  V30 1713 O 170.754 4.17903 -1.31487 0
M  V30 1714 C 172.255 4.40757 0.474176 0
M  V30 1715 H 169.475 0.665862 -0.0828776 0
M  V30 1716 H 172.019 1.84862 -0.87443 0
M  V30 1717 H 170.174 3.82191 0.633142 0
M  V30 1718 H 170.588 5.11416 -1.16421 0
M  V30 1719 H 172.062 5.49707 0.502562 0
M  V30 1720 H 172.539 4.12697 1.50258 0
M  V30 1721 H 173.145 4.24979 -0.165102 0
M  V30 1722 N 171.46 0.379036 1.52974 0
M  V30 1723 C 172.876 0.0285448 1.59574 0
M  V30 1724 C 173.076 -1.45542 1.39355 0
M  V30 1725 O 172.132 -2.2187 1.20541 0
M  V30 1726 C 173.445 0.496535 2.96572 0
M  V30 1727 C 174.993 0.451909 3.0972 0
M  V30 1728 C 175.468 0.895924 4.49152 0
M  V30 1729 N 176.959 0.851522 4.55306 0
M  V30 1730 C 177.694 1.16661 5.61407 0
M  V30 1731 N 177.19 1.55166 6.752 0
M  V30 1732 N 178.983 1.08853 5.51459 0
M  V30 1733 H 171.134 1.34525 1.64367 0
M  V30 1734 H 173.397 0.550733 0.771619 0
M  V30 1735 H 173.103 1.53258 3.16552 0
M  V30 1736 H 172.977 -0.109802 3.7704 0
M  V30 1737 H 175.364 -0.575029 2.89443 0
M  V30 1738 H 175.445 1.09392 2.3123 0
M  V30 1739 H 175.089 1.92104 4.70168 0
M  V30 1740 H 175.019 0.23103 5.26093 0
M  V30 1741 H 177.51 0.568038 3.73606 0
M  V30 1742 H 177.823 1.776 7.52116 0
M  V30 1743 H 176.168 1.59044 6.76557 0
M  V30 1744 H 179.359 0.786803 4.6144 0
M  V30 1745 H 179.532 1.33742 6.34048 0
M  V30 1746 N 172.938 -1.57226 0.108567 0
M  V30 1747 C 173.848 -2.18292 -0.859401 0
M  V30 1748 C 174.864 -1.15612 -1.30038 0
M  V30 1749 O 176.04 -1.48039 -1.36552 0
M  V30 1750 C 173.105 -2.762 -2.09558 0
M  V30 1751 C 172.166 -3.93881 -1.70752 0
M  V30 1752 C 171.399 -4.49018 -2.88477 0
M  V30 1753 O 171.622 -4.03068 -4.036 0
M  V30 1754 O 170.556 -5.39852 -2.66164 0
M  V30 1755 H 174.382 -3.01441 -0.369769 0
M  V30 1756 H 171.967 -1.48945 -0.1165 0
M  V30 1757 H 173.849 -3.13156 -2.81978 0
M  V30 1758 H 172.524 -1.96089 -2.57548 0
M  V30 1759 H 171.431 -3.61713 -0.954714 0
M  V30 1760 H 172.764 -4.75396 -1.27513 0
M  V30 1761 N 174.416 0.165178 -1.56732 0
M  V30 1762 C 175.366 1.20917 -1.93295 0
M  V30 1763 C 176.35 1.39488 -0.801985 0
M  V30 1764 O 177.542 1.41356 -1.06525 0
M  V30 1765 C 174.671 2.54718 -2.3016 0
M  V30 1766 C 173.757 2.39815 -3.49785 0
M  V30 1767 N 174.148 1.94637 -4.66851 0
M  V30 1768 C 172.446 2.70623 -3.54513 0
M  V30 1769 C 173.147 1.92344 -5.4898 0
M  V30 1770 N 172.123 2.34978 -4.9019 0
M  V30 1771 H 175.925 0.851675 -2.81289 0
M  V30 1772 H 173.439 0.373399 -1.58049 0
M  V30 1773 H 175.436 3.30165 -2.54552 0
M  V30 1774 H 174.096 2.91265 -1.43508 0
M  V30 1775 H 175.107 1.6488 -4.90953 0
M  V30 1776 H 171.784 3.11167 -2.78354 0
M  V30 1777 H 173.174 1.5906 -6.52801 0
M  V30 1778 N 175.894 1.51508 0.433938 0
M  V30 1779 C 177.143 1.63578 1.18005 0
M  V30 1780 C 177.456 0.359514 1.92268 0
M  V30 1781 O 178.662 0.359632 2.69108 0
M  V30 1782 C 177.118 2.88901 2.14626 0
M  V30 1783 C 176.726 4.23544 1.45995 0
M  V30 1784 C 178.47 3.10328 2.89649 0
M  V30 1785 C 176.377 5.40014 2.4112 0
M  V30 1786 H 175.307 0.609277 0.444182 0
M  V30 1787 H 177.958 1.77978 0.446773 0
M  V30 1788 H 176.34 2.68142 2.91403 0
M  V30 1789 H 177.514 4.54696 0.747532 0
M  V30 1790 H 175.829 4.08021 0.831115 0
M  V30 1791 H 178.426 3.94518 3.60915 0
M  V30 1792 H 178.769 2.23544 3.51189 0
M  V30 1793 H 179.302 3.31443 2.19978 0
M  V30 1794 H 176.041 6.29068 1.84264 0
M  V30 1795 H 175.561 5.13233 3.10406 0
M  V30 1796 H 177.24 5.72099 3.02177 0
M  V30 1797 N 177.372 -0.689602 1.41712 0
M  V30 1798 C 178.302 -1.81577 1.46806 0
M  V30 1799 C 179.283 -1.66945 0.326105 0
M  V30 1800 O 180.468 -1.86588 0.538377 0
M  V30 1801 C 177.598 -3.19762 1.35535 0
M  V30 1802 C 176.552 -3.49107 2.47605 0
M  V30 1803 C 175.878 -4.86711 2.21397 0
M  V30 1804 C 177.178 -3.47483 3.89939 0
M  V30 1805 H 178.872 -1.7757 2.41058 0
M  V30 1806 H 176.418 -0.852887 1.16025 0
M  V30 1807 H 178.371 -3.98263 1.3771 0
M  V30 1808 H 177.095 -3.24409 0.377708 0
M  V30 1809 H 175.754 -2.72959 2.44722 0
M  V30 1810 H 175.402 -4.8799 1.21961 0
M  V30 1811 H 175.102 -5.0731 2.96497 0
M  V30 1812 H 176.626 -5.67515 2.25297 0
M  V30 1813 H 178.04 -4.1598 3.94505 0
M  V30 1814 H 176.437 -3.79615 4.64771 0
M  V30 1815 H 177.507 -2.46341 4.17665 0
M  V30 1816 N 178.85 -1.27639 -0.924453 0
M  V30 1817 C 179.78 -1.13166 -2.04244 0
M  V30 1818 C 180.761 -0.032256 -1.70069 0
M  V30 1819 O 181.946 -0.207328 -1.9309 0
M  V30 1820 C 179.076 -0.781496 -3.38393 0
M  V30 1821 C 178.03 -1.83449 -3.86692 0
M  V30 1822 C 177.356 -1.33822 -5.17683 0
M  V30 1823 C 178.656 -3.23917 -4.09726 0
M  V30 1824 H 180.35 -2.06689 -2.1661 0
M  V30 1825 H 177.896 -0.995136 -1.04082 0
M  V30 1826 H 179.849 -0.667057 -4.16087 0
M  V30 1827 H 178.573 0.189439 -3.2605 0
M  V30 1828 H 177.232 -1.93789 -3.11193 0
M  V30 1829 H 176.88 -0.35665 -5.01734 0
M  V30 1830 H 176.58 -2.04224 -5.50968 0
M  V30 1831 H 178.104 -1.23679 -5.97943 0
M  V30 1832 H 179.518 -3.16559 -4.77978 0
M  V30 1833 H 177.915 -3.92059 -4.54324 0
M  V30 1834 H 178.985 -3.68729 -3.14908 0
M  V30 1835 N 180.328 1.1314 -1.09713 0
M  V30 1836 C 181.576 1.84119 -0.833338 0
M  V30 1837 C 181.897 1.84097 0.642904 0
M  V30 1838 O 181.167 1.29881 1.46655 0
M  V30 1839 H 179.747 0.681766 -0.305293 0
M  V30 1840 H 182.409 1.37038 -1.38588 0
M  V30 1841 H 181.505 2.88543 -1.18951 0
M  V30 1842 N 181.806 0.884767 1.30421 0
M  V30 1843 C 183.222 0.57874 1.48737 0
M  V30 1844 C 183.422 -0.883567 1.81095 0
M  V30 1845 O 182.478 -1.6648 1.89844 0
M  V30 1846 C 183.791 1.49171 2.61091 0
M  V30 1847 C 185.339 1.49532 2.74971 0
M  V30 1848 C 185.814 2.39421 3.90438 0
M  V30 1849 N 187.305 2.37383 3.97748 0
M  V30 1850 C 188.04 3.03647 4.86401 0
M  V30 1851 N 187.536 3.79136 5.79852 0
M  V30 1852 N 189.329 2.9288 4.79768 0
M  V30 1853 H 181.48 1.83075 1.0769 0
M  V30 1854 H 183.743 0.783637 0.533495 0
M  V30 1855 H 183.449 2.53291 2.44001 0
M  V30 1856 H 183.323 1.20113 3.57565 0
M  V30 1857 H 185.71 0.46163 2.91467 0
M  V30 1858 H 185.791 1.8262 1.79119 0
M  V30 1859 H 185.435 3.42874 3.74699 0
M  V30 1860 H 185.365 2.03649 4.85628 0
M  V30 1861 H 187.856 1.82525 3.30897 0
M  V30 1862 H 188.169 4.26789 6.4426 0
M  V30 1863 H 186.514 3.83243 5.79784 0
M  V30 1864 H 189.705 2.33433 4.05742 0
M  V30 1865 H 189.878 3.448 5.4865 0
M  V30 1866 N 183.284 -1.43765 0.645699 0
M  V30 1867 C 184.216 -2.29027 -0.0890605 0
M  V30 1868 C 185.229 -1.42093 -0.794563 0
M  V30 1869 O 186.418 -1.66104 -0.653575 0
M  V30 1870 C 183.518 -3.18831 -1.14891 0
M  V30 1871 C 182.691 -4.34261 -0.523043 0
M  V30 1872 C 181.75 -5.04994 -1.47878 0
M  V30 1873 O 180.776 -5.6052 -0.990277 0
M  V30 1874 N 181.978 -5.07795 -2.81291 0
M  V30 1875 H 184.743 -2.92727 0.64272 0
M  V30 1876 H 182.304 -1.54373 0.487924 0
M  V30 1877 H 184.296 -3.63015 -1.78892 0
M  V30 1878 H 182.866 -2.56782 -1.78275 0
M  V30 1879 H 182.086 -3.93088 0.295896 0
M  V30 1880 H 183.374 -5.08728 -0.0858147 0
M  V30 1881 H 182.772 -4.64042 -3.23546 0
M  V30 1882 H 181.329 -5.55721 -3.40614 0
M  V30 1883 N 184.763 -0.387143 -1.52771 0
M  V30 1884 C 186.009 0.196025 -2.0185 0
M  V30 1885 C 186.342 1.46641 -1.27319 0
M  V30 1886 O 185.617 1.90889 -0.373032 0
M  V30 1887 C 185.9 0.466136 -3.5707 0
M  V30 1888 C 185.753 -0.819385 -4.42274 0
M  V30 1889 C 187.072 1.25768 -4.21747 0
M  V30 1890 H 184.191 0.0697708 -0.73369 0
M  V30 1891 H 186.833 -0.516286 -1.82851 0
M  V30 1892 H 184.983 1.07293 -3.7339 0
M  V30 1893 H 186.655 -1.4563 -4.37709 0
M  V30 1894 H 184.898 -1.43517 -4.09372 0
M  V30 1895 H 185.569 -0.585065 -5.48891 0
M  V30 1896 H 188.045 0.744167 -4.09391 0
M  V30 1897 H 186.921 1.41541 -5.30337 0
M  V30 1898 H 187.182 2.27228 -3.79236 0
M  V30 1899 N 186.241 1.57166 -0.116904 0
M  V30 1900 C 187.489 1.94737 0.540533 0
M  V30 1901 C 187.81 1.00096 1.67349 0
M  V30 1902 O 187.08 0.0568854 1.95817 0
M  V30 1903 H 185.66 0.718981 0.202669 0
M  V30 1904 H 188.322 1.94017 -0.185353 0
M  V30 1905 H 187.418 2.97719 0.936483 0
M  V30 1906 N 187.719 -0.156864 1.56817 0
M  V30 1907 C 188.965 -0.872416 1.83076 0
M  V30 1908 C 189.298 -1.81261 0.697001 0
M  V30 1909 O 188.573 -1.92171 -0.30008 0
M  V30 1910 C 188.856 -1.65551 3.19789 0
M  V30 1911 C 188.709 -0.737467 4.43713 0
M  V30 1912 C 190.028 -2.62012 3.53606 0
M  V30 1913 H 187.147 -0.315715 0.665953 0
M  V30 1914 H 189.789 -0.138004 1.89498 0
M  V30 1915 H 187.939 -2.28159 3.14445 0
M  V30 1916 H 189.611 -0.123143 4.61136 0
M  V30 1917 H 187.854 -0.0464067 4.33775 0
M  V30 1918 H 188.525 -1.32122 5.35955 0
M  V30 1919 H 191.001 -2.09525 3.59497 0
M  V30 1920 H 189.877 -3.13861 4.50314 0
M  V30 1921 H 190.138 -3.42902 2.79053 0
M  V30 1922 N 189.197 -1.51736 -0.425897 0
M  V30 1923 C 190.608 -1.5732 -1.00536 0
M  V30 1924 C 190.959 -0.403537 -1.92005 0
M  V30 1925 O 190.084 0.478256 -2.11049 0
M  V30 1926 C 190.679 -2.85119 -1.8301 0
M  V30 1927 C 189.238 -2.93236 -2.35987 0
M  V30 1928 C 188.385 -2.52098 -1.15508 0
M  V30 1929 H 191.336 -1.57348 -0.206739 0
M  V30 1930 H 191.357 -2.69526 -2.68581 0
M  V30 1931 H 190.869 -3.7023 -1.16411 0
M  V30 1932 H 188.97 -2.12581 -3.06007 0
M  V30 1933 H 189.083 -3.9713 -2.68001 0
M  V30 1934 H 187.447 -2.05558 -1.50393 0
M  V30 1935 H 188.23 -3.39565 -0.505014 0
M  V30 1936 N 190.675 0.682077 -1.42076 0
M  V30 1937 C 191.905 1.46844 -1.45329 0
M  V30 1938 C 192.313 1.89102 -0.0609328 0
M  V30 1939 O 191.656 1.58238 0.933082 0
M  V30 1940 C 191.718 2.75375 -2.31104 0
M  V30 1941 C 191.382 2.55238 -3.79081 0
M  V30 1942 C 192.379 2.20309 -4.70914 0
M  V30 1943 C 190.064 2.70459 -4.2327 0
M  V30 1944 C 192.058 2.00859 -6.04925 0
M  V30 1945 C 189.745 2.50624 -5.57343 0
M  V30 1946 C 190.743 2.15876 -6.47986 0
M  V30 1947 O 190.431 1.96227 -7.79583 0
M  V30 1948 H 190.163 0.4586 -0.496651 0
M  V30 1949 H 192.717 0.846131 -1.87162 0
M  V30 1950 H 190.947 3.40061 -1.84107 0
M  V30 1951 H 192.636 3.37231 -2.25898 0
M  V30 1952 H 193.402 2.08153 -4.38061 0
M  V30 1953 H 189.281 2.96485 -3.53012 0
M  V30 1954 H 192.825 1.7366 -6.75639 0
M  V30 1955 H 188.722 2.62375 -5.89771 0
M  V30 1956 H 189.49 2.10883 -7.90867 0
M  V30 1957 N 192.153 1.28127 0.917671 0
M  V30 1958 C 193.402 1.14432 1.66097 0
M  V30 1959 C 193.715 -0.307247 1.93172 0
M  V30 1960 O 194.921 -0.565259 2.65551 0
M  V30 1961 C 193.377 2.00015 2.99202 0
M  V30 1962 C 192.985 3.49889 2.79789 0
M  V30 1963 C 194.729 1.94996 3.77064 0
M  V30 1964 C 192.636 4.27636 4.08511 0
M  V30 1965 H 191.566 0.424662 0.62304 0
M  V30 1966 H 194.217 1.52628 1.01868 0
M  V30 1967 H 192.599 1.54672 3.64544 0
M  V30 1968 H 193.773 4.03162 2.23152 0
M  V30 1969 H 192.088 3.56392 2.15345 0
M  V30 1970 H 194.685 2.50354 4.72469 0
M  V30 1971 H 195.028 0.925819 4.05875 0
M  V30 1972 H 195.561 2.38287 3.18534 0
M  V30 1973 H 192.3 5.30615 3.84874 0
M  V30 1974 H 191.82 3.79137 4.64774 0
M  V30 1975 H 193.499 4.37346 4.76799 0
M  V30 1976 N 193.631 -1.12557 1.10312 0
M  V30 1977 C 194.88 -1.83395 0.839588 0
M  V30 1978 C 195.193 -1.84939 -0.636929 0
M  V30 1979 O 196.399 -2.51761 -1.01631 0
M  V30 1980 C 194.855 -3.29303 1.45215 0
M  V30 1981 C 194.463 -3.36122 2.96186 0
M  V30 1982 C 196.207 -4.05121 1.26796 0
M  V30 1983 C 194.114 -4.76357 3.50483 0
M  V30 1984 H 193.044 -0.687133 0.310425 0
M  V30 1985 H 195.695 -1.26746 1.32694 0
M  V30 1986 H 194.077 -3.85812 0.892469 0
M  V30 1987 H 195.251 -2.89559 3.58458 0
M  V30 1988 H 193.566 -2.73776 3.13745 0
M  V30 1989 H 196.163 -5.08668 1.64806 0
M  V30 1990 H 196.506 -4.15773 0.209409 0
M  V30 1991 H 197.039 -3.54967 1.79563 0
M  V30 1992 H 193.778 -4.70899 4.55998 0
M  V30 1993 H 193.298 -5.23377 2.92978 0
M  V30 1994 H 194.977 -5.45294 3.48228 0
M  V30 1995 N 195.109 -0.891671 -1.2995 0
M  V30 1996 C 196.355 -0.514261 -1.96171 0
M  V30 1997 C 196.688 0.935506 -1.70182 0
M  V30 1998 O 195.963 1.66204 -1.01028 0
M  V30 1999 C 196.246 -0.797719 -3.51153 0
M  V30 2000 C 196.099 -2.2986 -3.86632 0
M  V30 2001 C 197.418 -0.278749 -4.39216 0
M  V30 2002 H 194.537 -0.188314 -0.712535 0
M  V30 2003 H 197.179 -1.11689 -1.53706 0
M  V30 2004 H 195.329 -0.284826 -3.87455 0
M  V30 2005 H 197.001 -2.88042 -3.60319 0
M  V30 2006 H 195.244 -2.76257 -3.34462 0
M  V30 2007 H 195.915 -2.44753 -4.94773 0
M  V30 2008 H 198.391 -0.717825 -4.09862 0
M  V30 2009 H 197.267 -0.506353 -5.46559 0
M  V30 2010 H 197.528 0.820266 -4.34424 0
M  V30 2011 N 196.587 1.43421 -0.653314 0
M  V30 2012 C 197.834 2.01812 -0.166745 0
M  V30 2013 C 198.162 1.51535 1.21931 0
M  V30 2014 O 197.417 0.698975 1.82792 0
M  V30 2015 C 197.716 3.57176 -0.126623 0
M  V30 2016 C 197.382 4.26798 -1.45444 0
M  V30 2017 C 196.044 4.45534 -1.81805 0
M  V30 2018 C 198.396 4.66225 -2.32989 0
M  V30 2019 C 195.724 5.00961 -3.05377 0
M  V30 2020 C 198.076 5.23021 -3.55853 0
M  V30 2021 C 196.74 5.39973 -3.9241 0
M  V30 2022 H 196.01 0.738484 -0.0610162 0
M  V30 2023 H 198.657 1.71896 -0.84404 0
M  V30 2024 H 196.962 3.86634 0.634123 0
M  V30 2025 H 198.659 4.00112 0.266723 0
M  V30 2026 H 195.249 4.12561 -1.16153 0
M  V30 2027 H 199.433 4.51443 -2.06187 0
M  V30 2028 H 194.689 5.12271 -3.3375 0
M  V30 2029 H 198.863 5.52518 -4.23907 0
M  V30 2030 H 196.49 5.82687 -4.88242 0
M  V30 2031 N 198.065 0.39524 1.52563 0
M  V30 2032 C 198.995 -0.428384 2.29537 0
M  V30 2033 C 199.976 -1.05831 1.33169 0
M  V30 2034 O 201.161 -1.06995 1.62067 0
M  V30 2035 C 198.291 -1.55274 3.10656 0
M  V30 2036 C 197.245 -1.04855 4.14957 0
M  V30 2037 C 196.571 -2.26543 4.84337 0
M  V30 2038 C 197.871 -0.112324 5.22179 0
M  V30 2039 H 199.565 0.213867 2.98635 0
M  V30 2040 H 197.111 0.104298 1.43622 0
M  V30 2041 H 199.064 -2.1358 3.63265 0
M  V30 2042 H 197.788 -2.22266 2.39302 0
M  V30 2043 H 196.447 -0.487985 3.63338 0
M  V30 2044 H 196.095 -2.92059 4.09525 0
M  V30 2045 H 195.795 -1.93466 5.54837 0
M  V30 2046 H 197.319 -2.85481 5.39753 0
M  V30 2047 H 198.733 -0.603752 5.70112 0
M  V30 2048 H 197.13 0.128968 5.99961 0
M  V30 2049 H 198.2 0.837052 4.77621 0
M  V30 2050 N 199.544 -1.57102 0.125237 0
M  V30 2051 C 200.492 -2.16905 -0.839927 0
M  V30 2052 C 201.486 -1.11998 -1.27094 0
M  V30 2053 O 202.692 -1.3029 -1.24195 0
M  V30 2054 H 199.067 -0.694252 -0.288995 0
M  V30 2055 H 201.038 -2.96774 -0.311115 0
M  V30 2056 C 199.787 -2.78795 -2.07771 0
M  V30 2057 H 199.11 -3.59221 -1.755 0
M  V30 2058 H 200.55 -3.2417 -2.73295 0
M  V30 2059 C 199.009 -1.76193 -2.87155 0
M  V30 2060 O 199.539 -1.21909 -3.82755 0
M  V30 2061 N 197.745 -1.45991 -2.51267 0
M  V30 2062 H 197.292 -1.90325 -1.73592 0
M  V30 2063 H 197.25 -0.775844 -3.04677 0
M  V30 2064 N 201.022 0.148545 -1.56898 0
M  V30 2065 C 201.969 1.18345 -1.98149 0
M  V30 2066 C 202.939 1.42772 -0.848848 0
M  V30 2067 O 204.124 1.55132 -1.11079 0
M  V30 2068 C 201.264 2.51231 -2.36594 0
M  V30 2069 C 200.377 2.33991 -3.63142 0
M  V30 2070 C 199.512 3.59902 -3.90697 0
M  V30 2071 C 198.551 3.37692 -5.1052 0
M  V30 2072 N 197.688 4.5573 -5.34092 0
M  V30 2073 H 202.528 0.82467 -2.86362 0
M  V30 2074 H 200.065 0.395756 -1.41676 0
M  V30 2075 H 202.023 3.28713 -2.56912 0
M  V30 2076 H 200.653 2.85059 -1.51463 0
M  V30 2077 H 199.705 1.47572 -3.50609 0
M  V30 2078 H 201.017 2.13539 -4.5078 0
M  V30 2079 H 200.171 4.45813 -4.11505 0
M  V30 2080 H 198.91 3.83357 -3.01477 0
M  V30 2081 H 197.915 2.5017 -4.89587 0
M  V30 2082 H 199.14 3.15637 -6.0129 0
M  V30 2083 H 197.086 4.79361 -4.47827 0
M  V30 2084 H 197.003 4.38274 -6.15996 0
M  V30 2085 H 198.271 5.42858 -5.59397 0
M  V30 2086 N 202.5 1.5196 0.417844 0
M  V30 2087 C 203.74 1.67262 1.17486 0
M  V30 2088 C 204.104 0.38983 1.88001 0
M  V30 2089 O 205.305 0.418845 2.65517 0
M  V30 2090 C 203.576 2.85526 2.14965 0
M  V30 2091 S 205.135 3.21263 2.98891 0
M  V30 2092 H 201.953 0.589077 0.398132 0
M  V30 2093 H 204.555 1.89927 0.463452 0
M  V30 2094 H 203.259 3.77145 1.61833 0
M  V30 2095 H 202.79 2.65107 2.90657 0
M  V30 2096 H 204.805 2.69208 4.16823 0
M  V30 2097 N 203.978 -0.674533 1.42435 0
M  V30 2098 C 205.255 -1.4305 1.33402 0
M  V30 2099 C 205.635 -2.11081 -0.0284674 0
M  V30 2100 O 204.983 -2.03257 -1.04397 0
M  V30 2101 C 205.193 -2.43272 2.50239 0
M  V30 2102 C 206.541 -3.07907 2.92367 0
M  V30 2103 O 207.565 -2.53599 2.50132 0
M  V30 2104 O 206.424 -4.0632 3.65467 0
M  V30 2105 H 203.518 -0.638076 0.526106 0
M  V30 2106 H 206.064 -0.703235 1.54443 0
M  V30 2107 H 204.836 -1.91803 3.41068 0
M  V30 2108 H 204.459 -3.23479 2.31186 0
M  V30 2109 N 205.456 -1.28612 -0.910864 0
M  V30 2110 C 206.389 -1.07109 -2.01502 0
M  V30 2111 C 207.367 0.013706 -1.62594 0
M  V30 2112 O 208.551 -0.134796 -1.88017 0
M  V30 2113 C 205.678 -0.628255 -3.32822 0
M  V30 2114 C 204.724 -1.71012 -3.90714 0
M  V30 2115 S 205.557 -3.30676 -4.21205 0
M  V30 2116 C 206.713 -2.88234 -5.55583 0
M  V30 2117 H 206.946 -2.00591 -2.19432 0
M  V30 2118 H 204.479 -1.12633 -1.05609 0
M  V30 2119 H 206.437 -0.37946 -4.08742 0
M  V30 2120 H 205.098 0.28678 -3.12788 0
M  V30 2121 H 204.291 -1.35195 -4.85529 0
M  V30 2122 H 203.893 -1.91186 -3.21441 0
M  V30 2123 H 206.185 -2.34584 -6.35591 0
M  V30 2124 H 207.128 -3.81857 -5.96314 0
M  V30 2125 H 207.536 -2.26862 -5.16908 0
M  V30 2126 N 206.934 1.1197 -1.10907 0
M  V30 2127 C 208.18 1.8386 -0.855773 0
M  V30 2128 C 208.513 1.84134 0.617103 0
M  V30 2129 O 207.788 1.29041 1.45529 0
M  V30 2130 C 208.071 3.31305 -1.411 0
M  V30 2131 C 207.924 3.39456 -2.9511 0
M  V30 2132 C 209.243 4.2721 -1.05736 0
M  V30 2133 H 206.362 0.667545 -0.312334 0
M  V30 2134 H 209.004 1.31331 -1.37303 0
M  V30 2135 H 207.154 3.76169 -0.97105 0
M  V30 2136 H 208.826 3.03191 -3.47668 0
M  V30 2137 H 207.069 2.79849 -3.31462 0
M  V30 2138 H 207.74 4.43209 -3.29044 0
M  V30 2139 H 210.216 3.90497 -1.43706 0
M  V30 2140 H 209.092 5.28775 -1.47269 0
M  V30 2141 H 209.353 4.42088 0.0325958 0
M  V30 2142 N 208.412 0.89855 1.29475 0
M  V30 2143 C 209.689 0.443416 1.90508 0
M  V30 2144 C 210.069 -1.07685 1.81569 0
M  V30 2145 O 209.417 -1.9182 1.24166 0
M  V30 2146 C 209.627 0.956708 3.35631 0
M  V30 2147 C 210.975 0.999728 4.12663 0
M  V30 2148 O 211.999 0.904299 3.4453 0
M  V30 2149 O 210.858 1.14289 5.34416 0
M  V30 2150 H 207.952 0.138025 0.815401 0
M  V30 2151 H 210.498 0.98834 1.37949 0
M  V30 2152 H 209.27 2.00067 3.36287 0
M  V30 2153 H 208.893 0.391728 3.95666 0
M  V30 2154 N 209.89 -1.43072 0.660911 0
M  V30 2155 C 211.167 -1.95307 0.107017 0
M  V30 2156 C 211.547 -1.60192 -1.37484 0
M  V30 2157 O 210.895 -0.890949 -2.10415 0
M  V30 2158 C 211.105 -3.47124 0.361402 0
M  V30 2159 C 212.453 -4.23738 0.270455 0
M  V30 2160 O 213.477 -3.54981 0.294382 0
M  V30 2161 O 212.336 -5.46131 0.200737 0
M  V30 2162 H 209.43 -0.826984 -0.00517729 0
M  V30 2163 H 211.976 -1.52972 0.734681 0
M  V30 2164 H 210.748 -3.65837 1.38848 0
M  V30 2165 H 210.371 -3.96475 -0.298953 0
M  V30 2166 N 211.368 -0.403325 -1.52352 0
M  V30 2167 C 212.278 0.432009 -2.30588 0
M  V30 2168 C 213.294 1.05884 -1.38075 0
M  V30 2169 O 214.47 1.06161 -1.71148 0
M  V30 2170 C 211.535 1.53669 -3.10784 0
M  V30 2171 C 210.596 0.933525 -4.19027 0
M  V30 2172 C 209.829 1.98557 -4.9539 0
M  V30 2173 O 210.052 3.20283 -4.71991 0
M  V30 2174 O 208.986 1.59504 -5.80381 0
M  V30 2175 H 212.812 -0.205739 -3.03002 0
M  V30 2176 H 210.397 -0.166675 -1.48467 0
M  V30 2177 H 212.279 2.17814 -3.60742 0
M  V30 2178 H 210.954 2.15915 -2.41169 0
M  V30 2179 H 209.861 0.254954 -3.7323 0
M  V30 2180 H 211.194 0.35508 -4.90918 0
M  V30 2181 N 212.846 1.57033 -0.133567 0
M  V30 2182 C 213.756 2.19632 0.824564 0
M  V30 2183 C 214.772 1.17666 1.28182 0
M  V30 2184 O 215.948 1.50193 1.3418 0
M  V30 2185 C 213.013 2.79499 2.05137 0
M  V30 2186 C 212.074 3.96548 1.64464 0
M  V30 2187 C 211.307 4.5355 2.81297 0
M  V30 2188 O 211.53 4.09438 3.97136 0
M  V30 2189 O 210.464 5.44018 2.57542 0
M  V30 2190 H 214.29 3.01991 0.321766 0
M  V30 2191 H 211.875 1.49112 0.0927889 0
M  V30 2192 H 213.757 3.17602 2.7696 0
M  V30 2193 H 212.432 2.00162 2.54395 0
M  V30 2194 H 211.339 3.63186 0.897048 0
M  V30 2195 H 212.672 4.77364 1.19934 0
M  V30 2196 N 214.325 -0.140222 1.56975 0
M  V30 2197 C 215.255 -1.17456 2.01808 0
M  V30 2198 C 216.236 -1.44415 0.898794 0
M  V30 2199 O 217.421 -1.5522 1.16707 0
M  V30 2200 C 214.551 -2.50607 2.40444 0
M  V30 2201 C 213.505 -2.38155 3.55621 0
M  V30 2202 C 212.831 -3.76078 3.80091 0
M  V30 2203 C 214.131 -1.85991 4.88062 0
M  V30 2204 H 215.825 -0.801743 2.88466 0
M  V30 2205 H 213.371 -0.38422 1.38779 0
M  V30 2206 H 215.324 -3.23197 2.7041 0
M  V30 2207 H 214.048 -2.89737 1.50732 0
M  V30 2208 H 212.707 -1.68016 3.25832 0
M  V30 2209 H 212.355 -4.12656 2.87618 0
M  V30 2210 H 212.055 -3.68606 4.57606 0
M  V30 2211 H 213.579 -4.50206 4.12488 0
M  V30 2212 H 214.993 -2.4838 5.16701 0
M  V30 2213 H 213.39 -1.89393 5.6943 0
M  V30 2214 H 214.46 -0.816023 4.77984 0
M  V30 2215 N 215.803 -1.52179 -0.40978 0
M  V30 2216 C 216.733 -1.78435 -1.5061 0
M  V30 2217 C 217.714 -0.635295 -1.57791 0
M  V30 2218 O 218.899 -0.880823 -1.73076 0
M  V30 2219 C 216.029 -1.93444 -2.88439 0
M  V30 2220 C 214.983 -3.09038 -2.96108 0
M  V30 2221 C 214.309 -3.09268 -4.36185 0
M  V30 2222 C 215.609 -4.48508 -2.67652 0
M  V30 2223 H 217.303 -2.70237 -1.28889 0
M  V30 2224 H 214.849 -1.30036 -0.618605 0
M  V30 2225 H 216.802 -2.10394 -3.65119 0
M  V30 2226 H 215.526 -0.983129 -3.11452 0
M  V30 2227 H 214.185 -2.91837 -2.21872 0
M  V30 2228 H 213.833 -2.11861 -4.56206 0
M  V30 2229 H 213.533 -3.86907 -4.42241 0
M  V30 2230 H 215.057 -3.28348 -5.14801 0
M  V30 2231 H 216.471 -4.65918 -3.34056 0
M  V30 2232 H 214.868 -5.28059 -2.85085 0
M  V30 2233 H 215.938 -4.56649 -1.63095 0
M  V30 2234 N 217.281 0.66697 -1.42791 0
M  V30 2235 C 218.191 1.80962 -1.49299 0
M  V30 2236 C 219.207 1.69775 -0.381108 0
M  V30 2237 O 220.383 1.91188 -0.633188 0
M  V30 2238 C 217.448 3.17156 -1.40045 0
M  V30 2239 C 216.509 3.40242 -2.6179 0
M  V30 2240 C 215.742 4.69939 -2.52969 0
M  V30 2241 O 215.965 5.48372 -1.56985 0
M  V30 2242 O 214.899 4.94441 -3.43237 0
M  V30 2243 H 218.725 1.78427 -2.45759 0
M  V30 2244 H 216.31 0.823713 -1.24641 0
M  V30 2245 H 218.192 3.98413 -1.37276 0
M  V30 2246 H 216.867 3.20312 -0.467138 0
M  V30 2247 H 215.774 2.58802 -2.70134 0
M  V30 2248 H 217.107 3.41923 -3.54047 0
M  V30 2249 N 218.759 1.29093 0.90403 0
M  V30 2250 C 219.689 1.16401 2.02418 0
M  V30 2251 C 220.67 0.0593085 1.69997 0
M  V30 2252 O 221.855 0.238021 1.92736 0
M  V30 2253 C 218.985 0.835233 3.37107 0
M  V30 2254 C 217.939 1.89578 3.83724 0
M  V30 2255 C 217.265 1.42041 5.15489 0
M  V30 2256 C 218.565 3.30394 4.04521 0
M  V30 2257 H 220.259 2.10109 2.13295 0
M  V30 2258 H 217.805 1.01157 1.02486 0
M  V30 2259 H 219.758 0.733169 4.14973 0
M  V30 2260 H 218.482 -0.137543 3.2631 0
M  V30 2261 H 217.141 1.98715 3.08071 0
M  V30 2262 H 216.789 0.436426 5.01103 0
M  V30 2263 H 216.489 2.12964 5.4765 0
M  V30 2264 H 218.013 1.33176 5.959 0
M  V30 2265 H 219.427 3.24123 4.72882 0
M  V30 2266 H 217.824 3.99237 4.48029 0
M  V30 2267 H 218.894 3.73692 3.09002 0
M  V30 2268 N 220.237 -1.11381 1.11499 0
M  V30 2269 C 221.483 -1.83403 0.865512 0
M  V30 2270 C 221.816 -1.84459 -0.607329 0
M  V30 2271 O 221.091 -1.29811 -1.44842 0
M  V30 2272 C 221.374 -3.30552 1.42855 0
M  V30 2273 C 221.227 -3.37886 2.96906 0
M  V30 2274 C 222.546 -4.26643 1.08 0
M  V30 2275 H 219.665 -0.665879 0.31587 0
M  V30 2276 H 222.307 -1.30601 1.37998 0
M  V30 2277 H 220.457 -3.75648 0.990985 0
M  V30 2278 H 222.129 -3.01343 3.49271 0
M  V30 2279 H 220.372 -2.78088 3.32941 0
M  V30 2280 H 221.043 -4.41458 3.31389 0
M  V30 2281 H 223.519 -3.89729 1.45775 0
M  V30 2282 H 222.395 -5.27986 1.50072 0
M  V30 2283 H 222.656 -4.42099 -0.00915037 0
M  V30 2284 N 221.715 -0.905404 -1.28997 0
M  V30 2285 C 222.625 -0.392246 -2.31298 0
M  V30 2286 C 223.641 0.515889 -1.66176 0
M  V30 2287 O 224.817 0.404093 -1.97304 0
M  V30 2288 C 221.882 0.36686 -3.44754 0
M  V30 2289 C 220.943 -0.573485 -4.25452 0
M  V30 2290 C 220.176 0.149488 -5.33491 0
M  V30 2291 O 220.399 1.37255 -5.5364 0
M  V30 2292 O 219.333 -0.510919 -5.99728 0
M  V30 2293 H 223.159 -1.2411 -2.77183 0
M  V30 2294 H 220.744 -0.669926 -1.33538 0
M  V30 2295 H 222.626 0.795907 -4.13816 0
M  V30 2296 H 221.301 1.19169 -3.00966 0
M  V30 2297 H 220.208 -1.05176 -3.59011 0
M  V30 2298 H 221.541 -1.36489 -4.72897 0
M  V30 2299 N 223.193 1.4272 -0.668489 0
M  V30 2300 C 224.126 2.28111 0.0637898 0
M  V30 2301 C 225.104 1.40705 0.814912 0
M  V30 2302 O 226.288 1.70146 0.81134 0
M  V30 2303 C 223.415 3.20429 1.0974 0
M  V30 2304 C 222.461 4.24197 0.442579 0
M  V30 2305 S 223.294 5.29563 -0.795173 0
M  V30 2306 C 224.45 6.25449 0.237516 0
M  V30 2307 H 224.683 2.8987 -0.660521 0
M  V30 2308 H 222.216 1.47456 -0.457821 0
M  V30 2309 H 224.174 3.74158 1.68868 0
M  V30 2310 H 222.835 2.57818 1.79411 0
M  V30 2311 H 222.028 4.88954 1.22227 0
M  V30 2312 H 221.63 3.73925 -0.0749554 0
M  V30 2313 H 223.922 6.68524 1.09915 0
M  V30 2314 H 224.865 7.07104 -0.375421 0
M  V30 2315 H 225.273 5.61511 0.580167 0
M  V30 2316 N 224.671 0.411399 1.52136 0
M  V30 2317 C 225.581 -0.419774 2.30814 0
M  V30 2318 C 226.597 -1.0515 1.38634 0
M  V30 2319 O 227.773 -1.05252 1.71709 0
M  V30 2320 C 224.838 -1.52019 3.11594 0
M  V30 2321 C 223.899 -0.91129 4.19516 0
M  V30 2322 C 223.132 -1.95927 4.96436 0
M  V30 2323 O 223.355 -3.17775 4.73683 0
M  V30 2324 O 222.289 -1.56423 5.81219 0
M  V30 2325 H 226.115 0.221805 3.02889 0
M  V30 2326 H 223.7 0.174547 1.48377 0
M  V30 2327 H 225.582 -2.15898 3.61892 0
M  V30 2328 H 224.257 -2.14633 2.42311 0
M  V30 2329 H 223.164 -0.235157 3.7336 0
M  V30 2330 H 224.497 -0.32904 4.91099 0
M  V30 2331 N 226.149 -1.5696 0.141893 0
M  V30 2332 C 227.395 -1.9625 -0.511248 0
M  V30 2333 C 227.728 -1.02654 -1.64851 0
M  V30 2334 O 227.003 -0.0679676 -1.94381 0
M  V30 2335 C 227.286 -3.45285 -1.02227 0
M  V30 2336 C 227.139 -4.49658 0.113138 0
M  V30 2337 C 228.458 -3.96698 -1.90574 0
M  V30 2338 H 225.577 -0.713567 -0.184367 0
M  V30 2339 H 228.219 -1.88698 0.222087 0
M  V30 2340 H 226.369 -3.51852 -1.64719 0
M  V30 2341 H 228.041 -4.55174 0.749302 0
M  V30 2342 H 226.284 -4.26857 0.773026 0
M  V30 2343 H 226.955 -5.51258 -0.286053 0
M  V30 2344 H 229.431 -3.92578 -1.37918 0
M  V30 2345 H 228.307 -5.01453 -2.2324 0
M  V30 2346 H 228.568 -3.3875 -2.84079 0
M  V30 2347 N 227.627 0.131896 -1.57047 0
M  V30 2348 C 229.043 0.485031 -1.52051 0
M  V30 2349 C 229.243 1.82563 -0.85281 0
M  V30 2350 O 228.299 2.48817 -0.429694 0
M  V30 2351 C 229.612 0.481409 -2.96821 0
M  V30 2352 C 231.16 0.565868 -3.07842 0
M  V30 2353 C 231.635 0.592762 -4.54148 0
M  V30 2354 N 233.126 0.654564 -4.58552 0
M  V30 2355 C 233.861 0.696608 -5.69153 0
M  V30 2356 N 233.357 0.697078 -6.89284 0
M  V30 2357 N 235.15 0.738639 -5.57226 0
M  V30 2358 H 227.301 -0.746664 -1.98843 0
M  V30 2359 H 229.564 -0.273999 -0.90754 0
M  V30 2360 H 229.27 -0.435731 -3.4899 0
M  V30 2361 H 229.144 1.3139 -3.53577 0
M  V30 2362 H 231.531 1.47343 -2.55684 0
M  V30 2363 H 231.612 -0.29406 -2.54104 0
M  V30 2364 H 231.256 -0.310701 -5.06949 0
M  V30 2365 H 231.186 1.46939 -5.05684 0
M  V30 2366 H 233.677 0.660887 -3.72076 0
M  V30 2367 H 233.99 0.731426 -7.69331 0
M  V30 2368 H 232.335 0.66471 -6.91814 0
M  V30 2369 H 235.526 0.735545 -4.62285 0
M  V30 2370 H 235.699 0.767938 -6.43434 0
M  V30 2371 N 229.106 1.52395 0.401703 0
M  V30 2372 C 230.016 1.7917 1.51444 0
M  V30 2373 C 231.032 0.677691 1.6026 0
M  V30 2374 O 232.208 0.963909 1.76835 0
M  V30 2375 C 229.273 1.94347 2.87107 0
M  V30 2376 C 228.334 3.18257 2.88116 0
M  V30 2377 C 227.567 3.32701 4.17308 0
M  V30 2378 O 227.79 2.52238 5.11598 0
M  V30 2379 O 226.724 4.25891 4.25324 0
M  V30 2380 H 230.55 2.73633 1.31752 0
M  V30 2381 H 228.135 1.3733 0.588296 0
M  V30 2382 H 230.017 2.06109 3.67555 0
M  V30 2383 H 228.692 1.03073 3.06851 0
M  V30 2384 H 227.599 3.11947 2.06494 0
M  V30 2385 H 228.932 4.09336 2.73322 0
M  V30 2386 N 230.584 -0.659388 1.43143 0
M  V30 2387 C 231.514 -1.78422 1.50625 0
M  V30 2388 C 232.495 -1.66216 0.361443 0
M  V30 2389 O 233.68 -1.85404 0.577834 0
M  V30 2390 C 230.81 -3.16815 1.42287 0
M  V30 2391 C 229.764 -3.43777 2.54954 0
M  V30 2392 C 229.09 -4.81905 2.31671 0
M  V30 2393 C 230.39 -3.39134 3.97222 0
M  V30 2394 H 232.084 -1.72417 2.44771 0
M  V30 2395 H 229.63 -0.828084 1.17808 0
M  V30 2396 H 231.583 -3.95253 1.46127 0
M  V30 2397 H 230.307 -3.23534 0.446435 0
M  V30 2398 H 228.966 -2.67707 2.50457 0
M  V30 2399 H 228.614 -4.85294 1.32284 0
M  V30 2400 H 228.314 -5.00906 3.07192 0
M  V30 2401 H 229.838 -5.62609 2.37284 0
M  V30 2402 H 231.252 -4.07518 4.03239 0
M  V30 2403 H 229.649 -3.69671 4.72719 0
M  V30 2404 H 230.719 -2.37426 4.22797 0
M  V30 2405 N 232.062 -1.29571 -0.897171 0
M  V30 2406 C 232.992 -1.17473 -2.01798 0
M  V30 2407 C 233.973 -0.068323 -1.69963 0
M  V30 2408 O 235.158 -0.248239 -1.92607 0
M  V30 2409 C 232.288 -0.853099 -3.36659 0
M  V30 2410 C 231.242 -1.9161 -3.82713 0
M  V30 2411 C 230.568 -1.44773 -5.14728 0
M  V30 2412 C 231.868 -3.32535 -4.02763 0
M  V30 2413 H 233.562 -2.11237 -2.12177 0
M  V30 2414 H 231.108 -1.01699 -1.01948 0
M  V30 2415 H 233.061 -0.755165 -4.14578 0
M  V30 2416 H 231.785 0.120236 -3.26379 0
M  V30 2417 H 230.444 -2.00346 -3.07013 0
M  V30 2418 H 230.092 -0.462995 -5.00865 0
M  V30 2419 H 229.792 -2.15865 -5.46513 0
M  V30 2420 H 231.316 -1.36334 -5.95185 0
M  V30 2421 H 232.73 -3.26626 -4.71156 0
M  V30 2422 H 231.127 -4.01607 -4.45905 0
M  V30 2423 H 232.197 -3.75326 -3.07016 0
M  V30 2424 N 233.54 1.10788 -1.12088 0
M  V30 2425 C 234.765 1.87002 -0.896949 0
M  V30 2426 C 235.19 1.79933 0.548261 0
M  V30 2427 O 234.548 1.16662 1.38779 0
M  V30 2428 C 234.596 3.3349 -1.37174 0
M  V30 2429 O 233.7 4.08745 -0.547831 0
M  V30 2430 H 233.041 0.580397 -0.322545 0
M  V30 2431 H 235.571 1.39996 -1.49206 0
M  V30 2432 H 235.581 3.84339 -1.36922 0
M  V30 2433 H 234.256 3.37951 -2.42408 0
M  V30 2434 H 232.833 3.6776 -0.617034 0
M  V30 2435 N 235.018 0.912232 1.28515 0
M  V30 2436 C 235.95 0.35676 2.26406 0
M  V30 2437 C 236.963 -0.503933 1.54804 0
M  V30 2438 O 238.152 -0.319059 1.75625 0
M  V30 2439 C 235.252 -0.508825 3.35058 0
M  V30 2440 C 234.425 0.329007 4.36161 0
M  V30 2441 C 233.484 -0.471422 5.24084 0
M  V30 2442 O 232.51 0.115482 5.69083 0
M  V30 2443 N 233.712 -1.77479 5.52704 0
M  V30 2444 H 236.477 1.19818 2.74707 0
M  V30 2445 H 234.038 0.778022 1.4198 0
M  V30 2446 H 236.03 -1.051 3.90815 0
M  V30 2447 H 234.6 -1.25095 2.86478 0
M  V30 2448 H 233.82 1.05256 3.79888 0
M  V30 2449 H 235.108 0.90234 5.00735 0
M  V30 2450 H 234.506 -2.27417 5.17975 0
M  V30 2451 H 233.063 -2.26382 6.11224 0
M  V30 2452 N 236.496 -1.42363 0.676048 0
M  V30 2453 C 237.726 -2.05561 0.206967 0
M  V30 2454 C 238.134 -1.50887 -1.14148 0
M  V30 2455 O 237.477 -0.643933 -1.72044 0
M  V30 2456 C 237.539 -3.5944 0.0659508 0
M  V30 2457 C 237.203 -4.36812 1.34331 0
M  V30 2458 C 238.2 -4.67383 2.27704 0
M  V30 2459 C 235.885 -4.76429 1.59125 0
M  V30 2460 C 237.879 -5.36509 3.44147 0
M  V30 2461 C 235.566 -5.45294 2.75857 0
M  V30 2462 C 236.564 -5.75259 3.68193 0
M  V30 2463 O 236.252 -6.42712 4.82883 0
M  V30 2464 H 235.984 -0.668872 0.0979084 0
M  V30 2465 H 238.538 -1.83467 0.923531 0
M  V30 2466 H 236.768 -3.80197 -0.706204 0
M  V30 2467 H 238.457 -4.0427 -0.363418 0
M  V30 2468 H 239.223 -4.37275 2.09799 0
M  V30 2469 H 235.102 -4.52498 0.881258 0
M  V30 2470 H 238.646 -5.59814 4.16238 0
M  V30 2471 H 234.543 -5.7482 2.93688 0
M  V30 2472 H 235.311 -6.61204 4.82444 0
M  V30 2473 N 237.974 -0.419461 -1.51915 0
M  V30 2474 C 239.251 0.211999 -1.94448 0
M  V30 2475 C 239.631 1.61703 -1.35703 0
M  V30 2476 O 238.979 2.22102 -0.536931 0
M  V30 2477 C 239.189 0.207872 -3.4838 0
M  V30 2478 C 240.537 0.422192 -4.22496 0
M  V30 2479 O 241.561 0.286778 -3.55044 0
M  V30 2480 O 240.42 0.690009 -5.42126 0
M  V30 2481 H 237.514 0.139586 -0.815135 0
M  V30 2482 H 240.06 -0.476151 -1.62883 0
M  V30 2483 H 238.832 -0.775102 -3.83546 0
M  V30 2484 H 238.455 0.939688 -3.86336 0
M  V30 2485 N 239.452 1.56882 -0.150215 0
M  V30 2486 C 240.699 1.96228 0.500093 0
M  V30 2487 C 241.027 1.03522 1.64661 0
M  V30 2488 O 240.282 0.0650683 1.95592 0
M  V30 2489 C 240.581 3.41801 1.04437 0
M  V30 2490 C 240.247 4.50897 0.0159671 0
M  V30 2491 C 238.909 4.8046 -0.266731 0
M  V30 2492 C 241.261 5.16703 -0.683192 0
M  V30 2493 C 238.589 5.73135 -1.25434 0
M  V30 2494 C 240.941 6.10441 -1.65964 0
M  V30 2495 C 239.605 6.38382 -1.95 0
M  V30 2496 H 238.875 0.718048 0.182997 0
M  V30 2497 H 241.522 1.90019 -0.237724 0
M  V30 2498 H 239.827 3.44857 1.85959 0
M  V30 2499 H 241.524 3.69573 1.55618 0
M  V30 2500 H 238.114 4.27891 0.246485 0
M  V30 2501 H 242.298 4.93993 -0.477983 0
M  V30 2502 H 237.554 5.93074 -1.48571 0
M  V30 2503 H 241.728 6.60507 -2.20689 0
M  V30 2504 H 239.355 7.09996 -2.71679 0
M  V30 2505 N 240.93 -0.123565 1.57115 0
M  V30 2506 C 242.341 -0.681198 1.73829 0
M  V30 2507 C 242.692 -1.80535 0.768214 0
M  V30 2508 O 241.817 -2.16317 -0.0599103 0
M  V30 2509 C 242.412 -1.24246 3.15196 0
M  V30 2510 C 240.971 -1.74643 3.33432 0
M  V30 2511 C 240.118 -0.644284 2.69711 0
M  V30 2512 H 243.069 0.102315 1.5837 0
M  V30 2513 H 243.09 -2.11216 3.16493 0
M  V30 2514 H 242.602 -0.424062 3.85776 0
M  V30 2515 H 240.703 -2.58974 2.67886 0
M  V30 2516 H 240.816 -1.85902 4.41562 0
M  V30 2517 H 239.18 -1.07676 2.3082 0
M  V30 2518 H 239.963 0.163058 3.42913 0
M  V30 2519 N 242.408 -1.52605 -0.393616 0
M  V30 2520 C 243.656 -1.67093 -1.13685 0
M  V30 2521 C 243.977 -0.411011 -1.90619 0
M  V30 2522 O 243.247 0.574491 -1.87287 0
M  V30 2523 H 241.827 -0.615923 -0.422668 0
M  V30 2524 H 244.489 -1.89704 -0.447039 0
M  V30 2525 H 243.585 -2.51922 -1.84232 0
M  V30 2526 N 243.887 0.651787 -1.4349 0
M  V30 2527 C 245.164 1.40909 -1.35661 0
M  V30 2528 C 245.544 2.11099 -0.00511733 0
M  V30 2529 O 244.892 2.04892 1.0115 0
M  V30 2530 C 245.102 2.3926 -2.54078 0
M  V30 2531 C 246.45 3.03217 -2.97228 0
M  V30 2532 O 247.474 2.49588 -2.54135 0
M  V30 2533 O 246.333 4.00455 -3.71885 0
M  V30 2534 H 243.427 0.629625 -0.536191 0
M  V30 2535 H 245.973 0.678575 -1.55542 0
M  V30 2536 H 244.745 1.86352 -3.44076 0
M  V30 2537 H 244.368 3.1976 -2.36303 0
M  V30 2538 N 245.365 1.30045 0.890287 0
M  V30 2539 C 246.642 1.09227 1.62262 0
M  V30 2540 C 247.022 -0.360305 2.08002 0
M  V30 2541 O 246.37 -1.35084 1.84295 0
M  V30 2542 C 246.58 2.08835 2.79623 0
M  V30 2543 C 247.928 2.40266 3.50082 0
M  V30 2544 O 248.952 2.07104 2.89804 0
M  V30 2545 O 247.811 2.96967 4.58773 0
M  V30 2546 H 244.905 0.419132 0.712922 0
M  V30 2547 H 247.451 1.41451 0.937529 0
M  V30 2548 H 246.223 3.06633 2.43089 0
M  V30 2549 H 245.846 1.77397 3.55832 0
M  V30 2550 N 246.843 -1.10192 1.12674 0
M  V30 2551 C 248.071 -1.85983 0.906527 0
M  V30 2552 C 248.486 -1.80783 -0.544333 0
M  V30 2553 O 247.843 -1.19834 -1.37645 0
M  V30 2554 C 247.894 -3.34281 1.37618 0
M  V30 2555 O 247.615 -3.39401 2.77017 0
M  V30 2556 C 249.116 -4.26938 1.19325 0
M  V30 2557 H 246.336 -0.587716 0.323775 0
M  V30 2558 H 248.88 -1.39284 1.49734 0
M  V30 2559 H 247.035 -3.78436 0.828539 0
M  V30 2560 H 247.449 -4.31838 2.97684 0
M  V30 2561 H 248.923 -5.29181 1.57071 0
M  V30 2562 H 249.4 -4.38995 0.134097 0
M  V30 2563 H 250.006 -3.8859 1.72852 0
M  V30 2564 N 248.321 -0.919034 -1.28029 0
M  V30 2565 C 249.732 -0.600735 -1.76771 0
M  V30 2566 C 250.083 0.884024 -1.75156 0
M  V30 2567 O 249.208 1.69163 -1.34956 0
M  V30 2568 C 249.803 -1.08372 -3.21 0
M  V30 2569 C 248.362 -0.816248 -3.67443 0
M  V30 2570 C 247.509 -1.24742 -2.47658 0
M  V30 2571 H 250.46 -1.09974 -1.14418 0
M  V30 2572 H 250.481 -0.427512 -3.78091 0
M  V30 2573 H 249.993 -2.16437 -3.22144 0
M  V30 2574 H 248.094 0.250968 -3.71754 0
M  V30 2575 H 248.207 -1.4277 -4.57333 0
M  V30 2576 H 246.571 -0.666083 -2.45836 0
M  V30 2577 H 247.354 -2.33653 -2.51518 0
M  V30 2578 N 249.799 1.42003 -0.683588 0
M  V30 2579 C 251.048 2.00638 -0.206681 0
M  V30 2580 C 251.361 1.5472 1.19671 0
M  V30 2581 O 252.567 2.05833 1.77045 0
M  V30 2582 C 251.023 3.58487 -0.318632 0
M  V30 2583 C 250.631 4.1339 -1.72663 0
M  V30 2584 C 252.375 4.24384 0.0991141 0
M  V30 2585 C 250.282 5.63633 -1.79087 0
M  V30 2586 H 249.212 0.750408 -0.0735107 0
M  V30 2587 H 251.863 1.62624 -0.850048 0
M  V30 2588 H 250.245 3.94047 0.392781 0
M  V30 2589 H 251.419 3.89273 -2.46583 0
M  V30 2590 H 249.734 3.59976 -2.09299 0
M  V30 2591 H 252.331 5.34652 0.0713833 0
M  V30 2592 H 252.674 4.00505 1.13586 0
M  V30 2593 H 253.207 3.93816 -0.561599 0
M  V30 2594 H 249.946 5.92323 -2.80774 0
M  V30 2595 H 249.466 5.89714 -1.09535 0
M  V30 2596 H 251.145 6.28201 -1.5483 0
M  V30 2597 N 251.277 0.427512 1.51691 0
M  V30 2598 C 252.523 -0.142439 2.02299 0
M  V30 2599 C 252.856 -1.43214 1.31162 0
M  V30 2600 O 252.131 -1.89833 0.423511 0
M  V30 2601 C 252.414 -0.371301 3.58181 0
M  V30 2602 C 252.267 0.936358 4.39946 0
M  V30 2603 C 253.586 -1.14542 4.24933 0
M  V30 2604 H 250.705 -0.0502937 0.735282 0
M  V30 2605 H 253.347 0.564584 1.81418 0
M  V30 2606 H 251.497 -0.973559 3.76104 0
M  V30 2607 H 253.169 1.57184 4.33694 0
M  V30 2608 H 251.412 1.5432 4.05423 0
M  V30 2609 H 252.083 0.730388 5.47147 0
M  V30 2610 H 254.559 -0.635362 4.11221 0
M  V30 2611 H 253.435 -1.27431 5.33903 0
M  V30 2612 H 253.696 -2.17093 3.85127 0
M  V30 2613 N 252.755 -1.56801 0.158532 0
M  V30 2614 C 254.171 -1.5837 -0.197774 0
M  V30 2615 C 254.371 -1.17334 -1.63814 0
M  V30 2616 O 253.427 -0.878988 -2.36707 0
M  V30 2617 C 254.74 -3.00615 0.0714459 0
M  V30 2618 C 256.288 -3.12999 0.00864533 0
M  V30 2619 C 256.763 -4.57313 0.250685 0
M  V30 2620 N 258.254 -4.62777 0.198014 0
M  V30 2621 C 258.989 -5.72271 0.359642 0
M  V30 2622 N 258.485 -6.90371 0.579625 0
M  V30 2623 N 260.278 -5.61318 0.296438 0
M  V30 2624 H 252.429 -1.81765 1.09887 0
M  V30 2625 H 254.692 -0.841849 0.435884 0
M  V30 2626 H 254.398 -3.35068 1.06874 0
M  V30 2627 H 254.272 -3.71683 -0.642757 0
M  V30 2628 H 256.659 -2.7838 -0.979217 0
M  V30 2629 H 256.74 -2.44393 0.755359 0
M  V30 2630 H 256.384 -4.92639 1.2357 0
M  V30 2631 H 256.314 -5.24061 -0.516489 0
M  V30 2632 H 258.805 -3.77885 0.0331115 0
M  V30 2633 H 259.118 -7.69689 0.69275 0
M  V30 2634 H 257.463 -6.92264 0.616087 0
M  V30 2635 H 260.654 -4.67932 0.125258 0
M  V30 2636 H 260.827 -6.46599 0.425831 0
M  V30 2637 N 254.233 0.115231 -1.57178 0
M  V30 2638 C 255.481 0.820727 -1.84685 0
M  V30 2639 C 255.802 1.80237 -0.744279 0
M  V30 2640 O 255.072 1.94529 0.231375 0
M  V30 2641 H 253.652 0.306084 -0.681411 0
M  V30 2642 H 256.314 0.101656 -1.94635 0
M  V30 2643 H 255.41 1.36366 -2.80733 0
M  V30 2644 N 255.711 1.52812 0.385517 0
M  V30 2645 C 256.936 1.72207 1.15583 0
M  V30 2646 C 257.361 0.441034 1.82857 0
M  V30 2647 O 256.719 -0.603465 1.70962 0
M  V30 2648 C 256.767 2.87476 2.17692 0
M  V30 2649 O 255.871 2.54693 3.24354 0
M  V30 2650 H 255.212 0.572526 0.336319 0
M  V30 2651 H 257.742 1.99618 0.448744 0
M  V30 2652 H 257.752 3.13072 2.6163 0
M  V30 2653 H 256.427 3.80408 1.68115 0
M  V30 2654 H 255.004 2.3985 2.85529 0
M  V30 2655 N 257.189 -0.644168 1.43834 0
M  V30 2656 C 258.152 -1.73857 1.49353 0
M  V30 2657 C 259.152 -1.56315 0.377112 0
M  V30 2658 O 260.342 -1.62048 0.639226 0
M  V30 2659 C 257.474 -3.12819 1.35488 0
M  V30 2660 H 258.667 -1.70342 2.46827 0
M  V30 2661 H 256.22 -0.856652 1.30733 0
M  V30 2662 H 256.955 -3.2194 0.390569 0
M  V30 2663 H 256.74 -3.26958 2.16428 0
M  V30 2664 H 258.23 -3.92606 1.42302 0
M  V30 2665 N 258.668 -1.30515 -0.883378 0
M  V30 2666 C 259.598 -1.19607 -2.00541 0
M  V30 2667 C 260.579 -0.086346 -1.69881 0
M  V30 2668 O 261.764 -0.268654 -1.92333 0
M  V30 2669 C 258.894 -0.888758 -3.35736 0
M  V30 2670 C 257.848 -1.95659 -3.8066 0
M  V30 2671 C 257.174 -1.50224 -5.13164 0
M  V30 2672 C 258.474 -3.36788 -3.99213 0
M  V30 2673 H 260.168 -2.13476 -2.09925 0
M  V30 2674 H 257.714 -1.02775 -1.00863 0
M  V30 2675 H 259.667 -0.799094 -4.13754 0
M  V30 2676 H 258.391 0.0856125 -3.26488 0
M  V30 2677 H 257.05 -2.03591 -3.04871 0
M  V30 2678 H 256.698 -0.516092 -5.00345 0
M  V30 2679 H 256.398 -2.2165 -5.44192 0
M  V30 2680 H 257.922 -1.42639 -5.93706 0
M  V30 2681 H 259.336 -3.31605 -4.67665 0
M  V30 2682 H 257.733 -4.06314 -4.41621 0
M  V30 2683 H 258.803 -3.78561 -3.03017 0
M  V30 2684 N 260.146 1.09593 -1.13257 0
M  V30 2685 C 261.093 2.1618 -0.808381 0
M  V30 2686 C 262.063 1.64517 0.228754 0
M  V30 2687 O 263.248 1.9053 0.101381 0
M  V30 2688 C 260.388 3.43973 -0.278675 0
M  V30 2689 C 259.501 4.09545 -1.37466 0
M  V30 2690 C 258.636 5.25088 -0.803479 0
M  V30 2691 C 257.675 5.82579 -1.87799 0
M  V30 2692 N 256.812 6.89486 -1.32488 0
M  V30 2693 H 261.652 2.43254 -1.72138 0
M  V30 2694 H 259.189 1.19392 -0.859294 0
M  V30 2695 H 261.147 4.17174 0.0465583 0
M  V30 2696 H 259.777 3.17223 0.597459 0
M  V30 2697 H 258.829 3.34226 -1.81652 0
M  V30 2698 H 260.141 4.48307 -2.18684 0
M  V30 2699 H 259.295 6.05178 -0.429427 0
M  V30 2700 H 258.034 4.87684 0.0397956 0
M  V30 2701 H 257.039 5.01152 -2.26113 0
M  V30 2702 H 258.264 6.22045 -2.72463 0
M  V30 2703 H 256.21 6.54064 -0.503575 0
M  V30 2704 H 256.127 7.27007 -2.07355 0
M  V30 2705 H 257.395 7.73336 -0.978336 0
M  V30 2706 N 261.624 0.925811 1.2754 0
M  V30 2707 C 262.587 0.428129 2.25166 0
M  V30 2708 C 263.587 -0.452261 1.54309 0
M  V30 2709 O 264.777 -0.253608 1.72344 0
M  V30 2710 C 261.909 -0.384749 3.38722 0
M  V30 2711 H 263.102 1.29066 2.70706 0
M  V30 2712 H 260.655 0.706323 1.3943 0
M  V30 2713 H 261.39 -1.26618 2.98561 0
M  V30 2714 H 261.175 0.246454 3.91325 0
M  V30 2715 H 262.665 -0.723389 4.11287 0
M  V30 2716 N 263.102 -1.41638 0.69111 0
M  V30 2717 C 264.032 -2.3347 0.037248 0
M  V30 2718 C 265.013 -1.51575 -0.771947 0
M  V30 2719 O 266.198 -1.80126 -0.72582 0
M  V30 2720 C 263.328 -3.35354 -0.903064 0
M  V30 2721 C 262.282 -4.27526 -0.201288 0
M  V30 2722 C 261.608 -5.19747 -1.25565 0
M  V30 2723 C 262.908 -5.13959 0.929689 0
M  V30 2724 H 264.602 -2.88397 0.804227 0
M  V30 2725 H 262.148 -1.38669 0.388189 0
M  V30 2726 H 264.101 -3.98519 -1.36969 0
M  V30 2727 H 262.825 -2.78767 -1.70166 0
M  V30 2728 H 261.484 -3.65779 0.245265 0
M  V30 2729 H 261.132 -4.59479 -2.04666 0
M  V30 2730 H 260.832 -5.8225 -0.791128 0
M  V30 2731 H 262.356 -5.85789 -1.72288 0
M  V30 2732 H 263.77 -5.70718 0.543546 0
M  V30 2733 H 262.167 -5.85379 1.32103 0
M  V30 2734 H 263.237 -4.51389 1.77133 0
M  V30 2735 N 264.58 -0.43555 -1.51462 0
M  V30 2736 C 265.49 0.383001 -2.31453 0
M  V30 2737 C 266.506 1.02931 -1.4029 0
M  V30 2738 O 267.682 1.02507 -1.73362 0
M  V30 2739 C 264.747 1.47043 -3.13973 0
M  V30 2740 C 263.808 0.844433 -4.20913 0
M  V30 2741 C 263.041 1.88004 -4.9949 0
M  V30 2742 O 263.264 3.10199 -4.78678 0
M  V30 2743 O 262.198 1.47157 -5.83634 0
M  V30 2744 H 266.024 -0.269964 -3.02498 0
M  V30 2745 H 263.609 -0.19813 -1.4808 0
M  V30 2746 H 265.491 2.10113 -3.65281 0
M  V30 2747 H 264.166 2.10751 -2.45695 0
M  V30 2748 H 263.073 0.175729 -3.73687 0
M  V30 2749 H 264.406 0.250869 -4.9156 0
M  V30 2750 N 266.058 1.56714 -0.166846 0
M  V30 2751 C 267.306 1.96358 0.478305 0
M  V30 2752 C 267.627 1.0537 1.6408 0
M  V30 2753 O 266.897 0.119154 1.95537 0
M  V30 2754 H 265.477 0.725065 0.179692 0
M  V30 2755 H 268.139 1.93329 -0.246985 0
M  V30 2756 H 267.235 3.00547 0.841292 0
M  V30 2757 N 267.536 -0.106894 1.57237 0
M  V30 2758 C 268.813 -0.843526 1.76477 0
M  V30 2759 C 269.193 -1.97499 0.745464 0
M  V30 2760 O 268.541 -2.27357 -0.228306 0
M  V30 2761 C 268.751 -1.34903 3.21873 0
M  V30 2762 C 270.099 -1.79654 3.8472 0
M  V30 2763 O 271.123 -1.44554 3.2555 0
M  V30 2764 O 269.982 -2.44515 4.88748 0
M  V30 2765 H 267.076 -0.401468 0.723016 0
M  V30 2766 H 269.622 -0.0896927 1.69463 0
M  V30 2767 H 268.394 -0.53781 3.87586 0
M  V30 2768 H 268.017 -2.16522 3.33473 0
M  V30 2769 N 269.014 -1.53014 -0.377408 0
M  V30 2770 C 269.977 -1.77957 -1.44444 0
M  V30 2771 C 270.977 -0.649763 -1.47087 0
M  V30 2772 O 272.167 -0.917897 -1.48055 0
M  V30 2773 C 269.299 -1.89089 -2.83651 0
M  V30 2774 H 270.492 -2.73243 -1.23606 0
M  V30 2775 H 268.045 -1.43912 -0.609844 0
M  V30 2776 H 268.78 -0.958293 -3.09818 0
M  V30 2777 H 268.565 -2.71254 -2.83132 0
M  V30 2778 H 270.055 -2.1002 -3.60945 0
M  V30 2779 N 270.492 0.636531 -1.44174 0
M  V30 2780 C 271.402 1.77754 -1.53103 0
M  V30 2781 C 272.418 1.68928 -0.417034 0
M  V30 2782 O 273.594 1.89801 -0.6736 0
M  V30 2783 C 270.659 3.14115 -1.46741 0
M  V30 2784 C 269.72 3.34612 -2.68948 0
M  V30 2785 C 268.953 4.64467 -2.6288 0
M  V30 2786 O 269.176 5.44919 -1.68581 0
M  V30 2787 O 268.11 4.87049 -3.53648 0
M  V30 2788 H 271.936 1.73174 -2.49489 0
M  V30 2789 H 269.521 0.79709 -1.2636 0
M  V30 2790 H 271.403 3.95412 -1.45696 0
M  V30 2791 H 270.078 3.19249 -0.534975 0
M  V30 2792 H 268.985 2.53014 -2.75562 0
M  V30 2793 H 270.318 3.34336 -3.61221 0
M  V30 2794 N 271.97 1.30982 0.876444 0
M  V30 2795 C 273.216 1.21484 1.63136 0
M  V30 2796 C 273.571 -0.226339 1.91064 0
M  V30 2797 O 272.864 -1.15788 1.52656 0
M  V30 2798 C 273.058 1.98572 2.9716 0
M  V30 2799 C 272.887 3.50039 2.82317 0
M  V30 2800 C 271.657 4.19393 2.81847 0
M  V30 2801 C 273.855 4.45111 2.57644 0
M  V30 2802 N 271.837 5.57061 2.57985 0
M  V30 2803 C 273.208 5.70402 2.42986 0
M  V30 2804 C 275.263 4.3461 2.42937 0
M  V30 2805 C 273.966 6.8638 2.15115 0
M  V30 2806 C 275.992 5.50365 2.16454 0
M  V30 2807 C 275.354 6.74642 2.02578 0
M  V30 2808 H 271.453 0.499632 0.601575 0
M  V30 2809 H 274.037 1.65094 1.03209 0
M  V30 2810 H 272.208 1.5734 3.55104 0
M  V30 2811 H 273.94 1.81146 3.61895 0
M  V30 2812 H 270.695 3.71303 2.93991 0
M  V30 2813 H 271.119 6.29529 2.49043 0
M  V30 2814 H 275.761 3.39199 2.52396 0
M  V30 2815 H 273.479 7.81824 2.04394 0
M  V30 2816 H 277.065 5.44154 2.05884 0
M  V30 2817 H 275.945 7.62699 1.82374 0
M  V30 2818 N 273.449 -1.08991 1.13837 0
M  V30 2819 C 274.359 -2.19301 0.833333 0
M  V30 2820 C 275.375 -1.73026 -0.183847 0
M  V30 2821 O 276.551 -2.01395 -0.0138092 0
M  V30 2822 C 273.616 -3.45323 0.308651 0
M  V30 2823 C 272.677 -4.06255 1.38764 0
M  V30 2824 C 271.91 -5.26262 0.887896 0
M  V30 2825 O 272.133 -5.69747 -0.27287 0
M  V30 2826 O 271.067 -5.78435 1.66421 0
M  V30 2827 H 274.893 -2.47854 1.75506 0
M  V30 2828 H 272.478 -1.18012 0.916166 0
M  V30 2829 H 274.36 -4.21394 0.0216739 0
M  V30 2830 H 273.035 -3.18362 -0.585431 0
M  V30 2831 H 271.942 -3.318 1.72799 0
M  V30 2832 H 273.275 -4.37452 2.25602 0
M  V30 2833 N 274.927 -0.932562 -1.27047 0
M  V30 2834 C 275.89 -0.440064 -2.24936 0
M  V30 2835 C 276.89 0.444071 -1.54547 0
M  V30 2836 O 278.08 0.244465 -1.72476 0
M  V30 2837 C 275.212 0.36678 -3.38921 0
M  V30 2838 H 276.405 -1.305 -2.70018 0
M  V30 2839 H 273.958 -0.713707 -1.39054 0
M  V30 2840 H 274.693 1.25033 -2.99228 0
M  V30 2841 H 274.478 -0.267204 -3.91188 0
M  V30 2842 H 275.968 0.701567 -4.11665 0
M  V30 2843 N 276.405 1.4127 -0.698611 0
M  V30 2844 C 277.352 2.30773 -0.0352094 0
M  V30 2845 C 278.322 1.47273 0.768111 0
M  V30 2846 O 279.507 1.76053 0.735524 0
M  V30 2847 C 276.647 3.33346 0.893 0
M  V30 2848 C 275.76 4.31924 0.0809695 0
M  V30 2849 C 274.895 5.21566 1.0071 0
M  V30 2850 C 273.934 6.11811 0.188155 0
M  V30 2851 N 273.071 6.93926 1.06825 0
M  V30 2852 H 277.911 2.86943 -0.804207 0
M  V30 2853 H 275.448 1.4132 -0.408294 0
M  V30 2854 H 277.406 3.91368 1.44523 0
M  V30 2855 H 276.036 2.78719 1.62836 0
M  V30 2856 H 275.088 3.75825 -0.588224 0
M  V30 2857 H 276.4 4.95716 -0.553801 0
M  V30 2858 H 275.554 5.84437 1.62845 0
M  V30 2859 H 274.293 4.58008 1.67572 0
M  V30 2860 H 273.298 5.47986 -0.446254 0
M  V30 2861 H 274.523 6.77425 -0.476716 0
M  V30 2862 H 272.469 6.32973 1.72283 0
M  V30 2863 H 272.386 7.54416 0.489123 0
M  V30 2864 H 273.654 7.61262 1.67632 0
M  V30 2865 N 277.883 0.443576 1.51229 0
M  V30 2866 C 279.132 -0.122332 2.01329 0
M  V30 2867 C 279.445 -1.43237 1.33201 0
M  V30 2868 O 280.651 -2.0816 1.74304 0
M  V30 2869 C 279.107 -0.268551 3.58897 0
M  V30 2870 C 278.715 1.03142 4.35965 0
M  V30 2871 C 280.459 -0.787894 4.17124 0
M  V30 2872 C 278.366 0.850504 5.85252 0
M  V30 2873 H 277.296 -0.0494929 0.752374 0
M  V30 2874 H 279.947 0.574289 1.74282 0
M  V30 2875 H 278.329 -1.02832 3.82415 0
M  V30 2876 H 279.503 1.80001 4.24189 0
M  V30 2877 H 277.818 1.47977 3.89219 0
M  V30 2878 H 280.415 -0.939841 5.26375 0
M  V30 2879 H 280.758 -1.77201 3.76703 0
M  V30 2880 H 281.291 -0.0862669 3.97706 0
M  V30 2881 H 278.03 1.80718 6.30096 0
M  V30 2882 H 277.55 0.121825 5.99676 0
M  V30 2883 H 279.229 0.506163 6.45017 0
M  V30 2884 N 279.361 -1.56624 0.175154 0
M  V30 2885 C 280.291 -2.21155 -0.749195 0
M  V30 2886 C 281.272 -1.16836 -1.23626 0
M  V30 2887 O 282.457 -1.45277 -1.28873 0
M  V30 2888 C 279.587 -2.8553 -1.97711 0
M  V30 2889 C 278.541 -3.95921 -1.62575 0
M  V30 2890 C 277.867 -4.47365 -2.92864 0
M  V30 2891 C 279.167 -5.15323 -0.850838 0
M  V30 2892 H 280.861 -2.98653 -0.211295 0
M  V30 2893 H 278.407 -1.43651 -0.100188 0
M  V30 2894 H 280.36 -3.2935 -2.62881 0
M  V30 2895 H 279.084 -2.05406 -2.53921 0
M  V30 2896 H 277.743 -3.52762 -0.997719 0
M  V30 2897 H 277.391 -3.64027 -3.47122 0
M  V30 2898 H 277.091 -5.21839 -2.70106 0
M  V30 2899 H 278.615 -4.93873 -3.59056 0
M  V30 2900 H 280.029 -5.55812 -1.40521 0
M  V30 2901 H 278.426 -5.95739 -0.722154 0
M  V30 2902 H 279.496 -4.84661 0.152082 0
M  V30 2903 N 280.839 0.0985539 -1.57292 0
M  V30 2904 C 281.749 1.13824 -2.05137 0
M  V30 2905 C 282.765 1.44076 -0.975604 0
M  V30 2906 O 283.941 1.54786 -1.28853 0
M  V30 2907 C 281.006 2.43969 -2.46333 0
M  V30 2908 C 280.067 2.2093 -3.68087 0
M  V30 2909 C 279.3 3.44869 -4.0731 0
M  V30 2910 O 279.523 4.52972 -3.46659 0
M  V30 2911 O 278.457 3.34661 -5.00285 0
M  V30 2912 H 282.283 0.761881 -2.93988 0
M  V30 2913 H 279.868 0.310818 -1.46131 0
M  V30 2914 H 281.75 3.20609 -2.73473 0
M  V30 2915 H 280.425 2.81038 -1.60621 0
M  V30 2916 H 279.332 1.42081 -3.46069 0
M  V30 2917 H 280.665 1.88755 -4.54568 0
M  V30 2918 N 282.317 1.53212 0.369288 0
M  V30 2919 C 283.247 1.82365 1.45826 0
M  V30 2920 C 284.228 0.676907 1.56051 0
M  V30 2921 O 285.413 0.926401 1.70679 0
M  V30 2922 C 282.543 2.01023 2.83208 0
M  V30 2923 C 281.497 3.1678 2.8781 0
M  V30 2924 C 280.823 3.20724 4.27832 0
M  V30 2925 C 282.123 4.55447 2.55667 0
M  V30 2926 H 283.817 2.73559 1.21678 0
M  V30 2927 H 281.363 1.3163 0.583911 0
M  V30 2928 H 283.316 2.20001 3.59413 0
M  V30 2929 H 282.04 1.06536 3.08736 0
M  V30 2930 H 280.699 2.97616 2.14056 0
M  V30 2931 H 280.347 2.23882 4.50429 0
M  V30 2932 H 280.047 3.98496 4.31827 0
M  V30 2933 H 281.571 3.41881 5.05915 0
M  V30 2934 H 282.985 4.74611 3.21586 0
M  V30 2935 H 281.382 5.35432 2.70984 0
M  V30 2936 H 282.452 4.60812 1.5093 0
M  V30 2937 N 283.795 -0.628877 1.44509 0
M  V30 2938 C 284.758 -1.72263 1.51188 0
M  V30 2939 C 285.758 -1.55907 0.39367 0
M  V30 2940 O 286.948 -1.61361 0.656377 0
M  V30 2941 C 284.08 -3.11365 1.38798 0
M  V30 2942 H 285.273 -1.67714 2.4862 0
M  V30 2943 H 282.826 -0.842737 1.31634 0
M  V30 2944 H 283.561 -3.21507 0.424693 0
M  V30 2945 H 283.346 -3.24644 2.19884 0
M  V30 2946 H 284.836 -3.91075 1.46458 0
M  V30 2947 N 285.273 -1.31445 -0.869486 0
M  V30 2948 C 286.521 -1.20918 -1.61936 0
M  V30 2949 C 286.842 0.232683 -1.93607 0
M  V30 2950 O 286.112 1.15352 -1.58338 0
M  V30 2951 H 284.692 -0.44454 -0.600328 0
M  V30 2952 H 287.354 -1.64776 -1.0409 0
M  V30 2953 H 286.45 -1.78124 -2.56278 0
M  V30 2954 N 286.751 1.08385 -1.14413 0
M  V30 2955 C 287.998 1.80776 -0.912482 0
M  V30 2956 C 288.326 1.86236 0.560934 0
M  V30 2957 O 287.581 1.33431 1.43159 0
M  V30 2958 C 287.88 3.26273 -1.45879 0
M  V30 2959 C 287.546 3.4093 -2.95089 0
M  V30 2960 C 286.208 3.44638 -3.35824 0
M  V30 2961 C 288.56 3.44591 -3.91033 0
M  V30 2962 C 285.888 3.49597 -4.71167 0
M  V30 2963 C 288.24 3.51086 -5.26233 0
M  V30 2964 C 286.904 3.53067 -5.6648 0
M  V30 2965 H 286.174 0.661507 -0.333901 0
M  V30 2966 H 288.821 1.27613 -1.42784 0
M  V30 2967 H 287.126 3.82146 -0.864376 0
M  V30 2968 H 288.823 3.80839 -1.2555 0
M  V30 2969 H 285.413 3.38736 -2.62594 0
M  V30 2970 H 289.597 3.40957 -3.60641 0
M  V30 2971 H 284.853 3.49424 -5.0171 0
M  V30 2972 H 289.027 3.52864 -6.00383 0
M  V30 2973 H 286.654 3.56662 -6.71339 0
M  V30 2974 N 288.23 0.939286 1.26551 0
M  V30 2975 C 289.16 0.465044 2.28822 0
M  V30 2976 C 290.141 -0.480692 1.63167 0
M  V30 2977 O 291.326 -0.382955 1.90387 0
M  V30 2978 C 288.456 -0.27234 3.46231 0
M  V30 2979 C 287.41 0.58666 4.2396 0
M  V30 2980 C 286.736 -0.280573 5.33963 0
M  V30 2981 C 288.036 1.85704 4.88171 0
M  V30 2982 H 289.73 1.31979 2.68741 0
M  V30 2983 H 287.276 0.636061 1.29191 0
M  V30 2984 H 289.229 -0.615133 4.16886 0
M  V30 2985 H 287.953 -1.16121 3.0526 0
M  V30 2986 H 286.612 0.91232 3.55067 0
M  V30 2987 H 286.26 -1.16874 4.89234 0
M  V30 2988 H 285.96 0.29076 5.8688 0
M  V30 2989 H 287.484 -0.618678 6.07458 0
M  V30 2990 H 288.898 1.58161 5.51052 0
M  V30 2991 H 287.295 2.37279 5.51197 0
M  V30 2992 H 288.365 2.56957 4.11219 0
M  V30 2993 N 289.708 -1.40897 0.706093 0
M  V30 2994 C 290.985 -1.94868 0.169099 0
M  V30 2995 C 291.365 -1.64485 -1.32318 0
M  V30 2996 O 290.713 -0.95744 -2.07474 0
M  V30 2997 C 290.923 -3.45798 0.471654 0
M  V30 2998 C 292.271 -4.22663 0.405127 0
M  V30 2999 O 293.295 -3.53865 0.407168 0
M  V30 3000 O 292.154 -5.45216 0.374383 0
M  V30 3001 H 289.248 -0.82673 0.0211352 0
M  V30 3002 H 291.794 -1.50558 0.782976 0
M  V30 3003 H 290.566 -3.61235 1.50416 0
M  V30 3004 H 290.189 -3.97225 -0.172666 0
M  V30 3005 N 291.186 -0.45159 -1.50991 0
M  V30 3006 C 292.411 0.110667 -2.07105 0
M  V30 3007 C 292.836 1.3446 -1.31538 0
M  V30 3008 O 292.194 1.77743 -0.357365 0
M  V30 3009 C 292.242 0.397238 -3.58405 0
M  V30 3010 O 291.346 1.48124 -3.84881 0
M  V30 3011 H 290.687 -0.00439271 -0.663985 0
M  V30 3012 H 293.217 -0.637026 -1.9443 0
M  V30 3013 H 293.227 0.64351 -4.02893 0
M  V30 3014 H 291.902 -0.504553 -4.12828 0
M  V30 3015 H 290.479 1.22381 -3.52246 0
M  V30 3016 N 292.664 1.56529 -0.183458 0
M  V30 3017 C 293.894 2.01331 0.463612 0
M  V30 3018 C 294.302 1.06278 1.5653 0
M  V30 3019 O 293.645 0.0577976 1.83609 0
M  V30 3020 C 293.707 3.42547 1.09096 0
M  V30 3021 C 293.371 4.56817 0.129442 0
M  V30 3022 C 294.368 5.15734 -0.656807 0
M  V30 3023 C 292.053 5.02295 0.02174 0
M  V30 3024 C 294.047 6.1857 -1.53784 0
M  V30 3025 C 291.734 6.04978 -0.862864 0
M  V30 3026 C 292.732 6.62988 -1.64123 0
M  V30 3027 O 292.42 7.63677 -2.51103 0
M  V30 3028 H 292.152 0.664917 0.121907 0
M  V30 3029 H 294.706 2.034 -0.285954 0
M  V30 3030 H 292.936 3.37428 1.88889 0
M  V30 3031 H 294.625 3.71228 1.64148 0
M  V30 3032 H 295.391 4.81473 -0.583839 0
M  V30 3033 H 291.27 4.56847 0.617392 0
M  V30 3034 H 294.814 6.63777 -2.14583 0
M  V30 3035 H 290.711 6.38663 -0.93699 0
M  V30 3036 H 291.479 7.81049 -2.44753 0
M  V30 3037 N 294.142 -0.090211 1.57342 0
M  V30 3038 C 295.391 -0.791531 1.8552 0
M  V30 3039 C 295.704 -1.79659 0.773441 0
M  V30 3040 O 296.91 -2.54616 0.942497 0
M  V30 3041 C 295.366 -1.45856 3.2902 0
M  V30 3042 C 294.974 -0.493017 4.45279 0
M  V30 3043 C 296.718 -2.14332 3.66418 0
M  V30 3044 C 294.625 -1.16491 5.79814 0
M  V30 3045 H 293.555 -0.299356 0.692027 0
M  V30 3046 H 296.206 -0.0445343 1.83446 0
M  V30 3047 H 294.588 -2.25318 3.2565 0
M  V30 3048 H 295.762 0.270464 4.60006 0
M  V30 3049 H 294.077 0.0863061 4.16311 0
M  V30 3050 H 296.674 -2.65344 4.64216 0
M  V30 3051 H 297.017 -2.93447 2.95287 0
M  V30 3052 H 297.55 -1.41724 3.71698 0
M  V30 3053 H 294.289 -0.41447 6.54188 0
M  V30 3054 H 293.809 -1.8997 5.68921 0
M  V30 3055 H 295.488 -1.69001 6.24538 0
M  V30 3056 N 295.62 -1.53406 -0.361157 0
M  V30 3057 C 297.031 -1.61442 -0.937728 0
M  V30 3058 C 297.382 -0.48461 -1.90121 0
M  V30 3059 O 296.507 0.388312 -2.12888 0
M  V30 3060 C 297.102 -2.92624 -1.70753 0
M  V30 3061 C 295.661 -3.02981 -2.23337 0
M  V30 3062 C 294.808 -2.5677 -1.04712 0
M  V30 3063 H 297.759 -1.58083 -0.139816 0
M  V30 3064 H 297.78 -2.80675 -2.56908 0
M  V30 3065 H 297.292 -3.74834 -1.00604 0
M  V30 3066 H 295.393 -2.25368 -2.96715 0
M  V30 3067 H 295.506 -4.0814 -2.50916 0
M  V30 3068 H 293.87 -2.11752 -1.41539 0
M  V30 3069 H 294.653 -3.41402 -0.360539 0
M  V30 3070 N 297.098 0.621204 -1.44841 0
M  V30 3071 C 298.008 1.7612 -1.5498 0
M  V30 3072 C 299.024 1.68477 -0.434927 0
M  V30 3073 O 300.2 1.89076 -0.693693 0
M  V30 3074 C 297.265 3.1254 -1.50065 0
M  V30 3075 C 296.326 3.31741 -2.72482 0
M  V30 3076 C 295.559 4.61653 -2.67792 0
M  V30 3077 O 295.782 5.431 -1.74352 0
M  V30 3078 O 294.716 4.83271 -3.58794 0
M  V30 3079 H 298.542 1.70518 -2.51311 0
M  V30 3080 H 296.127 0.783643 -1.27198 0
M  V30 3081 H 298.009 3.93844 -1.49882 0
M  V30 3082 H 296.684 3.18663 -0.568806 0
M  V30 3083 H 295.591 2.50077 -2.7823 0
M  V30 3084 H 296.924 3.30486 -3.64746 0
M  V30 3085 N 298.576 1.31904 0.862503 0
M  V30 3086 C 299.987 1.19803 1.43193 0
M  V30 3087 C 300.338 -0.192567 1.95253 0
M  V30 3088 O 299.463 -1.09081 1.86896 0
M  V30 3089 C 300.058 2.16883 2.60283 0
M  V30 3090 C 298.617 2.08692 3.13248 0
M  V30 3091 C 297.764 2.05691 1.85975 0
M  V30 3092 H 300.715 1.43846 0.670365 0
M  V30 3093 H 300.736 1.76278 3.37204 0
M  V30 3094 H 300.248 3.18083 2.22363 0
M  V30 3095 H 298.349 1.10713 3.55771 0
M  V30 3096 H 298.462 2.9815 3.75025 0
M  V30 3097 H 296.826 1.50814 2.05249 0
M  V30 3098 H 297.609 3.08659 1.50282 0
M  V30 3099 N 300.054 -1.07777 1.14986 0
M  V30 3100 C 300.964 -2.18404 0.856546 0
M  V30 3101 C 301.98 -1.73211 -0.165485 0
M  V30 3102 O 303.156 -2.01399 0.00755219 0
M  V30 3103 C 300.221 -3.44977 0.34526 0
M  V30 3104 C 299.282 -4.0476 1.43065 0
M  V30 3105 C 298.515 -5.25291 0.943663 0
M  V30 3106 O 298.738 -5.70004 -0.212426 0
M  V30 3107 O 297.672 -5.76638 1.72547 0
M  V30 3108 H 301.498 -2.45978 1.78125 0
M  V30 3109 H 299.083 -1.17033 0.928631 0
M  V30 3110 H 300.965 -4.21348 0.0663671 0
M  V30 3111 H 299.64 -3.18965 -0.551631 0
M  V30 3112 H 298.547 -3.29949 1.76309 0
M  V30 3113 H 299.88 -4.35035 2.30229 0
M  V30 3114 N 301.532 -0.945985 -1.26051 0
M  V30 3115 C 302.948 -0.649045 -1.45807 0
M  V30 3116 C 303.148 0.796158 -1.85104 0
M  V30 3117 O 302.204 1.57233 -1.97571 0
M  V30 3118 C 303.517 -1.61458 -2.53677 0
M  V30 3119 C 305.065 -1.62481 -2.67524 0
M  V30 3120 C 305.54 -2.57776 -3.7857 0
M  V30 3121 N 307.031 -2.5609 -3.85969 0
M  V30 3122 C 307.766 -3.26508 -4.7136 0
M  V30 3123 N 307.262 -4.0637 -5.61102 0
M  V30 3124 N 309.055 -3.15437 -4.65248 0
M  V30 3125 H 301.206 -1.88005 -0.988328 0
M  V30 3126 H 303.469 -0.808198 -0.4955 0
M  V30 3127 H 303.175 -2.64644 -2.31638 0
M  V30 3128 H 303.049 -1.37036 -3.51427 0
M  V30 3129 H 305.436 -0.600167 -2.88933 0
M  V30 3130 H 305.517 -1.90958 -1.70202 0
M  V30 3131 H 305.161 -3.60361 -3.57913 0
M  V30 3132 H 305.091 -2.26587 -4.75359 0
M  V30 3133 H 307.582 -1.98105 -3.21812 0
M  V30 3134 H 307.895 -4.57042 -6.23164 0
M  V30 3135 H 306.24 -4.10469 -5.60839 0
M  V30 3136 H 309.431 -2.52525 -3.94143 0
M  V30 3137 H 309.604 -3.70584 -5.31575 0
M  V30 3138 N 303.011 1.40521 -0.713556 0
M  V30 3139 C 303.974 2.29098 -0.0684347 0
M  V30 3140 C 304.974 1.45268 0.689472 0
M  V30 3141 O 306.164 1.66205 0.521677 0
M  V30 3142 C 303.296 3.28446 0.913024 0
M  V30 3143 H 304.489 2.87645 -0.84855 0
M  V30 3144 H 302.042 1.48809 -0.47809 0
M  V30 3145 H 302.777 2.74913 1.72027 0
M  V30 3146 H 302.562 3.90327 0.372472 0
M  V30 3147 H 304.052 3.94777 1.36165 0
M  V30 3148 N 304.489 0.459591 1.5075 0
M  V30 3149 C 305.738 -0.100971 2.01447 0
M  V30 3150 C 306.051 -1.41816 1.34713 0
M  V30 3151 O 307.257 -2.06299 1.76502 0
M  V30 3152 C 305.713 -0.23047 3.59161 0
M  V30 3153 C 305.321 1.0776 4.34847 0
M  V30 3154 C 307.065 -0.743608 4.17936 0
M  V30 3155 C 304.972 0.91253 5.84317 0
M  V30 3156 H 303.902 -0.0415102 0.752856 0
M  V30 3157 H 306.553 0.592742 1.73663 0
M  V30 3158 H 304.935 -0.987703 3.83485 0
M  V30 3159 H 306.109 1.8449 4.22256 0
M  V30 3160 H 304.424 1.52097 3.87628 0
M  V30 3161 H 307.021 -0.883959 5.27343 0
M  V30 3162 H 307.364 -1.73196 3.78562 0
M  V30 3163 H 307.897 -0.04408 3.97776 0
M  V30 3164 H 304.636 1.87391 6.28144 0
M  V30 3165 H 304.156 0.185422 5.99513 0
M  V30 3166 H 305.835 0.574547 6.44444 0
M  V30 3167 N 305.967 -1.56429 0.191757 0
M  V30 3168 C 307.244 -1.89224 -0.495332 0
M  V30 3169 C 307.624 -1.10478 -1.79883 0
M  V30 3170 O 306.972 -0.204852 -2.2758 0
M  V30 3171 C 307.182 -3.41548 -0.717367 0
M  V30 3172 C 308.53 -4.11711 -1.03823 0
M  V30 3173 O 309.554 -3.4698 -0.805204 0
M  V30 3174 O 308.413 -5.2611 -1.47887 0
M  V30 3175 H 305.507 -0.785788 -0.25781 0
M  V30 3176 H 308.053 -1.68111 0.231721 0
M  V30 3177 H 306.825 -3.90772 0.203287 0
M  V30 3178 H 306.448 -3.68342 -1.497 0
M  V30 3179 N 307.445 0.0818655 -1.57387 0
M  V30 3180 C 308.392 1.09834 -2.0299 0
M  V30 3181 C 309.362 1.39043 -0.908639 0
M  V30 3182 O 310.547 1.50282 -1.17559 0
M  V30 3183 C 307.687 2.40971 -2.47037 0
M  V30 3184 C 306.8 2.18379 -3.7274 0
M  V30 3185 C 305.935 3.43008 -4.0561 0
M  V30 3186 C 304.974 3.15736 -5.24383 0
M  V30 3187 N 304.111 4.32667 -5.52941 0
M  V30 3188 H 308.951 0.702472 -2.89602 0
M  V30 3189 H 306.488 0.33531 -1.43227 0
M  V30 3190 H 308.446 3.1752 -2.70623 0
M  V30 3191 H 307.076 2.78379 -1.63417 0
M  V30 3192 H 306.128 1.32569 -3.56552 0
M  V30 3193 H 307.44 1.94227 -4.59431 0
M  V30 3194 H 306.594 4.27958 -4.30043 0
M  V30 3195 H 305.333 3.70225 -3.17466 0
M  V30 3196 H 304.338 2.2918 -4.99757 0
M  V30 3197 H 305.563 2.8985 -6.14136 0
M  V30 3198 H 303.509 4.59935 -4.67756 0
M  V30 3199 H 303.426 4.11753 -6.34031 0
M  V30 3200 H 304.694 5.18644 -5.81918 0
M  V30 3201 N 308.923 1.53595 0.353017 0
M  V30 3202 C 310.334 1.61937 0.929153 0
M  V30 3203 C 310.685 0.494686 1.89861 0
M  V30 3204 O 309.81 -0.377017 2.1309 0
M  V30 3205 C 310.405 2.93526 1.69199 0
M  V30 3206 C 308.964 3.04161 2.21727 0
M  V30 3207 C 308.111 2.57322 1.03348 0
M  V30 3208 H 311.062 1.58155 0.131431 0
M  V30 3209 H 311.083 2.82034 2.55416 0
M  V30 3210 H 310.595 3.75362 0.986144 0
M  V30 3211 H 308.696 2.26938 2.95516 0
M  V30 3212 H 308.809 4.09465 2.48748 0
M  V30 3213 H 307.173 2.12499 1.40414 0
M  V30 3214 H 307.956 3.41588 0.342428 0
M  V30 3215 N 310.401 -0.613514 1.45168 0
M  V30 3216 C 311.648 -1.37268 1.48875 0
M  V30 3217 C 311.976 -1.94077 0.128161 0
M  V30 3218 O 311.231 -1.75178 -0.872416 0
M  V30 3219 C 311.53 -2.54347 2.51083 0
M  V30 3220 C 311.196 -2.1572 3.95949 0
M  V30 3221 C 309.858 -2.04899 4.35396 0
M  V30 3222 C 312.21 -1.85485 4.87078 0
M  V30 3223 C 309.538 -1.62057 5.63875 0
M  V30 3224 C 311.89 -1.4413 6.15962 0
M  V30 3225 C 310.554 -1.31863 6.54346 0
M  V30 3226 H 309.824 -0.502299 0.544773 0
M  V30 3227 H 312.471 -0.694021 1.78481 0
M  V30 3228 H 310.776 -3.27524 2.15024 0
M  V30 3229 H 312.473 -3.12577 2.51191 0
M  V30 3230 H 309.063 -2.25066 3.64751 0
M  V30 3231 H 313.247 -1.92745 4.57343 0
M  V30 3232 H 308.503 -1.51177 5.92415 0
M  V30 3233 H 312.677 -1.19778 6.86022 0
M  V30 3234 H 310.304 -0.984392 7.538 0
M  V30 3235 N 311.879 -1.3236 -0.855495 0
M  V30 3236 C 312.809 -1.23833 -1.97958 0
M  V30 3237 C 313.79 -0.122361 -1.69659 0
M  V30 3238 O 314.975 -0.30939 -1.9172 0
M  V30 3239 C 312.105 -0.959772 -3.33775 0
M  V30 3240 C 311.059 -2.03689 -3.76424 0
M  V30 3241 C 310.385 -1.61075 -5.09862 0
M  V30 3242 C 311.685 -3.4518 -3.9198 0
M  V30 3243 H 313.379 -2.1788 -2.0535 0
M  V30 3244 H 310.925 -1.04891 -0.986605 0
M  V30 3245 H 312.878 -0.886678 -4.11966 0
M  V30 3246 H 311.602 0.0163404 -3.26596 0
M  V30 3247 H 310.261 -2.10012 -3.00484 0
M  V30 3248 H 309.909 -0.622107 -4.99138 0
M  V30 3249 H 309.609 -2.33143 -5.39368 0
M  V30 3250 H 311.133 -1.55201 -5.90546 0
M  V30 3251 H 312.547 -3.4145 -4.60526 0
M  V30 3252 H 310.944 -4.1559 -4.32903 0
M  V30 3253 H 312.014 -3.84903 -2.94919 0
M  V30 3254 N 313.357 1.07166 -1.15556 0
M  V30 3255 C 314.287 2.16403 -0.877046 0
M  V30 3256 C 315.268 1.69217 0.173111 0
M  V30 3257 O 316.453 1.94181 0.027084 0
M  V30 3258 C 313.583 3.45349 -0.367632 0
M  V30 3259 C 312.537 4.05995 -1.35468 0
M  V30 3260 C 311.863 5.30045 -0.704038 0
M  V30 3261 C 313.163 4.45804 -2.72132 0
M  V30 3262 H 314.857 2.39959 -1.79053 0
M  V30 3263 H 312.403 1.15325 -0.862331 0
M  V30 3264 H 314.356 4.21095 -0.160317 0
M  V30 3265 H 313.08 3.21385 0.581326 0
M  V30 3266 H 311.739 3.32296 -1.54839 0
M  V30 3267 H 311.387 5.02373 0.251128 0
M  V30 3268 H 311.087 5.71579 -1.36277 0
M  V30 3269 H 312.611 6.08495 -0.50654 0
M  V30 3270 H 314.025 5.12671 -2.56595 0
M  V30 3271 H 312.422 4.98296 -3.34397 0
M  V30 3272 H 313.492 3.57083 -3.28054 0
M  V30 3273 N 314.835 0.952656 1.25548 0
M  V30 3274 C 316.246 0.647392 1.75116 0
M  V30 3275 C 316.597 -0.837274 1.77438 0
M  V30 3276 O 315.722 -1.65525 1.39393 0
M  V30 3277 C 316.317 1.16845 3.18014 0
M  V30 3278 C 314.876 0.913382 3.6515 0
M  V30 3279 C 314.023 1.31265 2.44264 0
M  V30 3280 H 316.974 1.12968 1.11462 0
M  V30 3281 H 316.995 0.527606 3.76824 0
M  V30 3282 H 316.507 2.24902 3.16292 0
M  V30 3283 H 314.608 -0.152316 3.72289 0
M  V30 3284 H 314.721 1.54845 4.53387 0
M  V30 3285 H 313.085 0.731028 2.43984 0
M  V30 3286 H 313.868 2.40239 2.45234 0
M  V30 3287 N 316.313 -1.40141 0.720998 0
M  V30 3288 C 317.562 -2.0002 0.259804 0
M  V30 3289 C 317.875 -1.57839 -1.15526 0
M  V30 3290 O 319.081 -2.10455 -1.71525 0
M  V30 3291 C 317.537 -3.57516 0.413566 0
M  V30 3292 C 317.145 -4.08667 1.83562 0
M  V30 3293 C 318.889 -4.24498 0.0134387 0
M  V30 3294 C 316.796 -5.58686 1.93968 0
M  V30 3295 H 315.726 -0.748195 0.0933806 0
M  V30 3296 H 318.377 -1.60313 0.892866 0
M  V30 3297 H 316.759 -3.9495 -0.288169 0
M  V30 3298 H 317.933 -3.82598 2.56817 0
M  V30 3299 H 316.248 -3.543 2.1877 0
M  V30 3300 H 318.845 -5.34654 0.0703954 0
M  V30 3301 H 319.188 -4.03375 -1.02927 0
M  V30 3302 H 319.721 -3.92188 0.665815 0
M  V30 3303 H 316.46 -5.8467 2.96379 0
M  V30 3304 H 315.98 -5.86602 1.25131 0
M  V30 3305 H 317.659 -6.23875 1.71431 0
M  V30 3306 N 317.792 -0.46758 -1.50504 0
M  V30 3307 C 318.702 0.33382 -2.32213 0
M  V30 3308 C 319.718 0.999323 -1.42441 0
M  V30 3309 O 320.894 0.988068 -1.75497 0
M  V30 3310 C 317.959 1.4035 -3.17022 0
M  V30 3311 C 317.02 0.754961 -4.2261 0
M  V30 3312 C 316.253 1.77367 -5.03365 0
M  V30 3313 O 316.476 2.99976 -4.8515 0
M  V30 3314 O 315.41 1.34744 -5.86624 0
M  V30 3315 H 319.236 -0.334067 -3.01857 0
M  V30 3316 H 316.821 -0.229496 -1.47627 0
M  V30 3317 H 318.703 2.02318 -3.69656 0
M  V30 3318 H 317.378 2.05492 -2.5011 0
M  V30 3319 H 316.285 0.0964244 -3.73976 0
M  V30 3320 H 317.618 0.146545 -4.91982 0
M  V30 3321 N 319.27 1.56325 -0.20005 0
M  V30 3322 C 320.547 1.89484 0.48529 0
M  V30 3323 C 320.927 1.1143 1.79294 0
M  V30 3324 O 320.275 0.216919 2.27468 0
M  V30 3325 C 320.485 3.41923 0.699243 0
M  V30 3326 C 321.833 4.12256 1.01638 0
M  V30 3327 O 322.857 3.47402 0.786792 0
M  V30 3328 O 321.716 5.26887 1.45095 0
M  V30 3329 H 318.81 0.787144 0.253639 0
M  V30 3330 H 321.356 1.67985 -0.240633 0
M  V30 3331 H 320.128 3.90658 -0.224008 0
M  V30 3332 H 319.751 3.69131 1.47744 0
M  V30 3333 N 320.748 -0.0735177 1.57428 0
M  V30 3334 C 321.994 -0.774145 1.87443 0
M  V30 3335 C 322.327 -1.77311 0.792103 0
M  V30 3336 O 321.602 -1.93492 -0.197793 0
M  V30 3337 C 321.885 -1.48367 3.28115 0
M  V30 3338 C 321.738 -0.501227 4.46999 0
M  V30 3339 C 323.057 -2.429 3.66998 0
M  V30 3340 H 320.176 -0.279971 0.681752 0
M  V30 3341 H 322.818 -0.0373616 1.89963 0
M  V30 3342 H 320.968 -2.11171 3.26097 0
M  V30 3343 H 322.64 0.121468 4.6114 0
M  V30 3344 H 320.883 0.183593 4.33411 0
M  V30 3345 H 321.554 -1.03526 5.42205 0
M  V30 3346 H 324.03 -1.90175 3.70098 0
M  V30 3347 H 322.906 -2.89549 4.66318 0
M  V30 3348 H 323.167 -3.27628 2.96837 0
M  V30 3349 N 322.226 -1.5378 -0.344866 0
M  V30 3350 C 323.473 -1.70963 -1.08526 0
M  V30 3351 C 323.801 -0.472126 -1.88683 0
M  V30 3352 O 323.056 0.546116 -1.87926 0
M  V30 3353 C 323.355 -2.92407 -2.05506 0
M  V30 3354 C 323.021 -4.28066 -1.41671 0
M  V30 3355 C 321.683 -4.64951 -1.2399 0
M  V30 3356 C 324.035 -5.12344 -0.956726 0
M  V30 3357 C 321.363 -5.83733 -0.589277 0
M  V30 3358 C 323.715 -6.3179 -0.320015 0
M  V30 3359 C 322.379 -6.67372 -0.130881 0
M  V30 3360 H 321.649 -0.625598 -0.397124 0
M  V30 3361 H 324.296 -1.87995 -0.36469 0
M  V30 3362 H 322.601 -2.69973 -2.8394 0
M  V30 3363 H 324.298 -3.02895 -2.62784 0
M  V30 3364 H 320.888 -3.99034 -1.56429 0
M  V30 3365 H 325.072 -4.8438 -1.08118 0
M  V30 3366 H 320.328 -6.09877 -0.431344 0
M  V30 3367 H 324.502 -6.96386 0.0445072 0
M  V30 3368 H 322.129 -7.59273 0.375318 0
M  V30 3369 N 323.704 0.605807 -1.45491 0
M  V30 3370 C 324.929 1.39625 -1.53361 0
M  V30 3371 C 325.354 1.87351 -0.167645 0
M  V30 3372 O 324.712 1.60243 0.848051 0
M  V30 3373 C 324.76 2.57559 -2.5238 0
M  V30 3374 O 323.864 3.58248 -2.04285 0
M  V30 3375 H 323.205 0.416771 -0.516912 0
M  V30 3376 H 325.735 0.737103 -1.90861 0
M  V30 3377 H 325.745 3.0478 -2.71244 0
M  V30 3378 H 324.42 2.22171 -3.51586 0
M  V30 3379 H 322.997 3.17664 -1.95305 0
M  V30 3380 N 325.182 1.32811 0.848464 0
M  V30 3381 C 326.431 1.23075 1.59798 0
M  V30 3382 C 326.744 -0.204419 1.94529 0
M  V30 3383 O 327.95 -0.423701 2.68173 0
M  V30 3384 C 326.406 2.15594 2.88179 0
M  V30 3385 C 326.014 3.64228 2.60849 0
M  V30 3386 C 327.758 2.14709 3.66197 0
M  V30 3387 C 325.665 4.48689 3.85269 0
M  V30 3388 H 324.595 0.457091 0.599653 0
M  V30 3389 H 327.246 1.57813 0.936342 0
M  V30 3390 H 325.628 1.73778 3.55833 0
M  V30 3391 H 326.802 4.14424 2.01467 0
M  V30 3392 H 325.117 3.67306 1.96151 0
M  V30 3393 H 327.714 2.75046 4.58534 0
M  V30 3394 H 328.057 1.13966 4.00397 0
M  V30 3395 H 328.59 2.54837 3.05455 0
M  V30 3396 H 325.329 5.5027 3.56207 0
M  V30 3397 H 324.849 4.03241 4.44024 0
M  V30 3398 H 326.528 4.62006 4.52946 0
M  V30 3399 N 326.66 -1.06551 1.16123 0
M  V30 3400 C 327.885 -1.83544 0.965735 0
M  V30 3401 C 328.31 -1.81843 -0.481102 0
M  V30 3402 O 327.668 -1.21732 -1.34354 0
M  V30 3403 C 327.716 -3.28169 1.49457 0
M  V30 3404 O 326.82 -4.0643 0.699157 0
M  V30 3405 H 326.161 -0.568026 0.343864 0
M  V30 3406 H 328.691 -1.34362 1.54299 0
M  V30 3407 H 328.701 -3.78992 1.51092 0
M  V30 3408 H 327.376 -3.28722 2.54784 0
M  V30 3409 H 325.953 -3.65216 0.7531 0
M  V30 3410 N 328.138 -0.959301 -1.25041 0
M  V30 3411 C 329.386 -0.615393 -1.92503 0
M  V30 3412 C 329.707 0.850969 -1.75452 0
M  V30 3413 O 328.977 1.60658 -1.12098 0
M  V30 3414 H 327.557 -0.224613 -0.712431 0
M  V30 3415 H 330.219 -1.21855 -1.5211 0
M  V30 3416 H 329.315 -0.848738 -3.00338 0
M  V30 3417 N 329.616 1.39756 -0.72842 0
M  V30 3418 C 331.032 1.5442 -0.403308 0
M  V30 3419 C 331.232 1.69694 1.08656 0
M  V30 3420 O 330.288 1.69373 1.87267 0
M  V30 3421 C 331.601 2.76555 -1.18058 0
M  V30 3422 C 333.149 2.90384 -1.16815 0
M  V30 3423 C 333.624 4.15449 -1.92785 0
M  V30 3424 N 335.115 4.22475 -1.89918 0
M  V30 3425 C 335.85 5.1818 -2.45514 0
M  V30 3426 N 335.346 6.19714 -3.09719 0
M  V30 3427 N 337.139 5.1035 -2.35584 0
M  V30 3428 H 329.29 1.28089 -1.69431 0
M  V30 3429 H 331.553 0.620327 -0.716867 0
M  V30 3430 H 331.259 2.7159 -2.23455 0
M  V30 3431 H 331.133 3.69033 -0.780662 0
M  V30 3432 H 333.52 2.94846 -0.12234 0
M  V30 3433 H 333.601 1.98988 -1.6074 0
M  V30 3434 H 333.245 4.11749 -2.97364 0
M  V30 3435 H 333.175 5.05877 -1.46272 0
M  V30 3436 H 335.666 3.49743 -1.43138 0
M  V30 3437 H 335.979 6.8919 -3.49625 0
M  V30 3438 H 334.324 6.20121 -3.13807 0
M  V30 3439 H 337.515 4.2996 -1.85072 0
M  V30 3440 H 337.688 5.84761 -2.79211 0
M  V30 3441 N 331.094 0.475555 1.50254 0
M  V30 3442 C 332.342 -0.077738 2.0195 0
M  V30 3443 C 332.663 -1.39813 1.35931 0
M  V30 3444 O 331.933 -1.89249 0.506123 0
M  V30 3445 H 330.513 -0.031719 0.746326 0
M  V30 3446 H 333.175 0.626995 1.84539 0
M  V30 3447 H 332.271 -0.225995 3.11281 0
M  V30 3448 N 332.573 -1.56217 0.208337 0
M  V30 3449 C 333.801 -2.02337 -0.43215 0
M  V30 3450 C 334.216 -1.08834 -1.54275 0
M  V30 3451 O 333.573 -0.0955462 -1.8225 0
M  V30 3452 C 333.624 -3.48072 -0.976138 0
M  V30 3453 O 333.345 -4.38007 0.0901621 0
M  V30 3454 C 334.846 -4.09773 -1.69119 0
M  V30 3455 H 332.066 -0.662385 -0.10718 0
M  V30 3456 H 334.61 -2.01966 0.320923 0
M  V30 3457 H 332.765 -3.49099 -1.67954 0
M  V30 3458 H 333.179 -5.23543 -0.316701 0
M  V30 3459 H 334.653 -5.13556 -2.02397 0
M  V30 3460 H 335.13 -3.53999 -2.59964 0
M  V30 3461 H 335.736 -4.12556 -1.03332 0
M  V30 3462 N 334.051 0.0651679 -1.57465 0
M  V30 3463 C 335.297 0.764193 -1.87851 0
M  V30 3464 C 335.63 1.76889 -0.801495 0
M  V30 3465 O 334.905 1.93594 0.187528 0
M  V30 3466 C 335.188 1.46625 -3.28897 0
M  V30 3467 C 335.041 0.477515 -4.47258 0
M  V30 3468 C 336.36 2.4095 -3.68281 0
M  V30 3469 H 333.479 0.276351 -0.683227 0
M  V30 3470 H 336.121 0.0272868 -1.8998 0
M  V30 3471 H 334.271 2.09438 -3.27212 0
M  V30 3472 H 335.943 -0.145922 -4.61069 0
M  V30 3473 H 334.186 -0.206576 -4.33308 0
M  V30 3474 H 334.857 1.0065 -5.42746 0
M  V30 3475 H 337.333 1.88209 -3.71102 0
M  V30 3476 H 336.209 2.87072 -4.67847 0
M  V30 3477 H 336.47 3.26049 -2.98571 0
M  V30 3478 N 335.529 1.53961 0.336706 0
M  V30 3479 C 336.775 1.7179 1.07777 0
M  V30 3480 C 337.108 0.483263 1.88091 0
M  V30 3481 O 336.383 -0.519747 1.87427 0
M  V30 3482 C 336.666 2.98558 2.01334 0
M  V30 3483 C 336.519 4.32245 1.24437 0
M  V30 3484 C 337.838 3.21023 3.01052 0
M  V30 3485 H 334.957 0.625089 0.390426 0
M  V30 3486 H 337.599 1.86641 0.35567 0
M  V30 3487 H 335.749 2.86028 2.62908 0
M  V30 3488 H 337.421 4.56637 0.654243 0
M  V30 3489 H 335.664 4.30344 0.546458 0
M  V30 3490 H 336.335 5.17137 1.93063 0
M  V30 3491 H 338.811 3.32929 2.49595 0
M  V30 3492 H 337.687 4.11104 3.6371 0
M  V30 3493 H 337.948 2.37637 3.72802 0
M  V30 3494 N 337.007 -0.598083 1.45811 0
M  V30 3495 C 338.235 -1.38322 1.53866 0
M  V30 3496 C 338.65 -1.87992 0.174479 0
M  V30 3497 O 338.007 -1.62756 -0.825627 0
M  V30 3498 C 338.058 -2.58125 2.53089 0
M  V30 3499 O 337.779 -2.10516 3.84206 0
M  V30 3500 C 339.28 -3.50869 2.70935 0
M  V30 3501 H 336.5 -0.423093 0.520801 0
M  V30 3502 H 339.044 -0.728527 1.91083 0
M  V30 3503 H 337.199 -3.19615 2.18917 0
M  V30 3504 H 337.613 -2.88425 4.38077 0
M  V30 3505 H 339.087 -4.31451 3.44317 0
M  V30 3506 H 339.564 -4.01822 1.77301 0
M  V30 3507 H 340.17 -2.95225 3.06141 0
M  V30 3508 N 338.485 -1.33259 -0.841409 0
M  V30 3509 C 339.733 -1.24326 -1.59334 0
M  V30 3510 C 340.054 0.191564 -1.94057 0
M  V30 3511 O 339.324 1.11967 -1.60749 0
M  V30 3512 H 337.904 -0.457174 -0.590763 0
M  V30 3513 H 340.566 -1.66947 -1.00571 0
M  V30 3514 H 339.662 -1.8352 -2.52442 0
M  V30 3515 N 339.963 1.05934 -1.16686 0
M  V30 3516 C 341.379 1.30938 -0.912542 0
M  V30 3517 C 341.579 1.96803 0.432533 0
M  V30 3518 O 340.635 2.23693 1.17123 0
M  V30 3519 C 341.948 2.18649 -2.06429 0
M  V30 3520 C 343.496 2.32055 -2.10047 0
M  V30 3521 C 343.971 3.23122 -3.24586 0
M  V30 3522 N 345.462 3.30706 -3.24327 0
M  V30 3523 C 346.197 4.01273 -4.09594 0
M  V30 3524 N 345.693 4.74332 -5.04956 0
M  V30 3525 N 347.486 3.97361 -3.97569 0
M  V30 3526 H 339.637 0.615777 -2.03278 0
M  V30 3527 H 341.9 0.334077 -0.887185 0
M  V30 3528 H 341.606 1.77534 -3.03603 0
M  V30 3529 H 341.48 3.19252 -2.00894 0
M  V30 3530 H 343.867 2.72415 -1.13464 0
M  V30 3531 H 343.948 1.31107 -2.19647 0
M  V30 3532 H 343.592 2.83477 -4.2143 0
M  V30 3533 H 343.522 4.24057 -3.12223 0
M  V30 3534 H 346.013 2.78644 -2.55276 0
M  V30 3535 H 346.326 5.25716 -5.6643 0
M  V30 3536 H 344.671 4.733 -5.08933 0
M  V30 3537 H 347.862 3.39405 -3.22369 0
M  V30 3538 H 348.035 4.52089 -4.64241 0
M  V30 3539 N 341.441 0.965919 1.2453 0
M  V30 3540 C 342.687 0.62776 1.92839 0
M  V30 3541 C 343.02 -0.834694 1.75347 0
M  V30 3542 O 342.295 -1.60031 1.10546 0
M  V30 3543 C 342.578 1.00109 3.45905 0
M  V30 3544 C 342.431 2.52011 3.72573 0
M  V30 3545 C 343.75 0.53435 4.36844 0
M  V30 3546 H 340.869 0.229537 0.700344 0
M  V30 3547 H 343.511 1.2046 1.46933 0
M  V30 3548 H 341.661 0.510238 3.85135 0
M  V30 3549 H 343.333 3.08559 3.42912 0
M  V30 3550 H 341.576 2.95287 3.17786 0
M  V30 3551 H 342.247 2.73183 4.79661 0
M  V30 3552 H 344.723 0.955565 4.04979 0
M  V30 3553 H 343.599 0.824152 5.42678 0
M  V30 3554 H 343.86 -0.565589 4.38467 0
M  V30 3555 N 342.919 -1.39368 0.735821 0
M  V30 3556 C 343.829 -2.34395 0.0979693 0
M  V30 3557 C 344.845 -1.58361 -0.720968 0
M  V30 3558 O 346.021 -1.90648 -0.649245 0
M  V30 3559 C 343.086 -3.37393 -0.797916 0
M  V30 3560 C 342.147 -4.29287 0.0333662 0
M  V30 3561 C 341.38 -5.27365 -0.819854 0
M  V30 3562 O 341.603 -5.31959 -2.05855 0
M  V30 3563 O 340.537 -6.01389 -0.248079 0
M  V30 3564 H 344.363 -2.90601 0.882315 0
M  V30 3565 H 341.948 -1.40909 0.4965 0
M  V30 3566 H 343.83 -4.00505 -1.31048 0
M  V30 3567 H 342.505 -2.83571 -1.56106 0
M  V30 3568 H 341.412 -3.69395 0.591475 0
M  V30 3569 H 342.745 -4.86317 0.758752 0
M  V30 3570 N 344.397 -0.483516 -1.5 0
M  V30 3571 C 345.813 -0.138404 -1.58999 0
M  V30 3572 C 346.013 1.35597 -1.4905 0
M  V30 3573 O 345.069 2.13039 -1.35539 0
M  V30 3574 C 346.382 -0.699658 -2.92447 0
M  V30 3575 C 347.93 -0.664195 -3.05872 0
M  V30 3576 C 348.405 -1.20321 -4.41913 0
M  V30 3577 N 349.896 -1.16315 -4.48358 0
M  V30 3578 C 350.631 -1.55058 -5.52037 0
M  V30 3579 N 350.127 -2.01311 -6.62907 0
M  V30 3580 N 351.92 -1.46584 -5.42651 0
M  V30 3581 H 344.071 -1.45529 -1.5471 0
M  V30 3582 H 346.334 -0.60258 -0.731848 0
M  V30 3583 H 346.04 -1.747 -3.05242 0
M  V30 3584 H 345.914 -0.150194 -3.76901 0
M  V30 3585 H 348.301 0.374272 -2.92717 0
M  V30 3586 H 348.382 -1.25061 -2.23144 0
M  V30 3587 H 348.026 -2.24037 -4.55818 0
M  V30 3588 H 347.956 -0.592896 -5.23252 0
M  V30 3589 H 350.447 -0.824058 -3.68806 0
M  V30 3590 H 350.76 -2.2899 -7.38095 0
M  V30 3591 H 349.105 -2.05273 -6.63994 0
M  V30 3592 H 352.296 -1.10281 -4.54924 0
M  V30 3593 H 352.469 -1.77103 -6.23329 0
M  V30 3594 N 345.875 1.56104 -0.216619 0
M  V30 3595 C 347.123 1.97781 0.415593 0
M  V30 3596 C 347.444 1.10536 1.60645 0
M  V30 3597 O 346.714 0.181303 1.95059 0
M  V30 3598 H 345.294 0.730415 0.156534 0
M  V30 3599 H 347.956 1.92445 -0.308366 0
M  V30 3600 H 347.052 3.03072 0.74525 0
M  V30 3601 N 347.353 -0.0568162 1.57498 0
M  V30 3602 C 348.602 -0.752001 1.87157 0
M  V30 3603 C 348.915 -1.77978 0.811375 0
M  V30 3604 O 350.121 -2.52559 0.996293 0
M  V30 3605 C 348.577 -1.38844 3.3204 0
M  V30 3606 C 348.185 -0.398456 4.46225 0
M  V30 3607 C 349.929 -2.06512 3.70882 0
M  V30 3608 C 347.836 -1.04166 5.82154 0
M  V30 3609 H 346.766 -0.28461 0.698222 0
M  V30 3610 H 349.417 -0.00561272 1.83499 0
M  V30 3611 H 347.799 -2.1836 3.30356 0
M  V30 3612 H 348.973 0.367977 4.59328 0
M  V30 3613 H 347.288 0.174592 4.16034 0
M  V30 3614 H 349.885 -2.55437 4.6974 0
M  V30 3615 H 350.228 -2.87117 3.01445 0
M  V30 3616 H 350.761 -1.33808 3.7462 0
M  V30 3617 H 347.5 -0.275614 6.5492 0
M  V30 3618 H 347.02 -1.7786 5.72823 0
M  V30 3619 H 348.699 -1.55715 6.27982 0
M  V30 3620 N 348.832 -1.54138 -0.328536 0
M  V30 3621 C 350.081 -1.71318 -1.06456 0
M  V30 3622 C 350.394 -0.491109 -1.89334 0
M  V30 3623 O 351.6 -0.54416 -2.65991 0
M  V30 3624 C 350.056 -3.03 -1.94214 0
M  V30 3625 C 349.664 -4.32595 -1.16471 0
M  V30 3626 C 351.408 -3.29544 -2.67583 0
M  V30 3627 C 349.315 -5.55341 -2.03347 0
M  V30 3628 H 348.245 -0.638429 -0.401155 0
M  V30 3629 H 350.896 -1.80633 -0.323106 0
M  V30 3630 H 349.278 -2.87579 -2.72239 0
M  V30 3631 H 350.452 -4.58766 -0.432525 0
M  V30 3632 H 348.767 -4.12777 -0.548063 0
M  V30 3633 H 351.364 -4.18444 -3.3288 0
M  V30 3634 H 351.707 -2.47206 -3.34955 0
M  V30 3635 H 352.24 -3.45809 -1.96623 0
M  V30 3636 H 348.979 -6.40268 -1.40491 0
M  V30 3637 H 348.499 -5.33397 -2.74313 0
M  V30 3638 H 350.178 -5.91557 -2.62049 0
M  V30 3639 N 350.31 0.590341 -1.46126 0
M  V30 3640 C 351.257 1.69994 -1.56111 0
M  V30 3641 C 352.227 1.61065 -0.405867 0
M  V30 3642 O 353.412 1.8039 -0.621613 0
M  V30 3643 C 350.552 3.08326 -1.55013 0
M  V30 3644 C 349.665 3.27936 -2.81215 0
M  V30 3645 C 348.8 4.56473 -2.71673 0
M  V30 3646 C 347.839 4.694 -3.92849 0
M  V30 3647 N 346.976 5.89254 -3.81738 0
M  V30 3648 H 351.816 1.60797 -2.50895 0
M  V30 3649 H 349.353 0.783799 -1.24479 0
M  V30 3650 H 351.311 3.88383 -1.52362 0
M  V30 3651 H 349.941 3.16439 -0.637667 0
M  V30 3652 H 348.993 2.41536 -2.93879 0
M  V30 3653 H 350.305 3.33357 -3.71045 0
M  V30 3654 H 349.459 5.44748 -2.67085 0
M  V30 3655 H 348.198 4.53477 -1.7947 0
M  V30 3656 H 347.203 3.79544 -3.97777 0
M  V30 3657 H 348.428 4.7418 -4.86138 0
M  V30 3658 H 346.374 5.87271 -2.92317 0
M  V30 3659 H 346.291 5.95911 -4.65217 0
M  V30 3660 H 347.559 6.79981 -3.81112 0
M  V30 3661 N 351.788 1.33704 0.83433 0
M  V30 3662 C 353.034 1.25603 1.59222 0
M  V30 3663 C 353.367 -0.176659 1.93395 0
M  V30 3664 O 352.642 -1.11915 1.59076 0
M  V30 3665 C 352.925 2.13576 2.89926 0
M  V30 3666 C 352.778 3.65326 2.62406 0
M  V30 3667 C 354.097 2.01238 3.91397 0
M  V30 3668 H 351.216 0.457613 0.577719 0
M  V30 3669 H 353.858 1.63848 0.961972 0
M  V30 3670 H 352.008 1.8109 3.43713 0
M  V30 3671 H 353.68 4.08124 2.15017 0
M  V30 3672 H 351.923 3.8698 1.96033 0
M  V30 3673 H 352.594 4.22232 3.55562 0
M  V30 3674 H 355.07 2.29738 3.46929 0
M  V30 3675 H 353.946 2.65036 4.80673 0
M  V30 3676 H 354.207 0.985951 4.30966 0
M  V30 3677 N 353.266 -1.05314 1.17247 0
M  V30 3678 C 354.514 -1.77941 0.958194 0
M  V30 3679 C 354.835 -1.88089 -0.514556 0
M  V30 3680 O 354.105 -1.39676 -1.37359 0
M  V30 3681 H 352.685 -0.659116 0.351533 0
M  V30 3682 H 355.347 -1.27166 1.47699 0
M  V30 3683 H 354.443 -2.79663 1.38546 0
M  V30 3684 N 354.744 -0.972509 -1.24016 0
M  V30 3685 C 355.654 -0.5143 -2.28893 0
M  V30 3686 C 356.67 0.427078 -1.68677 0
M  V30 3687 O 357.846 0.298939 -1.99169 0
M  V30 3688 C 354.911 0.183598 -3.46214 0
M  V30 3689 C 353.972 -0.798202 -4.21814 0
M  V30 3690 C 353.205 -0.133514 -5.33533 0
M  V30 3691 O 353.428 1.07714 -5.60137 0
M  V30 3692 O 352.362 -0.828103 -5.96176 0
M  V30 3693 H 356.188 -1.38629 -2.70214 0
M  V30 3694 H 353.773 -0.739769 -1.29799 0
M  V30 3695 H 355.655 0.575433 -4.17453 0
M  V30 3696 H 354.33 1.03048 -3.0686 0
M  V30 3697 H 353.237 -1.24059 -3.52931 0
M  V30 3698 H 354.57 -1.61364 -4.64997 0
M  V30 3699 N 356.222 1.38976 -0.743202 0
M  V30 3700 C 357.132 2.3434 -0.110399 0
M  V30 3701 C 358.148 1.58741 0.712559 0
M  V30 3702 O 359.324 1.9099 0.639125 0
M  V30 3703 C 356.389 3.37812 0.780012 0
M  V30 3704 C 355.45 4.29263 -0.0561319 0
M  V30 3705 C 354.683 5.27793 0.791875 0
M  V30 3706 O 354.906 5.33043 2.03031 0
M  V30 3707 O 353.84 6.01512 0.216183 0
M  V30 3708 H 357.666 2.90129 -0.897714 0
M  V30 3709 H 355.251 1.40643 -0.503966 0
M  V30 3710 H 357.133 4.01194 1.28923 0
M  V30 3711 H 355.808 2.84395 1.546 0
M  V30 3712 H 354.715 3.69076 -0.611056 0
M  V30 3713 H 356.048 4.85907 -0.784531 0
M  V30 3714 N 357.7 0.491464 1.49741 0
M  V30 3715 C 358.946 -0.0565092 2.02721 0
M  V30 3716 C 359.279 -1.37522 1.37118 0
M  V30 3717 O 358.554 -1.87866 0.503645 0
M  V30 3718 C 358.837 -0.219051 3.59433 0
M  V30 3719 C 358.69 1.12211 4.35579 0
M  V30 3720 C 360.009 -0.964157 4.29409 0
M  V30 3721 H 357.128 -0.0190627 0.736753 0
M  V30 3722 H 359.77 0.641021 1.7886 0
M  V30 3723 H 357.92 -0.813165 3.79895 0
M  V30 3724 H 359.592 1.75437 4.26637 0
M  V30 3725 H 357.835 1.71377 3.98513 0
M  V30 3726 H 358.506 0.961794 5.43556 0
M  V30 3727 H 360.982 -0.460378 4.13545 0
M  V30 3728 H 359.858 -1.04671 5.38828 0
M  V30 3729 H 360.119 -2.00563 3.93988 0
M  V30 3730 N 359.178 -1.55987 0.224894 0
M  V30 3731 C 360.088 -2.24066 -0.69511 0
M  V30 3732 C 361.104 -1.24939 -1.21104 0
M  V30 3733 O 362.28 -1.5776 -1.25195 0
M  V30 3734 C 359.345 -2.90983 -1.88493 0
M  V30 3735 C 358.406 -4.05462 -1.41064 0
M  V30 3736 C 357.639 -4.69179 -2.54375 0
M  V30 3737 O 357.862 -4.31895 -3.72589 0
M  V30 3738 O 356.796 -5.58108 -2.25386 0
M  V30 3739 H 360.622 -3.03353 -0.145149 0
M  V30 3740 H 358.207 -1.49399 -0.00569476 0
M  V30 3741 H 360.089 -3.33209 -2.57972 0
M  V30 3742 H 358.764 -2.14653 -2.42293 0
M  V30 3743 H 357.671 -3.67798 -0.683774 0
M  V30 3744 H 359.004 -4.83545 -0.918985 0
M  V30 3745 N 360.656 0.0484629 -1.57525 0
M  V30 3746 C 361.905 0.742065 -1.87553 0
M  V30 3747 C 362.218 1.77545 -0.820802 0
M  V30 3748 O 363.424 2.52027 -1.00967 0
M  V30 3749 C 361.88 1.37081 -3.32771 0
M  V30 3750 C 361.488 0.374786 -4.4643 0
M  V30 3751 C 363.232 2.04542 -3.71972 0
M  V30 3752 C 361.139 1.01077 -5.82698 0
M  V30 3753 H 360.069 0.280903 -0.699721 0
M  V30 3754 H 362.72 -0.00411877 -1.835 0
M  V30 3755 H 361.102 2.16605 -3.31509 0
M  V30 3756 H 362.276 -0.392331 -4.59127 0
M  V30 3757 H 360.591 -0.196653 -4.15935 0
M  V30 3758 H 363.188 2.52943 -4.71088 0
M  V30 3759 H 363.531 2.85515 -3.02964 0
M  V30 3760 H 364.064 1.31819 -3.75325 0
M  V30 3761 H 360.803 0.240878 -6.55057 0
M  V30 3762 H 360.323 1.74819 -5.73758 0
M  V30 3763 H 362.002 1.52383 -6.28799 0
M  V30 3764 N 362.134 1.5431 0.320358 0
M  V30 3765 C 363.38 1.72924 1.05949 0
M  V30 3766 C 363.713 0.503185 1.87568 0
M  V30 3767 O 362.988 -0.499839 1.87968 0
M  V30 3768 C 363.271 3.00676 1.98156 0
M  V30 3769 C 363.124 4.3354 1.19845 0
M  V30 3770 C 364.443 3.24198 2.9763 0
M  V30 3771 H 361.562 0.629195 0.383774 0
M  V30 3772 H 364.204 1.87008 0.335854 0
M  V30 3773 H 362.354 2.888 2.59859 0
M  V30 3774 H 364.026 4.57305 0.605773 0
M  V30 3775 H 362.269 4.309 0.500784 0
M  V30 3776 H 362.94 5.19156 1.87567 0
M  V30 3777 H 365.416 3.35557 2.4605 0
M  V30 3778 H 364.292 4.14938 3.59329 0
M  V30 3779 H 364.553 2.41577 3.7026 0
M  V30 3780 N 363.613 -0.582584 1.46437 0
M  V30 3781 C 364.861 -1.33814 1.51453 0
M  V30 3782 C 365.182 -1.94277 0.167792 0
M  V30 3783 O 364.452 -1.78566 -0.805677 0
M  V30 3784 H 363.032 -0.496838 0.557818 0
M  V30 3785 H 365.694 -0.682281 1.82568 0
M  V30 3786 H 364.79 -2.14479 2.26728 0
M  V30 3787 N 365.091 -1.34144 -0.827227 0
M  V30 3788 C 366.34 -1.25602 -1.5782 0
M  V30 3789 C 366.653 0.173445 -1.94829 0
M  V30 3790 O 367.859 0.380984 -2.68814 0
M  V30 3791 C 366.315 -2.20151 -2.84713 0
M  V30 3792 C 365.923 -3.68331 -2.55021 0
M  V30 3793 C 367.667 -2.20508 -3.62735 0
M  V30 3794 C 365.574 -4.54762 -3.78082 0
M  V30 3795 H 364.504 -0.466573 -0.592306 0
M  V30 3796 H 367.155 -1.59283 -0.911116 0
M  V30 3797 H 365.537 -1.79417 -3.53023 0
M  V30 3798 H 366.711 -4.17577 -1.94849 0
M  V30 3799 H 365.026 -3.7038 -1.90283 0
M  V30 3800 H 367.623 -2.82306 -4.54101 0
M  V30 3801 H 367.966 -1.20322 -3.98533 0
M  V30 3802 H 368.499 -2.59664 -3.01362 0
M  V30 3803 H 365.238 -5.55867 -3.47407 0
M  V30 3804 H 364.758 -4.10254 -4.37552 0
M  V30 3805 H 366.437 -4.69153 -4.45538 0
M  V30 3806 N 366.569 1.04691 -1.17803 0
M  V30 3807 C 367.516 2.12557 -0.899343 0
M  V30 3808 C 368.486 1.65339 0.158771 0
M  V30 3809 O 369.671 1.90789 0.0204797 0
M  V30 3810 C 366.811 3.42481 -0.424315 0
M  V30 3811 C 365.924 4.03346 -1.54713 0
M  V30 3812 C 365.059 5.21208 -1.02546 0
M  V30 3813 C 364.098 5.74089 -2.12339 0
M  V30 3814 N 363.235 6.83247 -1.61612 0
M  V30 3815 H 368.075 2.35734 -1.823 0
M  V30 3816 H 365.612 1.1564 -0.909159 0
M  V30 3817 H 367.57 4.16996 -0.130421 0
M  V30 3818 H 366.2 3.19471 0.462377 0
M  V30 3819 H 365.252 3.2622 -1.95664 0
M  V30 3820 H 366.564 4.38628 -2.37501 0
M  V30 3821 H 365.718 6.02812 -0.685718 0
M  V30 3822 H 364.457 4.87414 -0.167084 0
M  V30 3823 H 363.462 4.91111 -2.47165 0
M  V30 3824 H 364.687 6.0993 -2.98601 0
M  V30 3825 H 362.633 6.5134 -0.780533 0
M  V30 3826 H 362.55 7.17559 -2.38003 0
M  V30 3827 H 363.818 7.68491 -1.30545 0
M  V30 3828 N 368.047 0.979072 1.23499 0
M  V30 3829 C 368.957 0.526431 2.28617 0
M  V30 3830 C 369.973 -0.418126 1.68901 0
M  V30 3831 O 371.149 -0.288372 1.99325 0
M  V30 3832 C 368.214 -0.165235 3.46306 0
M  V30 3833 C 367.275 0.82056 4.21385 0
M  V30 3834 C 366.508 0.161807 5.33455 0
M  V30 3835 O 366.731 -1.04742 5.60701 0
M  V30 3836 O 365.665 0.859708 5.95729 0
M  V30 3837 H 369.491 1.4006 2.69475 0
M  V30 3838 H 367.076 0.746643 1.29405 0
M  V30 3839 H 368.958 -0.553287 4.17752 0
M  V30 3840 H 367.633 -1.01419 3.07402 0
M  V30 3841 H 366.54 1.25929 3.52268 0
M  V30 3842 H 367.873 1.63828 4.64135 0
M  V30 3843 N 369.525 -1.3858 0.750561 0
M  V30 3844 C 370.753 -2.04471 0.316098 0
M  V30 3845 C 371.168 -1.56606 -1.05452 0
M  V30 3846 O 370.525 -0.737784 -1.66922 0
M  V30 3847 C 370.576 -3.60025 0.326275 0
M  V30 3848 O 370.297 -4.06133 1.6428 0
M  V30 3849 C 371.798 -4.43131 -0.122429 0
M  V30 3850 H 369.018 -0.65717 0.135528 0
M  V30 3851 H 371.562 -1.77329 1.01857 0
M  V30 3852 H 369.717 -3.86014 -0.327431 0
M  V30 3853 H 370.131 -5.00547 1.56693 0
M  V30 3854 H 371.605 -5.51963 -0.0641473 0
M  V30 3855 H 372.082 -4.23333 -1.16988 0
M  V30 3856 H 372.688 -4.22323 0.50229 0
M  V30 3857 N 371.003 -0.499398 -1.49478 0
M  V30 3858 C 371.935 0.316575 -2.27003 0
M  V30 3859 C 372.948 0.932047 -1.33479 0
M  V30 3860 O 374.137 0.815658 -1.58774 0
M  V30 3861 C 371.237 1.46055 -3.05812 0
M  V30 3862 C 370.41 0.952679 -4.26899 0
M  V30 3863 C 369.469 1.97407 -4.87767 0
M  V30 3864 O 368.495 1.54326 -5.4788 0
M  V30 3865 N 369.697 3.30436 -4.77276 0
M  V30 3866 H 372.462 -0.348168 -2.97671 0
M  V30 3867 H 370.023 -0.33185 -1.58463 0
M  V30 3868 H 372.015 2.14135 -3.43407 0
M  V30 3869 H 370.585 2.02948 -2.37762 0
M  V30 3870 H 369.805 0.0968248 -3.94081 0
M  V30 3871 H 371.093 0.59174 -5.05347 0
M  V30 3872 H 370.491 3.68126 -4.29534 0
M  V30 3873 H 369.048 3.94235 -5.19059 0
M  V30 3874 N 372.481 1.55866 -0.233164 0
M  V30 3875 C 373.428 2.20796 0.67215 0
M  V30 3876 C 374.398 1.16731 1.18166 0
M  V30 3877 O 375.583 1.45129 1.23864 0
M  V30 3878 C 372.723 2.90072 1.86955 0
M  V30 3879 C 371.836 4.08759 1.39786 0
M  V30 3880 C 370.971 4.65787 2.55374 0
M  V30 3881 C 370.01 5.76752 2.04998 0
M  V30 3882 N 369.147 6.28021 3.13901 0
M  V30 3883 H 373.987 2.9779 0.111749 0
M  V30 3884 H 371.524 1.47036 0.0434007 0
M  V30 3885 H 373.482 3.28428 2.57276 0
M  V30 3886 H 372.112 2.15575 2.40265 0
M  V30 3887 H 371.164 3.7581 0.589173 0
M  V30 3888 H 372.476 4.88906 0.98856 0
M  V30 3889 H 371.63 5.06646 3.33758 0
M  V30 3890 H 370.369 3.84828 2.99598 0
M  V30 3891 H 369.374 5.35383 1.25079 0
M  V30 3892 H 370.599 6.59553 1.61759 0
M  V30 3893 H 368.545 5.49971 3.57586 0
M  V30 3894 H 368.462 7.03323 2.7726 0
M  V30 3895 H 369.73 6.73538 3.92386 0
M  V30 3896 N 373.959 -0.0401083 1.57549 0
M  V30 3897 C 375.184 -0.748931 1.93406 0
M  V30 3898 C 375.609 -1.68686 0.832274 0
M  V30 3899 O 374.967 -1.80047 -0.212818 0
M  V30 3900 C 375.015 -1.4916 3.28304 0
M  V30 3901 O 374.119 -2.6042 3.19774 0
M  V30 3902 H 373.46 -0.202212 0.63246 0
M  V30 3903 H 375.99 0.00112086 2.046 0
M  V30 3904 H 376 -1.86395 3.62934 0
M  V30 3905 H 374.675 -0.80364 4.08062 0
M  V30 3906 H 373.252 -2.25808 2.96758 0
M  V30 3907 N 375.437 -1.54477 -0.31217 0
M  V30 3908 C 376.665 -1.77205 -1.068 0
M  V30 3909 C 377.08 -0.526114 -1.81321 0
M  V30 3910 O 376.437 0.503647 -1.75413 0
M  V30 3911 C 376.488 -2.97253 -2.05725 0
M  V30 3912 O 376.209 -4.1703 -1.34228 0
M  V30 3913 C 377.71 -3.32281 -2.93435 0
M  V30 3914 H 374.93 -0.591287 -0.317208 0
M  V30 3915 H 377.474 -2.01398 -0.354834 0
M  V30 3916 H 375.629 -2.753 -2.72559 0
M  V30 3917 H 376.043 -4.84636 -2.00571 0
M  V30 3918 H 377.517 -4.19551 -3.58721 0
M  V30 3919 H 377.994 -2.49945 -3.61143 0
M  V30 3920 H 378.6 -3.56353 -2.32147 0
M  V30 3921 N 376.915 0.57481 -1.46744 0
M  V30 3922 C 378.155 1.34369 -1.54027 0
M  V30 3923 C 378.519 1.91051 -0.190642 0
M  V30 3924 O 379.72 2.68444 -0.138255 0
M  V30 3925 C 377.991 2.43706 -2.61423 0
M  V30 3926 S 379.55 3.30915 -2.88167 0
M  V30 3927 H 376.368 0.45768 -0.544105 0
M  V30 3928 H 378.97 0.659959 -1.84024 0
M  V30 3929 H 377.674 2.0047 -3.58106 0
M  V30 3930 H 377.205 3.16842 -2.33184 0
M  V30 3931 H 379.22 4.42742 -2.24039 0
M  V30 3932 N 378.394 1.34581 0.820102 0
M  V30 3933 C 379.622 1.3018 1.60813 0
M  V30 3934 C 380.037 -0.123551 1.88395 0
M  V30 3935 O 379.394 -1.07148 1.47735 0
M  V30 3936 C 379.445 2.09312 2.94739 0
M  V30 3937 O 379.166 3.46288 2.68358 0
M  V30 3938 C 380.667 2.1234 3.89136 0
M  V30 3939 H 377.887 0.447726 0.499782 0
M  V30 3940 H 380.431 1.77237 1.02017 0
M  V30 3941 H 378.586 1.65889 3.50085 0
M  V30 3942 H 379 3.87227 3.53774 0
M  V30 3943 H 380.474 2.72126 4.80262 0
M  V30 3944 H 380.951 1.11854 4.24718 0
M  V30 3945 H 381.557 2.55864 3.39726 0
M  V30 3946 N 379.872 -1.04064 1.18357 0
M  V30 3947 C 381.12 -1.76915 0.977013 0
M  V30 3948 C 381.441 -1.88624 -0.494577 0
M  V30 3949 O 380.711 -1.41125 -1.3587 0
M  V30 3950 H 379.291 -0.65535 0.358504 0
M  V30 3951 H 381.953 -1.25592 1.49039 0
M  V30 3952 H 381.049 -2.78178 1.41504 0
M  V30 3953 N 381.35 -0.985608 -1.22978 0
M  V30 3954 C 382.596 -0.65836 -1.91816 0
M  V30 3955 C 382.929 0.806692 -1.76653 0
M  V30 3956 O 382.204 1.58252 -1.13078 0
M  V30 3957 C 382.487 -1.056 -3.44268 0
M  V30 3958 C 382.34 -2.57906 -3.68516 0
M  V30 3959 C 383.659 -0.603781 -4.35939 0
M  V30 3960 H 380.778 -0.24065 -0.696604 0
M  V30 3961 H 383.42 -1.22783 -1.44998 0
M  V30 3962 H 381.57 -0.571445 -3.84274 0
M  V30 3963 H 383.242 -3.13976 -3.3796 0
M  V30 3964 H 381.485 -3.00305 -3.13048 0
M  V30 3965 H 382.156 -2.80779 -4.75255 0
M  V30 3966 H 384.632 -1.01987 -4.03408 0
M  V30 3967 H 383.508 -0.910383 -5.41298 0
M  V30 3968 H 383.769 0.495761 -4.39312 0
M  V30 3969 N 382.828 1.3818 -0.7579 0
M  V30 3970 C 383.738 2.3421 -0.135247 0
M  V30 3971 C 384.754 1.59487 0.695683 0
M  V30 3972 O 385.93 1.91657 0.618832 0
M  V30 3973 C 382.995 3.3862 0.744139 0
M  V30 3974 C 382.056 4.2918 -0.101658 0
M  V30 3975 C 381.289 5.28603 0.735851 0
M  V30 3976 O 381.512 5.35166 1.97366 0
M  V30 3977 O 380.446 6.01707 0.152372 0
M  V30 3978 H 384.272 2.8916 -0.928436 0
M  V30 3979 H 381.857 1.40101 -0.518855 0
M  V30 3980 H 383.739 4.02539 1.2466 0
M  V30 3981 H 382.414 2.86019 1.51575 0
M  V30 3982 H 381.321 3.68407 -0.650167 0
M  V30 3983 H 382.654 4.85048 -0.836024 0
M  V30 3984 N 384.306 0.507319 1.49211 0
M  V30 3985 C 385.239 -0.314509 2.26022 0
M  V30 3986 C 386.217 -0.964849 1.30879 0
M  V30 3987 O 387.401 -0.993707 1.6018 0
M  V30 3988 C 384.528 -1.44346 3.06402 0
M  V30 3989 C 383.574 -0.90685 4.16748 0
M  V30 3990 S 384.407 0.207392 5.35098 0
M  V30 3991 C 385.563 -0.924573 6.19033 0
M  V30 3992 H 385.796 0.337416 2.95379 0
M  V30 3993 H 383.329 0.292718 1.516 0
M  V30 3994 H 385.287 -2.09029 3.53295 0
M  V30 3995 H 383.948 -2.06702 2.36502 0
M  V30 3996 H 383.141 -1.75309 4.72528 0
M  V30 3997 H 382.743 -0.33712 3.72478 0
M  V30 3998 H 385.035 -1.82839 6.52362 0
M  V30 3999 H 385.978 -0.405248 7.06939 0
M  V30 4000 H 386.386 -1.19476 5.51712 0
M  V30 4001 N 385.784 -1.5574 0.241426 0
M  V30 4002 C 387.031 -1.9881 -0.384836 0
M  V30 4003 C 387.359 -1.12947 -1.58346 0
M  V30 4004 O 386.614 -0.178993 -1.9488 0
M  V30 4005 C 386.913 -3.47308 -0.843317 0
M  V30 4006 C 386.579 -4.50223 0.246946 0
M  V30 4007 C 385.241 -4.78088 0.546399 0
M  V30 4008 C 387.593 -5.11841 0.983282 0
M  V30 4009 C 384.921 -5.64846 1.58636 0
M  V30 4010 C 387.273 -5.99727 2.01272 0
M  V30 4011 C 385.937 -6.25927 2.31888 0
M  V30 4012 H 385.207 -0.727496 -0.140821 0
M  V30 4013 H 387.854 -1.8831 0.348106 0
M  V30 4014 H 386.159 -3.55112 -1.65537 0
M  V30 4015 H 387.856 -3.78017 -1.33806 0
M  V30 4016 H 384.446 -4.286 0.00340639 0
M  V30 4017 H 388.63 -4.90366 0.765182 0
M  V30 4018 H 383.886 -5.83403 1.82896 0
M  V30 4019 H 388.06 -6.46517 2.58823 0
M  V30 4020 H 385.687 -6.92949 3.12611 0
M  V30 4021 N 387.262 0.0317525 -1.57568 0
M  V30 4022 C 388.678 0.38735 -1.54828 0
M  V30 4023 C 388.878 1.7677 -0.967187 0
M  V30 4024 O 387.934 2.45581 -0.587063 0
M  V30 4025 C 389.247 0.291667 -2.99282 0
M  V30 4026 C 390.795 0.368946 -3.10818 0
M  V30 4027 C 391.27 0.302741 -4.56998 0
M  V30 4028 N 392.761 0.361617 -4.61786 0
M  V30 4029 C 393.496 0.333238 -5.72431 0
M  V30 4030 N 392.992 0.257308 -6.92322 0
M  V30 4031 N 394.785 0.382769 -5.60795 0
M  V30 4032 H 386.936 -0.871609 -1.93692 0
M  V30 4033 H 389.199 -0.331161 -0.888277 0
M  V30 4034 H 388.905 -0.656794 -3.45513 0
M  V30 4035 H 388.779 1.08638 -3.61217 0
M  V30 4036 H 391.166 1.30784 -2.64536 0
M  V30 4037 H 391.247 -0.455066 -2.5172 0
M  V30 4038 H 390.891 -0.632473 -5.03947 0
M  V30 4039 H 390.821 1.14482 -5.14005 0
M  V30 4040 H 393.312 0.422923 -3.75526 0
M  V30 4041 H 393.625 0.24068 -7.72425 0
M  V30 4042 H 391.97 0.223396 -6.94641 0
M  V30 4043 H 395.161 0.44006 -4.66027 0
M  V30 4044 H 395.334 0.357184 -6.47015 0
M  V30 4045 N 388.74 1.54641 0.303973 0
M  V30 4046 C 389.687 1.85386 1.37479 0
M  V30 4047 C 390.657 0.702528 1.50512 0
M  V30 4048 O 391.842 0.950867 1.65418 0
M  V30 4049 C 388.982 2.10413 2.73533 0
M  V30 4050 C 388.095 3.38049 2.68974 0
M  V30 4051 C 387.23 3.52934 3.97002 0
M  V30 4052 C 386.269 4.74373 3.86829 0
M  V30 4053 N 385.406 4.8608 5.06627 0
M  V30 4054 H 390.246 2.76732 1.1056 0
M  V30 4055 H 387.783 1.37034 0.534805 0
M  V30 4056 H 389.741 2.22919 3.52652 0
M  V30 4057 H 388.371 1.22338 2.98719 0
M  V30 4058 H 387.423 3.3418 1.81736 0
M  V30 4059 H 388.735 4.27288 2.57346 0
M  V30 4060 H 387.889 3.65088 4.84557 0
M  V30 4061 H 386.628 2.61824 4.1146 0
M  V30 4062 H 385.633 4.62255 2.97658 0
M  V30 4063 H 386.858 5.66888 3.73918 0
M  V30 4064 H 384.804 3.97891 5.21554 0
M  V30 4065 H 384.721 5.69315 4.9741 0
M  V30 4066 H 385.989 5.02587 5.95841 0
M  V30 4067 N 390.218 -0.567019 1.47046 0
M  V30 4068 C 391.148 -1.68482 1.61667 0
M  V30 4069 C 392.129 -1.6358 0.466418 0
M  V30 4070 O 393.314 -1.81354 0.694574 0
M  V30 4071 C 390.444 -3.07124 1.62148 0
M  V30 4072 C 389.398 -3.26867 2.76301 0
M  V30 4073 C 388.724 -4.66196 2.61849 0
M  V30 4074 C 390.024 -3.13186 4.17986 0
M  V30 4075 H 391.718 -1.56502 2.5524 0
M  V30 4076 H 389.264 -0.751486 1.22836 0
M  V30 4077 H 391.217 -3.8516 1.70968 0
M  V30 4078 H 389.941 -3.2004 0.651287 0
M  V30 4079 H 388.6 -2.51237 2.66975 0
M  V30 4080 H 388.248 -4.75898 1.62879 0
M  V30 4081 H 387.948 -4.80356 3.38425 0
M  V30 4082 H 389.472 -5.46379 2.72584 0
M  V30 4083 H 390.886 -3.81049 4.2834 0
M  V30 4084 H 389.283 -3.3886 4.95272 0
M  V30 4085 H 390.353 -2.10057 4.3704 0
M  V30 4086 N 391.696 -1.35014 -0.812953 0
M  V30 4087 C 392.626 -1.30069 -1.93919 0
M  V30 4088 C 393.607 -0.176275 -1.69184 0
M  V30 4089 O 394.792 -0.370227 -1.90638 0
M  V30 4090 C 391.922 -1.06547 -3.30552 0
M  V30 4091 C 390.876 -2.15561 -3.69753 0
M  V30 4092 C 390.202 -1.77214 -5.04479 0
M  V30 4093 C 391.502 -3.57476 -3.808 0
M  V30 4094 H 393.196 -2.24303 -1.98314 0
M  V30 4095 H 390.742 -1.07977 -0.952736 0
M  V30 4096 H 392.695 -1.01729 -4.08937 0
M  V30 4097 H 391.419 -0.0875719 -3.26483 0
M  V30 4098 H 390.078 -2.19466 -2.9365 0
M  V30 4099 H 389.726 -0.780589 -4.96906 0
M  V30 4100 H 389.426 -2.50184 -5.31678 0
M  V30 4101 H 390.95 -1.7391 -5.8531 0
M  V30 4102 H 392.364 -3.55929 -4.4943 0
M  V30 4103 H 390.761 -4.29152 -4.19462 0
M  V30 4104 H 391.831 -3.94091 -2.82525 0
M  V30 4105 N 393.175 1.03435 -1.18907 0
M  V30 4106 C 394.452 1.73778 -0.89781 0
M  V30 4107 C 394.832 2.02458 0.597832 0
M  V30 4108 O 394.18 1.67482 1.55441 0
M  V30 4109 C 394.39 3.01845 -1.75187 0
M  V30 4110 C 395.738 3.7546 -1.9828 0
M  V30 4111 O 396.762 3.11759 -1.72293 0
M  V30 4112 O 395.621 4.89966 -2.42065 0
M  V30 4113 H 392.715 0.75651 -0.334098 0
M  V30 4114 H 395.261 1.09444 -1.29693 0
M  V30 4115 H 394.033 2.76836 -2.76545 0
M  V30 4116 H 393.656 3.73919 -1.35167 0
M  V30 4117 N 394.653 0.992116 1.22453 0
M  V30 4118 C 395.563 0.55065 2.28046 0
M  V30 4119 C 396.579 -0.400189 1.69335 0
M  V30 4120 O 397.755 -0.267215 1.99619 0
M  V30 4121 C 394.82 -0.128496 3.46462 0
M  V30 4122 C 393.881 0.865208 4.20491 0
M  V30 4123 C 393.114 0.218377 5.33253 0
M  V30 4124 O 393.337 -0.987894 5.6178 0
M  V30 4125 O 392.271 0.922845 5.94783 0
M  V30 4126 H 396.097 1.4291 2.67975 0
M  V30 4127 H 393.682 0.760326 1.28606 0
M  V30 4128 H 395.564 -0.508947 4.18315 0
M  V30 4129 H 394.239 -0.981526 3.0846 0
M  V30 4130 H 393.146 1.29658 3.50913 0
M  V30 4131 H 394.479 1.68741 4.62371 0
M  V30 4132 N 396.131 -1.37776 0.765217 0
M  V30 4133 C 397.379 -1.99454 0.325943 0
M  V30 4134 C 397.7 -1.61049 -1.09947 0
M  V30 4135 O 396.97 -0.872821 -1.75381 0
M  V30 4136 H 395.55 -0.737697 0.117525 0
M  V30 4137 H 398.212 -1.68359 0.981895 0
M  V30 4138 H 397.308 -3.09547 0.398353 0
M  V30 4139 N 397.609 -0.515225 -1.4894 0
M  V30 4140 C 399.025 -0.172099 -1.58669 0
M  V30 4141 C 399.225 1.32405 -1.51892 0
M  V30 4142 O 398.281 2.10116 -1.40027 0
M  V30 4143 C 399.594 -0.761533 -2.90897 0
M  V30 4144 C 401.142 -0.728926 -3.04394 0
M  V30 4145 C 401.617 -1.29667 -4.39261 0
M  V30 4146 N 403.108 -1.25799 -4.4579 0
M  V30 4147 C 403.843 -1.66733 -5.48623 0
M  V30 4148 N 403.339 -2.15327 -6.58488 0
M  V30 4149 N 405.132 -1.58061 -5.39419 0
M  V30 4150 H 397.283 -1.48778 -1.51588 0
M  V30 4151 H 399.546 -0.617968 -0.718901 0
M  V30 4152 H 399.252 -1.81136 -3.01468 0
M  V30 4153 H 399.126 -0.230106 -3.76497 0
M  V30 4154 H 401.513 0.312098 -2.93445 0
M  V30 4155 H 401.594 -1.29766 -2.20442 0
M  V30 4156 H 401.238 -2.33655 -4.50963 0
M  V30 4157 H 401.168 -0.703752 -5.21876 0
M  V30 4158 H 403.659 -0.902102 -3.66975 0
M  V30 4159 H 403.972 -2.44594 -7.33071 0
M  V30 4160 H 402.317 -2.19311 -6.59491 0
M  V30 4161 H 405.508 -1.19906 -4.52482 0
M  V30 4162 H 405.681 -1.90284 -6.19432 0
M  V30 4163 N 399.087 1.5561 -0.249682 0
M  V30 4164 C 400.05 2.20217 0.635394 0
M  V30 4165 C 401.05 1.17227 1.10066 0
M  V30 4166 O 402.24 1.42292 1.00492 0
M  V30 4167 C 399.372 2.84794 1.87363 0
M  V30 4168 H 400.565 2.99814 0.0716752 0
M  V30 4169 H 398.118 1.563 -0.000153234 0
M  V30 4170 H 398.853 2.09142 2.47851 0
M  V30 4171 H 398.638 3.60241 1.5482 0
M  V30 4172 H 400.128 3.3423 2.5036 0
M  V30 4173 N 400.565 -0.0233959 1.57583 0
M  V30 4174 C 401.813 -0.711654 1.89156 0
M  V30 4175 C 402.134 -1.75591 0.848096 0
M  V30 4176 O 401.404 -1.95547 -0.117566 0
M  V30 4177 H 399.984 -0.265835 0.698098 0
M  V30 4178 H 402.646 0.0119948 1.94896 0
M  V30 4179 H 401.742 -1.19766 2.88206 0
M  V30 4180 N 402.043 -1.548 -0.295768 0
M  V30 4181 C 402.953 -1.89177 -1.38742 0
M  V30 4182 C 403.969 -0.786481 -1.55211 0
M  V30 4183 O 405.145 -1.08344 -1.69775 0
M  V30 4184 C 402.21 -2.13663 -2.73036 0
M  V30 4185 C 401.271 -3.37349 -2.65508 0
M  V30 4186 C 400.504 -3.60658 -3.93398 0
M  V30 4187 O 400.727 -2.86882 -4.93006 0
M  V30 4188 O 399.661 -4.54179 -3.94975 0
M  V30 4189 H 403.487 -2.82059 -1.12589 0
M  V30 4190 H 401.072 -1.41056 -0.492295 0
M  V30 4191 H 402.954 -2.3094 -3.52484 0
M  V30 4192 H 401.629 -1.23967 -2.99022 0
M  V30 4193 H 400.536 -3.25431 -1.84514 0
M  V30 4194 H 401.869 -4.27192 -2.44474 0
M  V30 4195 N 403.521 0.559213 -1.47345 0
M  V30 4196 C 404.469 1.68747 -1.60085 0
M  V30 4197 C 405.463 1.628 -0.46825 0
M  V30 4198 O 406.669 1.68009 -0.645977 0
M  V30 4199 H 403.044 0.558329 -0.503759 0
M  V30 4200 H 405.015 1.55138 -2.54902 0
M  V30 4201 C 403.764 3.07103 -1.63042 0
M  V30 4202 H 403.087 3.12361 -2.49541 0
M  V30 4203 H 404.527 3.85743 -1.76006 0
M  V30 4204 C 402.986 3.34935 -0.363357 0
M  V30 4205 O 403.516 3.98102 0.536416 0
M  V30 4206 N 401.722 2.89574 -0.244 0
M  V30 4207 H 401.269 2.38348 -0.977133 0
M  V30 4208 H 401.227 3.08566 0.602836 0
M  V30 4209 N 404.999 1.35443 0.805782 0
M  V30 4210 C 406.245 1.28952 1.56522 0
M  V30 4211 C 406.578 -0.135597 1.93726 0
M  V30 4212 O 405.853 -1.08516 1.61414 0
M  V30 4213 C 406.136 2.19678 2.85331 0
M  V30 4214 C 405.989 3.7081 2.54598 0
M  V30 4215 C 407.308 2.09495 3.8704 0
M  V30 4216 H 404.427 0.469764 0.567883 0
M  V30 4217 H 407.069 1.65851 0.927001 0
M  V30 4218 H 405.219 1.8834 3.39795 0
M  V30 4219 H 406.891 4.12593 2.06312 0
M  V30 4220 H 405.134 3.91051 1.8778 0
M  V30 4221 H 405.805 4.29679 3.46525 0
M  V30 4222 H 408.281 2.37045 3.41978 0
M  V30 4223 H 407.157 2.75173 4.74943 0
M  V30 4224 H 407.418 1.07714 4.28777 0
M  V30 4225 N 406.477 -1.02803 1.19454 0
M  V30 4226 C 407.725 -1.75869 0.995722 0
M  V30 4227 C 408.046 -1.89138 -0.474543 0
M  V30 4228 O 407.316 -1.42558 -1.34366 0
M  V30 4229 H 405.896 -0.651511 0.365435 0
M  V30 4230 H 408.558 -1.24004 1.50363 0
M  V30 4231 H 407.654 -2.76661 1.44447 0
M  V30 4232 N 407.956 -0.998596 -1.21925 0
M  V30 4233 C 409.202 -0.678667 -1.91107 0
M  V30 4234 C 409.535 0.78791 -1.77498 0
M  V30 4235 O 408.81 1.57043 -1.1475 0
M  V30 4236 C 409.093 -1.09245 -3.43129 0
M  V30 4237 C 408.946 -2.61801 -3.6576 0
M  V30 4238 C 410.265 -0.649984 -4.35274 0
M  V30 4239 H 407.384 -0.248025 -0.694012 0
M  V30 4240 H 410.026 -1.24314 -1.43688 0
M  V30 4241 H 408.176 -0.612171 -3.83647 0
M  V30 4242 H 409.848 -3.17543 -3.34611 0
M  V30 4243 H 408.091 -3.03609 -3.09845 0
M  V30 4244 H 408.762 -2.85804 -4.7225 0
M  V30 4245 H 411.238 -1.0626 -4.02303 0
M  V30 4246 H 410.114 -0.967743 -5.40302 0
M  V30 4247 H 410.375 0.449139 -4.39813 0
M  V30 4248 N 409.434 1.37368 -0.772513 0
M  V30 4249 C 410.364 2.32856 -0.173304 0
M  V30 4250 C 411.345 1.55818 0.682262 0
M  V30 4251 O 412.53 1.84052 0.619566 0
M  V30 4252 C 409.66 3.40048 0.706007 0
M  V30 4253 C 408.614 4.27973 -0.0483144 0
M  V30 4254 C 407.94 5.26184 0.950491 0
M  V30 4255 C 409.24 5.07665 -1.22776 0
M  V30 4256 H 410.934 2.83217 -0.971002 0
M  V30 4257 H 408.48 1.3617 -0.468377 0
M  V30 4258 H 410.433 4.05827 1.13501 0
M  V30 4259 H 409.157 2.88214 1.53623 0
M  V30 4260 H 407.816 3.63726 -0.458107 0
M  V30 4261 H 407.464 4.7063 1.77529 0
M  V30 4262 H 407.164 5.85872 0.450314 0
M  V30 4263 H 408.688 5.94838 1.37842 0
M  V30 4264 H 410.102 5.66578 -0.875366 0
M  V30 4265 H 408.499 5.76681 -1.66007 0
M  V30 4266 H 409.569 4.40294 -2.03149 0
M  V30 4267 N 410.912 0.523116 1.48665 0
M  V30 4268 C 411.842 -0.23231 2.32342 0
M  V30 4269 C 412.823 -0.941637 1.41659 0
M  V30 4270 O 414.008 -0.928751 1.70552 0
M  V30 4271 C 411.138 -1.28387 3.22698 0
M  V30 4272 C 410.092 -0.693098 4.22351 0
M  V30 4273 C 409.418 -1.8468 5.01794 0
M  V30 4274 C 410.718 0.33063 5.21252 0
M  V30 4275 H 412.412 0.466192 2.95748 0
M  V30 4276 H 409.958 0.225643 1.42221 0
M  V30 4277 H 411.911 -1.82024 3.80059 0
M  V30 4278 H 410.635 -2.01186 2.57278 0
M  V30 4279 H 409.294 -0.178299 3.66166 0
M  V30 4280 H 408.942 -2.56301 4.32804 0
M  V30 4281 H 408.642 -1.45747 5.69238 0
M  V30 4282 H 410.166 -2.38709 5.62006 0
M  V30 4283 H 411.58 -0.118407 5.73178 0
M  V30 4284 H 409.977 0.636974 5.9671 0
M  V30 4285 H 411.047 1.23883 4.68808 0
M  V30 4286 N 412.39 -1.55475 0.257931 0
M  V30 4287 C 413.806 -1.59307 -0.0966563 0
M  V30 4288 C 414.006 -1.27514 -1.5602 0
M  V30 4289 O 413.062 -1.02774 -2.30637 0
M  V30 4290 C 414.375 -2.99552 0.262481 0
M  V30 4291 C 415.923 -3.1231 0.207683 0
M  V30 4292 C 416.398 -4.54793 0.541012 0
M  V30 4293 N 417.889 -4.6058 0.491921 0
M  V30 4294 C 418.624 -5.68825 0.722857 0
M  V30 4295 N 418.12 -6.85287 1.0175 0
M  V30 4296 N 419.913 -5.58296 0.652815 0
M  V30 4297 H 412.064 -1.74409 1.21224 0
M  V30 4298 H 414.327 -0.812424 0.48854 0
M  V30 4299 H 414.033 -3.27593 1.27967 0
M  V30 4300 H 413.907 -3.75019 -0.40508 0
M  V30 4301 H 416.294 -2.84044 -0.800195 0
M  V30 4302 H 416.375 -2.39095 0.909255 0
M  V30 4303 H 416.019 -4.83783 1.5465 0
M  V30 4304 H 415.949 -5.26285 -0.18216 0
M  V30 4305 H 418.44 -3.7691 0.273366 0
M  V30 4306 H 418.753 -7.63725 1.18084 0
M  V30 4307 H 417.098 -6.86945 1.05509 0
M  V30 4308 H 420.289 -4.66189 0.422592 0
M  V30 4309 H 420.462 -6.42582 0.836182 0
M  V30 4310 N 413.868 0.0150385 -1.57593 0
M  V30 4311 C 415.116 0.701613 -1.8953 0
M  V30 4312 C 415.437 1.75139 -0.857396 0
M  V30 4313 O 414.707 1.95607 0.107194 0
M  V30 4314 H 413.287 0.26213 -0.699498 0
M  V30 4315 H 415.949 -0.0223304 -1.94887 0
M  V30 4316 H 415.045 1.18236 -2.88837 0
M  V30 4317 N 415.346 1.54954 0.287554 0
M  V30 4318 C 416.595 1.74081 1.01877 0
M  V30 4319 C 416.908 0.541135 1.87966 0
M  V30 4320 O 418.114 0.614491 2.64455 0
M  V30 4321 C 416.57 3.08042 1.86113 0
M  V30 4322 C 416.178 4.35531 1.04961 0
M  V30 4323 C 417.922 3.36523 2.58752 0
M  V30 4324 C 415.829 5.60538 1.88551 0
M  V30 4325 H 414.759 0.64884 0.384087 0
M  V30 4326 H 417.41 1.81426 0.275101 0
M  V30 4327 H 415.792 2.94696 2.64519 0
M  V30 4328 H 416.966 4.59751 0.31074 0
M  V30 4329 H 415.281 4.14085 0.43843 0
M  V30 4330 H 417.878 4.27122 3.21668 0
M  V30 4331 H 418.221 2.56 3.28283 0
M  V30 4332 H 418.754 3.50901 1.87386 0
M  V30 4333 H 415.493 6.43767 1.23466 0
M  V30 4334 H 415.013 5.40483 2.60074 0
M  V30 4335 H 416.692 5.98297 2.46273 0
M  V30 4336 N 416.824 -0.551391 1.4764 0
M  V30 4337 C 417.771 -1.65796 1.60563 0
M  V30 4338 C 418.741 -1.59932 0.448428 0
M  V30 4339 O 419.926 -1.78679 0.669222 0
M  V30 4340 C 417.066 -3.04108 1.63133 0
M  V30 4341 C 416.179 -3.20365 2.89811 0
M  V30 4342 C 415.314 -4.49109 2.8368 0
M  V30 4343 C 414.353 -4.58819 4.05156 0
M  V30 4344 N 413.49 -5.78926 3.97227 0
M  V30 4345 H 418.33 -1.54088 2.5507 0
M  V30 4346 H 415.867 -0.75052 1.26513 0
M  V30 4347 H 417.825 -3.84207 1.62606 0
M  V30 4348 H 416.455 -3.14637 0.721341 0
M  V30 4349 H 415.507 -2.33659 3.00179 0
M  V30 4350 H 416.819 -3.23402 3.79753 0
M  V30 4351 H 415.973 -5.37475 2.81434 0
M  V30 4352 H 414.712 -4.4856 1.91431 0
M  V30 4353 H 413.717 -3.68864 4.077 0
M  V30 4354 H 414.942 -4.61124 4.98539 0
M  V30 4355 H 412.888 -5.79314 3.07785 0
M  V30 4356 H 412.805 -5.83367 4.80853 0
M  V30 4357 H 414.073 -6.69637 3.99007 0
M  V30 4358 N 418.302 -1.35869 -0.798587 0
M  V30 4359 C 419.718 -1.16082 -1.09532 0
M  V30 4360 C 419.918 0.0213124 -2.01489 0
M  V30 4361 O 418.974 0.689488 -2.42904 0
M  V30 4362 C 420.287 -2.46748 -1.7186 0
M  V30 4363 C 421.835 -2.53028 -1.84244 0
M  V30 4364 C 422.31 -3.83758 -2.49988 0
M  V30 4365 N 423.801 -3.85053 -2.57465 0
M  V30 4366 C 424.536 -4.8294 -3.09122 0
M  V30 4367 N 424.032 -5.91217 -3.61157 0
M  V30 4368 N 425.825 -4.70369 -3.0775 0
M  V30 4369 H 417.976 -2.11571 -0.187461 0
M  V30 4370 H 420.239 -0.936726 -0.145765 0
M  V30 4371 H 419.945 -3.33471 -1.11759 0
M  V30 4372 H 419.819 -2.61883 -2.71472 0
M  V30 4373 H 422.206 -1.66729 -2.43486 0
M  V30 4374 H 422.287 -2.418 -0.834643 0
M  V30 4375 H 421.931 -4.70459 -1.91393 0
M  V30 4376 H 421.861 -3.92278 -3.5132 0
M  V30 4377 H 424.352 -3.06822 -2.20609 0
M  V30 4378 H 424.665 -6.61892 -3.98896 0
M  V30 4379 H 423.01 -5.94899 -3.59333 0
M  V30 4380 H 426.201 -3.84914 -2.66381 0
M  V30 4381 H 426.374 -5.46816 -3.47701 0
M  V30 4382 N 419.78 1.02168 -1.19998 0
M  V30 4383 C 420.69 2.14069 -0.959774 0
M  V30 4384 C 421.706 1.73804 0.082655 0
M  V30 4385 O 422.882 2.01133 -0.103633 0
M  V30 4386 C 419.947 3.42936 -0.509459 0
M  V30 4387 C 419.008 3.97474 -1.62213 0
M  V30 4388 C 418.241 5.2019 -1.19321 0
M  V30 4389 O 418.464 5.70369 -0.0597726 0
M  V30 4390 O 417.398 5.67749 -1.99863 0
M  V30 4391 H 421.224 2.37199 -1.89658 0
M  V30 4392 H 418.809 1.12469 -0.983411 0
M  V30 4393 H 420.691 4.20551 -0.267322 0
M  V30 4394 H 419.366 3.21234 0.398821 0
M  V30 4395 H 418.273 3.21161 -1.9185 0
M  V30 4396 H 419.606 4.23555 -2.50723 0
M  V30 4397 N 421.258 1.00505 1.21394 0
M  V30 4398 C 422.168 0.574806 2.27449 0
M  V30 4399 C 423.184 -0.382206 1.6975 0
M  V30 4400 O 424.36 -0.246027 1.99892 0
M  V30 4401 C 421.425 -0.0917414 3.46579 0
M  V30 4402 C 420.486 0.909758 4.1955 0
M  V30 4403 C 419.719 0.274924 5.32991 0
M  V30 4404 O 419.942 -0.928254 5.62796 0
M  V30 4405 O 418.876 0.985877 5.93771 0
M  V30 4406 H 422.702 1.45744 2.66444 0
M  V30 4407 H 420.287 0.773923 1.27792 0
M  V30 4408 H 422.169 -0.464551 4.18832 0
M  V30 4409 H 420.844 -0.948755 3.09484 0
M  V30 4410 H 419.751 1.33372 3.49518 0
M  V30 4411 H 421.084 1.73636 4.60555 0
M  V30 4412 N 422.737 -1.36956 0.779787 0
M  V30 4413 C 423.986 -1.98738 0.344405 0
M  V30 4414 C 424.299 -1.62596 -1.08728 0
M  V30 4415 O 425.505 -2.1754 -1.62445 0
M  V30 4416 C 423.961 -3.5544 0.564829 0
M  V30 4417 C 423.569 -4.00514 2.0073 0
M  V30 4418 C 425.313 -4.24059 0.193471 0
M  V30 4419 C 423.22 -5.49957 2.17489 0
M  V30 4420 H 422.15 -0.743561 0.12503 0
M  V30 4421 H 424.801 -1.56381 0.960057 0
M  V30 4422 H 423.183 -3.95817 -0.120397 0
M  V30 4423 H 424.357 -3.71362 2.72814 0
M  V30 4424 H 422.672 -3.44703 2.336 0
M  V30 4425 H 425.269 -5.33874 0.297097 0
M  V30 4426 H 425.612 -4.07378 -0.857263 0
M  V30 4427 H 426.145 -3.89012 0.831556 0
M  V30 4428 H 422.884 -5.71574 3.2091 0
M  V30 4429 H 422.404 -5.80767 1.49899 0
M  V30 4430 H 424.083 -6.16043 1.97738 0
M  V30 4431 N 424.215 -0.530993 -1.48385 0
M  V30 4432 C 425.125 0.23503 -2.3342 0
M  V30 4433 C 426.141 0.93801 -1.46552 0
M  V30 4434 O 427.317 0.912745 -1.7953 0
M  V30 4435 C 424.382 1.26778 -3.22689 0
M  V30 4436 C 423.443 0.575038 -4.25431 0
M  V30 4437 C 422.676 1.55858 -5.10435 0
M  V30 4438 O 422.899 2.79129 -4.97437 0
M  V30 4439 O 421.833 1.09742 -5.91811 0
M  V30 4440 H 425.659 -0.461794 -3.00169 0
M  V30 4441 H 423.244 -0.291903 -1.46521 0
M  V30 4442 H 425.126 1.86457 -3.77904 0
M  V30 4443 H 423.801 1.94699 -2.586 0
M  V30 4444 H 422.708 -0.0622782 -3.74048 0
M  V30 4445 H 424.041 -0.062253 -4.92161 0
M  V30 4446 N 425.693 1.55336 -0.266172 0
M  V30 4447 C 427.109 1.59356 0.0882065 0
M  V30 4448 C 427.309 1.2834 1.55342 0
M  V30 4449 O 426.365 1.03996 2.30089 0
M  V30 4450 C 427.678 2.99409 -0.278364 0
M  V30 4451 C 429.226 3.12196 -0.224243 0
M  V30 4452 C 429.701 4.545 -0.565123 0
M  V30 4453 N 431.192 4.60313 -0.51634 0
M  V30 4454 C 431.927 5.68434 -0.753013 0
M  V30 4455 N 431.423 6.84738 -1.05383 0
M  V30 4456 N 433.216 5.57942 -0.682414 0
M  V30 4457 H 425.367 1.73764 -1.22147 0
M  V30 4458 H 427.63 0.809822 -0.492841 0
M  V30 4459 H 427.336 3.2691 -1.29703 0
M  V30 4460 H 427.21 3.75228 0.385186 0
M  V30 4461 H 429.597 2.84464 0.78512 0
M  V30 4462 H 429.678 2.38609 -0.921922 0
M  V30 4463 H 429.322 4.82956 -1.57213 0
M  V30 4464 H 429.252 5.26374 0.154248 0
M  V30 4465 H 431.743 3.7676 -0.29335 0
M  V30 4466 H 432.056 7.63088 -1.22133 0
M  V30 4467 H 430.401 6.86375 -1.09151 0
M  V30 4468 H 433.592 4.65958 -0.44731 0
M  V30 4469 H 433.765 6.4213 -0.870248 0
M  V30 4470 N 427.171 -0.0066808 1.57599 0
M  V30 4471 C 428.419 -0.691552 1.899 0
M  V30 4472 C 428.74 -1.74682 0.866672 0
M  V30 4473 O 428.01 -1.95661 -0.0968189 0
M  V30 4474 H 426.59 -0.258416 0.700878 0
M  V30 4475 H 429.252 0.0326655 1.94873 0
M  V30 4476 H 428.348 -1.16702 2.8946 0
M  V30 4477 N 428.649 -1.55105 -0.279332 0
M  V30 4478 C 429.581 -1.83952 -1.36727 0
M  V30 4479 C 430.594 -0.723642 -1.45833 0
M  V30 4480 O 431.783 -1.00141 -1.47763 0
M  V30 4481 C 428.883 -1.98183 -2.74912 0
M  V30 4482 C 428.056 -3.28787 -2.88475 0
M  V30 4483 C 427.115 -3.33162 -4.07295 0
M  V30 4484 O 426.141 -4.06576 -3.98353 0
M  V30 4485 N 427.343 -2.60109 -5.18964 0
M  V30 4486 H 430.108 -2.77853 -1.12328 0
M  V30 4487 H 427.669 -1.54945 -0.469442 0
M  V30 4488 H 429.661 -1.98488 -3.52682 0
M  V30 4489 H 428.231 -1.11177 -2.92162 0
M  V30 4490 H 427.451 -3.41075 -1.97641 0
M  V30 4491 H 428.739 -4.14933 -2.94463 0
M  V30 4492 H 428.137 -2.00136 -5.29115 0
M  V30 4493 H 426.694 -2.66143 -5.94988 0
M  V30 4494 N 430.127 0.543554 -1.4793 0
M  V30 4495 C 431.373 1.30201 -1.55485 0
M  V30 4496 C 431.706 1.92925 -0.222201 0
M  V30 4497 O 430.981 1.78586 0.77053 0
M  V30 4498 C 431.264 2.40174 -2.68307 0
M  V30 4499 C 431.117 1.8223 -4.11233 0
M  V30 4500 C 432.436 3.42024 -2.76961 0
M  V30 4501 H 429.555 0.472036 -0.565996 0
M  V30 4502 H 432.197 0.606914 -1.80046 0
M  V30 4503 H 430.347 2.99463 -2.47495 0
M  V30 4504 H 432.019 1.27096 -4.43446 0
M  V30 4505 H 430.262 1.12832 -4.18869 0
M  V30 4506 H 430.933 2.61793 -4.85972 0
M  V30 4507 H 433.409 2.92672 -2.95774 0
M  V30 4508 H 432.285 4.16383 -3.57654 0
M  V30 4509 H 432.546 4.0173 -1.84568 0
M  V30 4510 N 431.605 1.3629 0.791371 0
M  V30 4511 C 432.535 1.33137 1.91825 0
M  V30 4512 C 433.516 0.203168 1.68882 0
M  V30 4513 O 434.701 0.400509 1.90025 0
M  V30 4514 C 431.831 1.11793 3.28816 0
M  V30 4515 C 430.785 2.21417 3.66277 0
M  V30 4516 C 430.111 1.85218 5.01596 0
M  V30 4517 C 431.411 3.63489 3.75064 0
M  V30 4518 H 433.105 2.2743 1.9472 0
M  V30 4519 H 430.651 1.09479 0.935437 0
M  V30 4520 H 432.604 1.08222 4.07266 0
M  V30 4521 H 431.328 0.139501 3.26302 0
M  V30 4522 H 429.987 2.2411 2.90121 0
M  V30 4523 H 429.635 0.859544 4.95602 0
M  V30 4524 H 429.335 2.58611 5.27631 0
M  V30 4525 H 430.859 1.832 5.82469 0
M  V30 4526 H 432.273 3.63034 4.43711 0
M  V30 4527 H 430.67 4.35771 4.12582 0
M  V30 4528 H 431.74 3.98536 2.76219 0
M  V30 4529 N 433.083 -1.0153 1.20538 0
M  V30 4530 C 434.046 -2.0826 0.957098 0
M  V30 4531 C 435.046 -1.60657 -0.0678655 0
M  V30 4532 O 436.236 -1.73385 0.168332 0
M  V30 4533 C 433.368 -3.38033 0.441188 0
M  V30 4534 H 434.561 -2.31719 1.90384 0
M  V30 4535 H 432.114 -1.1835 1.02093 0
M  V30 4536 H 432.849 -3.20249 -0.510961 0
M  V30 4537 H 432.634 -3.73911 1.18038 0
M  V30 4538 H 434.124 -4.16613 0.287009 0
M  V30 4539 N 434.561 -1.01147 -1.20859 0
M  V30 4540 C 435.508 -0.577354 -2.23462 0
M  V30 4541 C 436.478 0.399922 -1.61214 0
M  V30 4542 O 437.663 0.300515 -1.88419 0
M  V30 4543 C 434.803 0.083372 -3.44999 0
M  V30 4544 C 433.916 -0.937856 -4.21697 0
M  V30 4545 C 433.051 -0.248717 -5.30617 0
M  V30 4546 C 432.09 -1.25705 -5.99053 0
M  V30 4547 N 431.227 -0.594939 -6.99575 0
M  V30 4548 H 436.067 -1.45695 -2.59956 0
M  V30 4549 H 433.604 -0.729428 -1.27741 0
M  V30 4550 H 435.562 0.483535 -4.14388 0
M  V30 4551 H 434.192 0.926645 -3.09214 0
M  V30 4552 H 433.244 -1.45622 -3.51423 0
M  V30 4553 H 434.556 -1.70493 -4.68757 0
M  V30 4554 H 433.71 0.207215 -6.06346 0
M  V30 4555 H 432.449 0.55071 -4.84581 0
M  V30 4556 H 431.454 -1.72343 -5.2209 0
M  V30 4557 H 432.679 -2.05767 -6.47176 0
M  V30 4558 H 430.625 0.184713 -6.5574 0
M  V30 4559 H 430.542 -1.30017 -7.44736 0
M  V30 4560 H 431.81 -0.162427 -7.79331 0
M  V30 4561 N 436.039 1.36541 -0.78704 0
M  V30 4562 C 437.45 1.81873 -0.421807 0
M  V30 4563 C 437.801 1.65487 1.05397 0
M  V30 4564 O 436.926 1.17448 1.81755 0
M  V30 4565 C 437.521 3.30192 -0.758841 0
M  V30 4566 C 436.08 3.73743 -0.446468 0
M  V30 4567 C 435.227 2.58844 -0.994728 0
M  V30 4568 H 438.178 1.24796 -0.98039 0
M  V30 4569 H 438.199 3.80468 -0.0490648 0
M  V30 4570 H 437.711 3.42087 -1.83299 0
M  V30 4571 H 435.812 3.6741 0.619739 0
M  V30 4572 H 435.925 4.69272 -0.965415 0
M  V30 4573 H 434.289 2.51245 -0.418087 0
M  V30 4574 H 435.072 2.73525 -2.07458 0
M  V30 4575 N 437.518 0.538854 1.48102 0
M  V30 4576 C 438.766 0.00798599 2.02098 0
M  V30 4577 C 439.087 -1.33922 1.41739 0
M  V30 4578 O 438.357 -1.86932 0.585934 0
M  V30 4579 H 436.937 -3.62179e-05 0.747 0
M  V30 4580 H 439.599 0.7047 1.81714 0
M  V30 4581 H 438.695 -0.0937672 3.11959 0
M  V30 4582 N 438.996 -1.55193 0.274407 0
M  V30 4583 C 440.224 -2.03987 -0.345943 0
M  V30 4584 C 440.639 -1.15279 -1.4952 0
M  V30 4585 O 439.996 -0.172759 -1.8168 0
M  V30 4586 C 440.047 -3.51898 -0.827631 0
M  V30 4587 O 439.768 -4.37231 0.275855 0
M  V30 4588 C 441.269 -4.16577 -1.51587 0
M  V30 4589 H 438.489 -0.666335 -0.0789892 0
M  V30 4590 H 441.033 -2.00423 0.406294 0
M  V30 4591 H 439.188 -3.55909 -1.52996 0
M  V30 4592 H 439.602 -5.24415 -0.0943638 0
M  V30 4593 H 441.076 -5.21678 -1.80433 0
M  V30 4594 H 441.553 -3.64707 -2.44716 0
M  V30 4595 H 442.159 -4.16568 -0.857409 0
M  V30 4596 N 440.474 -0.00167713 -1.576 0
M  V30 4597 C 441.723 0.682021 -1.89819 0
M  V30 4598 C 442.036 1.74844 -0.876871 0
M  V30 4599 O 443.242 2.48688 -1.08934 0
M  V30 4600 C 441.698 1.26425 -3.36964 0
M  V30 4601 C 441.306 0.232568 -4.47396 0
M  V30 4602 C 443.05 1.92604 -3.78291 0
M  V30 4603 C 440.957 0.824882 -5.85619 0
M  V30 4604 H 439.887 0.258499 -0.708304 0
M  V30 4605 H 442.538 -0.0624957 -1.83394 0
M  V30 4606 H 440.92 2.05949 -3.38232 0
M  V30 4607 H 442.094 -0.5382 -4.57646 0
M  V30 4608 H 440.409 -0.32888 -4.15099 0
M  V30 4609 H 443.006 2.37827 -4.78897 0
M  V30 4610 H 443.349 2.75732 -3.11894 0
M  V30 4611 H 443.882 1.19812 -3.79328 0
M  V30 4612 H 440.621 0.0323542 -6.55492 0
M  V30 4613 H 440.141 1.56477 -5.79029 0
M  V30 4614 H 441.82 1.32301 -6.33329 0
M  V30 4615 N 441.952 1.55251 0.271103 0
M  V30 4616 C 442.899 1.88261 1.33516 0
M  V30 4617 C 443.869 0.734296 1.48988 0
M  V30 4618 O 445.054 0.985741 1.63364 0
M  V30 4619 C 442.194 2.16168 2.69008 0
M  V30 4620 C 441.307 3.43678 2.61743 0
M  V30 4621 C 440.442 3.61276 3.89427 0
M  V30 4622 C 439.481 4.82472 3.7668 0
M  V30 4623 N 438.618 4.96717 4.96202 0
M  V30 4624 H 443.458 2.79015 1.04665 0
M  V30 4625 H 440.995 1.38137 0.505618 0
M  V30 4626 H 442.953 2.30349 3.47844 0
M  V30 4627 H 441.583 1.28646 2.96057 0
M  V30 4628 H 440.635 3.37959 1.74607 0
M  V30 4629 H 441.947 4.3265 2.48224 0
M  V30 4630 H 441.101 3.75284 4.76704 0
M  V30 4631 H 439.84 2.70492 4.05814 0
M  V30 4632 H 438.845 4.68465 2.87786 0
M  V30 4633 H 440.07 5.74692 3.61809 0
M  V30 4634 H 438.016 4.08865 5.12997 0
M  V30 4635 H 437.933 5.79738 4.85222 0
M  V30 4636 H 439.201 5.15113 5.85046 0
M  V30 4637 N 443.43 -0.535701 1.48216 0
M  V30 4638 C 444.841 -1.11769 1.49548 0
M  V30 4639 C 445.192 -1.94442 0.26207 0
M  V30 4640 O 444.317 -2.06987 -0.631287 0
M  V30 4641 C 444.912 -2.03367 2.70975 0
M  V30 4642 C 443.471 -2.56795 2.75196 0
M  V30 4643 C 442.618 -1.33631 2.42977 0
M  V30 4644 H 445.569 -0.321232 1.55415 0
M  V30 4645 H 445.59 -2.87569 2.49167 0
M  V30 4646 H 445.102 -1.43169 3.60727 0
M  V30 4647 H 443.203 -3.20731 1.89638 0
M  V30 4648 H 443.316 -2.9632 3.76472 0
M  V30 4649 H 441.68 -1.6502 1.94012 0
M  V30 4650 H 442.463 -0.75194 3.34964 0
M  V30 4651 N 444.908 -1.36708 -0.784132 0
M  V30 4652 C 445.858 -1.2799 -1.88686 0
M  V30 4653 C 446.842 -0.170282 -1.59996 0
M  V30 4654 O 448.034 -0.403571 -1.72338 0
M  V30 4655 C 445.163 -1.07674 -3.25977 0
M  V30 4656 C 444.249 -2.23127 -3.60659 0
M  V30 4657 N 444.64 -3.48467 -3.66612 0
M  V30 4658 C 442.938 -2.15009 -3.90752 0
M  V30 4659 C 443.639 -4.24525 -3.97685 0
M  V30 4660 N 442.615 -3.53524 -4.12943 0
M  V30 4661 H 446.417 -2.22927 -1.91522 0
M  V30 4662 H 443.931 -1.29503 -0.979933 0
M  V30 4663 H 445.928 -0.995151 -4.04849 0
M  V30 4664 H 444.588 -0.13643 -3.24413 0
M  V30 4665 H 445.599 -3.82534 -3.49125 0
M  V30 4666 H 442.276 -1.28963 -3.97083 0
M  V30 4667 H 443.666 -5.32944 -4.0917 0
M  V30 4668 N 446.386 1.0089 -1.21074 0
M  V30 4669 C 447.614 1.78191 -1.05145 0
M  V30 4670 C 448.029 1.84537 0.398952 0
M  V30 4671 O 447.386 1.30393 1.27687 0
M  V30 4672 C 447.437 3.22288 -1.63746 0
M  V30 4673 O 447.158 3.16315 -3.03111 0
M  V30 4674 C 448.659 4.16106 -1.52875 0
M  V30 4675 H 445.879 0.560129 -0.369454 0
M  V30 4676 H 448.423 1.26945 -1.60328 0
M  V30 4677 H 446.578 3.70655 -1.12664 0
M  V30 4678 H 446.992 4.06817 -3.31059 0
M  V30 4679 H 448.466 5.15026 -1.98626 0
M  V30 4680 H 448.943 4.36541 -0.482521 0
M  V30 4681 H 449.549 3.73625 -2.03185 0
M  V30 4682 N 447.864 1.01787 1.20321 0
M  V30 4683 C 448.811 0.589197 2.23153 0
M  V30 4684 C 449.781 -0.391367 1.61423 0
M  V30 4685 O 450.966 -0.290518 1.88575 0
M  V30 4686 C 448.106 -0.0650747 3.45039 0
M  V30 4687 C 447.219 0.960207 4.21194 0
M  V30 4688 C 446.354 0.276854 5.30478 0
M  V30 4689 C 445.393 1.2888 5.98378 0
M  V30 4690 N 444.53 0.632031 6.99249 0
M  V30 4691 H 449.37 1.47071 2.59179 0
M  V30 4692 H 446.907 0.736192 1.27352 0
M  V30 4693 H 448.865 -0.461552 4.14639 0
M  V30 4694 H 447.495 -0.910233 3.09701 0
M  V30 4695 H 446.547 1.47484 3.50646 0
M  V30 4696 H 447.859 1.72977 4.67847 0
M  V30 4697 H 447.013 -0.175056 6.06447 0
M  V30 4698 H 445.752 -0.525004 4.84866 0
M  V30 4699 H 444.757 1.75109 5.21169 0
M  V30 4700 H 445.982 2.09196 6.46076 0
M  V30 4701 H 443.928 -0.149935 6.55829 0
M  V30 4702 H 443.845 1.33964 7.44036 0
M  V30 4703 H 445.113 0.203755 7.79234 0
M  V30 4704 N 449.342 -1.36122 0.79427 0
M  V30 4705 C 450.589 -1.99111 0.368905 0
M  V30 4706 C 450.917 -1.63032 -1.0607 0
M  V30 4707 O 450.172 -0.879303 -1.74833 0
M  V30 4708 C 450.471 -3.5409 0.48527 0
M  V30 4709 C 450.137 -4.10003 1.87638 0
M  V30 4710 C 448.799 -4.24986 2.257 0
M  V30 4711 C 451.151 -4.40423 2.78706 0
M  V30 4712 C 448.479 -4.67701 3.54221 0
M  V30 4713 C 450.831 -4.84573 4.0666 0
M  V30 4714 C 449.495 -4.97761 4.44737 0
M  V30 4715 H 448.765 -0.7286 0.134992 0
M  V30 4716 H 451.412 -1.62534 1.01267 0
M  V30 4717 H 449.717 -3.91052 -0.241984 0
M  V30 4718 H 451.414 -4.00766 0.137109 0
M  V30 4719 H 448.004 -3.98784 1.57064 0
M  V30 4720 H 452.188 -4.28412 2.50553 0
M  V30 4721 H 447.444 -4.761 3.83587 0
M  V30 4722 H 451.618 -5.07074 4.77336 0
M  V30 4723 H 449.245 -5.30618 5.44379 0
M  V30 4724 N 450.82 -0.546701 -1.47814 0
M  V30 4725 C 451.73 0.21026 -2.33656 0
M  V30 4726 C 452.746 0.922413 -1.47538 0
M  V30 4727 O 453.922 0.893652 -1.80488 0
M  V30 4728 C 450.987 1.23348 -3.24016 0
M  V30 4729 C 450.048 0.529883 -4.26017 0
M  V30 4730 C 449.281 1.50435 -5.12059 0
M  V30 4731 O 449.504 2.73837 -5.00369 0
M  V30 4732 O 448.438 1.03459 -5.92942 0
M  V30 4733 H 452.264 -0.493605 -2.99662 0
M  V30 4734 H 449.849 -0.307427 -1.46203 0
M  V30 4735 H 451.731 1.82438 -3.79861 0
M  V30 4736 H 450.406 1.91945 -2.60651 0
M  V30 4737 H 449.313 -0.101948 -3.73961 0
M  V30 4738 H 450.646 -0.11445 -4.92067 0
M  V30 4739 N 452.299 1.55045 -0.282633 0
M  V30 4740 C 453.524 2.04628 0.337977 0
M  V30 4741 C 453.949 1.15937 1.48123 0
M  V30 4742 O 453.307 0.159532 1.80597 0
M  V30 4743 C 453.355 3.51854 0.78936 0
M  V30 4744 O 452.459 3.66236 1.89592 0
M  V30 4745 H 451.8 0.660434 0.0687261 0
M  V30 4746 H 454.33 2.00261 -0.419124 0
M  V30 4747 H 454.34 3.93361 1.08311 0
M  V30 4748 H 453.015 4.15873 -0.0470419 0
M  V30 4749 H 451.592 3.36633 1.60413 0
M  V30 4750 N 453.777 0.010035 1.57597 0
M  V30 4751 C 454.687 -0.994226 2.12491 0
M  V30 4752 C 455.703 -1.37013 1.07254 0
M  V30 4753 O 456.879 -1.45542 1.3921 0
M  V30 4754 C 453.944 -2.2642 2.62555 0
M  V30 4755 C 453.005 -1.95049 3.82432 0
M  V30 4756 C 452.238 -3.15991 4.30099 0
M  V30 4757 O 452.461 -4.28015 3.7704 0
M  V30 4758 O 451.395 -2.99403 5.22151 0
M  V30 4759 H 455.221 -0.557549 2.98538 0
M  V30 4760 H 452.806 -0.209413 1.47925 0
M  V30 4761 H 454.688 -3.01009 2.9491 0
M  V30 4762 H 453.363 -2.69306 1.796 0
M  V30 4763 H 452.27 -1.17904 3.55034 0
M  V30 4764 H 453.603 -1.56992 4.66491 0
M  V30 4765 N 455.255 -1.55392 -0.262866 0
M  V30 4766 C 456.501 -1.76737 -0.99458 0
M  V30 4767 C 456.834 -0.572453 -1.85571 0
M  V30 4768 O 456.109 0.429732 -1.89693 0
M  V30 4769 C 456.392 -3.07824 -1.8686 0
M  V30 4770 C 456.245 -4.3769 -1.03672 0
M  V30 4771 C 457.564 -3.35021 -2.85393 0
M  V30 4772 H 454.683 -0.643005 -0.360157 0
M  V30 4773 H 457.325 -1.88126 -0.266216 0
M  V30 4774 H 455.475 -2.98245 -2.48962 0
M  V30 4775 H 457.147 -4.59238 -0.43563 0
M  V30 4776 H 455.39 -4.32461 -0.340513 0
M  V30 4777 H 456.061 -5.25759 -1.6817 0
M  V30 4778 H 458.537 -3.44458 -2.33426 0
M  V30 4779 H 457.413 -4.27989 -3.43681 0
M  V30 4780 H 457.674 -2.55153 -3.61039 0
M  V30 4781 N 456.733 0.527833 -1.48498 0
M  V30 4782 C 457.963 1.30633 -1.60058 0
M  V30 4783 C 458.371 1.87394 -0.260786 0
M  V30 4784 O 457.714 1.67227 0.760317 0
M  V30 4785 C 457.776 2.49361 -2.58958 0
M  V30 4786 C 457.44 2.13671 -4.03972 0
M  V30 4787 C 458.437 1.69217 -4.91591 0
M  V30 4788 C 456.122 2.24129 -4.49524 0
M  V30 4789 C 458.116 1.35689 -6.2279 0
M  V30 4790 C 455.803 1.90212 -5.80743 0
M  V30 4791 C 456.801 1.46063 -6.67199 0
M  V30 4792 O 456.489 1.12593 -7.95976 0
M  V30 4793 H 456.221 0.403444 -0.54241 0
M  V30 4794 H 458.775 0.643233 -1.95068 0
M  V30 4795 H 457.005 3.18659 -2.19073 0
M  V30 4796 H 458.694 3.11421 -2.6033 0
M  V30 4797 H 459.46 1.60607 -4.57636 0
M  V30 4798 H 455.339 2.57447 -3.82416 0
M  V30 4799 H 458.883 1.01157 -6.90227 0
M  V30 4800 H 454.78 1.98464 -6.14233 0
M  V30 4801 H 455.548 1.25972 -8.08748 0
M  V30 4802 N 458.211 1.37122 0.776871 0
M  V30 4803 C 459.46 1.31373 1.53049 0
M  V30 4804 C 459.773 -0.101016 1.95339 0
M  V30 4805 O 460.979 -0.280953 2.70042 0
M  V30 4806 C 459.435 2.30567 2.76346 0
M  V30 4807 C 459.043 3.77543 2.41175 0
M  V30 4808 C 460.787 2.33818 3.54301 0
M  V30 4809 C 458.694 4.68481 3.60943 0
M  V30 4810 H 457.624 0.488234 0.574581 0
M  V30 4811 H 460.275 1.62554 0.851372 0
M  V30 4812 H 458.657 1.92396 3.46121 0
M  V30 4813 H 459.831 4.24521 1.79216 0
M  V30 4814 H 458.146 3.77187 1.76405 0
M  V30 4815 H 460.743 2.98965 4.4331 0
M  V30 4816 H 461.086 1.3503 3.93793 0
M  V30 4817 H 461.619 2.7067 2.91518 0
M  V30 4818 H 458.358 5.68378 3.26537 0
M  V30 4819 H 457.878 4.2621 4.22025 0
M  V30 4820 H 459.557 4.85366 4.27819 0
M  V30 4821 N 459.689 -1.00246 1.21608 0
M  V30 4822 C 460.619 -2.10921 1.00172 0
M  V30 4823 C 461.6 -1.69938 -0.0741587 0
M  V30 4824 O 462.785 -1.94009 0.0861753 0
M  V30 4825 C 459.915 -3.42618 0.568355 0
M  V30 4826 C 458.869 -3.97407 1.58909 0
M  V30 4827 C 458.195 -5.25038 1.01187 0
M  V30 4828 C 459.495 -4.2918 2.97661 0
M  V30 4829 H 461.189 -2.29112 1.92739 0
M  V30 4830 H 458.735 -1.10101 0.928102 0
M  V30 4831 H 460.688 -4.19444 0.405555 0
M  V30 4832 H 459.412 -3.24227 -0.392961 0
M  V30 4833 H 458.071 -3.22703 1.73949 0
M  V30 4834 H 457.719 -5.02982 0.0421965 0
M  V30 4835 H 457.419 -5.62661 1.6937 0
M  V30 4836 H 458.943 -6.04507 0.860448 0
M  V30 4837 H 460.357 -4.96839 2.86049 0
M  V30 4838 H 458.754 -4.77952 3.6288 0
M  V30 4839 H 459.824 -3.3735 3.48315 0
M  V30 4840 N 461.167 -1.02423 -1.1978 0
M  V30 4841 C 462.392 -0.7373 -1.93852 0
M  V30 4842 C 462.817 0.696923 -1.74713 0
M  V30 4843 O 462.175 1.48056 -1.04638 0
M  V30 4844 C 462.223 -1.08783 -3.438 0
M  V30 4845 O 461.327 -0.20383 -4.11896 0
M  V30 4846 H 460.668 -0.27284 -0.605355 0
M  V30 4847 H 463.198 -1.36966 -1.51992 0
M  V30 4848 H 463.208 -1.04276 -3.9445 0
M  V30 4849 H 461.883 -2.13274 -3.57053 0
M  V30 4850 H 460.46 -0.307091 -3.71633 0
M  V30 4851 N 462.645 1.35699 -0.801477 0
M  V30 4852 C 463.592 2.29876 -0.206294 0
M  V30 4853 C 464.562 1.52565 0.656752 0
M  V30 4854 O 465.747 1.81024 0.602906 0
M  V30 4855 C 462.887 3.39052 0.643272 0
M  V30 4856 C 462 4.31335 -0.239644 0
M  V30 4857 C 461.135 5.27599 0.61744 0
M  V30 4858 C 460.174 6.11521 -0.26619 0
M  V30 4859 N 459.311 6.99938 0.550571 0
M  V30 4860 H 464.151 2.80187 -1.01484 0
M  V30 4861 H 461.688 1.37902 -0.511997 0
M  V30 4862 H 463.646 4.0101 1.15094 0
M  V30 4863 H 462.276 2.9003 1.41713 0
M  V30 4864 H 461.328 3.70426 -0.865381 0
M  V30 4865 H 462.64 4.90243 -0.919985 0
M  V30 4866 H 461.794 5.94906 1.19045 0
M  V30 4867 H 460.533 4.69176 1.33137 0
M  V30 4868 H 459.538 5.43166 -0.851507 0
M  V30 4869 H 460.763 6.72022 -0.9779 0
M  V30 4870 H 458.709 6.44008 1.24856 0
M  V30 4871 H 458.626 7.55966 -0.071832 0
M  V30 4872 H 459.894 7.71599 1.10702 0
M  V30 4873 N 464.123 0.554532 1.47522 0
M  V30 4874 C 465.4 -0.0360704 1.95567 0
M  V30 4875 C 465.78 -1.48828 1.49711 0
M  V30 4876 O 465.128 -2.16366 0.734717 0
M  V30 4877 C 465.338 0.106631 3.48837 0
M  V30 4878 C 466.686 -0.0400899 4.24581 0
M  V30 4879 O 467.71 0.0340453 3.56184 0
M  V30 4880 O 466.569 -0.199111 5.46137 0
M  V30 4881 H 463.663 -0.0656294 0.824392 0
M  V30 4882 H 466.209 0.620867 1.57935 0
M  V30 4883 H 464.981 1.11727 3.7501 0
M  V30 4884 H 464.604 -0.58804 3.93227 0
M  V30 4885 N 465.601 -1.54893 0.290851 0
M  V30 4886 C 466.511 -2.26812 -0.59945 0
M  V30 4887 C 467.527 -1.29963 -1.15696 0
M  V30 4888 O 468.703 -1.62928 -1.18391 0
M  V30 4889 C 465.768 -2.98716 -1.75982 0
M  V30 4890 C 464.829 -4.1108 -1.2374 0
M  V30 4891 C 464.062 -4.79546 -2.34246 0
M  V30 4892 O 464.285 -4.47309 -3.53936 0
M  V30 4893 O 463.219 -5.67165 -2.01512 0
M  V30 4894 H 467.045 -3.03696 -0.0163561 0
M  V30 4895 H 464.63 -1.49289 0.0576755 0
M  V30 4896 H 466.512 -3.43851 -2.43607 0
M  V30 4897 H 465.187 -2.24737 -2.3297 0
M  V30 4898 H 464.094 -3.70367 -0.527163 0
M  V30 4899 H 465.427 -4.87007 -0.71307 0
M  V30 4900 N 467.08 -0.0183926 -1.57589 0
M  V30 4901 C 468.328 0.661253 -1.90976 0
M  V30 4902 C 468.649 1.73281 -0.894353 0
M  V30 4903 O 467.919 1.9579 0.0656788 0
M  V30 4904 H 466.499 0.247233 -0.704901 0
M  V30 4905 H 469.161 -0.0636639 -1.94796 0
M  V30 4906 H 468.257 1.12083 -2.9128 0
M  V30 4907 N 468.558 1.5553 0.254621 0
M  V30 4908 C 469.806 1.7665 0.981793 0
M  V30 4909 C 470.127 0.580963 1.86145 0
M  V30 4910 O 469.397 -0.403537 1.91699 0
M  V30 4911 H 467.977 0.651475 0.365498 0
M  V30 4912 H 470.639 1.92958 0.274426 0
M  V30 4913 H 469.735 2.67486 1.60802 0
M  V30 4914 N 470.036 -0.519951 1.48776 0
M  V30 4915 C 471.452 -0.849418 1.35119 0
M  V30 4916 C 471.652 -1.98077 0.36982 0
M  V30 4917 O 470.708 -2.51664 -0.205359 0
M  V30 4918 C 472.021 -1.20748 2.75391 0
M  V30 4919 C 473.569 -1.31679 2.83954 0
M  V30 4920 C 474.044 -1.70824 4.24951 0
M  V30 4921 N 475.535 -1.77908 4.27672 0
M  V30 4922 C 476.27 -2.09603 5.33717 0
M  V30 4923 N 475.766 -2.39652 6.5003 0
M  V30 4924 N 477.559 -2.10694 5.21119 0
M  V30 4925 H 469.71 0.226377 2.1119 0
M  V30 4926 H 471.973 0.0386519 0.947212 0
M  V30 4927 H 471.679 -0.449703 3.48813 0
M  V30 4928 H 471.553 -2.15534 3.09556 0
M  V30 4929 H 473.94 -2.06532 2.10781 0
M  V30 4930 H 474.021 -0.3499 2.53396 0
M  V30 4931 H 473.665 -0.965282 4.98643 0
M  V30 4932 H 473.595 -2.6858 4.52959 0
M  V30 4933 H 476.086 -1.56923 3.43779 0
M  V30 4934 H 476.399 -2.6297 7.26682 0
M  V30 4935 H 474.744 -2.37149 6.53288 0
M  V30 4936 H 477.935 -1.86682 4.29264 0
M  V30 4937 H 478.108 -2.35062 6.03863 0
M  V30 4938 N 471.514 -1.37532 -0.769588 0
M  V30 4939 C 472.464 -1.29984 -1.87318 0
M  V30 4940 C 473.448 -0.187242 -1.59807 0
M  V30 4941 O 474.64 -0.421827 -1.719 0
M  V30 4942 C 471.769 -1.11126 -3.24817 0
M  V30 4943 C 470.855 -2.26939 -3.58273 0
M  V30 4944 N 471.246 -3.52336 -3.62895 0
M  V30 4945 C 469.544 -2.19141 -3.8845 0
M  V30 4946 C 470.245 -4.28719 -3.9316 0
M  V30 4947 N 469.221 -3.57884 -4.0917 0
M  V30 4948 H 473.023 -2.24946 -1.89147 0
M  V30 4949 H 470.537 -1.30535 -0.966143 0
M  V30 4950 H 472.534 -1.03803 -4.0377 0
M  V30 4951 H 471.194 -0.17083 -3.2425 0
M  V30 4952 H 472.205 -3.86216 -3.45048 0
M  V30 4953 H 468.882 -1.33167 -3.95693 0
M  V30 4954 H 470.272 -5.37254 -4.03494 0
M  V30 4955 N 472.992 0.995999 -1.22138 0
M  V30 4956 C 474.22 1.77066 -1.07029 0
M  V30 4957 C 474.635 1.8495 0.379357 0
M  V30 4958 O 473.992 1.3174 1.26297 0
M  V30 4959 C 474.043 3.20533 -1.67155 0
M  V30 4960 O 473.764 3.13082 -3.06449 0
M  V30 4961 C 475.265 4.14461 -1.5728 0
M  V30 4962 H 472.485 0.556179 -0.375374 0
M  V30 4963 H 475.029 1.25238 -1.61666 0
M  V30 4964 H 473.184 3.6944 -1.16589 0
M  V30 4965 H 473.598 4.03283 -3.35355 0
M  V30 4966 H 475.072 5.1289 -2.04078 0
M  V30 4967 H 475.549 4.36005 -0.528795 0
M  V30 4968 H 476.155 3.71449 -2.07136 0
M  V30 4969 N 474.47 1.03057 1.19235 0
M  V30 4970 C 475.881 0.757449 1.70645 0
M  V30 4971 C 476.232 -0.722735 1.82403 0
M  V30 4972 O 475.357 -1.56325 1.49638 0
M  V30 4973 C 475.952 1.36833 3.09939 0
M  V30 4974 C 474.511 1.14375 3.58602 0
M  V30 4975 C 473.658 1.46533 2.35422 0
M  V30 4976 H 476.609 1.19828 1.04052 0
M  V30 4977 H 476.63 0.766184 3.72706 0
M  V30 4978 H 476.142 2.44562 3.01349 0
M  V30 4979 H 474.243 0.0847542 3.72504 0
M  V30 4980 H 474.356 1.83366 4.42622 0
M  V30 4981 H 472.72 0.884712 2.38841 0
M  V30 4982 H 473.503 2.55349 2.2946 0
M  V30 4983 N 475.948 -1.35272 0.808662 0
M  V30 4984 C 477.195 -1.98709 0.390003 0
M  V30 4985 C 477.523 -1.64148 -1.04335 0
M  V30 4986 O 476.778 -0.897797 -1.73891 0
M  V30 4987 C 477.077 -3.53556 0.522798 0
M  V30 4988 C 476.743 -4.0799 1.91977 0
M  V30 4989 C 475.405 -4.22568 2.30195 0
M  V30 4990 C 477.757 -4.37442 2.83361 0
M  V30 4991 C 475.085 -4.63918 3.59162 0
M  V30 4992 C 477.437 -4.80232 4.11776 0
M  V30 4993 C 476.101 -4.93016 4.49991 0
M  V30 4994 H 475.371 -0.727127 0.142712 0
M  V30 4995 H 478.018 -1.6145 1.02985 0
M  V30 4996 H 476.323 -3.91287 -0.200494 0
M  V30 4997 H 478.02 -4.00598 0.179608 0
M  V30 4998 H 474.61 -3.97096 1.61284 0
M  V30 4999 H 478.794 -4.25731 2.55083 0
M  V30 5000 H 474.05 -4.72005 3.88615 0
M  V30 5001 H 478.224 -5.01982 4.82687 0
M  V30 5002 H 475.851 -5.24814 5.49976 0
M  V30 5003 N 477.426 -0.562348 -1.47226 0
M  V30 5004 C 478.673 -0.0402165 -2.0246 0
M  V30 5005 C 479.001 1.31169 -1.43614 0
M  V30 5006 O 478.256 1.86805 -0.5833 0
M  V30 5007 C 478.555 0.0969817 -3.57268 0
M  V30 5008 C 478.221 -1.1847 -4.35058 0
M  V30 5009 C 476.883 -1.53588 -4.56031 0
M  V30 5010 C 479.235 -2.03378 -4.79882 0
M  V30 5011 C 476.563 -2.73452 -5.19077 0
M  V30 5012 C 478.915 -3.2245 -5.44251 0
M  V30 5013 C 477.579 -3.57876 -5.63455 0
M  V30 5014 H 476.849 -0.0147163 -0.740854 0
M  V30 5015 H 479.496 -0.734895 -1.76838 0
M  V30 5016 H 477.801 0.87466 -3.81912 0
M  V30 5017 H 479.498 0.516408 -3.97661 0
M  V30 5018 H 476.088 -0.90126 -4.19017 0
M  V30 5019 H 480.272 -1.77553 -4.63453 0
M  V30 5020 H 475.528 -3.01062 -5.32139 0
M  V30 5021 H 479.702 -3.88526 -5.77945 0
M  V30 5022 H 477.329 -4.50849 -6.12078 0
M  V30 5023 N 478.904 1.54736 -0.299062 0
M  V30 5024 C 479.851 2.23448 0.577899 0
M  V30 5025 C 480.821 1.21637 1.13109 0
M  V30 5026 O 482.006 1.50252 1.17597 0
M  V30 5027 C 479.146 2.9774 1.74484 0
M  V30 5028 C 478.259 4.1432 1.22323 0
M  V30 5029 C 477.394 4.76199 2.35388 0
M  V30 5030 C 476.433 5.84927 1.80351 0
M  V30 5031 N 475.57 6.4077 2.86982 0
M  V30 5032 H 480.41 2.97996 -0.0146545 0
M  V30 5033 H 477.947 1.47088 -0.0190013 0
M  V30 5034 H 479.905 3.39045 2.43114 0
M  V30 5035 H 478.535 2.25572 2.30905 0
M  V30 5036 H 477.587 3.7797 0.429249 0
M  V30 5037 H 478.899 4.92659 0.780309 0
M  V30 5038 H 478.053 5.20346 3.11969 0
M  V30 5039 H 476.792 3.97188 2.83006 0
M  V30 5040 H 475.797 5.40207 1.02259 0
M  V30 5041 H 477.022 6.65821 1.3364 0
M  V30 5042 H 474.968 5.64643 3.33938 0
M  V30 5043 H 474.885 7.1445 2.4718 0
M  V30 5044 H 476.153 6.89574 3.63466 0
M  V30 5045 N 480.382 0.0267497 1.57577 0
M  V30 5046 C 481.63 -0.651116 1.91324 0
M  V30 5047 C 481.951 -1.72804 0.90353 0
M  V30 5048 O 481.221 -1.95822 -0.0552946 0
M  V30 5049 H 479.801 -0.243491 0.706202 0
M  V30 5050 H 482.463 0.0739935 1.94759 0
M  V30 5051 H 481.559 -1.10536 2.9187 0
M  V30 5052 N 481.861 -1.55662 -0.24637 0
M  V30 5053 C 483.091 -1.81312 -0.990438 0
M  V30 5054 C 483.499 -0.600234 -1.79426 0
M  V30 5055 O 482.842 0.440537 -1.78339 0
M  V30 5056 C 482.904 -3.0032 -1.97607 0
M  V30 5057 C 482.568 -4.36322 -1.35912 0
M  V30 5058 C 483.565 -5.14295 -0.761348 0
M  V30 5059 C 481.25 -4.83019 -1.37833 0
M  V30 5060 C 483.244 -6.37114 -0.190998 0
M  V30 5061 C 480.931 -6.05786 -0.804128 0
M  V30 5062 C 481.929 -6.82672 -0.211489 0
M  V30 5063 O 481.617 -8.03121 0.353845 0
M  V30 5064 H 481.349 -0.607233 -0.297058 0
M  V30 5065 H 483.903 -2.0356 -0.274351 0
M  V30 5066 H 482.133 -2.73829 -2.73047 0
M  V30 5067 H 483.822 -3.13057 -2.58361 0
M  V30 5068 H 484.588 -4.79337 -0.739013 0
M  V30 5069 H 480.467 -4.23165 -1.829 0
M  V30 5070 H 484.011 -6.97069 0.272206 0
M  V30 5071 H 479.908 -6.40222 -0.823792 0
M  V30 5072 H 480.676 -8.18131 0.245761 0
M  V30 5073 N 483.339 0.512053 -1.4905 0
M  V30 5074 C 484.755 0.84224 -1.35567 0
M  V30 5075 C 484.955 1.97878 -0.380319 0
M  V30 5076 O 484.011 2.51769 0.19201 0
M  V30 5077 C 485.324 1.19286 -2.76028 0
M  V30 5078 C 486.872 1.30171 -2.84648 0
M  V30 5079 C 487.347 1.68568 -4.25851 0
M  V30 5080 N 488.838 1.75638 -4.28609 0
M  V30 5081 C 489.573 2.06769 -5.34821 0
M  V30 5082 N 489.069 2.36201 -6.51292 0
M  V30 5083 N 490.862 2.07927 -5.22229 0
M  V30 5084 H 483.013 -0.237574 -2.11067 0
M  V30 5085 H 485.276 -0.0436747 -0.946993 0
M  V30 5086 H 484.982 0.431199 -3.49047 0
M  V30 5087 H 484.856 2.13889 -3.10695 0
M  V30 5088 H 487.243 2.05411 -2.11873 0
M  V30 5089 H 487.324 0.336457 -2.53578 0
M  V30 5090 H 486.968 0.938824 -4.99148 0
M  V30 5091 H 486.898 2.66174 -4.54377 0
M  V30 5092 H 489.389 1.55097 -3.44606 0
M  V30 5093 H 489.702 2.59112 -7.28066 0
M  V30 5094 H 488.047 2.33681 -6.54536 0
M  V30 5095 H 491.238 1.84403 -4.30248 0
M  V30 5096 H 491.411 2.31856 -6.05101 0
M  V30 5097 N 484.817 1.37938 0.762283 0
M  V30 5098 C 486.228 1.30094 1.33912 0
M  V30 5099 C 486.579 -0.0472026 1.96143 0
M  V30 5100 O 485.704 -0.94917 1.94473 0
M  V30 5101 C 486.299 2.35592 2.43478 0
M  V30 5102 C 484.858 2.31353 2.96905 0
M  V30 5103 C 484.005 2.18919 1.70205 0
M  V30 5104 H 486.956 1.48423 0.561816 0
M  V30 5105 H 486.977 2.00806 3.23199 0
M  V30 5106 H 486.489 3.33701 1.98155 0
M  V30 5107 H 484.59 1.36799 3.46579 0
M  V30 5108 H 484.703 3.25147 3.51875 0
M  V30 5109 H 483.067 1.65624 1.93496 0
M  V30 5110 H 483.85 3.18956 1.26973 0
M  V30 5111 N 486.295 -0.989507 1.22664 0
M  V30 5112 C 487.227 -2.0824 0.957542 0
M  V30 5113 C 488.24 -1.6267 -0.0651098 0
M  V30 5114 O 489.429 -1.77695 0.169312 0
M  V30 5115 C 486.529 -3.36298 0.419145 0
M  V30 5116 C 485.702 -4.10882 1.49982 0
M  V30 5117 C 484.761 -5.17221 0.967904 0
M  V30 5118 O 483.787 -5.44613 1.65487 0
M  V30 5119 N 484.989 -5.80124 -0.20896 0
M  V30 5120 H 487.754 -2.31904 1.89843 0
M  V30 5121 H 485.315 -1.15552 1.13399 0
M  V30 5122 H 487.307 -4.04671 0.0485451 0
M  V30 5123 H 485.877 -3.09671 -0.426937 0
M  V30 5124 H 485.097 -3.37092 2.04359 0
M  V30 5125 H 486.385 -4.57482 2.22682 0
M  V30 5126 H 485.783 -5.60244 -0.783818 0
M  V30 5127 H 484.34 -6.49715 -0.520913 0
M  V30 5128 N 487.773 -1.03688 -1.18687 0
M  V30 5129 C 489.02 -0.73803 -1.88572 0
M  V30 5130 C 489.348 0.733973 -1.8012 0
M  V30 5131 O 488.603 1.55098 -1.19344 0
M  V30 5132 C 488.902 -1.14477 -3.3857 0
M  V30 5133 C 488.568 -2.61641 -3.67226 0
M  V30 5134 C 487.23 -3.01846 -3.74757 0
M  V30 5135 C 489.582 -3.56812 -3.79914 0
M  V30 5136 C 486.91 -4.36118 -3.92451 0
M  V30 5137 C 489.262 -4.90799 -3.99123 0
M  V30 5138 C 487.926 -5.3068 -4.04888 0
M  V30 5139 H 487.196 -0.270064 -0.690034 0
M  V30 5140 H 489.843 -1.3012 -1.40503 0
M  V30 5141 H 488.148 -0.500337 -3.88592 0
M  V30 5142 H 489.845 -0.89095 -3.90977 0
M  V30 5143 H 486.435 -2.29498 -3.61979 0
M  V30 5144 H 490.619 -3.26899 -3.73431 0
M  V30 5145 H 485.875 -4.66542 -3.95157 0
M  V30 5146 H 490.049 -5.64451 -4.07882 0
M  V30 5147 H 487.676 -6.34733 -4.18351 0
M  V30 5148 N 489.251 1.34841 -0.815825 0
M  V30 5149 C 490.481 2.02436 -0.412695 0
M  V30 5150 C 490.889 1.61604 0.983906 0
M  V30 5151 O 490.232 0.813729 1.64694 0
M  V30 5152 C 490.294 3.56953 -0.427182 0
M  V30 5153 C 489.958 4.21083 -1.77589 0
M  V30 5154 C 490.955 4.42107 -2.73564 0
M  V30 5155 C 488.64 4.58006 -2.06243 0
M  V30 5156 C 490.634 4.99169 -3.9637 0
M  V30 5157 C 488.321 5.1478 -3.2931 0
M  V30 5158 C 489.319 5.35304 -4.24191 0
M  V30 5159 O 489.007 5.90878 -5.45086 0
M  V30 5160 H 488.739 0.655631 -0.164695 0
M  V30 5161 H 491.293 1.73246 -1.1034 0
M  V30 5162 H 489.523 3.85372 0.320175 0
M  V30 5163 H 491.212 4.05875 -0.0450875 0
M  V30 5164 H 491.978 4.13953 -2.52721 0
M  V30 5165 H 487.857 4.41339 -1.33196 0
M  V30 5166 H 491.401 5.15105 -4.70439 0
M  V30 5167 H 487.298 5.42362 -3.5002 0
M  V30 5168 H 488.066 6.0932 -5.46508 0
M  V30 5169 N 490.729 0.570148 1.46925 0
M  V30 5170 C 491.976 0.0509529 2.02436 0
M  V30 5171 C 492.304 -1.30405 1.44308 0
M  V30 5172 O 491.559 -1.86493 0.593198 0
M  V30 5173 C 491.858 -0.0780336 3.57315 0
M  V30 5174 C 491.524 1.20775 4.34424 0
M  V30 5175 C 490.186 1.56004 4.5521 0
M  V30 5176 C 492.538 2.0592 4.78797 0
M  V30 5177 C 489.866 2.76201 5.17619 0
M  V30 5178 C 492.218 3.25332 5.42533 0
M  V30 5179 C 490.882 3.60859 5.61549 0
M  V30 5180 H 490.152 0.018645 0.740765 0
M  V30 5181 H 492.799 0.744262 1.76445 0
M  V30 5182 H 491.104 -0.854394 3.82371 0
M  V30 5183 H 492.801 -0.495312 3.97929 0
M  V30 5184 H 489.391 0.923469 4.18533 0
M  V30 5185 H 493.575 1.80008 4.62505 0
M  V30 5186 H 488.831 3.0388 5.30535 0
M  V30 5187 H 493.005 3.91586 5.75876 0
M  V30 5188 H 490.632 4.54088 6.09678 0
M  V30 5189 N 492.207 -1.54576 0.307264 0
M  V30 5190 C 493.623 -1.59534 -0.0459251 0
M  V30 5191 C 493.823 -1.32414 -1.51884 0
M  V30 5192 O 492.879 -1.1006 -2.27251 0
M  V30 5193 C 494.192 -2.98566 0.357649 0
M  V30 5194 C 495.74 -3.11491 0.306937 0
M  V30 5195 C 496.215 -4.52842 0.685427 0
M  V30 5196 N 497.706 -4.58782 0.638203 0
M  V30 5197 C 498.441 -5.66238 0.903458 0
M  V30 5198 N 497.937 -6.81703 1.23501 0
M  V30 5199 N 499.73 -5.55937 0.830102 0
M  V30 5200 H 491.881 -1.70464 1.26712 0
M  V30 5201 H 494.144 -0.79647 0.514139 0
M  V30 5202 H 493.85 -3.23356 1.38325 0
M  V30 5203 H 493.724 -3.76117 -0.285565 0
M  V30 5204 H 496.111 -2.86446 -0.709424 0
M  V30 5205 H 496.192 -2.36081 0.984861 0
M  V30 5206 H 495.836 -4.78618 1.69963 0
M  V30 5207 H 495.766 -5.26598 -0.0146346 0
M  V30 5208 H 498.257 -3.75849 0.393138 0
M  V30 5209 H 498.57 -7.59582 1.42322 0
M  V30 5210 H 496.915 -6.8324 1.27311 0
M  V30 5211 H 500.106 -4.64608 0.570693 0
M  V30 5212 H 500.279 -6.39597 1.04019 0
M  V30 5213 N 493.685 -0.035106 -1.57561 0
M  V30 5214 C 494.913 0.652258 -1.9635 0
M  V30 5215 C 495.328 1.65317 -0.911897 0
M  V30 5216 O 494.685 1.82194 0.105657 0
M  V30 5217 C 494.736 1.35337 -3.35211 0
M  V30 5218 O 494.457 0.392548 -4.36338 0
M  V30 5219 C 495.958 2.13199 -3.88666 0
M  V30 5220 H 493.178 0.179444 -0.646561 0
M  V30 5221 H 495.722 -0.0966459 -2.04271 0
M  V30 5222 H 493.877 2.05362 -3.28489 0
M  V30 5223 H 494.291 0.891097 -5.16875 0
M  V30 5224 H 495.765 2.577 -4.88154 0
M  V30 5225 H 496.242 2.97353 -3.23231 0
M  V30 5226 H 496.848 1.48118 -3.98674 0
M  V30 5227 N 495.163 1.55791 0.238111 0
M  V30 5228 C 496.391 1.82098 0.982233 0
M  V30 5229 C 496.806 0.612025 1.78605 0
M  V30 5230 O 496.163 -0.419381 1.77616 0
M  V30 5231 C 496.214 3.0673 1.91309 0
M  V30 5232 O 495.935 4.2296 1.14179 0
M  V30 5233 C 497.436 3.45903 2.77248 0
M  V30 5234 H 494.656 0.605748 0.288635 0
M  V30 5235 H 497.2 2.02862 0.258341 0
M  V30 5236 H 495.355 2.87991 2.59114 0
M  V30 5237 H 495.769 4.93653 1.7722 0
M  V30 5238 H 497.243 4.36189 3.38295 0
M  V30 5239 H 497.72 2.66891 3.48806 0
M  V30 5240 H 498.326 3.67024 2.14881 0
M  V30 5241 N 496.642 -0.504142 1.49319 0
M  V30 5242 C 497.919 -1.26548 1.49147 0
M  V30 5243 C 498.299 -2.09977 0.21744 0
M  V30 5244 O 497.647 -2.14028 -0.800269 0
M  V30 5245 C 497.857 -2.12489 2.76857 0
M  V30 5246 C 499.205 -2.7178 3.26222 0
M  V30 5247 O 500.229 -2.22758 2.77952 0
M  V30 5248 O 499.088 -3.61015 4.10281 0
M  V30 5249 H 496.182 -0.572495 0.596806 0
M  V30 5250 H 498.728 -0.51867 1.61579 0
M  V30 5251 H 497.5 -1.50796 3.61077 0
M  V30 5252 H 497.123 -2.94368 2.6727 0
M  V30 5253 N 498.12 -1.38341 -0.754957 0
M  V30 5254 C 499.366 -1.34672 -1.51628 0
M  V30 5255 C 499.699 0.0636036 -1.94096 0
M  V30 5256 O 498.974 1.0245 -1.6533 0
M  V30 5257 C 499.257 -2.30116 -2.76981 0
M  V30 5258 C 499.11 -3.80003 -2.4066 0
M  V30 5259 C 500.429 -2.23715 -3.78998 0
M  V30 5260 H 497.548 -0.490517 -0.550056 0
M  V30 5261 H 500.19 -1.69178 -0.864807 0
M  V30 5262 H 498.34 -2.00821 -3.3257 0
M  V30 5263 H 500.012 -4.19966 -1.90856 0
M  V30 5264 H 498.255 -3.97751 -1.73137 0
M  V30 5265 H 498.926 -4.42244 -3.30339 0
M  V30 5266 H 501.402 -2.49574 -3.32945 0
M  V30 5267 H 500.278 -2.9261 -4.64403 0
M  V30 5268 H 500.539 -1.23554 -4.24484 0
M  V30 5269 N 499.598 0.982988 -1.23187 0
M  V30 5270 C 500.826 1.75921 -1.08901 0
M  V30 5271 C 501.241 1.85341 0.359719 0
M  V30 5272 O 500.598 1.33072 1.24892 0
M  V30 5273 C 500.649 3.18742 -1.70545 0
M  V30 5274 O 500.37 3.09814 -3.09753 0
M  V30 5275 C 501.871 4.1277 -1.61667 0
M  V30 5276 H 499.091 0.552166 -0.381252 0
M  V30 5277 H 501.635 1.23516 -1.62985 0
M  V30 5278 H 499.79 3.68182 -1.20501 0
M  V30 5279 H 500.204 3.99703 -3.39614 0
M  V30 5280 H 501.678 5.10697 -2.09506 0
M  V30 5281 H 502.155 4.3542 -0.575009 0
M  V30 5282 H 502.761 3.69232 -2.11064 0
M  V30 5283 N 501.076 1.04316 1.18135 0
M  V30 5284 C 502.324 0.746542 1.87806 0
M  V30 5285 C 502.645 -0.728082 1.80898 0
M  V30 5286 O 501.915 -1.52554 1.22899 0
M  V30 5287 H 500.495 0.273157 0.695265 0
M  V30 5288 H 503.157 1.32044 1.43354 0
M  V30 5289 H 502.253 1.05362 2.93778 0
M  V30 5290 N 502.554 -1.34406 0.822964 0
M  V30 5291 C 503.782 -2.02508 0.424039 0
M  V30 5292 C 504.197 -1.61975 -0.970022 0
M  V30 5293 O 503.554 -0.825228 -1.62777 0
M  V30 5294 C 503.605 -3.57789 0.516657 0
M  V30 5295 O 503.326 -3.96853 1.85577 0
M  V30 5296 C 504.827 -4.43157 0.112637 0
M  V30 5297 H 502.047 -0.649063 0.170173 0
M  V30 5298 H 504.591 -1.7168 1.11113 0
M  V30 5299 H 502.746 -3.87207 -0.122353 0
M  V30 5300 H 503.16 -4.91538 1.83005 0
M  V30 5301 H 504.634 -5.51527 0.228526 0
M  V30 5302 H 505.111 -4.28939 -0.943837 0
M  V30 5303 H 505.717 -4.19067 0.725449 0
M  V30 5304 N 504.032 -0.577932 -1.46621 0
M  V30 5305 C 505.281 -0.0594281 -2.01612 0
M  V30 5306 C 505.594 1.30663 -1.45556 0
M  V30 5307 O 506.8 1.91621 -1.92337 0
M  V30 5308 C 505.256 -0.0556666 -3.59857 0
M  V30 5309 C 504.864 -1.41975 -4.24908 0
M  V30 5310 C 506.608 0.409143 -4.22524 0
M  V30 5311 C 504.515 -1.37397 -5.75218 0
M  V30 5312 H 503.445 -0.0184469 -0.753774 0
M  V30 5313 H 506.096 -0.728869 -1.68404 0
M  V30 5314 H 504.478 0.679843 -3.90121 0
M  V30 5315 H 505.652 -2.17461 -4.0626 0
M  V30 5316 H 503.967 -1.82419 -3.74316 0
M  V30 5317 H 506.564 0.46211 -5.32699 0
M  V30 5318 H 506.907 1.42565 -3.91128 0
M  V30 5319 H 507.44 -0.272152 -3.96868 0
M  V30 5320 H 504.179 -2.36714 -6.11267 0
M  V30 5321 H 503.699 -0.661239 -5.96144 0
M  V30 5322 H 505.378 -1.08484 -6.3784 0
M  V30 5323 N 505.51 1.54411 -0.315457 0
M  V30 5324 C 506.42 2.27737 0.56329 0
M  V30 5325 C 507.436 1.31787 1.13614 0
M  V30 5326 O 508.612 1.64791 1.15784 0
M  V30 5327 C 505.677 3.01478 1.71207 0
M  V30 5328 C 504.738 4.12997 1.17185 0
M  V30 5329 C 503.971 4.83212 2.26588 0
M  V30 5330 O 504.194 4.52884 3.46775 0
M  V30 5331 O 503.128 5.70299 1.92463 0
M  V30 5332 H 506.954 3.03683 -0.0319614 0
M  V30 5333 H 504.539 1.49178 -0.0814188 0
M  V30 5334 H 506.421 3.47683 2.38106 0
M  V30 5335 H 505.096 2.28414 2.29366 0
M  V30 5336 H 504.003 3.71159 0.468174 0
M  V30 5337 H 505.336 4.8808 0.635501 0
M  V30 5338 N 506.988 0.0434614 1.5754 0
M  V30 5339 C 507.918 -0.931651 2.14109 0
M  V30 5340 C 508.899 -1.32971 1.06079 0
M  V30 5341 O 510.084 -1.40579 1.33982 0
M  V30 5342 C 507.214 -2.20914 2.67982 0
M  V30 5343 C 506.168 -1.95139 3.80926 0
M  V30 5344 C 505.494 -3.29276 4.21285 0
M  V30 5345 C 506.794 -1.27913 5.06395 0
M  V30 5346 H 508.488 -0.460497 2.95837 0
M  V30 5347 H 506.034 -0.220058 1.42309 0
M  V30 5348 H 507.987 -2.89522 3.06194 0
M  V30 5349 H 506.711 -2.70221 1.83434 0
M  V30 5350 H 505.37 -1.28945 3.43175 0
M  V30 5351 H 505.018 -3.76369 3.33699 0
M  V30 5352 H 504.718 -3.12831 4.97404 0
M  V30 5353 H 506.242 -3.99129 4.62091 0
M  V30 5354 H 507.656 -1.86544 5.42102 0
M  V30 5355 H 506.053 -1.2182 5.87605 0
M  V30 5356 H 507.123 -0.254066 4.84234 0
M  V30 5357 N 508.466 -1.55915 -0.229846 0
M  V30 5358 C 509.877 -1.68809 -0.797531 0
M  V30 5359 C 510.228 -0.643995 -1.8533 0
M  V30 5360 O 509.353 0.206492 -2.15413 0
M  V30 5361 C 509.948 -3.06043 -1.45338 0
M  V30 5362 C 508.507 -3.20819 -1.96856 0
M  V30 5363 C 507.654 -2.6472 -0.825736 0
M  V30 5364 H 510.605 -1.58699 -0.00533733 0
M  V30 5365 H 510.626 -3.01438 -2.32196 0
M  V30 5366 H 510.138 -3.82012 -0.684743 0
M  V30 5367 H 508.239 -2.49704 -2.76548 0
M  V30 5368 H 508.352 -4.27937 -2.15423 0
M  V30 5369 H 506.716 -2.22985 -1.23084 0
M  V30 5370 H 507.499 -3.43229 -0.0699019 0
M  V30 5371 N 509.944 0.496216 -1.49584 0
M  V30 5372 C 510.854 1.62352 -1.69349 0
M  V30 5373 C 511.87 1.64184 -0.576147 0
M  V30 5374 O 513.046 1.82517 -0.85144 0
M  V30 5375 C 510.111 2.98698 -1.76013 0
M  V30 5376 C 509.172 3.07454 -2.99617 0
M  V30 5377 C 508.405 4.37296 -3.05953 0
M  V30 5378 O 508.628 5.2637 -2.19752 0
M  V30 5379 O 507.562 4.51124 -3.9846 0
M  V30 5380 H 511.388 1.48606 -2.64859 0
M  V30 5381 H 508.973 0.673022 -1.33382 0
M  V30 5382 H 510.855 3.79725 -1.82721 0
M  V30 5383 H 509.53 3.12696 -0.836828 0
M  V30 5384 H 508.437 2.25597 -2.98424 0
M  V30 5385 H 509.77 2.98385 -3.91443 0
M  V30 5386 N 511.423 1.38739 0.74761 0
M  V30 5387 C 512.671 1.35007 1.50391 0
M  V30 5388 C 512.992 -0.0574274 1.94915 0
M  V30 5389 O 512.262 -1.00628 1.6808 0
M  V30 5390 H 510.842 0.496784 0.557866 0
M  V30 5391 H 513.504 1.73479 0.888319 0
M  V30 5392 H 512.6 2.00474 2.392 0
M  V30 5393 N 512.901 -0.976442 1.23707 0
M  V30 5394 C 514.147 -1.72081 1.07312 0
M  V30 5395 C 514.48 -1.90275 -0.388476 0
M  V30 5396 O 513.755 -1.4579 -1.28746 0
M  V30 5397 C 514.038 -3.11675 1.80363 0
M  V30 5398 C 513.891 -3.01027 3.3422 0
M  V30 5399 C 515.21 -4.1117 1.5693 0
M  V30 5400 H 512.329 -0.624583 0.391236 0
M  V30 5401 H 514.971 -1.13649 1.52263 0
M  V30 5402 H 513.121 -3.61559 1.42153 0
M  V30 5403 H 514.793 -2.58637 3.81975 0
M  V30 5404 H 513.036 -2.3744 3.63049 0
M  V30 5405 H 513.707 -3.9988 3.80525 0
M  V30 5406 H 516.183 -3.7011 1.90151 0
M  V30 5407 H 515.059 -5.06928 2.10513 0
M  V30 5408 H 515.32 -4.392 0.505548 0
M  V30 5409 N 514.379 -1.04941 -1.1758 0
M  V30 5410 C 515.289 -0.658826 -2.25159 0
M  V30 5411 C 516.305 0.318941 -1.71052 0
M  V30 5412 O 517.481 0.171669 -2.00667 0
M  V30 5413 C 514.546 -0.0369522 -3.4668 0
M  V30 5414 C 513.607 -1.06484 -4.15884 0
M  V30 5415 C 512.84 -0.472551 -5.31604 0
M  V30 5416 O 513.063 0.718736 -5.65854 0
M  V30 5417 O 511.997 -1.20557 -5.89703 0
M  V30 5418 H 515.823 -1.55533 -2.60851 0
M  V30 5419 H 513.408 -0.820819 -1.24832 0
M  V30 5420 H 515.29 0.308784 -4.20267 0
M  V30 5421 H 513.965 0.833238 -3.12792 0
M  V30 5422 H 512.872 -1.46253 -3.44327 0
M  V30 5423 H 514.205 -1.9061 -4.53794 0
M  V30 5424 N 515.857 1.33968 -0.830081 0
M  V30 5425 C 516.79 2.27303 -0.202182 0
M  V30 5426 C 517.768 1.49235 0.645581 0
M  V30 5427 O 518.952 1.78433 0.607762 0
M  V30 5428 C 516.079 3.31025 0.716932 0
M  V30 5429 C 515.125 4.26466 -0.0542271 0
M  V30 5430 S 515.958 5.16707 -1.40622 0
M  V30 5431 C 517.114 6.23962 -0.492167 0
M  V30 5432 H 517.347 2.8021 -0.99346 0
M  V30 5433 H 514.88 1.41124 -0.626359 0
M  V30 5434 H 516.838 3.91271 1.24165 0
M  V30 5435 H 515.499 2.76951 1.4818 0
M  V30 5436 H 514.692 4.99858 0.644785 0
M  V30 5437 H 514.294 3.7051 -0.509722 0
M  V30 5438 H 516.586 6.76774 0.31347 0
M  V30 5439 H 517.529 6.97927 -1.19599 0
M  V30 5440 H 517.937 5.64447 -0.0774176 0
M  V30 5441 N 517.335 0.585699 1.46312 0
M  V30 5442 C 518.581 0.0725284 2.0267 0
M  V30 5443 C 518.914 -1.28523 1.45586 0
M  V30 5444 O 518.189 -1.84283 0.622101 0
M  V30 5445 C 518.472 0.0099788 3.60099 0
M  V30 5446 C 518.325 1.39685 4.27561 0
M  V30 5447 C 519.644 -0.689117 4.34671 0
M  V30 5448 H 516.763 0.0278307 0.736474 0
M  V30 5449 H 519.405 0.753472 1.74421 0
M  V30 5450 H 517.555 -0.56992 3.84297 0
M  V30 5451 H 519.227 2.02215 4.14617 0
M  V30 5452 H 517.47 1.96374 3.86807 0
M  V30 5453 H 518.141 1.30553 5.36339 0
M  V30 5454 H 520.617 -0.196446 4.15636 0
M  V30 5455 H 519.493 -0.701921 5.44393 0
M  V30 5456 H 519.754 -1.75101 4.05946 0
M  V30 5457 N 518.813 -1.54241 0.323641 0
M  V30 5458 C 519.746 -2.20579 -0.584833 0
M  V30 5459 C 520.724 -1.18286 -1.11567 0
M  V30 5460 O 521.908 -1.47025 -1.17966 0
M  V30 5461 C 519.035 -2.86754 -1.80249 0
M  V30 5462 C 518.081 -4.02767 -1.4029 0
M  V30 5463 S 518.914 -5.33693 -0.439539 0
M  V30 5464 C 520.07 -6.03362 -1.66448 0
M  V30 5465 H 520.303 -2.97292 -0.0213238 0
M  V30 5466 H 517.836 -1.54024 0.107726 0
M  V30 5467 H 519.794 -3.25503 -2.50116 0
M  V30 5468 H 518.455 -2.09844 -2.33719 0
M  V30 5469 H 517.648 -4.47933 -2.31024 0
M  V30 5470 H 517.25 -3.65692 -0.783928 0
M  V30 5471 H 519.542 -6.25546 -2.6019 0
M  V30 5472 H 520.485 -6.9689 -1.25498 0
M  V30 5473 H 520.893 -5.33273 -1.85149 0
M  V30 5474 N 520.291 -0.0518155 -1.57515 0
M  V30 5475 C 521.702 0.483787 -1.80323 0
M  V30 5476 C 522.053 1.70879 -0.964099 0
M  V30 5477 O 521.178 2.15643 -0.180872 0
M  V30 5478 C 521.773 0.884459 -3.27052 0
M  V30 5479 C 520.332 1.36504 -3.50776 0
M  V30 5480 C 519.479 0.340539 -2.75201 0
M  V30 5481 H 522.43 -0.277691 -1.56252 0
M  V30 5482 H 522.451 1.74733 -3.38007 0
M  V30 5483 H 521.963 -0.00731093 -3.88099 0
M  V30 5484 H 520.064 2.27598 -2.95009 0
M  V30 5485 H 520.177 1.35675 -4.59488 0
M  V30 5486 H 518.541 0.81356 -2.41357 0
M  V30 5487 H 519.324 -0.543156 -3.38976 0
M  V30 5488 N 521.769 1.56035 0.221574 0
M  V30 5489 C 523.017 1.78693 0.944102 0
M  V30 5490 C 523.338 0.620317 1.8487 0
M  V30 5491 O 522.608 -0.362784 1.92512 0
M  V30 5492 H 521.188 0.659082 0.351597 0
M  V30 5493 H 523.85 1.93497 0.233435 0
M  V30 5494 H 522.946 2.70837 1.55093 0
M  V30 5495 N 523.247 -0.488276 1.49845 0
M  V30 5496 C 524.524 -1.24959 1.50481 0
M  V30 5497 C 524.904 -2.09735 0.239698 0
M  V30 5498 O 524.252 -2.14865 -0.777524 0
M  V30 5499 C 524.462 -2.0954 2.79095 0
M  V30 5500 C 525.81 -2.68305 3.29086 0
M  V30 5501 O 526.834 -2.19797 2.80299 0
M  V30 5502 O 525.693 -3.56643 4.14087 0
M  V30 5503 H 522.787 -0.566133 0.602845 0
M  V30 5504 H 525.333 -0.501504 1.6212 0
M  V30 5505 H 524.105 -1.46958 3.62656 0
M  V30 5506 H 523.728 -2.91517 2.70377 0
M  V30 5507 N 524.725 -1.39134 -0.740242 0
M  V30 5508 C 525.673 -1.3757 -1.87556 0
M  V30 5509 C 526.667 -0.259593 -1.67399 0
M  V30 5510 O 527.873 -0.429349 -1.74804 0
M  V30 5511 H 524.248 -0.42947 -0.6173 0
M  V30 5512 H 526.219 -2.33345 -1.85991 0
M  V30 5513 C 524.968 -1.23087 -3.25184 0
M  V30 5514 H 524.291 -2.08237 -3.41288 0
M  V30 5515 H 525.731 -1.26049 -4.0483 0
M  V30 5516 C 524.19 0.0611471 -3.36845 0
M  V30 5517 O 524.72 1.03328 -3.88183 0
M  V30 5518 N 522.926 0.122454 -2.90342 0
M  V30 5519 H 522.473 -0.669329 -2.48752 0
M  V30 5520 H 522.431 0.986463 -2.98523 0
M  V30 5521 N 526.204 0.969867 -1.24223 0
M  V30 5522 C 527.453 1.70687 -1.07466 0
M  V30 5523 C 527.766 1.91736 0.386861 0
M  V30 5524 O 528.972 2.62986 0.674581 0
M  V30 5525 C 527.428 3.07217 -1.87472 0
M  V30 5526 C 527.036 2.94018 -3.3802 0
M  V30 5527 C 528.78 3.84804 -1.79237 0
M  V30 5528 C 526.687 4.25844 -4.10379 0
M  V30 5529 H 525.617 0.640067 -0.398536 0
M  V30 5530 H 528.268 1.08092 -1.48285 0
M  V30 5531 H 526.65 3.70628 -1.39466 0
M  V30 5532 H 527.824 2.39632 -3.9359 0
M  V30 5533 H 526.139 2.29898 -3.47183 0
M  V30 5534 H 528.736 4.82417 -2.30603 0
M  V30 5535 H 529.079 4.09356 -0.757197 0
M  V30 5536 H 529.612 3.28115 -2.24912 0
M  V30 5537 H 526.351 4.06486 -5.14246 0
M  V30 5538 H 525.871 4.80054 -3.59594 0
M  V30 5539 H 527.55 4.94475 -4.17257 0
M  V30 5540 N 527.682 1.05563 1.17022 0
M  V30 5541 C 528.629 0.659893 2.21165 0
M  V30 5542 C 529.599 -0.339813 1.62587 0
M  V30 5543 O 530.784 -0.230378 1.89404 0
M  V30 5544 C 527.924 0.0447297 3.45071 0
M  V30 5545 C 527.037 1.09372 4.17926 0
M  V30 5546 C 526.172 0.445481 5.29329 0
M  V30 5547 C 525.211 1.47852 5.93975 0
M  V30 5548 N 524.348 0.854172 6.96885 0
M  V30 5549 H 529.188 1.55243 2.54369 0
M  V30 5550 H 526.725 0.776336 1.24946 0
M  V30 5551 H 528.683 -0.329404 4.15898 0
M  V30 5552 H 527.313 -0.811244 3.1244 0
M  V30 5553 H 526.365 1.58564 3.45777 0
M  V30 5554 H 527.677 1.87773 4.62107 0
M  V30 5555 H 526.831 0.0179688 6.06697 0
M  V30 5556 H 525.57 -0.370481 4.86291 0
M  V30 5557 H 524.575 1.91601 5.15334 0
M  V30 5558 H 525.8 2.29645 6.39093 0
M  V30 5559 H 523.746 0.0587882 6.55974 0
M  V30 5560 H 523.663 1.57567 7.39397 0
M  V30 5561 H 524.931 0.451559 7.78191 0
M  V30 5562 N 529.16 -1.33526 0.837174 0
M  V30 5563 C 530.093 -2.27192 0.214233 0
M  V30 5564 C 531.071 -1.49575 -0.637657 0
M  V30 5565 O 532.255 -1.78753 -0.598291 0
M  V30 5566 C 529.382 -3.31401 -0.699367 0
M  V30 5567 C 528.428 -4.26431 0.0768429 0
M  V30 5568 S 529.261 -5.15954 1.4336 0
M  V30 5569 C 530.417 -6.23692 0.525251 0
M  V30 5570 H 530.65 -2.79679 1.00831 0
M  V30 5571 H 528.183 -1.4079 0.633834 0
M  V30 5572 H 530.141 -3.91924 -1.22088 0
M  V30 5573 H 528.802 -2.77732 -1.46709 0
M  V30 5574 H 527.995 -5.00193 -0.618268 0
M  V30 5575 H 527.597 -3.70235 0.529364 0
M  V30 5576 H 529.889 -6.76931 -0.277575 0
M  V30 5577 H 530.832 -6.97283 1.23299 0
M  V30 5578 H 531.24 -5.64398 0.107351 0
M  V30 5579 N 530.638 -0.59345 -1.46 0
M  V30 5580 C 531.884 -0.0832754 -2.02629 0
M  V30 5581 C 532.217 1.27749 -1.46266 0
M  V30 5582 O 531.492 1.8395 -0.631866 0
M  V30 5583 C 531.775 -0.0290756 -3.60088 0
M  V30 5584 C 531.628 -1.41951 -4.26814 0
M  V30 5585 C 532.947 0.666055 -4.35031 0
M  V30 5586 H 530.066 -0.031736 -0.736316 0
M  V30 5587 H 532.708 -0.762711 -1.74019 0
M  V30 5588 H 530.858 0.549532 -3.84594 0
M  V30 5589 H 532.53 -2.04411 -4.13538 0
M  V30 5590 H 530.773 -1.98422 -3.8576 0
M  V30 5591 H 531.444 -1.33395 -5.3564 0
M  V30 5592 H 533.92 0.174401 -4.15734 0
M  V30 5593 H 532.796 0.673041 -5.44758 0
M  V30 5594 H 533.057 1.72946 -4.06869 0
M  V30 5595 N 532.116 1.54067 -0.331816 0
M  V30 5596 C 533.362 2.01012 0.268667 0
M  V30 5597 C 533.695 1.2195 1.51136 0
M  V30 5598 O 532.97 0.303972 1.9211 0
M  V30 5599 C 533.253 3.55158 0.59456 0
M  V30 5600 C 533.106 4.4494 -0.659409 0
M  V30 5601 C 534.425 4.16939 1.4089 0
M  V30 5602 H 531.544 0.730698 0.0961756 0
M  V30 5603 H 534.186 1.84593 -0.450031 0
M  V30 5604 H 532.336 3.6928 1.20685 0
M  V30 5605 H 534.008 4.42675 -1.29756 0
M  V30 5606 H 532.251 4.1428 -1.28665 0
M  V30 5607 H 532.922 5.50643 -0.386804 0
M  V30 5608 H 535.398 4.06443 0.891272 0
M  V30 5609 H 534.274 5.24889 1.60569 0
M  V30 5610 H 534.535 3.70798 2.40752 0
M  V30 5611 N 533.594 0.0601682 1.57485 0
M  V30 5612 C 534.822 -0.620937 1.97363 0
M  V30 5613 C 535.237 -1.63846 0.938082 0
M  V30 5614 O 534.594 -1.82339 -0.0766578 0
M  V30 5615 C 534.645 -1.29987 3.37321 0
M  V30 5616 O 534.366 -0.323081 4.36907 0
M  V30 5617 C 535.867 -2.06989 3.92008 0
M  V30 5618 H 533.087 -0.169135 0.649334 0
M  V30 5619 H 535.631 0.129132 2.04092 0
M  V30 5620 H 533.786 -2.0011 3.31715 0
M  V30 5621 H 534.2 -0.808754 5.18227 0
M  V30 5622 H 535.674 -2.49901 4.92192 0
M  V30 5623 H 536.151 -2.92173 3.2792 0
M  V30 5624 H 536.757 -1.41757 4.0098 0
M  V30 5625 N 535.072 -1.5615 -0.213296 0
M  V30 5626 C 536.002 -1.96109 -1.26742 0
M  V30 5627 C 536.983 -0.830448 -1.48451 0
M  V30 5628 O 538.168 -1.09339 -1.60495 0
M  V30 5629 C 535.298 -2.28492 -2.61551 0
M  V30 5630 C 534.252 -3.44124 -2.54485 0
M  V30 5631 C 533.578 -3.62134 -3.93399 0
M  V30 5632 C 534.878 -4.78855 -2.08556 0
M  V30 5633 H 536.572 -2.84412 -0.935434 0
M  V30 5634 H 534.118 -1.36836 -0.44854 0
M  V30 5635 H 536.071 -2.55039 -3.3546 0
M  V30 5636 H 534.795 -1.37052 -2.96453 0
M  V30 5637 H 533.454 -3.17639 -1.83033 0
M  V30 5638 H 533.102 -2.68055 -4.25623 0
M  V30 5639 H 532.802 -4.39913 -3.89551 0
M  V30 5640 H 534.326 -3.91038 -4.68958 0
M  V30 5641 H 535.74 -5.04552 -2.72213 0
M  V30 5642 H 534.137 -5.59975 -2.1575 0
M  V30 5643 H 535.207 -4.73657 -1.03811 0
M  V30 5644 N 536.55 0.480323 -1.50102 0
M  V30 5645 C 537.799 1.22979 -1.59872 0
M  V30 5646 C 538.112 1.93282 -0.30022 0
M  V30 5647 O 539.318 2.70086 -0.276709 0
M  V30 5648 C 537.774 2.23408 -2.82164 0
M  V30 5649 C 537.382 1.5895 -4.18854 0
M  V30 5650 C 539.126 2.99055 -3.01275 0
M  V30 5651 C 537.033 2.57611 -5.32344 0
M  V30 5652 H 535.963 0.462707 -0.59533 0
M  V30 5653 H 538.614 0.501291 -1.7652 0
M  V30 5654 H 536.996 2.99511 -2.59055 0
M  V30 5655 H 538.17 0.887 -4.52182 0
M  V30 5656 H 536.485 0.956191 -4.05273 0
M  V30 5657 H 539.082 3.72876 -3.83233 0
M  V30 5658 H 539.425 3.57897 -2.12639 0
M  V30 5659 H 539.958 2.30066 -3.24522 0
M  V30 5660 H 536.697 2.03521 -6.23105 0
M  V30 5661 H 536.217 3.26041 -5.03445 0
M  V30 5662 H 537.896 3.19627 -5.62537 0
M  V30 5663 N 538.028 1.39524 0.732853 0
M  V30 5664 C 538.978 1.34905 1.83806 0
M  V30 5665 C 539.962 0.229546 1.59254 0
M  V30 5666 O 541.154 0.467255 1.70721 0
M  V30 5667 C 538.283 1.19699 3.21756 0
M  V30 5668 C 537.369 2.36359 3.5213 0
M  V30 5669 N 537.76 3.61834 3.53426 0
M  V30 5670 C 536.058 2.29363 3.82503 0
M  V30 5671 C 536.759 4.38992 3.81655 0
M  V30 5672 N 535.735 3.68606 3.99538 0
M  V30 5673 H 539.537 2.29882 1.83116 0
M  V30 5674 H 537.051 1.33051 0.931194 0
M  V30 5675 H 539.048 1.14472 4.00876 0
M  V30 5676 H 537.708 0.256739 3.23683 0
M  V30 5677 H 538.719 3.95228 3.34686 0
M  V30 5678 H 535.396 1.43612 3.92023 0
M  V30 5679 H 536.786 5.47763 3.89108 0
M  V30 5680 N 539.506 -0.963266 1.24736 0
M  V30 5681 C 540.917 -1.52145 1.08207 0
M  V30 5682 C 541.268 -1.93142 -0.345061 0
M  V30 5683 O 540.393 -1.77769 -1.23399 0
M  V30 5684 C 540.988 -2.76486 1.95808 0
M  V30 5685 C 539.547 -3.28646 1.8349 0
M  V30 5686 C 538.694 -2.01529 1.90476 0
M  V30 5687 H 541.645 -0.781083 1.38148 0
M  V30 5688 H 541.666 -3.49986 1.49297 0
M  V30 5689 H 541.178 -2.46617 2.99669 0
M  V30 5690 H 539.279 -3.63357 0.824787 0
M  V30 5691 H 539.392 -3.97246 2.67829 0
M  V30 5692 H 537.756 -2.16442 1.34258 0
M  V30 5693 H 538.539 -1.7402 2.95926 0
M  V30 5694 N 540.985 -1.06182 -1.16461 0
M  V30 5695 C 542.234 -0.772927 -1.86303 0
M  V30 5696 C 542.547 0.703187 -1.82523 0
M  V30 5697 O 543.753 1.10641 -2.47933 0
M  V30 5698 C 542.209 -1.33249 -3.34324 0
M  V30 5699 C 541.817 -2.83876 -3.46581 0
M  V30 5700 C 543.561 -1.12108 -4.09429 0
M  V30 5701 C 541.468 -3.33082 -4.88682 0
M  V30 5702 H 540.398 -0.285452 -0.697878 0
M  V30 5703 H 543.049 -1.28039 -1.31447 0
M  V30 5704 H 541.431 -0.7528 -3.88779 0
M  V30 5705 H 542.605 -3.47786 -3.02293 0
M  V30 5706 H 540.92 -3.03671 -2.84909 0
M  V30 5707 H 543.517 -1.46361 -5.14279 0
M  V30 5708 H 543.86 -0.0593832 -4.16258 0
M  V30 5709 H 544.393 -1.6665 -3.6121 0
M  V30 5710 H 541.132 -4.38726 -4.87032 0
M  V30 5711 H 540.652 -2.73919 -5.33599 0
M  V30 5712 H 542.331 -3.28344 -5.57494 0
M  V30 5713 N 542.463 1.3308 -0.844243 0
M  V30 5714 C 543.426 2.27403 -0.286485 0
M  V30 5715 C 544.426 1.51179 0.547872 0
M  V30 5716 O 545.616 1.70421 0.360886 0
M  V30 5717 C 542.748 3.35653 0.595813 0
M  V30 5718 H 543.941 2.78248 -1.11885 0
M  V30 5719 H 541.494 1.43574 -0.617749 0
M  V30 5720 H 542.229 2.90058 1.4504 0
M  V30 5721 H 542.014 3.921 -0.00125994 0
M  V30 5722 H 543.504 4.05958 0.979168 0
M  V30 5723 N 543.941 0.601185 1.45683 0
M  V30 5724 C 544.874 -0.17013 2.27565 0
M  V30 5725 C 545.852 -0.879661 1.36751 0
M  V30 5726 O 547.036 -0.889827 1.66176 0
M  V30 5727 C 544.163 -1.24568 3.14961 0
M  V30 5728 C 543.209 -0.639978 4.21671 0
M  V30 5729 S 544.042 0.547275 5.32696 0
M  V30 5730 C 545.198 -0.529019 6.2366 0
M  V30 5731 H 545.431 0.524583 2.92635 0
M  V30 5732 H 542.964 0.388537 1.49431 0
M  V30 5733 H 544.922 -1.86138 3.65873 0
M  V30 5734 H 543.583 -1.91243 2.49169 0
M  V30 5735 H 542.776 -1.44903 4.8272 0
M  V30 5736 H 542.378 -0.0995558 3.73867 0
M  V30 5737 H 544.67 -1.40981 6.62669 0
M  V30 5738 H 545.613 0.0451599 7.08086 0
M  V30 5739 H 546.021 -0.84147 5.58193 0
M  V30 5740 N 545.419 -1.53889 0.339982 0
M  V30 5741 C 546.696 -1.93084 -0.312719 0
M  V30 5742 C 547.076 -1.2712 -1.68534 0
M  V30 5743 O 546.424 -0.420835 -2.24591 0
M  V30 5744 C 546.634 -3.4683 -0.388558 0
M  V30 5745 C 547.982 -4.19732 -0.641088 0
M  V30 5746 O 549.006 -3.53075 -0.470818 0
M  V30 5747 O 547.865 -5.3781 -0.970685 0
M  V30 5748 H 544.959 -0.806784 -0.18174 0
M  V30 5749 H 547.505 -1.65137 0.390898 0
M  V30 5750 H 546.277 -3.87055 0.574821 0
M  V30 5751 H 545.9 -3.80933 -1.1391 0
M  V30 5752 N 546.897 -0.0685191 -1.57451 0
M  V30 5753 C 548.174 0.642167 -1.84758 0
M  V30 5754 C 548.554 1.87991 -0.960344 0
M  V30 5755 O 547.902 2.28485 -0.0257894 0
M  V30 5756 C 548.112 0.982946 -3.34872 0
M  V30 5757 C 549.46 1.35784 -4.02303 0
M  V30 5758 O 550.484 1.07477 -3.39598 0
M  V30 5759 O 549.343 1.88681 -5.12895 0
M  V30 5760 H 546.437 0.318625 -0.763156 0
M  V30 5761 H 548.983 -0.0992015 -1.6941 0
M  V30 5762 H 547.755 0.10372 -3.91163 0
M  V30 5763 H 547.378 1.78119 -3.55471 0
M  V30 5764 N 548.375 1.56261 0.205012 0
M  V30 5765 C 549.623 1.79684 0.925096 0
M  V30 5766 C 549.944 0.63989 1.84202 0
M  V30 5767 O 549.214 -0.342345 1.92885 0
M  V30 5768 H 547.794 0.662774 0.344587 0
M  V30 5769 H 550.456 1.93734 0.212899 0
M  V30 5770 H 549.552 2.72467 1.52211 0
M  V30 5771 N 549.853 -0.472356 1.50355 0
M  V30 5772 C 550.783 -1.57859 1.72055 0
M  V30 5773 C 551.764 -1.60283 0.569505 0
M  V30 5774 O 552.949 -1.7657 0.808503 0
M  V30 5775 C 550.079 -2.96191 1.81351 0
M  V30 5776 C 549.033 -3.08633 2.96529 0
M  V30 5777 C 548.359 -4.486 2.90968 0
M  V30 5778 C 549.659 -2.85969 4.37057 0
M  V30 5779 H 551.353 -1.39953 2.64676 0
M  V30 5780 H 548.899 -0.671846 1.27367 0
M  V30 5781 H 550.852 -3.73507 1.95117 0
M  V30 5782 H 549.576 -3.15251 0.853502 0
M  V30 5783 H 548.235 -2.33749 2.82413 0
M  V30 5784 H 547.883 -4.64577 1.92815 0
M  V30 5785 H 547.583 -4.57861 3.68289 0
M  V30 5786 H 549.107 -5.27938 3.0678 0
M  V30 5787 H 550.521 -3.53036 4.51706 0
M  V30 5788 H 548.918 -3.06677 5.15819 0
M  V30 5789 H 549.988 -1.81838 4.49514 0
M  V30 5790 N 551.331 -1.39911 -0.725443 0
M  V30 5791 C 552.747 -1.21725 -1.03224 0
M  V30 5792 C 552.947 -0.0855224 -2.01318 0
M  V30 5793 O 552.003 0.55976 -2.46217 0
M  V30 5794 C 553.316 -2.55511 -1.58539 0
M  V30 5795 C 554.864 -2.62439 -1.70572 0
M  V30 5796 C 555.339 -3.9647 -2.29294 0
M  V30 5797 N 556.83 -3.98159 -2.36692 0
M  V30 5798 C 557.565 -4.98647 -2.83088 0
M  V30 5799 N 557.061 -6.0953 -3.2931 0
M  V30 5800 N 558.854 -4.8602 -2.82384 0
M  V30 5801 H 551.005 -2.12267 -0.075048 0
M  V30 5802 H 553.268 -0.943136 -0.0959066 0
M  V30 5803 H 552.974 -3.38926 -0.939249 0
M  V30 5804 H 552.848 -2.75905 -2.57208 0
M  V30 5805 H 555.235 -1.79401 -2.34306 0
M  V30 5806 H 555.316 -2.45885 -0.705297 0
M  V30 5807 H 554.96 -4.79942 -1.66186 0
M  V30 5808 H 554.89 -4.10349 -3.30032 0
M  V30 5809 H 557.381 -3.18085 -2.04035 0
M  V30 5810 H 557.694 -6.82106 -3.6325 0
M  V30 5811 H 556.039 -6.1311 -3.27294 0
M  V30 5812 H 559.23 -3.98493 -2.45603 0
M  V30 5813 H 559.403 -5.64478 -3.18226 0
M  V30 5814 N 552.809 0.956637 -1.25245 0
M  V30 5815 C 554.056 1.701 -1.09874 0
M  V30 5816 C 554.384 1.91128 0.36062 0
M  V30 5817 O 553.639 1.47837 1.28229 0
M  V30 5818 C 553.938 3.08996 -1.79601 0
M  V30 5819 C 553.604 3.07774 -3.29523 0
M  V30 5820 C 552.266 3.07149 -3.70423 0
M  V30 5821 C 554.618 3.01257 -4.25316 0
M  V30 5822 C 551.946 2.97752 -5.0553 0
M  V30 5823 C 554.298 2.93403 -5.60444 0
M  V30 5824 C 552.962 2.91111 -6.00675 0
M  V30 5825 H 552.232 0.62244 -0.402056 0
M  V30 5826 H 554.879 1.1178 -1.55491 0
M  V30 5827 H 553.184 3.70848 -1.26408 0
M  V30 5828 H 554.881 3.65407 -1.65162 0
M  V30 5829 H 551.471 3.09032 -2.9698 0
M  V30 5830 H 555.655 3.00861 -3.9471 0
M  V30 5831 H 550.911 2.94346 -5.35883 0
M  V30 5832 H 555.085 2.87321 -6.34366 0
M  V30 5833 H 552.712 2.83586 -7.05325 0
M  V30 5834 N 554.287 1.06798 1.15896 0
M  V30 5835 C 555.25 0.687328 2.18651 0
M  V30 5836 C 556.25 -0.269559 1.58524 0
M  V30 5837 O 557.44 -0.0512627 1.74125 0
M  V30 5838 C 554.572 0.0121642 3.40898 0
M  V30 5839 H 555.765 1.59701 2.53842 0
M  V30 5840 H 553.318 0.863828 1.3026 0
M  V30 5841 H 554.053 -0.910025 3.1127 0
M  V30 5842 H 553.838 0.700309 3.85795 0
M  V30 5843 H 555.328 -0.239703 4.16911 0
M  V30 5844 N 555.766 -1.3263 0.851289 0
M  V30 5845 C 557.015 -1.96633 0.449267 0
M  V30 5846 C 557.328 -1.68131 -0.999562 0
M  V30 5847 O 558.534 -2.25845 -1.50685 0
M  V30 5848 C 556.99 -3.51946 0.752446 0
M  V30 5849 C 556.598 -3.89311 2.21678 0
M  V30 5850 C 558.342 -4.22437 0.417983 0
M  V30 5851 C 556.249 -5.37655 2.46336 0
M  V30 5852 H 555.179 -0.735888 0.164269 0
M  V30 5853 H 557.83 -1.51073 1.0416 0
M  V30 5854 H 556.212 -3.95899 0.0895858 0
M  V30 5855 H 557.386 -3.56378 2.92115 0
M  V30 5856 H 555.701 -3.31836 2.51543 0
M  V30 5857 H 558.298 -5.31549 0.579674 0
M  V30 5858 H 558.641 -4.11349 -0.640115 0
M  V30 5859 H 559.174 -3.84057 1.03659 0
M  V30 5860 H 555.913 -5.5376 3.50757 0
M  V30 5861 H 555.433 -5.72005 1.80473 0
M  V30 5862 H 557.112 -6.04695 2.30115 0
M  V30 5863 N 557.244 -0.608902 -1.45362 0
M  V30 5864 C 558.66 -0.272659 -1.57254 0
M  V30 5865 C 558.86 1.22477 -1.60005 0
M  V30 5866 O 557.916 2.00785 -1.53106 0
M  V30 5867 C 559.229 -0.944991 -2.85465 0
M  V30 5868 C 560.777 -0.921033 -2.99142 0
M  V30 5869 C 561.252 -1.5734 -4.30126 0
M  V30 5870 N 562.743 -1.53895 -4.36887 0
M  V30 5871 C 563.478 -2.01286 -5.36909 0
M  V30 5872 N 562.974 -2.56768 -6.43461 0
M  V30 5873 N 564.767 -1.92046 -5.28275 0
M  V30 5874 H 556.918 -1.58117 -1.4182 0
M  V30 5875 H 559.181 -0.662437 -0.678146 0
M  V30 5876 H 558.887 -1.99941 -2.89338 0
M  V30 5877 H 558.761 -0.469079 -3.74272 0
M  V30 5878 H 561.148 0.124846 -2.94836 0
M  V30 5879 H 561.229 -1.43522 -2.11743 0
M  V30 5880 H 560.873 -2.61862 -4.35191 0
M  V30 5881 H 560.803 -1.03422 -5.16344 0
M  V30 5882 H 563.294 -1.13366 -3.60495 0
M  V30 5883 H 563.607 -2.9072 -7.16032 0
M  V30 5884 H 561.952 -2.60808 -6.44208 0
M  V30 5885 H 565.143 -1.48439 -4.43941 0
M  V30 5886 H 565.316 -2.29293 -6.06077 0
M  V30 5887 N 558.722 1.53707 -0.348139 0
M  V30 5888 C 559.632 2.28881 0.514857 0
M  V30 5889 C 560.648 1.34168 1.10793 0
M  V30 5890 O 561.824 1.6721 1.12262 0
M  V30 5891 C 558.889 3.05042 1.64774 0
M  V30 5892 C 557.95 4.15389 1.08398 0
M  V30 5893 C 557.183 4.87909 2.16287 0
M  V30 5894 O 557.406 4.60137 3.3709 0
M  V30 5895 O 556.34 5.74254 1.80323 0
M  V30 5896 H 560.166 3.03547 -0.0963699 0
M  V30 5897 H 557.751 1.48972 -0.113043 0
M  V30 5898 H 559.633 3.52656 2.30677 0
M  V30 5899 H 558.308 2.33228 2.24469 0
M  V30 5900 H 557.215 3.72068 0.389341 0
M  V30 5901 H 558.548 4.89318 0.531829 0
M  V30 5902 N 560.2 0.0768682 1.57412 0
M  V30 5903 C 561.448 -0.589918 1.93299 0
M  V30 5904 C 561.769 -1.69842 0.958049 0
M  V30 5905 O 561.039 -1.95899 0.00703261 0
M  V30 5906 H 559.619 -0.220901 0.713591 0
M  V30 5907 H 562.281 0.135917 1.94425 0
M  V30 5908 H 561.377 -1.01195 2.95239 0
M  V30 5909 N 561.678 -1.56367 -0.196722 0
M  V30 5910 C 562.926 -1.80172 -0.915554 0
M  V30 5911 C 563.247 -0.649649 -1.8386 0
M  V30 5912 O 562.517 0.332111 -1.93064 0
M  V30 5913 H 561.097 -0.664592 -0.341067 0
M  V30 5914 H 563.759 -1.93844 -0.202622 0
M  V30 5915 H 562.855 -2.7327 -1.50764 0
M  V30 5916 N 563.156 0.464375 -1.50603 0
M  V30 5917 C 564.572 0.798684 -1.38178 0
M  V30 5918 C 564.772 1.96568 -0.44308 0
M  V30 5919 O 563.828 2.52252 0.111814 0
M  V30 5920 C 565.141 1.10444 -2.79683 0
M  V30 5921 C 566.689 1.2105 -2.88645 0
M  V30 5922 C 567.164 1.54934 -4.30998 0
M  V30 5923 N 568.655 1.61913 -4.3398 0
M  V30 5924 C 569.39 1.8965 -5.41129 0
M  V30 5925 N 568.886 2.15361 -6.58477 0
M  V30 5926 N 570.679 1.91207 -5.28579 0
M  V30 5927 H 562.83 -0.304603 -2.10204 0
M  V30 5928 H 565.093 -0.0737804 -0.945125 0
M  V30 5929 H 564.799 0.319934 -3.50242 0
M  V30 5930 H 564.673 2.03896 -3.17342 0
M  V30 5931 H 567.06 1.98567 -2.18301 0
M  V30 5932 H 567.141 0.255613 -2.5452 0
M  V30 5933 H 566.785 0.779549 -5.01882 0
M  V30 5934 H 566.715 2.51584 -4.62615 0
M  V30 5935 H 569.206 1.44055 -3.49366 0
M  V30 5936 H 569.519 2.35818 -7.35941 0
M  V30 5937 H 567.864 2.1274 -6.6164 0
M  V30 5938 H 571.055 1.70622 -4.35897 0
M  V30 5939 H 571.228 2.12488 -6.12171 0
M  V30 5940 N 564.634 1.40294 0.718013 0
M  V30 5941 C 565.862 1.4175 1.50714 0
M  V30 5942 C 566.277 0.0165366 1.88793 0
M  V30 5943 O 565.634 -0.958942 1.55276 0
M  V30 5944 C 565.685 2.30598 2.784 0
M  V30 5945 O 565.406 3.6524 2.41932 0
M  V30 5946 C 566.907 2.4062 3.72313 0
M  V30 5947 H 564.127 0.483565 0.465194 0
M  V30 5948 H 566.671 1.84316 0.885889 0
M  V30 5949 H 564.826 1.91401 3.36815 0
M  V30 5950 H 565.24 4.12402 3.24076 0
M  V30 5951 H 566.714 3.07001 4.58753 0
M  V30 5952 H 567.191 1.4305 4.15251 0
M  V30 5953 H 567.797 2.80359 3.19811 0
M  V30 5954 N 566.112 -0.949982 1.2575 0
M  V30 5955 C 567.358 -1.69766 1.10938 0
M  V30 5956 C 567.691 -1.91056 -0.348028 0
M  V30 5957 O 566.966 -1.48488 -1.25625 0
M  V30 5958 C 567.249 -3.07779 1.86933 0
M  V30 5959 C 567.102 -2.9387 3.4053 0
M  V30 5960 C 568.421 -4.07749 1.65616 0
M  V30 5961 H 565.54 -0.616144 0.404396 0
M  V30 5962 H 568.182 -1.10394 1.54639 0
M  V30 5963 H 566.332 -3.58462 1.4979 0
M  V30 5964 H 568.004 -2.50476 3.87375 0
M  V30 5965 H 566.247 -2.29686 3.68004 0
M  V30 5966 H 566.918 -3.91719 3.88922 0
M  V30 5967 H 569.394 -3.65994 1.97959 0
M  V30 5968 H 568.27 -5.02348 2.21218 0
M  V30 5969 H 568.531 -4.38029 0.598595 0
M  V30 5970 N 567.59 -1.07411 -1.15328 0
M  V30 5971 C 568.838 -0.796073 -1.85761 0
M  V30 5972 C 569.159 0.679864 -1.82764 0
M  V30 5973 O 568.429 1.49242 -1.269 0
M  V30 5974 H 567.009 -0.291495 -0.687779 0
M  V30 5975 H 569.671 -1.35799 -1.39802 0
M  V30 5976 H 568.767 -1.13114 -2.90881 0
M  V30 5977 N 569.068 1.32177 -0.85831 0
M  V30 5978 C 570.031 2.27086 -0.310588 0
M  V30 5979 C 571.031 1.51751 0.531806 0
M  V30 5980 O 572.221 1.70794 0.34279 0
M  V30 5981 C 569.353 3.36266 0.560179 0
M  V30 5982 H 570.546 2.77045 -1.1483 0
M  V30 5983 H 568.099 1.42911 -0.632942 0
M  V30 5984 H 568.834 2.9158 1.41956 0
M  V30 5985 H 568.619 3.92077 -0.0428473 0
M  V30 5986 H 570.109 4.06974 0.936056 0
M  V30 5987 N 570.547 0.616602 1.45037 0
M  V30 5988 C 571.795 0.115103 2.01772 0
M  V30 5989 C 572.116 -1.2622 1.48639 0
M  V30 5990 O 571.386 -1.83563 0.684199 0
M  V30 5991 H 569.966 0.0395607 0.745952 0
M  V30 5992 H 572.628 0.800032 1.77723 0
M  V30 5993 H 571.724 0.0717274 3.12018 0
M  V30 5994 N 572.025 -1.5352 0.356285 0
M  V30 5995 C 573.271 -2.01414 -0.236653 0
M  V30 5996 C 573.604 -1.24339 -1.49176 0
M  V30 5997 O 572.879 -0.334496 -1.91602 0
M  V30 5998 C 573.162 -3.56059 -0.537982 0
M  V30 5999 C 573.015 -4.43835 0.730112 0
M  V30 6000 C 574.334 -4.19127 -1.34239 0
M  V30 6001 H 571.453 -0.732135 -0.0845386 0
M  V30 6002 H 574.095 -1.83854 0.479341 0
M  V30 6003 H 572.245 -3.71153 -1.14795 0
M  V30 6004 H 573.917 -4.40555 1.36782 0
M  V30 6005 H 572.16 -4.1218 1.3524 0
M  V30 6006 H 572.831 -5.49958 0.474358 0
M  V30 6007 H 575.307 -4.07809 -0.826498 0
M  V30 6008 H 574.183 -5.27378 -1.52198 0
M  V30 6009 H 574.444 -3.74581 -2.34822 0
M  V30 6010 N 573.503 -0.0852151 -1.57369 0
M  V30 6011 C 574.749 0.581666 -1.94279 0
M  V30 6012 C 575.082 1.68444 -0.966446 0
M  V30 6013 O 574.357 1.945 0.00215277 0
M  V30 6014 C 574.64 1.14609 -3.41375 0
M  V30 6015 C 574.493 0.0490414 -4.49773 0
M  V30 6016 C 575.812 2.04751 -3.8957 0
M  V30 6017 H 572.931 0.209972 -0.706456 0
M  V30 6018 H 575.573 -0.153915 -1.89376 0
M  V30 6019 H 573.723 1.77297 -3.45685 0
M  V30 6020 H 575.395 -0.584721 -4.57579 0
M  V30 6021 H 573.638 -0.618638 -4.29366 0
M  V30 6022 H 574.309 0.484601 -5.49869 0
M  V30 6023 H 576.785 1.51981 -3.87351 0
M  V30 6024 H 575.661 2.41173 -4.93079 0
M  V30 6025 H 575.922 2.96107 -3.28288 0
M  V30 6026 N 574.981 1.5647 0.188427 0
M  V30 6027 C 575.944 1.9421 1.21718 0
M  V30 6028 C 576.944 0.823901 1.38089 0
M  V30 6029 O 578.134 1.09122 1.35787 0
M  V30 6030 C 575.266 2.22197 2.58537 0
M  V30 6031 H 576.459 2.86252 0.894418 0
M  V30 6032 H 574.012 1.50263 0.430211 0
M  V30 6033 H 574.747 1.32814 2.95856 0
M  V30 6034 H 574.532 3.03688 2.48025 0
M  V30 6035 H 576.022 2.52376 3.3271 0
M  V30 6036 N 576.459 -0.456382 1.50847 0
M  V30 6037 C 577.406 -1.55249 1.70782 0
M  V30 6038 C 578.376 -1.56757 0.549231 0
M  V30 6039 O 579.561 -1.74061 0.7815 0
M  V30 6040 C 576.701 -2.93118 1.82143 0
M  V30 6041 C 575.814 -3.01285 3.09598 0
M  V30 6042 C 574.949 -4.30159 3.11667 0
M  V30 6043 C 573.988 -4.32124 4.33515 0
M  V30 6044 N 573.125 -5.52492 4.3324 0
M  V30 6045 H 577.965 -1.37555 2.64353 0
M  V30 6046 H 575.502 -0.668543 1.3103 0
M  V30 6047 H 577.46 -3.73088 1.86711 0
M  V30 6048 H 576.09 -3.09413 0.919978 0
M  V30 6049 H 575.142 -2.14096 3.14431 0
M  V30 6050 H 576.454 -2.98597 3.99551 0
M  V30 6051 H 575.608 -5.18489 3.15046 0
M  V30 6052 H 574.347 -4.35477 2.1957 0
M  V30 6053 H 573.352 -3.42189 4.30333 0
M  V30 6054 H 574.577 -4.28485 5.26856 0
M  V30 6055 H 572.523 -5.58567 3.44004 0
M  V30 6056 H 572.44 -5.51605 5.16979 0
M  V30 6057 H 573.708 -6.42906 4.40786 0
M  V30 6058 N 577.937 -1.40673 -0.710563 0
M  V30 6059 C 579.183 -1.39428 -1.47267 0
M  V30 6060 C 579.516 0.00182129 -1.942 0
M  V30 6061 O 578.791 0.971387 -1.68506 0
M  V30 6062 C 579.074 -2.38812 -2.6952 0
M  V30 6063 C 578.927 -3.87467 -2.28449 0
M  V30 6064 C 580.246 -2.3566 -3.71689 0
M  V30 6065 H 577.365 -0.507768 -0.534173 0
M  V30 6066 H 580.007 -1.71843 -0.810547 0
M  V30 6067 H 578.157 -2.113 -3.26013 0
M  V30 6068 H 579.829 -4.25825 -1.77399 0
M  V30 6069 H 578.072 -4.03058 -1.60395 0
M  V30 6070 H 578.743 -4.5253 -3.16103 0
M  V30 6071 H 581.219 -2.6004 -3.24836 0
M  V30 6072 H 580.095 -3.07237 -4.54859 0
M  V30 6073 H 580.356 -1.36996 -4.20339 0
M  V30 6074 N 579.415 0.9433 -1.26252 0
M  V30 6075 C 580.345 2.05902 -1.10122 0
M  V30 6076 C 581.326 1.70099 -0.00700552 0
M  V30 6077 O 582.511 1.93377 -0.178641 0
M  V30 6078 C 579.641 3.39516 -0.731175 0
M  V30 6079 C 578.595 3.89372 -1.77688 0
M  V30 6080 C 577.921 5.19613 -1.26122 0
M  V30 6081 C 579.221 4.14489 -3.17799 0
M  V30 6082 H 580.915 2.19655 -2.03451 0
M  V30 6083 H 578.461 1.05548 -0.979576 0
M  V30 6084 H 580.414 4.17031 -0.605215 0
M  V30 6085 H 579.138 3.25733 0.23782 0
M  V30 6086 H 577.797 3.14036 -1.89148 0
M  V30 6087 H 577.445 5.02208 -0.282128 0
M  V30 6088 H 577.145 5.53939 -1.96023 0
M  V30 6089 H 578.669 5.99713 -1.14789 0
M  V30 6090 H 580.083 4.82625 -3.09428 0
M  V30 6091 H 578.48 4.60094 -3.85271 0
M  V30 6092 H 579.55 3.20347 -3.64014 0
M  V30 6093 N 580.893 1.08022 1.14757 0
M  V30 6094 C 582.141 0.805913 1.85336 0
M  V30 6095 C 582.462 -0.670162 1.83122 0
M  V30 6096 O 581.732 -1.48567 1.2769 0
M  V30 6097 H 580.312 0.295138 0.686223 0
M  V30 6098 H 582.974 1.36538 1.3908 0
M  V30 6099 H 582.07 1.14655 2.90277 0
M  V30 6100 O 582.41 -1.2689 0.999054 0
M  V30 6101 H 583.101 -1.82419 0.651387 0
M  V30 END ATOM
M  V30 BEGIN BOND
M  V30 END BOND
M  V30 END CTAB
M  END
$$$$
