drugbank_target|Q83QN9 Cell division protein ZipA (DB01967; DB02191; DB03916; DB04154)
 OpenBabel12092119533D

  0  0  0     0  0            999 V3000
M  V30 BEGIN CTAB
M  V30 COUNTS 5066 5137 0 0 0
M  V30 BEGIN ATOM
M  V30 1 H -0.908 1.98254 -0.117106 0
M  V30 2 N 0 1.576 0 0
M  V30 3 C 0.933 2.03868 1.02534 0
M  V30 4 C 1.911 0.928543 1.3348 0
M  V30 5 O 3.095 1.19667 1.45644 0
M  V30 6 C 0.222 2.43627 2.35294 0
M  V30 7 C -0.732 3.65373 2.2001 0
M  V30 8 S 0.101 5.13292 1.52614 0
M  V30 9 C 1.257 5.56322 2.86805 0
M  V30 10 H 1.49 2.90518 0.631377 0
M  V30 11 H -0.977 1.52953 0.210867 0
M  V30 12 H 0.981 2.67203 3.11629 0
M  V30 13 H -0.358 1.57376 2.7183 0
M  V30 14 H -1.165 3.90944 3.18086 0
M  V30 15 H -1.563 3.418 1.51819 0
M  V30 16 H 0.729 5.58782 3.83104 0
M  V30 17 H 1.672 6.56266 2.65933 0
M  V30 18 H 2.08 4.83886 2.90714 0
M  V30 19 N 1.4781 -0.272755 1.55222 0
M  V30 20 C 2.4101 -1.35946 1.8453 0
M  V30 21 C 3.4231 -1.45525 0.729818 0
M  V30 22 O 4.6121 -1.47337 1.00767 0
M  V30 23 C 1.7121 -2.74069 1.99347 0
M  V30 24 C 0.8851 -2.87079 3.30007 0
M  V30 25 C -0.0559 -4.05879 3.34886 0
M  V30 26 O -1.0299 -3.96626 4.08261 0
M  V30 27 N 0.1721 -5.17857 2.62307 0
M  V30 28 H 2.9371 -1.11149 2.78327 0
M  V30 29 H 0.4981 -0.462869 1.55142 0
M  V30 30 H 2.4901 -3.51838 1.99981 0
M  V30 31 H 1.0601 -2.91688 1.12415 0
M  V30 32 H 0.2801 -1.96193 3.41909 0
M  V30 33 H 1.5681 -2.92701 4.16177 0
M  V30 34 H 0.9661 -5.28261 2.02377 0
M  V30 35 H -0.4769 -5.93855 2.68663 0
M  V30 36 N 2.9562 -1.48159 -0.537278 0
M  V30 37 C 4.2332 -1.46291 -1.29839 0
M  V30 38 C 4.6132 -0.170613 -2.10409 0
M  V30 39 O 3.9612 0.847746 -2.12192 0
M  V30 40 C 4.1712 -2.72055 -2.18603 0
M  V30 41 C 5.5192 -3.20087 -2.7898 0
M  V30 42 O 6.5432 -2.72921 -2.28894 0
M  V30 43 O 5.4022 -4.02138 -3.70064 0
M  V30 44 H 2.4962 -0.583906 -0.585647 0
M  V30 45 H 5.0422 -1.60384 -0.554534 0
M  V30 46 H 3.8142 -3.57628 -1.58801 0
M  V30 47 H 3.4372 -2.60646 -3.00249 0
M  V30 48 N 4.4343 0.785586 -1.36625 0
M  V30 49 C 5.3643 1.91259 -1.33949 0
M  V30 50 C 6.3453 1.68795 -0.210325 0
M  V30 51 O 7.5303 1.89854 -0.408561 0
M  V30 52 C 4.6603 3.28339 -1.13186 0
M  V30 53 C 3.6143 3.65335 -2.22967 0
M  V30 54 C 2.9403 5.00806 -1.87342 0
M  V30 55 C 4.2403 3.7352 -3.65075 0
M  V30 56 H 5.9343 1.93755 -2.28253 0
M  V30 57 H 3.4803 0.930788 -1.09874 0
M  V30 58 H 5.4333 4.06804 -1.09948 0
M  V30 59 H 4.1573 3.2624 -0.153332 0
M  V30 60 H 2.8163 2.89169 -2.25337 0
M  V30 61 H 2.4643 4.95233 -0.880545 0
M  V30 62 H 2.1643 5.26529 -2.60846 0
M  V30 63 H 3.6883 5.81687 -1.85667 0
M  V30 64 H 5.1023 4.42168 -3.64911 0
M  V30 65 H 3.4993 4.10731 -4.37516 0
M  V30 66 H 4.5693 2.74527 -3.99703 0
M  V30 67 N 5.9124 1.20967 1.01018 0
M  V30 68 C 7.3284 0.965905 1.27053 0
M  V30 69 C 7.5284 -0.350785 1.98423 0
M  V30 70 O 6.5844 -1.07773 2.28344 0
M  V30 71 C 7.8974 2.15294 2.09926 0
M  V30 72 C 9.4454 2.19463 2.23171 0
M  V30 73 C 9.9204 3.3767 3.09424 0
M  V30 74 N 11.4114 3.37724 3.17012 0
M  V30 75 C 12.1464 4.25837 3.83993 0
M  V30 76 N 11.6424 5.24138 4.53047 0
M  V30 77 N 13.4354 4.1366 3.80581 0
M  V30 78 H 5.5864 2.0565 0.531194 0
M  V30 79 H 7.8494 0.90024 0.297106 0
M  V30 80 H 7.5554 3.10684 1.64828 0
M  V30 81 H 7.4294 2.13923 3.10672 0
M  V30 82 H 9.8164 1.24632 2.6749 0
M  V30 83 H 9.8974 2.2488 1.21912 0
M  V30 84 H 9.5414 4.32791 2.65808 0
M  V30 85 H 9.4714 3.29491 4.10784 0
M  V30 86 H 11.9624 2.6658 2.6785 0
M  V30 87 H 12.2754 5.87684 5.01844 0
M  V30 88 H 10.6204 5.28068 4.5185 0
M  V30 89 H 13.8114 3.36127 3.25785 0
M  V30 90 H 13.9844 4.82538 4.32505 0
M  V30 91 N 7.3905 -1.2043 1.01659 0
M  V30 92 C 8.3205 -2.25466 0.607226 0
M  V30 93 C 9.3015 -1.65853 -0.377716 0
M  V30 94 O 10.4865 -1.92409 -0.263149 0
M  V30 95 C 7.6165 -3.47256 -0.0552949 0
M  V30 96 C 6.5705 -4.19462 0.850632 0
M  V30 97 C 5.8965 -5.34673 0.0538859 0
M  V30 98 C 7.1965 -4.75603 2.15868 0
M  V30 99 H 8.8905 -2.59962 1.48526 0
M  V30 100 H 6.4365 -1.2496 0.715605 0
M  V30 101 H 8.3895 -4.19917 -0.353233 0
M  V30 102 H 7.1135 -3.11924 -0.968045 0
M  V30 103 H 5.7725 -3.48667 1.13257 0
M  V30 104 H 5.4205 -4.95585 -0.860514 0
M  V30 105 H 5.1205 -5.83913 0.657192 0
M  V30 106 H 6.6445 -6.10138 -0.237598 0
M  V30 107 H 8.0585 -5.40083 1.92311 0
M  V30 108 H 6.4555 -5.3528 2.71284 0
M  V30 109 H 7.5255 -3.94346 2.82169 0
M  V30 110 N 8.8686 -0.792821 -1.36206 0
M  V30 111 C 10.1176 -0.363353 -1.984 0
M  V30 112 C 10.4306 1.07172 -1.63626 0
M  V30 113 O 11.6366 1.60362 -2.19081 0
M  V30 114 C 10.0926 -0.59872 -3.54885 0
M  V30 115 C 9.7006 -2.04543 -3.9858 0
M  V30 116 C 11.4446 -0.233926 -4.23855 0
M  V30 117 C 9.3516 -2.22727 -5.47856 0
M  V30 118 H 8.2816 -0.13212 -0.742334 0
M  V30 119 H 10.9326 -0.974935 -1.55458 0
M  V30 120 H 9.3146 0.0826222 -3.95914 0
M  V30 121 H 10.4886 -2.76345 -3.68741 0
M  V30 122 H 8.8036 -2.36879 -3.42458 0
M  V30 123 H 11.4006 -0.348027 -5.33566 0
M  V30 124 H 11.7436 0.818351 -4.08177 0
M  V30 125 H 12.2766 -0.868639 -3.882 0
M  V30 126 H 9.0156 -3.2635 -5.68486 0
M  V30 127 H 8.5356 -1.55434 -5.7931 0
M  V30 128 H 10.2146 -2.03607 -6.14128 0
M  V30 129 N 10.3467 1.47872 -0.545128 0
M  V30 130 C 11.2767 2.32661 0.197793 0
M  V30 131 C 12.2577 1.43041 0.920504 0
M  V30 132 O 13.4427 1.71912 0.90333 0
M  V30 133 C 10.5727 3.24569 1.23582 0
M  V30 134 C 9.5267 4.23333 0.630323 0
M  V30 135 C 8.8527 5.0448 1.77211 0
M  V30 136 C 10.1527 5.20704 -0.407974 0
M  V30 137 H 11.8467 2.95024 -0.510045 0
M  V30 138 H 9.3927 1.4187 -0.246731 0
M  V30 139 H 11.3457 3.8272 1.76362 0
M  V30 140 H 10.0697 2.60236 1.97344 0
M  V30 141 H 8.7287 3.6639 0.123922 0
M  V30 142 H 8.3767 4.36561 2.49847 0
M  V30 143 H 8.0767 5.71339 1.37281 0
M  V30 144 H 9.6007 5.65487 2.3034 0
M  V30 145 H 11.0147 5.7329 0.033305 0
M  V30 146 H 9.4117 5.95699 -0.725486 0
M  V30 147 H 10.4817 4.66917 -1.30828 0
M  V30 148 N 11.8248 0.280983 1.55075 0
M  V30 149 C 13.0738 -0.334784 1.98902 0
M  V30 150 C 13.3868 -1.56534 1.17288 0
M  V30 151 O 14.5928 -2.25443 1.51287 0
M  V30 152 C 13.0488 -0.646994 3.54037 0
M  V30 153 C 12.6568 0.564085 4.44435 0
M  V30 154 C 14.4008 -1.22506 4.06439 0
M  V30 155 C 12.3078 0.226137 5.90967 0
M  V30 156 H 11.2378 -0.128866 0.742906 0
M  V30 157 H 13.8888 0.386556 1.79382 0
M  V30 158 H 12.2708 -1.42739 3.6938 0
M  V30 159 H 13.4448 1.34082 4.40861 0
M  V30 160 H 11.7598 1.0594 4.02698 0
M  V30 161 H 14.3568 -1.49182 5.13468 0
M  V30 162 H 14.6998 -2.16085 3.55827 0
M  V30 163 H 15.2328 -0.50682 3.94558 0
M  V30 164 H 11.9718 1.12996 6.45687 0
M  V30 165 H 11.4918 -0.513717 5.97596 0
M  V30 166 H 13.1708 -0.179539 6.46751 0
M  V30 167 N 13.3029 -1.57598 0.00835791 0
M  V30 168 C 14.5519 -1.90107 -0.673968 0
M  V30 169 C 14.8649 -0.884275 -1.7447 0
M  V30 170 O 16.0709 -1.09987 -2.48224 0
M  V30 171 C 14.5269 -3.37497 -1.24995 0
M  V30 172 C 14.1349 -4.47491 -0.2136 0
M  V30 173 C 15.8789 -3.79104 -1.90999 0
M  V30 174 C 13.7859 -5.85963 -0.80005 0
M  V30 175 H 12.7159 -0.709393 -0.255495 0
M  V30 176 H 15.3669 -1.83365 0.0702693 0
M  V30 177 H 13.7489 -3.39102 -2.04513 0
M  V30 178 H 14.9229 -4.57414 0.557596 0
M  V30 179 H 13.2379 -4.14956 0.346474 0
M  V30 180 H 15.8349 -4.79901 -2.35795 0
M  V30 181 H 16.1779 -3.1306 -2.74407 0
M  V30 182 H 16.7109 -3.79833 -1.18203 0
M  V30 183 H 13.4499 -6.555 -0.00456708 0
M  V30 184 H 12.9699 -5.79687 -1.54021 0
M  V30 185 H 14.6489 -6.33884 -1.29615 0
M  V30 186 N 14.781 0.264519 -1.55364 0
M  V30 187 C 16.027 0.99646 -1.76631 0
M  V30 188 C 16.36 1.85632 -0.570478 0
M  V30 189 O 15.635 1.89647 0.43175 0
M  V30 190 C 15.918 1.87187 -3.07625 0
M  V30 191 C 15.771 1.04138 -4.37579 0
M  V30 192 C 17.09 2.85749 -3.34717 0
M  V30 193 H 14.209 0.360841 -0.642622 0
M  V30 194 H 16.851 0.268218 -1.88097 0
M  V30 195 H 15.001 2.49279 -2.9798 0
M  V30 196 H 16.673 0.440517 -4.59192 0
M  V30 197 H 14.916 0.345115 -4.32425 0
M  V30 198 H 15.587 1.68729 -5.2558 0
M  V30 199 H 18.063 2.33793 -3.4421 0
M  V30 200 H 16.939 3.44136 -4.27623 0
M  V30 201 H 17.2 3.61311 -2.54768 0
M  V30 202 N 16.2591 1.48442 0.529413 0
M  V30 203 C 17.5071 1.56179 1.28267 0
M  V30 204 C 17.8281 0.237721 1.93546 0
M  V30 205 O 17.0981 -0.740779 1.81354 0
M  V30 206 H 15.6781 0.575367 0.476405 0
M  V30 207 H 18.3401 1.84909 0.61602 0
M  V30 208 H 17.4361 2.34312 2.06165 0
M  V30 209 N 17.7372 -0.778329 1.37039 0
M  V30 210 C 18.7002 -1.87301 1.32102 0
M  V30 211 C 19.7002 -1.59198 0.226405 0
M  V30 212 O 20.8902 -1.67403 0.481861 0
M  V30 213 C 18.0222 -3.24309 1.05055 0
M  V30 214 H 19.2152 -1.93093 2.29467 0
M  V30 215 H 16.7682 -0.977358 1.21973 0
M  V30 216 H 17.5032 -3.24196 0.0819373 0
M  V30 217 H 17.2882 -3.46098 1.84279 0
M  V30 218 H 18.7782 -4.04382 1.04234 0
M  V30 219 N 19.2153 -1.21501 -1.00376 0
M  V30 220 C 20.4643 -1.02718 -1.73586 0
M  V30 221 C 20.7773 0.439589 -1.90596 0
M  V30 222 O 21.9833 0.746848 -2.61026 0
M  V30 223 C 20.4393 -1.78929 -3.1227 0
M  V30 224 C 20.0473 -3.29783 -3.03228 0
M  V30 225 C 21.7913 -1.68557 -3.89601 0
M  V30 226 C 19.6983 -3.98479 -4.36999 0
M  V30 227 H 18.6283 -0.380733 -0.650814 0
M  V30 228 H 21.2793 -1.45248 -1.1214 0
M  V30 229 H 19.6613 -1.29192 -3.74333 0
M  V30 230 H 20.8353 -3.86832 -2.50395 0
M  V30 231 H 19.1503 -3.40711 -2.39385 0
M  V30 232 H 21.7473 -2.17211 -4.88593 0
M  V30 233 H 22.0903 -0.644021 -4.11288 0
M  V30 234 H 22.6233 -2.15778 -3.34193 0
M  V30 235 H 19.3623 -5.02841 -4.20513 0
M  V30 236 H 18.8823 -3.46219 -4.89788 0
M  V30 237 H 20.5613 -4.03462 -5.05794 0
M  V30 238 N 20.6934 1.19889 -1.02296 0
M  V30 239 C 21.6564 2.21116 -0.603351 0
M  V30 240 C 22.6564 1.5738 0.329884 0
M  V30 241 O 23.8464 1.73802 0.117702 0
M  V30 242 C 20.9784 3.40696 0.117992 0
M  V30 243 H 22.1714 2.59754 -1.49893 0
M  V30 244 H 19.7244 1.33463 -0.813468 0
M  V30 245 H 20.4594 3.07569 1.0282 0
M  V30 246 H 20.2444 3.88188 -0.552511 0
M  V30 247 H 21.7344 4.15692 0.398696 0
M  V30 248 N 22.1715 0.800033 1.35784 0
M  V30 249 C 23.4205 0.37387 1.98205 0
M  V30 250 C 23.7335 -1.06302 1.64193 0
M  V30 251 O 24.9395 -1.59198 2.19928 0
M  V30 252 C 23.3955 0.617532 3.54562 0
M  V30 253 C 23.0035 2.06654 3.9749 0
M  V30 254 C 24.7475 0.256401 4.23725 0
M  V30 255 C 22.6545 2.2563 5.46667 0
M  V30 256 H 21.5845 0.136055 0.741623 0
M  V30 257 H 24.2355 0.983166 1.54939 0
M  V30 258 H 22.6175 -0.0616248 3.95952 0
M  V30 259 H 23.7915 2.78296 3.67271 0
M  V30 260 H 22.1065 2.38691 3.41197 0
M  V30 261 H 24.7035 0.376318 5.33374 0
M  V30 262 H 25.0465 -0.796692 4.08606 0
M  V30 263 H 25.5795 0.889214 3.87734 0
M  V30 264 H 22.3185 3.2936 5.66747 0
M  V30 265 H 21.8385 1.58504 5.78478 0
M  V30 266 H 23.5175 2.06861 6.1304 0
M  V30 267 N 23.6496 -1.47581 0.552962 0
M  V30 268 C 24.8986 -2.01684 0.0251995 0
M  V30 269 C 25.2116 -1.43317 -1.33115 0
M  V30 270 O 26.4176 -1.89057 -1.94858 0
M  V30 271 C 24.8736 -3.599 -0.00542052 0
M  V30 272 C 24.4816 -4.27257 1.34742 0
M  V30 273 C 26.2256 -4.21768 -0.4808 0
M  V30 274 C 24.1326 -5.77467 1.27614 0
M  V30 275 H 23.0626 -0.753979 0.00565033 0
M  V30 276 H 25.7136 -1.69616 0.70018 0
M  V30 277 H 24.0956 -3.88911 -0.745961 0
M  V30 278 H 25.2696 -4.09893 2.10534 0
M  V30 279 H 23.5846 -3.77358 1.76039 0
M  V30 280 H 26.1816 -5.31838 -0.55246 0
M  V30 281 H 26.5246 -3.88651 -1.49184 0
M  V30 282 H 27.0576 -3.97273 0.204752 0
M  V30 283 H 23.7966 -6.15196 2.26304 0
M  V30 284 H 23.3166 -5.9718 0.55996 0
M  V30 285 H 24.9956 -6.3959 0.976421 0
M  V30 286 N 25.1277 -0.289203 -1.54924 0
M  V30 287 C 26.0907 0.579144 -2.21762 0
M  V30 288 C 27.0907 1.07047 -1.1999 0
M  V30 289 O 28.2807 0.968384 -1.44803 0
M  V30 290 C 25.4127 1.80055 -2.8947 0
M  V30 291 H 26.6057 -0.00464908 -2.999 0
M  V30 292 H 24.1587 -0.0399306 -1.56249 0
M  V30 293 H 24.8937 2.42449 -2.15381 0
M  V30 294 H 24.6787 1.45602 -3.64064 0
M  V30 295 H 26.1687 2.41773 -3.40493 0
M  V30 296 N 26.6058 1.57591 -0.0167156 0
M  V30 297 C 27.5358 2.12496 0.967858 0
M  V30 298 C 28.5168 1.03807 1.34752 0
M  V30 299 O 29.7018 1.31577 1.42833 0
M  V30 300 C 26.8318 2.64194 2.25431 0
M  V30 301 C 25.7858 3.77559 2.01576 0
M  V30 302 C 25.1118 4.15636 3.36379 0
M  V30 303 C 26.4118 5.04151 1.36489 0
M  V30 304 H 28.1058 2.95013 0.510643 0
M  V30 305 H 25.6518 1.41915 0.244181 0
M  V30 306 H 27.6048 3.01236 2.94678 0
M  V30 307 H 26.3288 1.78821 2.73296 0
M  V30 308 H 24.9878 3.40937 1.34751 0
M  V30 309 H 24.6358 3.27263 3.81979 0
M  V30 310 H 24.3358 4.92022 3.21229 0
M  V30 311 H 25.8598 4.5525 4.06915 0
M  V30 312 H 27.2738 5.38857 1.95718 0
M  V30 313 H 25.6708 5.85453 1.31776 0
M  V30 314 H 26.7408 4.83733 0.336219 0
M  V30 315 N 28.0839 -0.256276 1.55502 0
M  V30 316 C 29.0139 -1.32102 1.92539 0
M  V30 317 C 29.9949 -1.50684 0.789194 0
M  V30 318 O 31.1799 -1.63449 1.04872 0
M  V30 319 C 28.3099 -2.67752 2.21192 0
M  V30 320 C 27.2639 -2.63878 3.36975 0
M  V30 321 C 26.5899 -4.03236 3.51147 0
M  V30 322 C 27.8899 -2.21682 4.72921 0
M  V30 323 H 29.5839 -1.01351 2.81724 0
M  V30 324 H 27.1299 -0.486105 1.35547 0
M  V30 325 H 29.0829 -3.42365 2.45691 0
M  V30 326 H 27.8069 -3.0012 1.28824 0
M  V30 327 H 26.4659 -1.91722 3.12471 0
M  V30 328 H 26.1139 -4.32854 2.56216 0
M  V30 329 H 25.8139 -4.01535 4.29003 0
M  V30 330 H 27.3379 -4.79563 3.77957 0
M  V30 331 H 28.7519 -2.86023 4.96854 0
M  V30 332 H 27.1489 -2.3111 5.53812 0
M  V30 333 H 28.2189 -1.16833 4.70615 0
M  V30 334 N 29.562 -1.4872 -0.521534 0
M  V30 335 C 30.808 -1.574 -1.27879 0
M  V30 336 C 31.141 -0.250817 -1.92573 0
M  V30 337 O 30.416 0.743934 -1.79711 0
M  V30 338 C 30.699 -2.71843 -2.36164 0
M  V30 339 C 30.552 -4.13893 -1.76105 0
M  V30 340 C 31.871 -2.82008 -3.37875 0
M  V30 341 H 28.99 -0.572941 -0.463581 0
M  V30 342 H 31.632 -1.80927 -0.580119 0
M  V30 343 H 29.782 -2.51914 -2.95756 0
M  V30 344 H 31.454 -4.45284 -1.20499 0
M  V30 345 H 29.697 -4.20498 -1.06601 0
M  V30 346 H 30.368 -4.89804 -2.5455 0
M  V30 347 H 32.844 -3.00086 -2.88249 0
M  V30 348 H 31.72 -3.63796 -4.11028 0
M  V30 349 H 31.981 -1.90511 -3.98946 0
M  V30 350 N 31.0401 0.771051 -1.3745 0
M  V30 351 C 31.9901 1.87456 -1.29785 0
M  V30 352 C 32.9741 1.59827 -0.185541 0
M  V30 353 O 34.1661 1.71945 -0.419997 0
M  V30 354 C 31.2951 3.24935 -1.1078 0
M  V30 355 C 30.3811 3.58514 -2.26558 0
M  V30 356 N 30.7721 3.6327 -3.5195 0
M  V30 357 C 29.0701 3.88683 -2.18727 0
M  V30 358 C 29.7711 3.93616 -4.283 0
M  V30 359 N 28.7471 4.09551 -3.57448 0
M  V30 360 H 32.5491 1.89386 -2.24745 0
M  V30 361 H 30.0631 0.967531 -1.30432 0
M  V30 362 H 32.0601 4.03881 -1.03374 0
M  V30 363 H 30.7201 3.24268 -0.16738 0
M  V30 364 H 31.7311 3.45458 -3.85848 0
M  V30 365 H 28.4081 3.95834 -1.32746 0
M  V30 366 H 29.7981 4.04066 -5.36824 0
M  V30 367 N 32.5182 1.22032 0.997298 0
M  V30 368 C 33.7662 1.04016 1.73278 0
M  V30 369 C 34.0872 -0.426255 1.90284 0
M  V30 370 O 33.3572 -1.30694 1.45931 0
M  V30 371 H 31.9372 0.381897 0.642 0
M  V30 372 H 34.5992 1.5347 1.20137 0
M  V30 373 H 33.6952 1.51441 2.72896 0
M  V30 374 N 33.9963 -1.19345 1.0293 0
M  V30 375 C 35.2433 -1.89038 0.726008 0
M  V30 376 C 35.5713 -1.79649 -0.745427 0
M  V30 377 O 34.8263 -1.18354 -1.55855 0
M  V30 378 C 35.1253 -3.39292 1.12319 0
M  V30 379 C 34.7913 -3.68885 2.59297 0
M  V30 380 C 33.4533 -3.76671 2.99453 0
M  V30 381 C 35.8053 -3.82178 3.54386 0
M  V30 382 C 33.1333 -3.9522 4.33611 0
M  V30 383 C 35.4853 -4.0224 4.88248 0
M  V30 384 C 34.1493 -4.08259 5.28092 0
M  V30 385 H 33.4193 -0.691739 0.265665 0
M  V30 386 H 36.0663 -1.41328 1.29223 0
M  V30 387 H 34.3713 -3.88903 0.475584 0
M  V30 388 H 36.0683 -3.91536 0.866037 0
M  V30 389 H 32.6583 -3.63433 2.27189 0
M  V30 390 H 36.8423 -3.75505 3.24514 0
M  V30 391 H 32.0983 -3.98119 4.64016 0
M  V30 392 H 36.2723 -4.11468 5.61843 0
M  V30 393 H 33.8993 -4.22384 6.32057 0
M  V30 394 N 35.4744 -0.807222 -1.35358 0
M  V30 395 C 36.7204 -0.397594 -1.99476 0
M  V30 396 C 37.0754 1.02405 -1.62883 0
M  V30 397 O 36.3684 1.70077 -0.882282 0
M  V30 398 C 36.5624 -0.519036 -3.53611 0
M  V30 399 C 36.3914 -1.95094 -4.05177 0
M  V30 400 C 35.1614 -2.57945 -4.34503 0
M  V30 401 C 37.3594 -2.91558 -4.23673 0
M  V30 402 N 35.3414 -3.92539 -4.72003 0
M  V30 403 C 36.7124 -4.11024 -4.64176 0
M  V30 404 C 38.7674 -2.88381 -4.05883 0
M  V30 405 C 37.4704 -5.27745 -4.88751 0
M  V30 406 C 39.4964 -4.04306 -4.31614 0
M  V30 407 C 38.8584 -5.22519 -4.72391 0
M  V30 408 H 34.9574 -0.193274 -0.75774 0
M  V30 409 H 37.5414 -1.0486 -1.6405 0
M  V30 410 H 35.7124 0.101979 -3.88266 0
M  V30 411 H 37.4444 -0.0839321 -4.04613 0
M  V30 412 H 34.1994 -2.09295 -4.24844 0
M  V30 413 H 34.6234 -4.61836 -4.95011 0
M  V30 414 H 39.2654 -1.98137 -3.73499 0
M  V30 415 H 36.9834 -6.1856 -5.20008 0
M  V30 416 H 40.5694 -4.03229 -4.19402 0
M  V30 417 H 39.4494 -6.1073 -4.91913 0
M  V30 418 N 36.9525 1.47285 -0.560781 0
M  V30 419 C 38.1805 2.06855 -0.0430262 0
M  V30 420 C 38.5955 1.41291 1.25229 0
M  V30 421 O 37.9525 0.510648 1.7521 0
M  V30 422 C 38.0035 3.61178 0.152518 0
M  V30 423 O 37.7245 4.24285 -1.0915 0
M  V30 424 C 39.2255 4.37624 0.707145 0
M  V30 425 H 36.4455 0.669319 -0.0474652 0
M  V30 426 H 38.9895 1.89237 -0.77521 0
M  V30 427 H 37.1445 3.78298 0.834843 0
M  V30 428 H 37.5585 5.16868 -0.891482 0
M  V30 429 H 39.0325 5.46271 0.793244 0
M  V30 430 H 39.5095 4.04152 1.71923 0
M  V30 431 H 40.1155 4.25257 0.0604027 0
M  V30 432 N 38.4306 0.297415 1.54768 0
M  V30 433 C 39.6556 -0.318435 2.04941 0
M  V30 434 C 40.0806 -1.4701 1.17345 0
M  V30 435 O 39.4386 -1.80436 0.176758 0
M  V30 436 C 39.4866 -0.755749 3.52592 0
M  V30 437 O 38.5906 -1.86088 3.68028 0
M  V30 438 H 37.9316 -0.062421 0.661059 0
M  V30 439 H 40.4616 0.438215 1.99852 0
M  V30 440 H 40.4716 -1.04552 3.94376 0
M  V30 441 H 39.1466 0.0867233 4.1581 0
M  V30 442 H 37.7236 -1.57193 3.38149 0
M  V30 443 N 39.9087 -1.5758 0.0250728 0
M  V30 444 C 41.3247 -1.56124 -0.331282 0
M  V30 445 C 41.5247 -1.03029 -1.73169 0
M  V30 446 O 40.5807 -0.675215 -2.43305 0
M  V30 447 C 41.8937 -3.00139 -0.183584 0
M  V30 448 C 43.4417 -3.11946 -0.256654 0
M  V30 449 C 43.9167 -4.57793 -0.137792 0
M  V30 450 N 45.4077 -4.6279 -0.194904 0
M  V30 451 C 46.1427 -5.7326 -0.126655 0
M  V30 452 N 45.6387 -6.928 -0.00755288 0
M  V30 453 N 47.4317 -5.61811 -0.180348 0
M  V30 454 H 39.5827 -1.90424 0.94087 0
M  V30 455 H 41.8457 -0.875761 0.362968 0
M  V30 456 H 41.5517 -3.4292 0.780927 0
M  V30 457 H 41.4257 -3.64899 -0.955448 0
M  V30 458 H 43.8127 -2.69079 -1.21162 0
M  V30 459 H 43.8937 -2.49915 0.545517 0
M  V30 460 H 43.5377 -5.01339 0.813739 0
M  V30 461 H 43.4677 -5.17798 -0.958775 0
M  V30 462 H 45.9587 -3.76807 -0.287267 0
M  V30 463 H 46.2717 -7.72791 0.0379428 0
M  V30 464 H 44.6167 -6.94995 0.0271731 0
M  V30 465 H 47.8077 -4.6731 -0.271767 0
M  V30 466 H 47.9807 -6.47882 -0.123697 0
M  V30 467 N 41.3868 0.248026 -1.55636 0
M  V30 468 C 42.3338 1.30707 -1.90222 0
M  V30 469 C 43.3038 1.47881 -0.756332 0
M  V30 470 O 44.4888 1.61883 -1.00988 0
M  V30 471 C 41.6288 2.65769 -2.20138 0
M  V30 472 C 40.7418 2.56612 -3.47526 0
M  V30 473 C 39.8768 3.8402 -3.67017 0
M  V30 474 C 38.9158 3.69476 -4.8801 0
M  V30 475 N 38.0528 4.88774 -5.04029 0
M  V30 476 H 42.8928 1.00512 -2.80538 0
M  V30 477 H 40.4298 0.485055 -1.38873 0
M  V30 478 H 42.3878 3.44386 -2.35487 0
M  V30 479 H 41.0178 2.94115 -1.33027 0
M  V30 480 H 40.0698 1.69571 -3.40514 0
M  V30 481 H 41.3818 2.41774 -4.36287 0
M  V30 482 H 40.5358 4.7108 -3.8232 0
M  V30 483 H 39.2748 4.01754 -2.76487 0
M  V30 484 H 38.2798 2.80799 -4.72686 0
M  V30 485 H 39.5048 3.53238 -5.8 0
M  V30 486 H 37.4508 5.0687 -4.16435 0
M  V30 487 H 37.3678 4.76562 -5.86877 0
M  V30 488 H 38.6358 5.77335 -5.23741 0
M  V30 489 N 42.8649 1.48995 0.513639 0
M  V30 490 C 43.7749 1.67443 1.64317 0
M  V30 491 C 44.7909 0.556947 1.64846 0
M  V30 492 O 45.9669 0.830082 1.83498 0
M  V30 493 C 43.0319 1.72515 3.00732 0
M  V30 494 C 42.0929 2.96009 3.1093 0
M  V30 495 C 41.3259 3.00829 4.40837 0
M  V30 496 O 41.5489 2.13594 5.28898 0
M  V30 497 O 40.4829 3.93168 4.55744 0
M  V30 498 H 44.3089 2.63106 1.51687 0
M  V30 499 H 41.8939 1.32588 0.688543 0
M  V30 500 H 43.7759 1.78277 3.81831 0
M  V30 501 H 42.4509 0.800278 3.13651 0
M  V30 502 H 41.3579 2.9577 2.29065 0
M  V30 503 H 42.6909 3.87934 3.02933 0
M  V30 504 N 44.343 -0.763751 1.37857 0
M  V30 505 C 45.759 -1.06542 1.18832 0
M  V30 506 C 45.959 -2.01478 0.0299722 0
M  V30 507 O 45.015 -2.4458 -0.627447 0
M  V30 508 C 46.328 -1.65525 2.51042 0
M  V30 509 C 47.876 -1.77745 2.57635 0
M  V30 510 C 48.351 -2.4014 3.89996 0
M  V30 511 N 49.842 -2.47582 3.91481 0
M  V30 512 C 50.577 -2.96732 4.9065 0
M  V30 513 N 50.073 -3.45993 6.00217 0
M  V30 514 N 51.866 -2.95679 4.78048 0
M  V30 515 H 44.017 -0.133556 2.1198 0
M  V30 516 H 46.28 -0.121879 0.940133 0
M  V30 517 H 45.986 -1.03236 3.36207 0
M  V30 518 H 45.86 -2.64719 2.68707 0
M  V30 519 H 48.247 -2.39164 1.72872 0
M  V30 520 H 48.328 -0.772836 2.43846 0
M  V30 521 H 47.972 -1.79358 4.75177 0
M  V30 522 H 47.902 -3.41223 4.01092 0
M  V30 523 H 50.393 -2.1273 3.12337 0
M  V30 524 H 50.706 -3.81922 6.7183 0
M  V30 525 H 49.051 -3.44077 6.03851 0
M  V30 526 H 52.242 -2.56499 3.91568 0
M  V30 527 H 52.415 -3.33672 5.55488 0
M  V30 528 N 45.8211 -1.22559 -0.990812 0
M  V30 529 C 47.0461 -1.07862 -1.77145 0
M  V30 530 C 47.4711 0.366447 -1.84496 0
M  V30 531 O 46.8291 1.26478 -1.29896 0
M  V30 532 C 46.8771 -1.69686 -3.18181 0
M  V30 533 O 45.9811 -0.951946 -4.01263 0
M  V30 534 H 45.3221 -0.378712 -0.545411 0
M  V30 535 H 47.8521 -1.62399 -1.2445 0
M  V30 536 H 47.8621 -1.74496 -3.68802 0
M  V30 537 H 46.5371 -2.74841 -3.12146 0
M  V30 538 H 45.1141 -0.980011 -3.59792 0
M  V30 539 N 47.2992 1.18797 -1.03562 0
M  V30 540 C 48.5242 1.9314 -0.755764 0
M  V30 541 C 48.9492 1.7537 0.68022 0
M  V30 542 O 48.3072 1.06046 1.47051 0
M  V30 543 C 48.3552 3.42747 -1.12058 0
M  V30 544 O 47.4592 4.11683 -0.243124 0
M  V30 545 H 46.8002 0.602724 -0.278604 0
M  V30 546 H 49.3302 1.50678 -1.3841 0
M  V30 547 H 49.3402 3.93437 -1.08035 0
M  V30 548 H 48.0152 3.55002 -2.16672 0
M  V30 549 H 46.5922 3.71323 -0.342539 0
M  V30 550 N 48.7773 0.814389 1.34928 0
M  V30 551 C 49.7103 0.175641 2.27523 0
M  V30 552 C 50.6883 -0.662953 1.48471 0
M  V30 553 O 51.8723 -0.628545 1.77712 0
M  V30 554 C 48.9993 -0.755516 3.30166 0
M  V30 555 C 48.0453 0.00445305 4.265 0
M  V30 556 S 48.8783 1.34582 5.18313 0
M  V30 557 C 50.0343 0.419315 6.24494 0
M  V30 558 H 50.2673 0.960691 2.8135 0
M  V30 559 H 47.8003 0.609846 1.41846 0
M  V30 560 H 49.7583 -1.28723 3.89796 0
M  V30 561 H 48.4193 -1.51402 2.75202 0
M  V30 562 H 47.6123 -0.703077 4.99072 0
M  V30 563 H 47.2143 0.466447 3.7108 0
M  V30 564 H 49.5063 -0.392432 6.76362 0
M  V30 565 H 50.4493 1.11446 6.99275 0
M  V30 566 H 50.8573 0.0115389 5.64499 0
M  V30 567 N 50.2554 -1.46986 0.568584 0
M  V30 568 C 51.5024 -2.02441 0.0487986 0
M  V30 569 C 51.8304 -1.44169 -1.30559 0
M  V30 570 O 51.0854 -0.591213 -1.86556 0
M  V30 571 C 51.3844 -3.57306 -0.081836 0
M  V30 572 C 51.0504 -4.34552 1.20313 0
M  V30 573 C 49.7124 -4.55376 1.5552 0
M  V30 574 C 52.0644 -4.79016 2.05411 0
M  V30 575 C 49.3924 -5.17913 2.7565 0
M  V30 576 C 51.7444 -5.42879 3.24754 0
M  V30 577 C 50.4084 -5.61933 3.60261 0
M  V30 578 H 49.6784 -0.740785 0.0178567 0
M  V30 579 H 52.3254 -1.76525 0.742384 0
M  V30 580 H 50.6304 -3.8228 -0.858463 0
M  V30 581 H 52.3274 -3.97876 -0.499546 0
M  V30 582 H 48.9174 -4.18631 0.919014 0
M  V30 583 H 53.1014 -4.62696 1.79516 0
M  V30 584 H 48.3574 -5.30858 3.03315 0
M  V30 585 H 52.5314 -5.76293 3.90973 0
M  V30 586 H 50.1584 -6.10161 4.53439 0
M  V30 587 N 51.7335 -0.305618 -1.54608 0
M  V30 588 C 53.1495 0.0476228 -1.59529 0
M  V30 589 C 53.3495 1.52025 -1.32252 0
M  V30 590 O 52.4055 2.27368 -1.09818 0
M  V30 591 C 53.7185 -0.354471 -2.98603 0
M  V30 592 C 55.2665 -0.303622 -3.11524 0
M  V30 593 C 55.7415 -0.680608 -4.52915 0
M  V30 594 N 57.2325 -0.63332 -4.5885 0
M  V30 595 C 57.9675 -0.897432 -5.66334 0
M  V30 596 N 57.4635 -1.22775 -6.81834 0
M  V30 597 N 59.2565 -0.824186 -5.56025 0
M  V30 598 H 51.4075 -1.2653 -1.70599 0
M  V30 599 H 53.6705 -0.513291 -0.797017 0
M  V30 600 H 53.3765 -1.3798 -3.23503 0
M  V30 601 H 53.2505 0.289568 -3.76087 0
M  V30 602 H 55.6375 0.712472 -2.8637 0
M  V30 603 H 55.7185 -0.982348 -2.36185 0
M  V30 604 H 55.3625 -1.69453 -4.78799 0
M  V30 605 H 55.2925 0.0202385 -5.26596 0
M  V30 606 H 57.7835 -0.389138 -3.75891 0
M  V30 607 H 58.0965 -1.41513 -7.59733 0
M  V30 608 H 56.4415 -1.26583 -6.83375 0
M  V30 609 H 59.6325 -0.565748 -4.64669 0
M  V30 610 H 59.8055 -1.03338 -6.39707 0
M  V30 611 N 53.2116 1.57565 -0.0334293 0
M  V30 612 C 54.4886 1.83282 0.683163 0
M  V30 613 C 54.8686 0.91823 1.90084 0
M  V30 614 O 54.2166 -0.025113 2.28486 0
M  V30 615 C 54.4266 3.32599 1.0573 0
M  V30 616 C 55.7746 3.99179 1.44711 0
M  V30 617 O 56.7986 3.3712 1.15015 0
M  V30 618 O 55.6576 5.08565 2.0006 0
M  V30 619 H 52.7516 0.755869 0.335546 0
M  V30 620 H 55.2976 1.69589 -0.0614402 0
M  V30 621 H 54.0696 3.90834 0.190828 0
M  V30 622 H 53.6926 3.51415 1.85993 0
M  V30 623 N 54.6897 -0.239769 1.55765 0
M  V30 624 C 56.1057 -0.588624 1.48349 0
M  V30 625 C 56.3057 -1.88005 0.72502 0
M  V30 626 O 55.3617 -2.51186 0.257269 0
M  V30 627 C 56.6747 -0.68474 2.928 0
M  V30 628 C 58.2227 -0.77659 3.03213 0
M  V30 629 C 58.6977 -0.904207 4.48986 0
M  V30 630 N 60.1887 -0.968896 4.52953 0
M  V30 631 C 60.9237 -1.08703 5.63002 0
M  V30 632 N 60.4197 -1.17026 6.82845 0
M  V30 633 N 62.2127 -1.12074 5.50814 0
M  V30 634 H 54.3637 0.607911 2.03515 0
M  V30 635 H 56.6267 0.21083 0.924259 0
M  V30 636 H 56.3327 0.194284 3.51163 0
M  V30 637 H 56.2067 -1.55435 3.43686 0
M  V30 638 H 58.5937 -1.64606 2.44926 0
M  V30 639 H 58.6747 0.118315 2.55526 0
M  V30 640 H 58.3187 -0.0392633 5.07885 0
M  V30 641 H 58.2487 -1.81426 4.9436 0
M  V30 642 H 60.7397 -0.915633 3.6664 0
M  V30 643 H 61.0527 -1.25966 7.62465 0
M  V30 644 H 59.3977 -1.13971 6.85591 0
M  V30 645 H 62.5887 -1.05226 4.5612 0
M  V30 646 H 62.7617 -1.20936 6.36615 0
M  V30 647 N 56.1678 -1.49265 -0.50573 0
M  V30 648 C 57.5788 -1.51769 -1.08734 0
M  V30 649 C 57.9298 -0.301192 -1.93874 0
M  V30 650 O 57.0548 0.589456 -2.08217 0
M  V30 651 C 57.6498 -2.75017 -1.97867 0
M  V30 652 C 56.2088 -2.80314 -2.51199 0
M  V30 653 C 55.3558 -2.4562 -1.28709 0
M  V30 654 H 58.3068 -1.56031 -0.289855 0
M  V30 655 H 58.3278 -2.5491 -2.82491 0
M  V30 656 H 57.8398 -3.63539 -1.35873 0
M  V30 657 H 55.9408 -1.96061 -3.16845 0
M  V30 658 H 56.0538 -3.82366 -2.88675 0
M  V30 659 H 54.4178 -1.97297 -1.61078 0
M  V30 660 H 55.2008 -3.36411 -0.6843 0
M  V30 661 N 57.6459 0.756429 -1.3826 0
M  V30 662 C 58.5759 1.88374 -1.37976 0
M  V30 663 C 59.5569 1.68311 -0.246082 0
M  V30 664 O 60.7419 1.88944 -0.44874 0
M  V30 665 C 57.8719 3.25864 -1.20125 0
M  V30 666 C 56.8259 3.60523 -2.30666 0
M  V30 667 C 56.1519 4.9672 -1.97923 0
M  V30 668 C 57.4519 3.65692 -3.72916 0
M  V30 669 H 59.1459 1.88869 -2.32312 0
M  V30 670 H 56.6919 0.907272 -1.11824 0
M  V30 671 H 58.6449 4.0438 -1.18552 0
M  V30 672 H 57.3689 3.25841 -0.222498 0
M  V30 673 H 56.0279 2.84324 -2.3142 0
M  V30 674 H 55.6759 4.93253 -0.985393 0
M  V30 675 H 55.3759 5.20878 -2.71955 0
M  V30 676 H 56.8999 5.77618 -1.97964 0
M  V30 677 H 58.3139 4.34328 -3.74208 0
M  V30 678 H 56.7109 4.01358 -4.4613 0
M  V30 679 H 57.7809 2.65987 -4.05436 0
M  V30 680 N 59.124 1.23083 0.984299 0
M  V30 681 C 60.071 1.00854 2.07598 0
M  V30 682 C 61.041 -0.0726709 1.65941 0
M  V30 683 O 62.226 0.0786535 1.90638 0
M  V30 684 C 59.366 0.601645 3.39815 0
M  V30 685 C 58.479 1.75456 3.94765 0
M  V30 686 C 57.614 1.29482 5.15177 0
M  V30 687 C 56.653 2.41873 5.62284 0
M  V30 688 N 55.79 1.96885 6.73929 0
M  V30 689 H 60.63 1.943 2.25946 0
M  V30 690 H 58.167 0.968001 1.10762 0
M  V30 691 H 60.125 0.346854 4.15756 0
M  V30 692 H 58.755 -0.295803 3.21442 0
M  V30 693 H 57.807 2.12346 3.15616 0
M  V30 694 H 59.119 2.59965 4.25699 0
M  V30 695 H 58.273 0.997923 5.98437 0
M  V30 696 H 57.012 0.420046 4.85888 0
M  V30 697 H 56.017 2.72342 4.77608 0
M  V30 698 H 57.242 3.29881 5.93595 0
M  V30 699 H 55.188 1.11782 6.46406 0
M  V30 700 H 55.105 2.74956 7.04227 0
M  V30 701 H 56.373 1.70289 7.60672 0
M  V30 702 N 60.6021 -1.18246 1.0419 0
M  V30 703 C 62.0181 -1.40269 0.761366 0
M  V30 704 C 62.2181 -1.90777 -0.648578 0
M  V30 705 O 61.2741 -2.0929 -1.41258 0
M  V30 706 C 62.5871 -2.40237 1.8085 0
M  V30 707 C 64.1351 -2.53961 1.82955 0
M  V30 708 C 64.6101 -3.57194 2.86664 0
M  V30 709 N 66.1011 -3.64702 2.85563 0
M  V30 710 C 66.8361 -4.44309 3.6246 0
M  V30 711 N 66.3321 -5.27514 4.49111 0
M  V30 712 N 68.1251 -4.39084 3.50944 0
M  V30 713 H 60.2761 -0.837882 1.95175 0
M  V30 714 H 62.5391 -0.430608 0.84456 0
M  V30 715 H 62.2451 -2.10176 2.81991 0
M  V30 716 H 62.1191 -3.39601 1.64168 0
M  V30 717 H 64.5061 -2.83338 0.824855 0
M  V30 718 H 64.5871 -1.54706 2.03715 0
M  V30 719 H 64.2311 -3.28558 3.87314 0
M  V30 720 H 64.1611 -4.5613 2.6316 0
M  V30 721 H 66.6521 -3.05289 2.22727 0
M  V30 722 H 66.9651 -5.85411 5.04493 0
M  V30 723 H 65.3101 -5.2693 4.53178 0
M  V30 724 H 68.5011 -3.7313 2.82651 0
M  V30 725 H 68.6741 -5.00883 4.11121 0
M  V30 726 N 62.0802 -0.821533 -1.34494 0
M  V30 727 C 63.0132 -0.187704 -2.27427 0
M  V30 728 C 63.9912 0.65507 -1.48821 0
M  V30 729 O 65.1752 0.619111 -1.78043 0
M  V30 730 C 62.3022 0.737996 -3.30562 0
M  V30 731 C 61.3482 -0.0270713 -4.26491 0
M  V30 732 S 62.1812 -1.37329 -5.17592 0
M  V30 733 C 63.3372 -0.452427 -6.24263 0
M  V30 734 H 63.5702 -0.975598 -2.80837 0
M  V30 735 H 61.1032 -0.61736 -1.4152 0
M  V30 736 H 63.0612 1.26654 -3.90473 0
M  V30 737 H 61.7222 1.4994 -2.76001 0
M  V30 738 H 60.9152 0.6766 -4.99438 0
M  V30 739 H 60.5172 -0.48612 -3.70827 0
M  V30 740 H 62.8092 0.356557 -6.76561 0
M  V30 741 H 63.7522 -1.15153 -6.98674 0
M  V30 742 H 64.1602 -0.0414755 -5.64485 0
M  V30 743 N 63.5583 1.46682 -0.576371 0
M  V30 744 C 64.5053 2.30241 0.160499 0
M  V30 745 C 65.4753 1.40233 0.890162 0
M  V30 746 O 66.6603 1.69186 0.882084 0
M  V30 747 C 63.8003 3.24578 1.1723 0
M  V30 748 C 62.9133 4.29684 0.446736 0
M  V30 749 C 62.0483 5.11154 1.44551 0
M  V30 750 C 61.0873 6.08015 0.70599 0
M  V30 751 N 60.2243 6.82376 1.65251 0
M  V30 752 H 65.0643 2.92727 -0.558127 0
M  V30 753 H 62.6013 1.44272 -0.287056 0
M  V30 754 H 64.5593 3.77711 1.77172 0
M  V30 755 H 63.1893 2.63916 1.85872 0
M  V30 756 H 62.2413 3.79458 -0.267594 0
M  V30 757 H 63.5533 4.98626 -0.131686 0
M  V30 758 H 62.7073 5.68533 2.11791 0
M  V30 759 H 61.4463 4.42158 2.05786 0
M  V30 760 H 60.4513 5.49796 0.0197725 0
M  V30 761 H 61.6763 6.79028 0.09912 0
M  V30 762 H 59.6223 6.16094 2.25308 0
M  V30 763 H 59.5393 7.47556 1.12673 0
M  V30 764 H 60.8073 7.44316 2.31546 0
M  V30 765 N 65.0364 0.313813 1.54444 0
M  V30 766 C 66.2614 -0.296681 2.05267 0
M  V30 767 C 66.6864 -1.45757 1.18897 0
M  V30 768 O 66.0444 -1.80239 0.195886 0
M  V30 769 C 66.0924 -0.71831 3.53373 0
M  V30 770 O 65.1964 -1.82175 3.69981 0
M  V30 771 H 64.5374 -0.0554061 0.661684 0
M  V30 772 H 67.0674 0.459387 1.99376 0
M  V30 773 H 67.0774 -1.00364 3.95463 0
M  V30 774 H 65.7524 0.130821 4.15694 0
M  V30 775 H 64.3294 -1.53598 3.39797 0
M  V30 776 N 66.5145 -1.57545 0.0417849 0
M  V30 777 C 67.4615 -2.10977 -0.935805 0
M  V30 778 C 68.4315 -1.01486 -1.31491 0
M  V30 779 O 69.6165 -1.2898 -1.40602 0
M  V30 780 C 66.7565 -2.65169 -2.2086 0
M  V30 781 C 65.8695 -3.88714 -1.88482 0
M  V30 782 C 65.0045 -4.31254 -3.1015 0
M  V30 783 C 64.0435 -5.47524 -2.7365 0
M  V30 784 N 63.1805 -5.85162 -3.87982 0
M  V30 785 H 68.0205 -2.94218 -0.473249 0
M  V30 786 H 65.5575 -1.45415 -0.221981 0
M  V30 787 H 67.5155 -2.94685 -2.95325 0
M  V30 788 H 66.1455 -1.8474 -2.64709 0
M  V30 789 H 65.1975 -3.65849 -1.04205 0
M  V30 790 H 66.5095 -4.73245 -1.57608 0
M  V30 791 H 65.6635 -4.62273 -3.92923 0
M  V30 792 H 64.4025 -3.45516 -3.44195 0
M  V30 793 H 63.4075 -5.16187 -1.89291 0
M  V30 794 H 64.6325 -6.34971 -2.40807 0
M  V30 795 H 62.5785 -5.02377 -4.21846 0
M  V30 796 H 62.4955 -6.64362 -3.60775 0
M  V30 797 H 63.7635 -6.20791 -4.71422 0
M  V30 798 N 67.9926 0.231505 -1.5589 0
M  V30 799 C 69.4086 0.580748 -1.48659 0
M  V30 800 C 69.6086 1.87617 -0.73498 0
M  V30 801 O 68.6646 2.51046 -0.270586 0
M  V30 802 C 69.9776 0.669202 -2.93159 0
M  V30 803 C 71.5256 0.760499 -3.03621 0
M  V30 804 C 72.0006 0.880383 -4.49459 0
M  V30 805 N 73.4916 0.944861 -4.53461 0
M  V30 806 C 74.2266 1.05716 -5.63571 0
M  V30 807 N 73.7226 1.13403 -6.83456 0
M  V30 808 N 75.5156 1.09152 -5.514 0
M  V30 809 H 67.6666 -0.618695 -2.03189 0
M  V30 810 H 69.9296 -0.215728 -0.923128 0
M  V30 811 H 69.6356 -0.212904 -3.51055 0
M  V30 812 H 69.5096 1.5361 -3.44505 0
M  V30 813 H 71.8966 1.63305 -2.45796 0
M  V30 814 H 71.9776 -0.131864 -2.5546 0
M  V30 815 H 71.6216 0.0123284 -5.07899 0
M  V30 816 H 71.5516 1.78802 -4.95316 0
M  V30 817 H 74.0426 0.896176 -3.6712 0
M  V30 818 H 74.3556 1.21921 -7.63122 0
M  V30 819 H 72.7006 1.10333 -6.86186 0
M  V30 820 H 75.8916 1.02805 -4.56671 0
M  V30 821 H 76.0646 1.17558 -6.37247 0
M  V30 822 N 69.4707 1.49531 0.497807 0
M  V30 823 C 70.7477 1.49682 1.25915 0
M  V30 824 C 71.1277 0.226339 2.09883 0
M  V30 825 O 70.4757 -0.791189 2.14365 0
M  V30 826 C 70.6857 2.77755 2.11313 0
M  V30 827 C 72.0337 3.27371 2.70395 0
M  V30 828 O 73.0577 2.78894 2.21578 0
M  V30 829 O 71.9167 4.11808 3.59272 0
M  V30 830 H 69.0107 0.599228 0.56996 0
M  V30 831 H 71.5567 1.61798 0.511816 0
M  V30 832 H 70.3287 3.61713 1.49264 0
M  V30 833 H 69.9517 2.68515 2.93233 0
M  V30 834 N 70.9488 -0.749086 1.3866 0
M  V30 835 C 72.2258 -1.4992 1.25632 0
M  V30 836 C 72.6058 -2.10633 -0.140317 0
M  V30 837 O 71.9538 -1.97437 -1.15025 0
M  V30 838 C 72.1638 -2.56195 2.36992 0
M  V30 839 C 73.5118 -3.22972 2.75634 0
M  V30 840 O 74.5358 -2.66502 2.36337 0
M  V30 841 O 73.3948 -4.25122 3.43415 0
M  V30 842 H 70.4888 -0.665067 0.491544 0
M  V30 843 H 73.0348 -0.784113 1.50498 0
M  V30 844 H 71.8068 -2.09612 3.30422 0
M  V30 845 H 71.4298 -3.35279 2.13714 0
M  V30 846 N 72.4269 -1.23603 -0.977757 0
M  V30 847 C 73.7039 -0.977897 -1.69401 0
M  V30 848 C 74.0839 0.502738 -2.05026 0
M  V30 849 O 73.4319 1.47459 -1.74551 0
M  V30 850 C 73.6419 -1.89077 -2.93345 0
M  V30 851 C 74.9899 -2.15579 -3.65802 0
M  V30 852 O 76.0139 -1.86648 -3.03383 0
M  V30 853 O 74.8729 -2.64658 -4.78141 0
M  V30 854 H 71.9669 -0.369025 -0.740101 0
M  V30 855 H 74.5129 -1.34657 -1.03274 0
M  V30 856 H 73.2849 -2.89158 -2.63634 0
M  V30 857 H 72.9079 -1.52463 -3.67207 0
M  V30 858 N 73.905 1.17692 -1.04816 0
M  V30 859 C 75.13 1.92327 -0.776207 0
M  V30 860 C 75.555 1.76082 0.661581 0
M  V30 861 O 74.913 1.076 1.45917 0
M  V30 862 C 74.961 3.41539 -1.15687 0
M  V30 863 O 74.065 4.11402 -0.286775 0
M  V30 864 H 73.406 0.599735 -0.284981 0
M  V30 865 H 75.936 1.49201 -1.4 0
M  V30 866 H 75.946 3.92269 -1.12202 0
M  V30 867 H 74.621 3.52684 -2.20425 0
M  V30 868 H 73.198 3.70939 -0.381903 0
M  V30 869 N 75.3831 0.828654 1.34056 0
M  V30 870 C 76.6131 0.431993 2.02033 0
M  V30 871 C 77.0211 -0.96844 1.62536 0
M  V30 872 O 76.3641 -1.6391 0.829408 0
M  V30 873 C 76.4261 0.461224 3.56529 0
M  V30 874 C 76.0901 1.81599 4.1937 0
M  V30 875 C 77.0871 2.7777 4.39477 0
M  V30 876 C 74.7721 2.10604 4.56017 0
M  V30 877 C 76.7661 4.01115 4.95364 0
M  V30 878 C 74.4531 3.34207 5.11614 0
M  V30 879 C 75.4511 4.2928 5.31232 0
M  V30 880 O 75.1391 5.50699 5.8565 0
M  V30 881 H 74.8711 0.170943 0.654029 0
M  V30 882 H 77.4251 1.11988 1.72185 0
M  V30 883 H 75.6551 -0.283388 3.8566 0
M  V30 884 H 77.3441 0.0838149 4.05813 0
M  V30 885 H 78.1101 2.56659 4.11523 0
M  V30 886 H 73.9891 1.37402 4.40047 0
M  V30 887 H 77.5331 4.75333 5.10592 0
M  V30 888 H 73.4301 3.55179 5.38997 0
M  V30 889 H 74.1981 5.52298 6.04077 0
M  V30 890 N 76.8612 -1.46375 0.584142 0
M  V30 891 C 78.1382 -1.956 0.0033388 0
M  V30 892 C 78.5182 -1.52679 -1.45782 0
M  V30 893 O 77.8662 -0.77816 -2.14842 0
M  V30 894 C 78.0762 -3.48551 0.176891 0
M  V30 895 C 79.4242 -4.24576 0.0454609 0
M  V30 896 O 80.4482 -3.56043 0.105801 0
M  V30 897 O 79.3072 -5.46427 -0.0890376 0
M  V30 898 H 76.4012 -0.825547 -0.0490066 0
M  V30 899 H 78.9472 -1.56652 0.65256 0
M  V30 900 H 77.7192 -3.72683 1.1926 0
M  V30 901 H 77.3422 -3.94332 -0.508695 0
M  V30 902 N 78.3393 -0.321999 -1.54275 0
M  V30 903 C 79.2493 0.553631 -2.27974 0
M  V30 904 C 80.2653 1.13054 -1.32268 0
M  V30 905 O 81.4413 1.15084 -1.6528 0
M  V30 906 C 78.5063 1.69927 -3.02201 0
M  V30 907 C 77.5673 1.15433 -4.1349 0
M  V30 908 C 76.8003 2.24537 -4.84168 0
M  V30 909 O 77.0233 3.44852 -4.5435 0
M  V30 910 O 75.9573 1.90044 -5.7111 0
M  V30 911 H 79.7833 -0.0448345 -3.03667 0
M  V30 912 H 77.3683 -0.0877418 -1.49142 0
M  V30 913 H 79.2503 2.3663 -3.48689 0
M  V30 914 H 77.9253 2.28395 -2.29385 0
M  V30 915 H 76.8323 0.452436 -3.71354 0
M  V30 916 H 78.1653 0.614805 -4.88345 0
M  V30 917 N 79.8174 1.5752 -0.0501392 0
M  V30 918 C 81.0944 1.83996 0.663685 0
M  V30 919 C 81.4744 0.938339 1.89099 0
M  V30 920 O 80.8224 -0.00087759 2.285 0
M  V30 921 C 81.0324 3.33702 1.02196 0
M  V30 922 C 82.3804 4.00691 1.40469 0
M  V30 923 O 83.4044 3.38321 1.11433 0
M  V30 924 O 82.2634 5.10658 1.94654 0
M  V30 925 H 79.3574 0.759385 0.32751 0
M  V30 926 H 81.9034 1.69514 -0.0794238 0
M  V30 927 H 80.6754 3.91015 0.149364 0
M  V30 928 H 80.2984 3.53368 1.82255 0
M  V30 929 N 81.2955 -0.223234 1.56011 0
M  V30 930 C 82.5415 -0.949279 1.79211 0
M  V30 931 C 82.8745 -1.84054 0.619494 0
M  V30 932 O 82.1495 -1.90726 -0.381317 0
M  V30 933 C 82.4325 -1.78965 3.12479 0
M  V30 934 C 82.2855 -0.924997 4.40186 0
M  V30 935 C 83.6045 -2.76774 3.42175 0
M  V30 936 H 80.7235 -0.343676 0.651963 0
M  V30 937 H 83.3655 -0.218253 1.88742 0
M  V30 938 H 81.5155 -2.41291 3.04485 0
M  V30 939 H 83.1875 -0.318615 4.60198 0
M  V30 940 H 81.4305 -0.230344 4.33188 0
M  V30 941 H 82.1015 -1.54735 5.29869 0
M  V30 942 H 84.5775 -2.24584 3.50287 0
M  V30 943 H 83.4535 -3.32678 4.36597 0
M  V30 944 H 83.7145 -3.54429 2.64258 0
M  V30 945 N 82.7736 -1.49793 -0.48987 0
M  V30 946 C 83.6836 -1.70036 -1.61632 0
M  V30 947 C 84.6996 -0.583102 -1.63939 0
M  V30 948 O 85.8756 -0.859169 -1.82154 0
M  V30 949 C 82.9406 -1.77277 -2.97949 0
M  V30 950 C 82.0016 -3.00918 -3.06181 0
M  V30 951 C 81.2346 -3.07804 -4.35996 0
M  V30 952 O 81.4576 -2.21982 -5.25433 0
M  V30 953 O 80.3916 -4.00369 -4.49431 0
M  V30 954 H 84.2176 -2.65486 -1.47482 0
M  V30 955 H 81.8026 -1.33666 -0.667362 0
M  V30 956 H 83.6846 -1.84329 -3.78947 0
M  V30 957 H 82.3596 -0.850076 -3.12339 0
M  V30 958 H 81.2666 -2.99377 -2.2433 0
M  V30 959 H 82.5996 -3.92704 -2.96723 0
M  V30 960 N 84.2517 0.741722 -1.39055 0
M  V30 961 C 85.5287 1.49252 -1.26425 0
M  V30 962 C 85.9087 2.10705 0.129144 0
M  V30 963 O 85.2567 1.98045 1.13976 0
M  V30 964 C 85.4667 2.54934 -2.38347 0
M  V30 965 C 86.8147 3.21506 -2.77343 0
M  V30 966 O 87.8387 2.65245 -2.37747 0
M  V30 967 O 86.6977 4.23294 -3.45665 0
M  V30 968 H 83.7917 0.662451 -0.495064 0
M  V30 969 H 86.3377 0.776121 -1.50912 0
M  V30 970 H 85.1097 2.07857 -3.31529 0
M  V30 971 H 84.7327 3.34141 -2.15489 0
M  V30 972 N 85.7298 1.2412 0.971189 0
M  V30 973 C 87.0068 0.986867 1.6888 0
M  V30 974 C 87.3868 -0.491857 2.0529 0
M  V30 975 O 86.7348 -1.46531 1.75331 0
M  V30 976 C 86.9448 1.9063 2.92338 0
M  V30 977 C 88.2928 2.17515 3.64654 0
M  V30 978 O 89.3168 1.88254 3.02388 0
M  V30 979 O 88.1758 2.6719 4.7673 0
M  V30 980 H 85.2698 0.372944 0.738134 0
M  V30 981 H 87.8158 1.35203 1.02559 0
M  V30 982 H 86.5878 2.90552 2.62097 0
M  V30 983 H 86.2108 1.54408 3.66393 0
M  V30 984 N 87.2079 -1.17134 1.05439 0
M  V30 985 C 88.1179 -2.24878 0.668365 0
M  V30 986 C 89.1339 -1.71186 -0.311687 0
M  V30 987 O 90.3099 -2.00738 -0.163161 0
M  V30 988 C 87.3749 -3.46662 0.051648 0
M  V30 989 C 86.4359 -4.15429 1.08246 0
M  V30 990 C 85.6689 -5.31399 0.495082 0
M  V30 991 O 85.8919 -5.66153 -0.694743 0
M  V30 992 O 84.8259 -5.89187 1.23056 0
M  V30 993 H 88.6519 -2.60189 1.56637 0
M  V30 994 H 86.2369 -1.24482 0.826104 0
M  V30 995 H 88.1189 -4.20394 -0.290966 0
M  V30 996 H 86.7939 -3.13142 -0.819971 0
M  V30 997 H 85.7009 -3.43704 1.47711 0
M  V30 998 H 87.0339 -4.52982 1.92532 0
M  V30 999 N 88.686 -0.835752 -1.33615 0
M  V30 1000 C 89.934 -0.429109 -1.97492 0
M  V30 1001 C 90.255 1.01433 -1.66543 0
M  V30 1002 O 89.525 1.70611 -0.962744 0
M  V30 1003 H 88.105 -0.155686 -0.730596 0
M  V30 1004 H 90.767 -1.06802 -1.63031 0
M  V30 1005 H 89.863 -0.55861 -3.0706 0
M  V30 1006 N 90.1641 1.46063 -0.591896 0
M  V30 1007 C 91.4101 2.02638 -0.0811191 0
M  V30 1008 C 91.7431 1.4613 1.27905 0
M  V30 1009 O 91.0181 0.629908 1.84017 0
M  V30 1010 C 91.3011 3.60091 -0.0252436 0
M  V30 1011 C 91.1541 4.26965 -1.41496 0
M  V30 1012 C 92.4731 4.3496 0.670685 0
M  V30 1013 H 89.5921 0.73635 -0.0309524 0
M  V30 1014 H 92.2341 1.741 -0.760859 0
M  V30 1015 H 90.3841 3.84535 0.553624 0
M  V30 1016 H 92.0561 4.13756 -2.0397 0
M  V30 1017 H 90.2991 3.85971 -1.98011 0
M  V30 1018 H 90.9701 5.35781 -1.32825 0
M  V30 1019 H 93.4461 4.15716 0.178825 0
M  V30 1020 H 92.3221 5.44686 0.678837 0
M  V30 1021 H 92.5831 4.06685 1.73379 0
M  V30 1022 N 91.6422 0.330177 1.54103 0
M  V30 1023 C 92.8902 -0.269871 2.0029 0
M  V30 1024 C 93.2112 -1.52133 1.21986 0
M  V30 1025 O 92.4812 -1.93212 0.323438 0
M  V30 1026 H 91.0612 -0.10271 0.739905 0
M  V30 1027 H 93.7232 0.448249 1.89675 0
M  V30 1028 H 92.8192 -0.52166 3.07709 0
M  V30 1029 N 93.1203 -1.57491 0.0584922 0
M  V30 1030 C 94.0303 -2.15448 -0.928414 0
M  V30 1031 C 95.0463 -1.11416 -1.3365 0
M  V30 1032 O 96.2223 -1.4362 -1.41193 0
M  V30 1033 C 93.2873 -2.69393 -2.18239 0
M  V30 1034 C 92.3483 -3.88249 -1.83196 0
M  V30 1035 C 91.5813 -4.39613 -3.02616 0
M  V30 1036 O 91.8043 -3.90023 -4.16219 0
M  V30 1037 O 90.7383 -5.31111 -2.83204 0
M  V30 1038 H 94.5643 -3.00112 -0.465483 0
M  V30 1039 H 92.1493 -1.48499 -0.163826 0
M  V30 1040 H 94.0313 -3.04026 -2.91798 0
M  V30 1041 H 92.7063 -1.87796 -2.63656 0
M  V30 1042 H 91.6133 -3.58492 -1.06931 0
M  V30 1043 H 92.9463 -4.71098 -1.42573 0
M  V30 1044 N 94.5984 0.214957 -1.56127 0
M  V30 1045 C 95.8444 0.939762 -1.79712 0
M  V30 1046 C 96.1774 1.83723 -0.629247 0
M  V30 1047 O 95.4524 1.90925 0.371197 0
M  V30 1048 C 95.7354 1.77306 -3.13424 0
M  V30 1049 C 95.5884 0.90164 -4.40671 0
M  V30 1050 C 96.9074 2.74956 -3.43638 0
M  V30 1051 H 94.0264 0.340214 -0.653776 0
M  V30 1052 H 96.6684 0.20824 -1.88855 0
M  V30 1053 H 94.8184 2.39673 -3.0576 0
M  V30 1054 H 96.4904 0.294206 -4.60361 0
M  V30 1055 H 94.7334 0.207368 -4.33304 0
M  V30 1056 H 95.4044 1.51923 -5.30682 0
M  V30 1057 H 97.8804 2.22724 -3.51473 0
M  V30 1058 H 96.7564 3.30358 -4.38355 0
M  V30 1059 H 97.0174 3.53023 -2.66134 0
M  V30 1060 N 96.0765 1.50051 0.48192 0
M  V30 1061 C 97.4925 1.37237 0.814756 0
M  V30 1062 C 97.6925 0.420109 1.97072 0
M  V30 1063 O 96.7485 -0.141246 2.52105 0
M  V30 1064 C 98.0615 2.78375 1.13701 0
M  V30 1065 C 99.6095 2.87213 1.2441 0
M  V30 1066 C 100.084 4.29161 1.59954 0
M  V30 1067 N 101.575 4.32061 1.66967 0
M  V30 1068 C 102.31 5.38879 1.95952 0
M  V30 1069 N 101.806 6.55918 2.23031 0
M  V30 1070 N 103.599 5.26312 1.97363 0
M  V30 1071 H 95.7505 2.10546 -0.28005 0
M  V30 1072 H 98.0135 0.945921 -0.0627454 0
M  V30 1073 H 97.7195 3.49845 0.360787 0
M  V30 1074 H 97.5935 3.14941 2.07586 0
M  V30 1075 H 99.9805 2.15969 2.01101 0
M  V30 1076 H 100.061 2.54204 0.285299 0
M  V30 1077 H 99.7055 5.00938 0.838067 0
M  V30 1078 H 99.6355 4.59648 2.56966 0
M  V30 1079 H 102.126 3.47661 1.48123 0
M  V30 1080 H 102.439 7.33139 2.44391 0
M  V30 1081 H 100.784 6.59112 2.20447 0
M  V30 1082 H 103.975 4.33876 1.75697 0
M  V30 1083 H 104.148 6.09649 2.19618 0
M  V30 1084 N 97.5546 -0.734337 1.39446 0
M  V30 1085 C 98.8006 -1.49613 1.36908 0
M  V30 1086 C 99.1336 -1.94169 -0.0347829 0
M  V30 1087 O 98.4086 -1.66833 -0.999847 0
M  V30 1088 C 98.6916 -2.73534 2.34203 0
M  V30 1089 C 98.5446 -2.34993 3.83534 0
M  V30 1090 C 99.8636 -3.75635 2.29317 0
M  V30 1091 H 96.9826 -0.542714 0.498629 0
M  V30 1092 H 99.6246 -0.839597 1.70443 0
M  V30 1093 H 97.7746 -3.29553 2.05736 0
M  V30 1094 H 99.4466 -1.84601 4.22753 0
M  V30 1095 H 97.6896 -1.67213 4.00278 0
M  V30 1096 H 98.3606 -3.23738 4.47099 0
M  V30 1097 H 100.837 -3.29203 2.54489 0
M  V30 1098 H 99.7126 -4.60008 2.99472 0
M  V30 1099 H 99.9736 -4.22603 1.29842 0
M  V30 1100 N 99.0327 -1.24633 -0.964593 0
M  V30 1101 C 99.9827 -1.00841 -2.04487 0
M  V30 1102 C 100.967 0.0512468 -1.60818 0
M  V30 1103 O 102.159 -0.162865 -1.76249 0
M  V30 1104 C 99.2877 -0.618474 -3.37683 0
M  V30 1105 C 98.3737 -1.71437 -3.87905 0
M  V30 1106 N 98.7647 -2.9477 -4.11029 0
M  V30 1107 C 97.0627 -1.5926 -4.16596 0
M  V30 1108 C 97.7637 -3.65834 -4.52261 0
M  V30 1109 N 96.7397 -2.9341 -4.57615 0
M  V30 1110 H 100.542 -1.94487 -2.20345 0
M  V30 1111 H 98.0557 -1.14805 -1.14863 0
M  V30 1112 H 100.053 -0.429247 -4.14684 0
M  V30 1113 H 98.7127 0.310766 -3.23209 0
M  V30 1114 H 99.7237 -3.30917 -3.9839 0
M  V30 1115 H 96.4007 -0.731606 -4.1104 0
M  V30 1116 H 97.7907 -4.71646 -4.78539 0
M  V30 1117 N 100.511 1.16574 -1.06058 0
M  V30 1118 C 101.927 1.3904 -0.783585 0
M  V30 1119 C 102.127 1.91784 0.618145 0
M  V30 1120 O 101.183 2.11511 1.37911 0
M  V30 1121 C 102.496 2.37329 -1.84649 0
M  V30 1122 C 104.044 2.51018 -1.86973 0
M  V30 1123 C 104.519 3.52588 -2.92311 0
M  V30 1124 N 106.01 3.60113 -2.91329 0
M  V30 1125 C 106.745 4.38486 -3.69482 0
M  V30 1126 N 106.241 5.20302 -4.57447 0
M  V30 1127 N 108.034 4.33446 -3.57885 0
M  V30 1128 H 100.185 0.806725 -1.96483 0
M  V30 1129 H 102.448 0.417117 -0.851303 0
M  V30 1130 H 102.154 2.05663 -2.85299 0
M  V30 1131 H 102.028 3.36946 -1.6955 0
M  V30 1132 H 104.415 2.81989 -0.869827 0
M  V30 1133 H 104.496 1.51445 -2.0615 0
M  V30 1134 H 104.14 3.22354 -3.92492 0
M  V30 1135 H 104.07 4.51886 -2.70383 0
M  V30 1136 H 106.561 3.01707 -2.27555 0
M  V30 1137 H 106.874 5.77311 -5.13743 0
M  V30 1138 H 105.219 5.19653 -4.61503 0
M  V30 1139 H 108.41 3.68586 -2.88551 0
M  V30 1140 H 108.583 4.94279 -4.19037 0
M  V30 1141 N 101.989 0.842826 1.3317 0
M  V30 1142 C 103.235 0.441099 1.97945 0
M  V30 1143 C 103.568 -0.998024 1.66593 0
M  V30 1144 O 102.843 -1.69839 0.947898 0
M  V30 1145 C 103.126 0.666841 3.53872 0
M  V30 1146 C 102.979 2.15352 3.94897 0
M  V30 1147 C 104.298 0.115544 4.39948 0
M  V30 1148 H 101.417 0.161739 0.719034 0
M  V30 1149 H 104.059 1.05907 1.57746 0
M  V30 1150 H 102.209 0.140828 3.88245 0
M  V30 1151 H 103.881 2.7447 3.70761 0
M  V30 1152 H 102.124 2.63653 3.44484 0
M  V30 1153 H 102.795 2.26221 5.03516 0
M  V30 1154 H 105.271 0.565213 4.12243 0
M  V30 1155 H 104.147 0.303152 5.48062 0
M  V30 1156 H 104.408 -0.980935 4.3108 0
M  V30 1157 N 103.467 -1.45747 0.599634 0
M  V30 1158 C 104.415 -2.322 -0.136426 0
M  V30 1159 C 105.409 -1.45497 -0.867583 0
M  V30 1160 O 106.615 -1.62027 -0.78405 0
M  V30 1161 H 102.99 -0.749368 -0.0628588 0
M  V30 1162 H 104.961 -2.92072 0.611281 0
M  V30 1163 C 103.71 -3.28974 -1.12567 0
M  V30 1164 H 103.033 -3.9568 -0.572484 0
M  V30 1165 H 104.473 -3.92212 -1.61077 0
M  V30 1166 C 102.932 -2.55561 -2.19523 0
M  V30 1167 O 103.462 -2.33111 -3.27143 0
M  V30 1168 N 101.668 -2.15832 -1.94589 0
M  V30 1169 H 101.215 -2.3429 -1.07078 0
M  V30 1170 H 101.173 -1.67034 -2.66359 0
M  V30 1171 N 104.945 -0.338344 -1.53925 0
M  V30 1172 C 105.895 0.536712 -2.21593 0
M  V30 1173 C 106.879 1.07015 -1.20153 0
M  V30 1174 O 108.071 1.00471 -1.45721 0
M  V30 1175 C 105.2 1.68977 -2.98834 0
M  V30 1176 C 104.286 1.17052 -4.07627 0
M  V30 1177 N 104.677 0.372085 -5.0443 0
M  V30 1178 C 102.975 1.44789 -4.21844 0
M  V30 1179 C 103.676 0.0909171 -5.81629 0
M  V30 1180 N 102.652 0.681131 -5.39316 0
M  V30 1181 H 106.454 -0.0804298 -2.9379 0
M  V30 1182 H 103.968 -0.144943 -1.61752 0
M  V30 1183 H 105.965 2.32857 -3.45808 0
M  V30 1184 H 104.625 2.31024 -2.28162 0
M  V30 1185 H 105.636 0.0136217 -5.17898 0
M  V30 1186 H 102.313 2.07313 -3.62391 0
M  V30 1187 H 103.703 -0.552817 -6.69622 0
M  V30 1188 N 106.423 1.57458 -0.0668435 0
M  V30 1189 C 107.386 2.11323 0.887422 0
M  V30 1190 C 108.386 1.03618 1.22964 0
M  V30 1191 O 109.576 1.29626 1.16373 0
M  V30 1192 C 106.708 2.61048 2.19242 0
M  V30 1193 H 107.901 2.96942 0.420194 0
M  V30 1194 H 105.454 1.55239 0.181793 0
M  V30 1195 H 106.189 1.78868 2.70512 0
M  V30 1196 H 105.974 3.39769 1.95702 0
M  V30 1197 H 107.464 3.02814 2.87565 0
M  V30 1198 N 107.901 -0.206675 1.56239 0
M  V30 1199 C 109.312 -0.772383 1.69974 0
M  V30 1200 C 109.663 -1.84353 0.671436 0
M  V30 1201 O 108.788 -2.15695 -0.174491 0
M  V30 1202 C 109.383 -1.40779 3.08167 0
M  V30 1203 C 107.942 -1.92072 3.23706 0
M  V30 1204 C 107.089 -0.786347 2.65917 0
M  V30 1205 H 110.04 0.0182223 1.5869 0
M  V30 1206 H 110.061 -2.27696 3.04852 0
M  V30 1207 H 109.573 -0.627958 3.82986 0
M  V30 1208 H 107.674 -2.7281 2.53782 0
M  V30 1209 H 107.787 -2.09046 4.31087 0
M  V30 1210 H 106.151 -1.1976 2.24788 0
M  V30 1211 H 106.934 -0.0189416 3.43295 0
M  V30 1212 N 109.379 -1.50304 -0.473955 0
M  V30 1213 C 110.342 -1.6841 -1.55469 0
M  V30 1214 C 111.342 -0.554905 -1.50922 0
M  V30 1215 O 112.532 -0.821882 -1.53593 0
M  V30 1216 C 109.664 -1.70667 -2.95102 0
M  V30 1217 H 110.857 -2.64828 -1.40733 0
M  V30 1218 H 108.41 -1.39742 -0.700132 0
M  V30 1219 H 109.145 -0.75932 -3.15285 0
M  V30 1220 H 108.93 -2.52698 -2.9981 0
M  V30 1221 H 110.42 -1.8664 -3.73571 0
M  V30 1222 N 110.857 0.726932 -1.39834 0
M  V30 1223 C 111.805 1.86235 -1.39353 0
M  V30 1224 C 112.799 1.67144 -0.275555 0
M  V30 1225 O 114.005 1.74387 -0.44601 0
M  V30 1226 H 110.38 0.613174 -0.43534 0
M  V30 1227 H 112.351 1.83756 -2.35109 0
M  V30 1228 C 111.1 3.23995 -1.26185 0
M  V30 1229 H 110.423 3.39285 -2.11484 0
M  V30 1230 H 111.863 4.03609 -1.29907 0
M  V30 1231 C 110.322 3.36888 0.0290018 0
M  V30 1232 O 110.852 3.89152 0.99619 0
M  V30 1233 N 109.058 2.90446 0.0947437 0
M  V30 1234 H 108.605 2.48102 -0.693035 0
M  V30 1235 H 108.563 2.99451 0.957932 0
M  V30 1236 N 112.336 1.25143 0.95797 0
M  V30 1237 C 113.299 1.05321 2.03569 0
M  V30 1238 C 114.299 0.007152 1.60798 0
M  V30 1239 O 115.489 0.24903 1.72411 0
M  V30 1240 C 112.621 0.598394 3.35607 0
M  V30 1241 H 113.814 2.00986 2.22586 0
M  V30 1242 H 111.367 1.07502 1.13459 0
M  V30 1243 H 112.102 -0.361014 3.22284 0
M  V30 1244 H 111.887 1.35351 3.67998 0
M  V30 1245 H 113.377 0.48104 4.1482 0
M  V30 1246 N 113.814 -1.1601 1.06675 0
M  V30 1247 C 114.746 -2.20115 0.638921 0
M  V30 1248 C 115.759 -1.59916 -0.305057 0
M  V30 1249 O 116.948 -1.78245 -0.0954446 0
M  V30 1250 C 114.048 -3.38798 -0.0830083 0
M  V30 1251 C 113.221 -4.2855 0.875426 0
M  V30 1252 C 112.28 -5.25849 0.192042 0
M  V30 1253 O 111.306 -5.63102 0.830921 0
M  V30 1254 N 112.508 -5.70648 -1.06493 0
M  V30 1255 H 115.273 -2.57439 1.53444 0
M  V30 1256 H 112.834 -1.31057 0.950557 0
M  V30 1257 H 114.826 -4.00936 -0.550685 0
M  V30 1258 H 113.396 -2.99947 -0.880386 0
M  V30 1259 H 112.616 -3.63617 1.52238 0
M  V30 1260 H 113.904 -4.85393 1.52548 0
M  V30 1261 H 113.302 -5.42482 -1.60405 0
M  V30 1262 H 111.859 -6.34859 -1.47641 0
M  V30 1263 N 115.292 -0.849877 -1.32721 0
M  V30 1264 C 116.202 -0.293791 -2.32753 0
M  V30 1265 C 117.218 0.585906 -1.63839 0
M  V30 1266 O 118.394 0.487413 -1.95413 0
M  V30 1267 C 115.459 0.512752 -3.42887 0
M  V30 1268 C 114.52 -0.39252 -4.27502 0
M  V30 1269 C 113.753 0.375625 -5.32377 0
M  V30 1270 O 113.976 1.60613 -5.4732 0
M  V30 1271 O 112.91 -0.256094 -6.01355 0
M  V30 1272 H 116.736 -1.12242 -2.82197 0
M  V30 1273 H 114.321 -0.612685 -1.36259 0
M  V30 1274 H 116.203 0.970704 -4.10067 0
M  V30 1275 H 114.878 1.31826 -2.95641 0
M  V30 1276 H 113.785 -0.898547 -3.63149 0
M  V30 1277 H 115.118 -1.16309 -4.7826 0
M  V30 1278 N 116.77 1.45427 -0.607355 0
M  V30 1279 C 117.72 2.27612 0.133038 0
M  V30 1280 C 118.704 1.37307 0.838785 0
M  V30 1281 O 119.896 1.61299 0.728813 0
M  V30 1282 C 117.025 3.24173 1.12991 0
M  V30 1283 C 116.111 4.21965 0.425011 0
M  V30 1284 N 116.502 5.02982 -0.533217 0
M  V30 1285 C 114.8 4.40899 0.672593 0
M  V30 1286 C 115.501 5.73931 -0.947518 0
M  V30 1287 N 114.477 5.42819 -0.291321 0
M  V30 1288 H 118.279 2.87649 -0.602935 0
M  V30 1289 H 115.793 1.56576 -0.431006 0
M  V30 1290 H 117.79 3.81783 1.67473 0
M  V30 1291 H 116.45 2.65696 1.86644 0
M  V30 1292 H 117.461 5.09843 -0.90995 0
M  V30 1293 H 114.138 3.93547 1.39382 0
M  V30 1294 H 115.528 6.49037 -1.73782 0
M  V30 1295 N 118.248 0.346503 1.53744 0
M  V30 1296 C 119.158 -0.517293 2.28826 0
M  V30 1297 C 120.174 -1.10935 1.3405 0
M  V30 1298 O 121.35 -1.1244 1.6709 0
M  V30 1299 C 118.415 -1.65098 3.04866 0
M  V30 1300 C 117.476 -1.0884 4.15274 0
M  V30 1301 C 116.709 -2.16806 4.87679 0
M  V30 1302 O 116.932 -3.3758 4.59778 0
M  V30 1303 O 115.866 -1.80934 5.74061 0
M  V30 1304 H 119.692 0.0931396 3.03557 0
M  V30 1305 H 117.277 0.111458 1.48984 0
M  V30 1306 H 119.159 -2.31053 3.5241 0
M  V30 1307 H 117.834 -2.24717 2.32989 0
M  V30 1308 H 116.741 -0.3933 3.72027 0
M  V30 1309 H 118.074 -0.537036 4.89261 0
M  V30 1310 N 119.726 -1.57421 0.075193 0
M  V30 1311 C 120.689 -2.11791 -0.876203 0
M  V30 1312 C 121.689 -1.04268 -1.22412 0
M  V30 1313 O 122.879 -1.30242 -1.15684 0
M  V30 1314 C 120.011 -2.62207 -2.17854 0
M  V30 1315 H 121.204 -2.9716 -0.40444 0
M  V30 1316 H 118.757 -1.55333 -0.173557 0
M  V30 1317 H 119.492 -1.803 -2.6956 0
M  V30 1318 H 119.277 -3.40802 -1.93897 0
M  V30 1319 H 120.767 -3.04335 -2.85955 0
M  V30 1320 N 121.204 0.198386 -1.56346 0
M  V30 1321 C 122.167 1.22952 -1.93431 0
M  V30 1322 C 123.167 1.38611 -0.815092 0
M  V30 1323 O 124.357 1.36479 -1.08255 0
M  V30 1324 C 121.489 2.59946 -2.20546 0
M  V30 1325 H 122.682 0.912626 -2.85677 0
M  V30 1326 H 120.235 0.43977 -1.49986 0
M  V30 1327 H 120.97 2.96696 -1.30927 0
M  V30 1328 H 120.755 2.49953 -3.02102 0
M  V30 1329 H 122.245 3.3431 -2.50253 0
M  V30 1330 N 122.682 1.50554 0.465978 0
M  V30 1331 C 124.098 1.38093 0.800154 0
M  V30 1332 C 124.298 0.440988 1.96615 0
M  V30 1333 O 123.354 -0.114499 2.5224 0
M  V30 1334 C 124.667 2.79565 1.10742 0
M  V30 1335 C 126.215 2.88516 1.21357 0
M  V30 1336 C 126.69 4.30833 1.55393 0
M  V30 1337 N 128.181 4.33807 1.62375 0
M  V30 1338 C 128.916 5.40927 1.90225 0
M  V30 1339 N 128.412 6.58247 2.16062 0
M  V30 1340 N 130.205 5.28376 1.9177 0
M  V30 1341 H 122.356 2.10237 -0.302366 0
M  V30 1342 H 124.619 0.945203 -0.0727746 0
M  V30 1343 H 124.325 3.50208 0.323661 0
M  V30 1344 H 124.199 3.17125 2.04234 0
M  V30 1345 H 126.586 2.1809 1.98799 0
M  V30 1346 H 126.667 2.54492 0.258321 0
M  V30 1347 H 126.311 5.01799 0.784889 0
M  V30 1348 H 126.241 4.62347 2.52076 0
M  V30 1349 H 128.732 3.49212 1.44427 0
M  V30 1350 H 129.045 7.3569 2.36601 0
M  V30 1351 H 127.39 6.61413 2.13444 0
M  V30 1352 H 130.581 4.35715 1.71085 0
M  V30 1353 H 130.754 6.11944 2.13139 0
M  V30 1354 N 124.16 -0.719506 1.40217 0
M  V30 1355 C 125.571 -1.29848 1.34151 0
M  V30 1356 C 125.922 -1.96196 0.0131349 0
M  V30 1357 O 125.047 -1.973 -0.88892 0
M  V30 1358 C 125.642 -2.36118 2.42968 0
M  V30 1359 C 124.201 -2.8965 2.40374 0
M  V30 1360 C 123.348 -1.63393 2.24049 0
M  V30 1361 H 126.299 -0.51591 1.5008 0
M  V30 1362 H 126.32 -3.16871 2.10649 0
M  V30 1363 H 125.832 -1.878 3.39636 0
M  V30 1364 H 123.933 -3.42208 1.47392 0
M  V30 1365 H 124.046 -3.4171 3.35814 0
M  V30 1366 H 122.41 -1.88312 1.71495 0
M  V30 1367 H 123.193 -1.17104 3.2271 0
M  V30 1368 N 125.638 -1.25649 -0.95132 0
M  V30 1369 C 126.863 -1.13443 -1.73624 0
M  V30 1370 C 127.288 0.307565 -1.85568 0
M  V30 1371 O 126.646 1.22282 -1.33854 0
M  V30 1372 C 126.694 -1.79723 -3.12621 0
M  V30 1373 O 125.798 -1.07912 -3.98031 0
M  V30 1374 H 125.139 -0.395872 -0.533086 0
M  V30 1375 H 127.669 -1.66276 -1.1922 0
M  V30 1376 H 127.679 -1.86141 -3.63064 0
M  V30 1377 H 126.354 -2.84633 -3.03244 0
M  V30 1378 H 124.931 -1.09398 -3.56492 0
M  V30 1379 N 127.117 1.15442 -1.07289 0
M  V30 1380 C 128.528 1.67803 -0.818475 0
M  V30 1381 C 128.879 1.8489 0.656507 0
M  V30 1382 O 128.004 1.55176 1.50829 0
M  V30 1383 C 128.599 3.04805 -1.47917 0
M  V30 1384 C 127.158 3.54245 -1.27229 0
M  V30 1385 C 126.305 2.29986 -1.54925 0
M  V30 1386 H 129.256 0.996646 -1.23502 0
M  V30 1387 H 129.277 3.69702 -0.90005 0
M  V30 1388 H 128.789 2.92336 -2.55267 0
M  V30 1389 H 126.89 3.71956 -0.21899 0
M  V30 1390 H 127.003 4.35723 -1.99203 0
M  V30 1391 H 125.367 2.35496 -0.970242 0
M  V30 1392 H 126.15 2.20105 -2.63455 0
M  V30 1393 N 128.595 0.856903 1.32268 0
M  V30 1394 C 129.527 0.260412 2.27716 0
M  V30 1395 C 130.54 -0.569137 1.52528 0
M  V30 1396 O 131.729 -0.39326 1.74114 0
M  V30 1397 C 128.829 -0.650477 3.32599 0
M  V30 1398 C 128.002 0.14372 4.37164 0
M  V30 1399 C 127.061 -0.69328 5.21613 0
M  V30 1400 O 126.087 -0.12599 5.69061 0
M  V30 1401 N 127.289 -2.00761 5.44679 0
M  V30 1402 H 130.054 1.08059 2.79541 0
M  V30 1403 H 127.615 0.717103 1.45152 0
M  V30 1404 H 129.607 -1.21581 3.86005 0
M  V30 1405 H 128.177 -1.37133 2.80915 0
M  V30 1406 H 127.397 0.890486 3.8401 0
M  V30 1407 H 128.685 0.68915 5.04111 0
M  V30 1408 H 128.083 -2.49181 5.07863 0
M  V30 1409 H 126.64 -2.52103 6.01072 0
M  V30 1410 N 130.073 -1.45103 0.615059 0
M  V30 1411 C 131.023 -2.27679 -0.120966 0
M  V30 1412 C 132.007 -1.3775 -0.831491 0
M  V30 1413 O 133.199 -1.61683 -0.720249 0
M  V30 1414 C 130.328 -3.24767 -1.1127 0
M  V30 1415 C 129.414 -4.22184 -0.402627 0
M  V30 1416 N 129.805 -5.02692 0.559884 0
M  V30 1417 C 128.103 -4.4125 -0.649202 0
M  V30 1418 C 128.804 -5.73421 0.977942 0
M  V30 1419 N 127.78 -5.42657 0.320104 0
M  V30 1420 H 131.582 -2.87325 0.618181 0
M  V30 1421 H 129.096 -1.56345 0.439304 0
M  V30 1422 H 131.093 -3.82666 -1.65446 0
M  V30 1423 H 129.753 -2.66682 -1.85232 0
M  V30 1424 H 130.764 -5.09354 0.936976 0
M  V30 1425 H 127.441 -3.9428 -1.37293 0
M  V30 1426 H 128.831 -6.48107 1.77222 0
M  V30 1427 N 131.551 -0.354651 -1.53558 0
M  V30 1428 C 132.483 0.5315 -2.22952 0
M  V30 1429 C 133.496 1.05503 -1.23988 0
M  V30 1430 O 134.685 0.963279 -1.50277 0
M  V30 1431 C 131.785 1.74538 -2.90499 0
M  V30 1432 C 130.958 1.35524 -4.15875 0
M  V30 1433 C 130.017 2.42999 -4.66731 0
M  V30 1434 O 129.043 2.05844 -5.30676 0
M  V30 1435 N 130.245 3.74423 -4.43608 0
M  V30 1436 H 133.01 -0.0628615 -2.99634 0
M  V30 1437 H 130.571 -0.179302 -1.60904 0
M  V30 1438 H 132.563 2.45892 -3.21433 0
M  V30 1439 H 131.133 2.24686 -2.17336 0
M  V30 1440 H 130.353 0.471998 -3.91364 0
M  V30 1441 H 131.641 1.07071 -4.97406 0
M  V30 1442 H 131.039 4.07391 -3.92491 0
M  V30 1443 H 129.596 4.41913 -4.7912 0
M  V30 1444 N 133.029 1.57378 -0.0835403 0
M  V30 1445 C 134.259 1.97975 0.590713 0
M  V30 1446 C 134.667 0.961083 1.62972 0
M  V30 1447 O 134.01 -0.0590879 1.83605 0
M  V30 1448 C 134.072 3.34915 1.3066 0
M  V30 1449 C 133.736 4.55069 0.419698 0
M  V30 1450 C 134.733 5.18868 -0.32749 0
M  V30 1451 C 132.418 5.0114 0.341137 0
M  V30 1452 C 134.412 6.27098 -1.14134 0
M  V30 1453 C 132.099 6.0924 -0.476374 0
M  V30 1454 C 133.097 6.72083 -1.21627 0
M  V30 1455 O 132.785 7.781 -2.02028 0
M  V30 1456 H 132.517 0.655818 0.163947 0
M  V30 1457 H 135.071 2.04807 -0.156021 0
M  V30 1458 H 133.301 3.24733 2.09966 0
M  V30 1459 H 134.99 3.60037 1.87424 0
M  V30 1460 H 135.756 4.84211 -0.276459 0
M  V30 1461 H 131.635 4.51996 0.90668 0
M  V30 1462 H 135.179 6.7608 -1.71935 0
M  V30 1463 H 131.076 6.43329 -0.528927 0
M  V30 1464 H 131.844 7.95034 -1.94586 0
M  V30 1465 N 134.507 -0.190092 1.56449 0
M  V30 1466 C 135.437 -1.23816 1.97969 0
M  V30 1467 C 136.418 -1.47201 0.852395 0
M  V30 1468 O 137.603 -1.58854 1.1171 0
M  V30 1469 C 134.733 -2.5813 2.3235 0
M  V30 1470 C 133.687 -2.49348 3.47864 0
M  V30 1471 C 133.013 -3.8798 3.67934 0
M  V30 1472 C 134.313 -2.01424 4.81898 0
M  V30 1473 H 136.007 -0.89311 2.85769 0
M  V30 1474 H 133.553 -0.428177 1.37487 0
M  V30 1475 H 135.506 -3.31637 2.59991 0
M  V30 1476 H 134.23 -2.94386 1.41438 0
M  V30 1477 H 132.889 -1.78297 3.20321 0
M  V30 1478 H 132.537 -4.21597 2.74344 0
M  V30 1479 H 132.237 -3.82978 4.45648 0
M  V30 1480 H 133.761 -4.63101 3.97957 0
M  V30 1481 H 135.175 -2.64693 5.08538 0
M  V30 1482 H 133.572 -2.07413 5.63116 0
M  V30 1483 H 134.642 -0.967677 4.75146 0
M  V30 1484 N 135.985 -1.50799 -0.457987 0
M  V30 1485 C 137.396 -1.55152 -1.0385 0
M  V30 1486 C 137.747 -0.362719 -1.92818 0
M  V30 1487 O 136.872 0.522915 -2.09987 0
M  V30 1488 C 137.467 -2.81173 -1.89017 0
M  V30 1489 C 136.026 -2.88164 -2.42154 0
M  V30 1490 C 135.173 -2.49591 -1.20829 0
M  V30 1491 H 138.124 -1.56874 -0.240068 0
M  V30 1492 H 138.145 -2.63769 -2.74238 0
M  V30 1493 H 137.657 -3.67677 -1.24238 0
M  V30 1494 H 135.758 -2.06042 -3.10447 0
M  V30 1495 H 135.871 -3.91356 -2.76364 0
M  V30 1496 H 134.235 -2.02322 -1.54719 0
M  V30 1497 H 135.018 -3.38418 -0.576927 0
M  V30 1498 N 137.463 0.71206 -1.40597 0
M  V30 1499 C 138.874 1.29135 -1.34837 0
M  V30 1500 C 139.225 1.96186 -0.0235395 0
M  V30 1501 O 138.35 1.97768 0.878444 0
M  V30 1502 C 138.945 2.34827 -2.44217 0
M  V30 1503 C 137.504 2.88371 -2.41907 0
M  V30 1504 C 136.651 1.62202 -2.24913 0
M  V30 1505 H 139.602 0.507944 -1.50352 0
M  V30 1506 H 139.623 3.15749 -2.12327 0
M  V30 1507 H 139.135 1.85996 -3.40627 0
M  V30 1508 H 137.236 3.41422 -1.49204 0
M  V30 1509 H 137.349 3.39925 -3.37621 0
M  V30 1510 H 135.713 1.874 -1.72492 0
M  V30 1511 H 136.496 1.15391 -3.23326 0
M  V30 1512 N 138.941 1.26152 0.944643 0
M  V30 1513 C 140.171 1.14094 1.72239 0
M  V30 1514 C 140.579 -0.306931 1.86694 0
M  V30 1515 O 139.922 -1.22222 1.3714 0
M  V30 1516 C 139.984 1.73316 3.14963 0
M  V30 1517 C 139.648 3.2239 3.23904 0
M  V30 1518 C 140.645 4.19252 3.07447 0
M  V30 1519 C 138.33 3.62788 3.47405 0
M  V30 1520 C 140.324 5.54491 3.14353 0
M  V30 1521 C 138.011 4.98162 3.53947 0
M  V30 1522 C 139.009 5.93823 3.37436 0
M  V30 1523 O 138.697 7.26732 3.43679 0
M  V30 1524 H 138.429 0.398292 0.546205 0
M  V30 1525 H 140.983 1.67201 1.19301 0
M  V30 1526 H 139.213 1.14667 3.69308 0
M  V30 1527 H 140.902 1.56214 3.74636 0
M  V30 1528 H 141.668 3.8938 2.8915 0
M  V30 1529 H 137.547 2.88816 3.59313 0
M  V30 1530 H 141.091 6.29137 3.01384 0
M  V30 1531 H 136.988 5.27695 3.71763 0
M  V30 1532 H 137.756 7.3496 3.60245 0
M  V30 1533 N 140.419 -1.14872 1.07899 0
M  V30 1534 C 141.382 -2.17986 0.708161 0
M  V30 1535 C 142.382 -1.58775 -0.25442 0
M  V30 1536 O 143.572 -1.74166 -0.034645 0
M  V30 1537 C 140.704 -3.40871 0.0446929 0
M  V30 1538 H 141.897 -2.52306 1.62116 0
M  V30 1539 H 139.45 -1.2943 0.876218 0
M  V30 1540 H 140.185 -3.12124 -0.880281 0
M  V30 1541 H 139.97 -3.8511 0.737091 0
M  V30 1542 H 141.46 -4.17121 -0.19991 0
M  V30 1543 N 141.898 -0.863906 -1.31812 0
M  V30 1544 C 143.123 -0.48527 -2.01643 0
M  V30 1545 C 143.548 0.913058 -1.64453 0
M  V30 1546 O 142.906 1.6014 -0.849985 0
M  V30 1547 C 142.954 -0.642625 -3.54828 0
M  V30 1548 O 142.058 0.320659 -4.11151 0
M  V30 1549 H 141.399 -0.193793 -0.635091 0
M  V30 1550 H 143.929 -1.16565 -1.68148 0
M  V30 1551 H 143.939 -0.533628 -4.04495 0
M  V30 1552 H 142.614 -1.66227 -3.81237 0
M  V30 1553 H 141.191 0.167126 -3.72525 0
M  V30 1554 N 143.376 1.44774 -0.622745 0
M  V30 1555 C 144.339 2.29069 0.0774015 0
M  V30 1556 C 145.339 1.4059 0.780461 0
M  V30 1557 O 146.529 1.62551 0.626322 0
M  V30 1558 C 143.661 3.21974 1.12006 0
M  V30 1559 H 144.854 2.92459 -0.663901 0
M  V30 1560 H 142.407 1.51548 -0.382486 0
M  V30 1561 H 143.142 2.63417 1.89162 0
M  V30 1562 H 142.927 3.87168 0.619951 0
M  V30 1563 H 144.417 3.85318 1.60995 0
M  V30 1564 N 144.854 0.36279 1.53368 0
M  V30 1565 C 145.786 -0.519668 2.23231 0
M  V30 1566 C 146.799 -1.04844 1.24546 0
M  V30 1567 O 147.988 -0.955296 1.50786 0
M  V30 1568 C 145.088 -1.72995 2.9142 0
M  V30 1569 C 144.261 -1.33316 4.16588 0
M  V30 1570 C 143.32 -2.40521 4.68013 0
M  V30 1571 O 142.346 -2.03027 5.3176 0
M  V30 1572 N 143.548 -3.72065 4.45587 0
M  V30 1573 H 146.313 0.078751 2.99597 0
M  V30 1574 H 143.874 0.187833 1.60807 0
M  V30 1575 H 145.866 -2.44184 3.22733 0
M  V30 1576 H 144.436 -2.2353 2.18525 0
M  V30 1577 H 143.656 -0.451236 3.91609 0
M  V30 1578 H 144.944 -1.04432 4.97967 0
M  V30 1579 H 144.342 -4.05304 3.94646 0
M  V30 1580 H 142.899 -4.39366 4.81457 0
M  V30 1581 N 146.332 -1.57332 0.0918853 0
M  V30 1582 C 147.743 -1.81496 -0.437739 0
M  V30 1583 C 148.094 -1.00727 -1.6837 0
M  V30 1584 O 147.219 -0.235694 -2.15113 0
M  V30 1585 C 147.814 -3.29197 -0.800939 0
M  V30 1586 C 146.373 -3.54136 -1.27532 0
M  V30 1587 C 145.52 -2.75979 -0.270392 0
M  V30 1588 H 148.471 -1.55494 0.317366 0
M  V30 1589 H 148.492 -3.42344 -1.66074 0
M  V30 1590 H 148.004 -3.87955 0.106078 0
M  V30 1591 H 146.105 -3.00705 -2.20016 0
M  V30 1592 H 146.218 -4.62792 -1.23938 0
M  V30 1593 H 144.582 -2.43349 -0.751872 0
M  V30 1594 H 145.365 -3.37484 0.629248 0
M  V30 1595 N 147.81 0.181792 -1.56548 0
M  V30 1596 C 149.226 0.53316 -1.50431 0
M  V30 1597 C 149.426 1.85184 -0.794297 0
M  V30 1598 O 148.482 2.50058 -0.350318 0
M  V30 1599 C 149.795 0.575597 -2.9514 0
M  V30 1600 C 151.343 0.663519 -3.05886 0
M  V30 1601 C 151.818 0.736946 -4.52032 0
M  V30 1602 N 153.309 0.800118 -4.56237 0
M  V30 1603 C 154.044 0.877327 -5.66649 0
M  V30 1604 N 153.54 0.916016 -6.86718 0
M  V30 1605 N 155.333 0.915542 -5.54594 0
M  V30 1606 H 147.484 -0.683025 -2.01118 0
M  V30 1607 H 149.747 -0.244988 -0.915797 0
M  V30 1608 H 149.453 -0.324482 -3.502 0
M  V30 1609 H 149.327 1.42572 -3.49218 0
M  V30 1610 H 151.714 1.55403 -2.50867 0
M  V30 1611 H 151.795 -0.21307 -2.54911 0
M  V30 1612 H 151.439 -0.149262 -5.07681 0
M  V30 1613 H 151.369 1.62953 -5.00753 0
M  V30 1614 H 153.86 0.778926 -3.69785 0
M  V30 1615 H 154.173 0.975813 -7.66614 0
M  V30 1616 H 152.518 0.884469 -6.89349 0
M  V30 1617 H 155.709 0.882245 -4.59711 0
M  V30 1618 H 155.882 0.972253 -6.40665 0
M  V30 1619 N 149.288 1.51039 0.449983 0
M  V30 1620 C 150.22 1.67617 1.56324 0
M  V30 1621 C 151.233 0.557083 1.52972 0
M  V30 1622 O 152.422 0.830989 1.57977 0
M  V30 1623 C 149.522 1.66402 2.95235 0
M  V30 1624 C 148.695 2.9469 3.23229 0
M  V30 1625 C 147.754 2.85832 4.41799 0
M  V30 1626 O 146.78 3.59785 4.41071 0
M  V30 1627 N 147.982 2.00821 5.44657 0
M  V30 1628 H 150.747 2.63648 1.42512 0
M  V30 1629 H 148.308 1.48767 0.638737 0
M  V30 1630 H 150.3 1.58062 3.72557 0
M  V30 1631 H 148.87 0.780182 3.02708 0
M  V30 1632 H 148.09 3.16996 2.34323 0
M  V30 1633 H 149.378 3.79636 3.38754 0
M  V30 1634 H 148.776 1.40091 5.48079 0
M  V30 1635 H 147.333 1.98368 6.20881 0
M  V30 1636 N 150.766 -0.704594 1.40972 0
M  V30 1637 C 152.177 -1.28418 1.3552 0
M  V30 1638 C 152.528 -1.96171 0.0339434 0
M  V30 1639 O 151.653 -1.98231 -0.867944 0
M  V30 1640 C 152.248 -2.33528 2.45459 0
M  V30 1641 C 150.807 -2.87085 2.43433 0
M  V30 1642 C 149.954 -1.61007 2.2577 0
M  V30 1643 H 152.905 -0.499963 1.50619 0
M  V30 1644 H 152.926 -3.14619 2.13998 0
M  V30 1645 H 152.438 -1.84187 3.41609 0
M  V30 1646 H 150.539 -3.40626 1.51013 0
M  V30 1647 H 150.652 -3.3813 3.39419 0
M  V30 1648 H 149.016 -1.86482 1.73483 0
M  V30 1649 H 149.799 -1.13675 3.23933 0
M  V30 1650 N 152.244 -1.26651 -0.937939 0
M  V30 1651 C 153.49 -1.12553 -1.687 0
M  V30 1652 C 153.823 0.329782 -1.91379 0
M  V30 1653 O 153.098 1.24202 -1.4968 0
M  V30 1654 C 153.381 -1.89862 -3.05981 0
M  V30 1655 C 153.234 -3.43318 -2.90607 0
M  V30 1656 C 154.553 -1.69499 -4.0615 0
M  V30 1657 H 151.672 -0.410257 -0.612257 0
M  V30 1658 H 154.314 -1.55685 -1.08913 0
M  V30 1659 H 152.464 -1.53204 -3.57017 0
M  V30 1660 H 154.136 -3.89747 -2.46769 0
M  V30 1661 H 152.379 -3.70179 -2.26164 0
M  V30 1662 H 153.05 -3.92642 -3.8799 0
M  V30 1663 H 155.526 -2.01442 -3.64088 0
M  V30 1664 H 154.402 -2.26002 -5.00214 0
M  V30 1665 H 154.663 -0.640365 -4.37438 0
M  V30 1666 N 153.722 1.14298 -1.08507 0
M  V30 1667 C 154.654 2.1907 -0.673859 0
M  V30 1668 C 155.667 1.60381 0.279577 0
M  V30 1669 O 156.856 1.78374 0.0670754 0
M  V30 1670 C 153.956 3.38888 0.0290979 0
M  V30 1671 C 153.129 4.27103 -0.943494 0
M  V30 1672 C 152.188 5.25477 -0.275676 0
M  V30 1673 O 151.214 5.61709 -0.920401 0
M  V30 1674 N 152.416 5.7227 0.974013 0
M  V30 1675 H 155.181 2.54965 -1.57521 0
M  V30 1676 H 152.742 1.29528 -0.971287 0
M  V30 1677 H 154.734 4.01761 0.48683 0
M  V30 1678 H 153.304 3.01309 0.832555 0
M  V30 1679 H 152.524 3.61149 -1.58004 0
M  V30 1680 H 153.812 4.82905 -1.60251 0
M  V30 1681 H 153.21 5.44965 1.51755 0
M  V30 1682 H 151.767 6.37127 1.37522 0
M  V30 1683 N 155.201 0.870884 1.31352 0
M  V30 1684 C 156.133 0.28455 2.27427 0
M  V30 1685 C 157.146 -0.552927 1.53123 0
M  V30 1686 O 158.335 -0.374771 1.74521 0
M  V30 1687 C 155.435 -0.615164 3.3327 0
M  V30 1688 C 154.608 0.190079 4.36987 0
M  V30 1689 C 153.667 -0.637917 5.22319 0
M  V30 1690 O 152.693 -0.065626 5.69162 0
M  V30 1691 N 153.895 -1.94973 5.46778 0
M  V30 1692 H 156.66 1.11017 2.7838 0
M  V30 1693 H 154.221 0.732458 1.44384 0
M  V30 1694 H 156.213 -1.1748 3.87273 0
M  V30 1695 H 154.783 -1.34146 2.82354 0
M  V30 1696 H 154.003 0.931165 3.83044 0
M  V30 1697 H 155.291 0.742579 5.03352 0
M  V30 1698 H 154.689 -2.4378 5.10478 0
M  V30 1699 H 153.246 -2.45713 6.03712 0
M  V30 1700 N 156.679 -1.44442 0.630414 0
M  V30 1701 C 158.09 -1.85434 0.217063 0
M  V30 1702 C 158.441 -1.52748 -1.23136 0
M  V30 1703 O 157.566 -0.965205 -1.93682 0
M  V30 1704 C 158.161 -3.36581 0.387168 0
M  V30 1705 C 156.72 -3.76389 0.0283297 0
M  V30 1706 C 155.867 -2.68296 0.700889 0
M  V30 1707 H 158.818 -1.34919 0.83562 0
M  V30 1708 H 158.839 -3.78657 -0.374086 0
M  V30 1709 H 158.351 -3.60339 1.44144 0
M  V30 1710 H 156.452 -3.58246 -1.02423 0
M  V30 1711 H 156.565 -4.77095 0.437892 0
M  V30 1712 H 154.929 -2.54335 0.136267 0
M  V30 1713 H 155.712 -2.94887 1.75774 0
M  V30 1714 N 158.157 -0.370918 -1.53173 0
M  V30 1715 C 159.568 0.107139 -1.86392 0
M  V30 1716 C 159.919 1.47714 -1.29132 0
M  V30 1717 O 159.044 2.07464 -0.615439 0
M  V30 1718 C 159.639 0.201187 -3.38202 0
M  V30 1719 C 158.198 0.623507 -3.712 0
M  V30 1720 C 157.345 -0.225978 -2.76378 0
M  V30 1721 H 160.296 -0.58951 -1.47345 0
M  V30 1722 H 160.317 1.02377 -3.66468 0
M  V30 1723 H 159.829 -0.796058 -3.79848 0
M  V30 1724 H 157.93 1.62879 -3.35114 0
M  V30 1725 H 158.043 0.394414 -4.77474 0
M  V30 1726 H 156.407 0.305962 -2.52856 0
M  V30 1727 H 157.19 -1.22086 -3.20858 0
M  V30 1728 N 159.635 1.57281 -0.100228 0
M  V30 1729 C 160.545 2.17833 0.870965 0
M  V30 1730 C 161.561 1.14921 1.30649 0
M  V30 1731 O 162.737 1.47313 1.37335 0
M  V30 1732 C 159.802 2.75085 2.1102 0
M  V30 1733 C 158.863 3.9297 1.72838 0
M  V30 1734 C 158.096 4.47482 2.90854 0
M  V30 1735 O 158.319 4.00922 4.05731 0
M  V30 1736 O 157.253 5.38433 2.69023 0
M  V30 1737 H 161.079 3.0124 0.38575 0
M  V30 1738 H 158.664 1.48881 0.124397 0
M  V30 1739 H 160.546 3.11656 2.83634 0
M  V30 1740 H 159.221 1.94721 2.58584 0
M  V30 1741 H 158.128 3.61201 0.973883 0
M  V30 1742 H 159.461 4.74713 1.30033 0
M  V30 1743 N 161.113 -0.173488 1.56642 0
M  V30 1744 C 162.076 -1.19859 1.95362 0
M  V30 1745 C 163.076 -1.37296 0.83704 0
M  V30 1746 O 164.266 -1.34739 1.10413 0
M  V30 1747 C 161.398 -2.56405 2.24654 0
M  V30 1748 H 162.591 -0.867062 2.87092 0
M  V30 1749 H 160.144 -0.415853 1.50666 0
M  V30 1750 H 160.879 -2.94576 1.35631 0
M  V30 1751 H 160.664 -2.45115 3.06041 0
M  V30 1752 H 162.154 -3.30287 2.5554 0
M  V30 1753 N 162.591 -1.51276 -0.441967 0
M  V30 1754 C 163.523 -1.68444 -1.55433 0
M  V30 1755 C 164.536 -0.565187 -1.52674 0
M  V30 1756 O 165.725 -0.839356 -1.57534 0
M  V30 1757 C 162.825 -1.67966 -2.94348 0
M  V30 1758 C 161.998 -2.964 -3.21661 0
M  V30 1759 C 161.057 -2.88171 -4.40277 0
M  V30 1760 O 160.083 -3.62119 -4.39157 0
M  V30 1761 N 161.285 -2.03706 -5.43584 0
M  V30 1762 H 164.05 -2.644 -1.41112 0
M  V30 1763 H 161.611 -1.49104 -0.630838 0
M  V30 1764 H 163.603 -1.60035 -3.71713 0
M  V30 1765 H 162.173 -0.796225 -3.0229 0
M  V30 1766 H 161.393 -3.18234 -2.32638 0
M  V30 1767 H 162.681 -3.81427 -3.36736 0
M  V30 1768 H 162.079 -1.42995 -5.47329 0
M  V30 1769 H 160.636 -2.01658 -6.1982 0
M  V30 1770 N 164.069 0.697108 -1.41344 0
M  V30 1771 C 165.315 1.4593 -1.40827 0
M  V30 1772 C 165.648 1.94193 -0.0167098 0
M  V30 1773 O 164.923 1.69425 0.955263 0
M  V30 1774 C 165.206 2.67229 -2.41373 0
M  V30 1775 C 165.059 2.24741 -3.8963 0
M  V30 1776 C 166.378 3.69423 -2.39196 0
M  V30 1777 H 163.497 0.529303 -0.512842 0
M  V30 1778 H 166.139 0.794112 -1.72609 0
M  V30 1779 H 164.289 3.23982 -2.14401 0
M  V30 1780 H 165.961 1.73327 -4.27499 0
M  V30 1781 H 164.204 1.56542 -4.0457 0
M  V30 1782 H 164.875 3.1177 -4.55525 0
M  V30 1783 H 167.351 3.2234 -2.63128 0
M  V30 1784 H 166.227 4.51907 -3.11563 0
M  V30 1785 H 166.488 4.19012 -1.41001 0
M  V30 1786 N 165.547 1.27147 0.931209 0
M  V30 1787 C 166.958 1.12044 1.49342 0
M  V30 1788 C 167.309 -0.295795 1.93957 0
M  V30 1789 O 166.434 -1.18835 1.80852 0
M  V30 1790 C 167.029 2.02781 2.71414 0
M  V30 1791 C 165.588 1.91794 3.2387 0
M  V30 1792 C 164.735 1.95543 1.96617 0
M  V30 1793 H 167.686 1.40091 0.745672 0
M  V30 1794 H 167.707 1.58156 3.46074 0
M  V30 1795 H 167.219 3.05848 2.38911 0
M  V30 1796 H 165.32 0.916992 3.6114 0
M  V30 1797 H 165.433 2.77852 3.90302 0
M  V30 1798 H 163.797 1.39722 2.12955 0
M  V30 1799 H 164.58 3.00259 1.66432 0
M  V30 1800 N 167.025 -1.13721 1.09112 0
M  V30 1801 C 168.436 -1.6648 0.845068 0
M  V30 1802 C 168.787 -1.85911 -0.62701 0
M  V30 1803 O 167.912 -1.57556 -1.48341 0
M  V30 1804 C 168.507 -3.02413 1.52748 0
M  V30 1805 C 167.066 -3.52176 1.32849 0
M  V30 1806 C 166.213 -2.27492 1.58564 0
M  V30 1807 H 169.164 -0.976872 1.25072 0
M  V30 1808 H 169.185 -3.68223 0.958752 0
M  V30 1809 H 168.697 -2.88238 2.59885 0
M  V30 1810 H 166.798 -3.7156 0.278137 0
M  V30 1811 H 166.911 -4.32499 2.0611 0
M  V30 1812 H 165.275 -2.33923 1.00758 0
M  V30 1813 H 166.058 -2.15886 2.66924 0
M  V30 1814 N 168.503 -0.877838 -1.30888 0
M  V30 1815 C 169.435 -0.296607 -2.27273 0
M  V30 1816 C 170.448 0.544799 -1.53414 0
M  V30 1817 O 171.637 0.365511 -1.74718 0
M  V30 1818 C 168.737 0.597481 -3.33592 0
M  V30 1819 C 167.91 -0.213251 -4.3688 0
M  V30 1820 C 166.969 0.610208 -5.2265 0
M  V30 1821 O 165.995 0.035441 -5.69189 0
M  V30 1822 N 167.197 1.92071 -5.47804 0
M  V30 1823 H 169.962 -1.12492 -2.77787 0
M  V30 1824 H 167.523 -0.740105 -1.43993 0
M  V30 1825 H 169.515 1.15425 -3.87891 0
M  V30 1826 H 168.085 1.32647 -2.83061 0
M  V30 1827 H 167.305 -0.951466 -3.82545 0
M  V30 1828 H 168.593 -0.769262 -5.02951 0
M  V30 1829 H 167.991 2.4107 -5.11763 0
M  V30 1830 H 166.548 2.42508 -6.05007 0
M  V30 1831 N 169.982 1.44106 -0.638065 0
M  V30 1832 C 170.932 2.27843 0.0847285 0
M  V30 1833 C 171.916 1.39055 0.809471 0
M  V30 1834 O 173.108 1.62808 0.694435 0
M  V30 1835 C 170.237 3.26497 1.06089 0
M  V30 1836 C 169.323 4.22772 0.33541 0
M  V30 1837 N 169.714 5.01737 -0.639787 0
M  V30 1838 C 168.012 4.42227 0.578921 0
M  V30 1839 C 168.713 5.71792 -1.06904 0
M  V30 1840 N 167.689 5.42079 -0.406395 0
M  V30 1841 H 171.491 2.86305 -0.663814 0
M  V30 1842 H 169.005 1.55627 -0.464122 0
M  V30 1843 H 171.002 3.8525 1.59337 0
M  V30 1844 H 169.662 2.69595 1.80966 0
M  V30 1845 H 170.673 5.07799 -1.01789 0
M  V30 1846 H 167.35 3.96415 1.31003 0
M  V30 1847 H 168.74 6.45205 -1.8751 0
M  V30 1848 N 171.46 0.379036 1.52974 0
M  V30 1849 C 172.423 -0.448865 2.24762 0
M  V30 1850 C 173.423 -0.998689 1.26027 0
M  V30 1851 O 174.613 -0.882313 1.50203 0
M  V30 1852 C 171.745 -1.62872 2.99476 0
M  V30 1853 H 172.938 0.179491 2.99362 0
M  V30 1854 H 170.491 0.13096 1.5575 0
M  V30 1855 H 171.226 -2.29479 2.29151 0
M  V30 1856 H 171.011 -1.24128 3.71934 0
M  V30 1857 H 172.501 -2.2151 3.5401 0
M  V30 1858 N 172.938 -1.57226 0.108567 0
M  V30 1859 C 174.349 -1.8195 -0.418464 0
M  V30 1860 C 174.7 -1.02508 -1.67292 0
M  V30 1861 O 173.825 -0.258496 -2.14851 0
M  V30 1862 C 174.42 -3.30028 -0.765979 0
M  V30 1863 C 172.979 -3.55469 -1.23769 0
M  V30 1864 C 172.126 -2.7625 -0.241106 0
M  V30 1865 H 175.077 -1.55149 0.33384 0
M  V30 1866 H 175.098 -3.44086 -1.62434 0
M  V30 1867 H 174.61 -3.87821 0.147219 0
M  V30 1868 H 172.711 -3.03022 -2.16814 0
M  V30 1869 H 172.824 -4.6408 -1.19022 0
M  V30 1870 H 171.188 -2.44133 -0.72602 0
M  V30 1871 H 171.971 -3.36797 0.665007 0
M  V30 1872 N 174.416 0.165178 -1.56732 0
M  V30 1873 C 175.832 0.517174 -1.50988 0
M  V30 1874 C 176.032 1.84331 -0.813894 0
M  V30 1875 O 175.088 2.49672 -0.37682 0
M  V30 1876 C 176.401 0.544261 -2.95733 0
M  V30 1877 C 177.949 0.631039 -3.06573 0
M  V30 1878 C 178.424 0.68896 -4.52788 0
M  V30 1879 N 179.915 0.751683 -4.5706 0
M  V30 1880 C 180.65 0.817177 -5.67547 0
M  V30 1881 N 180.146 0.843129 -6.8765 0
M  V30 1882 N 181.939 0.856668 -5.55534 0
M  V30 1883 H 174.09 -0.704318 -2.00382 0
M  V30 1884 H 176.353 -0.254687 -0.913148 0
M  V30 1885 H 176.059 -0.361607 -3.49836 0
M  V30 1886 H 175.933 1.3886 -3.5071 0
M  V30 1887 H 178.32 1.52733 -2.52501 0
M  V30 1888 H 178.401 -0.240095 -2.54671 0
M  V30 1889 H 178.045 -0.2031 -5.07494 0
M  V30 1890 H 177.975 1.57633 -5.02454 0
M  V30 1891 H 180.466 0.739661 -3.70591 0
M  V30 1892 H 180.779 0.894448 -7.67606 0
M  V30 1893 H 179.124 0.811304 -6.90248 0
M  V30 1894 H 182.315 0.833437 -4.60621 0
M  V30 1895 H 182.488 0.904247 -6.4166 0
M  V30 1896 N 175.894 1.51508 0.433938 0
M  V30 1897 C 177.305 1.56784 1.01369 0
M  V30 1898 C 177.656 0.393349 1.92217 0
M  V30 1899 O 176.781 -0.489441 2.10792 0
M  V30 1900 C 177.376 2.84144 1.8452 0
M  V30 1901 C 175.935 2.9198 2.37539 0
M  V30 1902 C 175.082 2.51482 1.16843 0
M  V30 1903 H 178.033 1.57236 0.215081 0
M  V30 1904 H 178.054 2.68098 2.70007 0
M  V30 1905 H 177.566 3.69607 1.18373 0
M  V30 1906 H 175.667 2.10955 3.0713 0
M  V30 1907 H 175.78 3.95704 2.70103 0
M  V30 1908 H 174.144 2.04758 1.51481 0
M  V30 1909 H 174.927 3.39293 0.523015 0
M  V30 1910 N 177.372 -0.689602 1.41712 0
M  V30 1911 C 178.335 -1.78521 1.43746 0
M  V30 1912 C 179.335 -1.57436 0.327191 0
M  V30 1913 O 180.525 -1.64 0.587348 0
M  V30 1914 C 177.657 -3.16971 1.25467 0
M  V30 1915 H 178.85 -1.78108 2.41283 0
M  V30 1916 H 176.403 -0.89781 1.27942 0
M  V30 1917 H 177.138 -3.23019 0.287948 0
M  V30 1918 H 176.923 -3.33678 2.05917 0
M  V30 1919 H 178.413 -3.96935 1.2974 0
M  V30 1920 N 178.85 -1.27639 -0.924453 0
M  V30 1921 C 179.782 -1.06442 -2.02985 0
M  V30 1922 C 180.795 -0.0194771 -1.62788 0
M  V30 1923 O 181.984 -0.261388 -1.76576 0
M  V30 1924 C 179.084 -0.59327 -3.33667 0
M  V30 1925 C 178.257 -1.71123 -4.02537 0
M  V30 1926 C 177.316 -1.23527 -5.11495 0
M  V30 1927 O 176.342 -1.93553 -5.35281 0
M  V30 1928 N 177.544 -0.0926678 -5.80426 0
M  V30 1929 H 180.309 -2.01633 -2.2173 0
M  V30 1930 H 177.87 -1.19248 -1.09505 0
M  V30 1931 H 179.862 -0.258686 -4.03872 0
M  V30 1932 H 178.432 0.265502 -3.1147 0
M  V30 1933 H 177.652 -2.21593 -3.26022 0
M  V30 1934 H 178.94 -2.46145 -4.45298 0
M  V30 1935 H 178.338 0.491741 -5.63559 0
M  V30 1936 H 176.895 0.182714 -6.51544 0
M  V30 1937 N 180.328 1.1314 -1.09713 0
M  V30 1938 C 181.739 1.66029 -0.853885 0
M  V30 1939 C 182.09 1.86241 0.617142 0
M  V30 1940 O 181.215 1.5834 1.47503 0
M  V30 1941 C 181.81 3.01599 -1.5435 0
M  V30 1942 C 180.369 3.51467 -1.34714 0
M  V30 1943 C 179.516 2.26648 -1.59769 0
M  V30 1944 H 182.467 0.970226 -1.25588 0
M  V30 1945 H 182.488 3.67709 -0.978267 0
M  V30 1946 H 182 2.86856 -2.6141 0
M  V30 1947 H 180.101 3.71408 -0.297838 0
M  V30 1948 H 180.214 4.314 -2.08401 0
M  V30 1949 H 178.578 2.33385 -1.01998 0
M  V30 1950 H 179.361 2.14467 -2.68065 0
M  V30 1951 N 181.806 0.884767 1.30421 0
M  V30 1952 C 183.052 0.503851 1.96441 0
M  V30 1953 C 183.385 -0.944518 1.69684 0
M  V30 1954 O 182.66 -1.66737 1.00145 0
M  V30 1955 C 182.943 0.779085 3.51571 0
M  V30 1956 C 182.796 2.27807 3.87846 0
M  V30 1957 C 184.115 0.255452 4.39358 0
M  V30 1958 H 181.234 0.184533 0.713524 0
M  V30 1959 H 183.876 1.10872 1.54297 0
M  V30 1960 H 182.026 0.264274 3.876 0
M  V30 1961 H 183.698 2.86127 3.61841 0
M  V30 1962 H 181.941 2.74479 3.35922 0
M  V30 1963 H 182.612 2.42125 4.96064 0
M  V30 1964 H 185.088 0.696079 4.10236 0
M  V30 1965 H 183.964 0.477361 5.4682 0
M  V30 1966 H 184.225 -0.843293 4.33983 0
M  V30 1967 N 183.284 -1.43765 0.645699 0
M  V30 1968 C 184.216 -2.29027 -0.0890605 0
M  V30 1969 C 185.229 -1.42093 -0.794563 0
M  V30 1970 O 186.418 -1.66104 -0.653575 0
M  V30 1971 C 183.518 -3.18831 -1.14891 0
M  V30 1972 C 182.691 -4.34261 -0.523043 0
M  V30 1973 C 181.75 -5.04994 -1.47878 0
M  V30 1974 O 180.776 -5.6052 -0.990277 0
M  V30 1975 N 181.978 -5.07795 -2.81291 0
M  V30 1976 H 184.743 -2.92727 0.64272 0
M  V30 1977 H 182.304 -1.54373 0.487924 0
M  V30 1978 H 184.296 -3.63015 -1.78892 0
M  V30 1979 H 182.866 -2.56782 -1.78275 0
M  V30 1980 H 182.086 -3.93088 0.295896 0
M  V30 1981 H 183.374 -5.08728 -0.0858147 0
M  V30 1982 H 182.772 -4.64042 -3.23546 0
M  V30 1983 H 181.329 -5.55721 -3.40614 0
M  V30 1984 N 184.763 -0.387143 -1.52771 0
M  V30 1985 C 185.695 0.484089 -2.2403 0
M  V30 1986 C 186.708 1.02849 -1.26198 0
M  V30 1987 O 187.897 0.931186 -1.52286 0
M  V30 1988 C 184.997 1.68337 -2.94136 0
M  V30 1989 C 184.17 1.26672 -4.18656 0
M  V30 1990 C 183.229 2.33045 -4.7178 0
M  V30 1991 O 182.255 1.94541 -5.34923 0
M  V30 1992 N 183.457 3.64929 -4.5145 0
M  V30 1993 H 186.222 -0.126404 -2.99433 0
M  V30 1994 H 183.783 -0.213392 -1.60488 0
M  V30 1995 H 185.775 2.39019 -3.26577 0
M  V30 1996 H 184.345 2.20025 -2.22053 0
M  V30 1997 H 183.565 0.388878 -3.92277 0
M  V30 1998 H 184.853 0.964964 -4.99566 0
M  V30 1999 H 184.251 3.98974 -4.01044 0
M  V30 2000 H 182.808 4.31651 -4.88386 0
M  V30 2001 N 186.241 1.57166 -0.116904 0
M  V30 2002 C 187.652 1.82169 0.408809 0
M  V30 2003 C 188.003 1.03393 1.66746 0
M  V30 2004 O 187.128 0.269886 2.1471 0
M  V30 2005 C 187.723 3.30429 0.748466 0
M  V30 2006 C 186.282 3.5612 1.21882 0
M  V30 2007 C 185.429 2.76374 0.226452 0
M  V30 2008 H 188.38 1.5497 -0.342063 0
M  V30 2009 H 188.401 3.44943 1.60607 0
M  V30 2010 H 187.913 3.87737 -0.167784 0
M  V30 2011 H 186.014 3.04168 2.15204 0
M  V30 2012 H 186.127 4.64705 1.16559 0
M  V30 2013 H 184.491 2.44515 0.713063 0
M  V30 2014 H 185.274 3.3644 -0.682859 0
M  V30 2015 N 187.719 -0.156864 1.56817 0
M  V30 2016 C 188.682 -1.17781 1.96622 0
M  V30 2017 C 189.682 -1.36401 0.851555 0
M  V30 2018 O 190.872 -1.33561 1.11836 0
M  V30 2019 C 188.004 -2.54008 2.27361 0
M  V30 2020 H 189.197 -0.836564 2.87996 0
M  V30 2021 H 186.75 -0.39985 1.51099 0
M  V30 2022 H 187.485 -2.9312 1.38748 0
M  V30 2023 H 187.27 -2.41856 3.08623 0
M  V30 2024 H 188.76 -3.27558 2.59029 0
M  V30 2025 N 189.197 -1.51736 -0.425897 0
M  V30 2026 C 190.427 -1.68549 -1.19476 0
M  V30 2027 C 190.835 -0.387288 -1.85194 0
M  V30 2028 O 190.178 0.645142 -1.71999 0
M  V30 2029 C 190.24 -2.75275 -2.31223 0
M  V30 2030 C 189.904 -4.17534 -1.8578 0
M  V30 2031 C 190.901 -5.01936 -1.35485 0
M  V30 2032 C 188.586 -4.6369 -1.93123 0
M  V30 2033 C 190.58 -6.30559 -0.931347 0
M  V30 2034 C 188.267 -5.92307 -1.50384 0
M  V30 2035 C 189.265 -6.75569 -1.00473 0
M  V30 2036 O 188.953 -8.0178 -0.583452 0
M  V30 2037 H 188.685 -0.568525 -0.365725 0
M  V30 2038 H 191.239 -1.98982 -0.509444 0
M  V30 2039 H 189.469 -2.40182 -3.03067 0
M  V30 2040 H 191.158 -2.80853 -2.93047 0
M  V30 2041 H 191.924 -4.67475 -1.29197 0
M  V30 2042 H 187.803 -3.98997 -2.30916 0
M  V30 2043 H 191.347 -6.95498 -0.541084 0
M  V30 2044 H 187.244 -6.2628 -1.56346 0
M  V30 2045 H 188.012 -8.1543 -0.708275 0
M  V30 2046 N 190.675 0.682077 -1.42076 0
M  V30 2047 C 191.607 1.80755 -1.40926 0
M  V30 2048 C 192.62 1.59833 -0.309398 0
M  V30 2049 O 193.809 1.69087 -0.572014 0
M  V30 2050 C 190.909 3.17744 -1.17865 0
M  V30 2051 C 190.082 3.65578 -2.40149 0
M  V30 2052 C 189.141 4.81277 -2.12742 0
M  V30 2053 O 188.167 4.92197 -2.85887 0
M  V30 2054 N 189.369 5.69474 -1.12602 0
M  V30 2055 H 192.134 1.82229 -2.37935 0
M  V30 2056 H 189.695 0.864903 -1.36861 0
M  V30 2057 H 191.687 3.9279 -0.9746 0
M  V30 2058 H 190.257 3.11214 -0.294068 0
M  V30 2059 H 189.477 2.81291 -2.76169 0
M  V30 2060 H 190.765 3.94278 -3.21593 0
M  V30 2061 H 190.163 5.63297 -0.520899 0
M  V30 2062 H 188.72 6.44363 -0.981842 0
M  V30 2063 N 192.153 1.28127 0.917671 0
M  V30 2064 C 193.564 1.13622 1.48145 0
M  V30 2065 C 193.915 -0.275207 1.9426 0
M  V30 2066 O 193.04 -1.1691 1.82102 0
M  V30 2067 C 193.635 2.05648 2.69248 0
M  V30 2068 C 192.194 1.95219 3.21818 0
M  V30 2069 C 191.341 1.97618 1.94532 0
M  V30 2070 H 194.292 1.40874 0.730772 0
M  V30 2071 H 194.313 1.61818 3.44377 0
M  V30 2072 H 193.825 3.08365 2.35653 0
M  V30 2073 H 191.926 0.955244 3.60147 0
M  V30 2074 H 192.039 2.81976 3.87333 0
M  V30 2075 H 190.403 1.41973 2.11461 0
M  V30 2076 H 191.186 3.02007 1.63238 0
M  V30 2077 N 193.631 -1.12557 1.10312 0
M  V30 2078 C 194.563 -2.17971 0.708625 0
M  V30 2079 C 195.576 -1.60806 -0.254027 0
M  V30 2080 O 196.765 -1.78458 -0.0386891 0
M  V30 2081 C 193.865 -3.38891 0.0248198 0
M  V30 2082 C 193.038 -4.25548 1.01132 0
M  V30 2083 C 192.097 -5.24972 0.35924 0
M  V30 2084 O 191.123 -5.60174 1.00965 0
M  V30 2085 N 192.325 -5.73747 -0.882847 0
M  V30 2086 H 195.09 -2.52427 1.61557 0
M  V30 2087 H 192.651 -1.27967 0.991771 0
M  V30 2088 H 194.643 -4.02485 -0.422852 0
M  V30 2089 H 193.213 -3.02596 -0.784514 0
M  V30 2090 H 192.433 -3.58589 1.6373 0
M  V30 2091 H 193.721 -4.80294 1.67914 0
M  V30 2092 H 193.119 -5.4731 -1.43065 0
M  V30 2093 H 191.676 -6.39234 -1.27369 0
M  V30 2094 N 195.109 -0.891671 -1.2995 0
M  V30 2095 C 196.52 -0.563104 -1.78006 0
M  V30 2096 C 196.871 0.920978 -1.73241 0
M  V30 2097 O 195.996 1.71987 -1.31337 0
M  V30 2098 C 196.591 -1.01539 -3.23226 0
M  V30 2099 C 195.15 -0.738124 -3.69092 0
M  V30 2100 C 194.297 -1.19461 -2.50249 0
M  V30 2101 H 197.248 -1.07522 -1.16725 0
M  V30 2102 H 197.269 -0.347217 -3.78912 0
M  V30 2103 H 196.781 -2.09555 -3.26662 0
M  V30 2104 H 194.882 0.329766 -3.71138 0
M  V30 2105 H 194.995 -1.33037 -4.60259 0
M  V30 2106 H 193.359 -0.613787 -2.47194 0
M  V30 2107 H 194.142 -2.28265 -2.56417 0
M  V30 2108 N 196.587 1.43421 -0.653314 0
M  V30 2109 C 197.497 2.34568 0.0388565 0
M  V30 2110 C 198.513 1.53888 0.81207 0
M  V30 2111 O 199.689 1.86539 0.759294 0
M  V30 2112 C 196.754 3.32167 0.993269 0
M  V30 2113 C 195.815 4.28751 0.216977 0
M  V30 2114 C 195.048 5.21688 1.12593 0
M  V30 2115 O 195.271 5.19052 2.36519 0
M  V30 2116 O 194.205 5.98919 0.598284 0
M  V30 2117 H 198.031 2.95251 -0.711386 0
M  V30 2118 H 195.616 1.43564 -0.413502 0
M  V30 2119 H 197.498 3.92183 1.54176 0
M  V30 2120 H 196.173 2.73987 1.72374 0
M  V30 2121 H 195.08 3.72215 -0.375101 0
M  V30 2122 H 196.413 4.89913 -0.473924 0
M  V30 2123 N 198.065 0.39524 1.52563 0
M  V30 2124 C 198.997 -0.472201 2.24283 0
M  V30 2125 C 200.01 -1.02178 1.26742 0
M  V30 2126 O 201.199 -0.923097 1.52778 0
M  V30 2127 C 198.299 -1.66775 2.95024 0
M  V30 2128 C 197.472 -1.2445 4.19322 0
M  V30 2129 C 196.531 -2.30539 4.7301 0
M  V30 2130 O 195.557 -1.91702 5.35947 0
M  V30 2131 N 196.759 -3.6253 4.53379 0
M  V30 2132 H 199.524 0.142282 2.99362 0
M  V30 2133 H 197.085 0.2219 1.60372 0
M  V30 2134 H 199.077 -2.37283 3.27839 0
M  V30 2135 H 197.647 -2.18845 2.23217 0
M  V30 2136 H 196.867 -0.368069 3.92478 0
M  V30 2137 H 198.155 -0.938457 5.0007 0
M  V30 2138 H 197.553 -3.96841 4.03154 0
M  V30 2139 H 196.11 -4.29055 4.90668 0
M  V30 2140 N 199.544 -1.57102 0.125237 0
M  V30 2141 C 200.955 -1.82384 -0.399142 0
M  V30 2142 C 201.306 -1.04276 -1.66195 0
M  V30 2143 O 200.431 -0.281269 -2.14564 0
M  V30 2144 C 201.026 -3.30821 -0.730932 0
M  V30 2145 C 199.585 -3.56762 -1.19992 0
M  V30 2146 C 198.732 -2.7649 -0.211792 0
M  V30 2147 H 201.683 -1.54786 0.350277 0
M  V30 2148 H 201.704 -3.4579 -1.58775 0
M  V30 2149 H 201.216 -3.87643 0.188345 0
M  V30 2150 H 199.317 -3.05305 -2.13588 0
M  V30 2151 H 199.43 -4.65317 -1.14093 0
M  V30 2152 H 197.794 -2.4489 -0.700085 0
M  V30 2153 H 198.577 -3.36073 0.700691 0
M  V30 2154 N 201.022 0.148545 -1.56898 0
M  V30 2155 C 201.952 1.18524 -2.01182 0
M  V30 2156 C 202.933 1.4489 -0.891123 0
M  V30 2157 O 204.118 1.55836 -1.15882 0
M  V30 2158 C 201.248 2.51879 -2.39112 0
M  V30 2159 C 200.202 2.40038 -3.54353 0
M  V30 2160 C 199.528 3.78089 -3.78091 0
M  V30 2161 C 200.828 1.88577 -4.87069 0
M  V30 2162 H 202.522 0.817029 -2.88036 0
M  V30 2163 H 200.068 0.391575 -1.38574 0
M  V30 2164 H 202.021 3.24627 -2.68692 0
M  V30 2165 H 200.745 2.90532 -1.49193 0
M  V30 2166 H 199.404 1.69742 -3.24936 0
M  V30 2167 H 199.052 4.14175 -2.85426 0
M  V30 2168 H 198.752 3.71028 -4.55645 0
M  V30 2169 H 200.276 4.52387 -4.10095 0
M  V30 2170 H 201.69 2.51117 -5.15377 0
M  V30 2171 H 200.087 1.9241 -5.68417 0
M  V30 2172 H 201.157 0.84136 -4.77545 0
M  V30 2173 N 202.5 1.5196 0.417844 0
M  V30 2174 C 203.432 1.70895 1.52733 0
M  V30 2175 C 204.445 0.589405 1.51756 0
M  V30 2176 O 205.634 0.864312 1.56179 0
M  V30 2177 C 202.734 1.72627 2.91639 0
M  V30 2178 C 201.907 3.01479 3.16905 0
M  V30 2179 C 200.966 2.95139 4.35637 0
M  V30 2180 O 199.992 3.69059 4.3334 0
M  V30 2181 N 201.194 2.12328 5.40275 0
M  V30 2182 H 203.959 2.66612 1.36888 0
M  V30 2183 H 201.52 1.50089 0.607037 0
M  V30 2184 H 203.512 1.65928 3.6912 0
M  V30 2185 H 202.082 0.844216 3.00985 0
M  V30 2186 H 201.302 3.21895 2.27546 0
M  V30 2187 H 202.59 3.86736 3.30625 0
M  V30 2188 H 201.988 1.51685 5.44985 0
M  V30 2189 H 200.545 2.11494 6.16534 0
M  V30 2190 N 203.978 -0.674533 1.42435 0
M  V30 2191 C 204.91 -1.80005 1.41883 0
M  V30 2192 C 205.923 -1.59667 0.31787 0
M  V30 2193 O 207.112 -1.68781 0.580973 0
M  V30 2194 C 204.212 -3.17114 1.19549 0
M  V30 2195 C 203.385 -3.64299 2.42084 0
M  V30 2196 C 202.444 -4.80142 2.15291 0
M  V30 2197 O 201.47 -4.90673 2.88493 0
M  V30 2198 N 202.672 -5.68869 1.1562 0
M  V30 2199 H 205.437 -1.80964 2.38898 0
M  V30 2200 H 202.998 -0.857633 1.37318 0
M  V30 2201 H 204.99 -3.92267 0.995417 0
M  V30 2202 H 203.56 -3.11053 0.310569 0
M  V30 2203 H 202.78 -2.79822 2.77657 0
M  V30 2204 H 204.068 -3.92567 3.23679 0
M  V30 2205 H 203.466 -5.63012 0.550765 0
M  V30 2206 H 202.023 -6.43833 1.016 0
M  V30 2207 N 205.456 -1.28612 -0.910864 0
M  V30 2208 C 206.867 -1.14406 -1.47541 0
M  V30 2209 C 207.218 0.264901 -1.94403 0
M  V30 2210 O 206.343 1.15942 -1.82719 0
M  V30 2211 C 206.938 -2.07073 -2.68153 0
M  V30 2212 C 205.497 -1.96923 -3.20778 0
M  V30 2213 C 204.644 -1.98646 -1.93481 0
M  V30 2214 H 207.595 -1.41259 -0.723291 0
M  V30 2215 H 207.616 -1.63642 -3.43514 0
M  V30 2216 H 207.128 -3.09611 -2.34015 0
M  V30 2217 H 205.229 -0.97433 -3.59635 0
M  V30 2218 H 205.342 -2.84026 -3.85832 0
M  V30 2219 H 203.706 -1.43093 -2.10705 0
M  V30 2220 H 204.489 -3.02868 -1.61634 0
M  V30 2221 N 206.934 1.1197 -1.10907 0
M  V30 2222 C 208.18 1.8386 -0.855773 0
M  V30 2223 C 208.513 1.84134 0.617103 0
M  V30 2224 O 207.788 1.29041 1.45529 0
M  V30 2225 C 208.071 3.31305 -1.411 0
M  V30 2226 C 207.924 3.39456 -2.9511 0
M  V30 2227 C 209.243 4.2721 -1.05736 0
M  V30 2228 H 206.362 0.667545 -0.312334 0
M  V30 2229 H 209.004 1.31331 -1.37303 0
M  V30 2230 H 207.154 3.76169 -0.97105 0
M  V30 2231 H 208.826 3.03191 -3.47668 0
M  V30 2232 H 207.069 2.79849 -3.31462 0
M  V30 2233 H 207.74 4.43209 -3.29044 0
M  V30 2234 H 210.216 3.90497 -1.43706 0
M  V30 2235 H 209.092 5.28775 -1.47269 0
M  V30 2236 H 209.353 4.42088 0.0325958 0
M  V30 2237 N 208.412 0.89855 1.29475 0
M  V30 2238 C 209.637 0.538561 2.00285 0
M  V30 2239 C 210.062 -0.869135 1.66816 0
M  V30 2240 O 209.42 -1.57831 0.892145 0
M  V30 2241 C 209.468 0.736475 3.52999 0
M  V30 2242 O 208.572 -0.211537 4.11857 0
M  V30 2243 H 207.913 0.210563 0.62973 0
M  V30 2244 H 210.443 1.20982 1.64998 0
M  V30 2245 H 210.453 0.640685 4.02938 0
M  V30 2246 H 209.128 1.76276 3.76696 0
M  V30 2247 H 207.705 -0.0682991 3.72837 0
M  V30 2248 N 209.89 -1.43072 0.660911 0
M  V30 2249 C 211.301 -1.84932 0.256348 0
M  V30 2250 C 211.652 -1.55325 -1.19868 0
M  V30 2251 O 210.777 -1.00607 -1.91591 0
M  V30 2252 C 211.372 -3.35684 0.458475 0
M  V30 2253 C 209.931 -3.76245 0.108161 0
M  V30 2254 C 209.078 -2.66749 0.757641 0
M  V30 2255 H 212.029 -1.33116 0.864051 0
M  V30 2256 H 212.05 -3.79365 -0.293683 0
M  V30 2257 H 211.562 -3.572 1.51755 0
M  V30 2258 H 209.663 -3.60338 -0.948014 0
M  V30 2259 H 209.776 -4.76058 0.538992 0
M  V30 2260 H 208.14 -2.53989 0.190185 0
M  V30 2261 H 208.923 -2.91092 1.81989 0
M  V30 2262 N 211.368 -0.403325 -1.52352 0
M  V30 2263 C 212.3 0.4603 -2.2453 0
M  V30 2264 C 213.313 1.01505 -1.27282 0
M  V30 2265 O 214.502 0.914982 -1.53266 0
M  V30 2266 C 211.602 1.65208 -2.95905 0
M  V30 2267 C 210.775 1.22224 -4.19976 0
M  V30 2268 C 209.834 2.28028 -4.74226 0
M  V30 2269 O 208.86 1.88857 -5.36956 0
M  V30 2270 N 210.062 3.6012 -4.55295 0
M  V30 2271 H 212.827 -0.158156 -2.99282 0
M  V30 2272 H 210.388 -0.230402 -1.60252 0
M  V30 2273 H 212.38 2.35541 -3.29093 0
M  V30 2274 H 210.95 2.17658 -2.24374 0
M  V30 2275 H 210.17 0.34725 -3.92668 0
M  V30 2276 H 211.458 0.911924 -5.00561 0
M  V30 2277 H 210.856 3.94698 -4.05253 0
M  V30 2278 H 209.413 4.26447 -4.92936 0
M  V30 2279 N 212.846 1.57033 -0.133567 0
M  V30 2280 C 214.092 1.95976 0.521649 0
M  V30 2281 C 214.425 1.01779 1.65393 0
M  V30 2282 O 213.7 0.0576581 1.94415 0
M  V30 2283 C 213.983 3.44738 1.04057 0
M  V30 2284 C 213.836 4.49711 -0.0892897 0
M  V30 2285 C 215.155 3.95682 1.92675 0
M  V30 2286 H 212.274 0.712579 0.188149 0
M  V30 2287 H 214.916 1.88813 -0.212076 0
M  V30 2288 H 213.066 3.50973 1.66583 0
M  V30 2289 H 214.738 4.55565 -0.725152 0
M  V30 2290 H 212.981 4.27261 -0.750378 0
M  V30 2291 H 213.652 5.51099 0.315284 0
M  V30 2292 H 216.128 3.91841 1.39998 0
M  V30 2293 H 215.004 5.00262 2.25897 0
M  V30 2294 H 215.265 3.37239 2.85872 0
M  V30 2295 N 214.325 -0.140222 1.56975 0
M  V30 2296 C 215.288 -1.15689 1.97861 0
M  V30 2297 C 216.288 -1.3549 0.865974 0
M  V30 2298 O 217.478 -1.32367 1.13246 0
M  V30 2299 C 214.61 -2.51582 2.30042 0
M  V30 2300 H 215.803 -0.805971 2.88867 0
M  V30 2301 H 213.356 -0.383801 1.51515 0
M  V30 2302 H 214.091 -2.91632 1.41849 0
M  V30 2303 H 213.876 -2.38569 3.11171 0
M  V30 2304 H 215.366 -3.24792 2.62488 0
M  V30 2305 N 215.803 -1.52179 -0.40978 0
M  V30 2306 C 217.214 -1.58377 -0.988615 0
M  V30 2307 C 217.565 -0.423879 -1.91566 0
M  V30 2308 O 216.69 0.455844 -2.11544 0
M  V30 2309 C 217.285 -2.87044 -1.79976 0
M  V30 2310 C 215.844 -2.95722 -2.32863 0
M  V30 2311 C 214.991 -2.53309 -1.12828 0
M  V30 2312 H 217.942 -1.57558 -0.190039 0
M  V30 2313 H 217.963 -2.7236 -2.65707 0
M  V30 2314 H 217.475 -3.71444 -1.12478 0
M  V30 2315 H 215.576 -2.15814 -3.03735 0
M  V30 2316 H 215.689 -3.99951 -2.63773 0
M  V30 2317 H 214.053 -2.07142 -1.48204 0
M  V30 2318 H 214.836 -3.40082 -0.46897 0
M  V30 2319 N 217.281 0.66697 -1.42791 0
M  V30 2320 C 218.244 1.76211 -1.46568 0
M  V30 2321 C 219.244 1.56896 -0.352196 0
M  V30 2322 O 220.434 1.63044 -0.613364 0
M  V30 2323 C 217.566 3.14935 -1.30494 0
M  V30 2324 H 218.759 1.74247 -2.44086 0
M  V30 2325 H 216.312 0.877342 -1.29354 0
M  V30 2326 H 217.047 3.2252 -0.339301 0
M  V30 2327 H 216.832 3.30359 -2.11199 0
M  V30 2328 H 218.322 3.94821 -1.36038 0
M  V30 2329 N 218.759 1.29093 0.90403 0
M  V30 2330 C 220.17 1.15186 1.46932 0
M  V30 2331 C 220.521 -0.254587 1.94541 0
M  V30 2332 O 219.646 -1.14972 1.83332 0
M  V30 2333 C 220.241 2.08492 2.67051 0
M  V30 2334 C 218.8 1.98621 3.19729 0
M  V30 2335 C 217.947 1.9967 1.92425 0
M  V30 2336 H 220.898 1.41641 0.715789 0
M  V30 2337 H 220.919 1.65461 3.42641 0
M  V30 2338 H 220.431 3.10847 2.3237 0
M  V30 2339 H 218.532 0.993389 3.59114 0
M  V30 2340 H 218.645 2.86068 3.8432 0
M  V30 2341 H 217.009 1.44208 2.09943 0
M  V30 2342 H 217.792 3.03721 1.60026 0
M  V30 2343 N 220.237 -1.11381 1.11499 0
M  V30 2344 C 221.169 -2.17207 0.731704 0
M  V30 2345 C 222.182 -1.61066 -0.236957 0
M  V30 2346 O 223.371 -1.78489 -0.0197591 0
M  V30 2347 C 220.471 -3.38846 0.0607624 0
M  V30 2348 C 219.644 -4.24451 1.0564 0
M  V30 2349 C 218.703 -5.24562 0.4149 0
M  V30 2350 O 217.729 -5.59071 1.069 0
M  V30 2351 N 218.931 -5.74651 -0.821943 0
M  V30 2352 H 221.696 -2.50699 1.64225 0
M  V30 2353 H 219.257 -1.26908 1.00529 0
M  V30 2354 H 221.249 -4.02911 -0.380139 0
M  V30 2355 H 219.819 -3.03411 -0.752376 0
M  V30 2356 H 219.039 -3.56833 1.67524 0
M  V30 2357 H 220.327 -4.78486 1.72998 0
M  V30 2358 H 219.725 -5.48797 -1.37252 0
M  V30 2359 H 218.282 -6.40549 -1.20582 0
M  V30 2360 N 221.715 -0.905404 -1.28997 0
M  V30 2361 C 223.126 -0.581953 -1.77398 0
M  V30 2362 C 223.477 0.902552 -1.74208 0
M  V30 2363 O 222.602 1.70584 -1.33154 0
M  V30 2364 C 223.197 -1.04961 -3.22131 0
M  V30 2365 C 221.756 -0.777229 -3.68288 0
M  V30 2366 C 220.903 -1.22109 -2.48967 0
M  V30 2367 H 223.854 -1.08754 -1.15578 0
M  V30 2368 H 223.875 -0.387387 -3.78523 0
M  V30 2369 H 223.387 -2.13008 -3.24421 0
M  V30 2370 H 221.488 0.290383 -3.71467 0
M  V30 2371 H 221.601 -1.37911 -4.58822 0
M  V30 2372 H 219.965 -0.639971 -2.46529 0
M  V30 2373 H 220.748 -2.30972 -2.53982 0
M  V30 2374 N 223.193 1.4272 -0.668489 0
M  V30 2375 C 224.439 2.01923 -0.188419 0
M  V30 2376 C 224.772 1.52704 1.19979 0
M  V30 2377 O 224.047 0.726566 1.8042 0
M  V30 2378 C 224.33 3.59451 -0.216085 0
M  V30 2379 C 224.183 4.18864 -1.6393 0
M  V30 2380 C 225.502 4.37903 0.439179 0
M  V30 2381 H 222.621 0.733674 -0.0699412 0
M  V30 2382 H 225.263 1.69822 -0.852076 0
M  V30 2383 H 223.413 3.86929 0.349012 0
M  V30 2384 H 225.085 4.02362 -2.25616 0
M  V30 2385 H 223.328 3.74933 -2.18193 0
M  V30 2386 H 223.999 5.27987 -1.61039 0
M  V30 2387 H 226.475 4.16079 -0.0417878 0
M  V30 2388 H 225.351 5.47519 0.389157 0
M  V30 2389 H 225.612 4.15303 1.51577 0
M  V30 2390 N 224.671 0.411399 1.52136 0
M  V30 2391 C 225.621 -0.430376 2.23901 0
M  V30 2392 C 226.605 -1.0116 1.25121 0
M  V30 2393 O 227.797 -0.934044 1.50348 0
M  V30 2394 C 224.926 -1.54527 3.06556 0
M  V30 2395 C 224.012 -0.9747 4.12747 0
M  V30 2396 N 224.403 -0.130991 5.0563 0
M  V30 2397 C 222.701 -1.24497 4.28271 0
M  V30 2398 C 223.402 0.186689 5.814 0
M  V30 2399 N 222.378 -0.42304 5.41951 0
M  V30 2400 H 226.18 0.220509 2.93072 0
M  V30 2401 H 223.694 0.221952 1.60876 0
M  V30 2402 H 225.691 -2.16093 3.56524 0
M  V30 2403 H 224.351 -2.19875 2.38925 0
M  V30 2404 H 225.362 0.23349 5.17373 0
M  V30 2405 H 222.039 -1.89787 3.7187 0
M  V30 2406 H 223.429 0.871673 6.66222 0
M  V30 2407 N 226.149 -1.5696 0.141893 0
M  V30 2408 C 227.374 -2.00754 -0.520838 0
M  V30 2409 C 227.799 -1.0213 -1.57959 0
M  V30 2410 O 227.157 0.00371324 -1.813 0
M  V30 2411 C 227.205 -3.43318 -1.10294 0
M  V30 2412 O 226.309 -3.47679 -2.21795 0
M  V30 2413 H 225.65 -0.651564 -0.127908 0
M  V30 2414 H 228.18 -2.03221 0.23712 0
M  V30 2415 H 228.19 -3.82012 -1.43287 0
M  V30 2416 H 226.865 -4.14608 -0.327574 0
M  V30 2417 H 225.442 -3.20824 -1.9007 0
M  V30 2418 N 227.627 0.131896 -1.57047 0
M  V30 2419 C 228.59 1.14638 -1.98471 0
M  V30 2420 C 229.59 1.35029 -0.873148 0
M  V30 2421 O 230.78 1.31764 -1.13946 0
M  V30 2422 C 227.912 2.50358 -2.31373 0
M  V30 2423 H 229.105 0.79064 -2.8929 0
M  V30 2424 H 226.658 0.375761 -1.51716 0
M  V30 2425 H 227.393 2.90876 -1.43393 0
M  V30 2426 H 227.178 2.36915 -3.12432 0
M  V30 2427 H 228.668 3.23395 -2.64207 0
M  V30 2428 N 229.106 1.52395 0.401703 0
M  V30 2429 C 230.517 1.58899 0.980202 0
M  V30 2430 C 230.868 0.434032 1.91339 0
M  V30 2431 O 229.993 -0.444619 2.11783 0
M  V30 2432 C 230.588 2.87994 1.78451 0
M  V30 2433 C 229.147 2.96953 2.31292 0
M  V30 2434 C 228.294 2.53903 1.11483 0
M  V30 2435 H 231.245 1.57657 0.18168 0
M  V30 2436 H 231.266 2.73765 2.64259 0
M  V30 2437 H 230.778 3.72035 1.10506 0
M  V30 2438 H 228.879 2.17422 3.02586 0
M  V30 2439 H 228.992 4.01344 2.61649 0
M  V30 2440 H 227.356 2.07925 1.47104 0
M  V30 2441 H 228.139 3.40326 0.450928 0
M  V30 2442 N 230.584 -0.659388 1.43143 0
M  V30 2443 C 231.516 -1.7849 1.43784 0
M  V30 2444 C 232.529 -1.5932 0.334787 0
M  V30 2445 O 233.718 -1.68155 0.598842 0
M  V30 2446 C 230.818 -3.15828 1.22906 0
M  V30 2447 C 229.991 -3.61711 2.45934 0
M  V30 2448 C 229.05 -4.77831 2.20371 0
M  V30 2449 O 228.076 -4.87586 2.93681 0
M  V30 2450 N 229.278 -5.67611 1.21647 0
M  V30 2451 H 232.043 -1.7842 2.40803 0
M  V30 2452 H 229.604 -0.84302 1.3822 0
M  V30 2453 H 231.596 -3.91189 1.03697 0
M  V30 2454 H 230.166 -3.10707 0.343542 0
M  V30 2455 H 229.386 -2.76861 2.80609 0
M  V30 2456 H 230.674 -3.89112 3.27825 0
M  V30 2457 H 230.072 -5.62397 0.610449 0
M  V30 2458 H 228.629 -6.42719 1.08423 0
M  V30 2459 N 232.062 -1.29571 -0.897171 0
M  V30 2460 C 233.473 -1.15964 -1.46319 0
M  V30 2461 C 233.824 0.244267 -1.94674 0
M  V30 2462 O 232.949 1.13998 -1.83939 0
M  V30 2463 C 233.544 -2.09906 -2.65942 0
M  V30 2464 C 232.103 -2.00314 -3.18671 0
M  V30 2465 C 231.25 -2.00687 -1.91363 0
M  V30 2466 H 234.201 -1.42019 -0.708268 0
M  V30 2467 H 234.222 -1.67276 -3.41759 0
M  V30 2468 H 233.734 -3.12075 -2.30718 0
M  V30 2469 H 231.835 -1.01242 -3.58582 0
M  V30 2470 H 231.948 -2.88102 -3.82798 0
M  V30 2471 H 230.312 -1.45319 -2.09175 0
M  V30 2472 H 231.095 -3.04566 -1.58413 0
M  V30 2473 N 233.54 1.10788 -1.12088 0
M  V30 2474 C 234.503 2.15207 -0.788577 0
M  V30 2475 C 235.503 1.59609 0.195317 0
M  V30 2476 O 236.693 1.74174 -0.0300193 0
M  V30 2477 C 233.825 3.4047 -0.171174 0
M  V30 2478 H 235.018 2.46116 -1.71368 0
M  V30 2479 H 232.571 1.26089 -0.923652 0
M  V30 2480 H 233.306 3.15176 0.763832 0
M  V30 2481 H 233.091 3.82109 -0.879514 0
M  V30 2482 H 234.581 4.17576 0.04496 0
M  V30 2483 N 235.018 0.912232 1.28515 0
M  V30 2484 C 235.95 0.35676 2.26406 0
M  V30 2485 C 236.963 -0.503933 1.54804 0
M  V30 2486 O 238.152 -0.319059 1.75625 0
M  V30 2487 C 235.252 -0.508825 3.35058 0
M  V30 2488 C 234.425 0.329007 4.36161 0
M  V30 2489 C 233.484 -0.471422 5.24084 0
M  V30 2490 O 232.51 0.115482 5.69083 0
M  V30 2491 N 233.712 -1.77479 5.52704 0
M  V30 2492 H 236.477 1.19818 2.74707 0
M  V30 2493 H 234.038 0.778022 1.4198 0
M  V30 2494 H 236.03 -1.051 3.90815 0
M  V30 2495 H 234.6 -1.25095 2.86478 0
M  V30 2496 H 233.82 1.05256 3.79888 0
M  V30 2497 H 235.108 0.90234 5.00735 0
M  V30 2498 H 234.506 -2.27417 5.17975 0
M  V30 2499 H 233.063 -2.26382 6.11224 0
M  V30 2500 N 236.496 -1.42363 0.676048 0
M  V30 2501 C 237.428 -2.29164 -0.0404605 0
M  V30 2502 C 238.441 -1.43747 -0.764245 0
M  V30 2503 O 239.63 -1.67453 -0.618195 0
M  V30 2504 C 236.73 -3.21196 -1.08103 0
M  V30 2505 C 235.903 -4.35273 -0.430812 0
M  V30 2506 C 234.962 -5.08017 -1.37133 0
M  V30 2507 O 233.988 -5.62494 -0.87116 0
M  V30 2508 N 235.19 -5.13647 -2.70456 0
M  V30 2509 H 237.955 -2.91298 0.704667 0
M  V30 2510 H 235.516 -1.53303 0.520559 0
M  V30 2511 H 237.508 -3.66728 -1.71152 0
M  V30 2512 H 236.078 -2.60505 -1.72788 0
M  V30 2513 H 235.298 -3.92372 0.379209 0
M  V30 2514 H 236.586 -5.08795 0.0221132 0
M  V30 2515 H 235.984 -4.708 -3.1363 0
M  V30 2516 H 234.541 -5.62821 -3.28749 0
M  V30 2517 N 237.974 -0.419461 -1.51915 0
M  V30 2518 C 238.937 0.389116 -2.25873 0
M  V30 2519 C 239.937 0.964924 -1.28631 0
M  V30 2520 O 241.127 0.842179 -1.52489 0
M  V30 2521 C 238.259 1.54874 -3.03689 0
M  V30 2522 H 239.452 -0.258799 -2.98781 0
M  V30 2523 H 237.005 -0.172209 -1.55348 0
M  V30 2524 H 237.74 2.23323 -2.35154 0
M  V30 2525 H 237.525 1.14223 -3.75094 0
M  V30 2526 H 239.015 2.12046 -3.59759 0
M  V30 2527 N 239.452 1.56882 -0.150215 0
M  V30 2528 C 240.699 1.96228 0.500093 0
M  V30 2529 C 241.027 1.03522 1.64661 0
M  V30 2530 O 240.282 0.0650683 1.95592 0
M  V30 2531 C 240.581 3.41801 1.04437 0
M  V30 2532 C 240.247 4.50897 0.0159671 0
M  V30 2533 C 238.909 4.8046 -0.266731 0
M  V30 2534 C 241.261 5.16703 -0.683192 0
M  V30 2535 C 238.589 5.73135 -1.25434 0
M  V30 2536 C 240.941 6.10441 -1.65964 0
M  V30 2537 C 239.605 6.38382 -1.95 0
M  V30 2538 H 238.875 0.718048 0.182997 0
M  V30 2539 H 241.522 1.90019 -0.237724 0
M  V30 2540 H 239.827 3.44857 1.85959 0
M  V30 2541 H 241.524 3.69573 1.55618 0
M  V30 2542 H 238.114 4.27891 0.246485 0
M  V30 2543 H 242.298 4.93993 -0.477983 0
M  V30 2544 H 237.554 5.93074 -1.48571 0
M  V30 2545 H 241.728 6.60507 -2.20689 0
M  V30 2546 H 239.355 7.09996 -2.71679 0
M  V30 2547 N 240.93 -0.123565 1.57115 0
M  V30 2548 C 241.862 -1.17739 1.96648 0
M  V30 2549 C 242.875 -1.37906 0.865201 0
M  V30 2550 O 244.064 -1.37062 1.14351 0
M  V30 2551 C 241.164 -2.53821 2.24562 0
M  V30 2552 C 240.337 -2.54317 3.55867 0
M  V30 2553 C 239.396 -3.72112 3.72047 0
M  V30 2554 O 238.422 -3.55907 4.44206 0
M  V30 2555 N 239.624 -4.90498 3.10471 0
M  V30 2556 H 242.389 -0.841147 2.87654 0
M  V30 2557 H 239.95 -0.31289 1.58848 0
M  V30 2558 H 241.942 -3.31175 2.32606 0
M  V30 2559 H 240.512 -2.79645 1.39705 0
M  V30 2560 H 239.732 -1.62711 3.59053 0
M  V30 2561 H 241.02 -2.51701 4.42181 0
M  V30 2562 H 240.418 -5.06567 2.51806 0
M  V30 2563 H 238.975 -5.65544 3.24043 0
M  V30 2564 N 242.408 -1.52605 -0.393616 0
M  V30 2565 C 243.819 -1.59417 -0.971761 0
M  V30 2566 C 244.17 -0.444173 -1.91106 0
M  V30 2567 O 243.295 0.433382 -2.12016 0
M  V30 2568 C 243.89 -2.88936 -1.76921 0
M  V30 2569 C 242.449 -2.98175 -2.29714 0
M  V30 2570 C 241.596 -2.54491 -1.10135 0
M  V30 2571 H 244.547 -1.57751 -0.173317 0
M  V30 2572 H 244.568 -2.75163 -2.62804 0
M  V30 2573 H 244.08 -3.72616 -1.08532 0
M  V30 2574 H 242.181 -2.19024 -3.01429 0
M  V30 2575 H 242.294 -4.02726 -2.59517 0
M  V30 2576 H 240.658 -2.08702 -1.45999 0
M  V30 2577 H 241.441 -3.4056 -0.432874 0
M  V30 2578 N 243.887 0.651787 -1.4349 0
M  V30 2579 C 244.85 1.74647 -1.48429 0
M  V30 2580 C 245.85 1.56513 -0.368817 0
M  V30 2581 O 247.04 1.62385 -0.630623 0
M  V30 2582 C 244.172 3.13533 -1.33827 0
M  V30 2583 H 245.365 1.71649 -2.4592 0
M  V30 2584 H 242.918 0.863573 -1.30277 0
M  V30 2585 H 243.653 3.22142 -0.37349 0
M  V30 2586 H 243.438 3.28101 -2.14691 0
M  V30 2587 H 244.928 3.93356 -1.40218 0
M  V30 2588 N 245.365 1.30045 0.890287 0
M  V30 2589 C 246.275 1.17885 2.02831 0
M  V30 2590 C 247.291 0.0999609 1.73713 0
M  V30 2591 O 248.467 0.313867 1.98939 0
M  V30 2592 C 245.532 0.866079 3.35708 0
M  V30 2593 C 244.593 2.02979 3.78283 0
M  V30 2594 C 243.826 1.73184 5.0482 0
M  V30 2595 O 244.049 0.657237 5.66601 0
M  V30 2596 O 242.983 2.58267 5.43674 0
M  V30 2597 H 246.809 2.13474 2.16015 0
M  V30 2598 H 244.394 1.09587 1.01543 0
M  V30 2599 H 246.276 0.706623 4.15433 0
M  V30 2600 H 244.951 -0.0599443 3.23644 0
M  V30 2601 H 243.858 2.24454 2.99285 0
M  V30 2602 H 245.191 2.93734 3.94944 0
M  V30 2603 N 246.843 -1.10192 1.12674 0
M  V30 2604 C 248.254 -1.63707 0.897604 0
M  V30 2605 C 248.605 -1.87812 -0.567546 0
M  V30 2606 O 247.73 -1.62196 -1.43253 0
M  V30 2607 C 248.325 -2.974 1.62292 0
M  V30 2608 C 246.884 -3.47772 1.43986 0
M  V30 2609 C 246.031 -2.22332 1.65722 0
M  V30 2610 H 248.982 -0.936587 1.28116 0
M  V30 2611 H 249.003 -3.64986 1.07541 0
M  V30 2612 H 248.515 -2.79824 2.68924 0
M  V30 2613 H 246.616 -3.70487 0.396206 0
M  V30 2614 H 246.729 -4.25723 2.19765 0
M  V30 2615 H 245.093 -2.30599 1.08149 0
M  V30 2616 H 245.876 -2.07285 2.73657 0
M  V30 2617 N 248.321 -0.919034 -1.28029 0
M  V30 2618 C 249.567 -0.555757 -1.95036 0
M  V30 2619 C 249.9 0.899198 -1.72128 0
M  V30 2620 O 249.175 1.64023 -1.04531 0
M  V30 2621 C 249.458 -0.872024 -3.49382 0
M  V30 2622 C 249.311 -2.3801 -3.81669 0
M  V30 2623 C 250.63 -0.37185 -4.38526 0
M  V30 2624 H 247.749 -0.203386 -0.708381 0
M  V30 2625 H 250.391 -1.14924 -1.51303 0
M  V30 2626 H 248.541 -0.366946 -3.86763 0
M  V30 2627 H 250.213 -2.9562 -3.54128 0
M  V30 2628 H 248.456 -2.83289 -3.28526 0
M  V30 2629 H 249.127 -2.55192 -4.8947 0
M  V30 2630 H 251.603 -0.804602 -4.08247 0
M  V30 2631 H 250.479 -0.622173 -5.45362 0
M  V30 2632 H 250.74 0.727934 -4.36066 0
M  V30 2633 N 249.799 1.42003 -0.683588 0
M  V30 2634 C 250.762 2.29191 -0.0198243 0
M  V30 2635 C 251.762 1.43773 0.72013 0
M  V30 2636 O 252.952 1.65061 0.556815 0
M  V30 2637 C 250.084 3.26435 0.982487 0
M  V30 2638 H 251.277 2.8938 -0.787345 0
M  V30 2639 H 248.83 1.49789 -0.446418 0
M  V30 2640 H 249.565 2.71203 1.77819 0
M  V30 2641 H 249.35 3.89449 0.455182 0
M  V30 2642 H 250.84 3.918 1.44508 0
M  V30 2643 N 251.277 0.427512 1.51691 0
M  V30 2644 C 252.24 -0.377132 2.26076 0
M  V30 2645 C 253.24 -0.958089 1.29141 0
M  V30 2646 O 254.43 -0.83408 1.52934 0
M  V30 2647 C 251.562 -1.53262 3.04506 0
M  V30 2648 H 252.755 0.27464 2.9864 0
M  V30 2649 H 250.308 0.180445 1.55255 0
M  V30 2650 H 251.043 -2.22072 2.36335 0
M  V30 2651 H 250.828 -1.12232 3.75694 0
M  V30 2652 H 252.318 -2.10135 3.60878 0
M  V30 2653 N 252.755 -1.56801 0.158532 0
M  V30 2654 C 254.166 -1.83189 -0.360366 0
M  V30 2655 C 254.517 -1.07778 -1.63946 0
M  V30 2656 O 253.642 -0.326718 -2.13919 0
M  V30 2657 C 254.237 -3.32297 -0.660595 0
M  V30 2658 C 252.796 -3.59227 -1.12398 0
M  V30 2659 C 251.943 -2.76877 -0.153097 0
M  V30 2660 H 254.894 -1.54008 0.383031 0
M  V30 2661 H 254.915 -3.4908 -1.51405 0
M  V30 2662 H 254.427 -3.87156 0.270527 0
M  V30 2663 H 252.528 -3.09766 -2.07064 0
M  V30 2664 H 252.641 -4.67632 -1.04197 0
M  V30 2665 H 251.005 -2.46319 -0.647983 0
M  V30 2666 H 251.788 -3.34511 0.77182 0
M  V30 2667 N 254.233 0.115231 -1.57178 0
M  V30 2668 C 255.165 1.16694 -1.97269 0
M  V30 2669 C 256.178 1.37445 -0.872502 0
M  V30 2670 O 257.367 1.36454 -1.15077 0
M  V30 2671 C 254.467 2.52627 -2.25905 0
M  V30 2672 C 253.64 2.52427 -3.57211 0
M  V30 2673 C 252.699 3.70134 -3.74016 0
M  V30 2674 O 251.725 3.53546 -4.46087 0
M  V30 2675 N 252.927 4.88844 -3.13068 0
M  V30 2676 H 255.692 0.82588 -2.88096 0
M  V30 2677 H 253.253 0.304461 -1.59011 0
M  V30 2678 H 255.245 3.29937 -2.34359 0
M  V30 2679 H 253.815 2.789 -1.41186 0
M  V30 2680 H 253.035 1.60805 -3.5991 0
M  V30 2681 H 254.323 2.49353 -4.43509 0
M  V30 2682 H 253.721 5.05225 -2.54489 0
M  V30 2683 H 252.278 5.63817 -3.27037 0
M  V30 2684 N 255.711 1.52812 0.385517 0
M  V30 2685 C 257.122 1.5993 0.963293 0
M  V30 2686 C 257.473 0.454302 1.90868 0
M  V30 2687 O 256.598 -0.422132 2.12243 0
M  V30 2688 C 257.193 2.89871 1.75387 0
M  V30 2689 C 255.752 2.99389 2.28129 0
M  V30 2690 C 254.899 2.55071 1.08783 0
M  V30 2691 H 257.85 1.5784 0.164948 0
M  V30 2692 H 257.871 2.76553 2.61341 0
M  V30 2693 H 257.383 3.73186 1.06554 0
M  V30 2694 H 255.484 2.20619 3.00263 0
M  V30 2695 H 255.597 4.04096 2.57377 0
M  V30 2696 H 253.961 2.09473 1.4489 0
M  V30 2697 H 254.744 3.40785 0.414807 0
M  V30 2698 N 257.189 -0.644168 1.43834 0
M  V30 2699 C 258.099 -1.78563 1.52159 0
M  V30 2700 C 259.115 -1.69147 0.408069 0
M  V30 2701 O 260.291 -1.90156 0.663524 0
M  V30 2702 C 257.356 -3.14888 1.45073 0
M  V30 2703 C 256.417 -3.36034 2.6717 0
M  V30 2704 C 255.65 -4.65855 2.60413 0
M  V30 2705 O 255.873 -5.45805 1.65689 0
M  V30 2706 O 254.807 -4.88918 3.5106 0
M  V30 2707 H 258.633 -1.74494 2.48567 0
M  V30 2708 H 256.218 -0.80378 1.25935 0
M  V30 2709 H 258.1 -3.96179 1.43597 0
M  V30 2710 H 256.775 -3.19528 0.518037 0
M  V30 2711 H 255.682 -2.54472 2.74217 0
M  V30 2712 H 257.015 -3.36247 3.59442 0
M  V30 2713 N 258.668 -1.30515 -0.883378 0
M  V30 2714 C 260.079 -1.17509 -1.45081 0
M  V30 2715 C 260.43 0.223605 -1.94922 0
M  V30 2716 O 259.555 1.12041 -1.85137 0
M  V30 2717 C 260.15 -2.12715 -2.63701 0
M  V30 2718 C 258.709 -2.03682 -3.16529 0
M  V30 2719 C 257.856 -2.02706 -1.89224 0
M  V30 2720 H 260.807 -1.42762 -0.693165 0
M  V30 2721 H 260.828 -1.70891 -3.39965 0
M  V30 2722 H 260.34 -3.14505 -2.27395 0
M  V30 2723 H 258.441 -1.05039 -3.57488 0
M  V30 2724 H 258.554 -2.92146 -3.7972 0
M  V30 2725 H 256.918 -1.4753 -2.07622 0
M  V30 2726 H 257.701 -3.06229 -1.55174 0
M  V30 2727 N 260.146 1.09593 -1.13257 0
M  V30 2728 C 261.392 1.82003 -0.89458 0
M  V30 2729 C 261.725 1.85402 0.577906 0
M  V30 2730 O 261 1.32099 1.42759 0
M  V30 2731 C 261.283 3.28237 -1.48096 0
M  V30 2732 C 261.136 3.3312 -3.02244 0
M  V30 2733 C 262.455 4.24871 -1.14774 0
M  V30 2734 H 259.574 0.66077 -0.326424 0
M  V30 2735 H 262.216 1.28389 -1.40058 0
M  V30 2736 H 260.366 3.74024 -1.05062 0
M  V30 2737 H 262.038 2.95748 -3.54021 0
M  V30 2738 H 260.281 2.72756 -3.37323 0
M  V30 2739 H 260.952 4.3613 -3.38371 0
M  V30 2740 H 263.428 3.87361 -1.51957 0
M  V30 2741 H 262.304 5.25532 -1.58452 0
M  V30 2742 H 262.565 4.42058 -0.0611849 0
M  V30 2743 N 261.624 0.925811 1.2754 0
M  V30 2744 C 262.587 0.428129 2.25166 0
M  V30 2745 C 263.587 -0.452261 1.54309 0
M  V30 2746 O 264.777 -0.253608 1.72344 0
M  V30 2747 C 261.909 -0.384749 3.38722 0
M  V30 2748 H 263.102 1.29066 2.70706 0
M  V30 2749 H 260.655 0.706323 1.3943 0
M  V30 2750 H 261.39 -1.26618 2.98561 0
M  V30 2751 H 261.175 0.246454 3.91325 0
M  V30 2752 H 262.665 -0.723389 4.11287 0
M  V30 2753 N 263.102 -1.41638 0.69111 0
M  V30 2754 C 264.012 -2.34588 0.0233487 0
M  V30 2755 C 265.028 -1.55987 -0.770984 0
M  V30 2756 O 266.204 -1.88486 -0.709569 0
M  V30 2757 C 263.269 -3.34684 -0.904851 0
M  V30 2758 C 262.33 -4.29176 -0.103225 0
M  V30 2759 C 261.563 -5.2449 -0.987216 0
M  V30 2760 O 261.786 -5.2514 -2.22674 0
M  V30 2761 O 260.72 -6.00295 -0.439281 0
M  V30 2762 H 264.546 -2.93261 0.789416 0
M  V30 2763 H 262.131 -1.42417 0.45142 0
M  V30 2764 H 264.013 -3.96133 -1.43724 0
M  V30 2765 H 262.688 -2.78461 -1.65049 0
M  V30 2766 H 261.595 -3.71089 0.473655 0
M  V30 2767 H 262.928 -4.88484 0.60365 0
M  V30 2768 N 264.58 -0.43555 -1.51462 0
M  V30 2769 C 265.991 0.0279871 -1.86679 0
M  V30 2770 C 266.342 1.42104 -1.35281 0
M  V30 2771 O 265.467 2.04667 -0.702878 0
M  V30 2772 C 266.062 0.0575626 -3.38751 0
M  V30 2773 C 264.621 0.465507 -3.7351 0
M  V30 2774 C 263.768 -0.342996 -2.75171 0
M  V30 2775 H 266.719 -0.651473 -1.44712 0
M  V30 2776 H 266.74 0.867421 -3.70481 0
M  V30 2777 H 266.252 -0.956448 -3.7613 0
M  V30 2778 H 264.353 1.48519 -3.41721 0
M  V30 2779 H 264.466 0.191546 -4.78717 0
M  V30 2780 H 262.83 0.198442 -2.53926 0
M  V30 2781 H 263.613 -1.35585 -3.15391 0
M  V30 2782 N 266.058 1.56714 -0.166846 0
M  V30 2783 C 267.021 2.16539 0.751232 0
M  V30 2784 C 268.021 1.11228 1.16125 0
M  V30 2785 O 269.211 1.36765 1.07894 0
M  V30 2786 C 266.343 2.74462 2.02196 0
M  V30 2787 H 267.536 2.99013 0.230499 0
M  V30 2788 H 265.089 1.56081 0.0826982 0
M  V30 2789 H 265.824 1.95709 2.58589 0
M  V30 2790 H 265.609 3.51527 1.73698 0
M  V30 2791 H 267.099 3.20489 2.67725 0
M  V30 2792 N 267.536 -0.106894 1.57237 0
M  V30 2793 C 268.947 -0.662723 1.74542 0
M  V30 2794 C 269.298 -1.7971 0.787319 0
M  V30 2795 O 268.423 -2.16368 -0.0369636 0
M  V30 2796 C 269.018 -1.20896 3.16496 0
M  V30 2797 C 267.577 -1.71096 3.35266 0
M  V30 2798 C 266.724 -0.615642 2.7038 0
M  V30 2799 H 269.675 0.119106 1.58252 0
M  V30 2800 H 269.696 -2.07847 3.18716 0
M  V30 2801 H 269.208 -0.383122 3.86204 0
M  V30 2802 H 267.309 -2.56119 2.70618 0
M  V30 2803 H 267.422 -1.81208 4.43509 0
M  V30 2804 H 265.786 -1.05222 2.31949 0
M  V30 2805 H 266.569 0.199419 3.4272 0
M  V30 2806 N 269.014 -1.53014 -0.377408 0
M  V30 2807 C 270.26 -1.68872 -1.12294 0
M  V30 2808 C 270.593 -0.433224 -1.89306 0
M  V30 2809 O 269.868 0.569258 -1.85983 0
M  V30 2810 C 270.151 -2.93115 -2.09179 0
M  V30 2811 C 270.004 -4.28794 -1.35853 0
M  V30 2812 C 271.323 -3.12928 -3.09458 0
M  V30 2813 H 268.442 -0.614518 -0.406862 0
M  V30 2814 H 271.084 -1.85633 -0.40503 0
M  V30 2815 H 269.234 -2.78956 -2.70399 0
M  V30 2816 H 270.906 -4.54742 -0.775082 0
M  V30 2817 H 269.149 -4.28744 -0.660364 0
M  V30 2818 H 269.82 -5.11837 -2.06706 0
M  V30 2819 H 272.296 -3.26194 -2.58334 0
M  V30 2820 H 271.172 -4.01316 -3.74482 0
M  V30 2821 H 271.433 -2.27669 -3.78971 0
M  V30 2822 N 270.492 0.636531 -1.44174 0
M  V30 2823 C 271.425 1.76139 -1.45087 0
M  V30 2824 C 272.403 1.59611 -0.310326 0
M  V30 2825 O 273.587 1.81568 -0.506477 0
M  V30 2826 C 270.714 3.13648 -1.27839 0
M  V30 2827 C 269.76 3.48838 -2.45386 0
M  V30 2828 S 270.593 3.46927 -4.07924 0
M  V30 2829 C 271.749 4.87064 -3.9309 0
M  V30 2830 H 271.982 1.75096 -2.40268 0
M  V30 2831 H 269.515 0.810666 -1.31406 0
M  V30 2832 H 271.473 3.93002 -1.18575 0
M  V30 2833 H 270.134 3.12235 -0.341787 0
M  V30 2834 H 269.327 4.48886 -2.29167 0
M  V30 2835 H 268.929 2.76935 -2.51362 0
M  V30 2836 H 271.221 5.76153 -3.56446 0
M  V30 2837 H 272.164 5.08337 -4.92949 0
M  V30 2838 H 272.572 4.61384 -3.25246 0
M  V30 2839 N 271.97 1.30982 0.876444 0
M  V30 2840 C 273.247 1.10942 1.61094 0
M  V30 2841 C 273.627 -0.338223 2.08373 0
M  V30 2842 O 272.975 -1.33122 1.85717 0
M  V30 2843 C 273.185 2.11789 2.77392 0
M  V30 2844 C 274.533 2.43965 3.47514 0
M  V30 2845 O 275.557 2.10166 2.87591 0
M  V30 2846 O 274.416 3.01817 4.55597 0
M  V30 2847 H 271.51 0.42667 0.708436 0
M  V30 2848 H 274.056 1.42438 0.922474 0
M  V30 2849 H 272.828 3.09194 2.39823 0
M  V30 2850 H 272.451 1.81161 3.5393 0
M  V30 2851 N 273.449 -1.08991 1.13837 0
M  V30 2852 C 274.396 -2.15748 0.819835 0
M  V30 2853 C 275.366 -1.64636 -0.220026 0
M  V30 2854 O 276.551 -1.90582 -0.0912757 0
M  V30 2855 C 273.691 -3.4382 0.296913 0
M  V30 2856 C 272.804 -4.0881 1.39636 0
M  V30 2857 C 271.939 -5.24655 0.831314 0
M  V30 2858 C 270.978 -5.81575 1.90886 0
M  V30 2859 N 270.115 -6.88774 1.36142 0
M  V30 2860 H 274.955 -2.42338 1.73426 0
M  V30 2861 H 272.492 -1.18935 0.865613 0
M  V30 2862 H 274.45 -4.17193 -0.0244339 0
M  V30 2863 H 273.08 -3.17535 -0.580628 0
M  V30 2864 H 272.132 -3.33258 1.83422 0
M  V30 2865 H 273.444 -4.47141 2.21058 0
M  V30 2866 H 272.598 -6.04942 0.461515 0
M  V30 2867 H 271.337 -4.87698 -0.013932 0
M  V30 2868 H 270.342 -4.99946 2.28767 0
M  V30 2869 H 271.567 -6.20592 2.75758 0
M  V30 2870 H 269.513 -6.53788 0.538254 0
M  V30 2871 H 269.43 -7.25898 2.11208 0
M  V30 2872 H 270.698 -7.72806 1.01933 0
M  V30 2873 N 274.927 -0.932562 -1.27047 0
M  V30 2874 C 276.338 -0.619451 -1.76124 0
M  V30 2875 C 276.689 0.865397 -1.76083 0
M  V30 2876 O 275.814 1.67722 -1.36742 0
M  V30 2877 C 276.409 -1.11771 -3.19832 0
M  V30 2878 C 274.968 -0.855174 -3.66557 0
M  V30 2879 C 274.115 -1.27362 -2.46321 0
M  V30 2880 H 277.066 -1.11181 -1.13245 0
M  V30 2881 H 277.087 -0.46759 -3.77616 0
M  V30 2882 H 276.599 -2.19842 -3.1983 0
M  V30 2883 H 274.7 0.211524 -3.71999 0
M  V30 2884 H 274.813 -1.47613 -4.55793 0
M  V30 2885 H 273.177 -0.692119 -2.45116 0
M  V30 2886 H 273.96 -2.36307 -2.49025 0
M  V30 2887 N 276.405 1.4127 -0.698611 0
M  V30 2888 C 277.352 2.30773 -0.0352094 0
M  V30 2889 C 278.322 1.47273 0.768111 0
M  V30 2890 O 279.507 1.76053 0.735524 0
M  V30 2891 C 276.647 3.33346 0.893 0
M  V30 2892 C 275.76 4.31924 0.0809695 0
M  V30 2893 C 274.895 5.21566 1.0071 0
M  V30 2894 C 273.934 6.11811 0.188155 0
M  V30 2895 N 273.071 6.93926 1.06825 0
M  V30 2896 H 277.911 2.86943 -0.804207 0
M  V30 2897 H 275.448 1.4132 -0.408294 0
M  V30 2898 H 277.406 3.91368 1.44523 0
M  V30 2899 H 276.036 2.78719 1.62836 0
M  V30 2900 H 275.088 3.75825 -0.588224 0
M  V30 2901 H 276.4 4.95716 -0.553801 0
M  V30 2902 H 275.554 5.84437 1.62845 0
M  V30 2903 H 274.293 4.58008 1.67572 0
M  V30 2904 H 273.298 5.47986 -0.446254 0
M  V30 2905 H 274.523 6.77425 -0.476716 0
M  V30 2906 H 272.469 6.32973 1.72283 0
M  V30 2907 H 272.386 7.54416 0.489123 0
M  V30 2908 H 273.654 7.61262 1.67632 0
M  V30 2909 N 277.883 0.443576 1.51229 0
M  V30 2910 C 279.299 0.0962001 1.5931 0
M  V30 2911 C 279.499 -1.39501 1.45402 0
M  V30 2912 O 278.555 -2.16557 1.29843 0
M  V30 2913 C 279.868 0.621875 2.94199 0
M  V30 2914 C 281.416 0.582865 3.07525 0
M  V30 2915 C 281.891 1.08562 4.44948 0
M  V30 2916 N 283.382 1.04387 4.51284 0
M  V30 2917 C 284.117 1.40368 5.55954 0
M  V30 2918 N 283.613 1.83664 6.68011 0
M  V30 2919 N 285.406 1.32145 5.46346 0
M  V30 2920 H 277.557 1.41376 1.58514 0
M  V30 2921 H 279.82 0.582965 0.747567 0
M  V30 2922 H 279.526 1.66546 3.09767 0
M  V30 2923 H 279.4 0.0502125 3.77167 0
M  V30 2924 H 281.787 -0.451749 2.91622 0
M  V30 2925 H 281.868 1.191 2.26382 0
M  V30 2926 H 281.512 2.11873 4.61598 0
M  V30 2927 H 281.442 0.453956 5.2464 0
M  V30 2928 H 283.933 0.725986 3.70861 0
M  V30 2929 H 284.246 2.0934 7.43906 0
M  V30 2930 H 282.591 1.87596 6.69203 0
M  V30 2931 H 285.782 0.981808 4.57688 0
M  V30 2932 H 285.955 1.60514 6.27805 0
M  V30 2933 N 279.361 -1.56624 0.175154 0
M  V30 2934 C 280.308 -2.18149 -0.753634 0
M  V30 2935 C 281.278 -1.12265 -1.22417 0
M  V30 2936 O 282.463 -1.40432 -1.29165 0
M  V30 2937 C 279.603 -2.82933 -1.97592 0
M  V30 2938 C 278.716 -4.03289 -1.5486 0
M  V30 2939 C 277.851 -4.55988 -2.72485 0
M  V30 2940 C 276.89 -5.68746 -2.26262 0
M  V30 2941 N 276.027 -6.15938 -3.36994 0
M  V30 2942 H 280.867 -2.9717 -0.222195 0
M  V30 2943 H 278.404 -1.46774 -0.0979422 0
M  V30 2944 H 280.362 -3.18653 -2.69288 0
M  V30 2945 H 278.992 -2.06509 -2.481 0
M  V30 2946 H 278.044 -3.73364 -0.728246 0
M  V30 2947 H 279.356 -4.849 -1.16933 0
M  V30 2948 H 278.51 -4.9391 -3.52332 0
M  V30 2949 H 277.249 -3.73443 -3.13674 0
M  V30 2950 H 276.254 -5.30372 -1.44863 0
M  V30 2951 H 277.479 -6.53095 -1.86127 0
M  V30 2952 H 275.425 -5.36321 -3.77751 0
M  V30 2953 H 275.342 -6.92548 -3.03172 0
M  V30 2954 H 276.61 -6.58511 -4.17114 0
M  V30 2955 N 280.839 0.0985539 -1.57292 0
M  V30 2956 C 281.749 1.13824 -2.05137 0
M  V30 2957 C 282.765 1.44076 -0.975604 0
M  V30 2958 O 283.941 1.54786 -1.28853 0
M  V30 2959 C 281.006 2.43969 -2.46333 0
M  V30 2960 C 280.067 2.2093 -3.68087 0
M  V30 2961 C 279.3 3.44869 -4.0731 0
M  V30 2962 O 279.523 4.52972 -3.46659 0
M  V30 2963 O 278.457 3.34661 -5.00285 0
M  V30 2964 H 282.283 0.761881 -2.93988 0
M  V30 2965 H 279.868 0.310818 -1.46131 0
M  V30 2966 H 281.75 3.20609 -2.73473 0
M  V30 2967 H 280.425 2.81038 -1.60621 0
M  V30 2968 H 279.332 1.42081 -3.46069 0
M  V30 2969 H 280.665 1.88755 -4.54568 0
M  V30 2970 N 282.317 1.53212 0.369288 0
M  V30 2971 C 283.28 1.7872 1.43498 0
M  V30 2972 C 284.28 0.657554 1.46741 0
M  V30 2973 O 285.47 0.925736 1.47566 0
M  V30 2974 C 282.602 1.90591 2.82645 0
M  V30 2975 H 283.795 2.73894 1.22156 0
M  V30 2976 H 281.348 1.44233 0.602203 0
M  V30 2977 H 282.083 0.974709 3.09306 0
M  V30 2978 H 281.868 2.72751 2.8169 0
M  V30 2979 H 283.358 2.11931 3.59826 0
M  V30 2980 N 283.795 -0.628877 1.44509 0
M  V30 2981 C 285.041 -1.39045 1.47629 0
M  V30 2982 C 285.374 -1.93892 0.109343 0
M  V30 2983 O 284.649 -1.7379 -0.87334 0
M  V30 2984 C 284.932 -2.55408 2.53848 0
M  V30 2985 C 284.785 -2.05896 3.99909 0
M  V30 2986 C 286.104 -3.5759 2.56549 0
M  V30 2987 H 283.223 -0.504232 0.537512 0
M  V30 2988 H 285.865 -0.710854 1.76201 0
M  V30 2989 H 284.015 -3.13384 2.29615 0
M  V30 2990 H 285.687 -1.52734 4.35282 0
M  V30 2991 H 283.93 -1.37061 4.11578 0
M  V30 2992 H 284.601 -2.89681 4.69882 0
M  V30 2993 H 287.077 -3.09419 2.78207 0
M  V30 2994 H 285.953 -4.36527 3.32769 0
M  V30 2995 H 286.214 -4.11808 1.60832 0
M  V30 2996 N 285.273 -1.31445 -0.869486 0
M  V30 2997 C 286.522 -1.20517 -1.61736 0
M  V30 2998 C 286.835 0.235341 -1.94179 0
M  V30 2999 O 288.041 0.466312 -2.67465 0
M  V30 3000 C 286.497 -2.10982 -2.91573 0
M  V30 3001 C 286.105 -3.60032 -2.66611 0
M  V30 3002 C 287.849 -2.08856 -3.69567 0
M  V30 3003 C 285.756 -4.42503 -3.92358 0
M  V30 3004 H 284.686 -0.447493 -0.606849 0
M  V30 3005 H 287.337 -1.56303 -0.96133 0
M  V30 3006 H 285.719 -1.68095 -3.58553 0
M  V30 3007 H 286.893 -4.11167 -2.08035 0
M  V30 3008 H 285.208 -3.64139 -2.0197 0
M  V30 3009 H 287.805 -2.67716 -4.62852 0
M  V30 3010 H 288.148 -1.07582 -4.02159 0
M  V30 3011 H 288.681 -2.49945 -3.09471 0
M  V30 3012 H 285.42 -5.44533 -3.64916 0
M  V30 3013 H 284.94 -3.96125 -4.50383 0
M  V30 3014 H 286.619 -4.54741 -4.60238 0
M  V30 3015 N 286.751 1.08385 -1.14413 0
M  V30 3016 C 288 1.80153 -0.907076 0
M  V30 3017 C 288.313 1.87176 0.567851 0
M  V30 3018 O 289.519 2.55359 0.922172 0
M  V30 3019 C 287.975 3.23687 -1.57336 0
M  V30 3020 C 287.583 3.24897 -3.08457 0
M  V30 3021 C 289.327 4.00136 -1.41744 0
M  V30 3022 C 287.234 4.6302 -3.67921 0
M  V30 3023 H 286.164 0.675139 -0.335714 0
M  V30 3024 H 288.815 1.21733 -1.37307 0
M  V30 3025 H 287.197 3.82234 -1.03505 0
M  V30 3026 H 288.371 2.76055 -3.68958 0
M  V30 3027 H 286.686 2.61943 -3.2369 0
M  V30 3028 H 289.283 5.02201 -1.83572 0
M  V30 3029 H 289.626 4.14709 -0.363576 0
M  V30 3030 H 290.159 3.48058 -1.92614 0
M  V30 3031 H 286.898 4.5365 -4.73161 0
M  V30 3032 H 286.418 5.12143 -3.12201 0
M  V30 3033 H 288.097 5.31994 -3.68227 0
M  V30 3034 N 288.23 0.939286 1.26551 0
M  V30 3035 C 289.163 0.391702 2.24813 0
M  V30 3036 C 290.141 -0.518421 1.54114 0
M  V30 3037 O 291.325 -0.456299 1.82894 0
M  V30 3038 C 288.452 -0.437382 3.35864 0
M  V30 3039 C 287.498 0.410946 4.24516 0
M  V30 3040 S 288.331 1.83372 5.03125 0
M  V30 3041 C 289.487 1.01264 6.17654 0
M  V30 3042 H 289.72 1.22448 2.70913 0
M  V30 3043 H 287.253 0.742269 1.35387 0
M  V30 3044 H 289.211 -0.909837 4.0029 0
M  V30 3045 H 287.872 -1.24482 2.8838 0
M  V30 3046 H 287.065 -0.224191 5.03501 0
M  V30 3047 H 286.667 0.818014 3.64945 0
M  V30 3048 H 288.959 0.254023 6.77024 0
M  V30 3049 H 289.902 1.77589 6.85469 0
M  V30 3050 H 290.31 0.549532 5.61819 0
M  V30 3051 N 289.708 -1.40897 0.706093 0
M  V30 3052 C 290.656 -2.32572 0.0361893 0
M  V30 3053 C 291.65 -1.51532 -0.757266 0
M  V30 3054 O 292.856 -1.67396 -0.661703 0
M  V30 3055 H 289.231 -0.751966 -0.00709935 0
M  V30 3056 H 291.202 -2.86733 0.826249 0
M  V30 3057 C 289.951 -3.36418 -0.87854 0
M  V30 3058 H 289.274 -3.98836 -0.277401 0
M  V30 3059 H 290.714 -4.0308 -1.3154 0
M  V30 3060 C 289.173 -2.71141 -1.99961 0
M  V30 3061 O 289.703 -2.56735 -3.0895 0
M  V30 3062 N 287.909 -2.29671 -1.78043 0
M  V30 3063 H 287.456 -2.41588 -0.894042 0
M  V30 3064 H 287.414 -1.86332 -2.53235 0
M  V30 3065 N 291.186 -0.45159 -1.50991 0
M  V30 3066 C 292.432 0.110237 -2.025 0
M  V30 3067 C 292.765 1.41109 -1.33424 0
M  V30 3068 O 292.04 1.89135 -0.453659 0
M  V30 3069 C 292.323 0.314271 -3.58726 0
M  V30 3070 C 292.176 -1.00623 -4.38401 0
M  V30 3071 C 293.495 1.07767 -4.26702 0
M  V30 3072 H 290.614 0.0385897 -0.735989 0
M  V30 3073 H 293.256 -0.593374 -1.80497 0
M  V30 3074 H 291.406 0.913601 -3.77605 0
M  V30 3075 H 293.078 -1.64064 -4.31139 0
M  V30 3076 H 291.321 -1.6075 -4.02917 0
M  V30 3077 H 291.992 -0.817341 -5.45915 0
M  V30 3078 H 294.468 0.56986 -4.12179 0
M  V30 3079 H 293.344 1.18921 -5.35863 0
M  V30 3080 H 293.605 2.10939 -3.88532 0
M  V30 3081 N 292.664 1.56529 -0.183458 0
M  V30 3082 C 293.627 2.17324 0.728223 0
M  V30 3083 C 294.627 1.12453 1.14939 0
M  V30 3084 O 295.817 1.37902 1.06437 0
M  V30 3085 C 292.949 2.76591 1.99274 0
M  V30 3086 H 294.142 2.99241 0.198772 0
M  V30 3087 H 291.695 1.5616 0.0661391 0
M  V30 3088 H 292.43 1.98441 2.56499 0
M  V30 3089 H 292.215 3.5335 1.69959 0
M  V30 3090 H 293.705 3.23311 2.6431 0
M  V30 3091 N 294.142 -0.090211 1.57342 0
M  V30 3092 C 295.105 -1.09335 2.01441 0
M  V30 3093 C 296.105 -1.32666 0.908641 0
M  V30 3094 O 297.295 -1.28697 1.174 0
M  V30 3095 C 294.427 -2.44136 2.3793 0
M  V30 3096 H 295.62 -0.713662 2.91285 0
M  V30 3097 H 293.173 -0.335404 1.52659 0
M  V30 3098 H 293.908 -2.86972 1.51055 0
M  V30 3099 H 293.693 -2.28548 3.18603 0
M  V30 3100 H 295.183 -3.16277 2.72688 0
M  V30 3101 N 295.62 -1.53406 -0.361157 0
M  V30 3102 C 296.57 -1.76536 -1.44287 0
M  V30 3103 C 297.554 -0.620019 -1.48474 0
M  V30 3104 O 298.746 -0.878834 -1.53641 0
M  V30 3105 C 295.875 -1.96266 -2.81664 0
M  V30 3106 C 294.961 -3.16815 -2.81938 0
M  V30 3107 N 295.352 -4.38637 -2.51855 0
M  V30 3108 C 293.65 -3.17627 -3.13096 0
M  V30 3109 C 294.351 -5.20401 -2.59919 0
M  V30 3110 N 293.327 -4.56712 -2.94814 0
M  V30 3111 H 297.129 -2.68331 -1.19899 0
M  V30 3112 H 294.643 -1.52091 -0.56938 0
M  V30 3113 H 296.64 -2.10966 -3.59582 0
M  V30 3114 H 295.3 -1.05702 -3.07013 0
M  V30 3115 H 296.311 -4.66293 -2.25369 0
M  V30 3116 H 292.988 -2.36971 -3.43731 0
M  V30 3117 H 294.378 -6.27586 -2.39969 0
M  V30 3118 N 297.098 0.621204 -1.44841 0
M  V30 3119 C 298.048 1.72663 -1.48901 0
M  V30 3120 C 299.032 1.56964 -0.353702 0
M  V30 3121 O 300.224 1.66532 -0.599669 0
M  V30 3122 C 297.353 3.11381 -1.44557 0
M  V30 3123 C 296.439 3.32514 -2.6324 0
M  V30 3124 N 296.83 3.23969 -3.8843 0
M  V30 3125 C 295.128 3.63343 -2.58647 0
M  V30 3126 C 295.829 3.46062 -4.67564 0
M  V30 3127 N 294.805 3.69407 -3.98797 0
M  V30 3128 H 298.607 1.64529 -2.43531 0
M  V30 3129 H 296.121 0.82401 -1.39942 0
M  V30 3130 H 298.118 3.90667 -1.4555 0
M  V30 3131 H 296.778 3.20674 -0.509731 0
M  V30 3132 H 297.789 3.02669 -4.20252 0
M  V30 3133 H 294.466 3.79556 -1.73906 0
M  V30 3134 H 295.856 3.44963 -5.76585 0
M  V30 3135 N 298.576 1.31904 0.862503 0
M  V30 3136 C 299.824 1.21776 1.61292 0
M  V30 3137 C 300.145 -0.222413 1.93727 0
M  V30 3138 O 299.415 -1.1451 1.58947 0
M  V30 3139 H 297.995 0.447717 0.597962 0
M  V30 3140 H 300.657 1.65326 1.03215 0
M  V30 3141 H 299.753 1.7948 2.5533 0
M  V30 3142 N 300.054 -1.07777 1.14986 0
M  V30 3143 C 301.279 -1.84558 0.946213 0
M  V30 3144 C 301.704 -1.81323 -0.500362 0
M  V30 3145 O 301.062 -1.20301 -1.35637 0
M  V30 3146 C 301.11 -3.29736 1.45968 0
M  V30 3147 O 300.214 -4.07149 0.65601 0
M  V30 3148 H 299.555 -0.571641 0.33782 0
M  V30 3149 H 302.085 -1.35991 1.52865 0
M  V30 3150 H 302.095 -3.80574 1.47063 0
M  V30 3151 H 300.77 -3.31406 2.51283 0
M  V30 3152 H 299.347 -3.65994 0.714322 0
M  V30 3153 N 301.532 -0.945985 -1.26051 0
M  V30 3154 C 302.442 -0.465633 -2.29933 0
M  V30 3155 C 303.458 0.462761 -1.67733 0
M  V30 3156 O 304.634 0.341118 -1.9849 0
M  V30 3157 C 301.699 0.256994 -3.45746 0
M  V30 3158 C 300.76 -0.708549 -4.23412 0
M  V30 3159 C 299.993 -0.0203135 -5.33696 0
M  V30 3160 O 300.216 1.19571 -5.57726 0
M  V30 3161 O 299.15 -0.701459 -5.97799 0
M  V30 3162 H 302.976 -1.32866 -2.73094 0
M  V30 3163 H 300.561 -0.712071 -1.31339 0
M  V30 3164 H 302.443 0.663852 -4.16138 0
M  V30 3165 H 301.118 1.09533 -3.04605 0
M  V30 3166 H 300.025 -1.16545 -3.55483 0
M  V30 3167 H 301.358 -1.51465 -4.68315 0
M  V30 3168 N 303.011 1.40521 -0.713556 0
M  V30 3169 C 303.941 2.33381 -0.0743864 0
M  V30 3170 C 304.922 1.52784 0.747735 0
M  V30 3171 O 306.107 1.81258 0.697071 0
M  V30 3172 C 303.237 3.36748 0.849598 0
M  V30 3173 C 302.191 4.27793 0.133247 0
M  V30 3174 C 301.517 5.21679 1.17281 0
M  V30 3175 C 302.817 5.12415 -1.01134 0
M  V30 3176 H 304.511 2.87081 -0.850007 0
M  V30 3177 H 302.057 1.38034 -0.410201 0
M  V30 3178 H 304.01 4.00648 1.30612 0
M  V30 3179 H 302.734 2.81439 1.65709 0
M  V30 3180 H 301.393 3.65342 -0.303426 0
M  V30 3181 H 301.041 4.62677 1.9733 0
M  V30 3182 H 300.741 5.83435 0.698397 0
M  V30 3183 H 302.265 5.88456 1.62947 0
M  V30 3184 H 303.679 5.69781 -0.634274 0
M  V30 3185 H 302.076 5.83203 -1.41399 0
M  V30 3186 H 303.146 4.48514 -1.84292 0
M  V30 3187 N 304.489 0.459591 1.5075 0
M  V30 3188 C 305.437 -0.354678 2.2988 0
M  V30 3189 C 306.431 -1.00086 1.36672 0
M  V30 3190 O 307.637 -0.933277 1.53915 0
M  V30 3191 H 304.012 -0.13321 0.740107 0
M  V30 3192 H 305.983 0.333269 2.96533 0
M  V30 3193 C 304.732 -1.43073 3.169 0
M  V30 3194 H 304.055 -0.942882 3.88523 0
M  V30 3195 H 305.495 -1.97328 3.75284 0
M  V30 3196 C 303.954 -2.42633 2.33732 0
M  V30 3197 O 304.484 -3.47658 2.01238 0
M  V30 3198 N 302.69 -2.14066 1.9653 0
M  V30 3199 H 302.237 -1.28685 2.23155 0
M  V30 3200 H 302.195 -2.80917 1.41185 0
M  V30 3201 N 305.967 -1.56429 0.191757 0
M  V30 3202 C 307.215 -1.97095 -0.447006 0
M  V30 3203 C 307.536 -1.07967 -1.62383 0
M  V30 3204 O 306.806 -0.150248 -1.95323 0
M  V30 3205 H 305.386 -0.727832 -0.168135 0
M  V30 3206 H 308.048 -1.92911 0.27771 0
M  V30 3207 H 307.144 -3.01848 -0.793371 0
M  V30 3208 N 307.445 0.0818655 -1.57387 0
M  V30 3209 C 308.355 1.11642 -2.06333 0
M  V30 3210 C 309.371 1.43033 -0.99083 0
M  V30 3211 O 310.547 1.53411 -1.30488 0
M  V30 3212 C 307.612 2.41342 -2.48907 0
M  V30 3213 C 306.673 2.17014 -3.7041 0
M  V30 3214 C 305.906 3.4053 -4.10944 0
M  V30 3215 O 306.129 4.4927 -3.51444 0
M  V30 3216 O 305.063 3.29336 -5.03807 0
M  V30 3217 H 308.889 0.730657 -2.9478 0
M  V30 3218 H 306.474 0.295301 -1.46452 0
M  V30 3219 H 308.356 3.17691 -2.76858 0
M  V30 3220 H 307.031 2.79319 -1.63593 0
M  V30 3221 H 305.938 1.38403 -3.47556 0
M  V30 3222 H 307.271 1.83923 -4.56545 0
M  V30 3223 N 308.923 1.53595 0.353017 0
M  V30 3224 C 309.853 1.83902 1.43883 0
M  V30 3225 C 310.834 0.693421 1.55324 0
M  V30 3226 O 312.019 0.944452 1.69687 0
M  V30 3227 C 309.149 2.04016 2.8106 0
M  V30 3228 C 308.103 3.19814 2.84434 0
M  V30 3229 C 307.429 3.25244 4.24406 0
M  V30 3230 C 308.729 4.58133 2.50822 0
M  V30 3231 H 310.423 2.74835 1.1877 0
M  V30 3232 H 307.969 1.32242 0.569917 0
M  V30 3233 H 309.922 2.238 3.57059 0
M  V30 3234 H 308.646 1.09804 3.07588 0
M  V30 3235 H 307.305 2.9987 2.10887 0
M  V30 3236 H 306.953 2.28646 4.48029 0
M  V30 3237 H 306.653 4.03054 4.27576 0
M  V30 3238 H 308.177 3.47228 5.0226 0
M  V30 3239 H 309.591 4.77995 3.16534 0
M  V30 3240 H 307.988 5.38276 2.6529 0
M  V30 3241 H 309.058 4.62387 1.46034 0
M  V30 3242 N 310.401 -0.613514 1.45168 0
M  V30 3243 C 311.331 -1.7354 1.56225 0
M  V30 3244 C 312.312 -1.64981 0.41414 0
M  V30 3245 O 313.497 -1.83472 0.636526 0
M  V30 3246 C 310.627 -3.12128 1.52295 0
M  V30 3247 C 309.581 -3.35491 2.65762 0
M  V30 3248 C 308.907 -4.74291 2.46885 0
M  V30 3249 C 310.207 -3.26325 4.0781 0
M  V30 3250 H 311.901 -1.64543 2.50132 0
M  V30 3251 H 309.447 -0.790185 1.20383 0
M  V30 3252 H 311.4 -3.90404 1.58628 0
M  V30 3253 H 310.124 -3.2195 0.549139 0
M  V30 3254 H 308.783 -2.59603 2.58847 0
M  V30 3255 H 308.431 -4.80839 1.47657 0
M  V30 3256 H 308.131 -4.9088 3.22972 0
M  V30 3257 H 309.655 -5.54775 2.55063 0
M  V30 3258 H 311.069 -3.94483 4.16 0
M  V30 3259 H 309.466 -3.54445 4.8424 0
M  V30 3260 H 310.536 -2.23855 4.30136 0
M  V30 3261 N 311.879 -1.3236 -0.855495 0
M  V30 3262 C 312.809 -1.23833 -1.97958 0
M  V30 3263 C 313.79 -0.122361 -1.69659 0
M  V30 3264 O 314.975 -0.30939 -1.9172 0
M  V30 3265 C 312.105 -0.959772 -3.33775 0
M  V30 3266 C 311.059 -2.03689 -3.76424 0
M  V30 3267 C 310.385 -1.61075 -5.09862 0
M  V30 3268 C 311.685 -3.4518 -3.9198 0
M  V30 3269 H 313.379 -2.1788 -2.0535 0
M  V30 3270 H 310.925 -1.04891 -0.986605 0
M  V30 3271 H 312.878 -0.886678 -4.11966 0
M  V30 3272 H 311.602 0.0163404 -3.26596 0
M  V30 3273 H 310.261 -2.10012 -3.00484 0
M  V30 3274 H 309.909 -0.622107 -4.99138 0
M  V30 3275 H 309.609 -2.33143 -5.39368 0
M  V30 3276 H 311.133 -1.55201 -5.90546 0
M  V30 3277 H 312.547 -3.4145 -4.60526 0
M  V30 3278 H 310.944 -4.1559 -4.32903 0
M  V30 3279 H 312.014 -3.84903 -2.94919 0
M  V30 3280 N 313.357 1.07166 -1.15556 0
M  V30 3281 C 314.305 2.16517 -0.8499 0
M  V30 3282 C 315.299 1.68468 0.177454 0
M  V30 3283 O 316.505 1.79971 0.0323026 0
M  V30 3284 H 312.88 0.706652 -0.25719 0
M  V30 3285 H 314.851 2.39514 -1.77976 0
M  V30 3286 C 313.6 3.45855 -0.357682 0
M  V30 3287 H 312.923 3.83214 -1.13961 0
M  V30 3288 H 314.363 4.23607 -0.182489 0
M  V30 3289 C 312.822 3.24062 0.921152 0
M  V30 3290 O 313.352 3.48813 1.9923 0
M  V30 3291 N 311.558 2.77539 0.86141 0
M  V30 3292 H 311.105 2.57598 -0.0104408 0
M  V30 3293 H 311.063 2.63337 1.71758 0
M  V30 3294 N 314.835 0.952656 1.25548 0
M  V30 3295 C 316.06 0.623025 1.97821 0
M  V30 3296 C 316.485 -0.7976 1.70352 0
M  V30 3297 O 315.843 -1.53905 0.958283 0
M  V30 3298 C 315.891 0.885532 3.49558 0
M  V30 3299 O 314.995 -0.0366641 4.12384 0
M  V30 3300 H 314.336 0.237082 0.620232 0
M  V30 3301 H 316.866 1.27871 1.59719 0
M  V30 3302 H 316.876 0.811009 3.99858 0
M  V30 3303 H 315.551 1.92094 3.6888 0
M  V30 3304 H 314.128 0.0898954 3.72792 0
M  V30 3305 N 316.313 -1.40141 0.720998 0
M  V30 3306 C 317.562 -2.0002 0.259804 0
M  V30 3307 C 317.875 -1.57839 -1.15526 0
M  V30 3308 O 319.081 -2.10455 -1.71525 0
M  V30 3309 C 317.537 -3.57516 0.413566 0
M  V30 3310 C 317.145 -4.08667 1.83562 0
M  V30 3311 C 318.889 -4.24498 0.0134387 0
M  V30 3312 C 316.796 -5.58686 1.93968 0
M  V30 3313 H 315.726 -0.748195 0.0933806 0
M  V30 3314 H 318.377 -1.60313 0.892866 0
M  V30 3315 H 316.759 -3.9495 -0.288169 0
M  V30 3316 H 317.933 -3.82598 2.56817 0
M  V30 3317 H 316.248 -3.543 2.1877 0
M  V30 3318 H 318.845 -5.34654 0.0703954 0
M  V30 3319 H 319.188 -4.03375 -1.02927 0
M  V30 3320 H 319.721 -3.92188 0.665815 0
M  V30 3321 H 316.46 -5.8467 2.96379 0
M  V30 3322 H 315.98 -5.86602 1.25131 0
M  V30 3323 H 317.659 -6.23875 1.71431 0
M  V30 3324 N 317.792 -0.46758 -1.50504 0
M  V30 3325 C 318.724 0.364655 -2.26281 0
M  V30 3326 C 319.737 0.960151 -1.31472 0
M  V30 3327 O 320.926 0.849153 -1.57008 0
M  V30 3328 C 318.026 1.52509 -3.02645 0
M  V30 3329 C 317.199 1.04302 -4.24782 0
M  V30 3330 C 316.258 2.07709 -4.8347 0
M  V30 3331 O 315.284 1.65913 -5.44483 0
M  V30 3332 N 316.486 3.40485 -4.70159 0
M  V30 3333 H 319.251 -0.28495 -2.98342 0
M  V30 3334 H 316.812 -0.298163 -1.59131 0
M  V30 3335 H 318.804 2.21371 -3.38787 0
M  V30 3336 H 317.374 2.07945 -2.33404 0
M  V30 3337 H 316.594 0.180393 -3.93787 0
M  V30 3338 H 317.882 0.698798 -5.03978 0
M  V30 3339 H 317.28 3.77155 -4.21629 0
M  V30 3340 H 315.837 4.05156 -5.1058 0
M  V30 3341 N 319.27 1.56325 -0.20005 0
M  V30 3342 C 320.202 2.16555 0.750771 0
M  V30 3343 C 321.215 1.12871 1.1732 0
M  V30 3344 O 322.404 1.39943 1.10807 0
M  V30 3345 C 319.504 2.71684 2.02586 0
M  V30 3346 C 318.677 4.00321 1.76244 0
M  V30 3347 C 317.736 4.40227 2.88248 0
M  V30 3348 O 316.762 5.07552 2.57642 0
M  V30 3349 N 317.964 4.04138 4.16717 0
M  V30 3350 H 320.729 2.98772 0.235685 0
M  V30 3351 H 318.29 1.6189 -0.0182594 0
M  V30 3352 H 320.282 2.95363 2.76664 0
M  V30 3353 H 318.852 1.93893 2.45202 0
M  V30 3354 H 318.072 3.84723 0.85919 0
M  V30 3355 H 319.36 4.84279 1.56048 0
M  V30 3356 H 318.758 3.49993 4.44434 0
M  V30 3357 H 317.315 4.32756 4.87407 0
M  V30 3358 N 320.748 -0.0735177 1.57428 0
M  V30 3359 C 321.711 -1.07192 2.02589 0
M  V30 3360 C 322.711 -1.31695 0.922661 0
M  V30 3361 O 323.901 -1.27445 1.18758 0
M  V30 3362 C 321.033 -2.41599 2.40506 0
M  V30 3363 H 322.226 -0.682727 2.92025 0
M  V30 3364 H 319.779 -0.319193 1.53006 0
M  V30 3365 H 320.514 -2.85354 1.5409 0
M  V30 3366 H 320.299 -2.25156 3.21009 0
M  V30 3367 H 321.789 -3.13367 2.76027 0
M  V30 3368 N 322.226 -1.5378 -0.344866 0
M  V30 3369 C 323.474 -1.70625 -1.08311 0
M  V30 3370 C 323.795 -0.471447 -1.89215 0
M  V30 3371 O 323.065 0.514616 -1.8902 0
M  V30 3372 H 321.645 -0.629058 -0.402859 0
M  V30 3373 H 324.307 -1.9103 -0.386459 0
M  V30 3374 H 323.403 -2.57656 -1.76124 0
M  V30 3375 N 323.704 0.605807 -1.45491 0
M  V30 3376 C 324.951 1.36476 -1.49601 0
M  V30 3377 C 325.279 1.94007 -0.138452 0
M  V30 3378 O 324.534 1.75638 0.863114 0
M  V30 3379 C 324.833 2.53012 -2.52428 0
M  V30 3380 C 324.499 2.13617 -3.97087 0
M  V30 3381 C 323.161 2.02587 -4.36477 0
M  V30 3382 C 325.513 1.82899 -4.88055 0
M  V30 3383 C 322.841 1.59064 -5.64726 0
M  V30 3384 C 325.193 1.40861 -6.16718 0
M  V30 3385 C 323.857 1.28391 -6.55036 0
M  V30 3386 H 323.127 0.499402 -0.547429 0
M  V30 3387 H 325.774 0.684546 -1.78847 0
M  V30 3388 H 324.079 3.26379 -2.16758 0
M  V30 3389 H 325.776 3.1124 -2.52845 0
M  V30 3390 H 322.366 2.23129 -3.65939 0
M  V30 3391 H 326.55 1.90317 -4.58359 0
M  V30 3392 H 321.806 1.48034 -5.93208 0
M  V30 3393 H 325.98 1.16138 -6.86648 0
M  V30 3394 H 323.607 0.944403 -7.54311 0
M  V30 3395 N 325.182 1.32811 0.848464 0
M  V30 3396 C 326.431 1.23075 1.59798 0
M  V30 3397 C 326.744 -0.204419 1.94529 0
M  V30 3398 O 327.95 -0.423701 2.68173 0
M  V30 3399 C 326.406 2.15594 2.88179 0
M  V30 3400 C 326.014 3.64228 2.60849 0
M  V30 3401 C 327.758 2.14709 3.66197 0
M  V30 3402 C 325.665 4.48689 3.85269 0
M  V30 3403 H 324.595 0.457091 0.599653 0
M  V30 3404 H 327.246 1.57813 0.936342 0
M  V30 3405 H 325.628 1.73778 3.55833 0
M  V30 3406 H 326.802 4.14424 2.01467 0
M  V30 3407 H 325.117 3.67306 1.96151 0
M  V30 3408 H 327.714 2.75046 4.58534 0
M  V30 3409 H 328.057 1.13966 4.00397 0
M  V30 3410 H 328.59 2.54837 3.05455 0
M  V30 3411 H 325.329 5.5027 3.56207 0
M  V30 3412 H 324.849 4.03241 4.44024 0
M  V30 3413 H 326.528 4.62006 4.52946 0
M  V30 3414 N 326.66 -1.06551 1.16123 0
M  V30 3415 C 327.907 -1.79302 0.941126 0
M  V30 3416 C 328.235 -1.87105 -0.531235 0
M  V30 3417 O 327.49 -1.35692 -1.41018 0
M  V30 3418 C 327.789 -3.23911 1.51052 0
M  V30 3419 C 327.455 -3.36193 3.00475 0
M  V30 3420 C 326.117 -3.39252 3.41265 0
M  V30 3421 C 328.469 -3.38326 3.96465 0
M  V30 3422 C 325.797 -3.42057 4.76669 0
M  V30 3423 C 328.149 -3.4267 5.31752 0
M  V30 3424 C 326.813 -3.4401 5.72026 0
M  V30 3425 H 326.083 -0.656111 0.344382 0
M  V30 3426 H 328.73 -1.25325 1.44796 0
M  V30 3427 H 327.035 -3.80723 0.925063 0
M  V30 3428 H 328.732 -3.78793 1.31593 0
M  V30 3429 H 325.322 -3.34516 2.6795 0
M  V30 3430 H 329.506 -3.35176 3.6602 0
M  V30 3431 H 324.762 -3.41398 5.07206 0
M  V30 3432 H 328.936 -3.43268 6.05921 0
M  V30 3433 H 326.563 -3.45937 6.76928 0
M  V30 3434 N 328.138 -0.959301 -1.25041 0
M  V30 3435 C 329.386 -0.615393 -1.92503 0
M  V30 3436 C 329.707 0.850969 -1.75452 0
M  V30 3437 O 328.977 1.60658 -1.12098 0
M  V30 3438 H 327.557 -0.224613 -0.712431 0
M  V30 3439 H 330.219 -1.21855 -1.5211 0
M  V30 3440 H 329.315 -0.848738 -3.00338 0
M  V30 3441 N 329.616 1.39756 -0.72842 0
M  V30 3442 C 330.893 1.94574 -0.200079 0
M  V30 3443 C 331.273 1.66569 1.29684 0
M  V30 3444 O 330.621 0.990326 2.05924 0
M  V30 3445 C 330.831 3.45004 -0.526608 0
M  V30 3446 C 332.179 4.21965 -0.472318 0
M  V30 3447 O 333.203 3.53173 -0.463413 0
M  V30 3448 O 332.062 5.44552 -0.461075 0
M  V30 3449 H 329.156 0.826289 -0.0342851 0
M  V30 3450 H 331.702 1.49293 -0.806829 0
M  V30 3451 H 330.474 3.58796 -1.56144 0
M  V30 3452 H 330.097 3.97449 0.109449 0
M  V30 3453 N 331.094 0.475555 1.50254 0
M  V30 3454 C 332.027 -0.362381 2.25304 0
M  V30 3455 C 333.005 -0.992393 1.28803 0
M  V30 3456 O 334.189 -1.02746 1.58036 0
M  V30 3457 C 331.316 -1.50813 3.03271 0
M  V30 3458 C 330.362 -0.995044 4.1473 0
M  V30 3459 S 331.195 0.0938436 5.35418 0
M  V30 3460 C 332.351 -1.05567 6.16933 0
M  V30 3461 H 332.584 0.274686 2.96028 0
M  V30 3462 H 330.117 0.260495 1.52187 0
M  V30 3463 H 332.075 -2.16476 3.48781 0
M  V30 3464 H 330.736 -2.11672 2.32064 0
M  V30 3465 H 329.929 -1.85293 4.68703 0
M  V30 3466 H 329.531 -0.416052 3.71679 0
M  V30 3467 H 331.823 -1.96636 6.48337 0
M  V30 3468 H 332.766 -0.555109 7.05921 0
M  V30 3469 H 333.174 -1.31151 5.49053 0
M  V30 3470 N 332.573 -1.56217 0.208337 0
M  V30 3471 C 333.521 -2.21053 -0.723769 0
M  V30 3472 C 334.515 -1.18578 -1.20978 0
M  V30 3473 O 335.721 -1.36691 -1.17114 0
M  V30 3474 H 332.096 -0.708595 -0.251788 0
M  V30 3475 H 334.067 -2.98006 -0.153365 0
M  V30 3476 C 332.816 -2.89417 -1.927 0
M  V30 3477 H 332.139 -3.68019 -1.56212 0
M  V30 3478 H 333.579 -3.38201 -2.55727 0
M  V30 3479 C 332.038 -1.91166 -2.77411 0
M  V30 3480 O 332.568 -1.42026 -3.75754 0
M  V30 3481 N 330.774 -1.59105 -2.43175 0
M  V30 3482 H 330.321 -1.99259 -1.63259 0
M  V30 3483 H 330.279 -0.936255 -3.00136 0
M  V30 3484 N 334.051 0.0651679 -1.57465 0
M  V30 3485 C 335.3 0.761916 -1.86756 0
M  V30 3486 C 335.613 1.78406 -0.801925 0
M  V30 3487 O 336.819 2.53084 -0.982885 0
M  V30 3488 C 335.275 1.40603 -3.31299 0
M  V30 3489 C 334.883 0.422115 -4.46007 0
M  V30 3490 C 336.627 2.08476 -3.69781 0
M  V30 3491 C 334.534 1.07252 -5.81593 0
M  V30 3492 H 333.464 0.288308 -0.696702 0
M  V30 3493 H 336.115 0.015344 -1.83494 0
M  V30 3494 H 334.497 2.20109 -3.29193 0
M  V30 3495 H 335.671 -0.343613 -4.59517 0
M  V30 3496 H 333.986 -0.152527 -4.16121 0
M  V30 3497 H 336.583 2.57925 -4.68379 0
M  V30 3498 H 336.926 2.88712 -2.99919 0
M  V30 3499 H 337.459 1.35792 -3.73905 0
M  V30 3500 H 334.198 0.310342 -6.54765 0
M  V30 3501 H 333.718 1.80895 -5.71872 0
M  V30 3502 H 335.397 1.59043 -6.27148 0
M  V30 3503 N 335.529 1.53961 0.336706 0
M  V30 3504 C 336.759 1.75229 1.09446 0
M  V30 3505 C 337.167 0.494602 1.82621 0
M  V30 3506 O 336.51 -0.543764 1.75468 0
M  V30 3507 C 336.572 2.88288 2.1478 0
M  V30 3508 C 336.236 4.27656 1.6112 0
M  V30 3509 C 337.233 5.08981 1.0599 0
M  V30 3510 C 334.918 4.74161 1.6576 0
M  V30 3511 C 336.912 6.34916 0.562129 0
M  V30 3512 C 334.599 6.00067 1.15595 0
M  V30 3513 C 335.597 6.80278 0.609147 0
M  V30 3514 O 335.285 8.03818 0.114999 0
M  V30 3515 H 335.017 0.588881 0.331956 0
M  V30 3516 H 337.571 2.01614 0.392566 0
M  V30 3517 H 335.801 2.57443 2.88548 0
M  V30 3518 H 337.49 2.97461 2.76174 0
M  V30 3519 H 338.256 4.74213 1.01722 0
M  V30 3520 H 334.135 4.11781 2.07261 0
M  V30 3521 H 337.679 6.9747 0.134668 0
M  V30 3522 H 333.576 6.3433 1.19566 0
M  V30 3523 H 334.344 8.18172 0.231651 0
M  V30 3524 N 337.007 -0.598083 1.45811 0
M  V30 3525 C 337.957 -1.70272 1.51629 0
M  V30 3526 C 338.941 -1.56382 0.378629 0
M  V30 3527 O 340.133 -1.65557 0.626087 0
M  V30 3528 C 337.262 -3.09042 1.49493 0
M  V30 3529 C 336.348 -3.28284 2.68496 0
M  V30 3530 N 336.739 -3.17748 3.93535 0
M  V30 3531 C 335.037 -3.59182 2.64394 0
M  V30 3532 C 335.738 -3.38579 4.7301 0
M  V30 3533 N 334.714 -3.63016 4.04624 0
M  V30 3534 H 338.516 -1.60634 2.46118 0
M  V30 3535 H 336.03 -0.801642 1.41235 0
M  V30 3536 H 338.027 -3.88302 1.51747 0
M  V30 3537 H 336.687 -3.19823 0.560683 0
M  V30 3538 H 337.698 -2.95944 4.25014 0
M  V30 3539 H 334.375 -3.76742 1.79922 0
M  V30 3540 H 335.765 -3.35747 5.82 0
M  V30 3541 N 338.485 -1.33259 -0.841409 0
M  V30 3542 C 339.901 -1.12538 -1.13169 0
M  V30 3543 C 340.101 0.0854037 -2.01319 0
M  V30 3544 O 339.157 0.766417 -2.40587 0
M  V30 3545 C 340.47 -2.41156 -1.79623 0
M  V30 3546 C 342.018 -2.47038 -1.922 0
M  V30 3547 C 342.493 -3.7561 -2.6207 0
M  V30 3548 N 343.984 -3.76667 -2.69585 0
M  V30 3549 C 344.719 -4.72861 -3.2433 0
M  V30 3550 N 344.215 -5.79428 -3.79783 0
M  V30 3551 N 346.008 -4.6034 -3.22558 0
M  V30 3552 H 338.159 -2.10868 -0.254676 0
M  V30 3553 H 340.422 -0.931615 -0.175493 0
M  V30 3554 H 340.128 -3.29747 -1.22311 0
M  V30 3555 H 340.002 -2.53114 -2.79666 0
M  V30 3556 H 342.389 -1.58898 -2.48667 0
M  V30 3557 H 342.47 -2.39022 -0.911148 0
M  V30 3558 H 342.114 -4.64131 -2.06263 0
M  V30 3559 H 342.044 -3.80902 -3.63622 0
M  V30 3560 H 344.535 -2.99648 -2.30259 0
M  V30 3561 H 344.848 -6.48867 -4.19752 0
M  V30 3562 H 343.193 -5.83166 -3.78078 0
M  V30 3563 H 346.384 -3.76244 -2.78492 0
M  V30 3564 H 346.557 -5.35478 -3.64921 0
M  V30 3565 N 339.963 1.05934 -1.16686 0
M  V30 3566 C 340.913 2.11764 -0.844978 0
M  V30 3567 C 341.897 1.59922 0.177178 0
M  V30 3568 O 343.089 1.76983 -0.0241768 0
M  V30 3569 C 340.218 3.41493 -0.351812 0
M  V30 3570 C 339.304 4.00152 -1.40496 0
M  V30 3571 N 339.695 4.32874 -2.61636 0
M  V30 3572 C 337.993 4.278 -1.26106 0
M  V30 3573 C 338.694 4.79552 -3.29249 0
M  V30 3574 N 337.67 4.79211 -2.56628 0
M  V30 3575 H 341.472 2.34916 -1.76612 0
M  V30 3576 H 338.986 1.23511 -1.05446 0
M  V30 3577 H 340.983 4.16773 -0.102796 0
M  V30 3578 H 339.643 3.19778 0.56322 0
M  V30 3579 H 340.654 4.23109 -2.98663 0
M  V30 3580 H 337.331 4.15511 -0.407081 0
M  V30 3581 H 338.721 5.14045 -4.32675 0
M  V30 3582 N 341.441 0.965919 1.2453 0
M  V30 3583 C 342.371 0.513476 2.27784 0
M  V30 3584 C 343.352 -0.445974 1.6415 0
M  V30 3585 O 344.537 -0.342485 1.91156 0
M  V30 3586 C 341.667 -0.198839 3.4673 0
M  V30 3587 C 340.621 0.676456 4.2262 0
M  V30 3588 C 339.947 -0.167248 5.34438 0
M  V30 3589 C 341.247 1.96017 4.84123 0
M  V30 3590 H 342.941 1.3765 2.65881 0
M  V30 3591 H 340.487 0.663321 1.27813 0
M  V30 3592 H 342.44 -0.526567 4.18097 0
M  V30 3593 H 341.164 -1.0962 3.07654 0
M  V30 3594 H 339.823 0.98743 3.53052 0
M  V30 3595 H 339.471 -1.0647 4.91603 0
M  V30 3596 H 339.171 0.415181 5.86131 0
M  V30 3597 H 340.695 -0.489688 6.08633 0
M  V30 3598 H 342.109 1.69814 5.47573 0
M  V30 3599 H 340.506 2.48918 5.4604 0
M  V30 3600 H 341.576 2.65622 4.05676 0
M  V30 3601 N 342.919 -1.39368 0.735821 0
M  V30 3602 C 344.144 -2.05319 0.293052 0
M  V30 3603 C 344.569 -1.55115 -1.064 0
M  V30 3604 O 343.927 -0.695261 -1.67439 0
M  V30 3605 C 343.975 -3.59305 0.305323 0
M  V30 3606 O 343.079 -4.06299 -0.706761 0
M  V30 3607 H 342.42 -0.650529 0.13307 0
M  V30 3608 H 344.95 -1.78386 1.00197 0
M  V30 3609 H 344.96 -4.07724 0.149997 0
M  V30 3610 H 343.635 -3.95207 1.29553 0
M  V30 3611 H 342.212 -3.69292 -0.517504 0
M  V30 3612 N 344.397 -0.483516 -1.5 0
M  V30 3613 C 345.808 -0.0314176 -1.86674 0
M  V30 3614 C 346.159 1.37728 -1.39733 0
M  V30 3615 O 345.284 2.02327 -0.767635 0
M  V30 3616 C 345.879 -0.0502376 -3.38763 0
M  V30 3617 C 344.438 0.346442 -3.74802 0
M  V30 3618 C 343.585 -0.430366 -2.7394 0
M  V30 3619 H 346.536 -0.697182 -1.42566 0
M  V30 3620 H 346.557 0.749116 -3.73053 0
M  V30 3621 H 346.069 -1.07563 -3.72897 0
M  V30 3622 H 344.17 1.37572 -3.46273 0
M  V30 3623 H 344.283 0.0391486 -4.79084 0
M  V30 3624 H 342.647 0.117557 -2.54429 0
M  V30 3625 H 343.43 -1.4555 -3.10918 0
M  V30 3626 N 345.875 1.56104 -0.216619 0
M  V30 3627 C 347.152 1.89988 0.465165 0
M  V30 3628 C 347.532 1.13326 1.78102 0
M  V30 3629 O 346.88 0.241033 2.27225 0
M  V30 3630 C 347.09 3.42646 0.662939 0
M  V30 3631 C 348.438 4.13311 0.972602 0
M  V30 3632 O 349.462 3.48217 0.749901 0
M  V30 3633 O 348.321 5.28396 1.39499 0
M  V30 3634 H 345.415 0.78979 0.245276 0
M  V30 3635 H 347.961 1.67721 -0.258436 0
M  V30 3636 H 346.733 3.90399 -0.26543 0
M  V30 3637 H 346.356 3.70677 1.43821 0
M  V30 3638 N 347.353 -0.0568162 1.57498 0
M  V30 3639 C 348.601 -0.751617 1.87604 0
M  V30 3640 C 348.922 -1.77351 0.81066 0
M  V30 3641 O 348.192 -1.95254 -0.159018 0
M  V30 3642 H 346.772 -0.280583 0.692302 0
M  V30 3643 H 349.434 -0.0293483 1.94878 0
M  V30 3644 H 348.53 -1.25852 2.856 0
M  V30 3645 N 348.832 -1.54138 -0.328536 0
M  V30 3646 C 350.057 -1.76378 -1.09112 0
M  V30 3647 C 350.482 -0.508596 -1.81094 0
M  V30 3648 O 349.84 0.539598 -1.73084 0
M  V30 3649 C 349.888 -2.95358 -2.06872 0
M  V30 3650 O 348.992 -2.66556 -3.14677 0
M  V30 3651 H 348.333 -0.584614 -0.314838 0
M  V30 3652 H 350.863 -2.01146 -0.374348 0
M  V30 3653 H 350.873 -3.22566 -2.4983 0
M  V30 3654 H 349.548 -3.86385 -1.5388 0
M  V30 3655 H 348.125 -2.50282 -2.7643 0
M  V30 3656 N 350.31 0.590341 -1.46126 0
M  V30 3657 C 351.558 1.34616 -1.50742 0
M  V30 3658 C 351.879 1.94363 -0.157486 0
M  V30 3659 O 351.149 1.78136 0.815136 0
M  V30 3660 H 349.729 0.499789 -0.555175 0
M  V30 3661 H 352.391 0.691953 -1.82203 0
M  V30 3662 H 351.487 2.15678 -2.25587 0
M  V30 3663 N 351.788 1.33704 0.83433 0
M  V30 3664 C 353.199 1.22813 1.4062 0
M  V30 3665 C 353.55 -0.151107 1.95617 0
M  V30 3666 O 352.675 -1.05092 1.89168 0
M  V30 3667 C 353.27 2.22355 2.55624 0
M  V30 3668 C 351.829 2.1529 3.08751 0
M  V30 3669 C 350.976 2.09589 1.8157 0
M  V30 3670 H 353.927 1.45236 0.639702 0
M  V30 3671 H 353.948 1.83391 3.33389 0
M  V30 3672 H 353.46 3.22728 2.15566 0
M  V30 3673 H 351.561 1.18235 3.53343 0
M  V30 3674 H 351.674 3.06038 3.68616 0
M  V30 3675 H 350.038 1.55134 2.02004 0
M  V30 3676 H 350.821 3.11777 1.43701 0
M  V30 3677 N 353.266 -1.05314 1.17247 0
M  V30 3678 C 354.229 -2.112 0.890357 0
M  V30 3679 C 355.229 -1.60359 -0.118943 0
M  V30 3680 O 356.419 -1.73833 0.113086 0
M  V30 3681 C 353.551 -3.39266 0.333422 0
M  V30 3682 H 354.744 -2.37659 1.82916 0
M  V30 3683 H 352.297 -1.21538 0.982758 0
M  V30 3684 H 353.032 -3.18462 -0.612587 0
M  V30 3685 H 352.817 -3.77477 1.06082 0
M  V30 3686 H 354.307 -4.17315 0.154322 0
M  V30 3687 N 354.744 -0.972509 -1.24016 0
M  V30 3688 C 355.674 -0.525548 -2.27509 0
M  V30 3689 C 356.655 0.437262 -1.64384 0
M  V30 3690 O 357.84 0.332343 -1.91335 0
M  V30 3691 C 354.97 0.180448 -3.46831 0
M  V30 3692 C 353.924 -0.698859 -4.22256 0
M  V30 3693 C 353.25 0.138903 -5.3452 0
M  V30 3694 C 354.55 -1.98582 -4.83076 0
M  V30 3695 H 356.244 -1.39058 -2.65148 0
M  V30 3696 H 353.79 -0.67009 -1.27459 0
M  V30 3697 H 355.743 0.504387 -4.18371 0
M  V30 3698 H 354.467 1.07987 -3.08231 0
M  V30 3699 H 353.126 -1.00614 -3.52523 0
M  V30 3700 H 352.774 1.03862 -4.9216 0
M  V30 3701 H 352.474 -0.446259 -5.85903 0
M  V30 3702 H 353.998 0.457404 -6.08884 0
M  V30 3703 H 355.412 -1.72715 -5.46665 0
M  V30 3704 H 353.809 -2.5181 -5.44713 0
M  V30 3705 H 354.879 -2.67769 -4.04262 0
M  V30 3706 N 356.222 1.38976 -0.743202 0
M  V30 3707 C 357.469 2.00343 -0.294752 0
M  V30 3708 C 357.797 1.58983 1.12047 0
M  V30 3709 O 357.052 0.813809 1.77977 0
M  V30 3710 C 357.351 3.55647 -0.353517 0
M  V30 3711 C 357.017 4.16685 -1.72292 0
M  V30 3712 C 355.679 4.3307 -2.09771 0
M  V30 3713 C 358.031 4.50464 -2.62168 0
M  V30 3714 C 355.359 4.80526 -3.36618 0
M  V30 3715 C 357.711 4.99332 -3.88395 0
M  V30 3716 C 356.375 5.13924 -4.25956 0
M  V30 3717 H 355.645 0.733108 -0.107857 0
M  V30 3718 H 358.292 1.6618 -0.951651 0
M  V30 3719 H 356.597 3.89884 0.386954 0
M  V30 3720 H 358.294 4.00998 0.0117269 0
M  V30 3721 H 354.884 4.04339 -1.42155 0
M  V30 3722 H 359.068 4.37416 -2.3448 0
M  V30 3723 H 354.324 4.90008 -3.65653 0
M  V30 3724 H 358.498 5.2444 -4.58187 0
M  V30 3725 H 356.125 5.50457 -5.2431 0
M  V30 3726 N 357.7 0.491464 1.49741 0
M  V30 3727 C 358.925 -0.0557177 2.07325 0
M  V30 3728 C 359.35 -1.30925 1.35056 0
M  V30 3729 O 358.708 -1.76733 0.404365 0
M  V30 3730 C 358.756 -0.302074 3.59333 0
M  V30 3731 O 357.86 -1.37868 3.88672 0
M  V30 3732 H 357.201 0.0219956 0.663636 0
M  V30 3733 H 359.731 0.688352 1.92673 0
M  V30 3734 H 359.741 -0.536464 4.04458 0
M  V30 3735 H 358.416 0.61383 4.11345 0
M  V30 3736 H 356.993 -1.12999 3.55367 0
M  V30 3737 N 359.178 -1.55987 0.224894 0
M  V30 3738 C 360.108 -2.23426 -0.678457 0
M  V30 3739 C 361.089 -1.20709 -1.19847 0
M  V30 3740 O 362.274 -1.49304 -1.24186 0
M  V30 3741 C 359.404 -2.91676 -1.88527 0
M  V30 3742 C 358.358 -4.00893 -1.49896 0
M  V30 3743 C 357.684 -4.56455 -2.78483 0
M  V30 3744 C 358.984 -5.17769 -0.686461 0
M  V30 3745 H 360.678 -2.99175 -0.116173 0
M  V30 3746 H 358.224 -1.43897 -0.054436 0
M  V30 3747 H 360.177 -3.37547 -2.5227 0
M  V30 3748 H 358.901 -2.1338 -2.47258 0
M  V30 3749 H 357.56 -3.55758 -0.884985 0
M  V30 3750 H 357.208 -3.74886 -3.35365 0
M  V30 3751 H 356.908 -5.30169 -2.53368 0
M  V30 3752 H 358.432 -5.05047 -3.43162 0
M  V30 3753 H 359.846 -5.60001 -1.22767 0
M  V30 3754 H 358.243 -5.97735 -0.532259 0
M  V30 3755 H 359.313 -4.83932 0.306196 0
M  V30 3756 N 360.656 0.0484629 -1.57525 0
M  V30 3757 C 361.619 1.03956 -2.04269 0
M  V30 3758 C 362.619 1.30211 -0.943496 0
M  V30 3759 O 363.809 1.25539 -1.20771 0
M  V30 3760 C 360.941 2.37742 -2.44319 0
M  V30 3761 H 362.134 0.636182 -2.93075 0
M  V30 3762 H 359.687 0.294811 -1.53494 0
M  V30 3763 H 360.422 2.82866 -1.5861 0
M  V30 3764 H 360.207 2.20021 -3.24551 0
M  V30 3765 H 361.697 3.08936 -2.80978 0
M  V30 3766 N 362.134 1.5431 0.320358 0
M  V30 3767 C 363.082 1.84647 1.4145 0
M  V30 3768 C 364.076 0.718624 1.53402 0
M  V30 3769 O 365.282 0.902335 1.5575 0
M  V30 3770 H 361.657 0.585349 0.472091 0
M  V30 3771 H 363.628 2.7614 1.13089 0
M  V30 3772 C 362.377 2.09341 2.77617 0
M  V30 3773 H 361.7 2.9559 2.69196 0
M  V30 3774 H 363.14 2.3452 3.53237 0
M  V30 3775 C 361.599 0.885939 3.25043 0
M  V30 3776 O 362.129 0.0967891 4.01583 0
M  V30 3777 N 360.335 0.696682 2.82125 0
M  V30 3778 H 359.882 1.34006 2.2 0
M  V30 3779 H 359.84 -0.109712 3.14209 0
M  V30 3780 N 363.613 -0.582584 1.46437 0
M  V30 3781 C 364.546 -1.70633 1.51524 0
M  V30 3782 C 365.524 -1.58349 0.369351 0
M  V30 3783 O 366.708 -1.79563 0.573516 0
M  V30 3784 C 363.835 -3.08687 1.39392 0
M  V30 3785 C 362.881 -3.3949 2.58164 0
M  V30 3786 S 363.714 -3.31548 4.20519 0
M  V30 3787 C 364.87 -4.72139 4.10896 0
M  V30 3788 H 365.103 -1.66058 2.46601 0
M  V30 3789 H 362.636 -0.761337 1.34324 0
M  V30 3790 H 364.594 -3.8833 1.33079 0
M  V30 3791 H 363.255 -3.10751 0.457436 0
M  V30 3792 H 362.448 -4.40071 2.45669 0
M  V30 3793 H 362.05 -2.67415 2.61468 0
M  V30 3794 H 364.342 -5.62527 3.77584 0
M  V30 3795 H 365.285 -4.89692 5.11476 0
M  V30 3796 H 365.693 -4.48995 3.42146 0
M  V30 3797 N 365.091 -1.34144 -0.827227 0
M  V30 3798 C 366.337 -1.26446 -1.58554 0
M  V30 3799 C 366.67 0.1664 -1.93486 0
M  V30 3800 O 365.945 1.1107 -1.59667 0
M  V30 3801 C 366.228 -2.15111 -2.8879 0
M  V30 3802 C 366.081 -3.66712 -2.60465 0
M  V30 3803 C 367.4 -2.03311 -3.90324 0
M  V30 3804 H 364.519 -0.46067 -0.575284 0
M  V30 3805 H 367.161 -1.64356 -0.953269 0
M  V30 3806 H 365.311 -1.8291 -3.42748 0
M  V30 3807 H 366.983 -4.09259 -2.1285 0
M  V30 3808 H 365.226 -3.88014 -1.93978 0
M  V30 3809 H 365.897 -4.24112 -3.53317 0
M  V30 3810 H 368.373 -2.31574 -3.45706 0
M  V30 3811 H 367.249 -2.67582 -4.79261 0
M  V30 3812 H 367.51 -1.00879 -4.30437 0
M  V30 3813 N 366.569 1.04691 -1.17803 0
M  V30 3814 C 367.516 2.12557 -0.899343 0
M  V30 3815 C 368.486 1.65339 0.158771 0
M  V30 3816 O 369.671 1.90789 0.0204797 0
M  V30 3817 C 366.811 3.42481 -0.424315 0
M  V30 3818 C 365.924 4.03346 -1.54713 0
M  V30 3819 C 365.059 5.21208 -1.02546 0
M  V30 3820 C 364.098 5.74089 -2.12339 0
M  V30 3821 N 363.235 6.83247 -1.61612 0
M  V30 3822 H 368.075 2.35734 -1.823 0
M  V30 3823 H 365.612 1.1564 -0.909159 0
M  V30 3824 H 367.57 4.16996 -0.130421 0
M  V30 3825 H 366.2 3.19471 0.462377 0
M  V30 3826 H 365.252 3.2622 -1.95664 0
M  V30 3827 H 366.564 4.38628 -2.37501 0
M  V30 3828 H 365.718 6.02812 -0.685718 0
M  V30 3829 H 364.457 4.87414 -0.167084 0
M  V30 3830 H 363.462 4.91111 -2.47165 0
M  V30 3831 H 364.687 6.0993 -2.98601 0
M  V30 3832 H 362.633 6.5134 -0.780533 0
M  V30 3833 H 362.55 7.17559 -2.38003 0
M  V30 3834 H 363.818 7.68491 -1.30545 0
M  V30 3835 N 368.047 0.979072 1.23499 0
M  V30 3836 C 369.458 0.684391 1.73704 0
M  V30 3837 C 369.809 -0.799448 1.79174 0
M  V30 3838 O 368.934 -1.62531 1.42873 0
M  V30 3839 C 369.529 1.23564 3.15464 0
M  V30 3840 C 368.088 0.99063 3.6313 0
M  V30 3841 C 367.235 1.36416 2.41425 0
M  V30 3842 H 370.186 1.15307 1.09041 0
M  V30 3843 H 370.207 0.607417 3.7562 0
M  V30 3844 H 369.719 2.31561 3.1145 0
M  V30 3845 H 367.82 -0.0733136 3.72528 0
M  V30 3846 H 367.933 1.64427 4.5 0
M  V30 3847 H 366.297 0.782616 2.42378 0
M  V30 3848 H 367.08 2.45387 2.40083 0
M  V30 3849 N 369.525 -1.3858 0.750561 0
M  V30 3850 C 370.773 -1.99789 0.30477 0
M  V30 3851 C 371.094 -1.59874 -1.11649 0
M  V30 3852 O 370.364 -0.85417 -1.76297 0
M  V30 3853 H 368.944 -0.738902 0.109694 0
M  V30 3854 H 371.606 -1.69391 0.963983 0
M  V30 3855 H 370.702 -3.09952 0.365499 0
M  V30 3856 N 371.003 -0.499398 -1.49478 0
M  V30 3857 C 372.231 0.0425456 -2.06856 0
M  V30 3858 C 372.646 1.30964 -1.35992 0
M  V30 3859 O 372.003 1.77172 -0.437762 0
M  V30 3860 C 372.054 0.301735 -3.60239 0
M  V30 3861 O 371.775 -0.915127 -4.28436 0
M  V30 3862 C 373.276 0.887499 -4.34325 0
M  V30 3863 H 370.496 -0.0197482 -0.670709 0
M  V30 3864 H 373.04 -0.696297 -1.92281 0
M  V30 3865 H 371.195 0.990556 -3.74522 0
M  V30 3866 H 371.609 -0.676993 -5.20113 0
M  V30 3867 H 373.083 1.01845 -5.42523 0
M  V30 3868 H 373.56 1.88488 -3.96698 0
M  V30 3869 H 374.166 0.236196 -4.24644 0
M  V30 3870 N 372.481 1.55866 -0.233164 0
M  V30 3871 C 373.728 1.98603 0.395374 0
M  V30 3872 C 374.056 1.12105 1.58942 0
M  V30 3873 O 373.311 0.168656 1.94972 0
M  V30 3874 C 373.61 3.46856 0.861724 0
M  V30 3875 C 373.276 4.50348 -0.223066 0
M  V30 3876 C 371.938 4.78371 -0.521038 0
M  V30 3877 C 374.29 5.12355 -0.956124 0
M  V30 3878 C 371.618 5.6568 -1.55638 0
M  V30 3879 C 373.97 6.00786 -1.98089 0
M  V30 3880 C 372.634 6.27148 -2.28565 0
M  V30 3881 H 371.904 0.726739 0.144677 0
M  V30 3882 H 374.551 1.88491 -0.338114 0
M  V30 3883 H 372.856 3.5423 1.67418 0
M  V30 3884 H 374.553 3.77302 1.35809 0
M  V30 3885 H 371.143 4.28596 0.0193234 0
M  V30 3886 H 375.327 4.90765 -0.739166 0
M  V30 3887 H 370.583 5.84365 -1.798 0
M  V30 3888 H 374.757 6.4788 -2.55391 0
M  V30 3889 H 372.384 6.94597 -3.08932 0
M  V30 3890 N 373.959 -0.0401083 1.57549 0
M  V30 3891 C 375.236 -0.767917 1.79896 0
M  V30 3892 C 375.616 -1.9416 0.82856 0
M  V30 3893 O 374.964 -2.2812 -0.131671 0
M  V30 3894 C 375.174 -1.2113 3.27305 0
M  V30 3895 C 376.522 -1.63175 3.91994 0
M  V30 3896 O 377.546 -1.30616 3.31388 0
M  V30 3897 O 376.405 -2.23565 4.98679 0
M  V30 3898 H 373.499 -0.370441 0.739393 0
M  V30 3899 H 376.045 -0.017737 1.69691 0
M  V30 3900 H 374.817 -0.372937 3.89519 0
M  V30 3901 H 374.44 -2.02183 3.42356 0
M  V30 3902 N 375.437 -1.54477 -0.31217 0
M  V30 3903 C 376.848 -1.64344 -0.885891 0
M  V30 3904 C 377.199 -0.54485 -1.88483 0
M  V30 3905 O 376.324 0.320387 -2.14015 0
M  V30 3906 C 376.919 -2.97908 -1.61357 0
M  V30 3907 C 375.478 -3.09933 -2.13585 0
M  V30 3908 C 374.625 -2.59971 -0.964897 0
M  V30 3909 H 377.576 -1.58448 -0.0894528 0
M  V30 3910 H 377.597 -2.88706 -2.47848 0
M  V30 3911 H 377.109 -3.77845 -0.886277 0
M  V30 3912 H 375.21 -2.34694 -2.89395 0
M  V30 3913 H 375.323 -4.15916 -2.37804 0
M  V30 3914 H 373.687 -2.16147 -1.34731 0
M  V30 3915 H 374.47 -3.42376 -0.251742 0
M  V30 3916 N 376.915 0.57481 -1.46744 0
M  V30 3917 C 377.825 1.711 -1.60505 0
M  V30 3918 C 378.841 1.67008 -0.488307 0
M  V30 3919 O 380.017 1.86774 -0.753495 0
M  V30 3920 C 377.082 3.07608 -1.59932 0
M  V30 3921 C 376.143 3.22904 -2.82898 0
M  V30 3922 C 375.376 4.529 -2.82343 0
M  V30 3923 O 375.599 5.37278 -1.91542 0
M  V30 3924 O 374.533 4.71611 -3.73987 0
M  V30 3925 H 378.359 1.62436 -2.56609 0
M  V30 3926 H 375.944 0.742779 -1.29627 0
M  V30 3927 H 377.826 3.88877 -1.62336 0
M  V30 3928 H 376.501 3.16692 -0.669898 0
M  V30 3929 H 375.408 2.41099 -2.86046 0
M  V30 3930 H 376.741 3.18715 -3.75076 0
M  V30 3931 N 378.394 1.34581 0.820102 0
M  V30 3932 C 379.327 1.20735 1.93644 0
M  V30 3933 C 380.305 0.0983343 1.62302 0
M  V30 3934 O 381.489 0.263997 1.86642 0
M  V30 3935 C 378.616 0.856037 3.27704 0
M  V30 3936 C 377.662 1.97521 3.78005 0
M  V30 3937 S 378.495 3.58906 3.97425 0
M  V30 3938 C 379.651 3.25822 5.34407 0
M  V30 3939 H 379.884 2.15231 2.05093 0
M  V30 3940 H 377.417 1.1964 0.97599 0
M  V30 3941 H 379.375 0.660133 4.05157 0
M  V30 3942 H 378.036 -0.0706253 3.14021 0
M  V30 3943 H 377.229 1.68321 4.75062 0
M  V30 3944 H 376.831 2.12875 3.07507 0
M  V30 3945 H 379.123 2.77812 6.17922 0
M  V30 3946 H 380.066 4.22029 5.68592 0
M  V30 3947 H 380.474 2.61932 5.00052 0
M  V30 3948 N 379.872 -1.04064 1.18357 0
M  V30 3949 C 380.819 -2.12077 0.910603 0
M  V30 3950 C 381.789 -1.65421 -0.15 0
M  V30 3951 O 382.974 -1.90797 -0.0103614 0
M  V30 3952 C 380.114 -3.42252 0.442472 0
M  V30 3953 C 379.227 -4.0252 1.5685 0
M  V30 3954 C 378.362 -5.20657 1.05309 0
M  V30 3955 C 377.401 -5.72955 2.1538 0
M  V30 3956 N 376.538 -6.8238 1.65233 0
M  V30 3957 H 381.378 -2.34764 1.83548 0
M  V30 3958 H 378.915 -1.15157 0.915279 0
M  V30 3959 H 380.873 -4.16921 0.152534 0
M  V30 3960 H 379.503 -3.19712 -0.445428 0
M  V30 3961 H 378.555 -3.25178 1.97391 0
M  V30 3962 H 379.867 -4.37362 2.39824 0
M  V30 3963 H 379.021 -6.0244 0.717677 0
M  V30 3964 H 377.76 -4.87318 0.19293 0
M  V30 3965 H 376.765 -4.89793 2.49766 0
M  V30 3966 H 377.99 -6.08337 3.01832 0
M  V30 3967 H 375.936 -6.50917 0.815064 0
M  V30 3968 H 375.853 -7.16286 2.41805 0
M  V30 3969 H 377.121 -7.67788 1.34619 0
M  V30 3970 N 381.35 -0.985608 -1.22978 0
M  V30 3971 C 382.627 -0.573599 -1.87001 0
M  V30 3972 C 383.007 0.949213 -1.88555 0
M  V30 3973 O 382.355 1.82811 -1.37086 0
M  V30 3974 C 382.565 -1.18564 -3.28243 0
M  V30 3975 C 383.913 -1.28163 -4.04796 0
M  V30 3976 O 384.937 -1.13949 -3.37482 0
M  V30 3977 O 383.796 -1.50832 -5.25273 0
M  V30 3978 H 380.89 -0.193868 -0.803955 0
M  V30 3979 H 383.436 -1.08102 -1.30813 0
M  V30 3980 H 382.208 -2.22758 -3.21706 0
M  V30 3981 H 381.831 -0.663363 -3.92027 0
M  V30 3982 N 382.828 1.3818 -0.7579 0
M  V30 3983 C 384.075 2.00019 -0.315985 0
M  V30 3984 C 384.403 1.60163 1.10355 0
M  V30 3985 O 383.658 0.83264 1.77103 0
M  V30 3986 C 383.957 3.55252 -0.391218 0
M  V30 3987 C 383.623 4.14834 -1.76702 0
M  V30 3988 C 382.285 4.30821 -2.14353 0
M  V30 3989 C 384.637 4.47658 -2.66931 0
M  V30 3990 C 381.965 4.76928 -3.41696 0
M  V30 3991 C 384.317 4.95184 -3.93669 0
M  V30 3992 C 382.981 5.09377 -4.31383 0
M  V30 3993 H 382.251 0.731923 -0.115627 0
M  V30 3994 H 384.898 1.65161 -0.969223 0
M  V30 3995 H 383.203 3.90273 0.34558 0
M  V30 3996 H 384.9 4.00988 -0.030805 0
M  V30 3997 H 381.49 4.02808 -1.46435 0
M  V30 3998 H 385.674 4.34904 -2.39106 0
M  V30 3999 H 380.93 4.86103 -3.70829 0
M  V30 4000 H 385.104 5.19551 -4.63724 0
M  V30 4001 H 382.731 5.44865 -5.30119 0
M  V30 4002 N 384.306 0.507319 1.49211 0
M  V30 4003 C 385.534 -0.0315749 2.06876 0
M  V30 4004 C 385.949 -1.30241 1.36685 0
M  V30 4005 O 385.306 -1.76937 0.447152 0
M  V30 4006 C 385.357 -0.282627 3.60393 0
M  V30 4007 O 385.078 0.937835 4.27944 0
M  V30 4008 C 386.579 -0.864453 4.3479 0
M  V30 4009 H 383.799 0.0233048 0.670595 0
M  V30 4010 H 386.343 0.706484 1.91909 0
M  V30 4011 H 384.498 -0.97068 3.75042 0
M  V30 4012 H 384.912 0.704567 5.19746 0
M  V30 4013 H 386.386 -0.989664 5.43056 0
M  V30 4014 H 386.863 -1.86382 3.97692 0
M  V30 4015 H 387.469 -0.213672 4.24763 0
M  V30 4016 N 385.784 -1.5574 0.241426 0
M  V30 4017 C 387.012 -2.03208 -0.389134 0
M  V30 4018 C 387.427 -1.12082 -1.51931 0
M  V30 4019 O 386.784 -0.134183 -1.82006 0
M  V30 4020 C 386.835 -3.50064 -0.902087 0
M  V30 4021 O 386.556 -4.37717 0.18305 0
M  V30 4022 C 388.057 -4.13268 -1.60389 0
M  V30 4023 H 385.277 -0.664509 -0.0931053 0
M  V30 4024 H 387.821 -2.0124 0.36369 0
M  V30 4025 H 385.976 -3.52583 -1.60511 0
M  V30 4026 H 386.39 -5.24097 -0.205579 0
M  V30 4027 H 387.864 -5.17733 -1.91458 0
M  V30 4028 H 388.341 -3.59434 -2.52397 0
M  V30 4029 H 388.947 -4.14655 -0.945576 0
M  V30 4030 N 387.262 0.0317525 -1.57568 0
M  V30 4031 C 388.673 0.578692 -1.77505 0
M  V30 4032 C 389.024 1.75749 -0.872164 0
M  V30 4033 O 388.149 2.16298 -0.0663106 0
M  V30 4034 C 388.744 1.05658 -3.21904 0
M  V30 4035 C 387.303 1.54906 -3.43047 0
M  V30 4036 C 386.45 0.485939 -2.73009 0
M  V30 4037 H 389.401 -0.194475 -1.57504 0
M  V30 4038 H 389.422 1.92404 -3.28269 0
M  V30 4039 H 388.934 0.198422 -3.87592 0
M  V30 4040 H 387.035 2.42915 -2.82529 0
M  V30 4041 H 387.148 1.59841 -4.5165 0
M  V30 4042 H 385.512 0.940354 -2.36705 0
M  V30 4043 H 386.295 -0.362709 -3.41379 0
M  V30 4044 N 388.74 1.54641 0.303973 0
M  V30 4045 C 389.988 1.73437 1.0375 0
M  V30 4046 C 390.309 0.521449 1.87899 0
M  V30 4047 O 389.579 -0.46432 1.90318 0
M  V30 4048 H 388.159 0.639518 0.386039 0
M  V30 4049 H 390.821 1.91988 0.335675 0
M  V30 4050 H 389.917 2.62235 1.69231 0
M  V30 4051 N 390.218 -0.567019 1.47046 0
M  V30 4052 C 391.464 -1.32658 1.53394 0
M  V30 4053 C 391.797 -1.93254 0.19148 0
M  V30 4054 O 391.072 -1.77338 -0.798844 0
M  V30 4055 C 391.355 -2.44412 2.64452 0
M  V30 4056 C 391.208 -1.88749 4.08282 0
M  V30 4057 C 392.527 -3.46387 2.71485 0
M  V30 4058 H 389.646 -0.48098 0.558415 0
M  V30 4059 H 392.288 -0.635481 1.79058 0
M  V30 4060 H 390.438 -3.03363 2.427 0
M  V30 4061 H 392.11 -1.34134 4.41368 0
M  V30 4062 H 390.353 -1.19481 4.17021 0
M  V30 4063 H 391.024 -2.69491 4.81745 0
M  V30 4064 H 393.5 -2.9734 2.91081 0
M  V30 4065 H 392.376 -4.2202 3.50985 0
M  V30 4066 H 392.637 -4.04616 1.78153 0
M  V30 4067 N 391.696 -1.35014 -0.812953 0
M  V30 4068 C 392.924 -1.31031 -1.6012 0
M  V30 4069 C 393.339 0.113558 -1.88458 0
M  V30 4070 O 392.696 1.06363 -1.48301 0
M  V30 4071 C 392.747 -2.10872 -2.93624 0
M  V30 4072 O 392.468 -3.47706 -2.66518 0
M  V30 4073 C 393.969 -2.14401 -3.88004 0
M  V30 4074 H 391.189 -0.45037 -0.497401 0
M  V30 4075 H 393.733 -1.77775 -1.01076 0
M  V30 4076 H 391.888 -1.67744 -3.492 0
M  V30 4077 H 392.302 -3.89097 -3.51715 0
M  V30 4078 H 393.776 -2.74669 -4.78812 0
M  V30 4079 H 394.253 -1.14105 -4.24119 0
M  V30 4080 H 394.859 -2.57662 -3.38364 0
M  V30 4081 N 393.175 1.03435 -1.18907 0
M  V30 4082 C 394.424 1.76143 -0.982669 0
M  V30 4083 C 394.737 1.89416 0.487953 0
M  V30 4084 O 395.943 2.59041 0.813036 0
M  V30 4085 C 394.399 3.16722 -1.70924 0
M  V30 4086 C 394.007 3.11522 -3.21959 0
M  V30 4087 C 395.751 3.93764 -1.58588 0
M  V30 4088 C 393.658 4.46999 -3.87228 0
M  V30 4089 H 392.588 0.660292 -0.364047 0
M  V30 4090 H 395.239 1.158 -1.42347 0
M  V30 4091 H 393.621 3.775 -1.19623 0
M  V30 4092 H 394.795 2.60158 -3.80335 0
M  V30 4093 H 393.11 2.47978 -3.34508 0
M  V30 4094 H 395.707 4.93963 -2.04707 0
M  V30 4095 H 396.05 4.12794 -0.539142 0
M  V30 4096 H 396.583 3.39576 -2.07203 0
M  V30 4097 H 393.322 4.33174 -4.91976 0
M  V30 4098 H 392.842 4.98441 -3.33642 0
M  V30 4099 H 394.521 5.15898 -3.90459 0
M  V30 4100 N 394.653 0.992116 1.22453 0
M  V30 4101 C 395.9 0.667534 1.91181 0
M  V30 4102 C 396.228 -0.800317 1.77271 0
M  V30 4103 O 395.483 -1.59421 1.13505 0
M  V30 4104 C 395.782 1.01832 3.42586 0
M  V30 4105 C 395.448 2.47831 3.76684 0
M  V30 4106 C 394.11 2.87729 3.85701 0
M  V30 4107 C 396.462 3.42466 3.92895 0
M  V30 4108 C 393.79 4.21252 4.08367 0
M  V30 4109 C 396.142 4.75648 4.17064 0
M  V30 4110 C 394.806 5.15288 4.24305 0
M  V30 4111 H 394.076 0.244268 0.699581 0
M  V30 4112 H 396.723 1.24816 1.45235 0
M  V30 4113 H 395.028 0.355769 3.90181 0
M  V30 4114 H 396.725 0.745228 3.94014 0
M  V30 4115 H 393.315 2.15905 3.70247 0
M  V30 4116 H 397.499 3.12814 3.85307 0
M  V30 4117 H 392.755 4.51554 4.122 0
M  V30 4118 H 396.929 5.48924 4.2855 0
M  V30 4119 H 394.556 6.18769 4.41621 0
M  V30 4120 N 396.131 -1.37776 0.765217 0
M  V30 4121 C 397.064 -2.28008 0.0935025 0
M  V30 4122 C 398.042 -1.45985 -0.716047 0
M  V30 4123 O 399.226 -1.75331 -0.692203 0
M  V30 4124 C 396.353 -3.27228 -0.874052 0
M  V30 4125 C 395.399 -4.26239 -0.149307 0
M  V30 4126 S 396.232 -5.22827 1.15809 0
M  V30 4127 C 397.388 -6.256 0.193906 0
M  V30 4128 H 397.621 -2.84631 0.858637 0
M  V30 4129 H 395.154 -1.43952 0.558313 0
M  V30 4130 H 397.112 -3.84902 -1.42691 0
M  V30 4131 H 395.773 -2.69565 -1.61225 0
M  V30 4132 H 394.966 -4.96213 -0.88254 0
M  V30 4133 H 394.568 -3.7252 0.332366 0
M  V30 4134 H 396.86 -6.74508 -0.636011 0
M  V30 4135 H 397.803 -7.02838 0.861638 0
M  V30 4136 H 398.211 -5.64173 -0.191975 0
M  V30 4137 N 397.609 -0.515225 -1.4894 0
M  V30 4138 C 398.541 0.292481 -2.27326 0
M  V30 4139 C 399.554 0.917838 -1.3446 0
M  V30 4140 O 400.743 0.798772 -1.5963 0
M  V30 4141 C 397.843 1.42803 -3.07344 0
M  V30 4142 C 397.016 0.907347 -4.27885 0
M  V30 4143 C 396.075 1.92222 -4.89834 0
M  V30 4144 O 395.101 1.48506 -5.49486 0
M  V30 4145 N 396.303 3.25355 -4.80754 0
M  V30 4146 H 399.068 -0.379721 -2.97285 0
M  V30 4147 H 396.629 -0.348638 -1.58102 0
M  V30 4148 H 398.621 2.10481 -3.45658 0
M  V30 4149 H 397.191 2.00414 -2.39902 0
M  V30 4150 H 396.411 0.0550218 -3.94162 0
M  V30 4151 H 397.699 0.538108 -5.05946 0
M  V30 4152 H 397.097 3.6355 -4.33414 0
M  V30 4153 H 395.654 3.88707 -5.23211 0
M  V30 4154 N 399.087 1.5561 -0.249682 0
M  V30 4155 C 400.333 1.99306 0.374841 0
M  V30 4156 C 400.666 1.13767 1.57387 0
M  V30 4157 O 399.941 0.201711 1.93451 0
M  V30 4158 C 400.224 3.51507 0.781986 0
M  V30 4159 C 400.077 4.4781 -0.422629 0
M  V30 4160 C 401.396 4.08884 1.62793 0
M  V30 4161 H 398.515 0.724572 0.134773 0
M  V30 4162 H 401.157 1.86719 -0.351549 0
M  V30 4163 H 399.307 3.62363 1.4009 0
M  V30 4164 H 400.979 4.48931 -1.06108 0
M  V30 4165 H 399.222 4.20518 -1.06524 0
M  V30 4166 H 399.893 5.51919 -0.0943766 0
M  V30 4167 H 402.369 4.01147 1.10547 0
M  V30 4168 H 401.245 5.1564 1.88166 0
M  V30 4169 H 401.506 3.57515 2.60068 0
M  V30 4170 N 400.565 -0.0233959 1.57583 0
M  V30 4171 C 401.976 -0.56927 1.77809 0
M  V30 4172 C 402.327 -1.75284 0.881472 0
M  V30 4173 O 401.452 -2.1626 0.0777805 0
M  V30 4174 C 402.047 -1.03949 3.22459 0
M  V30 4175 C 400.606 -1.53084 3.43864 0
M  V30 4176 C 399.753 -0.471454 2.73263 0
M  V30 4177 H 402.704 0.202825 1.57399 0
M  V30 4178 H 402.725 -1.90661 3.29285 0
M  V30 4179 H 402.237 -0.177865 3.87692 0
M  V30 4180 H 400.338 -2.41414 2.83814 0
M  V30 4181 H 400.451 -1.57443 4.52491 0
M  V30 4182 H 398.815 -0.927788 2.37201 0
M  V30 4183 H 399.598 0.380808 3.41181 0
M  V30 4184 N 402.043 -1.548 -0.295768 0
M  V30 4185 C 403.268 -1.78653 -1.05346 0
M  V30 4186 C 403.693 -0.546894 -1.79974 0
M  V30 4187 O 403.051 0.502763 -1.7419 0
M  V30 4188 C 403.099 -2.99679 -2.00561 0
M  V30 4189 O 402.203 -2.7317 -3.08953 0
M  V30 4190 H 401.544 -0.59116 -0.302367 0
M  V30 4191 H 404.074 -2.01895 -0.331598 0
M  V30 4192 H 404.084 -3.27793 -2.42932 0
M  V30 4193 H 402.759 -3.89562 -1.4565 0
M  V30 4194 H 401.336 -2.56089 -2.71059 0
M  V30 4195 N 403.521 0.559213 -1.47345 0
M  V30 4196 C 404.751 1.33999 -1.57251 0
M  V30 4197 C 405.159 1.87905 -0.220978 0
M  V30 4198 O 404.502 1.65577 0.795617 0
M  V30 4199 C 404.564 2.54798 -2.53611 0
M  V30 4200 C 404.228 2.22192 -3.99349 0
M  V30 4201 C 405.225 1.79607 -4.87891 0
M  V30 4202 C 402.91 2.33613 -4.44669 0
M  V30 4203 C 404.904 1.48868 -6.19772 0
M  V30 4204 C 402.591 2.02487 -5.76578 0
M  V30 4205 C 403.589 1.60183 -6.63951 0
M  V30 4206 O 403.277 1.29451 -7.93409 0
M  V30 4207 H 403.009 0.414858 -0.533731 0
M  V30 4208 H 405.563 0.684465 -1.9366 0
M  V30 4209 H 403.793 3.23235 -2.12265 0
M  V30 4210 H 405.482 3.16873 -2.53666 0
M  V30 4211 H 406.248 1.70278 -4.54126 0
M  V30 4212 H 402.127 2.65501 -3.76869 0
M  V30 4213 H 405.671 1.15775 -6.87926 0
M  V30 4214 H 401.568 2.11448 -6.09885 0
M  V30 4215 H 402.336 1.43098 -8.05894 0
M  V30 4216 N 404.999 1.35443 0.805782 0
M  V30 4217 C 406.247 1.28507 1.55982 0
M  V30 4218 C 406.568 -0.140046 1.94496 0
M  V30 4219 O 405.838 -1.07666 1.63661 0
M  V30 4220 H 404.418 0.472676 0.578434 0
M  V30 4221 H 407.08 1.69555 0.961098 0
M  V30 4222 H 406.176 1.90148 2.47488 0
M  V30 4223 N 406.477 -1.02803 1.19454 0
M  V30 4224 C 407.754 -1.73299 0.907013 0
M  V30 4225 C 408.134 -2.02772 -0.587086 0
M  V30 4226 O 407.482 -1.68304 -1.54551 0
M  V30 4227 C 407.692 -3.00912 1.76785 0
M  V30 4228 C 409.04 -3.74403 2.00268 0
M  V30 4229 O 410.064 -3.10841 1.73943 0
M  V30 4230 O 408.923 -4.88675 2.4466 0
M  V30 4231 H 406.017 -0.754727 0.338106 0
M  V30 4232 H 408.563 -1.08754 1.30271 0
M  V30 4233 H 407.335 -2.75366 2.7801 0
M  V30 4234 H 406.958 -3.73197 1.37149 0
M  V30 4235 N 407.956 -0.998596 -1.21925 0
M  V30 4236 C 408.866 -0.562736 -2.27751 0
M  V30 4237 C 409.882 0.391203 -1.69545 0
M  V30 4238 O 411.058 0.256625 -1.99758 0
M  V30 4239 C 408.123 0.11012 -3.46525 0
M  V30 4240 C 407.184 -0.887495 -4.20026 0
M  V30 4241 C 406.417 -0.246654 -5.3313 0
M  V30 4242 O 406.64 0.958088 -5.62296 0
M  V30 4243 O 405.574 -0.954374 -5.94286 0
M  V30 4244 H 409.4 -1.44329 -2.67213 0
M  V30 4245 H 406.985 -0.767135 -1.28201 0
M  V30 4246 H 408.867 0.486756 -4.18579 0
M  V30 4247 H 407.542 0.965154 -3.08976 0
M  V30 4248 H 406.449 -1.31517 -3.5022 0
M  V30 4249 H 407.782 -1.71191 -4.6147 0
M  V30 4250 N 409.434 1.37368 -0.772513 0
M  V30 4251 C 410.364 2.32856 -0.173304 0
M  V30 4252 C 411.345 1.55818 0.682262 0
M  V30 4253 O 412.53 1.84052 0.619566 0
M  V30 4254 C 409.66 3.40048 0.706007 0
M  V30 4255 C 408.614 4.27973 -0.0483144 0
M  V30 4256 C 407.94 5.26184 0.950491 0
M  V30 4257 C 409.24 5.07665 -1.22776 0
M  V30 4258 H 410.934 2.83217 -0.971002 0
M  V30 4259 H 408.48 1.3617 -0.468377 0
M  V30 4260 H 410.433 4.05827 1.13501 0
M  V30 4261 H 409.157 2.88214 1.53623 0
M  V30 4262 H 407.816 3.63726 -0.458107 0
M  V30 4263 H 407.464 4.7063 1.77529 0
M  V30 4264 H 407.164 5.85872 0.450314 0
M  V30 4265 H 408.688 5.94838 1.37842 0
M  V30 4266 H 410.102 5.66578 -0.875366 0
M  V30 4267 H 408.499 5.76681 -1.66007 0
M  V30 4268 H 409.569 4.40294 -2.03149 0
M  V30 4269 N 410.912 0.523116 1.48665 0
M  V30 4270 C 411.844 -0.280421 2.27478 0
M  V30 4271 C 412.857 -0.910694 1.34945 0
M  V30 4272 O 414.046 -0.790295 1.60052 0
M  V30 4273 C 411.146 -1.41171 3.08097 0
M  V30 4274 C 410.319 -0.884642 4.28361 0
M  V30 4275 C 409.378 -1.89622 4.90846 0
M  V30 4276 O 408.404 -1.4559 5.50265 0
M  V30 4277 N 409.606 -3.22801 4.82472 0
M  V30 4278 H 412.371 0.395481 2.97079 0
M  V30 4279 H 409.932 0.357018 1.57915 0
M  V30 4280 H 411.924 -2.08645 3.4677 0
M  V30 4281 H 410.494 -1.99139 2.40961 0
M  V30 4282 H 409.714 -0.0341177 3.94185 0
M  V30 4283 H 411.002 -0.511268 5.06225 0
M  V30 4284 H 410.4 -3.61246 4.35336 0
M  V30 4285 H 408.957 -3.85927 5.25265 0
M  V30 4286 N 412.39 -1.55475 0.257931 0
M  V30 4287 C 413.338 -2.23244 -0.653076 0
M  V30 4288 C 414.332 -1.22366 -1.17144 0
M  V30 4289 O 415.538 -1.40347 -1.12706 0
M  V30 4290 H 411.913 -0.716247 -0.229117 0
M  V30 4291 H 413.884 -2.98343 -0.0584788 0
M  V30 4292 C 412.633 -2.95401 -1.83395 0
M  V30 4293 H 411.956 -3.72802 -1.44424 0
M  V30 4294 H 413.396 -3.46165 -2.44838 0
M  V30 4295 C 411.855 -1.99895 -2.71189 0
M  V30 4296 O 412.385 -1.53909 -3.71046 0
M  V30 4297 N 410.591 -1.6676 -2.3799 0
M  V30 4298 H 410.138 -2.04352 -1.56837 0
M  V30 4299 H 410.096 -1.03127 -2.97005 0
M  V30 4300 N 413.868 0.0150385 -1.57593 0
M  V30 4301 C 415.115 0.703001 -1.89906 0
M  V30 4302 C 415.443 1.74604 -0.856944 0
M  V30 4303 O 414.698 1.95197 0.140287 0
M  V30 4304 C 414.997 1.39686 -3.28972 0
M  V30 4305 C 414.663 0.488457 -4.48246 0
M  V30 4306 C 413.325 0.2383 -4.8061 0
M  V30 4307 C 415.677 -0.137881 -5.21018 0
M  V30 4308 C 413.005 -0.646738 -5.83125 0
M  V30 4309 C 415.357 -1.0107 -6.24474 0
M  V30 4310 C 414.021 -1.27019 -6.55303 0
M  V30 4311 H 413.291 0.257246 -0.694914 0
M  V30 4312 H 415.938 -0.037259 -1.91464 0
M  V30 4313 H 414.243 2.21079 -3.23468 0
M  V30 4314 H 415.94 1.93495 -3.51227 0
M  V30 4315 H 412.53 0.693593 -4.22951 0
M  V30 4316 H 416.714 0.0423953 -4.96282 0
M  V30 4317 H 411.97 -0.855937 -6.05379 0
M  V30 4318 H 416.144 -1.50247 -6.79999 0
M  V30 4319 H 413.771 -1.95769 -7.3456 0
M  V30 4320 N 415.346 1.54954 0.287554 0
M  V30 4321 C 416.293 1.86834 1.35505 0
M  V30 4322 C 417.263 0.718452 1.49758 0
M  V30 4323 O 418.448 0.968358 1.644 0
M  V30 4324 C 415.588 2.13303 2.71286 0
M  V30 4325 C 414.701 3.40883 2.65373 0
M  V30 4326 C 413.836 3.57125 3.93236 0
M  V30 4327 C 412.875 4.78449 3.81776 0
M  V30 4328 N 412.012 4.91426 5.01443 0
M  V30 4329 H 416.852 2.77889 1.07619 0
M  V30 4330 H 414.389 1.37593 0.520241 0
M  V30 4331 H 416.347 2.26646 3.50267 0
M  V30 4332 H 414.977 1.25499 2.97405 0
M  V30 4333 H 414.029 3.36088 1.78182 0
M  V30 4334 H 415.341 4.29993 2.52799 0
M  V30 4335 H 414.495 3.70207 4.80658 0
M  V30 4336 H 413.234 2.66173 4.0866 0
M  V30 4337 H 412.239 4.65386 2.92738 0
M  V30 4338 H 413.464 5.70822 3.67884 0
M  V30 4339 H 411.41 4.03401 5.17304 0
M  V30 4340 H 411.327 5.74559 4.91343 0
M  V30 4341 H 412.595 5.08879 5.90477 0
M  V30 4342 N 416.824 -0.551391 1.4764 0
M  V30 4343 C 417.754 -1.66757 1.63445 0
M  V30 4344 C 418.735 -1.63077 0.483742 0
M  V30 4345 O 419.92 -1.80607 0.71377 0
M  V30 4346 C 417.05 -3.05387 1.65396 0
M  V30 4347 C 416.004 -3.23918 2.79752 0
M  V30 4348 C 415.33 -4.63393 2.66779 0
M  V30 4349 C 416.63 -3.08735 4.21284 0
M  V30 4350 H 418.324 -1.53786 2.56886 0
M  V30 4351 H 415.87 -0.738415 1.23626 0
M  V30 4352 H 417.823 -3.83325 1.75043 0
M  V30 4353 H 416.547 -3.19332 0.685195 0
M  V30 4354 H 415.206 -2.48391 2.69625 0
M  V30 4355 H 414.854 -4.74144 1.67918 0
M  V30 4356 H 414.554 -4.7674 3.43501 0
M  V30 4357 H 416.078 -5.43458 2.78364 0
M  V30 4358 H 417.492 -3.76484 4.32357 0
M  V30 4359 H 415.889 -3.33588 4.98838 0
M  V30 4360 H 416.959 -2.0541 4.39243 0
M  V30 4361 N 418.302 -1.35869 -0.798587 0
M  V30 4362 C 419.235 -1.23801 -1.91699 0
M  V30 4363 C 420.213 -0.124143 -1.62125 0
M  V30 4364 O 421.397 -0.293656 -1.86199 0
M  V30 4365 C 418.524 -0.908063 -3.263 0
M  V30 4366 C 417.57 -2.0351 -3.74815 0
M  V30 4367 S 418.403 -3.65183 -3.91665 0
M  V30 4368 C 419.559 -3.34283 -5.29156 0
M  V30 4369 H 419.792 -2.18466 -2.01643 0
M  V30 4370 H 417.325 -1.21178 -0.956833 0
M  V30 4371 H 419.283 -0.724506 -4.04056 0
M  V30 4372 H 417.944 0.0206584 -3.14093 0
M  V30 4373 H 417.137 -1.75858 -4.72324 0
M  V30 4374 H 416.739 -2.1774 -3.04081 0
M  V30 4375 H 419.031 -2.87607 -6.13424 0
M  V30 4376 H 419.974 -4.31022 -5.61806 0
M  V30 4377 H 420.382 -2.69854 -4.95822 0
M  V30 4378 N 419.78 1.02168 -1.19998 0
M  V30 4379 C 420.71 2.12488 -0.96804 0
M  V30 4380 C 421.691 1.69799 0.101185 0
M  V30 4381 O 422.876 1.94121 -0.0552993 0
M  V30 4382 C 420.006 3.43479 -0.513776 0
M  V30 4383 C 418.96 3.99884 -1.52566 0
M  V30 4384 C 418.286 5.26582 -0.928214 0
M  V30 4385 C 419.586 4.33861 -2.90795 0
M  V30 4386 H 421.28 2.32149 -1.89069 0
M  V30 4387 H 418.826 1.11564 -0.910468 0
M  V30 4388 H 420.779 4.20036 -0.338774 0
M  V30 4389 H 419.503 3.23561 0.444493 0
M  V30 4390 H 418.162 3.25429 -1.68794 0
M  V30 4391 H 417.81 5.02986 0.0378289 0
M  V30 4392 H 417.51 5.65284 -1.60397 0
M  V30 4393 H 419.034 6.05799 -0.764167 0
M  V30 4394 H 420.448 5.01327 -2.78109 0
M  V30 4395 H 418.845 4.83664 -3.55231 0
M  V30 4396 H 419.915 3.42848 -3.42904 0
M  V30 4397 N 421.258 1.00505 1.21394 0
M  V30 4398 C 422.19 0.52372 2.23136 0
M  V30 4399 C 423.203 -0.387714 1.58116 0
M  V30 4400 O 424.392 -0.187905 1.77508 0
M  V30 4401 C 421.492 -0.258885 3.3791 0
M  V30 4402 C 420.665 0.651634 4.32519 0
M  V30 4403 C 419.724 -0.0813705 5.26137 0
M  V30 4404 O 418.75 0.537295 5.66658 0
M  V30 4405 N 419.952 -1.35992 5.64346 0
M  V30 4406 H 422.717 1.39865 2.65062 0
M  V30 4407 H 420.278 0.881196 1.35818 0
M  V30 4408 H 422.27 -0.758208 3.97534 0
M  V30 4409 H 420.84 -1.035 2.94968 0
M  V30 4410 H 420.06 1.33145 3.71034 0
M  V30 4411 H 421.348 1.27129 4.92662 0
M  V30 4412 H 420.746 -1.88368 5.33417 0
M  V30 4413 H 419.303 -1.8042 6.26332 0
M  V30 4414 N 422.737 -1.36956 0.779787 0
M  V30 4415 C 423.962 -2.04283 0.358224 0
M  V30 4416 C 424.387 -1.58422 -1.01411 0
M  V30 4417 O 423.745 -0.748179 -1.65142 0
M  V30 4418 C 423.793 -3.58152 0.419479 0
M  V30 4419 O 422.897 -4.08342 -0.577142 0
M  V30 4420 H 422.238 -0.645967 0.153698 0
M  V30 4421 H 424.768 -1.75108 1.05822 0
M  V30 4422 H 424.778 -4.07041 0.279636 0
M  V30 4423 H 423.453 -3.90886 1.42061 0
M  V30 4424 H 422.03 -3.70751 -0.399755 0
M  V30 4425 N 424.215 -0.530993 -1.48385 0
M  V30 4426 C 425.178 0.220497 -2.28137 0
M  V30 4427 C 426.178 0.866851 -1.35434 0
M  V30 4428 O 427.368 0.726746 -1.58316 0
M  V30 4429 C 424.5 1.31921 -3.1434 0
M  V30 4430 H 425.693 -0.479714 -2.96038 0
M  V30 4431 H 423.246 -0.286968 -1.53643 0
M  V30 4432 H 423.981 2.05264 -2.51072 0
M  V30 4433 H 423.766 0.86085 -3.82533 0
M  V30 4434 H 425.256 1.84776 -3.74497 0
M  V30 4435 N 425.693 1.55336 -0.266172 0
M  V30 4436 C 426.625 2.19544 0.658247 0
M  V30 4437 C 427.638 1.17746 1.12427 0
M  V30 4438 O 428.827 1.44517 1.04772 0
M  V30 4439 C 425.927 2.80032 1.9088 0
M  V30 4440 C 425.1 4.07436 1.59106 0
M  V30 4441 C 424.159 4.52056 2.69317 0
M  V30 4442 O 423.185 5.18023 2.35883 0
M  V30 4443 N 424.387 4.21448 3.99201 0
M  V30 4444 H 427.152 2.99503 0.108754 0
M  V30 4445 H 424.713 1.61667 -0.0869059 0
M  V30 4446 H 426.705 3.06831 2.63888 0
M  V30 4447 H 425.275 2.04119 2.36758 0
M  V30 4448 H 424.495 3.88021 0.695243 0
M  V30 4449 H 425.783 4.90462 1.35367 0
M  V30 4450 H 425.181 3.68528 4.29189 0
M  V30 4451 H 423.738 4.53039 4.68614 0
M  V30 4452 N 427.171 -0.0066808 1.57599 0
M  V30 4453 C 428.121 -1.0086 2.04478 0
M  V30 4454 C 429.105 -1.30714 0.938231 0
M  V30 4455 O 430.297 -1.29924 1.20203 0
M  V30 4456 C 427.426 -2.30273 2.54615 0
M  V30 4457 C 426.512 -2.03413 3.72134 0
M  V30 4458 N 426.903 -1.46688 4.84062 0
M  V30 4459 C 425.201 -2.33589 3.79937 0
M  V30 4460 C 425.902 -1.36146 5.65543 0
M  V30 4461 N 424.878 -1.84477 5.1134 0
M  V30 4462 H 428.68 -0.564402 2.8843 0
M  V30 4463 H 426.194 -0.212521 1.61003 0
M  V30 4464 H 428.191 -3.02885 2.86472 0
M  V30 4465 H 426.851 -2.75352 1.72079 0
M  V30 4466 H 427.862 -1.14658 5.05049 0
M  V30 4467 H 424.539 -2.81589 3.08243 0
M  V30 4468 H 425.929 -0.925873 6.6549 0
M  V30 4469 N 428.649 -1.55105 -0.279332 0
M  V30 4470 C 429.898 -1.74618 -1.00952 0
M  V30 4471 C 430.211 -0.551096 -1.87676 0
M  V30 4472 O 431.417 -0.628507 -2.64125 0
M  V30 4473 C 429.873 -3.09025 -1.84476 0
M  V30 4474 C 429.481 -4.36081 -1.0265 0
M  V30 4475 C 431.225 -3.37891 -2.56963 0
M  V30 4476 C 429.132 -5.6153 -1.85576 0
M  V30 4477 H 428.062 -0.650868 -0.38064 0
M  V30 4478 H 430.713 -1.81569 -0.265475 0
M  V30 4479 H 429.095 -2.96095 -2.62952 0
M  V30 4480 H 430.269 -4.59909 -0.286354 0
M  V30 4481 H 428.584 -4.14312 -0.416464 0
M  V30 4482 H 431.181 -4.28822 -3.19399 0
M  V30 4483 H 431.524 -2.57737 -3.26921 0
M  V30 4484 H 432.057 -3.5189 -1.85522 0
M  V30 4485 H 428.796 -6.44413 -1.2005 0
M  V30 4486 H 428.316 -5.41854 -2.57204 0
M  V30 4487 H 429.995 -5.99594 -2.43096 0
M  V30 4488 N 430.127 0.543554 -1.4793 0
M  V30 4489 C 431.09 1.63156 -1.60975 0
M  V30 4490 C 432.09 1.53346 -0.483899 0
M  V30 4491 O 433.28 1.5726 -0.749339 0
M  V30 4492 C 430.412 3.02743 -1.56716 0
M  V30 4493 H 431.605 1.52934 -2.57975 0
M  V30 4494 H 429.158 0.764557 -1.36324 0
M  V30 4495 H 429.893 3.18484 -0.611418 0
M  V30 4496 H 429.678 3.11272 -2.38438 0
M  V30 4497 H 431.168 3.81871 -1.6901 0
M  V30 4498 N 431.605 1.3629 0.791371 0
M  V30 4499 C 432.882 1.20962 1.53712 0
M  V30 4500 C 433.262 -0.205021 2.10102 0
M  V30 4501 O 432.61 -1.21042 1.93807 0
M  V30 4502 C 432.82 2.29002 2.63361 0
M  V30 4503 C 434.168 2.65572 3.31295 0
M  V30 4504 O 435.192 2.2803 2.73643 0
M  V30 4505 O 434.051 3.3018 4.35481 0
M  V30 4506 H 431.145 0.47086 0.679867 0
M  V30 4507 H 433.691 1.48016 0.830021 0
M  V30 4508 H 432.463 3.2382 2.19674 0
M  V30 4509 H 432.086 2.03303 3.41692 0
M  V30 4510 N 433.083 -1.0153 1.20538 0
M  V30 4511 C 433.993 -2.13557 0.971113 0
M  V30 4512 C 435.009 -1.73845 -0.0734366 0
M  V30 4513 O 436.185 -2.01075 0.114299 0
M  V30 4514 C 433.25 -3.42661 0.527639 0
M  V30 4515 C 432.311 -3.96608 1.64319 0
M  V30 4516 C 431.544 -5.1955 1.22078 0
M  V30 4517 O 431.767 -5.70329 0.0900198 0
M  V30 4518 O 430.701 -5.66681 2.02871 0
M  V30 4519 H 434.527 -2.3619 1.90913 0
M  V30 4520 H 432.112 -1.11946 0.989362 0
M  V30 4521 H 433.994 -4.20404 0.289621 0
M  V30 4522 H 432.669 -3.21441 -0.381779 0
M  V30 4523 H 431.576 -3.20139 1.93551 0
M  V30 4524 H 432.909 -4.22219 2.52966 0
M  V30 4525 N 434.561 -1.01147 -1.20859 0
M  V30 4526 C 435.807 -0.698899 -1.90377 0
M  V30 4527 C 436.14 0.76904 -1.78324 0
M  V30 4528 O 435.415 1.55817 -1.16409 0
M  V30 4529 C 435.698 -1.12878 -3.41951 0
M  V30 4530 C 435.551 -2.65665 -3.62963 0
M  V30 4531 C 436.87 -0.696114 -4.3456 0
M  V30 4532 H 433.989 -0.255372 -0.691342 0
M  V30 4533 H 436.631 -1.25831 -1.42361 0
M  V30 4534 H 434.781 -0.652827 -3.82976 0
M  V30 4535 H 436.453 -3.21074 -3.31224 0
M  V30 4536 H 434.696 -3.06878 -3.06608 0
M  V30 4537 H 435.367 -2.90797 -4.69192 0
M  V30 4538 H 437.843 -1.10521 -4.01154 0
M  V30 4539 H 436.719 -1.025 -5.39245 0
M  V30 4540 H 436.98 0.402465 -4.40264 0
M  V30 4541 N 436.039 1.36541 -0.78704 0
M  V30 4542 C 437.287 1.98911 -0.357633 0
M  V30 4543 C 437.608 1.62778 1.07371 0
M  V30 4544 O 436.878 0.900612 1.73971 0
M  V30 4545 H 435.458 0.735734 -0.129246 0
M  V30 4546 H 438.12 1.66776 -1.00855 0
M  V30 4547 H 437.216 3.08874 -0.447549 0
M  V30 4548 N 437.518 0.538854 1.48102 0
M  V30 4549 C 438.766 0.00798599 2.02098 0
M  V30 4550 C 439.087 -1.33922 1.41739 0
M  V30 4551 O 438.357 -1.86932 0.585934 0
M  V30 4552 H 436.937 -3.62179e-05 0.747 0
M  V30 4553 H 439.599 0.7047 1.81714 0
M  V30 4554 H 438.695 -0.0937672 3.11959 0
M  V30 4555 N 438.996 -1.55193 0.274407 0
M  V30 4556 C 440.242 -1.99877 -0.343086 0
M  V30 4557 C 440.575 -1.16256 -1.55558 0
M  V30 4558 O 439.85 -0.232462 -1.93106 0
M  V30 4559 C 440.133 -3.52706 -0.725965 0
M  V30 4560 C 439.986 -4.47081 0.493818 0
M  V30 4561 C 441.305 -4.11422 -1.56268 0
M  V30 4562 H 438.424 -0.726625 -0.123229 0
M  V30 4563 H 441.066 -1.86136 0.38121 0
M  V30 4564 H 439.216 -3.64546 -1.34307 0
M  V30 4565 H 440.888 -4.47186 1.13237 0
M  V30 4566 H 439.131 -4.1877 1.13201 0
M  V30 4567 H 439.802 -5.51699 0.18217 0
M  V30 4568 H 442.278 -4.02855 -1.04151 0
M  V30 4569 H 441.154 -5.18568 -1.79939 0
M  V30 4570 H 441.415 -3.61607 -2.54348 0
M  V30 4571 N 440.474 -0.00167713 -1.576 0
M  V30 4572 C 441.72 0.683832 -1.90923 0
M  V30 4573 C 442.053 1.7333 -0.875799 0
M  V30 4574 O 441.328 1.94215 0.10525 0
M  V30 4575 C 441.611 1.32543 -3.3482 0
M  V30 4576 C 441.464 0.287387 -4.48881 0
M  V30 4577 C 442.783 2.25114 -3.78169 0
M  V30 4578 H 439.902 0.247125 -0.694333 0
M  V30 4579 H 442.544 -0.0533149 -1.89925 0
M  V30 4580 H 440.694 1.95372 -3.35801 0
M  V30 4581 H 442.366 -0.341346 -4.60035 0
M  V30 4582 H 440.609 -0.39017 -4.32042 0
M  V30 4583 H 441.28 0.775393 -5.46527 0
M  V30 4584 H 443.756 1.723 -3.7875 0
M  V30 4585 H 442.632 2.66971 -4.79602 0
M  V30 4586 H 442.893 3.13092 -3.12131 0
M  V30 4587 N 441.952 1.55251 0.271103 0
M  V30 4588 C 442.882 1.9127 1.33933 0
M  V30 4589 C 443.863 0.77478 1.5143 0
M  V30 4590 O 445.048 1.03307 1.64442 0
M  V30 4591 C 442.178 2.18627 2.69851 0
M  V30 4592 C 441.132 3.34442 2.67081 0
M  V30 4593 C 440.458 3.47284 4.06569 0
M  V30 4594 C 441.758 4.70784 2.26185 0
M  V30 4595 H 443.452 2.80744 1.04035 0
M  V30 4596 H 440.998 1.35077 0.499017 0
M  V30 4597 H 442.951 2.42413 3.44694 0
M  V30 4598 H 441.675 1.25955 3.01335 0
M  V30 4599 H 440.334 3.10627 1.94695 0
M  V30 4600 H 439.982 2.52074 4.35279 0
M  V30 4601 H 439.682 4.25152 4.0561 0
M  V30 4602 H 441.206 3.73363 4.83148 0
M  V30 4603 H 442.62 4.94102 2.90751 0
M  V30 4604 H 441.017 5.51582 2.36384 0
M  V30 4605 H 442.087 4.69478 1.21319 0
M  V30 4606 N 443.43 -0.535701 1.48216 0
M  V30 4607 C 444.707 -1.29683 1.46429 0
M  V30 4608 C 445.087 -2.10391 0.172852 0
M  V30 4609 O 444.435 -2.12282 -0.845488 0
M  V30 4610 C 444.645 -2.18313 2.72287 0
M  V30 4611 C 445.993 -2.78639 3.20383 0
M  V30 4612 O 447.017 -2.28604 2.73164 0
M  V30 4613 O 445.876 -3.69636 4.02531 0
M  V30 4614 H 442.97 -0.585026 0.584529 0
M  V30 4615 H 445.516 -0.552827 1.60443 0
M  V30 4616 H 444.288 -1.58421 3.57797 0
M  V30 4617 H 443.911 -2.99971 2.60966 0
M  V30 4618 N 444.908 -1.36708 -0.784132 0
M  V30 4619 C 446.185 -1.21776 -1.53069 0
M  V30 4620 C 446.565 0.193876 -2.10208 0
M  V30 4621 O 445.913 1.20012 -1.94446 0
M  V30 4622 C 446.123 -2.30395 -2.62143 0
M  V30 4623 C 447.471 -2.67325 -3.29882 0
M  V30 4624 O 448.495 -2.29478 -2.7243 0
M  V30 4625 O 447.354 -3.32485 -4.33724 0
M  V30 4626 H 444.448 -0.474459 -0.677361 0
M  V30 4627 H 446.994 -1.48454 -0.82216 0
M  V30 4628 H 445.766 -3.2498 -2.17953 0
M  V30 4629 H 445.389 -2.05112 -3.40609 0
M  V30 4630 N 446.386 1.0089 -1.21074 0
M  V30 4631 C 447.318 2.09737 -0.924291 0
M  V30 4632 C 448.331 1.62546 0.0909809 0
M  V30 4633 O 449.52 1.77942 -0.141021 0
M  V30 4634 C 446.62 3.36922 -0.36559 0
M  V30 4635 C 445.793 4.13216 -1.43426 0
M  V30 4636 C 444.852 5.18696 -0.885496 0
M  V30 4637 O 443.878 5.47176 -1.56801 0
M  V30 4638 N 445.08 5.79718 0.301227 0
M  V30 4639 H 447.845 2.34895 -1.8613 0
M  V30 4640 H 445.406 1.17341 -1.11546 0
M  V30 4641 H 447.398 4.04697 0.0158407 0
M  V30 4642 H 445.968 3.08952 0.476149 0
M  V30 4643 H 445.188 3.40301 -1.9897 0
M  V30 4644 H 446.476 4.60967 -2.15376 0
M  V30 4645 H 445.874 5.58926 0.872849 0
M  V30 4646 H 444.431 6.48804 0.624211 0
M  V30 4647 N 447.864 1.01787 1.20321 0
M  V30 4648 C 449.28 0.732951 1.41774 0
M  V30 4649 C 449.48 -0.686883 1.89431 0
M  V30 4650 O 448.536 -1.45446 2.06402 0
M  V30 4651 C 449.849 1.75973 2.43832 0
M  V30 4652 C 451.397 1.77802 2.57596 0
M  V30 4653 C 451.872 2.7941 3.62897 0
M  V30 4654 N 453.363 2.78157 3.70382 0
M  V30 4655 C 454.098 3.53434 4.51521 0
M  V30 4656 N 453.594 4.38392 5.36455 0
M  V30 4657 N 455.387 3.42026 4.46066 0
M  V30 4658 H 447.538 1.93447 0.877035 0
M  V30 4659 H 449.801 0.835712 0.447536 0
M  V30 4660 H 449.507 2.77699 2.15815 0
M  V30 4661 H 449.381 1.57292 3.4284 0
M  V30 4662 H 451.768 0.767602 2.84942 0
M  V30 4663 H 451.849 2.00557 1.58779 0
M  V30 4664 H 451.493 3.80616 3.36295 0
M  V30 4665 H 451.423 2.53916 4.61339 0
M  V30 4666 H 453.914 2.16531 3.09714 0
M  V30 4667 H 454.227 4.92596 5.95457 0
M  V30 4668 H 452.572 4.4247 5.35953 0
M  V30 4669 H 455.763 2.75075 3.78749 0
M  V30 4670 H 455.936 4.00946 5.09064 0
M  V30 4671 N 449.342 -1.36122 0.79427 0
M  V30 4672 C 450.758 -1.5232 0.476525 0
M  V30 4673 C 450.958 -1.74685 -1.00436 0
M  V30 4674 O 450.014 -1.78115 -1.78973 0
M  V30 4675 C 451.327 -2.70607 1.31119 0
M  V30 4676 C 452.875 -2.8448 1.30537 0
M  V30 4677 C 453.35 -4.05778 2.12387 0
M  V30 4678 N 454.841 -4.12933 2.09859 0
M  V30 4679 C 455.576 -5.05876 2.69957 0
M  V30 4680 N 455.072 -6.04232 3.38934 0
M  V30 4681 N 456.865 -4.98528 2.59665 0
M  V30 4682 H 449.016 -1.1986 1.75349 0
M  V30 4683 H 451.279 -0.585418 0.745647 0
M  V30 4684 H 450.985 -2.60619 2.36158 0
M  V30 4685 H 450.859 -3.64888 0.955843 0
M  V30 4686 H 453.246 -2.93927 0.262876 0
M  V30 4687 H 453.327 -1.91093 1.70051 0
M  V30 4688 H 452.971 -3.97092 3.1667 0
M  V30 4689 H 452.901 -4.98323 1.70242 0
M  V30 4690 H 455.392 -3.42515 1.59662 0
M  V30 4691 H 455.705 -6.71724 3.82109 0
M  V30 4692 H 454.05 -6.04443 3.43036 0
M  V30 4693 H 457.241 -4.20641 2.05375 0
M  V30 4694 H 457.414 -5.70773 3.06793 0
M  V30 4695 N 450.82 -0.546701 -1.47814 0
M  V30 4696 C 451.753 0.254472 -2.26777 0
M  V30 4697 C 452.731 0.929809 -1.33392 0
M  V30 4698 O 453.915 0.950889 -1.62759 0
M  V30 4699 C 451.042 1.36171 -3.10121 0
M  V30 4700 C 450.088 0.796038 -4.19005 0
M  V30 4701 S 450.921 -0.349191 -5.3436 0
M  V30 4702 C 452.077 0.760122 -6.21267 0
M  V30 4703 H 452.31 -0.415612 -2.94381 0
M  V30 4704 H 449.843 -0.332809 -1.5077 0
M  V30 4705 H 451.801 1.99588 -3.58713 0
M  V30 4706 H 450.462 2.00359 -2.41899 0
M  V30 4707 H 449.655 1.62719 -4.7701 0
M  V30 4708 H 449.257 0.238246 -3.7324 0
M  V30 4709 H 451.549 1.65479 -6.5698 0
M  V30 4710 H 452.492 0.217673 -7.07765 0
M  V30 4711 H 452.9 1.04806 -5.54685 0
M  V30 4712 N 452.299 1.55045 -0.282633 0
M  V30 4713 C 453.232 2.18951 0.64311 0
M  V30 4714 C 454.21 1.15287 1.14664 0
M  V30 4715 O 455.394 1.43846 1.21822 0
M  V30 4716 C 452.521 2.81874 1.87789 0
M  V30 4717 C 451.567 3.98906 1.50919 0
M  V30 4718 S 452.4 5.3234 0.580884 0
M  V30 4719 C 453.556 5.98737 1.82387 0
M  V30 4720 H 453.789 2.97131 0.100138 0
M  V30 4721 H 451.322 1.54255 -0.0668514 0
M  V30 4722 H 453.28 3.18757 2.58658 0
M  V30 4723 H 451.941 2.03573 2.392 0
M  V30 4724 H 451.134 4.4165 2.42819 0
M  V30 4725 H 450.736 3.63485 0.88061 0
M  V30 4726 H 453.028 6.18427 2.76684 0
M  V30 4727 H 453.971 6.93318 1.4393 0
M  V30 4728 H 454.379 5.28177 1.99223 0
M  V30 4729 N 453.777 0.010035 1.57597 0
M  V30 4730 C 455.005 -0.683413 1.95287 0
M  V30 4731 C 455.42 -1.66747 0.885481 0
M  V30 4732 O 454.777 -1.82003 -0.134629 0
M  V30 4733 C 454.828 -1.40652 3.33015 0
M  V30 4734 O 454.549 -0.461916 4.35658 0
M  V30 4735 C 456.05 -2.19356 3.85225 0
M  V30 4736 H 453.27 -0.189708 0.643624 0
M  V30 4737 H 455.814 0.0641359 2.04399 0
M  V30 4738 H 453.969 -2.10562 3.2518 0
M  V30 4739 H 454.383 -0.973215 5.15392 0
M  V30 4740 H 455.857 -2.65433 4.83993 0
M  V30 4741 H 456.334 -3.02457 3.18459 0
M  V30 4742 H 456.94 -1.54442 3.96267 0
M  V30 4743 N 455.255 -1.55392 -0.262866 0
M  V30 4744 C 456.666 -1.67079 -0.833158 0
M  V30 4745 C 457.017 -0.604539 -1.86654 0
M  V30 4746 O 456.142 0.252138 -2.14926 0
M  V30 4747 C 456.737 -3.02891 -1.51797 0
M  V30 4748 C 455.296 -3.16571 -2.03617 0
M  V30 4749 C 454.443 -2.62909 -0.881701 0
M  V30 4750 H 457.394 -1.58652 -0.0389986 0
M  V30 4751 H 457.415 -2.96445 -2.38538 0
M  V30 4752 H 456.927 -3.80473 -0.765619 0
M  V30 4753 H 455.028 -2.43782 -2.81782 0
M  V30 4754 H 455.141 -4.23271 -2.24452 0
M  V30 4755 H 453.505 -2.20324 -1.27786 0
M  V30 4756 H 454.288 -3.43003 -0.14269 0
M  V30 4757 N 456.733 0.527833 -1.48498 0
M  V30 4758 C 457.665 1.6482 -1.5927 0
M  V30 4759 C 458.678 1.55659 -0.476869 0
M  V30 4760 O 459.867 1.62081 -0.747806 0
M  V30 4761 C 456.967 3.0348 -1.50842 0
M  V30 4762 C 456.14 3.381 -2.77502 0
M  V30 4763 C 455.199 4.5605 -2.62497 0
M  V30 4764 O 454.225 4.59165 -3.36387 0
M  V30 4765 N 455.427 5.54353 -1.72257 0
M  V30 4766 H 458.192 1.56015 -2.55889 0
M  V30 4767 H 455.753 0.715152 -1.45249 0
M  V30 4768 H 457.745 3.80264 -1.38496 0
M  V30 4769 H 456.315 3.06352 -0.621887 0
M  V30 4770 H 455.535 2.50473 -3.04396 0
M  V30 4771 H 456.823 3.58017 -3.61527 0
M  V30 4772 H 456.221 5.54617 -1.11431 0
M  V30 4773 H 454.778 6.30347 -1.65849 0
M  V30 4774 N 458.211 1.37122 0.776871 0
M  V30 4775 C 459.158 1.3247 1.88998 0
M  V30 4776 C 460.128 0.191143 1.64997 0
M  V30 4777 O 461.313 0.379683 1.86984 0
M  V30 4778 C 458.453 1.13241 3.25992 0
M  V30 4779 C 457.566 2.35782 3.61982 0
M  V30 4780 C 456.701 2.09465 4.88158 0
M  V30 4781 C 455.74 3.279 5.16864 0
M  V30 4782 N 454.877 3.01167 6.34226 0
M  V30 4783 H 459.717 2.27642 1.9231 0
M  V30 4784 H 457.254 1.13125 0.94027 0
M  V30 4785 H 459.212 1.00115 4.0501 0
M  V30 4786 H 457.842 0.217186 3.22069 0
M  V30 4787 H 456.894 2.59666 2.77989 0
M  V30 4788 H 458.206 3.24125 3.79137 0
M  V30 4789 H 457.36 1.93341 5.75069 0
M  V30 4790 H 456.099 1.18452 4.73097 0
M  V30 4791 H 455.104 3.44569 4.2843 0
M  V30 4792 H 456.329 4.19757 5.33836 0
M  V30 4793 H 454.275 2.12779 6.20533 0
M  V30 4794 H 454.192 3.83052 6.51772 0
M  V30 4795 H 455.46 2.88649 7.24087 0
M  V30 4796 N 459.689 -1.00246 1.21608 0
M  V30 4797 C 460.619 -2.10921 1.00172 0
M  V30 4798 C 461.6 -1.69938 -0.0741587 0
M  V30 4799 O 462.785 -1.94009 0.0861753 0
M  V30 4800 C 459.915 -3.42618 0.568355 0
M  V30 4801 C 458.869 -3.97407 1.58909 0
M  V30 4802 C 458.195 -5.25038 1.01187 0
M  V30 4803 C 459.495 -4.2918 2.97661 0
M  V30 4804 H 461.189 -2.29112 1.92739 0
M  V30 4805 H 458.735 -1.10101 0.928102 0
M  V30 4806 H 460.688 -4.19444 0.405555 0
M  V30 4807 H 459.412 -3.24227 -0.392961 0
M  V30 4808 H 458.071 -3.22703 1.73949 0
M  V30 4809 H 457.719 -5.02982 0.0421965 0
M  V30 4810 H 457.419 -5.62661 1.6937 0
M  V30 4811 H 458.943 -6.04507 0.860448 0
M  V30 4812 H 460.357 -4.96839 2.86049 0
M  V30 4813 H 458.754 -4.77952 3.6288 0
M  V30 4814 H 459.824 -3.3735 3.48315 0
M  V30 4815 N 461.167 -1.02423 -1.1978 0
M  V30 4816 C 462.583 -0.740459 -1.41384 0
M  V30 4817 C 462.783 0.676827 -1.89793 0
M  V30 4818 O 461.839 1.4435 -2.0717 0
M  V30 4819 C 463.152 -1.77264 -2.42895 0
M  V30 4820 C 464.7 -1.79165 -2.56649 0
M  V30 4821 C 465.175 -2.8133 -3.6141 0
M  V30 4822 N 466.666 -2.80118 -3.68901 0
M  V30 4823 C 467.401 -3.55824 -4.49641 0
M  V30 4824 N 466.897 -4.41231 -5.34123 0
M  V30 4825 N 468.69 -3.44387 -4.44246 0
M  V30 4826 H 460.841 -1.9391 -0.866764 0
M  V30 4827 H 463.104 -0.838074 -0.443098 0
M  V30 4828 H 462.81 -2.7884 -2.14339 0
M  V30 4829 H 462.684 -1.59108 -3.42001 0
M  V30 4830 H 465.071 -0.782702 -2.84531 0
M  V30 4831 H 465.152 -2.01396 -1.57713 0
M  V30 4832 H 464.796 -3.82394 -3.34271 0
M  V30 4833 H 464.726 -2.56359 -4.59986 0
M  V30 4834 H 467.217 -2.1817 -3.08562 0
M  V30 4835 H 467.53 -4.95747 -5.92836 0
M  V30 4836 H 465.875 -4.45306 -5.33599 0
M  V30 4837 H 469.066 -2.7708 -3.77285 0
M  V30 4838 H 469.239 -4.0364 -5.06931 0
M  V30 4839 N 462.645 1.35699 -0.801477 0
M  V30 4840 C 463.555 2.33661 -0.209691 0
M  V30 4841 C 464.571 1.6162 0.644591 0
M  V30 4842 O 465.747 1.93529 0.557545 0
M  V30 4843 C 462.812 3.40816 0.636033 0
M  V30 4844 C 461.873 4.28639 -0.238147 0
M  V30 4845 C 461.106 5.30676 0.567307 0
M  V30 4846 O 461.329 5.41174 1.8024 0
M  V30 4847 O 460.263 6.01887 -0.0391336 0
M  V30 4848 H 464.089 2.8606 -1.01996 0
M  V30 4849 H 461.674 1.38379 -0.563164 0
M  V30 4850 H 463.556 4.06301 1.11791 0
M  V30 4851 H 462.231 2.90696 1.42399 0
M  V30 4852 H 461.138 3.66152 -0.767044 0
M  V30 4853 H 462.471 4.82143 -0.989915 0
M  V30 4854 N 464.123 0.554532 1.47522 0
M  V30 4855 C 465.353 0.0342074 2.06572 0
M  V30 4856 C 465.761 -1.26375 1.40805 0
M  V30 4857 O 465.104 -1.7683 0.49769 0
M  V30 4858 C 465.166 -0.235096 3.5873 0
M  V30 4859 C 464.83 0.973024 4.46521 0
M  V30 4860 C 465.827 1.8779 4.848 0
M  V30 4861 C 463.512 1.18694 4.88075 0
M  V30 4862 C 465.506 2.98039 5.63428 0
M  V30 4863 C 463.193 2.29254 5.66468 0
M  V30 4864 C 464.191 3.18757 6.04055 0
M  V30 4865 O 463.879 4.27401 6.8087 0
M  V30 4866 H 463.611 0.041587 0.67472 0
M  V30 4867 H 466.165 0.766748 1.90552 0
M  V30 4868 H 464.395 -1.02191 3.72953 0
M  V30 4869 H 466.084 -0.700477 3.9981 0
M  V30 4870 H 466.85 1.72467 4.53299 0
M  V30 4871 H 462.729 0.49947 4.58286 0
M  V30 4872 H 466.273 3.67926 5.92685 0
M  V30 4873 H 462.17 2.4455 5.97382 0
M  V30 4874 H 462.938 4.25415 6.9926 0
M  V30 4875 N 465.601 -1.54893 0.290851 0
M  V30 4876 C 466.533 -2.20564 -0.623236 0
M  V30 4877 C 467.546 -1.19519 -1.1054 0
M  V30 4878 O 468.735 -1.46165 -1.02459 0
M  V30 4879 C 465.835 -2.83033 -1.86401 0
M  V30 4880 C 465.008 -4.09916 -1.52604 0
M  V30 4881 C 464.067 -4.56284 -2.62091 0
M  V30 4882 O 463.093 -5.2171 -2.27612 0
M  V30 4883 N 464.295 -4.27746 -3.92446 0
M  V30 4884 H 467.06 -2.99638 -0.0610915 0
M  V30 4885 H 464.621 -1.61508 0.112615 0
M  V30 4886 H 466.613 -3.1099 -2.58973 0
M  V30 4887 H 465.183 -2.0786 -2.33481 0
M  V30 4888 H 464.403 -3.89078 -0.633424 0
M  V30 4889 H 465.691 -4.92554 -1.27547 0
M  V30 4890 H 465.089 -3.7531 -4.23272 0
M  V30 4891 H 463.646 -4.60437 -4.61347 0
M  V30 4892 N 467.08 -0.0183926 -1.57589 0
M  V30 4893 C 468.357 0.700621 -1.82622 0
M  V30 4894 C 468.737 1.90951 -0.90005 0
M  V30 4895 O 468.085 2.28452 0.0469145 0
M  V30 4896 C 468.295 1.08899 -3.31575 0
M  V30 4897 C 469.643 1.48514 -3.9778 0
M  V30 4898 O 470.667 1.18227 -3.36007 0
M  V30 4899 O 469.526 2.04903 -5.06633 0
M  V30 4900 H 466.62 0.342743 -0.752633 0
M  V30 4901 H 469.166 -0.0452548 -1.6964 0
M  V30 4902 H 467.938 0.228113 -3.90635 0
M  V30 4903 H 467.561 1.89338 -3.49624 0
M  V30 4904 N 468.558 1.5553 0.254621 0
M  V30 4905 C 469.807 1.76202 0.981612 0
M  V30 4906 C 470.12 0.580883 1.86776 0
M  V30 4907 O 471.326 0.670448 2.63092 0
M  V30 4908 C 469.782 3.11921 1.79537 0
M  V30 4909 C 469.39 4.37659 0.956991 0
M  V30 4910 C 471.134 3.41936 2.51555 0
M  V30 4911 C 469.041 5.64411 1.76619 0
M  V30 4912 H 467.971 0.656841 0.370237 0
M  V30 4913 H 470.622 1.81969 0.236556 0
M  V30 4914 H 469.004 3.00241 2.58208 0
M  V30 4915 H 470.178 4.60307 0.21315 0
M  V30 4916 H 468.493 4.14922 0.350497 0
M  V30 4917 H 471.09 4.33849 3.12536 0
M  V30 4918 H 471.433 2.62905 3.22779 0
M  V30 4919 H 471.966 3.54797 1.799 0
M  V30 4920 H 468.705 6.46241 1.09783 0
M  V30 4921 H 468.225 5.45877 2.48551 0
M  V30 4922 H 469.904 6.03386 2.33527 0
M  V30 4923 N 470.036 -0.519951 1.48776 0
M  V30 4924 C 471.285 -1.27175 1.56555 0
M  V30 4925 C 471.598 -1.9401 0.248869 0
M  V30 4926 O 472.804 -2.70725 0.205004 0
M  V30 4927 C 471.26 -2.30811 2.76142 0
M  V30 4928 C 470.868 -1.7 4.14493 0
M  V30 4929 C 472.612 -3.06937 2.9324 0
M  V30 4930 C 470.519 -2.71635 5.25327 0
M  V30 4931 H 469.449 -0.478329 0.582853 0
M  V30 4932 H 472.1 -0.547916 1.75129 0
M  V30 4933 H 470.482 -3.06274 2.51023 0
M  V30 4934 H 471.656 -1.00658 4.49672 0
M  V30 4935 H 469.971 -1.06331 4.02595 0
M  V30 4936 H 472.568 -3.82905 3.73213 0
M  V30 4937 H 472.911 -3.63409 2.03075 0
M  V30 4938 H 473.444 -2.38589 3.18308 0
M  V30 4939 H 470.183 -2.1997 6.1749 0
M  V30 4940 H 469.703 -3.39275 4.94624 0
M  V30 4941 H 471.382 -3.34429 5.53865 0
M  V30 4942 N 471.514 -1.37532 -0.769588 0
M  V30 4943 C 472.93 -1.18379 -1.07045 0
M  V30 4944 C 473.13 -0.0214312 -2.01489 0
M  V30 4945 O 472.186 0.637809 -2.44312 0
M  V30 4946 C 473.499 -2.50338 -1.66588 0
M  V30 4947 C 475.047 -2.56879 -1.78835 0
M  V30 4948 C 475.522 -3.88974 -2.41792 0
M  V30 4949 N 477.013 -3.90428 -2.4924 0
M  V30 4950 C 477.748 -4.89388 -2.98809 0
M  V30 4951 N 477.244 -5.98745 -3.48535 0
M  V30 4952 N 479.037 -4.76791 -2.97703 0
M  V30 4953 H 471.188 -2.11921 -0.142541 0
M  V30 4954 H 473.451 -0.939608 -0.125863 0
M  V30 4955 H 473.157 -3.35767 -1.0466 0
M  V30 4956 H 473.031 -2.67583 -2.65856 0
M  V30 4957 H 475.418 -1.71856 -2.39895 0
M  V30 4958 H 475.499 -2.43516 -0.783166 0
M  V30 4959 H 475.143 -4.74412 -1.81371 0
M  V30 4960 H 475.073 -3.99641 -3.4292 0
M  V30 4961 H 477.564 -3.11433 -2.14052 0
M  V30 4962 H 477.877 -6.70205 -3.84767 0
M  V30 4963 H 476.222 -6.02387 -3.46634 0
M  V30 4964 H 479.413 -3.90478 -2.58157 0
M  V30 4965 H 479.586 -5.54069 -3.36024 0
M  V30 4966 N 472.992 0.995999 -1.22138 0
M  V30 4967 C 473.902 2.11985 -1.00496 0
M  V30 4968 C 474.918 1.7394 0.0457701 0
M  V30 4969 O 476.094 2.00868 -0.146273 0
M  V30 4970 C 473.159 3.41779 -0.582086 0
M  V30 4971 C 472.22 3.93943 -1.70608 0
M  V30 4972 C 471.453 5.17542 -1.30328 0
M  V30 4973 O 471.676 5.70114 -0.180743 0
M  V30 4974 O 470.61 5.63382 -2.11861 0
M  V30 4975 H 474.436 2.33123 -1.94647 0
M  V30 4976 H 472.021 1.10358 -1.00705 0
M  V30 4977 H 473.903 4.1989 -0.356467 0
M  V30 4978 H 472.578 3.22007 0.330592 0
M  V30 4979 H 471.485 3.17019 -1.98619 0
M  V30 4980 H 472.818 4.18141 -2.59651 0
M  V30 4981 N 474.47 1.03057 1.19235 0
M  V30 4982 C 475.716 0.729098 1.89241 0
M  V30 4983 C 476.049 -0.740573 1.79525 0
M  V30 4984 O 475.324 -1.53946 1.18874 0
M  V30 4985 C 475.607 1.18304 3.40112 0
M  V30 4986 C 475.46 2.71406 3.5869 0
M  V30 4987 C 476.779 0.765161 4.33397 0
M  V30 4988 H 473.898 0.266338 0.687192 0
M  V30 4989 H 476.54 1.28079 1.40341 0
M  V30 4990 H 474.69 0.713672 3.81889 0
M  V30 4991 H 476.362 3.26303 3.26074 0
M  V30 4992 H 474.605 3.11717 3.01687 0
M  V30 4993 H 475.276 2.98225 4.64506 0
M  V30 4994 H 477.752 1.16889 3.99345 0
M  V30 4995 H 476.628 1.11065 5.37546 0
M  V30 4996 H 476.889 -0.332372 4.40849 0
M  V30 4997 N 475.948 -1.35272 0.808662 0
M  V30 4998 C 476.895 -2.29764 0.218482 0
M  V30 4999 C 477.865 -1.52911 -0.648652 0
M  V30 5000 O 479.05 -1.81341 -0.593297 0
M  V30 5001 C 476.19 -3.39388 -0.625282 0
M  V30 5002 C 475.303 -4.31202 0.262516 0
M  V30 5003 C 474.438 -5.27919 -0.589451 0
M  V30 5004 C 473.477 -6.11371 0.298617 0
M  V30 5005 N 472.614 -7.0022 -0.513443 0
M  V30 5006 H 477.454 -2.79645 1.02968 0
M  V30 5007 H 474.991 -1.37629 0.519303 0
M  V30 5008 H 476.949 -4.01615 -1.12966 0
M  V30 5009 H 475.579 -2.90777 -1.40173 0
M  V30 5010 H 474.631 -3.69962 0.885013 0
M  V30 5011 H 475.943 -4.89748 0.945971 0
M  V30 5012 H 475.097 -5.95529 -1.15888 0
M  V30 5013 H 473.836 -4.69875 -1.30647 0
M  V30 5014 H 472.841 -5.42707 0.880301 0
M  V30 5015 H 474.066 -6.71494 1.01352 0
M  V30 5016 H 472.012 -6.44662 -1.21439 0
M  V30 5017 H 471.929 -7.55917 0.111922 0
M  V30 5018 H 473.197 -7.72175 -1.06608 0
M  V30 5019 N 477.426 -0.562348 -1.47226 0
M  V30 5020 C 478.703 0.0256985 -1.95583 0
M  V30 5021 C 479.083 1.48032 -1.50498 0
M  V30 5022 O 478.431 2.15973 -0.746181 0
M  V30 5023 C 478.641 -0.125129 -3.48776 0
M  V30 5024 C 479.989 0.0175728 -4.24596 0
M  V30 5025 O 481.013 -0.0529341 -3.56161 0
M  V30 5026 O 479.872 0.170145 -5.46235 0
M  V30 5027 H 476.966 0.0612565 -0.824728 0
M  V30 5028 H 479.512 -0.629233 -1.57603 0
M  V30 5029 H 478.284 -1.13715 -3.74412 0
M  V30 5030 H 477.907 0.567178 -3.93534 0
M  V30 5031 N 478.904 1.54736 -0.299062 0
M  V30 5032 C 479.867 2.22127 0.565012 0
M  V30 5033 C 480.867 1.20669 1.06281 0
M  V30 5034 O 482.057 1.45417 0.959145 0
M  V30 5035 C 479.189 2.90611 1.78208 0
M  V30 5036 H 480.382 2.99891 -0.0237448 0
M  V30 5037 H 477.935 1.5622 -0.0498788 0
M  V30 5038 H 478.67 2.16921 2.41072 0
M  V30 5039 H 478.455 3.64984 1.43281 0
M  V30 5040 H 479.945 3.42026 2.396 0
M  V30 5041 N 480.382 0.0267497 1.57577 0
M  V30 5042 C 481.33 -0.973923 2.11229 0
M  V30 5043 C 482.324 -1.33849 1.03831 0
M  V30 5044 O 483.53 -1.321 1.22269 0
M  V30 5045 H 479.905 -0.331844 0.674821 0
M  V30 5046 H 481.876 -0.496092 2.94247 0
M  V30 5047 C 480.625 -2.24798 2.65257 0
M  V30 5048 H 479.948 -1.9762 3.47543 0
M  V30 5049 H 481.388 -2.93031 3.06445 0
M  V30 5050 C 479.847 -2.97611 1.57891 0
M  V30 5051 O 480.377 -3.89629 0.97735 0
M  V30 5052 N 478.583 -2.59905 1.29992 0
M  V30 5053 H 478.13 -1.85154 1.79097 0
M  V30 5054 H 478.088 -3.08932 0.583798 0
M  V30 5055 N 481.861 -1.55662 -0.24637 0
M  V30 5056 C 482.824 -1.89558 -1.28842 0
M  V30 5057 C 483.824 -0.772082 -1.41052 0
M  V30 5058 O 485.014 -1.04007 -1.39743 0
M  V30 5059 C 482.146 -2.12449 -2.66605 0
M  V30 5060 H 483.339 -2.82735 -1.00004 0
M  V30 5061 H 480.892 -1.48562 -0.485684 0
M  V30 5062 H 481.627 -1.21742 -3.00582 0
M  V30 5063 H 481.412 -2.94273 -2.59125 0
M  V30 5064 H 482.902 -2.39854 -3.41847 0
M  V30 5065 O 483.378 0.392 -1.5667 0
M  V30 5066 H 484.069 1.04392 -1.63163 0
M  V30 END ATOM
M  V30 BEGIN BOND
M  V30 END BOND
M  V30 END CTAB
M  END
$$$$
