drugbank_target|Q84EX5 R-specific alcohol dehydrogenase (DB04619; DB04784)
 OpenBabel12092120303D

  0  0  0     0  0            999 V3000
M  V30 BEGIN CTAB
M  V30 COUNTS 3746 3777 0 0 0
M  V30 BEGIN ATOM
M  V30 1 H -0.908 1.98254 -0.117106 0
M  V30 2 N 0 1.576 0 0
M  V30 3 C 0.933 2.03868 1.02534 0
M  V30 4 C 1.911 0.928543 1.3348 0
M  V30 5 O 3.095 1.19667 1.45644 0
M  V30 6 C 0.222 2.43627 2.35294 0
M  V30 7 C -0.732 3.65373 2.2001 0
M  V30 8 S 0.101 5.13292 1.52614 0
M  V30 9 C 1.257 5.56322 2.86805 0
M  V30 10 H 1.49 2.90518 0.631377 0
M  V30 11 H -0.977 1.52953 0.210867 0
M  V30 12 H 0.981 2.67203 3.11629 0
M  V30 13 H -0.358 1.57376 2.7183 0
M  V30 14 H -1.165 3.90944 3.18086 0
M  V30 15 H -1.563 3.418 1.51819 0
M  V30 16 H 0.729 5.58782 3.83104 0
M  V30 17 H 1.672 6.56266 2.65933 0
M  V30 18 H 2.08 4.83886 2.90714 0
M  V30 19 N 1.4781 -0.272755 1.55222 0
M  V30 20 C 2.7031 -1.02683 1.80197 0
M  V30 21 C 3.1281 -1.79142 0.573551 0
M  V30 22 O 2.4861 -1.74917 -0.476849 0
M  V30 23 C 2.5341 -1.9609 3.02624 0
M  V30 24 O 1.6381 -3.04863 2.77727 0
M  V30 25 H 0.9791 -0.293557 0.595584 0
M  V30 26 H 3.5091 -0.30159 2.02365 0
M  V30 27 H 3.5191 -2.38039 3.31363 0
M  V30 28 H 2.1941 -1.39851 3.91682 0
M  V30 29 H 0.7711 -2.67228 2.60084 0
M  V30 30 N 2.9562 -1.48159 -0.537278 0
M  V30 31 C 3.9042 -1.62573 -1.66352 0
M  V30 32 C 4.8982 -0.492366 -1.62087 0
M  V30 33 O 6.1042 -0.670847 -1.67032 0
M  V30 34 H 2.4792 -0.511992 -0.550789 0
M  V30 35 H 4.4502 -2.57176 -1.51337 0
M  V30 36 C 3.1992 -1.67583 -3.04649 0
M  V30 37 H 2.5222 -2.54151 -3.08622 0
M  V30 38 H 3.9622 -1.81713 -3.83088 0
M  V30 39 C 2.4212 -0.413039 -3.34358 0
M  V30 40 O 2.9512 0.477259 -3.98855 0
M  V30 41 N 1.1572 -0.286961 -2.8918 0
M  V30 42 H 0.7042 -1.01241 -2.36871 0
M  V30 43 H 0.6622 0.556963 -3.09427 0
M  V30 44 N 4.4343 0.785586 -1.36625 0
M  V30 45 C 5.8503 1.08419 -1.17122 0
M  V30 46 C 6.0503 2.015 0.00208491 0
M  V30 47 O 5.1063 2.43551 0.666278 0
M  V30 48 C 6.4193 1.69498 -2.48377 0
M  V30 49 C 7.9673 1.81821 -2.54775 0
M  V30 50 C 8.4423 2.46315 -3.86126 0
M  V30 51 N 9.9333 2.53779 -3.87492 0
M  V30 52 C 10.6683 3.045 -4.85868 0
M  V30 53 N 10.1643 3.55499 -5.94637 0
M  V30 54 N 11.9573 3.03247 -4.73284 0
M  V30 55 H 4.1083 0.167264 -2.1174 0
M  V30 56 H 6.3713 0.13682 -0.938075 0
M  V30 57 H 6.0773 1.08571 -3.34522 0
M  V30 58 H 5.9513 2.6896 -2.64462 0
M  V30 59 H 8.3383 2.41884 -1.69045 0
M  V30 60 H 8.4193 0.811532 -2.42586 0
M  V30 61 H 8.0633 1.86895 -4.72263 0
M  V30 62 H 7.9933 3.47561 -3.95612 0
M  V30 63 H 10.4843 2.17672 -3.08913 0
M  V30 64 H 10.7973 3.92562 -6.65669 0
M  V30 65 H 9.1423 3.5364 -5.98301 0
M  V30 66 H 12.3333 2.62696 -3.87438 0
M  V30 67 H 12.5063 3.42467 -5.50109 0
M  V30 68 N 5.9124 1.20967 1.01018 0
M  V30 69 C 6.8424 0.988272 2.11555 0
M  V30 70 C 7.8234 -0.0849778 1.69888 0
M  V30 71 O 9.0084 0.0738202 1.9406 0
M  V30 72 C 6.1384 0.546528 3.42973 0
M  V30 73 C 5.0924 1.56375 3.9841 0
M  V30 74 C 4.4184 0.97842 5.25672 0
M  V30 75 C 5.7184 2.94922 4.31066 0
M  V30 76 H 7.4124 1.91276 2.30334 0
M  V30 77 H 4.9584 0.921073 1.1069 0
M  V30 78 H 6.9114 0.378839 4.19694 0
M  V30 79 H 5.6354 -0.413598 3.23971 0
M  V30 80 H 4.2944 1.71891 3.23804 0
M  V30 81 H 3.9424 0.0101688 5.02999 0
M  V30 82 H 3.6424 1.65784 5.63728 0
M  V30 83 H 5.1664 0.821939 6.05043 0
M  V30 84 H 6.5804 2.8288 4.9865 0
M  V30 85 H 4.9774 3.5983 4.80253 0
M  V30 86 H 6.0474 3.4616 3.39561 0
M  V30 87 N 7.3905 -1.2043 1.01659 0
M  V30 88 C 8.6675 -1.8548 0.621004 0
M  V30 89 C 9.0475 -1.9091 -0.900919 0
M  V30 90 O 8.3955 -1.41694 -1.79263 0
M  V30 91 C 8.6055 -3.25119 1.2688 0
M  V30 92 C 9.9535 -4.01403 1.38423 0
M  V30 93 O 10.9775 -3.34473 1.22501 0
M  V30 94 O 9.8365 -5.21265 1.64151 0
M  V30 95 H 6.9305 -0.798761 0.214266 0
M  V30 96 H 9.4765 -1.28019 1.11396 0
M  V30 97 H 8.2485 -3.15932 2.30873 0
M  V30 98 H 7.8715 -3.90212 0.762917 0
M  V30 99 N 8.8686 -0.792821 -1.36206 0
M  V30 100 C 10.1166 -0.366062 -1.98757 0
M  V30 101 C 10.4376 1.0668 -1.63231 0
M  V30 102 O 9.7076 1.73587 -0.907978 0
M  V30 103 H 8.2876 -0.132364 -0.735179 0
M  V30 104 H 10.9496 -1.01562 -1.66347 0
M  V30 105 H 10.0456 -0.460638 -3.08682 0
M  V30 106 N 10.3467 1.47872 -0.545128 0
M  V30 107 C 11.2937 2.29849 0.2093 0
M  V30 108 C 12.2637 1.38313 0.919707 0
M  V30 109 O 13.4487 1.67277 0.917772 0
M  V30 110 C 10.5887 3.22019 1.24088 0
M  V30 111 C 9.7017 4.2864 0.537778 0
M  V30 112 C 8.8367 5.07973 1.5536 0
M  V30 113 C 7.8757 6.06381 0.8348 0
M  V30 114 N 7.0127 6.78717 1.79688 0
M  V30 115 H 11.8527 2.93845 -0.49591 0
M  V30 116 H 9.3897 1.44848 -0.256389 0
M  V30 117 H 11.3477 3.73868 1.85144 0
M  V30 118 H 9.9777 2.59914 1.91428 0
M  V30 119 H 9.0297 3.7994 -0.187046 0
M  V30 120 H 10.3417 4.98793 -0.0258907 0
M  V30 121 H 9.4957 5.63912 2.23803 0
M  V30 122 H 8.2347 4.37693 2.15118 0
M  V30 123 H 7.2397 5.49631 0.136388 0
M  V30 124 H 8.4647 6.78665 0.24313 0
M  V30 125 H 6.4107 6.11177 2.38326 0
M  V30 126 H 6.3277 7.44998 1.28505 0
M  V30 127 H 7.5957 7.39237 2.47282 0
M  V30 128 N 11.8248 0.280983 1.55075 0
M  V30 129 C 13.0708 -0.33461 2.00021 0
M  V30 130 C 13.4038 -1.55063 1.16915 0
M  V30 131 O 12.6788 -1.93006 0.240646 0
M  V30 132 C 12.9618 -0.711007 3.53011 0
M  V30 133 C 12.8148 0.512766 4.46868 0
M  V30 134 C 14.1338 -1.54522 4.12081 0
M  V30 135 H 11.2528 -0.120147 0.727141 0
M  V30 136 H 13.8948 0.389097 1.85973 0
M  V30 137 H 12.0448 -1.32761 3.65112 0
M  V30 138 H 13.7168 1.15131 4.46702 0
M  V30 139 H 11.9598 1.14975 4.18286 0
M  V30 140 H 12.6308 0.205556 5.51617 0
M  V30 141 H 15.1068 -1.02442 4.03293 0
M  V30 142 H 13.9828 -1.77739 5.19327 0
M  V30 143 H 14.2438 -2.52813 3.62682 0
M  V30 144 N 13.3029 -1.57598 0.00835791 0
M  V30 145 C 14.2659 -2.07884 -0.965242 0
M  V30 146 C 15.2659 -0.989825 -1.26725 0
M  V30 147 O 16.4559 -1.25218 -1.21104 0
M  V30 148 C 13.5879 -2.52731 -2.28779 0
M  V30 149 H 14.7809 -2.95178 -0.530112 0
M  V30 150 H 12.3339 -1.54458 -0.239283 0
M  V30 151 H 13.0689 -1.68705 -2.76964 0
M  V30 152 H 12.8539 -3.32272 -2.08177 0
M  V30 153 H 14.3439 -2.91933 -2.98605 0
M  V30 154 N 14.781 0.264519 -1.55364 0
M  V30 155 C 16.03 0.992812 -1.75574 0
M  V30 156 C 16.343 1.87142 -0.568979 0
M  V30 157 O 17.549 2.63513 -0.653682 0
M  V30 158 C 16.005 1.81519 -3.10771 0
M  V30 159 C 15.613 0.984839 -4.37041 0
M  V30 160 C 17.357 2.53727 -3.40327 0
M  V30 161 C 15.264 1.80209 -5.63275 0
M  V30 162 H 14.194 0.374412 -0.65447 0
M  V30 163 H 16.845 0.248138 -1.81815 0
M  V30 164 H 15.227 2.60115 -2.98591 0
M  V30 165 H 16.401 0.242455 -4.60162 0
M  V30 166 H 14.716 0.37691 -4.14691 0
M  V30 167 H 17.313 3.15292 -4.3185 0
M  V30 168 H 17.656 3.24447 -2.60845 0
M  V30 169 H 18.189 1.82156 -3.53644 0
M  V30 170 H 14.928 1.13896 -6.45529 0
M  V30 171 H 14.448 2.52022 -5.44284 0
M  V30 172 H 16.127 2.37364 -6.01887 0
M  V30 173 N 16.2591 1.48442 0.529413 0
M  V30 174 C 17.5081 1.55742 1.28169 0
M  V30 175 C 17.8211 0.236511 1.94165 0
M  V30 176 O 19.0271 0.187761 2.7085 0
M  V30 177 C 17.4831 2.74667 2.32564 0
M  V30 178 C 17.0911 4.13402 1.72636 0
M  V30 179 C 18.8351 2.9128 3.08798 0
M  V30 180 C 16.7421 5.23587 2.74975 0
M  V30 181 H 15.6721 0.579796 0.48203 0
M  V30 182 H 18.3231 1.74776 0.559056 0
M  V30 183 H 16.7051 2.49067 3.07866 0
M  V30 184 H 17.8791 4.49022 1.03519 0
M  V30 185 H 16.1941 4.0191 1.08892 0
M  V30 186 H 18.7911 3.70767 3.85274 0
M  V30 187 H 19.1341 2.00757 3.64695 0
M  V30 188 H 19.6671 3.16782 2.40611 0
M  V30 189 H 16.4061 6.16076 2.23897 0
M  V30 190 H 15.9261 4.92454 3.42417 0
M  V30 191 H 17.6051 5.51724 3.37949 0
M  V30 192 N 17.7372 -0.778329 1.37039 0
M  V30 193 C 18.9652 -1.56734 1.35063 0
M  V30 194 C 19.3802 -1.88686 -0.0655597 0
M  V30 195 O 18.7372 -1.5096 -1.02554 0
M  V30 196 C 18.7882 -2.88163 2.18276 0
M  V30 197 O 18.5092 -2.57583 3.54376 0
M  V30 198 C 20.0102 -3.82422 2.24206 0
M  V30 199 H 17.2302 -0.485778 0.462883 0
M  V30 200 H 19.7742 -0.965185 1.8029 0
M  V30 201 H 17.9292 -3.44818 1.76576 0
M  V30 202 H 18.3432 -3.41699 3.97922 0
M  V30 203 H 19.8172 -4.71667 2.86765 0
M  V30 204 H 20.2942 -4.21078 1.24861 0
M  V30 205 H 20.9002 -3.31697 2.6619 0
M  V30 206 N 19.2153 -1.21501 -1.00376 0
M  V30 207 C 20.4633 -1.03095 -1.73827 0
M  V30 208 C 20.7843 0.436341 -1.90055 0
M  V30 209 O 20.0543 1.31466 -1.45236 0
M  V30 210 H 18.6343 -0.378487 -0.644016 0
M  V30 211 H 21.2963 -1.52831 -1.20949 0
M  V30 212 H 20.3923 -1.49991 -2.73695 0
M  V30 213 N 20.6934 1.19889 -1.02296 0
M  V30 214 C 21.9414 1.89046 -0.714558 0
M  V30 215 C 22.2624 1.79636 0.758681 0
M  V30 216 O 21.5324 1.20292 1.54618 0
M  V30 217 H 20.1124 0.699802 -0.261317 0
M  V30 218 H 22.7744 1.45574 -1.29592 0
M  V30 219 H 21.8704 2.95524 -1.0036 0
M  V30 220 N 22.1715 0.800033 1.35784 0
M  V30 221 C 23.3995 0.389606 2.03199 0
M  V30 222 C 23.8145 -0.997375 1.60306 0
M  V30 223 O 23.1715 -1.64154 0.797481 0
M  V30 224 C 23.2225 0.455855 3.58614 0
M  V30 225 O 22.9435 1.78815 3.99946 0
M  V30 226 C 24.4445 0.0374032 4.43284 0
M  V30 227 H 21.6645 0.159132 0.651857 0
M  V30 228 H 24.2085 1.08183 1.73541 0
M  V30 229 H 22.3635 -0.188057 3.86943 0
M  V30 230 H 22.7775 1.74636 4.94573 0
M  V30 231 H 24.2515 0.134882 5.51835 0
M  V30 232 H 24.7285 -1.01651 4.27275 0
M  V30 233 H 25.3345 0.654215 4.20238 0
M  V30 234 N 23.6496 -1.47581 0.552962 0
M  V30 235 C 24.5796 -2.32762 -0.185451 0
M  V30 236 C 25.5606 -1.43527 -0.912905 0
M  V30 237 O 26.7456 -1.72388 -0.894201 0
M  V30 238 C 23.8756 -3.25219 -1.21859 0
M  V30 239 C 22.8296 -4.23661 -0.607864 0
M  V30 240 C 22.1556 -5.05413 -1.74533 0
M  V30 241 C 23.4556 -5.20481 0.435582 0
M  V30 242 H 25.1496 -2.94749 0.525684 0
M  V30 243 H 22.6956 -1.41738 0.254251 0
M  V30 244 H 24.6486 -3.8365 -1.7433 0
M  V30 245 H 23.3726 -2.61279 -1.95961 0
M  V30 246 H 22.0316 -3.66451 -0.104489 0
M  V30 247 H 21.6796 -4.3788 -2.47529 0
M  V30 248 H 21.3796 -5.72059 -1.34249 0
M  V30 249 H 22.9036 -5.66701 -2.27338 0
M  V30 250 H 24.3176 -5.733 -0.00290157 0
M  V30 251 H 22.7146 -5.95305 0.757067 0
M  V30 252 H 23.7846 -4.66217 1.33303 0
M  V30 253 N 25.1277 -0.289203 -1.54924 0
M  V30 254 C 26.3757 0.322879 -1.99504 0
M  V30 255 C 26.6967 1.55313 -1.1791 0
M  V30 256 O 25.9667 1.94001 -0.272097 0
M  V30 257 H 24.5467 0.122291 -0.736922 0
M  V30 258 H 27.2087 -0.397802 -1.90797 0
M  V30 259 H 26.3047 0.603061 -3.06218 0
M  V30 260 N 26.6058 1.57591 -0.0167156 0
M  V30 261 C 27.8548 1.90461 0.663877 0
M  V30 262 C 28.1678 0.893515 1.73999 0
M  V30 263 O 29.3738 1.11302 2.47637 0
M  V30 264 C 27.8298 3.38155 1.23204 0
M  V30 265 C 27.4378 4.47597 0.189866 0
M  V30 266 C 29.1818 3.80111 1.88986 0
M  V30 267 C 27.0888 5.86379 0.768964 0
M  V30 268 H 26.0188 0.710738 0.251729 0
M  V30 269 H 28.6698 1.83326 -0.0799926 0
M  V30 270 H 27.0518 3.40182 2.02712 0
M  V30 271 H 28.2258 4.57112 -0.581846 0
M  V30 272 H 26.5408 4.14766 -0.368475 0
M  V30 273 H 29.1378 4.81145 2.33247 0
M  V30 274 H 29.4808 3.14511 2.72743 0
M  V30 275 H 30.0138 3.80454 1.16187 0
M  V30 276 H 26.7528 6.55493 -0.0301957 0
M  V30 277 H 26.2728 5.80496 1.50945 0
M  V30 278 H 27.9518 6.34563 1.26251 0
M  V30 279 N 28.0839 -0.256276 1.55502 0
M  V30 280 C 29.3319 -0.983672 1.76545 0
M  V30 281 C 29.6529 -1.86206 0.578982 0
M  V30 282 O 28.9229 -1.91656 -0.405577 0
M  V30 283 H 27.5029 -0.366191 0.651086 0
M  V30 284 H 30.1649 -0.276479 1.92929 0
M  V30 285 H 29.2609 -1.61087 2.67315 0
M  V30 286 N 29.562 -1.4872 -0.521534 0
M  V30 287 C 30.492 -1.66771 -1.63431 0
M  V30 288 C 31.473 -0.516499 -1.62069 0
M  V30 289 O 32.658 -0.750013 -1.79132 0
M  V30 290 C 29.788 -1.71515 -3.01993 0
M  V30 291 C 28.742 -2.86222 -3.18216 0
M  V30 292 C 28.068 -2.76061 -4.57924 0
M  V30 293 C 29.368 -4.27419 -3.00184 0
M  V30 294 H 31.062 -2.59932 -1.48579 0
M  V30 295 H 28.608 -1.25089 -0.713358 0
M  V30 296 H 30.561 -1.82731 -3.7972 0
M  V30 297 H 29.285 -0.749393 -3.17886 0
M  V30 298 H 27.944 -2.74575 -2.42908 0
M  V30 299 H 27.592 -1.77437 -4.70665 0
M  V30 300 H 27.292 -3.53037 -4.69722 0
M  V30 301 H 28.816 -2.89256 -5.37739 0
M  V30 302 H 30.23 -4.39855 -3.67697 0
M  V30 303 H 28.627 -5.05458 -3.2347 0
M  V30 304 H 29.697 -4.43293 -1.96518 0
M  V30 305 N 31.0401 0.771051 -1.3745 0
M  V30 306 C 32.0031 1.86598 -1.33093 0
M  V30 307 C 33.0031 1.59076 -0.234845 0
M  V30 308 O 34.1931 1.67145 -0.490732 0
M  V30 309 C 31.3251 3.23747 -1.06773 0
M  V30 310 H 32.5181 1.91873 -2.30488 0
M  V30 311 H 30.0711 0.970876 -1.2249 0
M  V30 312 H 30.8061 3.24148 -0.099129 0
M  V30 313 H 30.5911 3.45115 -1.86112 0
M  V30 314 H 32.0811 4.03824 -1.06377 0
M  V30 315 N 32.5182 1.22032 0.997298 0
M  V30 316 C 33.7672 1.03637 1.73038 0
M  V30 317 C 34.0802 -0.429475 1.90827 0
M  V30 318 O 35.2862 -0.732995 2.61418 0
M  V30 319 C 33.7422 1.80582 3.11317 0
M  V30 320 C 33.3502 3.31387 3.01474 0
M  V30 321 C 35.0942 1.70621 3.88701 0
M  V30 322 C 33.0012 4.00791 4.3488 0
M  V30 323 H 31.9312 0.384179 0.648785 0
M  V30 324 H 34.5822 1.4584 1.11368 0
M  V30 325 H 32.9642 1.31175 3.73643 0
M  V30 326 H 34.1382 3.88155 2.4834 0
M  V30 327 H 32.4532 3.41976 2.37575 0
M  V30 328 H 35.0502 2.19799 4.87434 0
M  V30 329 H 35.3932 0.665823 4.10941 0
M  V30 330 H 35.9262 2.17547 3.33044 0
M  V30 331 H 32.6652 5.05064 4.1784 0
M  V30 332 H 32.1852 3.48811 4.87945 0
M  V30 333 H 33.8642 4.06139 5.03647 0
M  V30 334 N 33.9963 -1.19345 1.0293 0
M  V30 335 C 34.9593 -2.20793 0.615069 0
M  V30 336 C 35.9593 -1.57553 -0.321533 0
M  V30 337 O 37.1493 -1.73862 -0.108483 0
M  V30 338 C 34.2813 -3.40754 -0.0999222 0
M  V30 339 H 35.4743 -2.58955 1.51269 0
M  V30 340 H 33.0273 -1.3303 0.820534 0
M  V30 341 H 33.7623 -3.0811 -1.01187 0
M  V30 342 H 33.5473 -3.87889 0.57309 0
M  V30 343 H 35.0373 -4.15898 -0.376645 0
M  V30 344 N 35.4744 -0.807222 -1.35358 0
M  V30 345 C 36.7024 -0.400377 -2.02989 0
M  V30 346 C 37.1174 0.988859 -1.60832 0
M  V30 347 O 36.4744 1.63729 -0.806175 0
M  V30 348 C 36.5254 -0.474867 -3.58368 0
M  V30 349 O 36.2464 -1.80933 -3.98992 0
M  V30 350 C 37.7474 -0.0609112 -4.43258 0
M  V30 351 H 34.9674 -0.162587 -0.651004 0
M  V30 352 H 37.5114 -1.09102 -1.72965 0
M  V30 353 H 35.6664 0.167534 -3.87038 0
M  V30 354 H 36.0804 -1.77256 -4.9364 0
M  V30 355 H 37.5544 -0.164145 -5.51756 0
M  V30 356 H 38.0314 0.993831 -4.27808 0
M  V30 357 H 38.6374 -0.676492 -4.19885 0
M  V30 358 N 36.9525 1.47285 -0.560781 0
M  V30 359 C 37.8995 2.30058 0.18491 0
M  V30 360 C 38.8695 1.39281 0.904986 0
M  V30 361 O 40.0545 1.68241 0.899979 0
M  V30 362 C 37.1945 3.23317 1.20666 0
M  V30 363 C 36.3075 4.29186 0.492285 0
M  V30 364 C 35.4425 5.09592 1.49964 0
M  V30 365 C 34.4815 6.07232 0.770439 0
M  V30 366 N 33.6185 6.80584 1.72479 0
M  V30 367 H 38.4585 2.93302 -0.527048 0
M  V30 368 H 35.9955 1.44568 -0.271738 0
M  V30 369 H 37.9535 3.75811 1.81168 0
M  V30 370 H 36.5835 2.61929 1.88661 0
M  V30 371 H 35.6355 3.7972 -0.227333 0
M  V30 372 H 36.9475 4.98738 -0.0787929 0
M  V30 373 H 36.1015 5.66254 2.17809 0
M  V30 374 H 34.8405 4.3995 2.10464 0
M  V30 375 H 33.8455 5.49745 0.0780846 0
M  V30 376 H 35.0705 6.78884 0.171134 0
M  V30 377 H 33.0165 6.1367 2.3183 0
M  V30 378 H 32.9335 7.46319 1.20596 0
M  V30 379 H 34.2015 7.41818 2.39428 0
M  V30 380 N 38.4306 0.297415 1.54768 0
M  V30 381 C 39.6776 -0.312913 2.00068 0
M  V30 382 C 40.0056 -1.54171 1.18582 0
M  V30 383 O 39.2606 -1.94108 0.249133 0
M  V30 384 C 39.5596 -0.717561 3.50123 0
M  V30 385 C 39.2256 0.409095 4.4904 0
M  V30 386 C 37.8876 0.718399 4.75807 0
M  V30 387 C 40.2396 1.16717 5.07963 0
M  V30 388 C 37.5676 1.78896 5.5876 0
M  V30 389 C 39.9196 2.22762 5.92081 0
M  V30 390 C 38.5836 2.54303 6.1716 0
M  V30 391 H 37.8536 -0.114503 0.7321 0
M  V30 392 H 40.5006 0.415767 1.86932 0
M  V30 393 H 38.8056 -1.52627 3.60849 0
M  V30 394 H 40.5026 -1.20091 3.82595 0
M  V30 395 H 37.0926 0.157918 4.28309 0
M  V30 396 H 41.2766 0.941466 4.87289 0
M  V30 397 H 36.5326 2.0381 5.7643 0
M  V30 398 H 40.7066 2.81962 6.36765 0
M  V30 399 H 38.3336 3.3739 6.81229 0
M  V30 400 N 39.9087 -1.5758 0.0250728 0
M  V30 401 C 41.1547 -1.91917 -0.655413 0
M  V30 402 C 41.4877 -0.901433 -1.72011 0
M  V30 403 O 40.7627 0.0764069 -1.9435 0
M  V30 404 C 41.0457 -3.36751 -1.27558 0
M  V30 405 C 40.8987 -4.49258 -0.220719 0
M  V30 406 C 42.2177 -3.81469 -2.19475 0
M  V30 407 H 39.3367 -0.697925 -0.23679 0
M  V30 408 H 41.9787 -1.89825 0.0815036 0
M  V30 409 H 40.1287 -3.38664 -1.90365 0
M  V30 410 H 41.8007 -4.59478 0.409601 0
M  V30 411 H 40.0437 -4.31415 0.454264 0
M  V30 412 H 40.7147 -5.47618 -0.694175 0
M  V30 413 H 43.1907 -3.81266 -1.66659 0
M  V30 414 H 42.0667 -4.83512 -2.59822 0
M  V30 415 H 42.3277 -3.16744 -3.08424 0
M  V30 416 N 41.3868 0.248026 -1.55636 0
M  V30 417 C 42.2968 1.32859 -1.93354 0
M  V30 418 C 43.3128 1.52719 -0.833838 0
M  V30 419 O 44.4888 1.66363 -1.13513 0
M  V30 420 C 41.5538 2.66337 -2.21958 0
M  V30 421 C 40.6148 2.55008 -3.45354 0
M  V30 422 C 39.8478 3.82121 -3.72584 0
M  V30 423 O 40.0708 4.83951 -3.01907 0
M  V30 424 O 39.0048 3.80822 -4.6611 0
M  V30 425 H 42.8308 1.03862 -2.85388 0
M  V30 426 H 40.4158 0.448686 -1.42503 0
M  V30 427 H 42.2978 3.45216 -2.4167 0
M  V30 428 H 40.9728 2.95068 -1.33103 0
M  V30 429 H 39.8798 1.7442 -3.30951 0
M  V30 430 H 41.2128 2.31222 -4.34508 0
M  V30 431 N 42.8649 1.48995 0.513639 0
M  V30 432 C 43.7749 1.67443 1.64317 0
M  V30 433 C 44.7909 0.556947 1.64846 0
M  V30 434 O 45.9669 0.830082 1.83498 0
M  V30 435 C 43.0319 1.72515 3.00732 0
M  V30 436 C 42.0929 2.96009 3.1093 0
M  V30 437 C 41.3259 3.00829 4.40837 0
M  V30 438 O 41.5489 2.13594 5.28898 0
M  V30 439 O 40.4829 3.93168 4.55744 0
M  V30 440 H 44.3089 2.63106 1.51687 0
M  V30 441 H 41.8939 1.32588 0.688543 0
M  V30 442 H 43.7759 1.78277 3.81831 0
M  V30 443 H 42.4509 0.800278 3.13651 0
M  V30 444 H 41.3579 2.9577 2.29065 0
M  V30 445 H 42.6909 3.87934 3.02933 0
M  V30 446 N 44.343 -0.763751 1.37857 0
M  V30 447 C 45.591 -1.51957 1.33243 0
M  V30 448 C 45.912 -1.94835 -0.0801709 0
M  V30 449 O 45.182 -1.66894 -1.02582 0
M  V30 450 H 43.762 -0.563626 0.49024 0
M  V30 451 H 46.424 -0.908504 1.7243 0
M  V30 452 H 45.52 -2.41523 1.97669 0
M  V30 453 N 45.8211 -1.22559 -0.990812 0
M  V30 454 C 46.7841 -0.998863 -2.0629 0
M  V30 455 C 47.7841 0.0354834 -1.60761 0
M  V30 456 O 48.9741 -0.203231 -1.7301 0
M  V30 457 C 46.1061 -0.509203 -3.37076 0
M  V30 458 H 47.2991 -1.95014 -2.27837 0
M  V30 459 H 44.8521 -1.04456 -1.16269 0
M  V30 460 H 45.5871 0.446335 -3.21214 0
M  V30 461 H 45.3721 -1.25547 -3.71457 0
M  V30 462 H 46.8621 -0.370888 -4.1595 0
M  V30 463 N 47.2992 1.18797 -1.03562 0
M  V30 464 C 48.2462 2.22253 -0.622259 0
M  V30 465 C 49.2162 1.61987 0.36736 0
M  V30 466 O 50.4012 1.88986 0.262492 0
M  V30 467 C 47.5412 3.45097 0.0138462 0
M  V30 468 C 46.6542 4.19722 -1.02263 0
M  V30 469 C 45.7892 5.30009 -0.355573 0
M  V30 470 C 44.8282 5.96399 -1.37749 0
M  V30 471 N 43.9652 6.98234 -0.735766 0
M  V30 472 H 48.8052 2.56968 -1.50903 0
M  V30 473 H 46.3422 1.26245 -0.755017 0
M  V30 474 H 48.3002 4.15279 0.399948 0
M  V30 475 H 46.9302 3.11018 0.864158 0
M  V30 476 H 45.9822 3.48418 -1.52673 0
M  V30 477 H 47.2942 4.65227 -1.79903 0
M  V30 478 H 46.4482 6.0664 0.0850095 0
M  V30 479 H 45.1872 4.85592 0.452967 0
M  V30 480 H 44.1922 5.18512 -1.82826 0
M  V30 481 H 45.4172 6.42899 -2.18764 0
M  V30 482 H 43.3632 6.55979 0.0525597 0
M  V30 483 H 43.2802 7.41965 -1.44995 0
M  V30 484 H 44.5482 7.78845 -0.31941 0
M  V30 485 N 48.7773 0.814389 1.34928 0
M  V30 486 C 50.0233 0.399013 1.98836 0
M  V30 487 C 50.3563 -1.03314 1.64438 0
M  V30 488 O 49.6313 -1.71811 0.911659 0
M  V30 489 C 49.9143 0.591629 3.55207 0
M  V30 490 C 49.7673 2.06928 3.99376 0
M  V30 491 C 51.0863 0.022199 4.40094 0
M  V30 492 H 48.2053 0.146451 0.722303 0
M  V30 493 H 50.8473 1.02537 1.59957 0
M  V30 494 H 48.9973 0.0584441 3.88456 0
M  V30 495 H 50.6693 2.66544 3.76499 0
M  V30 496 H 48.9123 2.56287 3.49999 0
M  V30 497 H 49.5833 2.1549 5.08201 0
M  V30 498 H 52.0593 0.477643 4.13349 0
M  V30 499 H 50.9353 0.186832 5.48582 0
M  V30 500 H 51.1963 -1.07215 4.28902 0
M  V30 501 N 50.2554 -1.46986 0.568584 0
M  V30 502 C 51.1884 -2.27129 -0.220779 0
M  V30 503 C 52.1664 -1.34757 -0.909905 0
M  V30 504 O 53.3504 -1.64152 -0.926622 0
M  V30 505 C 50.4774 -3.12108 -1.31553 0
M  V30 506 C 49.5234 -4.20141 -0.733748 0
M  V30 507 S 50.3564 -5.33783 0.428479 0
M  V30 508 C 51.5124 -6.22327 -0.667811 0
M  V30 509 H 51.7454 -2.93731 0.459267 0
M  V30 510 H 49.2784 -1.5026 0.355154 0
M  V30 511 H 51.2364 -3.61636 -1.94241 0
M  V30 512 H 49.8974 -2.44847 -1.96746 0
M  V30 513 H 49.0904 -4.79373 -1.5562 0
M  V30 514 H 48.6924 -3.73553 -0.182812 0
M  V30 515 H 50.9844 -6.59364 -1.55708 0
M  V30 516 H 51.9274 -7.0801 -0.11258 0
M  V30 517 H 52.3354 -5.5618 -0.965601 0
M  V30 518 N 51.7335 -0.305618 -1.54608 0
M  V30 519 C 52.9825 0.303098 -1.9941 0
M  V30 520 C 53.2955 1.54648 -1.19764 0
M  V30 521 O 54.5015 2.23007 -1.54855 0
M  V30 522 C 52.9575 0.590588 -3.55021 0
M  V30 523 C 52.5655 -0.634719 -4.43481 0
M  V30 524 C 54.3095 1.16025 -4.08336 0
M  V30 525 C 52.2165 -0.320126 -5.90533 0
M  V30 526 H 51.1465 0.117031 -0.744862 0
M  V30 527 H 53.7975 -0.415045 -1.78745 0
M  V30 528 H 52.1795 1.36845 -3.71604 0
M  V30 529 H 53.3535 -1.41079 -4.38672 0
M  V30 530 H 51.6685 -1.12333 -4.00962 0
M  V30 531 H 54.2655 1.40994 -5.15776 0
M  V30 532 H 54.6085 2.10397 -3.5922 0
M  V30 533 H 55.1415 0.443985 -3.95315 0
M  V30 534 H 51.8805 -1.23254 -6.43808 0
M  V30 535 H 51.4005 0.418579 -5.98338 0
M  V30 536 H 53.0795 0.0766241 -6.46955 0
M  V30 537 N 53.2116 1.57565 -0.0334293 0
M  V30 538 C 54.4396 1.9628 0.654347 0
M  V30 539 C 54.8546 0.910138 1.65414 0
M  V30 540 O 54.2116 -0.107595 1.82183 0
M  V30 541 C 54.2626 3.35067 1.35693 0
M  V30 542 O 53.9836 4.36296 0.397191 0
M  V30 543 C 55.4846 3.88439 2.13613 0
M  V30 544 H 52.7046 0.646369 0.180132 0
M  V30 545 H 55.2486 2.04282 -0.0944721 0
M  V30 546 H 53.4036 3.2827 2.05712 0
M  V30 547 H 53.8176 5.1678 0.896597 0
M  V30 548 H 55.2916 4.8788 2.58219 0
M  V30 549 H 55.7686 3.22914 2.97696 0
M  V30 550 H 56.3746 3.98516 1.48543 0
M  V30 551 N 54.6897 -0.239769 1.55765 0
M  V30 552 C 55.9377 -0.964892 1.77579 0
M  V30 553 C 56.2587 -1.85582 0.598699 0
M  V30 554 O 55.5287 -1.92075 -0.385226 0
M  V30 555 H 54.1087 -0.359265 0.654933 0
M  V30 556 H 56.7707 -0.256001 1.93211 0
M  V30 557 H 55.8667 -1.58243 2.69009 0
M  V30 558 N 56.1678 -1.49265 -0.50573 0
M  V30 559 C 57.5838 -1.35923 -0.836486 0
M  V30 560 C 57.7838 -0.388704 -1.97715 0
M  V30 561 O 56.8398 0.181336 -2.51848 0
M  V30 562 C 58.1528 -2.76531 -1.18115 0
M  V30 563 C 59.7008 -2.85197 -1.28964 0
M  V30 564 C 60.1758 -4.26561 -1.66761 0
M  V30 565 N 61.6668 -4.2935 -1.73819 0
M  V30 566 C 62.4018 -5.35693 -2.045 0
M  V30 567 N 61.8978 -6.52287 -2.33438 0
M  V30 568 N 63.6908 -5.23105 -2.05711 0
M  V30 569 H 55.8418 -2.10965 0.246519 0
M  V30 570 H 58.1048 -0.9468 0.0476887 0
M  V30 571 H 57.8108 -3.49226 -0.416398 0
M  V30 572 H 57.6848 -3.11599 -2.1257 0
M  V30 573 H 60.0718 -2.12742 -2.04511 0
M  V30 574 H 60.1528 -2.53718 -0.325704 0
M  V30 575 H 59.7968 -4.99541 -0.917656 0
M  V30 576 H 59.7268 -4.55502 -2.64246 0
M  V30 577 H 62.2178 -3.4526 -1.53635 0
M  V30 578 H 62.5308 -7.29158 -2.56024 0
M  V30 579 H 60.8758 -6.55521 -2.30905 0
M  V30 580 H 64.0668 -4.31026 -1.82577 0
M  V30 581 H 64.2398 -6.06078 -2.29289 0
M  V30 582 N 57.6459 0.756429 -1.3826 0
M  V30 583 C 58.5959 1.86069 -1.31766 0
M  V30 584 C 59.5799 1.59621 -0.202483 0
M  V30 585 O 60.7719 1.7149 -0.438211 0
M  V30 586 C 57.9009 3.23742 -1.1422 0
M  V30 587 C 56.9869 3.56091 -2.30348 0
M  V30 588 N 57.3779 3.59517 -3.55783 0
M  V30 589 C 55.6759 3.86341 -2.22838 0
M  V30 590 C 56.3769 3.89052 -4.32451 0
M  V30 591 N 55.3529 4.05736 -3.61772 0
M  V30 592 H 59.1549 1.86992 -2.26741 0
M  V30 593 H 56.6689 0.953643 -1.31451 0
M  V30 594 H 58.6659 4.02761 -1.07652 0
M  V30 595 H 57.3259 3.24073 -0.201763 0
M  V30 596 H 58.3369 3.41347 -3.89491 0
M  V30 597 H 55.0139 3.94404 -1.36937 0
M  V30 598 H 56.4039 3.98349 -5.4108 0
M  V30 599 N 59.124 1.23083 0.984299 0
M  V30 600 C 60.349 1.088 1.76571 0
M  V30 601 C 60.774 -0.356657 1.84688 0
M  V30 602 O 60.132 -1.25788 1.30565 0
M  V30 603 C 60.18 1.71371 3.17277 0
M  V30 604 O 59.284 0.973213 4.00752 0
M  V30 605 H 58.625 0.381599 0.543395 0
M  V30 606 H 61.155 1.63057 1.23587 0
M  V30 607 H 61.165 1.76449 3.67872 0
M  V30 608 H 59.84 2.76493 3.10684 0
M  V30 609 H 58.417 0.999078 3.59267 0
M  V30 610 N 60.6021 -1.18246 1.0419 0
M  V30 611 C 61.8791 -1.84121 0.660208 0
M  V30 612 C 62.2591 -1.92778 -0.860221 0
M  V30 613 O 61.6071 -1.45464 -1.76217 0
M  V30 614 C 61.8171 -3.22355 1.33747 0
M  V30 615 C 63.1651 -3.98376 1.46906 0
M  V30 616 O 64.1891 -3.31799 1.29568 0
M  V30 617 O 63.0481 -5.17665 1.75171 0
M  V30 618 H 60.1421 -0.794036 0.231161 0
M  V30 619 H 62.6881 -1.25628 1.14087 0
M  V30 620 H 61.4601 -3.10964 2.37522 0
M  V30 621 H 61.0831 -3.88506 0.845515 0
M  V30 622 N 62.0802 -0.821533 -1.34494 0
M  V30 623 C 63.3262 -0.409552 -1.98622 0
M  V30 624 C 63.6592 1.0244 -1.64984 0
M  V30 625 O 62.9342 1.71325 -0.920758 0
M  V30 626 C 63.2172 -0.610458 -3.54888 0
M  V30 627 C 63.0702 -2.09043 -3.98273 0
M  V30 628 C 64.3892 -0.0455379 -4.40076 0
M  V30 629 H 61.5082 -0.15028 -0.721516 0
M  V30 630 H 64.1502 -1.03384 -1.59411 0
M  V30 631 H 62.3002 -0.079044 -3.8842 0
M  V30 632 H 63.9722 -2.68537 -3.75081 0
M  V30 633 H 62.2152 -2.58139 -3.48635 0
M  V30 634 H 62.8862 -2.18182 -5.07051 0
M  V30 635 H 65.3622 -0.499557 -4.1309 0
M  V30 636 H 64.2382 -0.215922 -5.48475 0
M  V30 637 H 64.4992 1.04939 -4.29465 0
M  V30 638 N 63.5583 1.46682 -0.576371 0
M  V30 639 C 64.8063 2.02013 -0.0594163 0
M  V30 640 C 65.1273 1.45101 1.30271 0
M  V30 641 O 64.3973 0.633317 1.8538 0
M  V30 642 H 62.9773 0.746759 -0.0189745 0
M  V30 643 H 65.6393 1.79862 -0.750717 0
M  V30 644 H 64.7353 3.12097 0.014345 0
M  V30 645 N 65.0364 0.313813 1.54444 0
M  V30 646 C 65.9464 -0.565714 2.27677 0
M  V30 647 C 66.9624 -1.13754 1.31666 0
M  V30 648 O 68.1384 -1.15959 1.64668 0
M  V30 649 C 65.2034 -1.71528 3.01296 0
M  V30 650 C 64.2644 -1.17624 4.12872 0
M  V30 651 C 63.4974 -2.27102 4.8297 0
M  V30 652 O 63.7204 -3.47256 4.52514 0
M  V30 653 O 62.6544 -1.9307 5.70094 0
M  V30 654 H 66.4804 0.0287296 3.03686 0
M  V30 655 H 64.0654 0.0798312 1.49187 0
M  V30 656 H 65.9474 -2.38476 3.4743 0
M  V30 657 H 64.6224 -2.29608 2.2817 0
M  V30 658 H 63.5294 -0.472124 3.71109 0
M  V30 659 H 64.8624 -0.640695 4.88012 0
M  V30 660 N 66.5145 -1.57545 0.0417849 0
M  V30 661 C 67.4615 -2.10977 -0.935805 0
M  V30 662 C 68.4315 -1.01486 -1.31491 0
M  V30 663 O 69.6165 -1.2898 -1.40602 0
M  V30 664 C 66.7565 -2.65169 -2.2086 0
M  V30 665 C 65.8695 -3.88714 -1.88482 0
M  V30 666 C 65.0045 -4.31254 -3.1015 0
M  V30 667 C 64.0435 -5.47524 -2.7365 0
M  V30 668 N 63.1805 -5.85162 -3.87982 0
M  V30 669 H 68.0205 -2.94218 -0.473249 0
M  V30 670 H 65.5575 -1.45415 -0.221981 0
M  V30 671 H 67.5155 -2.94685 -2.95325 0
M  V30 672 H 66.1455 -1.8474 -2.64709 0
M  V30 673 H 65.1975 -3.65849 -1.04205 0
M  V30 674 H 66.5095 -4.73245 -1.57608 0
M  V30 675 H 65.6635 -4.62273 -3.92923 0
M  V30 676 H 64.4025 -3.45516 -3.44195 0
M  V30 677 H 63.4075 -5.16187 -1.89291 0
M  V30 678 H 64.6325 -6.34971 -2.40807 0
M  V30 679 H 62.5785 -5.02377 -4.21846 0
M  V30 680 H 62.4955 -6.64362 -3.60775 0
M  V30 681 H 63.7635 -6.20791 -4.71422 0
M  V30 682 N 67.9926 0.231505 -1.5589 0
M  V30 683 C 68.9556 1.27028 -1.90779 0
M  V30 684 C 69.9556 1.40308 -0.785507 0
M  V30 685 O 71.1456 1.38744 -1.05336 0
M  V30 686 C 68.2776 2.64566 -2.14983 0
M  V30 687 H 69.4706 0.973017 -2.83677 0
M  V30 688 H 67.0236 0.471486 -1.49019 0
M  V30 689 H 67.7586 2.99406 -1.24604 0
M  V30 690 H 67.5436 2.56305 -2.96732 0
M  V30 691 H 69.0336 3.39543 -2.43105 0
M  V30 692 N 69.4707 1.49531 0.497807 0
M  V30 693 C 70.4337 1.65916 1.58128 0
M  V30 694 C 71.4337 0.530825 1.51786 0
M  V30 695 O 72.6237 0.797342 1.54881 0
M  V30 696 C 69.7557 1.65951 2.9778 0
M  V30 697 H 70.9487 2.62556 1.44929 0
M  V30 698 H 68.5017 1.38611 0.722275 0
M  V30 699 H 69.2367 0.709065 3.16453 0
M  V30 700 H 69.0217 2.47897 3.03792 0
M  V30 701 H 70.5117 1.80673 3.76493 0
M  V30 702 N 70.9488 -0.749086 1.3866 0
M  V30 703 C 71.8958 -1.86291 1.36251 0
M  V30 704 C 72.8658 -1.64578 0.224347 0
M  V30 705 O 74.0508 -1.86181 0.417279 0
M  V30 706 C 71.1908 -3.23644 1.19786 0
M  V30 707 C 70.3038 -3.57158 2.43027 0
M  V30 708 C 69.4388 -4.83838 2.19258 0
M  V30 709 C 68.4778 -5.10152 3.38247 0
M  V30 710 N 67.6148 -6.28029 3.13884 0
M  V30 711 H 72.4548 -1.87685 2.3147 0
M  V30 712 H 69.9918 -0.917287 1.14997 0
M  V30 713 H 71.9498 -4.0291 1.08254 0
M  V30 714 H 70.5798 -3.21566 0.282031 0
M  V30 715 H 69.6318 -2.72701 2.65214 0
M  V30 716 H 70.9438 -3.7253 3.31697 0
M  V30 717 H 70.0978 -5.71057 2.04888 0
M  V30 718 H 68.8368 -4.70614 1.2796 0
M  V30 719 H 67.8418 -4.21401 3.53131 0
M  V30 720 H 69.0668 -5.25271 4.30427 0
M  V30 721 H 67.0128 -6.1612 2.25238 0
M  V30 722 H 66.9298 -6.43922 3.96106 0
M  V30 723 H 68.1978 -7.18124 3.03179 0
M  V30 724 N 72.4269 -1.23603 -0.977757 0
M  V30 725 C 73.6519 -1.09735 -1.75991 0
M  V30 726 C 74.0769 0.346858 -1.84874 0
M  V30 727 O 73.4349 1.25093 -1.3123 0
M  V30 728 C 73.4829 -1.73051 -3.16363 0
M  V30 729 O 72.5869 -0.994452 -4.0023 0
M  V30 730 H 71.9279 -0.384476 -0.541364 0
M  V30 731 H 74.4579 -1.6371 -1.2272 0
M  V30 732 H 74.4679 -1.78398 -3.66931 0
M  V30 733 H 73.1429 -2.78137 -3.09213 0
M  V30 734 H 71.7199 -1.01812 -3.58732 0
M  V30 735 N 73.905 1.17692 -1.04816 0
M  V30 736 C 75.151 1.88137 -0.75711 0
M  V30 737 C 75.484 1.80604 0.713841 0
M  V30 738 O 74.759 1.21146 1.52164 0
M  V30 739 C 75.042 3.38318 -1.2334 0
M  V30 740 C 74.895 3.54622 -2.76701 0
M  V30 741 C 76.214 4.32214 -0.829415 0
M  V30 742 H 73.333 0.683163 -0.27651 0
M  V30 743 H 75.975 1.38424 -1.30149 0
M  V30 744 H 74.125 3.80787 -0.770286 0
M  V30 745 H 75.797 3.21194 -3.31107 0
M  V30 746 H 74.04 2.97026 -3.16161 0
M  V30 747 H 74.711 4.60028 -3.05088 0
M  V30 748 H 77.187 3.97565 -1.22805 0
M  V30 749 H 76.063 5.35838 -1.19033 0
M  V30 750 H 76.324 4.41294 0.266891 0
M  V30 751 N 75.3831 0.828654 1.34056 0
M  V30 752 C 76.6311 0.41863 1.97717 0
M  V30 753 C 76.9521 -1.02314 1.66002 0
M  V30 754 O 76.2221 -1.71119 0.953683 0
M  V30 755 H 74.8021 0.151809 0.731412 0
M  V30 756 H 77.4641 1.05936 1.63596 0
M  V30 757 H 76.5601 0.542318 3.07352 0
M  V30 758 N 76.8612 -1.46375 0.584142 0
M  V30 759 C 78.0892 -2.06761 0.0759296 0
M  V30 760 C 78.5042 -1.43266 -1.22965 0
M  V30 761 O 77.8612 -0.538458 -1.74376 0
M  V30 762 C 77.9122 -3.61375 -0.0950384 0
M  V30 763 O 77.6332 -4.22495 1.15887 0
M  V30 764 C 79.1342 -4.38693 -0.637434 0
M  V30 765 H 76.3542 -0.668479 0.0581075 0
M  V30 766 H 78.8982 -1.8798 0.805218 0
M  V30 767 H 77.0532 -3.79578 -0.774554 0
M  V30 768 H 77.4672 -5.15385 0.973598 0
M  V30 769 H 78.9412 -5.47464 -0.706237 0
M  V30 770 H 79.4182 -4.06836 -1.65472 0
M  V30 771 H 80.0242 -4.25299 0.00725967 0
M  V30 772 N 78.3393 -0.321999 -1.54275 0
M  V30 773 C 79.7503 0.166384 -1.85957 0
M  V30 774 C 80.1013 1.51747 -1.24367 0
M  V30 775 O 79.2263 2.09317 -0.549124 0
M  V30 776 C 79.8213 0.308681 -3.37391 0
M  V30 777 C 78.3803 0.741286 -3.69028 0
M  V30 778 C 77.5273 -0.137937 -2.76957 0
M  V30 779 H 80.4783 -0.542335 -1.49146 0
M  V30 780 H 80.4993 1.13984 -3.63026 0
M  V30 781 H 80.0113 -0.674809 -3.82188 0
M  V30 782 H 78.1123 1.73458 -3.29762 0
M  V30 783 H 78.2253 0.546118 -4.75977 0
M  V30 784 H 76.5893 0.386251 -2.51754 0
M  V30 785 H 77.3723 -1.11816 -3.2458 0
M  V30 786 N 79.8174 1.5752 -0.0501392 0
M  V30 787 C 81.0944 1.83996 0.663685 0
M  V30 788 C 81.4744 0.938339 1.89099 0
M  V30 789 O 80.8224 -0.00087759 2.285 0
M  V30 790 C 81.0324 3.33702 1.02196 0
M  V30 791 C 82.3804 4.00691 1.40469 0
M  V30 792 O 83.4044 3.38321 1.11433 0
M  V30 793 O 82.2634 5.10658 1.94654 0
M  V30 794 H 79.3574 0.759385 0.32751 0
M  V30 795 H 81.9034 1.69514 -0.0794238 0
M  V30 796 H 80.6754 3.91015 0.149364 0
M  V30 797 H 80.2984 3.53368 1.82255 0
M  V30 798 N 81.2955 -0.223234 1.56011 0
M  V30 799 C 82.2275 -1.30006 1.88762 0
M  V30 800 C 83.2405 -1.43129 0.775746 0
M  V30 801 O 84.4295 -1.44057 1.05403 0
M  V30 802 C 81.5295 -2.67589 2.07965 0
M  V30 803 C 80.7025 -2.76434 3.38973 0
M  V30 804 C 79.7615 -3.95019 3.47629 0
M  V30 805 O 78.7875 -3.83436 4.20672 0
M  V30 806 N 79.9895 -5.09249 2.78649 0
M  V30 807 H 82.7545 -1.02238 2.81722 0
M  V30 808 H 80.3155 -0.413278 1.56536 0
M  V30 809 H 82.3075 -3.45297 2.11073 0
M  V30 810 H 80.8775 -2.87964 1.21638 0
M  V30 811 H 80.0975 -1.85216 3.47978 0
M  V30 812 H 81.3855 -2.79313 4.25278 0
M  V30 813 H 80.7835 -5.21556 2.19081 0
M  V30 814 H 79.3405 -5.85007 2.8742 0
M  V30 815 N 82.7736 -1.49793 -0.48987 0
M  V30 816 C 84.0226 -1.59085 -1.23995 0
M  V30 817 C 84.3356 -0.287907 -1.9347 0
M  V30 818 O 85.5416 -0.259506 -2.70257 0
M  V30 819 C 83.9976 -2.80736 -2.252 0
M  V30 820 C 83.6056 -4.17833 -1.61614 0
M  V30 821 C 85.3496 -2.99364 -3.00967 0
M  V30 822 C 83.2566 -5.30693 -2.60996 0
M  V30 823 H 82.1866 -0.592372 -0.466488 0
M  V30 824 H 84.8376 -1.76197 -0.51252 0
M  V30 825 H 83.2196 -2.57142 -3.01154 0
M  V30 826 H 84.3936 -4.51608 -0.915774 0
M  V30 827 H 82.7086 -4.04656 -0.981977 0
M  V30 828 H 85.3056 -3.80851 -3.75308 0
M  V30 829 H 85.6486 -2.10356 -3.59244 0
M  V30 830 H 86.1816 -3.2305 -2.32128 0
M  V30 831 H 82.9206 -6.21796 -2.07485 0
M  V30 832 H 82.4406 -5.01359 -3.2924 0
M  V30 833 H 84.1196 -5.6049 -3.23202 0
M  V30 834 N 84.2517 0.741722 -1.39055 0
M  V30 835 C 85.1837 1.8657 -1.33133 0
M  V30 836 C 86.1967 1.61001 -0.241329 0
M  V30 837 O 87.3857 1.7136 -0.499784 0
M  V30 838 C 84.4857 3.22457 -1.04283 0
M  V30 839 C 83.6587 3.75435 -2.24427 0
M  V30 840 C 82.7177 4.89867 -1.92138 0
M  V30 841 O 81.7437 5.03879 -2.64754 0
M  V30 842 N 82.9457 5.73738 -0.88347 0
M  V30 843 H 85.7107 1.92156 -2.29991 0
M  V30 844 H 83.2717 0.922172 -1.3307 0
M  V30 845 H 85.2637 3.9657 -0.807128 0
M  V30 846 H 83.8337 3.12181 -0.161807 0
M  V30 847 H 83.0537 2.92751 -2.6399 0
M  V30 848 H 84.3417 4.07563 -3.04581 0
M  V30 849 H 83.7397 5.64999 -0.281517 0
M  V30 850 H 82.2967 6.47947 -0.707662 0
M  V30 851 N 85.7298 1.2412 0.971189 0
M  V30 852 C 86.9768 1.07881 1.71371 0
M  V30 853 C 87.3048 -0.382901 1.90694 0
M  V30 854 O 86.5598 -1.29945 1.46331 0
M  V30 855 C 86.8588 1.75983 3.11071 0
M  V30 856 C 86.5248 3.25909 3.11599 0
M  V30 857 C 85.1868 3.66813 3.11451 0
M  V30 858 C 87.5388 4.21771 3.062 0
M  V30 859 C 84.8668 5.02021 3.03631 0
M  V30 860 C 87.2188 5.56982 2.99923 0
M  V30 861 C 85.8828 5.97237 2.98102 0
M  V30 862 H 85.1528 0.394764 0.62709 0
M  V30 863 H 87.7998 1.54176 1.13587 0
M  V30 864 H 86.1048 1.22072 3.72298 0
M  V30 865 H 87.8018 1.60887 3.6731 0
M  V30 866 H 84.3918 2.93353 3.12477 0
M  V30 867 H 88.5758 3.91172 3.05447 0
M  V30 868 H 83.8318 5.32411 3.0058 0
M  V30 869 H 88.0058 6.30969 2.94704 0
M  V30 870 H 85.6328 7.01967 2.91798 0
M  V30 871 N 87.2079 -1.17134 1.05439 0
M  V30 872 C 88.4549 -1.87456 0.765942 0
M  V30 873 C 88.7829 -1.81189 -0.707153 0
M  V30 874 O 88.0379 -1.21633 -1.5331 0
M  V30 875 C 88.3369 -3.36833 1.19491 0
M  V30 876 C 88.0029 -3.63301 2.67063 0
M  V30 877 C 86.6649 -3.70234 3.07376 0
M  V30 878 C 89.0169 -3.74575 3.62413 0
M  V30 879 C 86.3449 -3.85933 4.41896 0
M  V30 880 C 88.6969 -3.91793 4.9667 0
M  V30 881 C 87.3609 -3.96966 5.36633 0
M  V30 882 H 86.6309 -0.685948 0.280278 0
M  V30 883 H 89.2779 -1.38556 1.32192 0
M  V30 884 H 87.5829 -3.87807 0.557969 0
M  V30 885 H 89.2799 -3.89611 0.948893 0
M  V30 886 H 85.8699 -3.58532 2.34846 0
M  V30 887 H 90.0539 -3.68537 3.32406 0
M  V30 888 H 85.3099 -3.88187 4.72357 0
M  V30 889 H 89.4839 -3.99458 5.70444 0
M  V30 890 H 87.1109 -4.08883 6.40874 0
M  V30 891 N 88.686 -0.835752 -1.33615 0
M  V30 892 C 89.618 -0.224151 -2.28101 0
M  V30 893 C 90.631 0.593331 -1.51603 0
M  V30 894 O 91.82 0.420911 -1.73466 0
M  V30 895 C 88.92 0.703309 -3.31522 0
M  V30 896 C 88.093 -0.0741528 -4.37337 0
M  V30 897 C 87.152 0.776176 -5.20444 0
M  V30 898 O 86.178 0.216506 -5.68788 0
M  V30 899 N 87.38 2.09401 -5.41416 0
M  V30 900 H 90.145 -1.03598 -2.81225 0
M  V30 901 H 87.706 -0.69392 -1.46275 0
M  V30 902 H 89.698 1.27707 -3.84022 0
M  V30 903 H 88.268 1.41585 -2.78698 0
M  V30 904 H 87.488 -0.82928 -3.85378 0
M  V30 905 H 88.776 -0.608863 -5.05144 0
M  V30 906 H 88.174 2.57229 -5.03835 0
M  V30 907 H 86.731 2.61633 -5.96985 0
M  V30 908 N 90.1641 1.46063 -0.591896 0
M  V30 909 C 91.1141 2.27458 0.157172 0
M  V30 910 C 92.0981 1.3641 0.853301 0
M  V30 911 O 93.2901 1.60517 0.74588 0
M  V30 912 C 90.4191 3.22956 1.16423 0
M  V30 913 C 89.5051 4.2149 0.469742 0
M  V30 914 N 89.8961 5.03519 -0.479839 0
M  V30 915 C 88.1941 4.40161 0.719319 0
M  V30 916 C 88.8951 5.74904 -0.886591 0
M  V30 917 N 87.8711 5.43097 -0.233731 0
M  V30 918 H 91.6731 2.88272 -0.572392 0
M  V30 919 H 89.1871 1.57024 -0.414375 0
M  V30 920 H 91.1841 3.79986 1.71513 0
M  V30 921 H 89.8441 2.63701 1.89451 0
M  V30 922 H 90.8551 5.1078 -0.855823 0
M  V30 923 H 87.5321 3.92046 1.43548 0
M  V30 924 H 88.9221 6.50844 -1.66888 0
M  V30 925 N 91.6422 0.330177 1.54103 0
M  V30 926 C 92.9192 -0.325007 1.92881 0
M  V30 927 C 93.2992 -1.6934 1.26045 0
M  V30 928 O 92.6472 -2.24855 0.406526 0
M  V30 929 C 92.8572 -0.410634 3.46576 0
M  V30 930 C 94.2052 -0.667801 4.19316 0
M  V30 931 O 95.2292 -0.49329 3.52768 0
M  V30 932 O 94.0882 -1.00491 5.37181 0
M  V30 933 H 91.1822 -0.186873 0.80561 0
M  V30 934 H 93.7282 0.380376 1.65382 0
M  V30 935 H 92.5002 0.550164 3.87413 0
M  V30 936 H 92.1232 -1.16333 3.802 0
M  V30 937 N 93.1203 -1.57491 0.0584922 0
M  V30 938 C 94.3453 -1.97711 -0.62652 0
M  V30 939 C 94.7703 -0.936132 -1.63151 0
M  V30 940 O 94.1283 0.099811 -1.81025 0
M  V30 941 C 94.1763 -3.36989 -1.28338 0
M  V30 942 O 93.2803 -3.35433 -2.39913 0
M  V30 943 H 92.6213 -0.643868 -0.162266 0
M  V30 944 H 95.1513 -2.04193 0.129064 0
M  V30 945 H 95.1613 -3.73879 -1.63335 0
M  V30 946 H 93.8363 -4.12289 -0.546889 0
M  V30 947 H 92.4133 -3.10298 -2.06809 0
M  V30 948 N 94.5984 0.214957 -1.56127 0
M  V30 949 C 95.8234 0.95924 -1.83884 0
M  V30 950 C 96.2484 1.7689 -0.639644 0
M  V30 951 O 95.6064 1.76566 0.411601 0
M  V30 952 C 95.6544 1.84723 -3.09693 0
M  V30 953 O 94.7584 2.94346 -2.8885 0
M  V30 954 H 94.0994 0.27125 -0.606069 0
M  V30 955 H 96.6294 0.226276 -2.03345 0
M  V30 956 H 96.6394 2.25576 -3.39969 0
M  V30 957 H 95.3144 1.25218 -3.96602 0
M  V30 958 H 93.8914 2.57391 -2.69823 0
M  V30 959 N 96.0765 1.50051 0.48192 0
M  V30 960 C 97.3535 1.51009 1.2432 0
M  V30 961 C 97.7335 0.248587 2.09631 0
M  V30 962 O 97.0815 -0.768409 2.15192 0
M  V30 963 C 97.2915 2.79981 2.08355 0
M  V30 964 C 98.6395 3.3022 2.66908 0
M  V30 965 O 99.6635 2.81228 2.18607 0
M  V30 966 O 98.5225 4.15595 3.54884 0
M  V30 967 H 95.6165 0.605239 0.563573 0
M  V30 968 H 98.1625 1.62332 0.494627 0
M  V30 969 H 96.9345 3.63275 1.45419 0
M  V30 970 H 96.5575 2.7161 2.90368 0
M  V30 971 N 97.5546 -0.734337 1.39446 0
M  V30 972 C 98.4646 -1.87879 1.40495 0
M  V30 973 C 99.4806 -1.714 0.299672 0
M  V30 974 O 100.657 -1.93991 0.541249 0
M  V30 975 C 97.7216 -3.23477 1.24754 0
M  V30 976 C 96.7826 -3.52344 2.45259 0
M  V30 977 C 96.0156 -4.81473 2.30259 0
M  V30 978 O 96.2386 -5.55237 1.30643 0
M  V30 979 O 95.1726 -5.10254 3.19256 0
M  V30 980 H 98.9986 -1.89949 2.36966 0
M  V30 981 H 96.5836 -0.882243 1.20569 0
M  V30 982 H 98.4656 -4.04509 1.18111 0
M  V30 983 H 97.1406 -3.22176 0.313781 0
M  V30 984 H 96.0476 -2.71396 2.57478 0
M  V30 985 H 97.3806 -3.58426 3.37331 0
M  V30 986 N 99.0327 -1.24633 -0.964593 0
M  V30 987 C 100.31 -0.995809 -1.68354 0
M  V30 988 C 100.69 0.480964 -2.05548 0
M  V30 989 O 100.038 1.45599 -1.76105 0
M  V30 990 C 100.248 -1.92177 -2.91323 0
M  V30 991 C 101.596 -2.19446 -3.63495 0
M  V30 992 O 102.62 -1.89855 -3.01386 0
M  V30 993 O 101.479 -2.69714 -4.75307 0
M  V30 994 H 98.5727 -0.376854 -0.736146 0
M  V30 995 H 101.119 -1.35745 -1.0184 0
M  V30 996 H 99.8907 -2.91938 -2.60553 0
M  V30 997 H 99.5137 -1.56349 -3.65569 0
M  V30 998 N 100.511 1.16574 -1.06058 0
M  V30 999 C 101.759 1.86677 -0.77434 0
M  V30 1000 C 102.08 1.81959 0.701147 0
M  V30 1001 O 101.35 1.2515 1.50713 0
M  V30 1002 H 99.9298 0.691134 -0.283449 0
M  V30 1003 H 102.592 1.41378 -1.34158 0
M  V30 1004 H 101.688 2.92181 -1.09711 0
M  V30 1005 N 101.989 0.842826 1.3317 0
M  V30 1006 C 103.235 0.450342 1.98352 0
M  V30 1007 C 103.59 -0.980508 1.65541 0
M  V30 1008 O 102.883 -1.67678 0.927065 0
M  V30 1009 C 103.077 0.612607 3.52111 0
M  V30 1010 C 102.906 2.05768 3.99862 0
M  V30 1011 C 101.676 2.69374 4.27511 0
M  V30 1012 C 103.874 3.02688 4.15794 0
M  V30 1013 N 101.856 4.04915 4.61429 0
M  V30 1014 C 103.227 4.23186 4.53115 0
M  V30 1015 C 105.282 2.99041 3.98094 0
M  V30 1016 C 103.985 5.40518 4.74587 0
M  V30 1017 C 106.011 4.15607 4.20743 0
M  V30 1018 C 105.373 5.3486 4.58371 0
M  V30 1019 H 101.472 0.213296 0.752349 0
M  V30 1020 H 104.056 1.09173 1.61212 0
M  V30 1021 H 102.227 0.000998822 3.884 0
M  V30 1022 H 103.959 0.191179 4.04248 0
M  V30 1023 H 100.714 2.20485 4.19146 0
M  V30 1024 H 101.138 4.74798 4.82593 0
M  V30 1025 H 105.78 2.0797 3.68114 0
M  V30 1026 H 103.498 6.3213 5.03425 0
M  V30 1027 H 107.084 4.14207 4.08563 0
M  V30 1028 H 105.964 6.23558 4.75547 0
M  V30 1029 N 103.467 -1.45747 0.599634 0
M  V30 1030 C 104.695 -2.06668 0.0978551 0
M  V30 1031 C 105.11 -1.44562 -1.21439 0
M  V30 1032 O 104.467 -0.556923 -1.73795 0
M  V30 1033 C 104.518 -3.61456 -0.0567044 0
M  V30 1034 O 104.239 -4.21242 1.20361 0
M  V30 1035 C 105.74 -4.39345 -0.590869 0
M  V30 1036 H 102.96 -0.667825 0.0651943 0
M  V30 1037 H 105.504 -1.87115 0.82511 0
M  V30 1038 H 103.659 -3.80378 -0.734251 0
M  V30 1039 H 104.073 -5.14323 1.02821 0
M  V30 1040 H 105.547 -5.48182 -0.648131 0
M  V30 1041 H 106.024 -4.08568 -1.61147 0
M  V30 1042 H 106.63 -4.25268 0.0523679 0
M  V30 1043 N 104.945 -0.338344 -1.53925 0
M  V30 1044 C 105.892 0.520845 -2.24846 0
M  V30 1045 C 106.862 1.09976 -1.24477 0
M  V30 1046 O 108.047 1.13735 -1.53196 0
M  V30 1047 C 105.187 1.6685 -3.02084 0
M  V30 1048 C 104.3 1.11739 -4.17299 0
M  V30 1049 C 103.435 2.23193 -4.82036 0
M  V30 1050 C 102.474 1.65407 -5.89328 0
M  V30 1051 N 101.611 2.70582 -6.47866 0
M  V30 1052 H 106.451 -0.0904881 -2.97863 0
M  V30 1053 H 103.988 -0.0564282 -1.46992 0
M  V30 1054 H 105.946 2.34407 -3.45122 0
M  V30 1055 H 104.576 2.2509 -2.31375 0
M  V30 1056 H 103.628 0.332919 -3.7894 0
M  V30 1057 H 104.94 0.654677 -4.94485 0
M  V30 1058 H 104.094 2.98626 -5.28117 0
M  V30 1059 H 102.833 2.72807 -4.04262 0
M  V30 1060 H 101.838 0.884779 -5.42634 0
M  V30 1061 H 103.063 1.16652 -6.69006 0
M  V30 1062 H 101.009 3.1946 -5.72959 0
M  V30 1063 H 100.926 2.28917 -7.20509 0
M  V30 1064 H 102.194 3.45799 -6.98601 0
M  V30 1065 N 106.423 1.57458 -0.0668435 0
M  V30 1066 C 107.353 2.15468 0.899764 0
M  V30 1067 C 108.334 1.08042 1.31381 0
M  V30 1068 O 109.519 1.36054 1.38574 0
M  V30 1069 C 106.649 2.71232 2.16911 0
M  V30 1070 C 105.603 3.83781 1.89463 0
M  V30 1071 C 104.929 4.26127 3.22986 0
M  V30 1072 C 106.229 5.08238 1.20381 0
M  V30 1073 H 107.923 2.96488 0.416529 0
M  V30 1074 H 105.469 1.4262 0.198908 0
M  V30 1075 H 107.422 3.10458 2.84945 0
M  V30 1076 H 106.146 1.87426 2.67468 0
M  V30 1077 H 104.805 3.45051 1.23836 0
M  V30 1078 H 104.453 3.39249 3.71374 0
M  V30 1079 H 104.153 5.01993 3.05413 0
M  V30 1080 H 105.677 4.67966 3.92225 0
M  V30 1081 H 107.091 5.44811 1.78475 0
M  V30 1082 H 105.488 5.89349 1.13083 0
M  V30 1083 H 106.558 4.84558 0.182153 0
M  V30 1084 N 107.901 -0.206675 1.56239 0
M  V30 1085 C 109.148 -0.928842 1.79941 0
M  V30 1086 C 109.476 -1.83734 0.638131 0
M  V30 1087 O 108.731 -1.92039 -0.376746 0
M  V30 1088 C 109.03 -1.78675 3.09532 0
M  V30 1089 C 108.696 -1.03022 4.38973 0
M  V30 1090 C 107.358 -0.821302 4.74139 0
M  V30 1091 C 109.71 -0.497081 5.18824 0
M  V30 1092 C 107.038 -0.0675719 5.86661 0
M  V30 1093 C 109.39 0.24338 6.32132 0
M  V30 1094 C 108.054 0.463422 6.65889 0
M  V30 1095 H 107.324 -0.339887 0.658451 0
M  V30 1096 H 109.971 -0.195977 1.90495 0
M  V30 1097 H 108.276 -2.58794 2.94165 0
M  V30 1098 H 109.973 -2.34792 3.25075 0
M  V30 1099 H 106.563 -1.20306 4.11369 0
M  V30 1100 H 110.747 -0.645921 4.92079 0
M  V30 1101 H 106.003 0.112995 6.11296 0
M  V30 1102 H 110.177 0.66393 6.93228 0
M  V30 1103 H 107.804 1.04938 7.52922 0
M  V30 1104 N 109.379 -1.50304 -0.473955 0
M  V30 1105 C 110.656 -1.51667 -1.23518 0
M  V30 1106 C 111.036 -0.259701 -2.09496 0
M  V30 1107 O 110.384 0.756986 -2.15597 0
M  V30 1108 C 110.594 -2.81082 -2.06868 0
M  V30 1109 C 111.942 -3.31631 -2.65153 0
M  V30 1110 O 112.966 -2.82384 -2.17113 0
M  V30 1111 O 111.825 -4.17471 -3.52675 0
M  V30 1112 H 108.919 -0.60822 -0.560355 0
M  V30 1113 H 111.465 -1.62592 -0.486011 0
M  V30 1114 H 110.237 -3.64041 -1.4349 0
M  V30 1115 H 109.86 -2.73146 -2.88924 0
M  V30 1116 N 110.857 0.726932 -1.39834 0
M  V30 1117 C 111.82 1.82269 -1.38962 0
M  V30 1118 C 112.82 1.58248 -0.285334 0
M  V30 1119 O 114.01 1.65499 -0.54366 0
M  V30 1120 C 111.142 3.20186 -1.17019 0
M  V30 1121 H 112.335 1.84443 -2.36476 0
M  V30 1122 H 109.888 0.931416 -1.25516 0
M  V30 1123 H 110.623 3.23669 -0.202204 0
M  V30 1124 H 110.408 3.3902 -1.96998 0
M  V30 1125 H 111.898 4.00235 -1.1917 0
M  V30 1126 N 112.336 1.25143 0.95797 0
M  V30 1127 C 113.564 1.12424 1.73691 0
M  V30 1128 C 113.979 -0.322304 1.86029 0
M  V30 1129 O 113.336 -1.22186 1.35561 0
M  V30 1130 C 113.387 1.76933 3.15241 0
M  V30 1131 O 113.108 3.15932 3.03511 0
M  V30 1132 C 114.609 1.6995 4.09429 0
M  V30 1133 H 111.829 0.3923 0.544373 0
M  V30 1134 H 114.373 1.6544 1.20207 0
M  V30 1135 H 112.528 1.27895 3.6568 0
M  V30 1136 H 112.942 3.47598 3.9278 0
M  V30 1137 H 114.416 2.19753 5.06372 0
M  V30 1138 H 114.893 0.662619 4.34173 0
M  V30 1139 H 115.499 2.18461 3.64904 0
M  V30 1140 N 113.814 -1.1601 1.06675 0
M  V30 1141 C 114.724 -2.24156 0.692179 0
M  V30 1142 C 115.74 -1.71507 -0.293513 0
M  V30 1143 O 116.916 -2.009 -0.141861 0
M  V30 1144 C 113.981 -3.46587 0.0884131 0
M  V30 1145 C 113.042 -4.14257 1.12646 0
M  V30 1146 C 112.275 -5.30844 0.551416 0
M  V30 1147 O 112.498 -5.66858 -0.634656 0
M  V30 1148 O 111.432 -5.87848 1.29298 0
M  V30 1149 H 115.258 -2.58513 1.59388 0
M  V30 1150 H 112.843 -1.23599 0.83926 0
M  V30 1151 H 114.725 -4.20679 -0.246361 0
M  V30 1152 H 113.4 -3.13994 -0.786712 0
M  V30 1153 H 112.307 -3.42118 1.51348 0
M  V30 1154 H 113.64 -4.50914 1.97325 0
M  V30 1155 N 115.292 -0.849877 -1.32721 0
M  V30 1156 C 116.239 -0.289033 -2.28983 0
M  V30 1157 C 117.209 0.601324 -1.54833 0
M  V30 1158 O 118.394 0.537253 -1.8308 0
M  V30 1159 C 115.534 0.520623 -3.4115 0
M  V30 1160 C 114.647 -0.394989 -4.3019 0
M  V30 1161 C 113.782 0.426834 -5.29482 0
M  V30 1162 C 112.821 -0.486476 -6.10164 0
M  V30 1163 N 111.958 0.297879 -7.01468 0
M  V30 1164 H 116.798 -1.11519 -2.76347 0
M  V30 1165 H 114.335 -0.56138 -1.35967 0
M  V30 1166 H 116.293 1.00563 -4.04899 0
M  V30 1167 H 114.923 1.31165 -2.9495 0
M  V30 1168 H 113.975 -0.99836 -3.67065 0
M  V30 1169 H 115.287 -1.09612 -4.86607 0
M  V30 1170 H 114.441 0.975205 -5.98811 0
M  V30 1171 H 113.18 1.16136 -4.73671 0
M  V30 1172 H 112.185 -1.04677 -5.39743 0
M  V30 1173 H 113.41 -1.21953 -6.6806 0
M  V30 1174 H 111.356 1.01558 -6.48091 0
M  V30 1175 H 111.273 -0.344318 -7.55216 0
M  V30 1176 H 112.541 0.828131 -7.75089 0
M  V30 1177 N 116.77 1.45427 -0.607355 0
M  V30 1178 C 117.733 2.28974 0.101693 0
M  V30 1179 C 118.733 1.39754 0.795329 0
M  V30 1180 O 119.923 1.61878 0.643527 0
M  V30 1181 C 117.055 3.20768 1.15414 0
M  V30 1182 H 118.248 2.93147 -0.632844 0
M  V30 1183 H 115.801 1.51945 -0.366391 0
M  V30 1184 H 116.536 2.61395 1.91945 0
M  V30 1185 H 116.321 3.86489 0.66098 0
M  V30 1186 H 117.811 3.83589 1.65073 0
M  V30 1187 N 118.248 0.346503 1.53744 0
M  V30 1188 C 119.495 -0.249104 2.00962 0
M  V30 1189 C 119.823 -1.5032 1.23426 0
M  V30 1190 O 119.078 -1.93217 0.310761 0
M  V30 1191 C 119.377 -0.605809 3.52228 0
M  V30 1192 C 119.043 0.551747 4.47512 0
M  V30 1193 C 117.705 0.86941 4.73281 0
M  V30 1194 C 120.057 1.32818 5.03993 0
M  V30 1195 C 117.385 1.96582 5.52786 0
M  V30 1196 C 119.737 2.41486 5.84694 0
M  V30 1197 C 118.401 2.73808 6.08757 0
M  V30 1198 H 117.671 -0.0911538 0.735372 0
M  V30 1199 H 120.318 0.475027 1.85515 0
M  V30 1200 H 118.623 -1.4107 3.65522 0
M  V30 1201 H 120.32 -1.07858 3.86222 0
M  V30 1202 H 116.91 0.294102 4.2759 0
M  V30 1203 H 121.094 1.09602 4.84047 0
M  V30 1204 H 116.35 2.22045 5.69654 0
M  V30 1205 H 120.524 3.02078 6.27473 0
M  V30 1206 H 118.151 3.58892 6.7015 0
M  V30 1207 N 119.726 -1.57421 0.075193 0
M  V30 1208 C 120.974 -1.93236 -0.591974 0
M  V30 1209 C 121.295 -0.956241 -1.69944 0
M  V30 1210 O 120.565 -0.00494792 -1.95899 0
M  V30 1211 H 119.145 -0.713355 -0.22166 0
M  V30 1212 H 121.807 -1.9444 0.133848 0
M  V30 1213 H 120.903 -2.95131 -1.01509 0
M  V30 1214 N 121.204 0.198386 -1.56346 0
M  V30 1215 C 122.615 0.763358 -1.70381 0
M  V30 1216 C 122.966 1.83995 -0.681203 0
M  V30 1217 O 122.091 2.15785 0.16305 0
M  V30 1218 C 122.686 1.39143 -3.08909 0
M  V30 1219 C 121.245 1.90352 -3.2472 0
M  V30 1220 C 120.392 0.772233 -2.6633 0
M  V30 1221 H 123.343 -0.0266377 -1.58678 0
M  V30 1222 H 123.364 2.26076 -3.06055 0
M  V30 1223 H 122.876 0.607638 -3.83314 0
M  V30 1224 H 120.977 2.71461 -2.55225 0
M  V30 1225 H 121.09 2.06757 -4.3219 0
M  V30 1226 H 119.454 1.18566 -2.2542 0
M  V30 1227 H 120.237 0.00073556 -3.433 0
M  V30 1228 N 122.682 1.50554 0.465978 0
M  V30 1229 C 123.928 1.62038 1.21949 0
M  V30 1230 C 124.261 0.322116 1.9151 0
M  V30 1231 O 123.536 -0.676723 1.82348 0
M  V30 1232 C 123.819 2.80421 2.25912 0
M  V30 1233 C 123.672 4.20144 1.60622 0
M  V30 1234 C 124.991 2.94354 3.27176 0
M  V30 1235 H 122.11 0.589752 0.441998 0
M  V30 1236 H 124.752 1.82956 0.51257 0
M  V30 1237 H 122.902 2.62717 2.86203 0
M  V30 1238 H 124.574 4.49449 1.03889 0
M  V30 1239 H 122.817 4.24165 0.909211 0
M  V30 1240 H 123.488 4.98914 2.36196 0
M  V30 1241 H 125.964 3.10578 2.76913 0
M  V30 1242 H 124.84 3.788 3.97242 0
M  V30 1243 H 125.101 2.05186 3.916 0
M  V30 1244 N 124.16 -0.719506 1.40217 0
M  V30 1245 C 125.385 -1.51371 1.4178 0
M  V30 1246 C 125.81 -1.88091 0.0182355 0
M  V30 1247 O 125.168 -1.52997 -0.972707 0
M  V30 1248 C 125.216 -2.768 2.31115 0
M  V30 1249 O 124.32 -3.73349 1.7517 0
M  V30 1250 H 123.661 -0.456529 0.482159 0
M  V30 1251 H 126.191 -0.88644 1.844 0
M  V30 1252 H 126.201 -3.25371 2.46167 0
M  V30 1253 H 124.876 -2.49407 3.3282 0
M  V30 1254 H 123.453 -3.32179 1.69444 0
M  V30 1255 N 125.638 -1.25649 -0.95132 0
M  V30 1256 C 126.866 -1.13343 -1.73092 0
M  V30 1257 C 127.281 0.312434 -1.86197 0
M  V30 1258 O 126.638 1.21465 -1.36207 0
M  V30 1259 C 126.689 -1.78602 -3.14299 0
M  V30 1260 O 126.41 -3.17537 -3.01831 0
M  V30 1261 C 127.911 -1.72119 -4.08522 0
M  V30 1262 H 125.131 -0.395181 -0.542285 0
M  V30 1263 H 127.675 -1.66076 -1.19328 0
M  V30 1264 H 125.83 -1.29832 -3.64996 0
M  V30 1265 H 126.244 -3.49676 -3.90931 0
M  V30 1266 H 127.718 -2.22435 -5.052 0
M  V30 1267 H 128.195 -0.685635 -4.33815 0
M  V30 1268 H 128.801 -2.20393 -3.63741 0
M  V30 1269 N 127.117 1.15442 -1.07289 0
M  V30 1270 C 128.047 2.22312 -0.714107 0
M  V30 1271 C 129.028 1.67467 0.298155 0
M  V30 1272 O 130.213 1.93445 0.171048 0
M  V30 1273 C 127.343 3.47124 -0.110448 0
M  V30 1274 C 126.297 4.14926 -1.04979 0
M  V30 1275 C 125.623 5.33807 -0.308924 0
M  V30 1276 C 126.923 4.64762 -2.38314 0
M  V30 1277 H 128.617 2.5258 -1.6076 0
M  V30 1278 H 126.163 1.21404 -0.77441 0
M  V30 1279 H 128.116 4.21124 0.152482 0
M  V30 1280 H 126.84 3.16187 0.81812 0
M  V30 1281 H 125.499 3.42866 -1.29764 0
M  V30 1282 H 125.147 4.99126 0.623084 0
M  V30 1283 H 124.847 5.80113 -0.935036 0
M  V30 1284 H 126.371 6.10576 -0.0537771 0
M  V30 1285 H 127.785 5.30292 -2.1786 0
M  V30 1286 H 126.182 5.21728 -2.96514 0
M  V30 1287 H 127.252 3.80434 -3.00663 0
M  V30 1288 N 128.595 0.856903 1.32268 0
M  V30 1289 C 129.841 0.462069 1.97466 0
M  V30 1290 C 130.174 -0.980298 1.67642 0
M  V30 1291 O 129.449 -1.68824 0.965858 0
M  V30 1292 C 129.732 0.704336 3.53145 0
M  V30 1293 C 129.585 2.19529 3.9259 0
M  V30 1294 C 130.904 0.1622 4.39801 0
M  V30 1295 H 128.023 0.169357 0.717278 0
M  V30 1296 H 130.665 1.07574 1.56614 0
M  V30 1297 H 128.815 0.181999 3.88073 0
M  V30 1298 H 130.487 2.78387 3.67829 0
M  V30 1299 H 128.73 2.67292 3.41668 0
M  V30 1300 H 129.401 2.31549 5.01088 0
M  V30 1301 H 131.877 0.608905 4.11621 0
M  V30 1302 H 130.753 0.361265 5.4771 0
M  V30 1303 H 131.014 -0.935158 4.32096 0
M  V30 1304 N 130.073 -1.45103 0.615059 0
M  V30 1305 C 131.021 -2.32331 -0.111791 0
M  V30 1306 C 132.015 -1.46409 -0.852102 0
M  V30 1307 O 133.221 -1.62849 -0.766821 0
M  V30 1308 H 129.596 -0.749993 -0.0549072 0
M  V30 1309 H 131.567 -2.91407 0.642225 0
M  V30 1310 C 130.316 -3.3015 -1.09071 0
M  V30 1311 H 129.639 -3.96265 -0.530485 0
M  V30 1312 H 131.079 -3.93898 -1.56908 0
M  V30 1313 C 129.538 -2.57875 -2.168 0
M  V30 1314 O 130.068 -2.36567 -3.24652 0
M  V30 1315 N 128.274 -2.17884 -1.92289 0
M  V30 1316 H 127.821 -2.35413 -1.04587 0
M  V30 1317 H 127.779 -1.6985 -2.64572 0
M  V30 1318 N 131.551 -0.354651 -1.53558 0
M  V30 1319 C 132.499 0.512195 -2.26891 0
M  V30 1320 C 133.493 1.09263 -1.29452 0
M  V30 1321 O 134.699 1.03709 -1.47121 0
M  V30 1322 H 131.074 0.183878 -0.729173 0
M  V30 1323 H 133.045 -0.128202 -2.98124 0
M  V30 1324 C 131.794 1.64563 -3.06291 0
M  V30 1325 H 131.117 1.20829 -3.81104 0
M  V30 1326 H 132.557 2.22711 -3.60799 0
M  V30 1327 C 131.016 2.58158 -2.16462 0
M  V30 1328 O 131.546 3.60695 -1.76811 0
M  V30 1329 N 129.752 2.27096 -1.81317 0
M  V30 1330 H 129.299 1.43751 -2.1376 0
M  V30 1331 H 129.257 2.89975 -1.21498 0
M  V30 1332 N 133.029 1.57378 -0.0835403 0
M  V30 1333 C 133.992 2.12252 0.864959 0
M  V30 1334 C 134.992 1.04916 1.21858 0
M  V30 1335 O 136.182 1.30853 1.14991 0
M  V30 1336 C 133.314 2.63358 2.16461 0
M  V30 1337 H 134.507 2.97371 0.388676 0
M  V30 1338 H 132.06 1.55423 0.165317 0
M  V30 1339 H 132.795 1.81727 2.686 0
M  V30 1340 H 132.58 3.41826 1.92087 0
M  V30 1341 H 134.07 3.05847 2.84337 0
M  V30 1342 N 134.507 -0.190092 1.56449 0
M  V30 1343 C 135.755 -0.907908 1.80559 0
M  V30 1344 C 136.076 -1.83583 0.657438 0
M  V30 1345 O 135.346 -1.93203 -0.323924 0
M  V30 1346 H 133.926 -0.338247 0.666032 0
M  V30 1347 H 136.588 -0.194403 1.93928 0
M  V30 1348 H 135.684 -1.49604 2.73907 0
M  V30 1349 N 135.985 -1.50799 -0.457987 0
M  V30 1350 C 137.234 -1.6168 -1.20593 0
M  V30 1351 C 137.547 -0.32888 -1.92815 0
M  V30 1352 O 138.753 -0.316773 -2.69646 0
M  V30 1353 C 137.209 -2.8545 -2.19195 0
M  V30 1354 C 136.817 -4.21168 -1.52715 0
M  V30 1355 C 138.561 -3.05681 -2.94549 0
M  V30 1356 C 136.468 -5.3611 -2.4968 0
M  V30 1357 H 135.398 -0.602134 -0.453818 0
M  V30 1358 H 138.049 -1.77245 -0.475031 0
M  V30 1359 H 136.431 -2.63472 -2.95632 0
M  V30 1360 H 137.605 -4.53449 -0.819775 0
M  V30 1361 H 135.92 -4.06648 -0.895922 0
M  V30 1362 H 138.517 -3.88727 -3.67145 0
M  V30 1363 H 138.86 -2.17929 -3.54701 0
M  V30 1364 H 139.393 -3.27901 -2.25223 0
M  V30 1365 H 136.132 -6.26057 -1.94249 0
M  V30 1366 H 135.652 -5.0823 -3.18532 0
M  V30 1367 H 137.331 -5.6722 -3.11241 0
M  V30 1368 N 137.463 0.71206 -1.40597 0
M  V30 1369 C 138.426 1.80785 -1.40888 0
M  V30 1370 C 139.426 1.57937 -0.302103 0
M  V30 1371 O 140.616 1.64913 -0.561182 0
M  V30 1372 C 137.748 3.18927 -1.20409 0
M  V30 1373 H 138.941 1.81924 -2.38419 0
M  V30 1374 H 136.494 0.91805 -1.26497 0
M  V30 1375 H 137.229 3.23436 -0.236522 0
M  V30 1376 H 137.014 3.36911 -2.00582 0
M  V30 1377 H 138.504 3.98949 -1.23408 0
M  V30 1378 N 138.941 1.26152 0.944643 0
M  V30 1379 C 140.187 1.11657 1.69294 0
M  V30 1380 C 140.52 -0.339926 1.91202 0
M  V30 1381 O 139.795 -1.24994 1.49019 0
M  V30 1382 C 140.078 1.88236 3.06984 0
M  V30 1383 C 139.931 3.41772 2.92424 0
M  V30 1384 C 141.25 1.67343 4.07043 0
M  V30 1385 H 138.369 0.407004 0.614424 0
M  V30 1386 H 141.011 1.55106 1.09737 0
M  V30 1387 H 139.161 1.51308 3.57824 0
M  V30 1388 H 140.833 3.88433 2.48832 0
M  V30 1389 H 139.076 3.68974 2.28124 0
M  V30 1390 H 139.747 3.90579 3.90067 0
M  V30 1391 H 142.223 1.99509 3.65151 0
M  V30 1392 H 141.099 2.23346 5.01406 0
M  V30 1393 H 141.36 0.617158 4.37771 0
M  V30 1394 N 140.419 -1.14872 1.07899 0
M  V30 1395 C 141.367 -2.21857 0.698727 0
M  V30 1396 C 142.361 -1.66845 -0.293086 0
M  V30 1397 O 143.567 -1.79321 -0.156204 0
M  V30 1398 H 139.942 -0.722691 0.207899 0
M  V30 1399 H 141.913 -2.51205 1.61054 0
M  V30 1400 C 140.662 -3.47498 0.11858 0
M  V30 1401 H 139.985 -3.90154 0.872914 0
M  V30 1402 H 141.425 -4.23858 -0.109759 0
M  V30 1403 C 139.884 -3.16947 -1.1422 0
M  V30 1404 O 140.414 -3.3426 -2.22785 0
M  V30 1405 N 138.62 -2.70946 -1.05055 0
M  V30 1406 H 138.167 -2.57058 -0.167038 0
M  V30 1407 H 138.125 -2.50879 -1.89491 0
M  V30 1408 N 141.898 -0.863906 -1.31812 0
M  V30 1409 C 142.845 -0.313303 -2.28664 0
M  V30 1410 C 143.815 0.584868 -1.55462 0
M  V30 1411 O 145 0.517805 -1.83639 0
M  V30 1412 C 142.14 0.48441 -3.41683 0
M  V30 1413 C 141.253 -0.440594 -4.29747 0
M  V30 1414 C 140.388 0.370652 -5.29905 0
M  V30 1415 C 139.427 -0.551164 -6.09613 0
M  V30 1416 N 138.564 0.223462 -7.01744 0
M  V30 1417 H 143.404 -1.14444 -2.75148 0
M  V30 1418 H 140.941 -0.575769 -1.35364 0
M  V30 1419 H 142.899 0.962627 -4.05943 0
M  V30 1420 H 141.529 1.28029 -2.96325 0
M  V30 1421 H 140.581 -1.03724 -3.65986 0
M  V30 1422 H 141.893 -1.14767 -4.85417 0
M  V30 1423 H 141.047 0.911638 -5.99812 0
M  V30 1424 H 139.786 1.11105 -4.74876 0
M  V30 1425 H 138.791 -1.10396 -5.38603 0
M  V30 1426 H 140.016 -1.29032 -6.66729 0
M  V30 1427 H 137.962 0.946787 -6.49132 0
M  V30 1428 H 137.879 -0.424399 -7.54808 0
M  V30 1429 H 139.147 0.745876 -7.75923 0
M  V30 1430 N 143.376 1.44774 -0.622745 0
M  V30 1431 C 144.601 2.06999 -0.128968 0
M  V30 1432 C 145.026 1.4617 1.1839 0
M  V30 1433 O 144.384 0.560007 1.72434 0
M  V30 1434 C 144.432 3.60595 -0.0188351 0
M  V30 1435 O 143.536 3.99398 1.02739 0
M  V30 1436 H 142.877 0.659047 -0.0809544 0
M  V30 1437 H 145.407 1.85784 -0.85705 0
M  V30 1438 H 145.417 4.07627 0.174476 0
M  V30 1439 H 144.092 4.04252 -0.977384 0
M  V30 1440 H 142.669 3.64011 0.809326 0
M  V30 1441 N 144.854 0.36279 1.53368 0
M  V30 1442 C 146.1 -0.228113 2.01513 0
M  V30 1443 C 146.433 -1.48648 1.2497 0
M  V30 1444 O 145.708 -1.91459 0.342616 0
M  V30 1445 C 145.991 -0.522884 3.56284 0
M  V30 1446 C 145.844 0.74892 4.43521 0
M  V30 1447 C 147.163 -1.32461 4.19693 0
M  V30 1448 H 144.282 -0.0814343 0.732487 0
M  V30 1449 H 146.924 0.48713 1.83649 0
M  V30 1450 H 145.074 -1.1322 3.71636 0
M  V30 1451 H 146.746 1.38648 4.39971 0
M  V30 1452 H 144.989 1.36986 4.11603 0
M  V30 1453 H 145.66 0.497667 5.49752 0
M  V30 1454 H 148.136 -0.809203 4.08156 0
M  V30 1455 H 147.012 -1.49961 5.28018 0
M  V30 1456 H 147.273 -2.33232 3.75573 0
M  V30 1457 N 146.332 -1.57332 0.0918853 0
M  V30 1458 C 147.242 -2.17368 -0.882505 0
M  V30 1459 C 148.258 -1.14226 -1.31257 0
M  V30 1460 O 149.434 -1.46582 -1.38115 0
M  V30 1461 C 146.499 -2.73962 -2.12476 0
M  V30 1462 C 145.56 -3.92048 -1.7492 0
M  V30 1463 C 144.793 -4.45933 -2.93223 0
M  V30 1464 O 145.016 -3.98764 -4.07852 0
M  V30 1465 O 143.95 -5.36999 -2.71875 0
M  V30 1466 H 147.776 -3.01031 -0.40172 0
M  V30 1467 H 145.361 -1.48813 -0.132291 0
M  V30 1468 H 147.243 -3.10147 -2.85283 0
M  V30 1469 H 145.918 -1.93347 -2.59613 0
M  V30 1470 H 144.825 -3.6068 -0.993025 0
M  V30 1471 H 146.158 -4.74017 -1.32548 0
M  V30 1472 N 147.81 0.181792 -1.56548 0
M  V30 1473 C 148.72 1.24538 -1.98815 0
M  V30 1474 C 149.736 1.49045 -0.897861 0
M  V30 1475 O 150.912 1.61399 -1.20467 0
M  V30 1476 C 147.977 2.56683 -2.33055 0
M  V30 1477 C 147.038 2.40131 -3.55859 0
M  V30 1478 C 146.271 3.65975 -3.88456 0
M  V30 1479 O 146.494 4.70711 -3.22161 0
M  V30 1480 O 145.428 3.6071 -4.81842 0
M  V30 1481 H 149.254 0.916647 -2.89536 0
M  V30 1482 H 146.839 0.387842 -1.44278 0
M  V30 1483 H 148.721 3.34655 -2.56094 0
M  V30 1484 H 147.396 2.89157 -1.45498 0
M  V30 1485 H 146.303 1.60226 -3.38051 0
M  V30 1486 H 147.636 2.12585 -4.43924 0
M  V30 1487 N 149.288 1.51039 0.449983 0
M  V30 1488 C 150.516 1.66869 1.2232 0
M  V30 1489 C 150.931 0.360727 1.85322 0
M  V30 1490 O 150.288 -0.659531 1.70166 0
M  V30 1491 C 150.339 2.77524 2.31652 0
M  V30 1492 O 150.06 4.03252 1.7123 0
M  V30 1493 C 151.561 3.04512 3.2216 0
M  V30 1494 H 148.781 0.560326 0.369155 0
M  V30 1495 H 151.325 1.97385 0.534719 0
M  V30 1496 H 149.48 2.49642 2.96239 0
M  V30 1497 H 149.894 4.64609 2.43389 0
M  V30 1498 H 151.368 3.85551 3.95038 0
M  V30 1499 H 151.845 2.16415 3.8218 0
M  V30 1500 H 152.451 3.34005 2.63288 0
M  V30 1501 N 150.766 -0.704594 1.40972 0
M  V30 1502 C 151.994 -1.49354 1.43182 0
M  V30 1503 C 152.409 -1.88768 0.0345508 0
M  V30 1504 O 151.766 -1.56184 -0.944081 0
M  V30 1505 C 151.817 -2.76187 2.33244 0
M  V30 1506 O 151.538 -2.38436 3.67532 0
M  V30 1507 C 153.039 -3.7 2.44162 0
M  V30 1508 H 150.259 -0.460559 0.487982 0
M  V30 1509 H 152.803 -0.868261 1.85153 0
M  V30 1510 H 150.958 -3.34974 1.94606 0
M  V30 1511 H 151.372 -3.20126 4.15475 0
M  V30 1512 H 152.846 -4.55803 3.11364 0
M  V30 1513 H 153.323 -4.13867 1.47006 0
M  V30 1514 H 153.929 -3.17121 2.83398 0
M  V30 1515 N 152.244 -1.26651 -0.937939 0
M  V30 1516 C 153.472 -1.15173 -1.7188 0
M  V30 1517 C 153.887 0.292668 -1.86518 0
M  V30 1518 O 153.244 1.20014 -1.37488 0
M  V30 1519 C 153.295 -1.81925 -3.12387 0
M  V30 1520 O 153.016 -3.2072 -2.98446 0
M  V30 1521 C 154.517 -1.76442 -4.06673 0
M  V30 1522 H 151.737 -0.400911 -0.538063 0
M  V30 1523 H 154.281 -1.67332 -1.1756 0
M  V30 1524 H 152.436 -1.33696 -3.63599 0
M  V30 1525 H 152.85 -3.53802 -3.872 0
M  V30 1526 H 154.324 -2.27781 -5.02812 0
M  V30 1527 H 154.801 -0.731608 -4.33064 0
M  V30 1528 H 155.407 -2.24238 -3.61382 0
M  V30 1529 N 153.722 1.14298 -1.08507 0
M  V30 1530 C 154.685 2.17607 -0.719711 0
M  V30 1531 C 155.685 1.58907 0.245997 0
M  V30 1532 O 156.875 1.74181 0.0254081 0
M  V30 1533 C 154.007 3.40842 -0.0627695 0
M  V30 1534 H 155.2 2.51443 -1.63452 0
M  V30 1535 H 152.753 1.28963 -0.88307 0
M  V30 1536 H 153.488 3.12587 0.863716 0
M  V30 1537 H 153.273 3.84713 -0.757504 0
M  V30 1538 H 154.763 4.17221 0.177786 0
M  V30 1539 N 155.201 0.870884 1.31352 0
M  V30 1540 C 156.111 0.330783 2.32256 0
M  V30 1541 C 157.127 -0.559767 1.6475 0
M  V30 1542 O 158.303 -0.456263 1.96164 0
M  V30 1543 C 155.368 -0.458137 3.4366 0
M  V30 1544 C 154.429 0.460482 4.26823 0
M  V30 1545 C 153.662 -0.290881 5.32907 0
M  V30 1546 O 153.885 -1.51885 5.49806 0
M  V30 1547 O 152.819 0.351732 6.00871 0
M  V30 1548 H 156.645 1.16718 2.80376 0
M  V30 1549 H 154.23 0.634285 1.35267 0
M  V30 1550 H 156.112 -0.905343 4.1156 0
M  V30 1551 H 154.787 -1.27106 2.97701 0
M  V30 1552 H 153.694 0.956207 3.61673 0
M  V30 1553 H 155.027 1.23903 4.7635 0
M  V30 1554 N 156.679 -1.44442 0.630414 0
M  V30 1555 C 157.925 -2.02894 0.143332 0
M  V30 1556 C 158.28 -1.48697 -1.22094 0
M  V30 1557 O 157.573 -0.661171 -1.79831 0
M  V30 1558 C 157.767 -3.57332 0.0697835 0
M  V30 1559 C 157.596 -4.26512 1.42539 0
M  V30 1560 C 156.366 -4.63516 2.01198 0
M  V30 1561 C 158.564 -4.57004 2.35907 0
M  V30 1562 N 156.546 -5.17661 3.30001 0
M  V30 1563 C 157.917 -5.12223 3.49324 0
M  V30 1564 C 159.972 -4.38955 2.34995 0
M  V30 1565 C 158.675 -5.51295 4.62024 0
M  V30 1566 C 160.701 -4.79075 3.46758 0
M  V30 1567 C 160.063 -5.34407 4.58899 0
M  V30 1568 H 156.162 -0.776041 0.0963523 0
M  V30 1569 H 158.746 -1.75945 0.833752 0
M  V30 1570 H 156.917 -3.83894 -0.589915 0
M  V30 1571 H 158.649 -4.02451 -0.42606 0
M  V30 1572 H 155.404 -4.47811 1.54151 0
M  V30 1573 H 155.828 -5.4921 3.95851 0
M  V30 1574 H 160.47 -3.95469 1.49545 0
M  V30 1575 H 158.188 -5.93736 5.48182 0
M  V30 1576 H 161.774 -4.66824 3.47227 0
M  V30 1577 H 160.654 -5.64878 5.4395 0
M  V30 1578 N 158.157 -0.370918 -1.53173 0
M  V30 1579 C 159.573 -0.0200818 -1.59587 0
M  V30 1580 C 159.773 1.46279 -1.38581 0
M  V30 1581 O 158.829 2.22506 -1.19363 0
M  V30 1582 C 160.142 -0.4808 -2.96831 0
M  V30 1583 C 161.69 -0.435477 -3.09956 0
M  V30 1584 C 162.165 -0.872092 -4.4962 0
M  V30 1585 N 163.656 -0.827364 -4.55751 0
M  V30 1586 C 164.391 -1.13683 -5.62018 0
M  V30 1587 N 163.887 -1.51584 -6.76014 0
M  V30 1588 N 165.68 -1.05927 -5.52029 0
M  V30 1589 H 157.831 -1.33652 -1.65079 0
M  V30 1590 H 160.094 -0.546634 -0.774529 0
M  V30 1591 H 159.8 -1.51577 -3.1736 0
M  V30 1592 H 159.674 0.129796 -3.76977 0
M  V30 1593 H 162.061 0.590371 -2.89134 0
M  V30 1594 H 162.142 -1.08164 -2.31806 0
M  V30 1595 H 161.786 -1.89608 -4.71181 0
M  V30 1596 H 161.716 -0.203127 -5.26208 0
M  V30 1597 H 164.207 -0.548216 -3.73902 0
M  V30 1598 H 164.52 -1.73609 -7.53047 0
M  V30 1599 H 162.865 -1.55454 -6.77391 0
M  V30 1600 H 166.056 -0.762321 -4.61851 0
M  V30 1601 H 166.229 -1.30378 -6.34749 0
M  V30 1602 N 159.635 1.57281 -0.100228 0
M  V30 1603 C 160.582 2.14305 0.856858 0
M  V30 1604 C 161.552 1.06296 1.27634 0
M  V30 1605 O 162.737 1.34109 1.35718 0
M  V30 1606 C 159.877 2.73184 2.10866 0
M  V30 1607 C 158.99 3.95442 1.73925 0
M  V30 1608 C 158.125 4.42468 2.93931 0
M  V30 1609 C 157.164 5.57303 2.5314 0
M  V30 1610 N 156.301 5.99158 3.65997 0
M  V30 1611 H 161.141 2.95772 0.363726 0
M  V30 1612 H 158.678 1.46139 0.167858 0
M  V30 1613 H 160.636 3.05442 2.84185 0
M  V30 1614 H 159.266 1.94437 2.57671 0
M  V30 1615 H 158.318 3.69464 0.905554 0
M  V30 1616 H 159.63 4.78769 1.39935 0
M  V30 1617 H 158.784 4.76537 3.75496 0
M  V30 1618 H 157.523 3.58052 3.31134 0
M  V30 1619 H 156.528 5.22857 1.70003 0
M  V30 1620 H 157.753 6.43471 2.17075 0
M  V30 1621 H 155.699 5.17687 4.02909 0
M  V30 1622 H 155.616 6.77295 3.35869 0
M  V30 1623 H 156.884 6.3786 4.48057 0
M  V30 1624 N 161.113 -0.173488 1.56642 0
M  V30 1625 C 162.043 -1.2171 1.99271 0
M  V30 1626 C 163.024 -1.46289 0.867959 0
M  V30 1627 O 164.209 -1.5766 1.13388 0
M  V30 1628 C 161.339 -2.55651 2.35074 0
M  V30 1629 C 160.293 -2.45645 3.50489 0
M  V30 1630 C 159.619 -3.84056 3.72028 0
M  V30 1631 C 160.919 -1.96302 4.84007 0
M  V30 1632 H 162.613 -0.86275 2.867 0
M  V30 1633 H 160.159 -0.413571 1.37933 0
M  V30 1634 H 162.112 -3.2886 2.63494 0
M  V30 1635 H 160.836 -2.92869 1.44552 0
M  V30 1636 H 159.495 -1.7489 3.22194 0
M  V30 1637 H 159.143 -4.18664 2.788 0
M  V30 1638 H 158.843 -3.7823 4.49684 0
M  V30 1639 H 160.367 -4.58854 4.02846 0
M  V30 1640 H 161.781 -2.59284 5.11317 0
M  V30 1641 H 160.178 -2.01429 5.65284 0
M  V30 1642 H 161.248 -0.917226 4.76146 0
M  V30 1643 N 162.591 -1.51276 -0.441967 0
M  V30 1644 C 163.521 -1.752 -1.54361 0
M  V30 1645 C 164.502 -0.601682 -1.59103 0
M  V30 1646 O 165.687 -0.843913 -1.74905 0
M  V30 1647 C 162.817 -1.87282 -2.92477 0
M  V30 1648 C 161.771 -3.02687 -3.02596 0
M  V30 1649 C 161.097 -2.99947 -4.42647 0
M  V30 1650 C 162.397 -4.4273 -2.77106 0
M  V30 1651 H 164.091 -2.67442 -1.34592 0
M  V30 1652 H 161.637 -1.28694 -0.646048 0
M  V30 1653 H 163.59 -2.02602 -3.695 0
M  V30 1654 H 162.314 -0.916844 -3.13467 0
M  V30 1655 H 160.973 -2.87065 -2.28012 0
M  V30 1656 H 160.621 -2.02136 -4.60597 0
M  V30 1657 H 160.321 -3.77439 -4.50348 0
M  V30 1658 H 161.845 -3.17354 -5.2165 0
M  V30 1659 H 163.259 -4.58727 -3.43864 0
M  V30 1660 H 161.656 -5.21893 -2.96222 0
M  V30 1661 H 162.726 -4.53087 -1.72744 0
M  V30 1662 N 164.069 0.697108 -1.41344 0
M  V30 1663 C 165.032 1.79281 -1.42797 0
M  V30 1664 C 166.032 1.57607 -0.318837 0
M  V30 1665 O 167.222 1.64309 -0.578642 0
M  V30 1666 C 164.354 3.17632 -1.23785 0
M  V30 1667 H 165.547 1.79385 -2.40335 0
M  V30 1668 H 163.1 0.904582 -1.27464 0
M  V30 1669 H 163.835 3.23167 -0.270814 0
M  V30 1670 H 163.62 3.34765 -2.04144 0
M  V30 1671 H 165.11 3.97617 -1.27633 0
M  V30 1672 N 165.547 1.27147 0.931209 0
M  V30 1673 C 166.793 1.13446 1.68101 0
M  V30 1674 C 167.126 -0.319628 1.91552 0
M  V30 1675 O 166.401 -1.23407 1.50336 0
M  V30 1676 C 166.684 1.91482 3.0497 0
M  V30 1677 C 166.537 3.44855 2.88782 0
M  V30 1678 C 167.856 1.71651 4.05246 0
M  V30 1679 H 164.975 0.413498 0.610072 0
M  V30 1680 H 167.617 1.56261 1.08086 0
M  V30 1681 H 165.767 1.55095 3.56199 0
M  V30 1682 H 167.439 3.9105 2.44698 0
M  V30 1683 H 165.682 3.71373 2.24198 0
M  V30 1684 H 166.353 3.94694 3.85902 0
M  V30 1685 H 168.829 2.0337 3.63015 0
M  V30 1686 H 167.705 2.28651 4.99009 0
M  V30 1687 H 167.966 0.663555 4.37092 0
M  V30 1688 N 167.025 -1.13721 1.09112 0
M  V30 1689 C 167.973 -2.21103 0.722219 0
M  V30 1690 C 168.967 -1.67147 -0.275374 0
M  V30 1691 O 170.173 -1.79477 -0.137176 0
M  V30 1692 H 166.548 -0.720445 0.215553 0
M  V30 1693 H 168.519 -2.49483 1.63709 0
M  V30 1694 C 167.268 -3.47352 0.15543 0
M  V30 1695 H 166.591 -3.89206 0.914246 0
M  V30 1696 H 168.031 -4.2395 -0.0647967 0
M  V30 1697 C 166.49 -3.1814 -1.10852 0
M  V30 1698 O 167.02 -3.36604 -2.19227 0
M  V30 1699 N 165.226 -2.72045 -1.02176 0
M  V30 1700 H 164.773 -2.57221 -0.139764 0
M  V30 1701 H 164.731 -2.52875 -1.8682 0
M  V30 1702 N 168.503 -0.877838 -1.30888 0
M  V30 1703 C 169.433 -0.35534 -2.3078 0
M  V30 1704 C 170.414 0.557994 -1.60687 0
M  V30 1705 O 171.599 0.473355 -1.88343 0
M  V30 1706 C 168.729 0.437221 -3.44537 0
M  V30 1707 C 167.683 -0.383715 -4.26276 0
M  V30 1708 C 167.009 0.535014 -5.32017 0
M  V30 1709 C 168.309 -1.62201 -4.96476 0
M  V30 1710 H 170.003 -1.19007 -2.74732 0
M  V30 1711 H 167.549 -0.573698 -1.32078 0
M  V30 1712 H 169.502 0.813334 -4.13477 0
M  V30 1713 H 168.226 1.30553 -2.99372 0
M  V30 1714 H 166.885 -0.741874 -3.59015 0
M  V30 1715 H 166.533 1.40083 -4.831 0
M  V30 1716 H 166.233 -0.0104211 -5.87599 0
M  V30 1717 H 167.757 0.907799 -6.03814 0
M  V30 1718 H 169.171 -1.31689 -5.5797 0
M  V30 1719 H 167.568 -2.10711 -5.61891 0
M  V30 1720 H 168.638 -2.37044 -4.23011 0
M  V30 1721 N 169.982 1.44106 -0.638065 0
M  V30 1722 C 171.259 1.95453 -0.0759321 0
M  V30 1723 C 171.639 1.57984 1.40015 0
M  V30 1724 O 170.987 0.857361 2.11806 0
M  V30 1725 C 171.197 3.47655 -0.306132 0
M  V30 1726 C 172.545 4.24114 -0.203008 0
M  V30 1727 O 173.569 3.55405 -0.237871 0
M  V30 1728 O 172.428 5.46381 -0.113827 0
M  V30 1729 H 169.522 0.826797 0.0183332 0
M  V30 1730 H 172.068 1.54122 -0.710251 0
M  V30 1731 H 170.84 3.68 -1.3301 0
M  V30 1732 H 170.463 3.95949 0.361991 0
M  V30 1733 N 171.46 0.379036 1.52974 0
M  V30 1734 C 172.708 -0.206014 2.01047 0
M  V30 1735 C 173.029 -1.48175 1.26765 0
M  V30 1736 O 172.299 -1.92085 0.384743 0
M  V30 1737 H 170.879 -0.0791184 0.742798 0
M  V30 1738 H 173.541 0.508366 1.88153 0
M  V30 1739 H 172.637 -0.423501 3.09213 0
M  V30 1740 N 172.938 -1.57226 0.108567 0
M  V30 1741 C 174.184 -1.95121 -0.552761 0
M  V30 1742 C 174.517 -0.991345 -1.66991 0
M  V30 1743 O 173.792 -0.0267211 -1.94482 0
M  V30 1744 C 174.075 -3.43039 -1.09528 0
M  V30 1745 C 173.928 -4.49797 0.0177332 0
M  V30 1746 C 175.247 -3.92567 -1.98945 0
M  V30 1747 H 172.366 -0.709496 -0.199461 0
M  V30 1748 H 175.008 -1.89126 0.182011 0
M  V30 1749 H 173.158 -3.48279 -1.72146 0
M  V30 1750 H 174.83 -4.56661 0.652584 0
M  V30 1751 H 173.073 -4.284 0.682309 0
M  V30 1752 H 173.744 -5.50528 -0.402919 0
M  V30 1753 H 176.22 -3.89565 -1.46214 0
M  V30 1754 H 175.096 -4.96605 -2.33827 0
M  V30 1755 H 175.357 -3.32648 -2.91201 0
M  V30 1756 N 174.416 0.165178 -1.56732 0
M  V30 1757 C 175.663 0.880807 -1.8234 0
M  V30 1758 C 175.991 1.81977 -0.686621 0
M  V30 1759 O 175.246 1.92971 0.325697 0
M  V30 1760 C 175.545 1.70405 -3.1416 0
M  V30 1761 C 175.211 0.913475 -4.4155 0
M  V30 1762 C 173.873 0.695303 -4.7615 0
M  V30 1763 C 176.225 0.359349 -5.1996 0
M  V30 1764 C 173.553 -0.0879947 -5.86634 0
M  V30 1765 C 175.905 -0.410893 -6.31264 0
M  V30 1766 C 174.569 -0.639808 -6.64427 0
M  V30 1767 H 173.839 0.32231 -0.667231 0
M  V30 1768 H 176.486 0.145402 -1.90947 0
M  V30 1769 H 174.791 2.50903 -3.00923 0
M  V30 1770 H 176.488 2.26091 -3.31186 0
M  V30 1771 H 173.078 1.09357 -4.14414 0
M  V30 1772 H 177.262 0.515228 -4.93618 0
M  V30 1773 H 172.518 -0.27503 -6.10781 0
M  V30 1774 H 176.692 -0.847494 -6.91224 0
M  V30 1775 H 174.319 -1.24864 -7.49875 0
M  V30 1776 N 175.894 1.51508 0.433938 0
M  V30 1777 C 177.141 1.64345 1.18309 0
M  V30 1778 C 177.469 0.361315 1.91115 0
M  V30 1779 O 176.724 -0.654753 1.84422 0
M  V30 1780 C 177.023 2.79928 2.22205 0
M  V30 1781 C 176.689 4.19078 1.66387 0
M  V30 1782 C 175.351 4.56932 1.50887 0
M  V30 1783 C 177.703 5.05894 1.25381 0
M  V30 1784 C 175.031 5.79305 0.928608 0
M  V30 1785 C 177.383 6.2885 0.687823 0
M  V30 1786 C 176.047 6.65473 0.519755 0
M  V30 1787 H 175.317 0.601381 0.432923 0
M  V30 1788 H 177.964 1.85549 0.473676 0
M  V30 1789 H 176.269 2.52959 2.99197 0
M  V30 1790 H 177.966 2.87059 2.79997 0
M  V30 1791 H 174.556 3.89234 1.79428 0
M  V30 1792 H 178.74 4.77253 1.36175 0
M  V30 1793 H 173.996 6.06324 0.786186 0
M  V30 1794 H 178.17 6.95461 0.361581 0
M  V30 1795 H 175.797 7.6017 0.0679979 0
M  V30 1796 N 177.372 -0.689602 1.41712 0
M  V30 1797 C 178.62 -1.4468 1.4111 0
M  V30 1798 C 178.941 -1.94986 0.0232196 0
M  V30 1799 O 178.211 -1.72097 -0.935913 0
M  V30 1800 H 176.791 -0.536847 0.519427 0
M  V30 1801 H 179.453 -0.815825 1.77004 0
M  V30 1802 H 178.549 -2.30706 2.10193 0
M  V30 1803 N 178.85 -1.27639 -0.924453 0
M  V30 1804 C 180.078 -1.16989 -1.70649 0
M  V30 1805 C 180.493 0.272869 -1.86818 0
M  V30 1806 O 179.85 1.18549 -1.38753 0
M  V30 1807 C 179.901 -1.85229 -3.10439 0
M  V30 1808 O 179.622 -3.23868 -2.95028 0
M  V30 1809 C 181.123 -1.80746 -4.04779 0
M  V30 1810 H 178.343 -0.406595 -0.53378 0
M  V30 1811 H 180.887 -1.68569 -1.15778 0
M  V30 1812 H 179.042 -1.37545 -3.6216 0
M  V30 1813 H 179.456 -3.57889 -3.83426 0
M  V30 1814 H 180.93 -2.33101 -5.00368 0
M  V30 1815 H 181.407 -0.777499 -4.32263 0
M  V30 1816 H 182.013 -2.28059 -3.58984 0
M  V30 1817 N 180.328 1.1314 -1.09713 0
M  V30 1818 C 181.744 1.36477 -0.827423 0
M  V30 1819 C 181.944 1.93654 0.556817 0
M  V30 1820 O 181 2.15791 1.31112 0
M  V30 1821 C 182.313 2.31334 -1.92106 0
M  V30 1822 C 183.861 2.44943 -1.94864 0
M  V30 1823 C 184.336 3.4311 -3.0338 0
M  V30 1824 N 185.827 3.50662 -3.02639 0
M  V30 1825 C 186.562 4.2651 -3.83246 0
M  V30 1826 N 186.058 5.05485 -4.73768 0
M  V30 1827 N 187.851 4.2184 -3.71493 0
M  V30 1828 H 180.002 0.743807 -1.9895 0
M  V30 1829 H 182.265 0.389823 -0.864143 0
M  V30 1830 H 181.971 1.96483 -2.91698 0
M  V30 1831 H 181.845 3.31381 -1.80184 0
M  V30 1832 H 184.232 2.79079 -0.959099 0
M  V30 1833 H 184.313 1.4481 -2.10864 0
M  V30 1834 H 183.957 3.09704 -4.02549 0
M  V30 1835 H 183.887 4.43055 -2.84622 0
M  V30 1836 H 186.378 2.94315 -2.37039 0
M  V30 1837 H 186.691 5.60675 -5.3185 0
M  V30 1838 H 185.036 5.04708 -4.77802 0
M  V30 1839 H 188.227 3.5922 -3.00131 0
M  V30 1840 H 188.4 4.80697 -4.3455 0
M  V30 1841 N 181.806 0.884767 1.30421 0
M  V30 1842 C 182.736 0.367574 2.30589 0
M  V30 1843 C 183.717 -0.549464 1.60981 0
M  V30 1844 O 184.902 -0.46336 1.88591 0
M  V30 1845 C 182.032 -0.418944 3.44764 0
M  V30 1846 C 180.986 0.406316 4.26067 0
M  V30 1847 C 180.312 -0.506793 5.32293 0
M  V30 1848 C 181.612 1.64832 4.95608 0
M  V30 1849 H 183.306 1.20462 2.74097 0
M  V30 1850 H 180.852 0.580695 1.31772 0
M  V30 1851 H 182.805 -0.791395 4.13902 0
M  V30 1852 H 181.529 -1.28964 3.0006 0
M  V30 1853 H 180.188 0.760903 3.58617 0
M  V30 1854 H 179.836 -1.37519 4.83836 0
M  V30 1855 H 179.536 0.0415828 5.87585 0
M  V30 1856 H 181.06 -0.875764 6.04287 0
M  V30 1857 H 182.474 1.34646 5.57264 0
M  V30 1858 H 180.871 2.13688 5.60765 0
M  V30 1859 H 181.941 2.39284 4.21748 0
M  V30 1860 N 183.284 -1.43765 0.645699 0
M  V30 1861 C 184.532 -2.01499 0.155731 0
M  V30 1862 C 184.853 -1.51151 -1.232 0
M  V30 1863 O 184.123 -0.721044 -1.82148 0
M  V30 1864 H 182.703 -0.745003 0.0545817 0
M  V30 1865 H 185.365 -1.76075 0.835677 0
M  V30 1866 H 184.461 -3.1181 0.134577 0
M  V30 1867 N 184.763 -0.387143 -1.52771 0
M  V30 1868 C 186.012 0.19697 -2.00736 0
M  V30 1869 C 186.325 1.48082 -1.27793 0
M  V30 1870 O 187.531 2.14485 -1.66458 0
M  V30 1871 C 185.987 0.401568 -3.57653 0
M  V30 1872 C 185.595 -0.868907 -4.39493 0
M  V30 1873 C 187.339 0.942164 -4.13912 0
M  V30 1874 C 185.246 -0.632705 -5.88006 0
M  V30 1875 H 184.176 0.0773827 -0.750019 0
M  V30 1876 H 186.827 -0.50921 -1.76293 0
M  V30 1877 H 185.209 1.16954 -3.78335 0
M  V30 1878 H 186.383 -1.64133 -4.30577 0
M  V30 1879 H 184.698 -1.33429 -3.94443 0
M  V30 1880 H 187.295 1.13455 -5.22525 0
M  V30 1881 H 187.638 1.9106 -3.69867 0
M  V30 1882 H 188.171 0.233814 -3.97112 0
M  V30 1883 H 184.91 -1.57208 -6.36369 0
M  V30 1884 H 184.43 0.100825 -5.99715 0
M  V30 1885 H 186.109 -0.26642 -6.46451 0
M  V30 1886 N 186.241 1.57166 -0.116904 0
M  V30 1887 C 187.173 2.12271 0.864507 0
M  V30 1888 C 188.186 1.06494 1.23138 0
M  V30 1889 O 189.375 1.33873 1.18069 0
M  V30 1890 C 186.475 2.60564 2.16702 0
M  V30 1891 C 185.648 3.90416 1.97216 0
M  V30 1892 C 184.707 4.24329 3.11178 0
M  V30 1893 O 183.733 4.93182 2.84184 0
M  V30 1894 N 184.935 3.8148 4.37554 0
M  V30 1895 H 187.7 2.97102 0.393726 0
M  V30 1896 H 185.261 1.61759 0.0675805 0
M  V30 1897 H 187.253 2.80282 2.91932 0
M  V30 1898 H 185.823 1.80623 2.55135 0
M  V30 1899 H 185.043 3.79627 1.06192 0
M  V30 1900 H 186.331 4.75327 1.81499 0
M  V30 1901 H 185.729 3.25943 4.62361 0
M  V30 1902 H 184.286 4.06311 5.09661 0
M  V30 1903 N 187.719 -0.156864 1.56817 0
M  V30 1904 C 189.135 -0.50916 1.5126 0
M  V30 1905 C 189.335 -1.83897 0.823658 0
M  V30 1906 O 188.391 -2.49469 0.390055 0
M  V30 1907 C 189.704 -0.52857 2.96018 0
M  V30 1908 C 191.252 -0.614771 3.06903 0
M  V30 1909 C 191.727 -0.664938 4.53147 0
M  V30 1910 N 193.218 -0.727433 4.57452 0
M  V30 1911 C 193.953 -0.787067 5.67973 0
M  V30 1912 N 193.449 -0.806649 6.88088 0
M  V30 1913 N 195.242 -0.827195 5.5598 0
M  V30 1914 H 187.393 0.714935 2.00006 0
M  V30 1915 H 189.656 0.259526 0.911784 0
M  V30 1916 H 189.362 0.380154 3.49639 0
M  V30 1917 H 189.236 -1.36998 3.51442 0
M  V30 1918 H 191.623 -1.51392 2.53307 0
M  V30 1919 H 191.704 0.253597 2.5454 0
M  V30 1920 H 191.348 0.230011 5.07379 0
M  V30 1921 H 191.278 -1.54966 5.03282 0
M  V30 1922 H 193.769 -0.719998 3.70978 0
M  V30 1923 H 194.082 -0.853727 7.6807 0
M  V30 1924 H 192.427 -0.774687 6.90669 0
M  V30 1925 H 195.618 -0.808998 4.61056 0
M  V30 1926 H 195.791 -0.870206 6.4213 0
M  V30 1927 N 189.197 -1.51736 -0.425897 0
M  V30 1928 C 190.13 -1.68574 -1.53812 0
M  V30 1929 C 191.108 -0.53328 -1.53606 0
M  V30 1930 O 192.292 -0.758555 -1.72564 0
M  V30 1931 C 189.419 -1.70977 -2.92377 0
M  V30 1932 C 188.465 -2.92324 -3.10563 0
M  V30 1933 S 189.298 -4.52952 -2.85648 0
M  V30 1934 C 190.454 -4.58117 -4.26474 0
M  V30 1935 H 190.687 -2.62647 -1.39298 0
M  V30 1936 H 188.22 -1.41564 -0.616361 0
M  V30 1937 H 190.178 -1.73047 -3.72243 0
M  V30 1938 H 188.839 -0.78061 -3.04245 0
M  V30 1939 H 188.032 -2.90439 -4.11899 0
M  V30 1940 H 187.634 -2.88055 -2.38538 0
M  V30 1941 H 189.926 -4.34462 -5.19855 0
M  V30 1942 H 190.869 -5.59983 -4.33388 0
M  V30 1943 H 191.277 -3.8732 -4.10662 0
M  V30 1944 N 190.675 0.682077 -1.42076 0
M  V30 1945 C 191.622 1.79578 -1.44984 0
M  V30 1946 C 192.592 1.6332 -0.302614 0
M  V30 1947 O 193.777 1.83978 -0.505633 0
M  V30 1948 C 190.917 3.1756 -1.35091 0
M  V30 1949 C 190.03 3.45156 -2.59791 0
M  V30 1950 C 189.165 4.72826 -2.42093 0
M  V30 1951 C 188.204 4.93433 -3.62202 0
M  V30 1952 N 187.341 6.12338 -3.43491 0
M  V30 1953 H 192.181 1.76427 -2.40161 0
M  V30 1954 H 189.718 0.861376 -1.19242 0
M  V30 1955 H 191.676 3.97287 -1.27354 0
M  V30 1956 H 190.306 3.19854 -0.435133 0
M  V30 1957 H 189.358 2.59736 -2.77923 0
M  V30 1958 H 190.67 3.5628 -3.49094 0
M  V30 1959 H 189.824 5.60631 -2.319 0
M  V30 1960 H 188.563 4.63973 -1.50268 0
M  V30 1961 H 187.568 4.04073 -3.72834 0
M  V30 1962 H 188.793 5.04136 -4.54998 0
M  V30 1963 H 186.739 6.04672 -2.54377 0
M  V30 1964 H 186.656 6.2429 -4.26377 0
M  V30 1965 H 187.924 7.02841 -3.37097 0
M  V30 1966 N 192.153 1.28127 0.917671 0
M  V30 1967 C 193.101 1.11569 2.04096 0
M  V30 1968 C 194.095 0.0360242 1.69362 0
M  V30 1969 O 195.301 0.194501 1.78946 0
M  V30 1970 H 191.676 0.344097 0.668656 0
M  V30 1971 H 193.647 2.06711 2.15205 0
M  V30 1972 C 192.396 0.790197 3.38602 0
M  V30 1973 H 191.719 1.61293 3.6582 0
M  V30 1974 H 193.159 0.714271 4.1794 0
M  V30 1975 C 191.618 -0.505897 3.3308 0
M  V30 1976 O 192.148 -1.53736 3.71117 0
M  V30 1977 N 190.354 -0.505193 2.86175 0
M  V30 1978 H 189.901 0.334621 2.55417 0
M  V30 1979 H 189.859 -1.37243 2.82863 0
M  V30 1980 N 193.631 -1.12557 1.10312 0
M  V30 1981 C 194.578 -2.18247 0.750781 0
M  V30 1982 C 195.548 -1.63853 -0.272293 0
M  V30 1983 O 196.733 -1.90195 -0.151862 0
M  V30 1984 C 193.873 -3.44591 0.187379 0
M  V30 1985 C 192.986 -4.13046 1.2656 0
M  V30 1986 C 192.121 -5.27034 0.663978 0
M  V30 1987 C 191.16 -5.87353 1.72287 0
M  V30 1988 N 190.297 -6.92757 1.1416 0
M  V30 1989 H 195.137 -2.47732 1.65628 0
M  V30 1990 H 192.674 -1.21629 0.827337 0
M  V30 1991 H 194.632 -4.16904 -0.157148 0
M  V30 1992 H 193.262 -3.15527 -0.681355 0
M  V30 1993 H 192.314 -3.38924 1.72727 0
M  V30 1994 H 193.626 -4.53947 2.06721 0
M  V30 1995 H 192.78 -6.06104 0.268824 0
M  V30 1996 H 191.519 -4.87407 -0.169082 0
M  V30 1997 H 190.524 -5.06971 2.12746 0
M  V30 1998 H 191.749 -6.29051 2.55875 0
M  V30 1999 H 189.695 -6.5517 0.329984 0
M  V30 2000 H 189.612 -7.3225 1.88007 0
M  V30 2001 H 190.88 -7.75658 0.772956 0
M  V30 2002 N 195.109 -0.891671 -1.2995 0
M  V30 2003 C 196.357 -0.512486 -1.95494 0
M  V30 2004 C 196.678 0.942776 -1.70695 0
M  V30 2005 O 195.948 1.66374 -1.03424 0
M  V30 2006 H 194.528 -0.186533 -0.723336 0
M  V30 2007 H 197.19 -1.13621 -1.58355 0
M  V30 2008 H 196.286 -0.688342 -3.04415 0
M  V30 2009 N 196.587 1.43421 -0.653314 0
M  V30 2010 C 197.517 2.33487 0.0246656 0
M  V30 2011 C 198.498 1.49475 0.811863 0
M  V30 2012 O 199.683 1.78139 0.773322 0
M  V30 2013 C 196.813 3.32841 0.99166 0
M  V30 2014 C 195.767 4.26842 0.314568 0
M  V30 2015 C 195.093 5.16236 1.39302 0
M  V30 2016 C 196.393 5.16243 -0.793095 0
M  V30 2017 H 198.087 2.90427 -0.727481 0
M  V30 2018 H 195.633 1.39649 -0.351287 0
M  V30 2019 H 197.586 3.94747 1.47487 0
M  V30 2020 H 196.31 2.74158 1.77497 0
M  V30 2021 H 194.969 3.663 -0.148199 0
M  V30 2022 H 194.617 4.53891 2.16776 0
M  V30 2023 H 194.317 5.79948 0.945223 0
M  V30 2024 H 195.841 5.81015 1.87759 0
M  V30 2025 H 197.255 5.71958 -0.392039 0
M  V30 2026 H 195.652 5.88676 -1.16536 0
M  V30 2027 H 196.722 4.55927 -1.65103 0
M  V30 2028 N 198.065 0.39524 1.52563 0
M  V30 2029 C 199.313 -0.184678 2.01254 0
M  V30 2030 C 199.634 -1.46822 1.28329 0
M  V30 2031 O 198.904 -1.91666 0.405094 0
M  V30 2032 H 197.484 -0.0712355 0.743596 0
M  V30 2033 H 200.146 0.528293 1.87603 0
M  V30 2034 H 199.242 -0.390681 3.09645 0
M  V30 2035 N 199.544 -1.57102 0.125237 0
M  V30 2036 C 200.507 -2.14471 -0.80838 0
M  V30 2037 C 201.507 -1.0811 -1.19033 0
M  V30 2038 O 202.697 -1.33856 -1.11482 0
M  V30 2039 C 199.829 -2.69005 -2.09402 0
M  V30 2040 H 201.022 -2.98297 -0.309696 0
M  V30 2041 H 198.575 -1.55807 -0.124051 0
M  V30 2042 H 199.31 -1.88785 -2.63687 0
M  V30 2043 H 199.095 -3.46799 -1.82957 0
M  V30 2044 H 200.585 -3.13278 -2.76128 0
M  V30 2045 N 201.022 0.148545 -1.56898 0
M  V30 2046 C 202.247 0.880385 -1.87787 0
M  V30 2047 C 202.672 1.74018 -0.714093 0
M  V30 2048 O 202.03 1.78153 0.336343 0
M  V30 2049 C 202.078 1.71422 -3.17249 0
M  V30 2050 O 201.182 2.8183 -3.01074 0
M  V30 2051 H 200.523 0.245301 -0.617028 0
M  V30 2052 H 203.053 0.139826 -2.04122 0
M  V30 2053 H 203.063 2.10954 -3.49231 0
M  V30 2054 H 201.738 1.08284 -4.01556 0
M  V30 2055 H 200.315 2.45715 -2.80497 0
M  V30 2056 N 202.5 1.5196 0.417844 0
M  V30 2057 C 203.749 1.6482 1.16264 0
M  V30 2058 C 204.062 0.379886 1.91876 0
M  V30 2059 O 205.268 0.388154 2.68711 0
M  V30 2060 C 203.724 2.91161 2.1155 0
M  V30 2061 C 203.332 4.25068 1.41495 0
M  V30 2062 C 205.076 3.13383 2.86341 0
M  V30 2063 C 202.983 5.42541 2.35379 0
M  V30 2064 H 201.913 0.613954 0.437694 0
M  V30 2065 H 204.564 1.78442 0.427871 0
M  V30 2066 H 202.946 2.71218 2.88543 0
M  V30 2067 H 204.12 4.55463 0.699263 0
M  V30 2068 H 202.435 4.0888 0.787792 0
M  V30 2069 H 205.032 3.98324 3.5671 0
M  V30 2070 H 205.375 2.27256 3.48798 0
M  V30 2071 H 205.908 3.33757 2.1645 0
M  V30 2072 H 202.647 6.30987 1.77582 0
M  V30 2073 H 202.167 5.16497 3.04945 0
M  V30 2074 H 203.846 5.75272 2.96093 0
M  V30 2075 N 203.978 -0.674533 1.42435 0
M  V30 2076 C 205.227 -1.43034 1.42212 0
M  V30 2077 C 205.54 -1.95555 0.0420788 0
M  V30 2078 O 206.746 -2.71374 -0.0827558 0
M  V30 2079 C 205.202 -2.58748 2.50155 0
M  V30 2080 C 204.81 -2.12925 3.94166 0
M  V30 2081 C 206.554 -3.36257 2.59098 0
M  V30 2082 C 204.461 -3.25723 4.93618 0
M  V30 2083 H 203.391 -0.537345 0.528939 0
M  V30 2084 H 206.042 -0.73024 1.68344 0
M  V30 2085 H 204.424 -3.31128 2.17188 0
M  V30 2086 H 205.598 -1.47697 4.36488 0
M  V30 2087 H 203.913 -1.48354 3.89076 0
M  V30 2088 H 206.51 -4.20264 3.30578 0
M  V30 2089 H 206.853 -3.82866 1.63461 0
M  V30 2090 H 207.386 -2.70947 2.9126 0
M  V30 2091 H 204.125 -2.84105 5.90732 0
M  V30 2092 H 203.645 -3.89732 4.55926 0
M  V30 2093 H 205.324 -3.91186 5.15347 0
M  V30 2094 N 205.456 -1.28612 -0.910864 0
M  V30 2095 C 206.404 -1.1265 -2.03501 0
M  V30 2096 C 207.398 -0.0450054 -1.6934 0
M  V30 2097 O 208.604 -0.203988 -1.7884 0
M  V30 2098 H 204.979 -0.347639 -0.666822 0
M  V30 2099 H 206.95 -2.07849 -2.14106 0
M  V30 2100 C 205.699 -0.808143 -3.38178 0
M  V30 2101 H 205.022 -1.63231 -3.6496 0
M  V30 2102 H 206.462 -0.736426 -4.17556 0
M  V30 2103 C 204.921 0.488226 -3.33344 0
M  V30 2104 O 205.451 1.51766 -3.71927 0
M  V30 2105 N 203.657 0.490009 -2.86439 0
M  V30 2106 H 203.204 -0.348161 -2.55236 0
M  V30 2107 H 203.162 1.35741 -2.83587 0
M  V30 2108 N 206.934 1.1197 -1.10907 0
M  V30 2109 C 207.867 2.16998 -0.706192 0
M  V30 2110 C 208.845 1.59903 0.294897 0
M  V30 2111 O 210.029 1.87513 0.192636 0
M  V30 2112 C 207.156 3.38673 -0.0427664 0
M  V30 2113 C 206.202 4.14414 -1.00811 0
M  V30 2114 S 207.035 4.72079 -2.52789 0
M  V30 2115 C 208.191 5.97083 -1.87731 0
M  V30 2116 H 208.424 2.50837 -1.59587 0
M  V30 2117 H 205.957 1.23508 -0.926555 0
M  V30 2118 H 207.915 4.09142 0.333668 0
M  V30 2119 H 206.576 3.03105 0.823788 0
M  V30 2120 H 205.769 5.016 -0.491259 0
M  V30 2121 H 205.371 3.49678 -1.3267 0
M  V30 2122 H 207.663 6.66599 -1.21044 0
M  V30 2123 H 208.606 6.53403 -2.72892 0
M  V30 2124 H 209.014 5.4837 -1.33979 0
M  V30 2125 N 208.412 0.89855 1.29475 0
M  V30 2126 C 209.637 0.538561 2.00285 0
M  V30 2127 C 210.062 -0.869135 1.66816 0
M  V30 2128 O 209.42 -1.57831 0.892145 0
M  V30 2129 C 209.468 0.736475 3.52999 0
M  V30 2130 O 208.572 -0.211537 4.11857 0
M  V30 2131 H 207.913 0.210563 0.62973 0
M  V30 2132 H 210.443 1.20982 1.64998 0
M  V30 2133 H 210.453 0.640685 4.02938 0
M  V30 2134 H 209.128 1.76276 3.76696 0
M  V30 2135 H 207.705 -0.0682991 3.72837 0
M  V30 2136 N 209.89 -1.43072 0.660911 0
M  V30 2137 C 211.115 -2.06584 0.183805 0
M  V30 2138 C 211.54 -1.49257 -1.14472 0
M  V30 2139 O 210.898 -0.605528 -1.70889 0
M  V30 2140 C 210.946 -3.60418 0.114434 0
M  V30 2141 O 210.05 -4.01981 -0.921137 0
M  V30 2142 H 209.391 -0.656669 0.0983994 0
M  V30 2143 H 211.921 -1.83447 0.906006 0
M  V30 2144 H 211.931 -4.07946 -0.0663394 0
M  V30 2145 H 210.606 -4.01519 1.08422 0
M  V30 2146 H 209.183 -3.66029 -0.71253 0
M  V30 2147 N 211.368 -0.403325 -1.52352 0
M  V30 2148 C 212.617 0.175668 -2.00934 0
M  V30 2149 C 212.93 1.46718 -1.29356 0
M  V30 2150 O 214.136 2.12708 -1.68724 0
M  V30 2151 C 212.592 0.363612 -3.58058 0
M  V30 2152 C 212.2 -0.915472 -4.38547 0
M  V30 2153 C 213.944 0.89821 -4.14888 0
M  V30 2154 C 211.851 -0.695035 -5.87302 0
M  V30 2155 H 210.781 0.0694234 -0.750797 0
M  V30 2156 H 213.432 -0.527879 -1.75743 0
M  V30 2157 H 211.814 1.12935 -3.79555 0
M  V30 2158 H 212.988 -1.68691 -4.28812 0
M  V30 2159 H 211.303 -1.37606 -3.93006 0
M  V30 2160 H 213.9 1.07907 -5.23699 0
M  V30 2161 H 214.243 1.87126 -3.71873 0
M  V30 2162 H 214.776 0.191681 -3.97338 0
M  V30 2163 H 211.515 -1.63948 -6.34666 0
M  V30 2164 H 211.035 0.0372116 -5.99788 0
M  V30 2165 H 212.714 -0.33497 -6.46132 0
M  V30 2166 N 212.846 1.57033 -0.133567 0
M  V30 2167 C 213.756 2.19632 0.824564 0
M  V30 2168 C 214.772 1.17666 1.28182 0
M  V30 2169 O 215.948 1.50193 1.3418 0
M  V30 2170 C 213.013 2.79499 2.05137 0
M  V30 2171 C 212.074 3.96548 1.64464 0
M  V30 2172 C 211.307 4.5355 2.81297 0
M  V30 2173 O 211.53 4.09438 3.97136 0
M  V30 2174 O 210.464 5.44018 2.57542 0
M  V30 2175 H 214.29 3.01991 0.321766 0
M  V30 2176 H 211.875 1.49112 0.0927889 0
M  V30 2177 H 213.757 3.17602 2.7696 0
M  V30 2178 H 212.432 2.00162 2.54395 0
M  V30 2179 H 211.339 3.63186 0.897048 0
M  V30 2180 H 212.672 4.77364 1.19934 0
M  V30 2181 N 214.325 -0.140222 1.56975 0
M  V30 2182 C 215.573 -0.850005 1.83356 0
M  V30 2183 C 215.894 -1.81399 0.71551 0
M  V30 2184 O 215.164 -1.94136 -0.262294 0
M  V30 2185 H 213.744 -0.316886 0.676456 0
M  V30 2186 H 216.406 -0.132608 1.94448 0
M  V30 2187 H 215.502 -1.40814 2.78528 0
M  V30 2188 N 215.803 -1.52179 -0.40978 0
M  V30 2189 C 217.05 -1.66206 -1.15679 0
M  V30 2190 C 217.378 -0.391674 -1.90516 0
M  V30 2191 O 216.633 0.62533 -1.8544 0
M  V30 2192 C 216.932 -2.83428 -2.17723 0
M  V30 2193 C 216.598 -4.21672 -1.59699 0
M  V30 2194 C 215.26 -4.59274 -1.43599 0
M  V30 2195 C 217.612 -5.07825 -1.17317 0
M  V30 2196 C 214.94 -5.80709 -0.836328 0
M  V30 2197 C 217.292 -6.29864 -0.587691 0
M  V30 2198 C 215.956 -6.66216 -0.413818 0
M  V30 2199 H 215.226 -0.608192 -0.423301 0
M  V30 2200 H 217.873 -1.86279 -0.444097 0
M  V30 2201 H 216.178 -2.57687 -2.95135 0
M  V30 2202 H 217.875 -2.91477 -2.75394 0
M  V30 2203 H 214.465 -3.9204 -1.73213 0
M  V30 2204 H 218.649 -4.79359 -1.28565 0
M  V30 2205 H 213.905 -6.07498 -0.689626 0
M  V30 2206 H 218.079 -6.95948 -0.250894 0
M  V30 2207 H 215.706 -7.60182 0.0529471 0
M  V30 2208 N 217.281 0.66697 -1.42791 0
M  V30 2209 C 218.527 1.4291 -1.43891 0
M  V30 2210 C 218.86 1.94114 -0.0578972 0
M  V30 2211 O 218.135 1.71414 0.91911 0
M  V30 2212 C 218.418 2.62049 -2.46987 0
M  V30 2213 C 218.271 2.16426 -3.94309 0
M  V30 2214 C 219.59 3.64266 -2.46978 0
M  V30 2215 H 216.709 0.518306 -0.523954 0
M  V30 2216 H 219.351 0.757321 -1.74255 0
M  V30 2217 H 217.501 3.19361 -2.21225 0
M  V30 2218 H 219.173 1.64221 -4.31079 0
M  V30 2219 H 217.416 1.47925 -4.078 0
M  V30 2220 H 218.087 3.02038 -4.62036 0
M  V30 2221 H 220.563 3.16686 -2.69906 0
M  V30 2222 H 219.439 4.45196 -3.21079 0
M  V30 2223 H 219.7 4.15927 -1.49857 0
M  V30 2224 N 218.759 1.29093 0.90403 0
M  V30 2225 C 220.007 1.16583 1.65085 0
M  V30 2226 C 220.328 -0.283933 1.92922 0
M  V30 2227 O 219.598 -1.19509 1.55224 0
M  V30 2228 H 218.178 0.428467 0.611903 0
M  V30 2229 H 220.84 1.61959 1.08422 0
M  V30 2230 H 219.936 1.71266 2.6091 0
M  V30 2231 N 220.237 -1.11381 1.11499 0
M  V30 2232 C 221.514 -1.7955 0.775965 0
M  V30 2233 C 221.894 -1.97859 -0.73588 0
M  V30 2234 O 221.242 -1.56376 -1.66609 0
M  V30 2235 C 221.452 -3.13196 1.53977 0
M  V30 2236 C 222.8 -3.88227 1.71944 0
M  V30 2237 O 223.824 -3.22887 1.50407 0
M  V30 2238 O 222.683 -5.05477 2.07738 0
M  V30 2239 H 219.777 -0.777728 0.28119 0
M  V30 2240 H 222.323 -1.18118 1.21845 0
M  V30 2241 H 221.095 -2.95229 2.56818 0
M  V30 2242 H 220.718 -3.82342 1.09088 0
M  V30 2243 N 221.715 -0.905404 -1.28997 0
M  V30 2244 C 223.126 -0.581953 -1.77398 0
M  V30 2245 C 223.477 0.902552 -1.74208 0
M  V30 2246 O 222.602 1.70584 -1.33154 0
M  V30 2247 C 223.197 -1.04961 -3.22131 0
M  V30 2248 C 221.756 -0.777229 -3.68288 0
M  V30 2249 C 220.903 -1.22109 -2.48967 0
M  V30 2250 H 223.854 -1.08754 -1.15578 0
M  V30 2251 H 223.875 -0.387387 -3.78523 0
M  V30 2252 H 223.387 -2.13008 -3.24421 0
M  V30 2253 H 221.488 0.290383 -3.71467 0
M  V30 2254 H 221.601 -1.37911 -4.58822 0
M  V30 2255 H 219.965 -0.639971 -2.46529 0
M  V30 2256 H 220.748 -2.30972 -2.53982 0
M  V30 2257 N 223.193 1.4272 -0.668489 0
M  V30 2258 C 224.418 2.06484 -0.194758 0
M  V30 2259 C 224.843 1.49862 1.13679 0
M  V30 2260 O 224.201 0.614582 1.70565 0
M  V30 2261 C 224.249 3.60353 -0.133546 0
M  V30 2262 O 223.353 4.02464 0.899806 0
M  V30 2263 H 222.694 0.656137 -0.10188 0
M  V30 2264 H 225.224 1.82964 -0.915722 0
M  V30 2265 H 225.234 4.07976 0.0447041 0
M  V30 2266 H 223.909 4.00938 -1.1055 0
M  V30 2267 H 222.486 3.66402 0.693109 0
M  V30 2268 N 224.671 0.411399 1.52136 0
M  V30 2269 C 225.601 -0.404015 2.29978 0
M  V30 2270 C 226.582 -1.04412 1.34284 0
M  V30 2271 O 227.767 -1.0527 1.63192 0
M  V30 2272 C 224.897 -1.5197 3.12286 0
M  V30 2273 C 223.851 -1.00448 4.16046 0
M  V30 2274 C 223.177 -2.21393 4.86712 0
M  V30 2275 C 224.477 -0.0569336 5.22269 0
M  V30 2276 H 226.171 0.245529 2.98392 0
M  V30 2277 H 223.717 0.119525 1.43503 0
M  V30 2278 H 225.67 -2.09715 3.6551 0
M  V30 2279 H 224.394 -2.19716 2.41646 0
M  V30 2280 H 223.053 -0.449421 3.63835 0
M  V30 2281 H 222.701 -2.87699 4.12599 0
M  V30 2282 H 222.401 -1.87571 5.56858 0
M  V30 2283 H 223.925 -2.7974 5.4275 0
M  V30 2284 H 225.339 -0.54325 5.7072 0
M  V30 2285 H 223.736 0.192594 5.99791 0
M  V30 2286 H 224.806 0.887663 4.76706 0
M  V30 2287 N 226.149 -1.5696 0.141893 0
M  V30 2288 C 227.397 -1.95573 -0.509484 0
M  V30 2289 C 227.718 -1.02746 -1.65736 0
M  V30 2290 O 226.988 -0.0880311 -1.95702 0
M  V30 2291 H 225.568 -0.722115 -0.191205 0
M  V30 2292 H 228.23 -1.93697 0.216196 0
M  V30 2293 H 227.326 -2.99171 -0.889 0
M  V30 2294 N 227.627 0.131896 -1.57047 0
M  V30 2295 C 228.59 1.14638 -1.98471 0
M  V30 2296 C 229.59 1.35029 -0.873148 0
M  V30 2297 O 230.78 1.31764 -1.13946 0
M  V30 2298 C 227.912 2.50358 -2.31373 0
M  V30 2299 H 229.105 0.79064 -2.8929 0
M  V30 2300 H 226.658 0.375761 -1.51716 0
M  V30 2301 H 227.393 2.90876 -1.43393 0
M  V30 2302 H 227.178 2.36915 -3.12432 0
M  V30 2303 H 228.668 3.23395 -2.64207 0
M  V30 2304 N 229.106 1.52395 0.401703 0
M  V30 2305 C 230.336 1.70429 1.1678 0
M  V30 2306 C 230.744 0.416702 1.84554 0
M  V30 2307 O 230.087 -0.617697 1.73003 0
M  V30 2308 C 230.149 2.78919 2.26814 0
M  V30 2309 C 229.813 4.20437 1.79113 0
M  V30 2310 C 230.81 5.04028 1.27482 0
M  V30 2311 C 228.495 4.66704 1.85722 0
M  V30 2312 C 230.489 6.31961 0.830913 0
M  V30 2313 C 228.176 5.94625 1.40942 0
M  V30 2314 C 229.174 6.77082 0.897128 0
M  V30 2315 O 228.862 8.02607 0.455822 0
M  V30 2316 H 228.594 0.574272 0.356634 0
M  V30 2317 H 231.148 1.99767 0.477724 0
M  V30 2318 H 229.378 2.44973 2.99207 0
M  V30 2319 H 231.067 2.8548 2.88541 0
M  V30 2320 H 231.833 4.69471 1.21744 0
M  V30 2321 H 227.712 4.0262 2.24539 0
M  V30 2322 H 231.256 6.96271 0.430368 0
M  V30 2323 H 227.153 6.28688 1.46362 0
M  V30 2324 H 227.921 8.16453 0.578457 0
M  V30 2325 N 230.584 -0.659388 1.43143 0
M  V30 2326 C 231.532 -1.79374 1.4808 0
M  V30 2327 C 232.526 -1.65639 0.354988 0
M  V30 2328 O 233.732 -1.7206 0.528704 0
M  V30 2329 H 230.107 -0.591705 0.4641 0
M  V30 2330 H 232.078 -1.72329 2.43609 0
M  V30 2331 C 230.827 -3.17606 1.41499 0
M  V30 2332 H 230.15 -3.28809 2.27431 0
M  V30 2333 H 231.59 -3.96951 1.49015 0
M  V30 2334 C 230.049 -3.36642 0.131765 0
M  V30 2335 O 230.579 -3.93461 -0.809386 0
M  V30 2336 N 228.785 -2.90567 0.0439396 0
M  V30 2337 H 228.332 -2.44513 0.810619 0
M  V30 2338 H 228.29 -3.03681 -0.813969 0
M  V30 2339 N 232.062 -1.29571 -0.897171 0
M  V30 2340 C 233.025 -1.14913 -1.98312 0
M  V30 2341 C 234.025 -0.0838629 -1.60581 0
M  V30 2342 O 235.215 -0.331006 -1.71026 0
M  V30 2343 C 232.347 -0.757835 -3.3237 0
M  V30 2344 H 233.54 -2.11377 -2.12743 0
M  V30 2345 H 231.093 -1.12793 -1.08201 0
M  V30 2346 H 231.828 0.206837 -3.2364 0
M  V30 2347 H 231.613 -1.52755 -3.61121 0
M  V30 2348 H 233.103 -0.678408 -4.12053 0
M  V30 2349 N 233.54 1.10788 -1.12088 0
M  V30 2350 C 234.765 1.87002 -0.896949 0
M  V30 2351 C 235.19 1.79933 0.548261 0
M  V30 2352 O 234.548 1.16662 1.38779 0
M  V30 2353 C 234.596 3.3349 -1.37174 0
M  V30 2354 O 233.7 4.08745 -0.547831 0
M  V30 2355 H 233.041 0.580397 -0.322545 0
M  V30 2356 H 235.571 1.39996 -1.49206 0
M  V30 2357 H 235.581 3.84339 -1.36922 0
M  V30 2358 H 234.256 3.37951 -2.42408 0
M  V30 2359 H 232.833 3.6776 -0.617034 0
M  V30 2360 N 235.018 0.912232 1.28515 0
M  V30 2361 C 235.965 0.397954 2.27343 0
M  V30 2362 C 236.935 -0.526766 1.57526 0
M  V30 2363 O 238.12 -0.449292 1.85435 0
M  V30 2364 C 235.26 -0.357263 3.43246 0
M  V30 2365 C 234.373 0.599788 4.27816 0
M  V30 2366 C 233.508 -0.173725 5.30916 0
M  V30 2367 C 232.547 0.777039 6.07148 0
M  V30 2368 N 231.684 0.0371398 7.0209 0
M  V30 2369 H 236.524 1.24577 2.70711 0
M  V30 2370 H 234.061 0.625612 1.33133 0
M  V30 2371 H 236.019 -0.8113 4.09236 0
M  V30 2372 H 234.649 -1.16943 3.00872 0
M  V30 2373 H 233.701 1.17235 3.61884 0
M  V30 2374 H 235.013 1.32704 4.80823 0
M  V30 2375 H 234.167 -0.688394 6.02782 0
M  V30 2376 H 232.906 -0.934041 4.78672 0
M  V30 2377 H 231.911 1.3031 5.34134 0
M  V30 2378 H 233.136 1.53689 6.61481 0
M  V30 2379 H 231.082 -0.705213 6.52198 0
M  V30 2380 H 230.999 0.704249 7.52713 0
M  V30 2381 H 232.267 -0.457383 7.78157 0
M  V30 2382 N 236.496 -1.42363 0.676048 0
M  V30 2383 C 237.744 -2.01123 0.198437 0
M  V30 2384 C 238.065 -1.53731 -1.19966 0
M  V30 2385 O 237.335 -0.759518 -1.80577 0
M  V30 2386 H 235.915 -0.743678 0.0703721 0
M  V30 2387 H 238.577 -1.74263 0.872837 0
M  V30 2388 H 237.673 -3.11454 0.200686 0
M  V30 2389 N 237.974 -0.419461 -1.51915 0
M  V30 2390 C 238.937 0.389116 -2.25873 0
M  V30 2391 C 239.937 0.964924 -1.28631 0
M  V30 2392 O 241.127 0.842179 -1.52489 0
M  V30 2393 C 238.259 1.54874 -3.03689 0
M  V30 2394 H 239.452 -0.258799 -2.98781 0
M  V30 2395 H 237.005 -0.172209 -1.55348 0
M  V30 2396 H 237.74 2.23323 -2.35154 0
M  V30 2397 H 237.525 1.14223 -3.75094 0
M  V30 2398 H 239.015 2.12046 -3.59759 0
M  V30 2399 N 239.452 1.56882 -0.150215 0
M  V30 2400 C 240.698 1.96518 0.500834 0
M  V30 2401 C 241.031 1.03527 1.64304 0
M  V30 2402 O 240.306 0.0782751 1.94342 0
M  V30 2403 C 240.589 3.45822 1.00395 0
M  V30 2404 C 240.442 4.49591 -0.136983 0
M  V30 2405 C 241.761 3.97704 1.88467 0
M  V30 2406 H 238.88 0.714535 0.18058 0
M  V30 2407 H 241.522 1.88577 -0.232091 0
M  V30 2408 H 239.672 3.5272 1.62851 0
M  V30 2409 H 241.344 4.5477 -0.77343 0
M  V30 2410 H 239.587 4.26441 -0.795652 0
M  V30 2411 H 240.258 5.51402 0.256815 0
M  V30 2412 H 242.734 3.93304 1.35834 0
M  V30 2413 H 241.61 5.0263 2.20578 0
M  V30 2414 H 241.871 3.40252 2.82279 0
M  V30 2415 N 240.93 -0.123565 1.57115 0
M  V30 2416 C 242.346 -0.476961 1.52306 0
M  V30 2417 C 242.546 -1.82109 0.86248 0
M  V30 2418 O 241.602 -2.48586 0.442884 0
M  V30 2419 C 242.915 -0.465661 2.97073 0
M  V30 2420 C 244.463 -0.549534 3.08138 0
M  V30 2421 C 244.938 -0.568669 4.54456 0
M  V30 2422 N 246.429 -0.630237 4.58892 0
M  V30 2423 C 247.164 -0.666415 5.69514 0
M  V30 2424 N 246.66 -0.660514 6.89644 0
M  V30 2425 N 248.453 -0.709077 5.5761 0
M  V30 2426 H 240.604 0.757198 1.98445 0
M  V30 2427 H 242.867 0.278808 0.906074 0
M  V30 2428 H 242.573 0.454232 3.48754 0
M  V30 2429 H 242.447 -1.29513 3.54269 0
M  V30 2430 H 244.834 -1.45985 2.56461 0
M  V30 2431 H 244.915 0.307532 2.53945 0
M  V30 2432 H 244.559 0.337581 5.06777 0
M  V30 2433 H 244.489 -1.44256 5.06456 0
M  V30 2434 H 246.98 -0.641146 3.72421 0
M  V30 2435 H 247.293 -0.690616 7.69708 0
M  V30 2436 H 245.638 -0.628012 6.92157 0
M  V30 2437 H 248.829 -0.711019 4.62668 0
M  V30 2438 H 249.002 -0.733804 6.43832 0
M  V30 2439 N 242.408 -1.52605 -0.393616 0
M  V30 2440 C 243.657 -1.66649 -1.13627 0
M  V30 2441 C 243.97 -0.410364 -1.91247 0
M  V30 2442 O 245.176 -0.430854 -2.68059 0
M  V30 2443 C 243.632 -2.9449 -2.06891 0
M  V30 2444 C 243.24 -4.27266 -1.34714 0
M  V30 2445 C 244.984 -3.17899 -2.81319 0
M  V30 2446 C 242.891 -5.46217 -2.26717 0
M  V30 2447 H 241.821 -0.62084 -0.427871 0
M  V30 2448 H 244.472 -1.791 -0.399428 0
M  V30 2449 H 242.854 -2.75774 -2.84191 0
M  V30 2450 H 244.028 -4.56518 -0.626714 0
M  V30 2451 H 242.343 -4.10081 -0.722643 0
M  V30 2452 H 244.94 -4.03949 -3.50328 0
M  V30 2453 H 245.283 -2.32777 -3.45139 0
M  V30 2454 H 245.816 -3.37159 -2.11113 0
M  V30 2455 H 242.555 -6.33733 -1.67521 0
M  V30 2456 H 242.075 -5.21283 -2.96689 0
M  V30 2457 H 243.754 -5.7991 -2.86903 0
M  V30 2458 N 243.887 0.651787 -1.4349 0
M  V30 2459 C 244.82 1.77668 -1.43211 0
M  V30 2460 C 245.798 1.59931 -0.29338 0
M  V30 2461 O 246.982 1.82095 -0.487191 0
M  V30 2462 C 244.109 3.14986 -1.24505 0
M  V30 2463 C 243.155 3.51421 -2.41673 0
M  V30 2464 S 243.988 3.51234 -4.04222 0
M  V30 2465 C 245.144 4.91206 -3.87902 0
M  V30 2466 H 245.377 1.77635 -2.38397 0
M  V30 2467 H 242.91 0.824558 -1.30539 0
M  V30 2468 H 244.868 3.94237 -1.144 0
M  V30 2469 H 243.529 3.1258 -0.308651 0
M  V30 2470 H 242.722 4.51291 -2.24393 0
M  V30 2471 H 242.324 2.79585 -2.48411 0
M  V30 2472 H 244.616 5.79902 -3.50315 0
M  V30 2473 H 245.559 5.13537 -4.8753 0
M  V30 2474 H 245.967 4.64808 -3.20334 0
M  V30 2475 N 245.365 1.30045 0.890287 0
M  V30 2476 C 246.59 1.21598 1.68014 0
M  V30 2477 C 247.015 -0.218678 1.86825 0
M  V30 2478 O 246.373 -1.15756 1.39536 0
M  V30 2479 C 246.421 1.94434 3.03691 0
M  V30 2480 O 245.525 1.2678 3.92429 0
M  V30 2481 H 244.866 0.420856 0.513592 0
M  V30 2482 H 247.396 1.71775 1.11151 0
M  V30 2483 H 247.406 2.03251 3.5377 0
M  V30 2484 H 246.081 2.98777 2.89318 0
M  V30 2485 H 244.658 1.26282 3.50866 0
M  V30 2486 N 246.843 -1.10192 1.12674 0
M  V30 2487 C 247.79 -2.16606 0.796906 0
M  V30 2488 C 248.76 -1.64394 -0.237476 0
M  V30 2489 O 249.945 -1.90474 -0.111484 0
M  V30 2490 C 247.085 -3.44116 0.26043 0
M  V30 2491 C 246.198 -4.10268 1.35293 0
M  V30 2492 C 245.333 -5.25507 0.775621 0
M  V30 2493 C 244.372 -5.83567 1.84706 0
M  V30 2494 N 243.509 -6.90179 1.28829 0
M  V30 2495 H 248.349 -2.44163 1.70846 0
M  V30 2496 H 245.886 -1.19846 0.85295 0
M  V30 2497 H 247.844 -4.17143 -0.0686814 0
M  V30 2498 H 246.474 -3.16901 -0.614274 0
M  V30 2499 H 245.526 -3.35184 1.79877 0
M  V30 2500 H 246.838 -4.4946 2.16303 0
M  V30 2501 H 245.992 -6.05398 0.397327 0
M  V30 2502 H 244.731 -4.87656 -0.0656581 0
M  V30 2503 H 243.736 -5.02344 2.23452 0
M  V30 2504 H 244.961 -6.23482 2.69161 0
M  V30 2505 H 242.907 -6.54322 0.468881 0
M  V30 2506 H 242.824 -7.28097 2.03497 0
M  V30 2507 H 244.092 -7.73844 0.937311 0
M  V30 2508 N 248.321 -0.919034 -1.28029 0
M  V30 2509 C 249.546 -0.570357 -1.99403 0
M  V30 2510 C 249.971 0.842486 -1.68178 0
M  V30 2511 O 249.329 1.56391 -0.917141 0
M  V30 2512 C 249.377 -0.792541 -3.51783 0
M  V30 2513 O 248.481 0.145988 -4.12142 0
M  V30 2514 H 247.822 -0.220555 -0.6263 0
M  V30 2515 H 250.352 -1.23592 -1.63053 0
M  V30 2516 H 250.362 -0.704708 -4.01868 0
M  V30 2517 H 249.037 -1.82247 -3.73844 0
M  V30 2518 H 247.614 0.00897528 -3.72899 0
M  V30 2519 N 249.799 1.42003 -0.683588 0
M  V30 2520 C 250.762 2.29191 -0.0198243 0
M  V30 2521 C 251.762 1.43773 0.72013 0
M  V30 2522 O 252.952 1.65061 0.556815 0
M  V30 2523 C 250.084 3.26435 0.982487 0
M  V30 2524 H 251.277 2.8938 -0.787345 0
M  V30 2525 H 248.83 1.49789 -0.446418 0
M  V30 2526 H 249.565 2.71203 1.77819 0
M  V30 2527 H 249.35 3.89449 0.455182 0
M  V30 2528 H 250.84 3.918 1.44508 0
M  V30 2529 N 251.277 0.427512 1.51691 0
M  V30 2530 C 252.24 -0.377132 2.26076 0
M  V30 2531 C 253.24 -0.958089 1.29141 0
M  V30 2532 O 254.43 -0.83408 1.52934 0
M  V30 2533 C 251.562 -1.53262 3.04506 0
M  V30 2534 H 252.755 0.27464 2.9864 0
M  V30 2535 H 250.308 0.180445 1.55255 0
M  V30 2536 H 251.043 -2.22072 2.36335 0
M  V30 2537 H 250.828 -1.12232 3.75694 0
M  V30 2538 H 252.318 -2.10135 3.60878 0
M  V30 2539 N 252.755 -1.56801 0.158532 0
M  V30 2540 C 253.685 -2.20347 -0.772609 0
M  V30 2541 C 254.666 -1.15518 -1.24859 0
M  V30 2542 O 255.851 -1.43902 -1.30406 0
M  V30 2543 C 252.981 -2.83417 -2.00729 0
M  V30 2544 C 251.935 -3.94174 -1.66765 0
M  V30 2545 C 251.261 -4.44233 -2.97592 0
M  V30 2546 C 252.561 -5.14392 -0.905447 0
M  V30 2547 H 254.255 -2.98413 -0.242959 0
M  V30 2548 H 251.801 -1.43537 -0.115419 0
M  V30 2549 H 253.754 -3.26543 -2.6636 0
M  V30 2550 H 252.478 -2.02701 -2.56086 0
M  V30 2551 H 251.137 -3.51684 -1.03508 0
M  V30 2552 H 250.785 -3.60325 -3.50963 0
M  V30 2553 H 250.485 -5.18945 -2.75626 0
M  V30 2554 H 252.009 -4.90037 -3.64274 0
M  V30 2555 H 253.423 -5.5429 -1.46408 0
M  V30 2556 H 251.82 -5.9494 -0.7853 0
M  V30 2557 H 252.89 -4.84795 0.100668 0
M  V30 2558 N 254.233 0.115231 -1.57178 0
M  V30 2559 C 255.51 0.852873 -1.76027 0
M  V30 2560 C 255.89 1.97892 -0.73498 0
M  V30 2561 O 255.238 2.27232 0.24036 0
M  V30 2562 C 255.448 1.36608 -3.21153 0
M  V30 2563 C 256.796 1.81692 -3.83762 0
M  V30 2564 O 257.82 1.46278 -3.24779 0
M  V30 2565 O 256.679 2.47104 -4.87444 0
M  V30 2566 H 253.773 0.405296 -0.720877 0
M  V30 2567 H 256.319 0.0986785 -1.69413 0
M  V30 2568 H 255.091 0.558357 -3.87296 0
M  V30 2569 H 254.714 2.18287 -3.3232 0
M  V30 2570 N 255.711 1.52812 0.385517 0
M  V30 2571 C 256.951 1.69716 1.13911 0
M  V30 2572 C 257.315 0.42962 1.87132 0
M  V30 2573 O 258.516 0.475071 2.64569 0
M  V30 2574 C 256.787 2.90021 2.0886 0
M  V30 2575 S 258.346 3.27531 2.92009 0
M  V30 2576 H 255.164 0.59739 0.385547 0
M  V30 2577 H 257.766 1.90868 0.423061 0
M  V30 2578 H 256.47 3.80493 1.53797 0
M  V30 2579 H 256.001 2.71213 2.84969 0
M  V30 2580 H 258.016 2.77989 4.11019 0
M  V30 2581 N 257.189 -0.644168 1.43834 0
M  V30 2582 C 258.152 -1.73857 1.49353 0
M  V30 2583 C 259.152 -1.56315 0.377112 0
M  V30 2584 O 260.342 -1.62048 0.639226 0
M  V30 2585 C 257.474 -3.12819 1.35488 0
M  V30 2586 H 258.667 -1.70342 2.46827 0
M  V30 2587 H 256.22 -0.856652 1.30733 0
M  V30 2588 H 256.955 -3.2194 0.390569 0
M  V30 2589 H 256.74 -3.26958 2.16428 0
M  V30 2590 H 258.23 -3.92606 1.42302 0
M  V30 2591 N 258.668 -1.30515 -0.883378 0
M  V30 2592 C 259.598 -1.19607 -2.00541 0
M  V30 2593 C 260.579 -0.086346 -1.69881 0
M  V30 2594 O 261.764 -0.268654 -1.92333 0
M  V30 2595 C 258.894 -0.888758 -3.35736 0
M  V30 2596 C 257.848 -1.95659 -3.8066 0
M  V30 2597 C 257.174 -1.50224 -5.13164 0
M  V30 2598 C 258.474 -3.36788 -3.99213 0
M  V30 2599 H 260.168 -2.13476 -2.09925 0
M  V30 2600 H 257.714 -1.02775 -1.00863 0
M  V30 2601 H 259.667 -0.799094 -4.13754 0
M  V30 2602 H 258.391 0.0856125 -3.26488 0
M  V30 2603 H 257.05 -2.03591 -3.04871 0
M  V30 2604 H 256.698 -0.516092 -5.00345 0
M  V30 2605 H 256.398 -2.2165 -5.44192 0
M  V30 2606 H 257.922 -1.42639 -5.93706 0
M  V30 2607 H 259.336 -3.31605 -4.67665 0
M  V30 2608 H 257.733 -4.06314 -4.41621 0
M  V30 2609 H 258.803 -3.78561 -3.03017 0
M  V30 2610 N 260.146 1.09593 -1.13257 0
M  V30 2611 C 261.093 2.1618 -0.808381 0
M  V30 2612 C 262.063 1.64517 0.228754 0
M  V30 2613 O 263.248 1.9053 0.101381 0
M  V30 2614 C 260.388 3.43973 -0.278675 0
M  V30 2615 C 259.501 4.09545 -1.37466 0
M  V30 2616 C 258.636 5.25088 -0.803479 0
M  V30 2617 C 257.675 5.82579 -1.87799 0
M  V30 2618 N 256.812 6.89486 -1.32488 0
M  V30 2619 H 261.652 2.43254 -1.72138 0
M  V30 2620 H 259.189 1.19392 -0.859294 0
M  V30 2621 H 261.147 4.17174 0.0465583 0
M  V30 2622 H 259.777 3.17223 0.597459 0
M  V30 2623 H 258.829 3.34226 -1.81652 0
M  V30 2624 H 260.141 4.48307 -2.18684 0
M  V30 2625 H 259.295 6.05178 -0.429427 0
M  V30 2626 H 258.034 4.87684 0.0397956 0
M  V30 2627 H 257.039 5.01152 -2.26113 0
M  V30 2628 H 258.264 6.22045 -2.72463 0
M  V30 2629 H 256.21 6.54064 -0.503575 0
M  V30 2630 H 256.127 7.27007 -2.07355 0
M  V30 2631 H 257.395 7.73336 -0.978336 0
M  V30 2632 N 261.624 0.925811 1.2754 0
M  V30 2633 C 262.901 0.483726 1.89524 0
M  V30 2634 C 263.281 -1.03809 1.83812 0
M  V30 2635 O 262.629 -1.89143 1.28207 0
M  V30 2636 C 262.839 1.02769 3.33526 0
M  V30 2637 C 264.187 1.08703 4.10449 0
M  V30 2638 O 265.211 0.977175 3.42534 0
M  V30 2639 O 264.07 1.25599 5.31871 0
M  V30 2640 H 261.164 0.15529 0.812289 0
M  V30 2641 H 263.71 1.01738 1.35822 0
M  V30 2642 H 262.482 2.07155 3.31967 0
M  V30 2643 H 262.105 0.475567 3.94746 0
M  V30 2644 N 263.102 -1.41638 0.69111 0
M  V30 2645 C 264.332 -2.0533 0.228758 0
M  V30 2646 C 264.74 -1.52089 -1.12541 0
M  V30 2647 O 264.083 -0.662145 -1.71351 0
M  V30 2648 C 264.145 -3.59349 0.10407 0
M  V30 2649 C 263.809 -4.35362 1.38956 0
M  V30 2650 C 264.806 -4.64942 2.32648 0
M  V30 2651 C 262.491 -4.74714 1.64169 0
M  V30 2652 C 264.485 -5.32828 3.49818 0
M  V30 2653 C 262.172 -5.42338 2.81625 0
M  V30 2654 C 263.17 -5.71322 3.74273 0
M  V30 2655 O 262.858 -6.37554 4.89673 0
M  V30 2656 H 262.59 -0.667796 0.104997 0
M  V30 2657 H 265.144 -1.82477 0.942938 0
M  V30 2658 H 263.374 -3.80924 -0.665839 0
M  V30 2659 H 265.063 -4.04633 -0.320519 0
M  V30 2660 H 265.829 -4.35025 2.14425 0
M  V30 2661 H 261.708 -4.51538 0.929202 0
M  V30 2662 H 265.252 -5.55368 4.22152 0
M  V30 2663 H 261.149 -5.71673 2.99768 0
M  V30 2664 H 261.917 -6.56049 4.8943 0
M  V30 2665 N 264.58 -0.43555 -1.51462 0
M  V30 2666 C 265.857 0.191364 -1.94662 0
M  V30 2667 C 266.237 1.60254 -1.37411 0
M  V30 2668 O 265.585 2.2152 -0.560458 0
M  V30 2669 C 265.795 0.17091 -3.48581 0
M  V30 2670 C 267.143 0.377357 -4.2292 0
M  V30 2671 O 268.167 0.249104 -3.55328 0
M  V30 2672 O 267.026 0.63247 -5.42828 0
M  V30 2673 H 264.12 0.130932 -0.816569 0
M  V30 2674 H 266.666 -0.4934 -1.62369 0
M  V30 2675 H 265.438 -0.815738 -3.82703 0
M  V30 2676 H 265.061 0.898659 -3.87311 0
M  V30 2677 N 266.058 1.56714 -0.166846 0
M  V30 2678 C 267.304 1.97039 0.479962 0
M  V30 2679 C 267.637 1.05264 1.63197 0
M  V30 2680 O 266.912 0.0988833 1.94248 0
M  V30 2681 C 267.195 3.46867 0.967212 0
M  V30 2682 C 267.048 4.49421 -0.18466 0
M  V30 2683 C 268.367 3.9968 1.84238 0
M  V30 2684 H 265.486 0.71641 0.172992 0
M  V30 2685 H 268.128 1.8832 -0.252079 0
M  V30 2686 H 266.278 3.54428 1.59101 0
M  V30 2687 H 267.95 4.53924 -0.821621 0
M  V30 2688 H 266.193 4.25573 -0.840837 0
M  V30 2689 H 266.864 5.51644 0.198317 0
M  V30 2690 H 269.34 3.94723 1.31655 0
M  V30 2691 H 268.216 5.04941 2.15234 0
M  V30 2692 H 268.477 3.43226 2.78654 0
M  V30 2693 N 267.536 -0.106894 1.57237 0
M  V30 2694 C 268.952 -0.46078 1.52804 0
M  V30 2695 C 269.152 -1.81184 0.881746 0
M  V30 2696 O 268.208 -2.48102 0.469224 0
M  V30 2697 C 269.521 -0.434127 2.9755 0
M  V30 2698 C 271.069 -0.516821 3.08704 0
M  V30 2699 C 271.544 -0.520436 4.55033 0
M  V30 2700 N 273.035 -0.58153 4.59535 0
M  V30 2701 C 273.77 -0.605973 5.70189 0
M  V30 2702 N 273.266 -0.587331 6.90306 0
M  V30 2703 N 275.059 -0.649895 5.5833 0
M  V30 2704 H 267.21 0.778203 1.9763 0
M  V30 2705 H 269.473 0.288403 0.903066 0
M  V30 2706 H 269.179 0.491197 3.48253 0
M  V30 2707 H 269.053 -1.25748 3.55622 0
M  V30 2708 H 271.44 -1.43256 2.57995 0
M  V30 2709 H 271.521 0.334449 2.53604 0
M  V30 2710 H 271.165 0.391313 5.0639 0
M  V30 2711 H 271.095 -1.38876 5.07958 0
M  V30 2712 H 273.586 -0.60161 3.73081 0
M  V30 2713 H 273.899 -0.60894 7.70397 0
M  V30 2714 H 272.244 -0.554564 6.92784 0
M  V30 2715 H 275.435 -0.661907 4.63397 0
M  V30 2716 H 275.608 -0.665476 6.44574 0
M  V30 2717 N 269.014 -1.53014 -0.377408 0
M  V30 2718 C 270.26 -1.68872 -1.12294 0
M  V30 2719 C 270.593 -0.433224 -1.89306 0
M  V30 2720 O 269.868 0.569258 -1.85983 0
M  V30 2721 C 270.151 -2.93115 -2.09179 0
M  V30 2722 C 270.004 -4.28794 -1.35853 0
M  V30 2723 C 271.323 -3.12928 -3.09458 0
M  V30 2724 H 268.442 -0.614518 -0.406862 0
M  V30 2725 H 271.084 -1.85633 -0.40503 0
M  V30 2726 H 269.234 -2.78956 -2.70399 0
M  V30 2727 H 270.906 -4.54742 -0.775082 0
M  V30 2728 H 269.149 -4.28744 -0.660364 0
M  V30 2729 H 269.82 -5.11837 -2.06706 0
M  V30 2730 H 272.296 -3.26194 -2.58334 0
M  V30 2731 H 271.172 -4.01316 -3.74482 0
M  V30 2732 H 271.433 -2.27669 -3.78971 0
M  V30 2733 N 270.492 0.636531 -1.44174 0
M  V30 2734 C 271.44 1.76995 -1.50915 0
M  V30 2735 C 272.434 1.65053 -0.381295 0
M  V30 2736 O 273.64 1.71197 -0.55601 0
M  V30 2737 H 270.015 0.584247 -0.473455 0
M  V30 2738 H 271.986 1.68432 -2.4632 0
M  V30 2739 C 270.735 3.15314 -1.46534 0
M  V30 2740 H 270.058 3.25149 -2.32633 0
M  V30 2741 H 271.498 3.9453 -1.55312 0
M  V30 2742 C 269.957 3.3639 -0.185305 0
M  V30 2743 O 270.487 3.94699 0.746688 0
M  V30 2744 N 268.693 2.9046 -0.0901606 0
M  V30 2745 H 268.24 2.43193 -0.849416 0
M  V30 2746 H 268.198 3.04937 0.765553 0
M  V30 2747 N 271.97 1.30982 0.876444 0
M  V30 2748 C 273.198 1.23242 1.6619 0
M  V30 2749 C 273.613 -0.203345 1.87702 0
M  V30 2750 O 272.97 -1.13317 1.43057 0
M  V30 2751 C 273.021 1.96623 3.03351 0
M  V30 2752 O 272.742 3.34594 2.82804 0
M  V30 2753 C 274.243 1.95644 3.97792 0
M  V30 2754 H 271.463 0.426126 0.518322 0
M  V30 2755 H 274.007 1.7275 1.09442 0
M  V30 2756 H 272.162 1.50892 3.56806 0
M  V30 2757 H 272.576 3.71873 3.69879 0
M  V30 2758 H 274.05 2.51511 4.91372 0
M  V30 2759 H 274.527 0.937395 4.2908 0
M  V30 2760 H 275.133 2.41225 3.50272 0
M  V30 2761 N 273.449 -1.08991 1.13837 0
M  V30 2762 C 274.695 -1.81526 0.90422 0
M  V30 2763 C 275.028 -1.85706 -0.568066 0
M  V30 2764 O 274.303 -1.32855 -1.42056 0
M  V30 2765 C 274.586 -3.27447 1.49835 0
M  V30 2766 C 274.439 -3.31512 3.04006 0
M  V30 2767 C 275.758 -4.24256 1.17025 0
M  V30 2768 H 272.877 -0.659029 0.329923 0
M  V30 2769 H 275.519 -1.27644 1.40737 0
M  V30 2770 H 273.669 -3.73462 1.07044 0
M  V30 2771 H 275.341 -2.93867 3.55584 0
M  V30 2772 H 273.584 -2.70963 3.38765 0
M  V30 2773 H 274.255 -4.34329 3.40679 0
M  V30 2774 H 276.731 -3.86549 1.54009 0
M  V30 2775 H 275.607 -5.24684 1.61237 0
M  V30 2776 H 275.868 -4.42019 0.0846274 0
M  V30 2777 N 274.927 -0.932562 -1.27047 0
M  V30 2778 C 275.877 -0.406392 -2.24349 0
M  V30 2779 C 276.861 0.492066 -1.53191 0
M  V30 2780 O 278.053 0.328717 -1.73921 0
M  V30 2781 C 275.182 0.335214 -3.41659 0
M  V30 2782 C 274.268 -0.58004 -4.20115 0
M  V30 2783 N 274.659 -1.70203 -4.76303 0
M  V30 2784 C 272.957 -0.383974 -4.44344 0
M  V30 2785 C 273.658 -2.27167 -5.35509 0
M  V30 2786 N 272.634 -1.56068 -5.20715 0
M  V30 2787 H 276.436 -1.26299 -2.65378 0
M  V30 2788 H 273.95 -0.787408 -1.42034 0
M  V30 2789 H 275.947 0.729142 -4.10474 0
M  V30 2790 H 274.607 1.18868 -3.0216 0
M  V30 2791 H 275.618 -2.08433 -4.74106 0
M  V30 2792 H 272.295 0.428436 -4.15296 0
M  V30 2793 H 273.685 -3.21654 -5.89905 0
M  V30 2794 N 276.405 1.4127 -0.698611 0
M  V30 2795 C 277.816 1.84187 -0.305289 0
M  V30 2796 C 278.167 1.58449 1.15708 0
M  V30 2797 O 277.292 1.05651 1.88856 0
M  V30 2798 C 277.887 3.3435 -0.547314 0
M  V30 2799 C 276.446 3.75826 -0.207878 0
M  V30 2800 C 275.593 2.64647 -0.828099 0
M  V30 2801 H 278.544 1.30778 -0.89904 0
M  V30 2802 H 278.565 3.8001 0.192998 0
M  V30 2803 H 278.077 3.53051 -1.61172 0
M  V30 2804 H 276.178 3.62725 0.852143 0
M  V30 2805 H 276.291 4.74462 -0.665021 0
M  V30 2806 H 274.655 2.53395 -0.257458 0
M  V30 2807 H 275.438 2.86165 -1.89643 0
M  V30 2808 N 277.883 0.443576 1.51229 0
M  V30 2809 C 279.131 -0.120557 2.0174 0
M  V30 2810 C 279.452 -1.42665 1.32935 0
M  V30 2811 O 278.722 -1.9028 0.465866 0
M  V30 2812 H 277.302 -0.0475426 0.745486 0
M  V30 2813 H 279.964 0.587711 1.85828 0
M  V30 2814 H 279.06 -0.291972 3.10731 0
M  V30 2815 N 279.361 -1.56624 0.175154 0
M  V30 2816 C 280.591 -2.01082 -0.474283 0
M  V30 2817 C 280.999 -1.05447 -1.57091 0
M  V30 2818 O 280.342 -0.0480595 -1.83637 0
M  V30 2819 C 280.404 -3.41963 -1.10911 0
M  V30 2820 C 280.068 -4.56742 -0.153666 0
M  V30 2821 C 281.065 -5.16076 0.629448 0
M  V30 2822 C 278.75 -5.02277 -0.0483776 0
M  V30 2823 C 280.744 -6.19377 1.50501 0
M  V30 2824 C 278.431 -6.05427 0.830768 0
M  V30 2825 C 279.429 -6.63849 1.60605 0
M  V30 2826 O 279.117 -7.64998 2.47049 0
M  V30 2827 H 278.849 -0.664261 -0.125432 0
M  V30 2828 H 281.403 -2.03549 0.275163 0
M  V30 2829 H 279.633 -3.36422 -1.90676 0
M  V30 2830 H 281.322 -3.70352 -1.66114 0
M  V30 2831 H 282.088 -4.81776 0.558297 0
M  V30 2832 H 277.967 -4.56513 -0.641611 0
M  V30 2833 H 281.511 -6.64906 2.1106 0
M  V30 2834 H 277.408 -6.39151 0.903107 0
M  V30 2835 H 278.176 -7.82336 2.40607 0
M  V30 2836 N 280.839 0.0985539 -1.57292 0
M  V30 2837 C 282.088 0.801358 -1.85098 0
M  V30 2838 C 282.401 1.80066 -0.763902 0
M  V30 2839 O 283.607 2.55112 -0.928981 0
M  V30 2840 C 282.063 1.47599 -3.28242 0
M  V30 2841 C 281.671 0.516624 -4.45011 0
M  V30 2842 C 283.415 2.16272 -3.65276 0
M  V30 2843 C 281.322 1.19564 -5.79188 0
M  V30 2844 H 280.252 0.303022 -0.69043 0
M  V30 2845 H 282.903 0.0542623 -1.8342 0
M  V30 2846 H 281.285 2.27042 -3.2445 0
M  V30 2847 H 282.459 -0.246065 -4.60143 0
M  V30 2848 H 280.774 -0.064227 -4.1635 0
M  V30 2849 H 283.371 2.67802 -4.62803 0
M  V30 2850 H 283.714 2.95009 -2.93727 0
M  V30 2851 H 284.247 1.43693 -3.70941 0
M  V30 2852 H 280.986 0.449157 -6.53959 0
M  V30 2853 H 280.506 1.92984 -5.67906 0
M  V30 2854 H 282.185 1.7231 -6.23633 0
M  V30 2855 N 282.317 1.53212 0.369288 0
M  V30 2856 C 283.264 1.79388 1.45219 0
M  V30 2857 C 284.234 0.638059 1.53356 0
M  V30 2858 O 285.419 0.879852 1.69302 0
M  V30 2859 C 282.559 1.98623 2.82211 0
M  V30 2860 C 281.672 3.26337 2.8307 0
M  V30 2861 C 280.807 3.35779 4.11614 0
M  V30 2862 C 279.846 4.5754 4.06601 0
M  V30 2863 N 278.983 4.64155 5.26787 0
M  V30 2864 H 283.823 2.71794 1.22198 0
M  V30 2865 H 281.36 1.34642 0.592444 0
M  V30 2866 H 283.318 2.07761 3.61789 0
M  V30 2867 H 281.948 1.09558 3.03639 0
M  V30 2868 H 281 3.26171 1.95747 0
M  V30 2869 H 282.312 4.15988 2.75237 0
M  V30 2870 H 281.466 3.44208 4.99606 0
M  V30 2871 H 280.205 2.44137 4.22195 0
M  V30 2872 H 279.21 4.49215 3.16996 0
M  V30 2873 H 280.435 5.50519 3.97625 0
M  V30 2874 H 278.381 3.75413 5.3796 0
M  V30 2875 H 278.298 5.47706 5.21109 0
M  V30 2876 H 279.566 4.76863 6.16621 0
M  V30 2877 N 283.795 -0.628877 1.44509 0
M  V30 2878 C 285.023 -1.41554 1.50897 0
M  V30 2879 C 285.438 -1.8832 0.134564 0
M  V30 2880 O 284.795 -1.60969 -0.859965 0
M  V30 2881 C 284.846 -2.63435 2.47556 0
M  V30 2882 O 284.567 -2.18619 3.79654 0
M  V30 2883 C 286.068 -3.56537 2.63431 0
M  V30 2884 H 283.288 -0.434044 0.511709 0
M  V30 2885 H 285.832 -0.768895 1.89495 0
M  V30 2886 H 283.987 -3.24187 2.12089 0
M  V30 2887 H 284.401 -2.97652 4.31861 0
M  V30 2888 H 285.875 -4.38657 3.35088 0
M  V30 2889 H 286.352 -4.05493 1.68738 0
M  V30 2890 H 286.958 -3.01653 2.9981 0
M  V30 2891 N 285.273 -1.31445 -0.869486 0
M  V30 2892 C 286.684 -1.19042 -1.43826 0
M  V30 2893 C 287.035 0.202919 -1.95148 0
M  V30 2894 O 286.16 1.10071 -1.86315 0
M  V30 2895 C 286.755 -2.15499 -2.6143 0
M  V30 2896 C 285.314 -2.07028 -3.14351 0
M  V30 2897 C 284.461 -2.04701 -1.87063 0
M  V30 2898 H 287.412 -1.43489 -0.677984 0
M  V30 2899 H 287.433 -1.74488 -3.38134 0
M  V30 2900 H 286.945 -3.16899 -2.24046 0
M  V30 2901 H 285.046 -1.08825 -3.56354 0
M  V30 2902 H 285.159 -2.96157 -3.766 0
M  V30 2903 H 283.523 -1.49724 -2.06046 0
M  V30 2904 H 284.306 -3.07857 -1.51917 0
M  V30 2905 N 286.751 1.08385 -1.14413 0
M  V30 2906 C 287.681 2.17321 -0.854044 0
M  V30 2907 C 288.662 1.69024 0.191049 0
M  V30 2908 O 289.847 1.94141 0.0476779 0
M  V30 2909 C 286.977 3.45719 -0.330983 0
M  V30 2910 C 285.931 4.07409 -1.31155 0
M  V30 2911 C 285.257 5.30762 -0.64778 0
M  V30 2912 C 286.557 4.48665 -2.67388 0
M  V30 2913 H 288.251 2.41845 -1.76498 0
M  V30 2914 H 285.797 1.16233 -0.850051 0
M  V30 2915 H 287.75 4.21241 -0.115645 0
M  V30 2916 H 286.474 3.2075 0.615381 0
M  V30 2917 H 285.133 3.33919 -1.51306 0
M  V30 2918 H 284.781 5.02078 0.304398 0
M  V30 2919 H 284.481 5.72992 -1.30207 0
M  V30 2920 H 286.005 6.08998 -0.441972 0
M  V30 2921 H 287.419 5.15364 -2.51143 0
M  V30 2922 H 285.816 5.01814 -3.29093 0
M  V30 2923 H 286.886 3.60543 -3.24248 0
M  V30 2924 N 288.23 0.939286 1.26551 0
M  V30 2925 C 289.476 0.586715 1.94128 0
M  V30 2926 C 289.809 -0.8717 1.73537 0
M  V30 2927 O 289.084 -1.62339 1.07127 0
M  V30 2928 C 289.367 0.927497 3.4795 0
M  V30 2929 C 289.22 2.44052 3.77834 0
M  V30 2930 C 290.539 0.441569 4.37879 0
M  V30 2931 H 287.658 0.21463 0.705055 0
M  V30 2932 H 290.3 1.17316 1.49455 0
M  V30 2933 H 288.45 0.428431 3.8613 0
M  V30 2934 H 290.122 3.01216 3.4938 0
M  V30 2935 H 288.365 2.8848 3.23978 0
M  V30 2936 H 289.036 2.62947 4.85348 0
M  V30 2937 H 291.512 0.869448 4.06915 0
M  V30 2938 H 290.388 0.708856 5.44304 0
M  V30 2939 H 290.649 -0.658467 4.37169 0
M  V30 2940 N 289.708 -1.40897 0.706093 0
M  V30 2941 C 290.985 -1.94868 0.169099 0
M  V30 2942 C 291.365 -1.64485 -1.32318 0
M  V30 2943 O 290.713 -0.95744 -2.07474 0
M  V30 2944 C 290.923 -3.45798 0.471654 0
M  V30 2945 C 292.271 -4.22663 0.405127 0
M  V30 2946 O 293.295 -3.53865 0.407168 0
M  V30 2947 O 292.154 -5.45216 0.374383 0
M  V30 2948 H 289.248 -0.82673 0.0211352 0
M  V30 2949 H 291.794 -1.50558 0.782976 0
M  V30 2950 H 290.566 -3.61235 1.50416 0
M  V30 2951 H 290.189 -3.97225 -0.172666 0
M  V30 2952 N 291.186 -0.45159 -1.50991 0
M  V30 2953 C 292.463 0.170707 -1.94854 0
M  V30 2954 C 292.843 1.58788 -1.39103 0
M  V30 2955 O 292.191 2.20913 -0.583921 0
M  V30 2956 C 292.401 0.133929 -3.48743 0
M  V30 2957 C 293.749 0.33248 -4.23296 0
M  V30 2958 O 294.773 0.211403 -3.55572 0
M  V30 2959 O 293.632 0.57486 -5.43468 0
M  V30 2960 H 290.726 0.122264 -0.817912 0
M  V30 2961 H 293.272 -0.510594 -1.61836 0
M  V30 2962 H 292.044 -0.856283 -3.81816 0
M  V30 2963 H 291.667 0.857529 -3.88242 0
M  V30 2964 N 292.664 1.56529 -0.183458 0
M  V30 2965 C 293.594 2.21549 0.737456 0
M  V30 2966 C 294.575 1.17489 1.23005 0
M  V30 2967 O 295.76 1.45959 1.281 0
M  V30 2968 C 292.89 2.86575 1.96194 0
M  V30 2969 C 291.844 3.96778 1.60473 0
M  V30 2970 C 291.17 4.48911 2.90487 0
M  V30 2971 C 292.47 5.15767 0.823497 0
M  V30 2972 H 294.164 2.98761 0.195453 0
M  V30 2973 H 291.71 1.43702 0.0925686 0
M  V30 2974 H 293.663 3.30739 2.61131 0
M  V30 2975 H 292.387 2.06749 2.52828 0
M  V30 2976 H 291.046 3.53286 0.978997 0
M  V30 2977 H 290.694 3.65862 3.45186 0
M  V30 2978 H 290.394 5.23265 2.67335 0
M  V30 2979 H 291.918 4.95771 3.56432 0
M  V30 2980 H 293.332 5.56549 1.37571 0
M  V30 2981 H 291.729 5.96114 0.690551 0
M  V30 2982 H 292.799 4.84574 -0.177782 0
M  V30 2983 N 294.142 -0.090211 1.57342 0
M  V30 2984 C 295.553 -0.644173 1.75235 0
M  V30 2985 C 295.904 -1.78865 0.806335 0
M  V30 2986 O 295.029 -2.16395 -0.0140128 0
M  V30 2987 C 295.624 -1.17532 3.1776 0
M  V30 2988 C 294.183 -1.67531 3.37061 0
M  V30 2989 C 293.33 -0.58693 2.71017 0
M  V30 2990 H 296.281 0.135884 1.58117 0
M  V30 2991 H 296.302 -2.04455 3.20902 0
M  V30 2992 H 295.814 -0.342138 3.86589 0
M  V30 2993 H 293.915 -2.53234 2.73319 0
M  V30 2994 H 294.028 -1.76493 4.45406 0
M  V30 2995 H 292.392 -1.02756 2.33052 0
M  V30 2996 H 293.175 0.235758 3.4249 0
M  V30 2997 N 295.62 -1.53406 -0.361157 0
M  V30 2998 C 296.868 -1.69467 -1.10115 0
M  V30 2999 C 297.189 -0.451352 -1.89705 0
M  V30 3000 O 296.459 0.534636 -1.88463 0
M  V30 3001 H 295.039 -0.624749 -0.409508 0
M  V30 3002 H 297.701 -1.90609 -0.406699 0
M  V30 3003 H 296.797 -2.55774 -1.78847 0
M  V30 3004 N 297.098 0.621204 -1.44841 0
M  V30 3005 C 298.061 1.71459 -1.521 0
M  V30 3006 C 299.061 1.55696 -0.401933 0
M  V30 3007 O 300.251 1.61011 -0.664925 0
M  V30 3008 C 297.383 3.10624 -1.40447 0
M  V30 3009 H 298.576 1.66394 -2.49506 0
M  V30 3010 H 296.129 0.835745 -1.3208 0
M  V30 3011 H 296.864 3.21277 -0.441737 0
M  V30 3012 H 296.649 3.23473 -2.21602 0
M  V30 3013 H 298.139 3.90293 -1.4853 0
M  V30 3014 N 298.576 1.31904 0.862503 0
M  V30 3015 C 299.486 1.22161 2.00285 0
M  V30 3016 C 300.502 0.136785 1.73462 0
M  V30 3017 O 301.678 0.355994 1.98229 0
M  V30 3018 C 298.743 0.937093 3.33796 0
M  V30 3019 C 297.804 2.10957 3.73893 0
M  V30 3020 C 297.037 1.83853 5.01033 0
M  V30 3021 O 297.26 0.777274 5.65079 0
M  V30 3022 O 296.194 2.69741 5.38074 0
M  V30 3023 H 300.02 2.18008 2.11439 0
M  V30 3024 H 297.605 1.11716 0.991957 0
M  V30 3025 H 299.487 0.794583 4.13841 0
M  V30 3026 H 298.162 0.00871894 3.23699 0
M  V30 3027 H 297.069 2.30752 2.94456 0
M  V30 3028 H 298.402 3.02046 3.88625 0
M  V30 3029 N 300.054 -1.07777 1.14986 0
M  V30 3030 C 300.964 -2.18404 0.856546 0
M  V30 3031 C 301.98 -1.73211 -0.165485 0
M  V30 3032 O 303.156 -2.01399 0.00755219 0
M  V30 3033 C 300.221 -3.44977 0.34526 0
M  V30 3034 C 299.282 -4.0476 1.43065 0
M  V30 3035 C 298.515 -5.25291 0.943663 0
M  V30 3036 O 298.738 -5.70004 -0.212426 0
M  V30 3037 O 297.672 -5.76638 1.72547 0
M  V30 3038 H 301.498 -2.45978 1.78125 0
M  V30 3039 H 299.083 -1.17033 0.928631 0
M  V30 3040 H 300.965 -4.21348 0.0663671 0
M  V30 3041 H 299.64 -3.18965 -0.551631 0
M  V30 3042 H 298.547 -3.29949 1.76309 0
M  V30 3043 H 299.88 -4.35035 2.30229 0
M  V30 3044 N 301.532 -0.945985 -1.26051 0
M  V30 3045 C 302.495 -0.463897 -2.24456 0
M  V30 3046 C 303.495 0.427655 -1.55009 0
M  V30 3047 O 304.685 0.226157 -1.72726 0
M  V30 3048 C 301.817 0.330812 -3.39291 0
M  V30 3049 H 303.01 -1.33357 -2.68619 0
M  V30 3050 H 300.563 -0.728416 -1.38289 0
M  V30 3051 H 301.298 1.21852 -3.00537 0
M  V30 3052 H 301.083 -0.308679 -3.90883 0
M  V30 3053 H 302.573 0.657865 -4.12386 0
M  V30 3054 N 303.011 1.40521 -0.713556 0
M  V30 3055 C 303.944 2.28198 -0.00881422 0
M  V30 3056 C 304.922 1.43227 0.769735 0
M  V30 3057 O 306.106 1.72641 0.756799 0
M  V30 3058 C 303.233 3.23758 0.994899 0
M  V30 3059 C 302.279 4.25391 0.3074 0
M  V30 3060 S 303.112 5.26765 -0.963247 0
M  V30 3061 C 304.268 6.25888 0.0384143 0
M  V30 3062 H 304.501 2.87622 -0.752407 0
M  V30 3063 H 302.034 1.45925 -0.504502 0
M  V30 3064 H 303.992 3.79341 1.56879 0
M  V30 3065 H 302.653 2.63396 1.71118 0
M  V30 3066 H 301.846 4.92596 1.0661 0
M  V30 3067 H 301.448 3.73497 -0.193879 0
M  V30 3068 H 303.74 6.71683 0.885912 0
M  V30 3069 H 304.683 7.05552 -0.60019 0
M  V30 3070 H 305.091 5.63072 0.401233 0
M  V30 3071 N 304.489 0.459591 1.5075 0
M  V30 3072 C 305.714 -0.0996819 2.0716 0
M  V30 3073 C 306.139 -1.33761 1.32249 0
M  V30 3074 O 305.497 -1.77551 0.366786 0
M  V30 3075 C 305.545 -0.378226 3.58611 0
M  V30 3076 O 304.649 -1.46081 3.85661 0
M  V30 3077 H 303.99 0.00791392 0.663953 0
M  V30 3078 H 306.52 0.647329 1.9409 0
M  V30 3079 H 306.53 -0.622135 4.03229 0
M  V30 3080 H 305.205 0.526439 4.12555 0
M  V30 3081 H 303.782 -1.20511 3.5289 0
M  V30 3082 N 305.967 -1.56429 0.191757 0
M  V30 3083 C 306.899 -2.16154 -0.762245 0
M  V30 3084 C 307.912 -1.12247 -1.17917 0
M  V30 3085 O 309.101 -1.39353 -1.11548 0
M  V30 3086 C 306.201 -2.70606 -2.04024 0
M  V30 3087 C 305.374 -3.99381 -1.78364 0
M  V30 3088 C 304.433 -4.38692 -2.90578 0
M  V30 3089 O 303.459 -5.06179 -2.6033 0
M  V30 3090 N 304.661 -4.01922 -4.18854 0
M  V30 3091 H 307.426 -2.98643 -0.251526 0
M  V30 3092 H 304.987 -1.61897 0.00967373 0
M  V30 3093 H 306.979 -2.93891 -2.78227 0
M  V30 3094 H 305.549 -1.9259 -2.46227 0
M  V30 3095 H 304.769 -3.84262 -0.879581 0
M  V30 3096 H 306.057 -4.83445 -1.58614 0
M  V30 3097 H 305.455 -3.47631 -4.46283 0
M  V30 3098 H 304.012 -4.30165 -4.89695 0
M  V30 3099 N 307.445 0.0818655 -1.57387 0
M  V30 3100 C 308.861 0.436412 -1.53517 0
M  V30 3101 C 309.061 1.79758 -0.910459 0
M  V30 3102 O 308.117 2.47324 -0.508636 0
M  V30 3103 C 309.43 0.386734 -2.98203 0
M  V30 3104 C 310.978 0.467644 -3.09487 0
M  V30 3105 C 311.453 0.447978 -4.55804 0
M  V30 3106 N 312.944 0.508348 -4.60402 0
M  V30 3107 C 313.679 0.515184 -5.71081 0
M  V30 3108 N 313.175 0.477435 -6.91153 0
M  V30 3109 N 314.968 0.560988 -5.59294 0
M  V30 3110 H 307.119 -0.809546 -1.96367 0
M  V30 3111 H 309.382 -0.302733 -0.898363 0
M  V30 3112 H 309.088 -0.546539 -3.47427 0
M  V30 3113 H 308.962 1.20075 -3.57578 0
M  V30 3114 H 311.349 1.39134 -2.60242 0
M  V30 3115 H 311.43 -0.374753 -2.5304 0
M  V30 3116 H 311.074 -0.471826 -5.05704 0
M  V30 3117 H 311.004 1.30777 -5.10103 0
M  V30 3118 H 313.495 0.54218 -3.7399 0
M  V30 3119 H 313.808 0.486299 -7.71268 0
M  V30 3120 H 312.153 0.444278 -6.93579 0
M  V30 3121 H 315.344 0.5881 -4.64391 0
M  V30 3122 H 315.517 0.562846 -6.45551 0
M  V30 3123 N 308.923 1.53595 0.353017 0
M  V30 3124 C 310.151 1.74311 1.1146 0
M  V30 3125 C 310.566 0.477854 1.82653 0
M  V30 3126 O 309.923 -0.549977 1.74016 0
M  V30 3127 C 309.974 2.91694 2.13534 0
M  V30 3128 O 309.695 4.13325 1.45238 0
M  V30 3129 C 311.196 3.24384 3.02142 0
M  V30 3130 H 308.416 0.582669 0.332773 0
M  V30 3131 H 310.96 2.00386 0.408107 0
M  V30 3132 H 309.115 2.67977 2.79763 0
M  V30 3133 H 309.529 4.79148 2.13349 0
M  V30 3134 H 311.003 4.09893 3.69718 0
M  V30 3135 H 311.48 2.40282 3.67643 0
M  V30 3136 H 312.086 3.50073 2.41514 0
M  V30 3137 N 310.401 -0.613514 1.45168 0
M  V30 3138 C 311.348 -1.72456 1.53387 0
M  V30 3139 C 312.318 -1.6169 0.380191 0
M  V30 3140 O 313.503 -1.81356 0.592836 0
M  V30 3141 C 310.643 -3.10753 1.50088 0
M  V30 3142 C 309.756 -3.32368 2.75963 0
M  V30 3143 C 308.891 -4.60737 2.64376 0
M  V30 3144 C 307.93 -4.7559 3.85332 0
M  V30 3145 N 307.067 -5.95253 3.72315 0
M  V30 3146 H 311.907 -1.64768 2.48305 0
M  V30 3147 H 309.444 -0.803503 1.23216 0
M  V30 3148 H 311.402 -3.90758 1.46164 0
M  V30 3149 H 310.032 -3.17413 0.587243 0
M  V30 3150 H 309.084 -2.4618 2.89999 0
M  V30 3151 H 310.396 -3.39218 3.65695 0
M  V30 3152 H 309.55 -5.48928 2.58385 0
M  V30 3153 H 308.289 -4.56275 1.72233 0
M  V30 3154 H 307.294 -3.85824 3.91688 0
M  V30 3155 H 308.519 -4.81854 4.78533 0
M  V30 3156 H 306.465 -5.91847 2.82937 0
M  V30 3157 H 306.382 -6.03236 4.55677 0
M  V30 3158 H 307.65 -6.85958 3.70246 0
M  V30 3159 N 311.879 -1.3236 -0.855495 0
M  V30 3160 C 313.107 -1.2587 -1.64208 0
M  V30 3161 C 313.522 0.173457 -1.88002 0
M  V30 3162 O 312.879 1.11027 -1.44842 0
M  V30 3163 C 312.93 -2.01424 -3.00184 0
M  V30 3164 O 312.651 -3.39051 -2.77445 0
M  V30 3165 C 314.152 -2.01948 -3.94629 0
M  V30 3166 H 311.372 -0.434318 -0.511477 0
M  V30 3167 H 313.916 -1.74469 -1.0668 0
M  V30 3168 H 312.071 -1.56549 -3.5436 0
M  V30 3169 H 312.485 -3.77711 -3.63916 0
M  V30 3170 H 313.959 -2.59297 -4.87308 0
M  V30 3171 H 314.436 -1.00554 -4.27534 0
M  V30 3172 H 315.042 -2.46767 -3.4639 0
M  V30 3173 N 313.357 1.07166 -1.15556 0
M  V30 3174 C 314.768 1.6127 -0.940693 0
M  V30 3175 C 315.119 1.89251 0.517551 0
M  V30 3176 O 314.244 1.65937 1.38903 0
M  V30 3177 C 314.839 2.92993 -1.7012 0
M  V30 3178 C 313.398 3.43832 -1.53156 0
M  V30 3179 C 312.545 2.1786 -1.71558 0
M  V30 3180 H 315.496 0.90229 -1.30554 0
M  V30 3181 H 315.517 3.62007 -1.17181 0
M  V30 3182 H 315.029 2.72596 -2.76248 0
M  V30 3183 H 313.13 3.69307 -0.494294 0
M  V30 3184 H 313.243 4.19747 -2.30975 0
M  V30 3185 H 311.607 2.2765 -1.14225 0
M  V30 3186 H 312.39 1.99956 -2.79056 0
M  V30 3187 N 314.835 0.952656 1.25548 0
M  V30 3188 C 315.768 0.415525 2.24385 0
M  V30 3189 C 316.746 -0.502046 1.54655 0
M  V30 3190 O 317.93 -0.436875 1.83368 0
M  V30 3191 C 315.057 -0.401734 3.36309 0
M  V30 3192 C 314.103 0.455949 4.24056 0
M  V30 3193 S 314.936 1.88698 5.01152 0
M  V30 3194 C 316.092 1.07809 6.16545 0
M  V30 3195 H 316.325 1.25315 2.69599 0
M  V30 3196 H 313.858 0.756587 1.34592 0
M  V30 3197 H 315.816 -0.867329 4.01233 0
M  V30 3198 H 314.477 -1.21416 2.89684 0
M  V30 3199 H 313.67 -0.170776 5.03711 0
M  V30 3200 H 313.272 0.856675 3.64056 0
M  V30 3201 H 315.564 0.325816 6.76716 0
M  V30 3202 H 316.507 1.84849 6.83547 0
M  V30 3203 H 316.915 0.60909 5.61204 0
M  V30 3204 N 316.313 -1.40141 0.720998 0
M  V30 3205 C 317.561 -2.0039 0.262323 0
M  V30 3206 C 317.882 -1.57469 -1.15015 0
M  V30 3207 O 317.152 -0.816582 -1.78069 0
M  V30 3208 H 315.732 -0.741063 0.093996 0
M  V30 3209 H 318.394 -1.71398 0.927835 0
M  V30 3210 H 317.49 -3.10658 0.299671 0
M  V30 3211 N 317.792 -0.46758 -1.50504 0
M  V30 3212 C 318.742 0.34698 -2.25344 0
M  V30 3213 C 319.726 0.964469 -1.2879 0
M  V30 3214 O 320.918 0.8776 -1.53711 0
M  V30 3215 C 318.047 1.43042 -3.1208 0
M  V30 3216 C 317.133 0.82084 -4.16081 0
M  V30 3217 N 317.524 -0.0567602 -5.05768 0
M  V30 3218 C 315.822 1.08517 -4.32597 0
M  V30 3219 C 316.523 -0.402343 -5.80307 0
M  V30 3220 N 315.499 0.221607 -5.43148 0
M  V30 3221 H 319.301 -0.329129 -2.92051 0
M  V30 3222 H 316.815 -0.281508 -1.59942 0
M  V30 3223 H 318.812 2.02712 -3.64299 0
M  V30 3224 H 317.472 2.10856 -2.46921 0
M  V30 3225 H 318.483 -0.425349 -5.1615 0
M  V30 3226 H 315.16 1.75855 -3.78657 0
M  V30 3227 H 316.55 -1.11834 -6.62528 0
M  V30 3228 N 319.27 1.56325 -0.20005 0
M  V30 3229 C 320.519 1.96895 0.437652 0
M  V30 3230 C 320.832 1.08999 1.62415 0
M  V30 3231 O 322.038 1.39372 2.32997 0
M  V30 3232 C 320.494 3.50198 0.830025 0
M  V30 3233 C 320.102 4.46765 -0.332461 0
M  V30 3234 C 321.846 3.99526 1.43453 0
M  V30 3235 C 319.753 5.91344 0.0811468 0
M  V30 3236 H 318.683 0.735209 0.167282 0
M  V30 3237 H 321.334 1.81148 -0.292853 0
M  V30 3238 H 319.716 3.61467 1.61734 0
M  V30 3239 H 320.89 4.47231 -1.11 0
M  V30 3240 H 319.205 4.07657 -0.848789 0
M  V30 3241 H 321.802 5.05025 1.75652 0
M  V30 3242 H 322.145 3.44122 2.34277 0
M  V30 3243 H 322.678 3.91393 0.71109 0
M  V30 3244 H 319.417 6.50685 -0.793033 0
M  V30 3245 H 318.937 5.94121 0.823445 0
M  V30 3246 H 320.616 6.44945 0.515252 0
M  V30 3247 N 320.748 -0.0735177 1.57428 0
M  V30 3248 C 321.996 -0.771472 1.86796 0
M  V30 3249 C 322.317 -1.78201 0.791804 0
M  V30 3250 O 321.587 -1.95074 -0.179718 0
M  V30 3251 H 320.167 -0.28791 0.689287 0
M  V30 3252 H 322.829 -0.0500161 1.94836 0
M  V30 3253 H 321.925 -1.28874 2.8425 0
M  V30 3254 N 322.226 -1.5378 -0.344866 0
M  V30 3255 C 323.136 -1.84667 -1.4469 0
M  V30 3256 C 324.152 -0.736704 -1.57635 0
M  V30 3257 O 325.328 -1.02888 -1.73136 0
M  V30 3258 C 322.393 -2.04869 -2.79696 0
M  V30 3259 C 321.454 -3.28731 -2.76106 0
M  V30 3260 C 320.687 -3.4796 -4.04673 0
M  V30 3261 O 320.91 -2.71052 -5.01883 0
M  V30 3262 O 319.844 -4.41383 -4.09224 0
M  V30 3263 H 323.67 -2.78334 -1.21506 0
M  V30 3264 H 321.255 -1.39418 -0.536921 0
M  V30 3265 H 323.137 -2.19609 -3.59652 0
M  V30 3266 H 321.812 -1.14391 -3.02814 0
M  V30 3267 H 320.719 -3.19396 -1.94774 0
M  V30 3268 H 322.052 -4.19198 -2.57941 0
M  V30 3269 N 323.704 0.605807 -1.45491 0
M  V30 3270 C 325.115 1.18777 -1.44045 0
M  V30 3271 C 325.466 1.95471 -0.169001 0
M  V30 3272 O 324.591 2.0374 0.729324 0
M  V30 3273 C 325.186 2.16064 -2.60963 0
M  V30 3274 C 323.745 2.69633 -2.62631 0
M  V30 3275 C 322.892 1.45072 -2.36325 0
M  V30 3276 H 325.843 0.395017 -1.53705 0
M  V30 3277 H 325.864 2.9913 -2.35163 0
M  V30 3278 H 325.376 1.60217 -3.53486 0
M  V30 3279 H 323.477 3.29414 -1.74119 0
M  V30 3280 H 323.59 3.13944 -3.61906 0
M  V30 3281 H 321.954 1.74089 -1.85917 0
M  V30 3282 H 322.737 0.910899 -3.30995 0
M  V30 3283 N 325.182 1.32811 0.848464 0
M  V30 3284 C 326.13 1.22231 1.97895 0
M  V30 3285 C 327.124 0.125749 1.68933 0
M  V30 3286 O 328.33 0.289083 1.77663 0
M  V30 3287 H 324.705 0.379058 0.649476 0
M  V30 3288 H 326.676 2.17828 2.03945 0
M  V30 3289 C 325.425 0.968572 3.33937 0
M  V30 3290 H 324.748 1.80458 3.56756 0
M  V30 3291 H 326.188 0.934808 4.13567 0
M  V30 3292 C 324.647 -0.328628 3.35293 0
M  V30 3293 O 325.177 -1.33848 3.78745 0
M  V30 3294 N 323.383 -0.352788 2.88451 0
M  V30 3295 H 322.93 0.469541 2.53285 0
M  V30 3296 H 322.888 -1.22057 2.89741 0
M  V30 3297 N 326.66 -1.06551 1.16123 0
M  V30 3298 C 327.937 -1.76097 0.85142 0
M  V30 3299 C 328.317 -2.00802 -0.6513 0
M  V30 3300 O 327.665 -1.63302 -1.59827 0
M  V30 3301 C 327.875 -3.06384 1.67122 0
M  V30 3302 C 329.223 -3.80585 1.88255 0
M  V30 3303 O 330.247 -3.16218 1.63966 0
M  V30 3304 O 329.106 -4.96212 2.2899 0
M  V30 3305 H 326.2 -0.765102 0.313923 0
M  V30 3306 H 328.746 -1.12844 1.26745 0
M  V30 3307 H 327.518 -2.84071 2.69108 0
M  V30 3308 H 327.141 -3.77371 1.25206 0
M  V30 3309 N 328.138 -0.959301 -1.25041 0
M  V30 3310 C 329.387 -0.612254 -1.92183 0
M  V30 3311 C 329.7 0.855347 -1.75907 0
M  V30 3312 O 330.906 1.31256 -2.37664 0
M  V30 3313 C 329.362 -1.04435 -3.44414 0
M  V30 3314 C 328.97 -2.53482 -3.69393 0
M  V30 3315 C 330.714 -0.770055 -4.17457 0
M  V30 3316 C 328.621 -2.90468 -5.15153 0
M  V30 3317 H 327.551 -0.225279 -0.719559 0
M  V30 3318 H 330.202 -1.16438 -1.41825 0
M  V30 3319 H 328.584 -0.4206 -3.9376 0
M  V30 3320 H 329.758 -3.20916 -3.30681 0
M  V30 3321 H 328.073 -2.78432 -3.0962 0
M  V30 3322 H 330.67 -1.02249 -5.24832 0
M  V30 3323 H 331.013 0.293611 -4.15263 0
M  V30 3324 H 331.546 -1.35437 -3.74034 0
M  V30 3325 H 328.285 -3.95871 -5.22462 0
M  V30 3326 H 327.805 -2.27711 -5.54894 0
M  V30 3327 H 329.484 -2.79914 -5.83315 0
M  V30 3328 N 329.616 1.39756 -0.72842 0
M  V30 3329 C 330.579 2.29012 -0.0927297 0
M  V30 3330 C 331.579 1.45992 0.674025 0
M  V30 3331 O 332.769 1.66749 0.50402 0
M  V30 3332 C 329.901 3.29396 0.878137 0
M  V30 3333 H 331.094 2.86729 -0.879011 0
M  V30 3334 H 328.647 1.48293 -0.493847 0
M  V30 3335 H 329.382 2.76722 1.69101 0
M  V30 3336 H 329.167 3.907 0.331051 0
M  V30 3337 H 330.657 3.96199 1.3197 0
M  V30 3338 N 331.094 0.475555 1.50254 0
M  V30 3339 C 332.324 -0.0753399 2.06463 0
M  V30 3340 C 332.732 -1.33661 1.33908 0
M  V30 3341 O 332.075 -1.79219 0.403257 0
M  V30 3342 C 332.137 -0.424921 3.5698 0
M  V30 3343 C 331.801 0.734965 4.51051 0
M  V30 3344 C 332.798 1.61827 4.94073 0
M  V30 3345 C 330.483 0.926557 4.9368 0
M  V30 3346 C 332.477 2.67754 5.78434 0
M  V30 3347 C 330.164 1.98904 5.77824 0
M  V30 3348 C 331.162 2.8629 6.20103 0
M  V30 3349 O 330.85 3.90708 7.02568 0
M  V30 3350 H 330.582 0.00576308 0.675975 0
M  V30 3351 H 333.136 0.664662 1.94349 0
M  V30 3352 H 331.366 -1.21817 3.67012 0
M  V30 3353 H 333.055 -0.911422 3.95535 0
M  V30 3354 H 333.821 1.48196 4.61804 0
M  V30 3355 H 329.7 0.25584 4.6029 0
M  V30 3356 H 333.244 3.35992 6.11355 0
M  V30 3357 H 329.141 2.12541 6.09505 0
M  V30 3358 H 329.909 3.87751 7.20827 0
M  V30 3359 N 332.573 -1.56217 0.208337 0
M  V30 3360 C 333.822 -1.97124 -0.427204 0
M  V30 3361 C 334.135 -1.09859 -1.61835 0
M  V30 3362 O 335.341 -1.40606 -2.32255 0
M  V30 3363 C 333.797 -3.50633 -0.811442 0
M  V30 3364 C 333.405 -4.46582 0.35615 0
M  V30 3365 C 335.149 -4.00282 -1.41332 0
M  V30 3366 C 333.056 -5.91379 -0.0497852 0
M  V30 3367 H 331.986 -0.736086 -0.163381 0
M  V30 3368 H 334.637 -1.8099 0.302456 0
M  V30 3369 H 333.019 -3.62319 -1.59815 0
M  V30 3370 H 334.193 -4.46636 1.1337 0
M  V30 3371 H 332.508 -4.07202 0.870396 0
M  V30 3372 H 335.105 -5.0595 -1.72972 0
M  V30 3373 H 335.448 -3.45359 -2.32449 0
M  V30 3374 H 335.981 -3.91764 -0.690323 0
M  V30 3375 H 332.72 -6.50255 0.827529 0
M  V30 3376 H 332.24 -5.94549 -0.791926 0
M  V30 3377 H 333.919 -6.45209 -0.481042 0
M  V30 3378 N 334.051 0.0651679 -1.57465 0
M  V30 3379 C 335.291 0.768329 -1.8941 0
M  V30 3380 C 335.655 1.74406 -0.802894 0
M  V30 3381 O 336.856 2.49281 -1.0056 0
M  V30 3382 C 335.127 1.45199 -3.26576 0
M  V30 3383 S 336.686 2.1893 -3.80283 0
M  V30 3384 H 333.504 0.255359 -0.663561 0
M  V30 3385 H 336.106 0.024167 -1.95485 0
M  V30 3386 H 334.81 0.728123 -4.03889 0
M  V30 3387 H 334.341 2.23545 -3.23715 0
M  V30 3388 H 336.356 3.45551 -3.56102 0
M  V30 3389 N 335.529 1.53961 0.336706 0
M  V30 3390 C 336.775 1.7179 1.07777 0
M  V30 3391 C 337.108 0.483263 1.88091 0
M  V30 3392 O 336.383 -0.519747 1.87427 0
M  V30 3393 C 336.666 2.98558 2.01334 0
M  V30 3394 C 336.519 4.32245 1.24437 0
M  V30 3395 C 337.838 3.21023 3.01052 0
M  V30 3396 H 334.957 0.625089 0.390426 0
M  V30 3397 H 337.599 1.86641 0.35567 0
M  V30 3398 H 335.749 2.86028 2.62908 0
M  V30 3399 H 337.421 4.56637 0.654243 0
M  V30 3400 H 335.664 4.30344 0.546458 0
M  V30 3401 H 336.335 5.17137 1.93063 0
M  V30 3402 H 338.811 3.32929 2.49595 0
M  V30 3403 H 337.687 4.11104 3.6371 0
M  V30 3404 H 337.948 2.37637 3.72802 0
M  V30 3405 N 337.007 -0.598083 1.45811 0
M  V30 3406 C 338.237 -1.38121 1.53643 0
M  V30 3407 C 338.645 -1.88425 0.171081 0
M  V30 3408 O 337.988 -1.63409 -0.839237 0
M  V30 3409 C 338.05 -2.61432 2.46766 0
M  V30 3410 C 337.714 -2.32702 3.93318 0
M  V30 3411 C 338.711 -1.92479 4.82957 0
M  V30 3412 C 336.396 -2.45321 4.38318 0
M  V30 3413 C 338.39 -1.65248 6.15607 0
M  V30 3414 C 336.077 -2.17703 5.71007 0
M  V30 3415 C 337.075 -1.7773 6.5947 0
M  V30 3416 O 336.763 -1.50441 7.89698 0
M  V30 3417 H 336.495 -0.428863 0.522544 0
M  V30 3418 H 339.049 -0.73557 1.91777 0
M  V30 3419 H 337.279 -3.28749 2.0362 0
M  V30 3420 H 338.968 -3.23487 2.45175 0
M  V30 3421 H 339.734 -1.82258 4.49452 0
M  V30 3422 H 335.613 -2.75399 3.69697 0
M  V30 3423 H 339.157 -1.33973 6.84614 0
M  V30 3424 H 335.054 -2.27544 6.04065 0
M  V30 3425 H 335.822 -1.64415 8.01817 0
M  V30 3426 N 338.485 -1.33259 -0.841409 0
M  V30 3427 C 339.415 -1.25926 -1.96634 0
M  V30 3428 C 340.396 -0.140349 -1.6952 0
M  V30 3429 O 341.581 -0.329707 -1.91381 0
M  V30 3430 C 338.711 -0.99512 -3.32738 0
M  V30 3431 C 337.665 -2.0767 -3.74242 0
M  V30 3432 C 336.991 -1.66474 -5.08125 0
M  V30 3433 C 338.291 -3.49318 -3.88297 0
M  V30 3434 H 339.985 -2.20046 -2.03027 0
M  V30 3435 H 337.531 -1.05931 -0.975425 0
M  V30 3436 H 339.484 -0.930323 -4.11002 0
M  V30 3437 H 338.208 -0.0183004 -3.26595 0
M  V30 3438 H 336.867 -2.13187 -2.98239 0
M  V30 3439 H 336.515 -0.675012 -4.9845 0
M  V30 3440 H 336.215 -2.3885 -5.36865 0
M  V30 3441 H 337.739 -1.61455 -5.88867 0
M  V30 3442 H 339.153 -3.46316 -4.56879 0
M  V30 3443 H 337.55 -4.20158 -4.28471 0
M  V30 3444 H 338.62 -3.8801 -2.9082 0
M  V30 3445 N 339.963 1.05934 -1.16686 0
M  V30 3446 C 340.926 2.11669 -0.879144 0
M  V30 3447 C 341.926 1.60294 0.127445 0
M  V30 3448 O 343.116 1.7389 -0.103865 0
M  V30 3449 C 340.248 3.39438 -0.315425 0
M  V30 3450 H 341.441 2.38626 -1.81653 0
M  V30 3451 H 338.994 1.22058 -0.976299 0
M  V30 3452 H 339.729 3.18132 0.629468 0
M  V30 3453 H 339.514 3.78034 -1.04079 0
M  V30 3454 H 341.004 4.17391 -0.132189 0
M  V30 3455 N 341.441 0.965919 1.2453 0
M  V30 3456 C 342.666 0.643971 1.97149 0
M  V30 3457 C 343.091 -0.779487 1.71189 0
M  V30 3458 O 342.449 -1.5288 0.974553 0
M  V30 3459 C 342.497 0.922557 3.48599 0
M  V30 3460 O 341.601 0.00707672 4.12399 0
M  V30 3461 H 340.942 0.243647 0.617683 0
M  V30 3462 H 343.472 1.29558 1.58353 0
M  V30 3463 H 343.482 0.853373 3.98976 0
M  V30 3464 H 342.157 1.95996 3.66822 0
M  V30 3465 H 340.734 0.12943 3.72675 0
M  V30 3466 N 342.919 -1.39368 0.735821 0
M  V30 3467 C 343.867 -2.32443 0.0855131 0
M  V30 3468 C 344.861 -1.53104 -0.724954 0
M  V30 3469 O 346.067 -1.68762 -0.626047 0
M  V30 3470 H 342.442 -0.751948 0.00885257 0
M  V30 3471 H 344.413 -2.84916 0.886883 0
M  V30 3472 C 343.162 -3.38206 -0.806983 0
M  V30 3473 H 342.485 -3.99335 -0.19274 0
M  V30 3474 H 343.925 -4.05779 -1.2296 0
M  V30 3475 C 342.384 -2.75321 -1.94165 0
M  V30 3476 O 342.914 -2.63231 -3.03435 0
M  V30 3477 N 341.12 -2.33396 -1.73132 0
M  V30 3478 H 340.667 -2.4343 -0.842596 0
M  V30 3479 H 340.625 -1.91661 -2.49225 0
M  V30 3480 N 344.397 -0.483516 -1.5 0
M  V30 3481 C 345.307 0.309172 -2.32554 0
M  V30 3482 C 346.323 0.984159 -1.43493 0
M  V30 3483 O 347.499 0.969399 -1.76535 0
M  V30 3484 C 344.564 1.36979 -3.18493 0
M  V30 3485 C 343.625 0.710095 -4.23387 0
M  V30 3486 C 342.858 1.72018 -5.05218 0
M  V30 3487 O 343.081 2.94813 -4.88305 0
M  V30 3488 O 342.015 1.28515 -5.8802 0
M  V30 3489 H 345.841 -0.366064 -3.01486 0
M  V30 3490 H 343.426 -0.24514 -1.47375 0
M  V30 3491 H 345.308 1.98385 -3.71781 0
M  V30 3492 H 343.983 2.02828 -2.52275 0
M  V30 3493 H 342.89 0.0567539 -3.74057 0
M  V30 3494 H 344.223 0.0943557 -4.9211 0
M  V30 3495 N 345.875 1.56104 -0.216619 0
M  V30 3496 C 347.1 2.0301 0.424462 0
M  V30 3497 C 347.525 1.0955 1.52907 0
M  V30 3498 O 346.883 0.0827914 1.81111 0
M  V30 3499 C 346.931 3.4819 0.937883 0
M  V30 3500 O 346.035 3.57865 2.04955 0
M  V30 3501 H 345.376 0.656925 0.0966755 0
M  V30 3502 H 347.906 2.01859 -0.33381 0
M  V30 3503 H 347.916 3.88413 1.24897 0
M  V30 3504 H 346.591 4.15699 0.129387 0
M  V30 3505 H 345.168 3.29527 1.74546 0
M  V30 3506 N 347.353 -0.0568162 1.57498 0
M  V30 3507 C 348.3 -1.06591 2.04712 0
M  V30 3508 C 349.27 -1.3758 0.930644 0
M  V30 3509 O 350.455 -1.48392 1.19935 0
M  V30 3510 C 347.595 -2.3701 2.50839 0
M  V30 3511 C 346.708 -2.12421 3.76167 0
M  V30 3512 C 345.843 -3.36511 4.11015 0
M  V30 3513 C 344.882 -3.07353 5.2934 0
M  V30 3514 N 344.019 -4.23816 5.59754 0
M  V30 3515 H 348.859 -0.65631 2.90683 0
M  V30 3516 H 346.396 -0.312481 1.43743 0
M  V30 3517 H 348.354 -3.13175 2.7564 0
M  V30 3518 H 346.984 -2.75744 1.67825 0
M  V30 3519 H 346.036 -1.2688 3.58616 0
M  V30 3520 H 347.348 -1.86894 4.62463 0
M  V30 3521 H 346.502 -4.21062 4.36797 0
M  V30 3522 H 345.241 -3.65128 3.23315 0
M  V30 3523 H 344.246 -2.212 5.03339 0
M  V30 3524 H 345.471 -2.80043 6.1867 0
M  V30 3525 H 343.417 -4.52436 4.75014 0
M  V30 3526 H 343.334 -4.01614 6.40501 0
M  V30 3527 H 344.602 -5.0932 5.90096 0
M  V30 3528 N 348.832 -1.54138 -0.328536 0
M  V30 3529 C 350.079 -1.72105 -1.06706 0
M  V30 3530 C 350.407 -0.492111 -1.88171 0
M  V30 3531 O 349.662 0.526153 -1.88494 0
M  V30 3532 C 349.961 -2.9457 -2.02393 0
M  V30 3533 C 349.627 -4.29544 -1.37122 0
M  V30 3534 C 348.289 -4.6624 -1.19052 0
M  V30 3535 C 350.641 -5.1333 -0.902331 0
M  V30 3536 C 347.969 -5.84325 -0.527331 0
M  V30 3537 C 350.321 -6.32094 -0.252988 0
M  V30 3538 C 348.985 -6.67473 -0.0600901 0
M  V30 3539 H 348.255 -0.629775 -0.390466 0
M  V30 3540 H 350.902 -1.88372 -0.34473 0
M  V30 3541 H 349.207 -2.72969 -2.81061 0
M  V30 3542 H 350.904 -3.05665 -2.59557 0
M  V30 3543 H 347.494 -4.0067 -1.52188 0
M  V30 3544 H 351.678 -4.855 -1.02974 0
M  V30 3545 H 346.934 -6.103 -0.366634 0
M  V30 3546 H 351.108 -6.96299 0.118366 0
M  V30 3547 H 348.735 -7.58832 0.455828 0
M  V30 3548 N 350.31 0.590341 -1.46126 0
M  V30 3549 C 351.273 1.68194 -1.55703 0
M  V30 3550 C 352.273 1.54808 -0.434868 0
M  V30 3551 O 353.463 1.59564 -0.698928 0
M  V30 3552 C 350.595 3.07575 -1.47005 0
M  V30 3553 H 351.788 1.61064 -2.52979 0
M  V30 3554 H 349.341 0.807541 -1.33823 0
M  V30 3555 H 350.076 3.20268 -0.509785 0
M  V30 3556 H 349.861 3.187 -2.28414 0
M  V30 3557 H 351.351 3.87055 -1.56776 0
M  V30 3558 N 351.788 1.33704 0.83433 0
M  V30 3559 C 353.016 1.28467 1.62185 0
M  V30 3560 C 353.431 -0.143526 1.88254 0
M  V30 3561 O 352.788 -1.08709 1.4659 0
M  V30 3562 C 352.839 2.06174 2.96942 0
M  V30 3563 O 352.56 3.43422 2.72016 0
M  V30 3564 C 354.061 2.08201 3.91366 0
M  V30 3565 H 351.281 0.4424 0.504503 0
M  V30 3566 H 353.825 1.76145 1.03891 0
M  V30 3567 H 351.98 1.62167 3.51825 0
M  V30 3568 H 352.394 3.83453 3.57861 0
M  V30 3569 H 353.868 2.67017 4.83121 0
M  V30 3570 H 354.345 1.07343 4.2588 0
M  V30 3571 H 354.951 2.52246 3.42421 0
M  V30 3572 N 353.266 -1.05314 1.17247 0
M  V30 3573 C 354.514 -1.77941 0.958194 0
M  V30 3574 C 354.835 -1.88089 -0.514556 0
M  V30 3575 O 354.105 -1.39676 -1.37359 0
M  V30 3576 H 352.685 -0.659116 0.351533 0
M  V30 3577 H 355.347 -1.27166 1.47699 0
M  V30 3578 H 354.443 -2.79663 1.38546 0
M  V30 3579 N 354.744 -0.972509 -1.24016 0
M  V30 3580 C 355.969 -0.654417 -1.96805 0
M  V30 3581 C 356.394 0.770398 -1.716 0
M  V30 3582 O 355.752 1.52361 -0.982647 0
M  V30 3583 C 355.8 -0.941031 -3.48105 0
M  V30 3584 O 354.904 -0.0289472 -4.1239 0
M  V30 3585 H 354.245 -0.24692 -0.616382 0
M  V30 3586 H 356.775 -1.30396 -1.57664 0
M  V30 3587 H 356.785 -0.87452 -3.98517 0
M  V30 3588 H 355.46 -1.97939 -3.65777 0
M  V30 3589 H 354.037 -0.149192 -3.72601 0
M  V30 3590 N 356.222 1.38976 -0.743202 0
M  V30 3591 C 357.132 2.3434 -0.110399 0
M  V30 3592 C 358.148 1.58741 0.712559 0
M  V30 3593 O 359.324 1.9099 0.639125 0
M  V30 3594 C 356.389 3.37812 0.780012 0
M  V30 3595 C 355.45 4.29263 -0.0561319 0
M  V30 3596 C 354.683 5.27793 0.791875 0
M  V30 3597 O 354.906 5.33043 2.03031 0
M  V30 3598 O 353.84 6.01512 0.216183 0
M  V30 3599 H 357.666 2.90129 -0.897714 0
M  V30 3600 H 355.251 1.40643 -0.503966 0
M  V30 3601 H 357.133 4.01194 1.28923 0
M  V30 3602 H 355.808 2.84395 1.546 0
M  V30 3603 H 354.715 3.69076 -0.611056 0
M  V30 3604 H 356.048 4.85907 -0.784531 0
M  V30 3605 N 357.7 0.491464 1.49741 0
M  V30 3606 C 358.947 -0.0564256 2.02421 0
M  V30 3607 C 359.275 -1.37872 1.37192 0
M  V30 3608 O 358.53 -1.89375 0.493508 0
M  V30 3609 C 358.829 -0.267329 3.56399 0
M  V30 3610 C 358.495 0.975775 4.40215 0
M  V30 3611 C 357.157 1.31655 4.62839 0
M  V30 3612 C 359.509 1.80251 4.89039 0
M  V30 3613 C 356.837 2.48375 5.31532 0
M  V30 3614 C 359.189 2.96116 5.59015 0
M  V30 3615 C 357.853 3.30585 5.79888 0
M  V30 3616 H 357.123 -0.0206476 0.740712 0
M  V30 3617 H 359.77 0.649686 1.80143 0
M  V30 3618 H 358.075 -1.05588 3.77304 0
M  V30 3619 H 359.772 -0.705549 3.94744 0
M  V30 3620 H 356.362 0.700315 4.2284 0
M  V30 3621 H 360.546 1.55239 4.71396 0
M  V30 3622 H 355.802 2.7533 5.45897 0
M  V30 3623 H 359.976 3.60509 5.95824 0
M  V30 3624 H 357.603 4.21132 6.32892 0
M  V30 3625 N 359.178 -1.55987 0.224894 0
M  V30 3626 C 360.424 -1.98684 -0.406502 0
M  V30 3627 C 360.757 -1.11248 -1.59177 0
M  V30 3628 O 360.032 -0.170909 -1.93748 0
M  V30 3629 C 360.315 -3.50218 -0.837808 0
M  V30 3630 C 360.168 -4.48426 0.351332 0
M  V30 3631 C 361.487 -4.06243 -1.69278 0
M  V30 3632 H 358.606 -0.722337 -0.146283 0
M  V30 3633 H 361.248 -1.87255 0.321799 0
M  V30 3634 H 359.398 -3.60089 -1.45837 0
M  V30 3635 H 361.07 -4.50562 0.989526 0
M  V30 3636 H 359.313 -4.22159 0.998207 0
M  V30 3637 H 359.984 -5.52 0.00655905 0
M  V30 3638 H 362.46 -3.99337 -1.16914 0
M  V30 3639 H 361.336 -5.12581 -1.96346 0
M  V30 3640 H 361.597 -3.53332 -2.65723 0
M  V30 3641 N 360.656 0.0484629 -1.57525 0
M  V30 3642 C 361.902 0.744226 -1.88651 0
M  V30 3643 C 362.235 1.76029 -0.820212 0
M  V30 3644 O 361.51 1.93782 0.166985 0
M  V30 3645 C 361.793 1.43128 -3.30434 0
M  V30 3646 C 361.646 0.43005 -4.47739 0
M  V30 3647 C 362.965 2.37031 -3.70816 0
M  V30 3648 H 360.084 0.269089 -0.68612 0
M  V30 3649 H 362.726 0.00713532 -1.89999 0
M  V30 3650 H 360.876 2.05956 -3.29415 0
M  V30 3651 H 362.548 -0.194816 -4.60888 0
M  V30 3652 H 360.791 -0.252522 -4.33064 0
M  V30 3653 H 361.462 0.948874 -5.43783 0
M  V30 3654 H 363.938 1.84263 -3.73077 0
M  V30 3655 H 362.814 2.82094 -4.70865 0
M  V30 3656 H 363.075 3.22864 -3.02012 0
M  V30 3657 N 362.134 1.5431 0.320358 0
M  V30 3658 C 363.411 1.63322 1.07635 0
M  V30 3659 C 363.791 0.46912 2.05821 0
M  V30 3660 O 363.139 -0.536274 2.22118 0
M  V30 3661 C 363.349 3.00465 1.77544 0
M  V30 3662 C 364.697 3.56621 2.30449 0
M  V30 3663 O 365.721 3.02791 1.87606 0
M  V30 3664 O 364.58 4.5083 3.08892 0
M  V30 3665 H 361.674 0.661502 0.496331 0
M  V30 3666 H 364.22 1.66656 0.319992 0
M  V30 3667 H 362.992 3.76629 1.06143 0
M  V30 3668 H 362.615 3.00824 2.59982 0
M  V30 3669 N 363.613 -0.582584 1.46437 0
M  V30 3670 C 364.861 -1.33814 1.51453 0
M  V30 3671 C 365.182 -1.94277 0.167792 0
M  V30 3672 O 364.452 -1.78566 -0.805677 0
M  V30 3673 H 363.032 -0.496838 0.557818 0
M  V30 3674 H 365.694 -0.682281 1.82568 0
M  V30 3675 H 364.79 -2.14479 2.26728 0
M  V30 3676 N 365.091 -1.34144 -0.827227 0
M  V30 3677 C 366.339 -1.26009 -1.58007 0
M  V30 3678 C 366.66 0.170971 -1.94249 0
M  V30 3679 O 365.93 1.10256 -1.61927 0
M  V30 3680 H 364.51 -0.463414 -0.585881 0
M  V30 3681 H 367.172 -1.68005 -0.987951 0
M  V30 3682 H 366.268 -1.86187 -2.50481 0
M  V30 3683 N 366.569 1.04691 -1.17803 0
M  V30 3684 C 367.799 1.81183 -0.992788 0
M  V30 3685 C 368.207 1.8347 0.462098 0
M  V30 3686 O 367.55 1.2643 1.33271 0
M  V30 3687 C 367.612 3.28363 -1.46349 0
M  V30 3688 C 367.276 3.49749 -2.94151 0
M  V30 3689 C 368.273 3.41456 -3.92051 0
M  V30 3690 C 365.958 3.76548 -3.32441 0
M  V30 3691 C 367.952 3.59656 -5.26238 0
M  V30 3692 C 365.639 3.94396 -4.66792 0
M  V30 3693 C 366.637 3.8595 -5.635 0
M  V30 3694 O 366.325 4.03294 -6.9542 0
M  V30 3695 H 366.057 0.577622 -0.351182 0
M  V30 3696 H 368.611 1.32876 -1.5663 0
M  V30 3697 H 366.841 3.77609 -0.833574 0
M  V30 3698 H 368.53 3.86395 -1.24313 0
M  V30 3699 H 369.296 3.20723 -3.63815 0
M  V30 3700 H 365.175 3.82224 -2.57732 0
M  V30 3701 H 368.719 3.52979 -6.01707 0
M  V30 3702 H 364.616 4.14622 -4.94731 0
M  V30 3703 H 365.384 4.2049 -7.02232 0
M  V30 3704 N 368.047 0.979072 1.23499 0
M  V30 3705 C 369.275 0.665202 1.95915 0
M  V30 3706 C 369.69 -0.767571 1.72493 0
M  V30 3707 O 369.047 -1.51635 1.01554 0
M  V30 3708 C 369.098 0.944438 3.48945 0
M  V30 3709 O 368.819 2.3209 3.71572 0
M  V30 3710 C 370.32 0.646336 4.38563 0
M  V30 3711 H 367.54 0.247218 0.623798 0
M  V30 3712 H 370.084 1.31009 1.57025 0
M  V30 3713 H 368.239 0.345575 3.85856 0
M  V30 3714 H 368.653 2.40957 4.65876 0
M  V30 3715 H 370.127 0.892091 5.44744 0
M  V30 3716 H 370.604 -0.419575 4.37191 0
M  V30 3717 H 371.21 1.22562 4.07258 0
M  V30 3718 N 369.525 -1.3858 0.750561 0
M  V30 3719 C 370.488 -2.28836 0.129152 0
M  V30 3720 C 371.488 -1.47045 -0.650714 0
M  V30 3721 O 372.678 -1.6753 -0.477428 0
M  V30 3722 C 369.81 -3.30751 -0.825622 0
M  V30 3723 H 371.003 -2.85294 0.924516 0
M  V30 3724 H 368.556 -1.47489 0.517376 0
M  V30 3725 H 369.291 -2.79378 -1.64677 0
M  V30 3726 H 369.076 -3.91177 -0.268852 0
M  V30 3727 H 370.566 -3.98249 -1.2565 0
M  V30 3728 N 371.003 -0.499398 -1.49478 0
M  V30 3729 C 371.935 0.316575 -2.27003 0
M  V30 3730 C 372.948 0.932047 -1.33479 0
M  V30 3731 O 374.137 0.815658 -1.58774 0
M  V30 3732 C 371.237 1.46055 -3.05812 0
M  V30 3733 C 370.41 0.952679 -4.26899 0
M  V30 3734 C 369.469 1.97407 -4.87767 0
M  V30 3735 O 368.495 1.54326 -5.4788 0
M  V30 3736 N 369.697 3.30436 -4.77276 0
M  V30 3737 H 372.462 -0.348168 -2.97671 0
M  V30 3738 H 370.023 -0.33185 -1.58463 0
M  V30 3739 H 372.015 2.14135 -3.43407 0
M  V30 3740 H 370.585 2.02948 -2.37762 0
M  V30 3741 H 369.805 0.0968248 -3.94081 0
M  V30 3742 H 371.093 0.59174 -5.05347 0
M  V30 3743 H 370.491 3.68126 -4.29534 0
M  V30 3744 H 369.048 3.94235 -5.19059 0
M  V30 3745 O 372.52 1.5709 -0.374834 0
M  V30 3746 H 373.211 1.9292 0.173648 0
M  V30 END ATOM
M  V30 BEGIN BOND
M  V30 END BOND
M  V30 END CTAB
M  END
$$$$
