drugbank_target|Q84FH6 Chorismate mutase AroH (DB02201; DB03814)
 OpenBabel12092120243D

  0  0  0     0  0            999 V3000
M  V30 BEGIN CTAB
M  V30 COUNTS 1943 1959 0 0 0
M  V30 BEGIN ATOM
M  V30 1 H -0.908 1.98254 -0.117106 0
M  V30 2 N 0 1.576 0 0
M  V30 3 C 0.933 2.03868 1.02534 0
M  V30 4 C 1.911 0.928543 1.3348 0
M  V30 5 O 3.095 1.19667 1.45644 0
M  V30 6 C 0.222 2.43627 2.35294 0
M  V30 7 C -0.732 3.65373 2.2001 0
M  V30 8 S 0.101 5.13292 1.52614 0
M  V30 9 C 1.257 5.56322 2.86805 0
M  V30 10 H 1.49 2.90518 0.631377 0
M  V30 11 H -0.977 1.52953 0.210867 0
M  V30 12 H 0.981 2.67203 3.11629 0
M  V30 13 H -0.358 1.57376 2.7183 0
M  V30 14 H -1.165 3.90944 3.18086 0
M  V30 15 H -1.563 3.418 1.51819 0
M  V30 16 H 0.729 5.58782 3.83104 0
M  V30 17 H 1.672 6.56266 2.65933 0
M  V30 18 H 2.08 4.83886 2.90714 0
M  V30 19 N 1.4781 -0.272755 1.55222 0
M  V30 20 C 2.7241 -1.00581 1.761 0
M  V30 21 C 3.0571 -1.85932 0.560625 0
M  V30 22 O 2.3321 -1.89416 -0.441801 0
M  V30 23 C 2.6151 -1.88816 3.06628 0
M  V30 24 C 2.4681 -1.06457 4.37021 0
M  V30 25 C 3.7871 -2.8752 3.33197 0
M  V30 26 H 0.9061 -0.364244 0.640699 0
M  V30 27 H 3.5481 -0.278189 1.87952 0
M  V30 28 H 1.6981 -2.50856 2.96654 0
M  V30 29 H 3.3701 -0.464863 4.58952 0
M  V30 30 H 1.6131 -0.368043 4.32236 0
M  V30 31 H 2.2841 -1.71514 5.24678 0
M  V30 32 H 4.7601 -2.35615 3.42965 0
M  V30 33 H 3.6361 -3.46399 4.25792 0
M  V30 34 H 3.8971 -3.62657 2.52849 0
M  V30 35 N 2.9562 -1.48159 -0.537278 0
M  V30 36 C 4.3722 -1.34118 -0.865129 0
M  V30 37 C 4.5722 -0.346678 -1.98495 0
M  V30 38 O 3.6282 0.234715 -2.51407 0
M  V30 39 C 4.9412 -2.73963 -1.23954 0
M  V30 40 C 6.4892 -2.82397 -1.34984 0
M  V30 41 C 6.9642 -4.22928 -1.75772 0
M  V30 42 N 8.4552 -4.25566 -1.82887 0
M  V30 43 C 9.1902 -5.31235 -2.15817 0
M  V30 44 N 8.6862 -6.47189 -2.47222 0
M  V30 45 N 10.4792 -5.18624 -2.16761 0
M  V30 46 H 2.6302 -2.1144 0.201715 0
M  V30 47 H 4.8932 -0.947598 0.0275949 0
M  V30 48 H 4.5992 -3.48264 -0.490381 0
M  V30 49 H 4.4732 -3.0702 -2.19132 0
M  V30 50 H 6.8602 -2.08356 -2.08978 0
M  V30 51 H 6.9412 -2.5297 -0.379448 0
M  V30 52 H 6.5852 -4.97482 -1.02341 0
M  V30 53 H 6.5152 -4.49794 -2.73848 0
M  V30 54 H 9.0062 -3.41924 -1.60924 0
M  V30 55 H 9.3192 -7.23564 -2.71433 0
M  V30 56 H 7.6642 -6.50476 -2.44757 0
M  V30 57 H 10.8552 -4.27056 -1.91679 0
M  V30 58 H 11.0282 -6.01078 -2.42093 0
M  V30 59 N 4.4343 0.785586 -1.36625 0
M  V30 60 C 5.6823 1.54057 -1.30808 0
M  V30 61 C 6.0033 1.94683 0.111157 0
M  V30 62 O 5.2733 1.65241 1.05224 0
M  V30 63 H 3.8533 0.571354 -0.481211 0
M  V30 64 H 6.5153 0.935821 -1.70963 0
M  V30 65 H 5.6113 2.44637 -1.93801 0
M  V30 66 N 5.9124 1.20967 1.01018 0
M  V30 67 C 7.1614 1.01796 1.74128 0
M  V30 68 C 7.4744 -0.449691 1.90361 0
M  V30 69 O 8.6804 -0.76068 2.60626 0
M  V30 70 C 7.1364 1.7727 3.13215 0
M  V30 71 C 6.7444 3.28171 3.04972 0
M  V30 72 C 8.4884 1.66489 3.90489 0
M  V30 73 C 6.3954 3.96156 4.39107 0
M  V30 74 H 5.3254 0.377276 0.652824 0
M  V30 75 H 7.9764 1.44651 1.12909 0
M  V30 76 H 6.3584 1.27205 3.75013 0
M  V30 77 H 7.5324 3.85499 2.52443 0
M  V30 78 H 5.8474 3.39437 2.41188 0
M  V30 79 H 8.4444 2.14617 4.89738 0
M  V30 80 H 8.7874 0.6222 4.11624 0
M  V30 81 H 9.3204 2.14003 3.35332 0
M  V30 82 H 6.0594 5.00604 4.23174 0
M  V30 83 H 5.5794 3.43617 4.91617 0
M  V30 84 H 7.2584 4.00774 5.07926 0
M  V30 85 N 7.3905 -1.2043 1.01659 0
M  V30 86 C 8.8065 -1.41852 0.731442 0
M  V30 87 C 9.0065 -1.89358 -0.688898 0
M  V30 88 O 8.0625 -2.06247 -1.45666 0
M  V30 89 C 9.3755 -2.44019 1.75714 0
M  V30 90 C 10.9235 -2.57785 1.77527 0
M  V30 91 C 11.3985 -3.63194 2.79023 0
M  V30 92 N 12.8895 -3.70678 2.77763 0
M  V30 93 C 13.6245 -4.51897 3.52954 0
M  V30 94 N 13.1205 -5.36921 4.37821 0
M  V30 95 N 14.9135 -4.4643 3.41551 0
M  V30 96 H 7.0645 -0.879093 1.93354 0
M  V30 97 H 9.3275 -0.448425 0.835236 0
M  V30 98 H 9.0335 -2.1611 2.77469 0
M  V30 99 H 8.9075 -3.43007 1.56927 0
M  V30 100 H 11.2945 -2.85023 0.764569 0
M  V30 101 H 11.3755 -1.58992 2.00387 0
M  V30 102 H 11.0195 -3.36699 3.80258 0
M  V30 103 H 10.9495 -4.61609 2.53425 0
M  V30 104 H 13.4405 -3.09944 2.16201 0
M  V30 105 H 13.7535 -5.95981 4.91962 0
M  V30 106 H 12.0985 -5.36424 4.41899 0
M  V30 107 H 15.2895 -3.79042 2.74672 0
M  V30 108 H 15.4625 -5.09491 4.00404 0
M  V30 109 N 8.8686 -0.792821 -1.36206 0
M  V30 110 C 10.1166 -0.366062 -1.98757 0
M  V30 111 C 10.4376 1.0668 -1.63231 0
M  V30 112 O 9.7076 1.73587 -0.907978 0
M  V30 113 H 8.2876 -0.132364 -0.735179 0
M  V30 114 H 10.9496 -1.01562 -1.66347 0
M  V30 115 H 10.0456 -0.460638 -3.08682 0
M  V30 116 N 10.3467 1.47872 -0.545128 0
M  V30 117 C 11.3097 2.28337 0.198717 0
M  V30 118 C 12.3097 1.36255 0.853888 0
M  V30 119 O 13.4997 1.59003 0.711606 0
M  V30 120 C 10.6317 3.15585 1.28915 0
M  V30 121 H 11.8247 2.95567 -0.507941 0
M  V30 122 H 9.3777 1.53362 -0.301616 0
M  V30 123 H 10.1127 2.53019 2.02859 0
M  V30 124 H 9.8977 3.83337 0.824309 0
M  V30 125 H 11.3877 3.76243 1.81194 0
M  V30 126 N 11.8248 0.280983 1.55075 0
M  V30 127 C 13.0738 -0.334784 1.98902 0
M  V30 128 C 13.3868 -1.56534 1.17288 0
M  V30 129 O 14.5928 -2.25443 1.51287 0
M  V30 130 C 13.0488 -0.646994 3.54037 0
M  V30 131 C 12.6568 0.564085 4.44435 0
M  V30 132 C 14.4008 -1.22506 4.06439 0
M  V30 133 C 12.3078 0.226137 5.90967 0
M  V30 134 H 11.2378 -0.128866 0.742906 0
M  V30 135 H 13.8888 0.386556 1.79382 0
M  V30 136 H 12.2708 -1.42739 3.6938 0
M  V30 137 H 13.4448 1.34082 4.40861 0
M  V30 138 H 11.7598 1.0594 4.02698 0
M  V30 139 H 14.3568 -1.49182 5.13468 0
M  V30 140 H 14.6998 -2.16085 3.55827 0
M  V30 141 H 15.2328 -0.50682 3.94558 0
M  V30 142 H 11.9718 1.12996 6.45687 0
M  V30 143 H 11.4918 -0.513717 5.97596 0
M  V30 144 H 13.1708 -0.179539 6.46751 0
M  V30 145 N 13.3029 -1.57598 0.00835791 0
M  V30 146 C 14.5309 -1.95214 -0.68549 0
M  V30 147 C 14.9459 -0.883706 -1.66841 0
M  V30 148 O 14.3029 0.136565 -1.81988 0
M  V30 149 C 14.3539 -3.32865 -1.41007 0
M  V30 150 O 14.0749 -4.35609 -0.466552 0
M  V30 151 C 15.5759 -3.84991 -2.19765 0
M  V30 152 H 12.7959 -0.643422 -0.190392 0
M  V30 153 H 15.3399 -2.04406 0.0619607 0
M  V30 154 H 13.4949 -3.24956 -2.10908 0
M  V30 155 H 13.9089 -5.15288 -0.978699 0
M  V30 156 H 15.3829 -4.8371 -2.65948 0
M  V30 157 H 15.8599 -3.18137 -3.02796 0
M  V30 158 H 16.4659 -3.96103 -1.54864 0
M  V30 159 N 14.781 0.264519 -1.55364 0
M  V30 160 C 16.027 0.99646 -1.76631 0
M  V30 161 C 16.36 1.85632 -0.570478 0
M  V30 162 O 15.635 1.89647 0.43175 0
M  V30 163 C 15.918 1.87187 -3.07625 0
M  V30 164 C 15.771 1.04138 -4.37579 0
M  V30 165 C 17.09 2.85749 -3.34717 0
M  V30 166 H 14.209 0.360841 -0.642622 0
M  V30 167 H 16.851 0.268218 -1.88097 0
M  V30 168 H 15.001 2.49279 -2.9798 0
M  V30 169 H 16.673 0.440517 -4.59192 0
M  V30 170 H 14.916 0.345115 -4.32425 0
M  V30 171 H 15.587 1.68729 -5.2558 0
M  V30 172 H 18.063 2.33793 -3.4421 0
M  V30 173 H 16.939 3.44136 -4.27623 0
M  V30 174 H 17.2 3.61311 -2.54768 0
M  V30 175 N 16.2591 1.48442 0.529413 0
M  V30 176 C 17.1691 1.6569 1.66084 0
M  V30 177 C 18.1851 0.539432 1.65427 0
M  V30 178 O 19.3611 0.810572 1.84368 0
M  V30 179 C 16.4261 1.69315 3.02545 0
M  V30 180 C 15.4871 2.92694 3.14052 0
M  V30 181 C 14.7201 2.96137 4.44003 0
M  V30 182 O 14.9431 2.07973 5.31134 0
M  V30 183 O 13.8771 3.88312 4.59888 0
M  V30 184 H 17.7031 2.61483 1.54469 0
M  V30 185 H 15.2881 1.3185 0.702567 0
M  V30 186 H 17.1701 1.74217 3.83701 0
M  V30 187 H 15.8451 0.766966 3.14483 0
M  V30 188 H 14.7521 2.93324 2.32189 0
M  V30 189 H 16.0851 3.84699 3.0703 0
M  V30 190 N 17.7372 -0.778329 1.37039 0
M  V30 191 C 18.6472 -1.92253 1.34446 0
M  V30 192 C 19.6632 -1.72267 0.244991 0
M  V30 193 O 20.8392 -1.95615 0.479258 0
M  V30 194 C 17.9042 -3.27282 1.144 0
M  V30 195 C 16.9652 -3.59969 2.33925 0
M  V30 196 C 16.1982 -4.88555 2.14825 0
M  V30 197 O 16.4212 -5.59113 1.12912 0
M  V30 198 O 15.3552 -5.20153 3.02861 0
M  V30 199 H 19.1812 -1.97392 2.30803 0
M  V30 200 H 16.7662 -0.920154 1.17701 0
M  V30 201 H 18.6482 -4.08062 1.05182 0
M  V30 202 H 17.3232 -3.23011 0.211124 0
M  V30 203 H 16.2302 -2.7945 2.48714 0
M  V30 204 H 17.5632 -3.68976 3.25757 0
M  V30 205 N 19.2153 -1.21501 -1.00376 0
M  V30 206 C 20.4923 -0.941745 -1.71437 0
M  V30 207 C 20.8723 0.546114 -2.03914 0
M  V30 208 O 20.2203 1.51128 -1.71384 0
M  V30 209 C 20.4303 -1.82812 -2.97289 0
M  V30 210 C 21.7783 -2.07771 -3.70292 0
M  V30 211 O 22.8023 -1.80171 -3.07273 0
M  V30 212 O 21.6613 -2.54456 -4.83647 0
M  V30 213 H 18.7553 -0.353243 -0.747762 0
M  V30 214 H 21.3013 -1.32436 -1.06108 0
M  V30 215 H 20.0733 -2.83501 -2.69709 0
M  V30 216 H 19.6963 -1.4464 -3.70358 0
M  V30 217 N 20.6934 1.19889 -1.02296 0
M  V30 218 C 21.9214 1.9339 -0.735399 0
M  V30 219 C 22.3364 1.75148 0.704887 0
M  V30 220 O 21.6934 1.06954 1.47875 0
M  V30 221 C 21.7444 3.45313 -1.06962 0
M  V30 222 O 21.4654 3.62964 -2.45334 0
M  V30 223 C 22.9664 4.35948 -0.804021 0
M  V30 224 H 20.1864 0.61448 -0.269546 0
M  V30 225 H 22.7304 1.522 -1.36585 0
M  V30 226 H 20.8854 3.84359 -0.484455 0
M  V30 227 H 21.2994 4.56886 -2.57595 0
M  V30 228 H 22.7734 5.41174 -1.0879 0
M  V30 229 H 23.2504 4.3842 0.261691 0
M  V30 230 H 23.8564 4.02574 -1.37164 0
M  V30 231 N 22.1715 0.800033 1.35784 0
M  V30 232 C 23.5825 0.439142 1.81462 0
M  V30 233 C 23.9335 -1.03813 1.66485 0
M  V30 234 O 23.0585 -1.80626 1.19177 0
M  V30 235 C 23.6535 0.790314 3.29453 0
M  V30 236 C 22.2125 0.482111 3.733 0
M  V30 237 C 21.3595 1.01938 2.57883 0
M  V30 238 H 24.3105 0.992254 1.23855 0
M  V30 239 H 24.3315 0.0853677 3.80404 0
M  V30 240 H 23.8435 1.86554 3.40322 0
M  V30 241 H 21.9445 -0.584652 3.67984 0
M  V30 242 H 22.0575 1.01015 4.6833 0
M  V30 243 H 20.4215 0.442043 2.50835 0
M  V30 244 H 21.2045 2.10059 2.71533 0
M  V30 245 N 23.6496 -1.47581 0.552962 0
M  V30 246 C 24.5596 -2.33743 -0.200353 0
M  V30 247 C 25.5756 -1.47928 -0.916151 0
M  V30 248 O 26.7516 -1.80865 -0.885993 0
M  V30 249 C 23.8166 -3.24536 -1.21973 0
M  V30 250 C 22.8776 -4.26238 -0.511819 0
M  V30 251 C 22.1106 -5.12693 -1.48263 0
M  V30 252 O 22.3336 -5.01525 -2.71714 0
M  V30 253 O 21.2676 -5.93375 -1.00945 0
M  V30 254 H 25.0936 -2.9945 0.506304 0
M  V30 255 H 22.6786 -1.46071 0.313622 0
M  V30 256 H 24.5606 -3.80631 -1.80827 0
M  V30 257 H 23.2356 -2.61462 -1.90839 0
M  V30 258 H 22.1426 -3.73914 0.117799 0
M  V30 259 H 23.4756 -4.92014 0.135308 0
M  V30 260 N 25.1277 -0.289203 -1.54924 0
M  V30 261 C 26.0907 0.579144 -2.21762 0
M  V30 262 C 27.0907 1.07047 -1.1999 0
M  V30 263 O 28.2807 0.968384 -1.44803 0
M  V30 264 C 25.4127 1.80055 -2.8947 0
M  V30 265 H 26.6057 -0.00464908 -2.999 0
M  V30 266 H 24.1587 -0.0399306 -1.56249 0
M  V30 267 H 24.8937 2.42449 -2.15381 0
M  V30 268 H 24.6787 1.45602 -3.64064 0
M  V30 269 H 26.1687 2.41773 -3.40493 0
M  V30 270 N 26.6058 1.57591 -0.0167156 0
M  V30 271 C 27.8548 1.90461 0.663877 0
M  V30 272 C 28.1678 0.893515 1.73999 0
M  V30 273 O 29.3738 1.11302 2.47637 0
M  V30 274 C 27.8298 3.38155 1.23204 0
M  V30 275 C 27.4378 4.47597 0.189866 0
M  V30 276 C 29.1818 3.80111 1.88986 0
M  V30 277 C 27.0888 5.86379 0.768964 0
M  V30 278 H 26.0188 0.710738 0.251729 0
M  V30 279 H 28.6698 1.83326 -0.0799926 0
M  V30 280 H 27.0518 3.40182 2.02712 0
M  V30 281 H 28.2258 4.57112 -0.581846 0
M  V30 282 H 26.5408 4.14766 -0.368475 0
M  V30 283 H 29.1378 4.81145 2.33247 0
M  V30 284 H 29.4808 3.14511 2.72743 0
M  V30 285 H 30.0138 3.80454 1.16187 0
M  V30 286 H 26.7528 6.55493 -0.0301957 0
M  V30 287 H 26.2728 5.80496 1.50945 0
M  V30 288 H 27.9518 6.34563 1.26251 0
M  V30 289 N 28.0839 -0.256276 1.55502 0
M  V30 290 C 29.0339 -1.31981 1.85916 0
M  V30 291 C 30.0179 -1.43927 0.719296 0
M  V30 292 O 31.2099 -1.47326 0.981019 0
M  V30 293 C 28.3389 -2.67703 2.14918 0
M  V30 294 C 27.4249 -2.59801 3.35208 0
M  V30 295 N 27.8159 -2.21524 4.54709 0
M  V30 296 C 26.1139 -2.90832 3.38131 0
M  V30 297 C 26.8149 -2.24024 5.36832 0
M  V30 298 N 25.7909 -2.63158 4.75656 0
M  V30 299 H 29.5929 -1.01423 2.75845 0
M  V30 300 H 27.1069 -0.464911 1.55603 0
M  V30 301 H 29.1039 -3.44445 2.34869 0
M  V30 302 H 27.7639 -2.99137 1.26282 0
M  V30 303 H 28.7749 -1.93223 4.80505 0
M  V30 304 H 25.4519 -3.26867 2.59739 0
M  V30 305 H 26.8419 -1.9685 6.42417 0
M  V30 306 N 29.562 -1.4872 -0.521534 0
M  V30 307 C 30.494 -1.59968 -1.64143 0
M  V30 308 C 31.507 -0.483463 -1.55456 0
M  V30 309 O 32.696 -0.75467 -1.61762 0
M  V30 310 C 29.796 -1.52127 -3.02838 0
M  V30 311 C 28.969 -2.78932 -3.36921 0
M  V30 312 C 28.028 -2.64428 -4.54933 0
M  V30 313 O 27.054 -3.38331 -4.57735 0
M  V30 314 N 28.256 -1.74606 -5.53618 0
M  V30 315 H 31.021 -2.56548 -1.54929 0
M  V30 316 H 28.582 -1.45551 -0.708988 0
M  V30 317 H 30.574 -1.40106 -3.79674 0
M  V30 318 H 29.144 -0.634868 -3.06085 0
M  V30 319 H 28.364 -3.05455 -2.4918 0
M  V30 320 H 29.652 -3.63041 -3.56481 0
M  V30 321 H 29.05 -1.13782 -5.54139 0
M  V30 322 H 27.607 -1.6852 -6.29638 0
M  V30 323 N 31.0401 0.771051 -1.3745 0
M  V30 324 C 32.0031 1.86598 -1.33093 0
M  V30 325 C 33.0031 1.59076 -0.234845 0
M  V30 326 O 34.1931 1.67145 -0.490732 0
M  V30 327 C 31.3251 3.23747 -1.06773 0
M  V30 328 H 32.5181 1.91873 -2.30488 0
M  V30 329 H 30.0711 0.970876 -1.2249 0
M  V30 330 H 30.8061 3.24148 -0.099129 0
M  V30 331 H 30.5911 3.45115 -1.86112 0
M  V30 332 H 32.0811 4.03824 -1.06377 0
M  V30 333 N 32.5182 1.22032 0.997298 0
M  V30 334 C 33.7462 1.06841 1.7718 0
M  V30 335 C 34.1612 -0.381325 1.84909 0
M  V30 336 O 33.5182 -1.26437 1.31605 0
M  V30 337 C 33.5692 1.66814 3.20711 0
M  V30 338 O 33.2902 3.06116 3.13408 0
M  V30 339 C 34.7912 1.56838 4.14628 0
M  V30 340 H 32.0112 0.374782 0.556578 0
M  V30 341 H 34.5552 1.61532 1.2541 0
M  V30 342 H 32.7102 1.16196 3.69564 0
M  V30 343 H 33.1242 3.34926 4.0364 0
M  V30 344 H 34.5982 2.03532 5.13107 0
M  V30 345 H 35.0752 0.524155 4.36061 0
M  V30 346 H 35.6812 2.06741 3.7167 0
M  V30 347 N 33.9963 -1.19345 1.0293 0
M  V30 348 C 35.4123 -1.41069 0.746446 0
M  V30 349 C 35.6123 -1.90078 -0.668776 0
M  V30 350 O 34.6683 -2.0778 -1.4347 0
M  V30 351 C 35.9813 -2.42141 1.78292 0
M  V30 352 C 37.5293 -2.55887 1.80252 0
M  V30 353 C 38.0043 -3.60214 2.8286 0
M  V30 354 N 39.4953 -3.67711 2.81679 0
M  V30 355 C 40.2303 -4.48128 3.57727 0
M  V30 356 N 39.7263 -5.32248 4.43491 0
M  V30 357 N 41.5193 -4.42782 3.46267 0
M  V30 358 H 33.6703 -0.858536 1.94275 0
M  V30 359 H 35.9333 -0.439541 0.839945 0
M  V30 360 H 35.6393 -2.13155 2.79746 0
M  V30 361 H 35.5133 -3.41323 1.60557 0
M  V30 362 H 37.9003 -2.84196 0.794757 0
M  V30 363 H 37.9813 -1.56858 2.02062 0
M  V30 364 H 37.6253 -3.32647 3.83807 0
M  V30 365 H 37.5553 -4.58895 2.58307 0
M  V30 366 H 40.0463 -3.07634 2.19476 0
M  V30 367 H 40.3593 -5.90729 4.98256 0
M  V30 368 H 38.7043 -5.31707 4.47564 0
M  V30 369 H 41.8953 -3.76107 2.78677 0
M  V30 370 H 42.0683 -5.05215 4.05785 0
M  V30 371 N 35.4744 -0.807222 -1.35358 0
M  V30 372 C 36.3844 -0.219594 -2.3357 0
M  V30 373 C 37.4004 0.637734 -1.61892 0
M  V30 374 O 38.5764 0.549336 -1.93763 0
M  V30 375 C 35.6414 0.62158 -3.41083 0
M  V30 376 C 34.7024 -0.256315 -4.28534 0
M  V30 377 C 33.9354 0.544807 -5.30912 0
M  V30 378 O 34.1584 1.77944 -5.41934 0
M  V30 379 O 33.0924 -0.0646478 -6.01865 0
M  V30 380 H 36.9184 -1.03208 -2.85625 0
M  V30 381 H 34.5034 -0.569025 -1.38139 0
M  V30 382 H 36.3854 1.10067 -4.06772 0
M  V30 383 H 35.0604 1.41165 -2.91297 0
M  V30 384 H 33.9674 -0.782559 -3.65823 0
M  V30 385 H 35.3004 -1.01034 -4.81719 0
M  V30 386 N 36.9525 1.47285 -0.560781 0
M  V30 387 C 37.8825 2.32857 0.173105 0
M  V30 388 C 38.8635 1.44009 0.905281 0
M  V30 389 O 40.0485 1.7286 0.885046 0
M  V30 390 C 37.1785 3.25861 1.20133 0
M  V30 391 C 36.1325 4.23978 0.585388 0
M  V30 392 C 35.4585 5.06332 1.7185 0
M  V30 393 C 36.7585 5.20242 -0.463178 0
M  V30 394 H 38.4525 2.94466 -0.541307 0
M  V30 395 H 35.9985 1.41601 -0.261764 0
M  V30 396 H 37.9515 3.84569 1.72293 0
M  V30 397 H 36.6755 2.62315 1.94573 0
M  V30 398 H 35.3345 3.66501 0.085054 0
M  V30 399 H 34.9825 4.39186 2.45203 0
M  V30 400 H 34.6825 5.72762 1.31213 0
M  V30 401 H 36.2065 5.67899 2.24329 0
M  V30 402 H 37.6205 5.73293 -0.027502 0
M  V30 403 H 36.0175 5.94896 -0.788627 0
M  V30 404 H 37.0875 4.65504 -1.35773 0
M  V30 405 N 38.4306 0.297415 1.54768 0
M  V30 406 C 39.3606 -0.573494 2.26348 0
M  V30 407 C 40.3416 -1.14085 1.26169 0
M  V30 408 O 41.5266 -1.17086 1.54934 0
M  V30 409 C 38.6566 -1.74716 3.00153 0
M  V30 410 C 37.6106 -1.31032 4.07449 0
M  V30 411 C 36.9366 -2.56887 4.68949 0
M  V30 412 C 38.2366 -0.444183 5.20408 0
M  V30 413 H 39.9306 0.0235131 2.99391 0
M  V30 414 H 37.4766 0.0127488 1.43994 0
M  V30 415 H 39.4296 -2.3625 3.48947 0
M  V30 416 H 38.1536 -2.37035 2.24682 0
M  V30 417 H 36.8126 -0.718066 3.59499 0
M  V30 418 H 36.4606 -3.17512 3.90122 0
M  V30 419 H 36.1606 -2.2836 5.41411 0
M  V30 420 H 37.6846 -3.19229 5.20505 0
M  V30 421 H 39.0986 -0.9651 5.65118 0
M  V30 422 H 37.4956 -0.252846 5.99567 0
M  V30 423 H 38.5656 0.531609 4.81977 0
M  V30 424 N 39.9087 -1.5758 0.0250728 0
M  V30 425 C 40.8387 -2.13007 -0.956575 0
M  V30 426 C 41.8197 -1.0452 -1.342 0
M  V30 427 O 43.0047 -1.32332 -1.42133 0
M  V30 428 C 40.1347 -2.65386 -2.24026 0
M  V30 429 C 39.0887 -3.78623 -1.99571 0
M  V30 430 C 38.4147 -4.17414 -3.3417 0
M  V30 431 C 39.7147 -5.04867 -1.33814 0
M  V30 432 H 41.4087 -2.9528 -0.494991 0
M  V30 433 H 38.9547 -1.42042 -0.236651 0
M  V30 434 H 40.9077 -3.02794 -2.93076 0
M  V30 435 H 39.6317 -1.80268 -2.72343 0
M  V30 436 H 38.2907 -3.41646 -1.32941 0
M  V30 437 H 37.9387 -3.29284 -3.80238 0
M  V30 438 H 37.6387 -4.93719 -3.18615 0
M  V30 439 H 39.1627 -4.57402 -4.04495 0
M  V30 440 H 40.5767 -5.39888 -1.92857 0
M  V30 441 H 38.9737 -5.86144 -1.28669 0
M  V30 442 H 40.0437 -4.83904 -0.310561 0
M  V30 443 N 41.3868 0.248026 -1.55636 0
M  V30 444 C 42.3338 1.30707 -1.90222 0
M  V30 445 C 43.3038 1.47881 -0.756332 0
M  V30 446 O 44.4888 1.61883 -1.00988 0
M  V30 447 C 41.6288 2.65769 -2.20138 0
M  V30 448 C 40.7418 2.56612 -3.47526 0
M  V30 449 C 39.8768 3.8402 -3.67017 0
M  V30 450 C 38.9158 3.69476 -4.8801 0
M  V30 451 N 38.0528 4.88774 -5.04029 0
M  V30 452 H 42.8928 1.00512 -2.80538 0
M  V30 453 H 40.4298 0.485055 -1.38873 0
M  V30 454 H 42.3878 3.44386 -2.35487 0
M  V30 455 H 41.0178 2.94115 -1.33027 0
M  V30 456 H 40.0698 1.69571 -3.40514 0
M  V30 457 H 41.3818 2.41774 -4.36287 0
M  V30 458 H 40.5358 4.7108 -3.8232 0
M  V30 459 H 39.2748 4.01754 -2.76487 0
M  V30 460 H 38.2798 2.80799 -4.72686 0
M  V30 461 H 39.5048 3.53238 -5.8 0
M  V30 462 H 37.4508 5.0687 -4.16435 0
M  V30 463 H 37.3678 4.76562 -5.86877 0
M  V30 464 H 38.6358 5.77335 -5.23741 0
M  V30 465 N 42.8649 1.48995 0.513639 0
M  V30 466 C 43.7979 1.59319 1.63379 0
M  V30 467 C 44.7759 0.442816 1.56454 0
M  V30 468 O 45.9599 0.656655 1.76693 0
M  V30 469 C 43.0869 1.5364 3.01848 0
M  V30 470 C 42.1329 2.7372 3.27078 0
M  V30 471 S 42.9659 4.35528 3.1157 0
M  V30 472 C 44.1219 4.32473 4.52458 0
M  V30 473 H 44.3549 2.54079 1.54374 0
M  V30 474 H 41.8879 1.3773 0.697849 0
M  V30 475 H 43.8459 1.51049 3.81699 0
M  V30 476 H 42.5069 0.601898 3.08279 0
M  V30 477 H 41.6999 2.6593 4.28132 0
M  V30 478 H 41.3019 2.73657 2.54927 0
M  V30 479 H 43.5939 4.03414 5.44301 0
M  V30 480 H 44.5369 5.33762 4.65299 0
M  V30 481 H 44.9449 3.62718 4.32546 0
M  V30 482 N 44.343 -0.763751 1.37857 0
M  V30 483 C 45.273 -1.89103 1.36975 0
M  V30 484 C 46.254 -1.68439 0.237152 0
M  V30 485 O 47.439 -1.8918 0.438713 0
M  V30 486 C 44.569 -3.26496 1.18395 0
M  V30 487 C 43.523 -3.61741 2.28751 0
M  V30 488 C 42.849 -4.97762 1.95286 0
M  V30 489 C 44.149 -3.67665 3.70972 0
M  V30 490 H 45.843 -1.90099 2.31307 0
M  V30 491 H 43.389 -0.91319 1.11341 0
M  V30 492 H 45.342 -4.05003 1.16406 0
M  V30 493 H 44.066 -3.25955 0.205215 0
M  V30 494 H 42.725 -2.85547 2.29909 0
M  V30 495 H 42.373 -4.93769 0.959221 0
M  V30 496 H 42.073 -5.22313 2.69189 0
M  V30 497 H 43.597 -5.7866 1.94898 0
M  V30 498 H 45.011 -4.36307 3.719 0
M  V30 499 H 43.408 -4.03718 4.43995 0
M  V30 500 H 44.478 -2.68134 4.0402 0
M  V30 501 N 45.8211 -1.22559 -0.990812 0
M  V30 502 C 46.7311 -1.01394 -2.11557 0
M  V30 503 C 47.7471 0.0383962 -1.73958 0
M  V30 504 O 48.9231 -0.154787 -2.00804 0
M  V30 505 C 45.9881 -0.596569 -3.41529 0
M  V30 506 C 45.0491 -1.72276 -3.93217 0
M  V30 507 C 44.2821 -1.32521 -5.16985 0
M  V30 508 O 44.5051 -0.204909 -5.70032 0
M  V30 509 O 43.4391 -2.14247 -5.62478 0
M  V30 510 H 47.2651 -1.95633 -2.32296 0
M  V30 511 H 44.8501 -1.01172 -1.0993 0
M  V30 512 H 46.7321 -0.374263 -4.19735 0
M  V30 513 H 45.4071 0.316939 -3.22145 0
M  V30 514 H 44.3141 -1.99961 -3.16174 0
M  V30 515 H 45.6471 -2.61421 -4.17037 0
M  V30 516 N 47.2992 1.18797 -1.03562 0
M  V30 517 C 48.2622 2.20464 -0.626769 0
M  V30 518 C 49.2622 1.57721 0.313173 0
M  V30 519 O 50.4522 1.73917 0.0992615 0
M  V30 520 C 47.5842 3.40802 0.0818498 0
M  V30 521 H 48.7772 2.58149 -1.5264 0
M  V30 522 H 46.3302 1.32593 -0.827578 0
M  V30 523 H 47.0652 3.08642 0.995518 0
M  V30 524 H 46.8502 3.8758 -0.593652 0
M  V30 525 H 48.3402 4.16092 0.354584 0
M  V30 526 N 48.7773 0.814389 1.34928 0
M  V30 527 C 49.7253 0.218424 2.31572 0
M  V30 528 C 50.7193 -0.636128 1.57002 0
M  V30 529 O 51.9253 -0.52842 1.72069 0
M  V30 530 H 48.3003 0.0518799 0.750208 0
M  V30 531 H 50.2713 1.04852 2.79372 0
M  V30 532 C 49.0203 -0.61207 3.4227 0
M  V30 533 H 48.3433 0.0361578 3.99784 0
M  V30 534 H 49.7833 -0.995317 4.12152 0
M  V30 535 C 48.2423 -1.78087 2.85984 0
M  V30 536 O 48.7723 -2.8787 2.80168 0
M  V30 537 N 46.9783 -1.59488 2.42924 0
M  V30 538 H 46.5253 -0.701874 2.47854 0
M  V30 539 H 46.4833 -2.37846 2.05613 0
M  V30 540 N 50.2554 -1.46986 0.568584 0
M  V30 541 C 51.5034 -2.02041 0.0487022 0
M  V30 542 C 51.8244 -1.44408 -1.31039 0
M  V30 543 O 51.0944 -0.623477 -1.85714 0
M  V30 544 H 49.6744 -0.746849 0.015014 0
M  V30 545 H 52.3364 -1.80257 0.741168 0
M  V30 546 H 51.4324 -3.12085 -0.0308961 0
M  V30 547 N 51.7335 -0.305618 -1.54608 0
M  V30 548 C 52.9825 0.303098 -1.9941 0
M  V30 549 C 53.2955 1.54648 -1.19764 0
M  V30 550 O 54.5015 2.23007 -1.54855 0
M  V30 551 C 52.9575 0.590588 -3.55021 0
M  V30 552 C 52.5655 -0.634719 -4.43481 0
M  V30 553 C 54.3095 1.16025 -4.08336 0
M  V30 554 C 52.2165 -0.320126 -5.90533 0
M  V30 555 H 51.1465 0.117031 -0.744862 0
M  V30 556 H 53.7975 -0.415045 -1.78745 0
M  V30 557 H 52.1795 1.36845 -3.71604 0
M  V30 558 H 53.3535 -1.41079 -4.38672 0
M  V30 559 H 51.6685 -1.12333 -4.00962 0
M  V30 560 H 54.2655 1.40994 -5.15776 0
M  V30 561 H 54.6085 2.10397 -3.5922 0
M  V30 562 H 55.1415 0.443985 -3.95315 0
M  V30 563 H 51.8805 -1.23254 -6.43808 0
M  V30 564 H 51.4005 0.418579 -5.98338 0
M  V30 565 H 53.0795 0.0766241 -6.46955 0
M  V30 566 N 53.2116 1.57565 -0.0334293 0
M  V30 567 C 54.1436 2.0739 0.975811 0
M  V30 568 C 55.1566 0.998166 1.2861 0
M  V30 569 O 56.3456 1.27426 1.25 0
M  V30 570 C 53.4456 2.4871 2.30209 0
M  V30 571 C 52.6186 3.79413 2.17634 0
M  V30 572 C 51.6776 4.07237 3.33233 0
M  V30 573 O 50.7036 4.77425 3.09927 0
M  V30 574 N 51.9056 3.5775 4.5716 0
M  V30 575 H 54.6706 2.94598 0.55066 0
M  V30 576 H 52.2316 1.61173 0.15323 0
M  V30 577 H 54.2236 2.64413 3.06378 0
M  V30 578 H 52.7936 1.66845 2.64351 0
M  V30 579 H 52.0136 3.73465 1.26165 0
M  V30 580 H 53.3016 4.65038 2.0644 0
M  V30 581 H 52.6996 3.00976 4.78989 0
M  V30 582 H 51.2566 3.78724 5.30482 0
M  V30 583 N 54.6897 -0.239769 1.55765 0
M  V30 584 C 55.9147 -0.988373 1.82335 0
M  V30 585 C 56.3397 -1.77886 0.611421 0
M  V30 586 O 55.6977 -1.75889 -0.439639 0
M  V30 587 C 55.7457 -1.89627 3.06715 0
M  V30 588 O 54.8497 -2.98904 2.84131 0
M  V30 589 H 54.1907 -0.280858 0.601677 0
M  V30 590 H 56.7207 -0.258597 2.02959 0
M  V30 591 H 56.7307 -2.30957 3.36338 0
M  V30 592 H 55.4057 -1.31511 3.9456 0
M  V30 593 H 53.9827 -2.61651 2.65694 0
M  V30 594 N 56.1678 -1.49265 -0.50573 0
M  V30 595 C 57.3978 -1.61979 -1.28243 0
M  V30 596 C 57.8058 -0.288576 -1.86986 0
M  V30 597 O 57.1488 0.735408 -1.68337 0
M  V30 598 C 57.2108 -2.62632 -2.45489 0
M  V30 599 C 56.8748 -4.071 -2.07651 0
M  V30 600 C 57.8718 -4.94049 -1.61901 0
M  V30 601 C 55.5568 -4.52801 -2.17431 0
M  V30 602 C 57.5508 -6.24736 -1.26428 0
M  V30 603 C 55.2378 -5.83503 -1.8157 0
M  V30 604 C 56.2358 -6.69294 -1.36142 0
M  V30 605 O 55.9238 -7.9756 -1.00764 0
M  V30 606 H 55.6558 -0.54834 -0.395347 0
M  V30 607 H 58.2098 -1.96002 -0.614204 0
M  V30 608 H 56.4398 -2.2378 -3.15372 0
M  V30 609 H 58.1288 -2.64925 -3.07522 0
M  V30 610 H 58.8948 -4.5997 -1.53795 0
M  V30 611 H 54.7738 -3.86196 -2.51742 0
M  V30 612 H 58.3178 -6.91652 -0.908992 0
M  V30 613 H 54.2148 -6.17112 -1.89324 0
M  V30 614 H 54.9828 -8.10529 -1.13952 0
M  V30 615 N 57.6459 0.756429 -1.3826 0
M  V30 616 C 58.5559 1.9009 -1.37488 0
M  V30 617 C 59.5719 1.71855 -0.272366 0
M  V30 618 O 60.7479 1.94827 -0.510318 0
M  V30 619 C 57.8129 3.25421 -1.19592 0
M  V30 620 C 56.8739 3.56202 -2.39622 0
M  V30 621 C 56.1069 4.85075 -2.2257 0
M  V30 622 O 56.3299 5.57246 -1.21793 0
M  V30 623 O 55.2639 5.15269 -3.11098 0
M  V30 624 H 59.0899 1.93695 -2.33914 0
M  V30 625 H 56.6749 0.901313 -1.1915 0
M  V30 626 H 58.5569 4.06337 -1.11661 0
M  V30 627 H 57.2319 3.22634 -0.262486 0
M  V30 628 H 56.1389 2.75458 -2.53128 0
M  V30 629 H 57.4719 3.63747 -3.31586 0
M  V30 630 N 59.124 1.23083 0.984299 0
M  V30 631 C 60.034 1.02515 2.11016 0
M  V30 632 C 61.05 -0.0291702 1.73976 0
M  V30 633 O 62.226 0.165434 2.00719 0
M  V30 634 C 59.291 0.614673 3.41208 0
M  V30 635 C 58.352 1.74359 3.92297 0
M  V30 636 C 57.585 1.35261 5.16275 0
M  V30 637 O 57.808 0.235136 5.69915 0
M  V30 638 O 56.742 2.17227 5.61334 0
M  V30 639 H 60.568 1.96862 2.31255 0
M  V30 640 H 58.153 1.01753 1.09392 0
M  V30 641 H 60.035 0.396518 4.1953 0
M  V30 642 H 58.71 -0.299851 3.22308 0
M  V30 643 H 57.617 2.01635 3.1511 0
M  V30 644 H 58.95 2.63629 4.15645 0
M  V30 645 N 60.6021 -1.18246 1.0419 0
M  V30 646 C 61.5321 -2.24127 0.654914 0
M  V30 647 C 62.5131 -1.66617 -0.342451 0
M  V30 648 O 63.6981 -1.92924 -0.222277 0
M  V30 649 C 60.8281 -3.47295 0.0183757 0
M  V30 650 C 59.7821 -4.17563 0.939414 0
M  V30 651 C 59.1081 -5.34438 0.167286 0
M  V30 652 C 60.4081 -4.70917 2.25908 0
M  V30 653 H 62.1021 -2.56753 1.54007 0
M  V30 654 H 59.6481 -1.23414 0.74195 0
M  V30 655 H 61.6011 -4.20572 -0.264082 0
M  V30 656 H 60.3251 -3.13907 -0.901664 0
M  V30 657 H 58.9841 -3.46186 1.20628 0
M  V30 658 H 58.6321 -4.97298 -0.7552 0
M  V30 659 H 58.3321 -5.82388 0.780901 0
M  V30 660 H 59.8561 -6.10504 -0.108125 0
M  V30 661 H 61.2701 -5.35882 2.03724 0
M  V30 662 H 59.6671 -5.29406 2.82577 0
M  V30 663 H 60.7371 -3.88272 2.9047 0
M  V30 664 N 62.0802 -0.821533 -1.34494 0
M  V30 665 C 63.0432 -0.247847 -2.27856 0
M  V30 666 C 64.0432 0.573453 -1.50227 0
M  V30 667 O 65.2332 0.389759 -1.69784 0
M  V30 668 C 62.3652 0.652698 -3.34593 0
M  V30 669 H 63.5582 -1.07146 -2.80107 0
M  V30 670 H 61.1112 -0.593291 -1.44602 0
M  V30 671 H 61.8462 1.49943 -2.87555 0
M  V30 672 H 61.6312 0.065292 -3.92046 0
M  V30 673 H 63.1212 1.04793 -4.04238 0
M  V30 674 N 63.5583 1.46682 -0.576371 0
M  V30 675 C 64.5213 2.28707 0.150239 0
M  V30 676 C 65.5213 1.38035 0.824794 0
M  V30 677 O 66.7113 1.60476 0.677719 0
M  V30 678 C 63.8433 3.18248 1.22192 0
M  V30 679 H 65.0363 2.94423 -0.570521 0
M  V30 680 H 62.5893 1.52688 -0.334078 0
M  V30 681 H 63.3243 2.57265 1.97447 0
M  V30 682 H 63.1093 3.85 0.742812 0
M  V30 683 H 64.5993 3.80001 1.73172 0
M  V30 684 N 65.0364 0.313813 1.54444 0
M  V30 685 C 66.2824 -0.292108 2.00685 0
M  V30 686 C 66.6154 -1.52548 1.20177 0
M  V30 687 O 65.8904 -1.92452 0.281531 0
M  V30 688 C 66.1734 -0.635968 3.5444 0
M  V30 689 C 66.0264 0.607437 4.4568 0
M  V30 690 C 67.3454 -1.45747 4.15266 0
M  V30 691 H 64.4644 -0.104697 0.729526 0
M  V30 692 H 67.1064 0.428457 1.85106 0
M  V30 693 H 65.2564 -1.24986 3.67846 0
M  V30 694 H 66.9284 1.24581 4.44159 0
M  V30 695 H 65.1714 1.23822 4.15753 0
M  V30 696 H 65.8424 0.322515 5.51057 0
M  V30 697 H 68.3184 -0.938645 4.05375 0
M  V30 698 H 67.1944 -1.66683 5.2298 0
M  V30 699 H 67.4554 -2.45063 3.67963 0
M  V30 700 N 66.5145 -1.57545 0.0417849 0
M  V30 701 C 67.7635 -1.91494 -0.633492 0
M  V30 702 C 68.0765 -0.921084 -1.72556 0
M  V30 703 O 69.2825 -1.15228 -2.45835 0
M  V30 704 C 67.7385 -3.40072 -1.17808 0
M  V30 705 C 67.3465 -4.47843 -0.118633 0
M  V30 706 C 69.0905 -3.8307 -1.82915 0
M  V30 707 C 66.9975 -5.87529 -0.675578 0
M  V30 708 H 65.9275 -0.714653 -0.24039 0
M  V30 709 H 68.5785 -1.83175 0.109148 0
M  V30 710 H 66.9605 -3.43364 -1.97274 0
M  V30 711 H 68.1345 -4.56128 0.654494 0
M  V30 712 H 66.4495 -4.14128 0.434414 0
M  V30 713 H 69.0465 -4.84794 -2.25563 0
M  V30 714 H 69.3895 -3.1881 -2.67705 0
M  V30 715 H 69.9225 -3.82255 -1.10119 0
M  V30 716 H 66.6615 -6.55362 0.134475 0
M  V30 717 H 66.1815 -5.82824 -1.4169 0
M  V30 718 H 67.8605 -6.36491 -1.1614 0
M  V30 719 N 67.9926 0.231505 -1.5589 0
M  V30 720 C 69.2396 0.957352 -1.78441 0
M  V30 721 C 69.5676 1.84726 -0.60882 0
M  V30 722 O 68.8226 1.91416 0.40725 0
M  V30 723 C 69.1216 1.83577 -3.0665 0
M  V30 724 C 68.7876 1.09993 -4.37278 0
M  V30 725 C 67.4496 0.896629 -4.72773 0
M  V30 726 C 69.8016 0.579558 -5.17968 0
M  V30 727 C 67.1296 0.160896 -5.86479 0
M  V30 728 C 69.4816 -0.142783 -6.32439 0
M  V30 729 C 68.1456 -0.357427 -6.66542 0
M  V30 730 H 67.4156 0.35032 -0.65296 0
M  V30 731 H 70.0626 0.226259 -1.90159 0
M  V30 732 H 68.3676 2.63441 -2.90011 0
M  V30 733 H 70.0646 2.39934 -3.21298 0
M  V30 734 H 66.6546 1.26835 -4.09403 0
M  V30 735 H 70.8386 0.724125 -4.90989 0
M  V30 736 H 66.0946 -0.0157293 -6.11398 0
M  V30 737 H 70.2686 -0.553559 -6.94196 0
M  V30 738 H 67.8956 -0.929466 -7.54497 0
M  V30 739 N 69.4707 1.49531 0.497807 0
M  V30 740 C 70.6987 1.62893 1.27567 0
M  V30 741 C 71.1137 0.301585 1.86376 0
M  V30 742 O 70.4707 -0.713335 1.67982 0
M  V30 743 C 70.5217 2.70013 2.40364 0
M  V30 744 O 70.2427 3.976 1.83972 0
M  V30 745 C 71.7437 2.94109 3.31685 0
M  V30 746 H 68.9637 0.548298 0.386794 0
M  V30 747 H 71.5077 1.95584 0.597245 0
M  V30 748 H 69.6627 2.40092 3.04031 0
M  V30 749 H 70.0767 4.56631 2.58047 0
M  V30 750 H 71.5507 3.72788 4.07104 0
M  V30 751 H 72.0277 2.04147 3.88871 0
M  V30 752 H 72.6337 3.2546 2.73781 0
M  V30 753 N 70.9488 -0.749086 1.3866 0
M  V30 754 C 72.1948 -1.51056 1.35314 0
M  V30 755 C 72.5278 -1.94121 -0.0553751 0
M  V30 756 O 71.8028 -1.65763 -1.01749 0
M  V30 757 C 72.0858 -2.76003 2.31288 0
M  V30 758 C 71.9388 -2.39047 3.8102 0
M  V30 759 C 73.2578 -3.78046 2.2532 0
M  V30 760 H 70.3768 -0.547972 0.492844 0
M  V30 761 H 73.0188 -0.857628 1.69543 0
M  V30 762 H 71.1688 -3.31716 2.02229 0
M  V30 763 H 72.8408 -1.89074 4.20771 0
M  V30 764 H 71.0838 -1.71449 3.98482 0
M  V30 765 H 71.7548 -3.28462 4.4364 0
M  V30 766 H 74.2308 -3.31884 2.50983 0
M  V30 767 H 73.1068 -4.63159 2.94576 0
M  V30 768 H 73.3678 -4.23957 1.25352 0
M  V30 769 N 72.4269 -1.23603 -0.977757 0
M  V30 770 C 73.6549 -1.09646 -1.75458 0
M  V30 771 C 74.0699 0.351859 -1.85492 0
M  V30 772 O 73.4269 1.24327 -1.336 0
M  V30 773 C 73.4779 -1.71895 -3.18016 0
M  V30 774 O 73.1989 -3.11063 -3.08498 0
M  V30 775 C 74.6999 -1.63415 -4.12081 0
M  V30 776 H 71.9199 -0.38359 -0.550545 0
M  V30 777 H 74.4639 -1.63507 -1.22824 0
M  V30 778 H 72.6189 -1.22061 -3.67668 0
M  V30 779 H 73.0329 -3.41305 -3.9826 0
M  V30 780 H 74.5069 -2.11669 -5.09804 0
M  V30 781 H 74.9839 -0.593462 -4.35172 0
M  V30 782 H 75.5899 -2.12628 -3.68334 0
M  V30 783 N 73.905 1.17692 -1.04816 0
M  V30 784 C 74.815 2.25229 -0.65643 0
M  V30 785 C 75.831 1.71018 0.320761 0
M  V30 786 O 77.007 2.00649 0.173805 0
M  V30 787 C 74.072 3.46684 -0.0332629 0
M  V30 788 C 73.133 4.15997 -1.06042 0
M  V30 789 C 72.366 5.31654 -0.466893 0
M  V30 790 O 72.589 5.65777 0.724758 0
M  V30 791 O 71.523 5.89831 -1.1993 0
M  V30 792 H 75.349 2.61016 -1.55255 0
M  V30 793 H 72.934 1.24919 -0.81949 0
M  V30 794 H 74.816 4.20234 0.313256 0
M  V30 795 H 73.491 3.12703 0.836566 0
M  V30 796 H 72.398 3.44482 -1.45886 0
M  V30 797 H 73.731 4.53996 -1.90127 0
M  V30 798 N 75.3831 0.828654 1.34056 0
M  V30 799 C 76.6601 0.341809 1.9259 0
M  V30 800 C 77.0401 -1.17158 1.75605 0
M  V30 801 O 76.3881 -1.98132 1.13824 0
M  V30 802 C 76.5981 0.777453 3.4023 0
M  V30 803 C 77.9461 0.779579 4.17382 0
M  V30 804 O 78.9701 0.7204 3.48839 0
M  V30 805 O 77.8291 0.857996 5.39723 0
M  V30 806 H 74.9231 0.0946085 0.821571 0
M  V30 807 H 77.4691 0.913827 1.42994 0
M  V30 808 H 76.2411 1.8196 3.46419 0
M  V30 809 H 75.8641 0.181444 3.97186 0
M  V30 810 N 76.8612 -1.46375 0.584142 0
M  V30 811 C 77.7912 -2.33103 -0.136037 0
M  V30 812 C 78.7722 -1.45431 -0.882255 0
M  V30 813 O 79.9572 -1.74246 -0.857434 0
M  V30 814 C 77.0872 -3.27731 -1.14933 0
M  V30 815 C 76.0412 -4.24855 -0.517862 0
M  V30 816 C 75.3672 -5.09001 -1.63773 0
M  V30 817 C 76.6672 -5.19439 0.545886 0
M  V30 818 H 78.3612 -2.93568 0.588086 0
M  V30 819 H 75.9072 -1.41166 0.284259 0
M  V30 820 H 77.8602 -3.87261 -1.66153 0
M  V30 821 H 76.5842 -2.65377 -1.90375 0
M  V30 822 H 75.2432 -3.6659 -0.0267361 0
M  V30 823 H 74.8912 -4.43031 -2.38185 0
M  V30 824 H 74.5912 -5.74777 -1.22085 0
M  V30 825 H 76.1152 -5.71396 -2.15266 0
M  V30 826 H 77.5292 -5.73177 0.118704 0
M  V30 827 H 75.9262 -5.93566 0.88317 0
M  V30 828 H 76.9962 -4.63285 1.43162 0
M  V30 829 N 78.3393 -0.321999 -1.54275 0
M  V30 830 C 79.5673 0.283052 -2.04955 0
M  V30 831 C 79.9823 1.45904 -1.19823 0
M  V30 832 O 79.3393 1.81063 -0.228545 0
M  V30 833 C 79.3903 0.719028 -3.54277 0
M  V30 834 O 79.1113 -0.410175 -4.36176 0
M  V30 835 C 80.6123 1.38705 -4.21041 0
M  V30 836 H 77.8323 0.0584616 -0.668448 0
M  V30 837 H 80.3763 -0.467734 -1.99079 0
M  V30 838 H 78.5313 1.41979 -3.60445 0
M  V30 839 H 78.9453 -0.0669416 -5.24457 0
M  V30 840 H 80.4193 1.64306 -5.2698 0
M  V30 841 H 80.8963 2.33385 -3.72059 0
M  V30 842 H 81.5023 0.728906 -4.19007 0
M  V30 843 N 79.8174 1.5752 -0.0501392 0
M  V30 844 C 81.0424 1.97376 0.636997 0
M  V30 845 C 81.4674 0.927466 1.63645 0
M  V30 846 O 80.8254 -0.10941 1.8097 0
M  V30 847 C 80.8734 3.36304 1.30123 0
M  V30 848 O 79.9774 3.34156 2.41689 0
M  V30 849 H 79.3184 0.642998 0.165679 0
M  V30 850 H 81.8484 2.04258 -0.118233 0
M  V30 851 H 81.8584 3.73008 1.65315 0
M  V30 852 H 80.5334 4.11993 0.568746 0
M  V30 853 H 79.1104 3.09196 2.08451 0
M  V30 854 N 81.2955 -0.223234 1.56011 0
M  V30 855 C 82.2585 -1.26014 1.9145 0
M  V30 856 C 83.2585 -1.3989 0.792937 0
M  V30 857 O 84.4485 -1.38184 1.0607 0
M  V30 858 C 81.5805 -2.63422 2.16383 0
M  V30 859 H 82.7735 -0.95796 2.84189 0
M  V30 860 H 80.3265 -0.463576 1.49267 0
M  V30 861 H 81.0615 -2.98741 1.2619 0
M  V30 862 H 80.8465 -2.54728 2.98088 0
M  V30 863 H 82.3365 -3.38249 2.44903 0
M  V30 864 N 82.7736 -1.49793 -0.48987 0
M  V30 865 C 84.0206 -1.59841 -1.24327 0
M  V30 866 C 84.3486 -0.290135 -1.92324 0
M  V30 867 O 83.6036 0.722749 -1.81865 0
M  V30 868 C 83.9026 -2.71488 -2.32441 0
M  V30 869 C 83.5686 -4.12614 -1.81826 0
M  V30 870 C 82.2306 -4.51017 -1.67742 0
M  V30 871 C 84.5826 -5.00892 -1.4407 0
M  V30 872 C 81.9106 -5.75459 -1.14297 0
M  V30 873 C 84.2626 -6.25863 -0.920742 0
M  V30 874 C 82.9266 -6.63086 -0.766383 0
M  V30 875 H 82.1966 -0.584899 -0.454944 0
M  V30 876 H 84.8436 -1.83663 -0.542215 0
M  V30 877 H 83.1486 -2.4168 -3.0838 0
M  V30 878 H 84.8456 -2.76469 -2.90458 0
M  V30 879 H 81.4356 -3.82307 -1.93751 0
M  V30 880 H 85.6196 -4.7187 -1.53794 0
M  V30 881 H 80.8756 -6.02989 -1.01068 0
M  V30 882 H 85.0496 -6.9364 -0.619448 0
M  V30 883 H 82.6766 -7.59393 -0.350083 0
M  V30 884 N 84.2517 0.741722 -1.39055 0
M  V30 885 C 85.6627 1.31966 -1.32068 0
M  V30 886 C 86.0137 1.96192 0.0180797 0
M  V30 887 O 85.1387 1.95861 0.920196 0
M  V30 888 C 85.7337 2.39954 -2.39181 0
M  V30 889 C 84.2927 2.93438 -2.35735 0
M  V30 890 C 83.4397 1.66936 -2.21422 0
M  V30 891 H 86.3907 0.539721 -1.4924 0
M  V30 892 H 86.4117 3.20182 -2.05581 0
M  V30 893 H 85.9237 1.9318 -3.36605 0
M  V30 894 H 84.0247 3.4451 -1.41929 0
M  V30 895 H 84.1377 3.4701 -3.30335 0
M  V30 896 H 82.5017 1.91016 -1.68478 0
M  V30 897 H 83.2847 1.22224 -3.20806 0
M  V30 898 N 85.7298 1.2412 0.971189 0
M  V30 899 C 86.6928 1.03156 2.04674 0
M  V30 900 C 87.6928 -0.00990322 1.60797 0
M  V30 901 O 88.8828 0.230729 1.72665 0
M  V30 902 C 86.0148 0.562765 3.36223 0
M  V30 903 H 87.2078 1.98614 2.24705 0
M  V30 904 H 84.7608 1.06293 1.14593 0
M  V30 905 H 85.4958 -0.395176 3.21883 0
M  V30 906 H 85.2808 1.31441 3.69413 0
M  V30 907 H 86.7708 0.437015 4.15307 0
M  V30 908 N 87.2079 -1.17134 1.05439 0
M  V30 909 C 88.1179 -2.24878 0.668365 0
M  V30 910 C 89.1339 -1.71186 -0.311687 0
M  V30 911 O 90.3099 -2.00738 -0.163161 0
M  V30 912 C 87.3749 -3.46662 0.051648 0
M  V30 913 C 86.4359 -4.15429 1.08246 0
M  V30 914 C 85.6689 -5.31399 0.495082 0
M  V30 915 O 85.8919 -5.66153 -0.694743 0
M  V30 916 O 84.8259 -5.89187 1.23056 0
M  V30 917 H 88.6519 -2.60189 1.56637 0
M  V30 918 H 86.2369 -1.24482 0.826104 0
M  V30 919 H 88.1189 -4.20394 -0.290966 0
M  V30 920 H 86.7939 -3.13142 -0.819971 0
M  V30 921 H 85.7009 -3.43704 1.47711 0
M  V30 922 H 87.0339 -4.52982 1.92532 0
M  V30 923 N 88.686 -0.835752 -1.33615 0
M  V30 924 C 89.649 -0.272 -2.2758 0
M  V30 925 C 90.649 0.557487 -1.50827 0
M  V30 926 O 91.839 0.37173 -1.70188 0
M  V30 927 C 88.971 0.617173 -3.35267 0
M  V30 928 H 90.164 -1.10111 -2.78954 0
M  V30 929 H 87.717 -0.608594 -1.43965 0
M  V30 930 H 88.452 1.46884 -2.89129 0
M  V30 931 H 88.237 0.0237066 -3.92093 0
M  V30 932 H 89.727 1.005 -4.05326 0
M  V30 933 N 90.1641 1.46063 -0.591896 0
M  V30 934 C 91.1271 2.28854 0.125973 0
M  V30 935 C 92.1271 1.38903 0.810107 0
M  V30 936 O 93.3171 1.61186 0.66066 0
M  V30 937 C 90.4491 3.19526 1.1881 0
M  V30 938 H 91.6421 2.93802 -0.601717 0
M  V30 939 H 89.1951 1.52325 -0.350254 0
M  V30 940 H 89.9301 2.59345 1.94707 0
M  V30 941 H 89.7151 3.85766 0.701936 0
M  V30 942 H 91.2051 3.81817 1.69132 0
M  V30 943 N 91.6422 0.330177 1.54103 0
M  V30 944 C 93.0582 -0.0222371 1.59585 0
M  V30 945 C 93.2582 -1.49902 1.34654 0
M  V30 946 O 92.3142 -2.25592 1.13421 0
M  V30 947 C 93.6272 0.401932 2.98002 0
M  V30 948 C 95.1752 0.353145 3.11001 0
M  V30 949 C 95.6502 0.752576 4.51775 0
M  V30 950 N 97.1412 0.706239 4.57784 0
M  V30 951 C 97.8762 0.987417 5.64834 0
M  V30 952 N 97.3722 1.33607 6.79795 0
M  V30 953 N 99.1652 0.91254 5.54643 0
M  V30 954 H 91.3162 1.29228 1.68564 0
M  V30 955 H 93.5792 0.525906 0.78875 0
M  V30 956 H 93.2852 1.4311 3.21267 0
M  V30 957 H 93.1592 -0.229699 3.765 0
M  V30 958 H 95.5462 -0.666822 2.87467 0
M  V30 959 H 95.6272 1.0198 2.34593 0
M  V30 960 H 95.2712 1.77049 4.76042 0
M  V30 961 H 95.2012 0.0635409 5.26562 0
M  V30 962 H 97.6922 0.44889 3.75224 0
M  V30 963 H 98.0052 1.53582 7.57385 0
M  V30 964 H 96.3502 1.37439 6.81275 0
M  V30 965 H 99.5412 0.639601 4.6371 0
M  V30 966 H 99.7142 1.13503 6.37982 0
M  V30 967 N 93.1203 -1.57491 0.0584922 0
M  V30 968 C 94.0523 -2.08916 -0.942694 0
M  V30 969 C 95.0653 -1.0185 -1.27006 0
M  V30 970 O 96.2543 -1.29398 -1.22957 0
M  V30 971 C 93.3543 -2.52341 -2.26224 0
M  V30 972 C 92.5273 -3.82827 -2.1157 0
M  V30 973 C 91.5863 -4.12487 -3.26712 0
M  V30 974 O 90.6123 -4.82295 -3.02292 0
M  V30 975 N 91.8143 -3.64978 -4.5141 0
M  V30 976 H 94.5793 -2.95437 -0.503722 0
M  V30 977 H 92.1403 -1.61397 -0.12757 0
M  V30 978 H 94.1323 -2.69254 -3.02133 0
M  V30 979 H 92.7023 -1.7103 -2.61663 0
M  V30 980 H 91.9223 -3.75425 -1.20208 0
M  V30 981 H 93.2103 -4.68263 -1.99015 0
M  V30 982 H 92.6083 -3.08558 -4.7414 0
M  V30 983 H 91.1653 -3.87115 -5.2439 0
M  V30 984 N 94.5984 0.214957 -1.56127 0
M  V30 985 C 95.8474 0.936451 -1.78643 0
M  V30 986 C 96.1604 1.85237 -0.628229 0
M  V30 987 O 97.3664 2.613 -0.737186 0
M  V30 988 C 95.8224 1.7154 -3.16389 0
M  V30 989 C 95.4304 0.845299 -4.39953 0
M  V30 990 C 97.1744 2.42772 -3.48227 0
M  V30 991 C 95.0814 1.62198 -5.68723 0
M  V30 992 H 94.0114 0.353401 -0.666051 0
M  V30 993 H 96.6624 0.190169 -1.82512 0
M  V30 994 H 95.0444 2.50484 -3.06715 0
M  V30 995 H 96.2184 0.0959353 -4.607 0
M  V30 996 H 94.5334 0.244789 -4.1568 0
M  V30 997 H 97.1304 3.01394 -4.41663 0
M  V30 998 H 97.4734 3.15984 -2.71035 0
M  V30 999 H 98.0064 1.70813 -3.5926 0
M  V30 1000 H 94.7454 0.933011 -6.48826 0
M  V30 1001 H 94.2654 2.34579 -5.52026 0
M  V30 1002 H 95.9444 2.18095 -6.09133 0
M  V30 1003 N 96.0765 1.50051 0.48192 0
M  V30 1004 C 97.3245 1.60181 1.23234 0
M  V30 1005 C 97.6455 0.299176 1.92691 0
M  V30 1006 O 96.9155 -0.682708 1.83619 0
M  V30 1007 H 95.4955 0.590232 0.457859 0
M  V30 1008 H 98.1575 1.86775 0.556881 0
M  V30 1009 H 97.2535 2.40753 1.98607 0
M  V30 1010 N 97.5546 -0.734337 1.39446 0
M  V30 1011 C 98.4876 -1.85715 1.32609 0
M  V30 1012 C 99.4656 -1.6137 0.199636 0
M  V30 1013 O 100.65 -1.84626 0.380195 0
M  V30 1014 C 97.7766 -3.21709 1.05929 0
M  V30 1015 C 96.8226 -3.64913 2.20773 0
M  V30 1016 S 97.6556 -3.74203 3.83056 0
M  V30 1017 C 98.8116 -5.12986 3.58603 0
M  V30 1018 H 99.0446 -1.91232 2.27635 0
M  V30 1019 H 96.5776 -0.899263 1.25509 0
M  V30 1020 H 98.5356 -4.00236 0.912203 0
M  V30 1021 H 97.1966 -3.13848 0.125883 0
M  V30 1022 H 96.3896 -4.63606 1.97699 0
M  V30 1023 H 95.9916 -2.93593 2.31688 0
M  V30 1024 H 98.2836 -5.99339 3.15909 0
M  V30 1025 H 99.2266 -5.41088 4.5676 0
M  V30 1026 H 99.6346 -4.82694 2.9269 0
M  V30 1027 N 99.0327 -1.24633 -0.964593 0
M  V30 1028 C 99.9827 -1.00841 -2.04487 0
M  V30 1029 C 100.967 0.0512468 -1.60818 0
M  V30 1030 O 102.159 -0.162865 -1.76249 0
M  V30 1031 C 99.2877 -0.618474 -3.37683 0
M  V30 1032 C 98.3737 -1.71437 -3.87905 0
M  V30 1033 N 98.7647 -2.9477 -4.11029 0
M  V30 1034 C 97.0627 -1.5926 -4.16596 0
M  V30 1035 C 97.7637 -3.65834 -4.52261 0
M  V30 1036 N 96.7397 -2.9341 -4.57615 0
M  V30 1037 H 100.542 -1.94487 -2.20345 0
M  V30 1038 H 98.0557 -1.14805 -1.14863 0
M  V30 1039 H 100.053 -0.429247 -4.14684 0
M  V30 1040 H 98.7127 0.310766 -3.23209 0
M  V30 1041 H 99.7237 -3.30917 -3.9839 0
M  V30 1042 H 96.4007 -0.731606 -4.1104 0
M  V30 1043 H 97.7907 -4.71646 -4.78539 0
M  V30 1044 N 100.511 1.16574 -1.06058 0
M  V30 1045 C 101.927 1.3904 -0.783585 0
M  V30 1046 C 102.127 1.91784 0.618145 0
M  V30 1047 O 101.183 2.11511 1.37911 0
M  V30 1048 C 102.496 2.37329 -1.84649 0
M  V30 1049 C 104.044 2.51018 -1.86973 0
M  V30 1050 C 104.519 3.52588 -2.92311 0
M  V30 1051 N 106.01 3.60113 -2.91329 0
M  V30 1052 C 106.745 4.38486 -3.69482 0
M  V30 1053 N 106.241 5.20302 -4.57447 0
M  V30 1054 N 108.034 4.33446 -3.57885 0
M  V30 1055 H 100.185 0.806725 -1.96483 0
M  V30 1056 H 102.448 0.417117 -0.851303 0
M  V30 1057 H 102.154 2.05663 -2.85299 0
M  V30 1058 H 102.028 3.36946 -1.6955 0
M  V30 1059 H 104.415 2.81989 -0.869827 0
M  V30 1060 H 104.496 1.51445 -2.0615 0
M  V30 1061 H 104.14 3.22354 -3.92492 0
M  V30 1062 H 104.07 4.51886 -2.70383 0
M  V30 1063 H 106.561 3.01707 -2.27555 0
M  V30 1064 H 106.874 5.77311 -5.13743 0
M  V30 1065 H 105.219 5.19653 -4.61503 0
M  V30 1066 H 108.41 3.68586 -2.88551 0
M  V30 1067 H 108.583 4.94279 -4.19037 0
M  V30 1068 N 101.989 0.842826 1.3317 0
M  V30 1069 C 103.235 0.441099 1.97945 0
M  V30 1070 C 103.568 -0.998024 1.66593 0
M  V30 1071 O 102.843 -1.69839 0.947898 0
M  V30 1072 C 103.126 0.666841 3.53872 0
M  V30 1073 C 102.979 2.15352 3.94897 0
M  V30 1074 C 104.298 0.115544 4.39948 0
M  V30 1075 H 101.417 0.161739 0.719034 0
M  V30 1076 H 104.059 1.05907 1.57746 0
M  V30 1077 H 102.209 0.140828 3.88245 0
M  V30 1078 H 103.881 2.7447 3.70761 0
M  V30 1079 H 102.124 2.63653 3.44484 0
M  V30 1080 H 102.795 2.26221 5.03516 0
M  V30 1081 H 105.271 0.565213 4.12243 0
M  V30 1082 H 104.147 0.303152 5.48062 0
M  V30 1083 H 104.408 -0.980935 4.3108 0
M  V30 1084 N 103.467 -1.45747 0.599634 0
M  V30 1085 C 104.878 -1.85853 0.177681 0
M  V30 1086 C 105.229 -1.50102 -1.26348 0
M  V30 1087 O 104.354 -0.923905 -1.95686 0
M  V30 1088 C 104.949 -3.37326 0.315688 0
M  V30 1089 C 103.508 -3.76365 -0.0515144 0
M  V30 1090 C 102.655 -2.69722 0.643822 0
M  V30 1091 H 105.606 -1.36661 0.806814 0
M  V30 1092 H 105.627 -3.77778 -0.454321 0
M  V30 1093 H 105.139 -3.63315 1.36468 0
M  V30 1094 H 103.24 -3.55993 -1.09999 0
M  V30 1095 H 103.353 -4.77916 0.336594 0
M  V30 1096 H 101.717 -2.54567 0.0822881 0
M  V30 1097 H 102.5 -2.98549 1.6948 0
M  V30 1098 N 104.945 -0.338344 -1.53925 0
M  V30 1099 C 105.875 0.51328 -2.27789 0
M  V30 1100 C 106.856 1.107 -1.29149 0
M  V30 1101 O 108.041 1.12937 -1.57984 0
M  V30 1102 C 105.171 1.66697 -3.04679 0
M  V30 1103 C 104.125 1.20183 -4.1078 0
M  V30 1104 C 103.451 2.44363 -4.75595 0
M  V30 1105 C 104.751 0.30605 -5.21403 0
M  V30 1106 H 106.445 -0.102883 -2.99223 0
M  V30 1107 H 103.991 -0.0509219 -1.4391 0
M  V30 1108 H 105.944 2.26915 -3.55088 0
M  V30 1109 H 104.668 2.30995 -2.30887 0
M  V30 1110 H 103.327 0.622499 -3.61276 0
M  V30 1111 H 102.975 3.07057 -3.98403 0
M  V30 1112 H 102.675 2.13925 -5.47275 0
M  V30 1113 H 104.199 3.05317 -5.28786 0
M  V30 1114 H 105.613 0.814929 -5.67478 0
M  V30 1115 H 104.01 0.0937929 -6.00027 0
M  V30 1116 H 105.08 -0.65921 -4.80398 0
M  V30 1117 N 106.423 1.57458 -0.0668435 0
M  V30 1118 C 107.353 2.15468 0.899764 0
M  V30 1119 C 108.334 1.08042 1.31381 0
M  V30 1120 O 109.519 1.36054 1.38574 0
M  V30 1121 C 106.649 2.71232 2.16911 0
M  V30 1122 C 105.603 3.83781 1.89463 0
M  V30 1123 C 104.929 4.26127 3.22986 0
M  V30 1124 C 106.229 5.08238 1.20381 0
M  V30 1125 H 107.923 2.96488 0.416529 0
M  V30 1126 H 105.469 1.4262 0.198908 0
M  V30 1127 H 107.422 3.10458 2.84945 0
M  V30 1128 H 106.146 1.87426 2.67468 0
M  V30 1129 H 104.805 3.45051 1.23836 0
M  V30 1130 H 104.453 3.39249 3.71374 0
M  V30 1131 H 104.153 5.01993 3.05413 0
M  V30 1132 H 105.677 4.67966 3.92225 0
M  V30 1133 H 107.091 5.44811 1.78475 0
M  V30 1134 H 105.488 5.89349 1.13083 0
M  V30 1135 H 106.558 4.84558 0.182153 0
M  V30 1136 N 107.901 -0.206675 1.56239 0
M  V30 1137 C 109.126 -0.949474 1.8439 0
M  V30 1138 C 109.551 -1.76549 0.649016 0
M  V30 1139 O 108.909 -1.76782 -0.402231 0
M  V30 1140 C 108.957 -1.83078 3.10668 0
M  V30 1141 O 108.061 -2.9281 2.90407 0
M  V30 1142 H 107.402 -0.268033 0.607499 0
M  V30 1143 H 109.932 -0.215488 2.03462 0
M  V30 1144 H 109.942 -2.2377 3.41161 0
M  V30 1145 H 108.617 -1.23112 3.97261 0
M  V30 1146 H 107.194 -2.55956 2.71184 0
M  V30 1147 N 109.379 -1.50304 -0.473955 0
M  V30 1148 C 110.342 -1.6841 -1.55469 0
M  V30 1149 C 111.342 -0.554905 -1.50922 0
M  V30 1150 O 112.532 -0.821882 -1.53593 0
M  V30 1151 C 109.664 -1.70667 -2.95102 0
M  V30 1152 H 110.857 -2.64828 -1.40733 0
M  V30 1153 H 108.41 -1.39742 -0.700132 0
M  V30 1154 H 109.145 -0.75932 -3.15285 0
M  V30 1155 H 108.93 -2.52698 -2.9981 0
M  V30 1156 H 110.42 -1.8664 -3.73571 0
M  V30 1157 N 110.857 0.726932 -1.39834 0
M  V30 1158 C 112.273 1.03354 -1.21615 0
M  V30 1159 C 112.473 2.01327 -0.08338 0
M  V30 1160 O 111.529 2.46158 0.56238 0
M  V30 1161 C 112.842 1.58811 -2.55342 0
M  V30 1162 C 114.39 1.70851 -2.62257 0
M  V30 1163 C 114.865 2.29716 -3.96225 0
M  V30 1164 N 116.356 2.37116 -3.97907 0
M  V30 1165 C 117.091 2.83619 -4.98345 0
M  V30 1166 N 116.587 3.29958 -6.09179 0
M  V30 1167 N 118.38 2.82901 -4.8572 0
M  V30 1168 H 110.531 0.0773069 -2.12259 0
M  V30 1169 H 112.794 0.0969102 -0.943034 0
M  V30 1170 H 112.5 0.942855 -3.38826 0
M  V30 1171 H 112.374 2.57502 -2.75632 0
M  V30 1172 H 114.761 2.34497 -1.79152 0
M  V30 1173 H 114.842 0.707913 -2.45809 0
M  V30 1174 H 114.486 1.66696 -4.79765 0
M  V30 1175 H 114.416 3.30469 -4.09997 0
M  V30 1176 H 116.907 2.04374 -3.17868 0
M  V30 1177 H 117.22 3.63976 -6.8172 0
M  V30 1178 H 115.565 3.27946 -6.12761 0
M  V30 1179 H 118.756 2.46027 -3.98231 0
M  V30 1180 H 118.929 3.18827 -5.6414 0
M  V30 1181 N 112.336 1.25143 0.95797 0
M  V30 1182 C 113.246 1.06968 2.08794 0
M  V30 1183 C 114.262 0.00773911 1.73998 0
M  V30 1184 O 115.438 0.207972 2.00323 0
M  V30 1185 C 112.503 0.68691 3.39827 0
M  V30 1186 C 111.564 1.82641 3.88511 0
M  V30 1187 C 110.797 1.46181 5.1329 0
M  V30 1188 O 111.02 0.355971 5.69288 0
M  V30 1189 O 109.954 2.29085 5.566 0
M  V30 1190 H 113.78 2.01723 2.27027 0
M  V30 1191 H 111.365 1.04051 1.07209 0
M  V30 1192 H 113.247 0.485417 4.18595 0
M  V30 1193 H 111.922 -0.231417 3.22872 0
M  V30 1194 H 110.829 2.08274 3.10762 0
M  V30 1195 H 112.162 2.72386 4.09959 0
M  V30 1196 N 113.814 -1.1601 1.06675 0
M  V30 1197 C 115.06 -1.86909 0.786945 0
M  V30 1198 C 115.393 -1.81717 -0.685018 0
M  V30 1199 O 114.668 -1.23551 -1.50218 0
M  V30 1200 C 114.951 -3.36313 1.28707 0
M  V30 1201 C 114.804 -3.50175 2.82308 0
M  V30 1202 C 116.123 -4.3084 0.898071 0
M  V30 1203 H 113.242 -0.678677 0.287343 0
M  V30 1204 H 115.884 -1.36336 1.32334 0
M  V30 1205 H 114.034 -3.79513 0.830768 0
M  V30 1206 H 115.706 -3.15886 3.36175 0
M  V30 1207 H 113.949 -2.91959 3.20847 0
M  V30 1208 H 114.62 -4.55116 3.12368 0
M  V30 1209 H 117.096 -3.95561 1.29114 0
M  V30 1210 H 115.972 -5.33876 1.27543 0
M  V30 1211 H 116.233 -4.41662 -0.196651 0
M  V30 1212 N 115.292 -0.849877 -1.32721 0
M  V30 1213 C 116.703 -0.506188 -1.79707 0
M  V30 1214 C 117.054 0.975627 -1.70223 0
M  V30 1215 O 116.179 1.76078 -1.25799 0
M  V30 1216 C 116.774 -0.912044 -3.26293 0
M  V30 1217 C 115.333 -0.620326 -3.71253 0
M  V30 1218 C 114.48 -1.11439 -2.53922 0
M  V30 1219 H 117.431 -1.03754 -1.20087 0
M  V30 1220 H 117.452 -0.226493 -3.79825 0
M  V30 1221 H 116.964 -1.99057 -3.33164 0
M  V30 1222 H 115.065 0.447674 -3.69901 0
M  V30 1223 H 115.178 -1.18327 -4.64258 0
M  V30 1224 H 113.542 -0.534834 -2.49021 0
M  V30 1225 H 114.325 -2.19992 -2.6355 0
M  V30 1226 N 116.77 1.45427 -0.607355 0
M  V30 1227 C 118.016 2.0254 -0.102607 0
M  V30 1228 C 118.349 1.47478 1.26348 0
M  V30 1229 O 117.624 0.64939 1.83339 0
M  V30 1230 C 117.907 3.60044 -0.0634347 0
M  V30 1231 C 117.76 4.2544 -1.46017 0
M  V30 1232 C 119.079 4.35646 0.624514 0
M  V30 1233 H 116.198 0.73598 -0.0387607 0
M  V30 1234 H 118.84 1.73284 -0.779282 0
M  V30 1235 H 116.99 3.85101 0.512808 0
M  V30 1236 H 118.662 4.11569 -2.08347 0
M  V30 1237 H 116.905 3.83849 -2.02094 0
M  V30 1238 H 117.576 5.34342 -1.385 0
M  V30 1239 H 120.052 4.15882 0.134723 0
M  V30 1240 H 118.928 5.45376 0.621028 0
M  V30 1241 H 119.189 4.08501 1.69055 0
M  V30 1242 N 118.248 0.346503 1.53744 0
M  V30 1243 C 119.659 -0.136779 1.86198 0
M  V30 1244 C 120.01 -1.49749 1.26766 0
M  V30 1245 O 119.135 -2.08417 0.582355 0
M  V30 1246 C 119.73 -0.254966 3.37839 0
M  V30 1247 C 118.289 -0.682482 3.70161 0
M  V30 1248 C 117.436 0.181981 2.76702 0
M  V30 1249 H 120.387 0.565994 1.48264 0
M  V30 1250 H 120.408 -1.08195 3.64793 0
M  V30 1251 H 119.92 0.735526 3.81066 0
M  V30 1252 H 118.021 -1.68189 3.3248 0
M  V30 1253 H 118.134 -0.470326 4.76786 0
M  V30 1254 H 116.498 -0.34615 2.52337 0
M  V30 1255 H 117.281 1.16966 3.2276 0
M  V30 1256 N 119.726 -1.57421 0.075193 0
M  V30 1257 C 120.974 -1.93236 -0.591974 0
M  V30 1258 C 121.295 -0.956241 -1.69944 0
M  V30 1259 O 120.565 -0.00494792 -1.95899 0
M  V30 1260 H 119.145 -0.713355 -0.22166 0
M  V30 1261 H 121.807 -1.9444 0.133848 0
M  V30 1262 H 120.903 -2.95131 -1.01509 0
M  V30 1263 N 121.204 0.198386 -1.56346 0
M  V30 1264 C 122.429 0.939682 -1.84891 0
M  V30 1265 C 122.854 1.76202 -0.658369 0
M  V30 1266 O 122.212 1.76993 0.392851 0
M  V30 1267 C 122.26 1.81428 -3.11635 0
M  V30 1268 O 121.364 2.91265 -2.91956 0
M  V30 1269 H 120.705 0.264807 -0.608912 0
M  V30 1270 H 123.235 0.204695 -2.03573 0
M  V30 1271 H 123.245 2.21958 -3.42343 0
M  V30 1272 H 121.92 1.21004 -3.97908 0
M  V30 1273 H 120.497 2.54514 -2.72538 0
M  V30 1274 N 122.682 1.50554 0.465978 0
M  V30 1275 C 123.612 1.72722 1.57128 0
M  V30 1276 C 124.593 0.576294 1.6004 0
M  V30 1277 O 125.778 0.81598 1.76225 0
M  V30 1278 C 122.908 1.82605 2.95419 0
M  V30 1279 C 121.862 2.97835 3.07373 0
M  V30 1280 C 121.188 2.92867 4.47363 0
M  V30 1281 C 122.488 4.38265 2.84114 0
M  V30 1282 H 124.182 2.65267 1.38829 0
M  V30 1283 H 121.728 1.2765 0.666441 0
M  V30 1284 H 123.681 1.96698 3.72677 0
M  V30 1285 H 122.405 0.866858 3.14886 0
M  V30 1286 H 121.064 2.83401 2.3255 0
M  V30 1287 H 120.712 1.94783 4.63755 0
M  V30 1288 H 120.412 3.70227 4.56296 0
M  V30 1289 H 121.936 3.09015 5.26633 0
M  V30 1290 H 123.35 4.53198 3.51118 0
M  V30 1291 H 121.747 5.17115 3.04487 0
M  V30 1292 H 122.817 4.50281 1.7993 0
M  V30 1293 N 124.16 -0.719506 1.40217 0
M  V30 1294 C 125.571 -1.29848 1.34151 0
M  V30 1295 C 125.922 -1.96196 0.0131349 0
M  V30 1296 O 125.047 -1.973 -0.88892 0
M  V30 1297 C 125.642 -2.36118 2.42968 0
M  V30 1298 C 124.201 -2.8965 2.40374 0
M  V30 1299 C 123.348 -1.63393 2.24049 0
M  V30 1300 H 126.299 -0.51591 1.5008 0
M  V30 1301 H 126.32 -3.16871 2.10649 0
M  V30 1302 H 125.832 -1.878 3.39636 0
M  V30 1303 H 123.933 -3.42208 1.47392 0
M  V30 1304 H 124.046 -3.4171 3.35814 0
M  V30 1305 H 122.41 -1.88312 1.71495 0
M  V30 1306 H 123.193 -1.17104 3.2271 0
M  V30 1307 N 125.638 -1.25649 -0.95132 0
M  V30 1308 C 127.054 -1.02542 -1.223 0
M  V30 1309 C 127.254 0.255715 -1.99871 0
M  V30 1310 O 126.31 0.967558 -2.33226 0
M  V30 1311 C 127.623 -2.25065 -1.99415 0
M  V30 1312 C 129.171 -2.29861 -2.12446 0
M  V30 1313 C 129.646 -3.52048 -2.92961 0
M  V30 1314 N 131.137 -3.52465 -3.00538 0
M  V30 1315 C 131.872 -4.43672 -3.63239 0
M  V30 1316 N 131.368 -5.45157 -4.27523 0
M  V30 1317 N 133.161 -4.31346 -3.60412 0
M  V30 1318 H 125.312 -2.07951 -0.432471 0
M  V30 1319 H 127.575 -0.91339 -0.253816 0
M  V30 1320 H 127.281 -3.18194 -1.49817 0
M  V30 1321 H 127.155 -2.28502 -3.00111 0
M  V30 1322 H 129.542 -1.37252 -2.61239 0
M  V30 1323 H 129.623 -2.3044 -1.11044 0
M  V30 1324 H 129.267 -4.44981 -2.44856 0
M  V30 1325 H 129.197 -3.48715 -3.94596 0
M  V30 1326 H 131.688 -2.79056 -2.54826 0
M  V30 1327 H 132.001 -6.10958 -4.73234 0
M  V30 1328 H 130.346 -5.49025 -4.26141 0
M  V30 1329 H 133.537 -3.51288 -3.09377 0
M  V30 1330 H 133.71 -5.02624 -4.0899 0
M  V30 1331 N 127.117 1.15442 -1.07289 0
M  V30 1332 C 128.363 1.86489 -0.796846 0
M  V30 1333 C 128.696 1.82078 0.675371 0
M  V30 1334 O 127.971 1.24346 1.4956 0
M  V30 1335 C 128.254 3.35626 -1.30489 0
M  V30 1336 C 128.107 3.48673 -2.84161 0
M  V30 1337 C 129.426 4.30357 -0.920907 0
M  V30 1338 H 126.545 0.677144 -0.290939 0
M  V30 1339 H 129.187 1.35633 -1.33056 0
M  V30 1340 H 127.337 3.79068 -0.850883 0
M  V30 1341 H 129.009 3.14099 -3.37846 0
M  V30 1342 H 127.252 2.90253 -3.22391 0
M  V30 1343 H 127.923 4.53453 -3.14777 0
M  V30 1344 H 130.399 3.94871 -1.3121 0
M  V30 1345 H 129.275 5.33193 -1.30372 0
M  V30 1346 H 129.536 4.4176 0.173226 0
M  V30 1347 N 128.595 0.856903 1.32268 0
M  V30 1348 C 129.844 0.457599 1.96441 0
M  V30 1349 C 130.157 -0.992426 1.68553 0
M  V30 1350 O 131.363 -1.49727 2.26482 0
M  V30 1351 C 129.819 0.767358 3.51624 0
M  V30 1352 C 129.427 2.23326 3.88367 0
M  V30 1353 C 131.171 0.435887 4.22256 0
M  V30 1354 C 129.078 2.48613 5.36606 0
M  V30 1355 H 128.008 0.167387 0.735185 0
M  V30 1356 H 130.659 1.048 1.5063 0
M  V30 1357 H 129.041 0.106367 3.95857 0
M  V30 1358 H 130.215 2.93623 3.55137 0
M  V30 1359 H 128.53 2.52948 3.30766 0
M  V30 1360 H 131.127 0.602202 5.31298 0
M  V30 1361 H 131.47 -0.622672 4.11617 0
M  V30 1362 H 132.003 1.05286 3.83614 0
M  V30 1363 H 128.742 3.53101 5.52268 0
M  V30 1364 H 128.262 1.82896 5.71235 0
M  V30 1365 H 129.941 2.32676 6.03714 0
M  V30 1366 N 130.073 -1.45103 0.615059 0
M  V30 1367 C 131.489 -1.57137 0.279322 0
M  V30 1368 C 131.689 -1.60523 -1.21797 0
M  V30 1369 O 130.745 -1.53956 -2.00134 0
M  V30 1370 C 132.058 -2.85062 0.957083 0
M  V30 1371 C 133.606 -2.98749 0.933706 0
M  V30 1372 C 134.081 -4.29455 1.59162 0
M  V30 1373 N 135.572 -4.36231 1.55746 0
M  V30 1374 C 136.307 -5.36051 2.0356 0
M  V30 1375 N 135.803 -6.42367 2.59494 0
M  V30 1376 N 137.596 -5.27456 1.94284 0
M  V30 1377 H 129.747 -1.41148 1.58717 0
M  V30 1378 H 132.01 -0.675331 0.665306 0
M  V30 1379 H 131.716 -2.88488 2.01166 0
M  V30 1380 H 131.59 -3.7407 0.48494 0
M  V30 1381 H 133.977 -2.94886 -0.112347 0
M  V30 1382 H 134.058 -2.11132 1.44419 0
M  V30 1383 H 133.702 -4.34077 2.63704 0
M  V30 1384 H 133.632 -5.15901 1.0561 0
M  V30 1385 H 136.123 -3.60011 1.14893 0
M  V30 1386 H 136.436 -7.14793 2.93752 0
M  V30 1387 H 134.781 -6.43097 2.63537 0
M  V30 1388 H 137.972 -4.43308 1.5032 0
M  V30 1389 H 138.145 -6.05099 2.3186 0
M  V30 1390 N 131.551 -0.354651 -1.53558 0
M  V30 1391 C 132.797 0.238797 -2.01389 0
M  V30 1392 C 133.13 1.49309 -1.2418 0
M  V30 1393 O 132.405 1.91638 -0.332457 0
M  V30 1394 C 132.688 0.541771 -3.56001 0
M  V30 1395 C 132.541 -0.725388 -4.43912 0
M  V30 1396 C 133.86 1.34685 -4.18984 0
M  V30 1397 H 130.979 0.0853177 -0.732045 0
M  V30 1398 H 133.621 -0.477384 -1.83905 0
M  V30 1399 H 131.771 1.15189 -3.71031 0
M  V30 1400 H 133.443 -1.36313 -4.407 0
M  V30 1401 H 131.686 -1.34801 -4.12324 0
M  V30 1402 H 132.357 -0.468505 -5.50008 0
M  V30 1403 H 134.833 0.830837 -4.07721 0
M  V30 1404 H 133.709 1.52759 -5.27215 0
M  V30 1405 H 133.97 2.35221 -3.74331 0
M  V30 1406 N 133.029 1.57378 -0.0835403 0
M  V30 1407 C 133.959 2.1641 0.87686 0
M  V30 1408 C 134.94 1.09429 1.30228 0
M  V30 1409 O 136.125 1.37516 1.37124 0
M  V30 1410 C 133.255 2.73517 2.14022 0
M  V30 1411 C 132.209 3.85769 1.85381 0
M  V30 1412 C 131.535 4.29529 3.18448 0
M  V30 1413 C 132.835 5.09486 1.14984 0
M  V30 1414 H 134.529 2.96914 0.385059 0
M  V30 1415 H 132.075 1.42823 0.18377 0
M  V30 1416 H 134.028 3.13463 2.81636 0
M  V30 1417 H 132.752 1.90252 2.65465 0
M  V30 1418 H 131.411 3.46345 1.20169 0
M  V30 1419 H 131.059 3.43169 3.67755 0
M  V30 1420 H 130.759 5.05204 3.00071 0
M  V30 1421 H 132.283 4.72099 3.8724 0
M  V30 1422 H 133.697 5.46674 1.72687 0
M  V30 1423 H 132.094 5.90515 1.06826 0
M  V30 1424 H 133.164 4.84724 0.130749 0
M  V30 1425 N 134.507 -0.190092 1.56449 0
M  V30 1426 C 135.47 -1.21925 1.9408 0
M  V30 1427 C 136.47 -1.38176 0.822431 0
M  V30 1428 O 137.66 -1.35903 1.08977 0
M  V30 1429 C 134.792 -2.58773 2.21922 0
M  V30 1430 H 135.985 -0.897464 2.86157 0
M  V30 1431 H 133.538 -0.43181 1.50217 0
M  V30 1432 H 134.273 -2.95998 1.32499 0
M  V30 1433 H 134.058 -2.48348 3.03424 0
M  V30 1434 H 135.548 -3.32978 2.52022 0
M  V30 1435 N 135.985 -1.50799 -0.457987 0
M  V30 1436 C 136.915 -1.73553 -1.5621 0
M  V30 1437 C 137.896 -0.584774 -1.59732 0
M  V30 1438 O 139.081 -0.825314 -1.7579 0
M  V30 1439 C 136.211 -1.84169 -2.94447 0
M  V30 1440 C 135.165 -2.99461 -3.0579 0
M  V30 1441 C 134.491 -2.95235 -4.45803 0
M  V30 1442 C 135.791 -4.39766 -2.81786 0
M  V30 1443 H 137.485 -2.66 -1.37421 0
M  V30 1444 H 135.031 -1.28002 -0.659662 0
M  V30 1445 H 136.984 -1.98672 -3.71628 0
M  V30 1446 H 135.708 -0.883545 -3.14422 0
M  V30 1447 H 134.367 -2.8463 -2.31044 0
M  V30 1448 H 134.015 -1.97239 -4.62715 0
M  V30 1449 H 133.715 -3.72642 -4.54326 0
M  V30 1450 H 135.239 -3.11803 -5.24987 0
M  V30 1451 H 136.653 -4.55054 -3.4871 0
M  V30 1452 H 135.05 -5.18722 -3.0174 0
M  V30 1453 H 136.12 -4.51229 -1.7754 0
M  V30 1454 N 137.463 0.71206 -1.40597 0
M  V30 1455 C 138.709 1.47292 -1.40274 0
M  V30 1456 C 139.064 1.92399 -0.00576812 0
M  V30 1457 O 138.357 1.65507 0.965297 0
M  V30 1458 C 138.551 2.71039 -2.32965 0
M  V30 1459 C 138.38 2.38035 -3.81536 0
M  V30 1460 C 137.15 2.29203 -4.50327 0
M  V30 1461 C 139.348 2.02076 -4.72938 0
M  V30 1462 N 137.33 1.88911 -5.84111 0
M  V30 1463 C 138.701 1.72412 -5.95545 0
M  V30 1464 C 140.756 1.88742 -4.60739 0
M  V30 1465 C 139.459 1.30756 -7.07316 0
M  V30 1466 C 141.485 1.4849 -5.72455 0
M  V30 1467 C 140.847 1.19726 -6.94151 0
M  V30 1468 H 136.946 0.536919 -0.568544 0
M  V30 1469 H 139.53 0.825424 -1.76337 0
M  V30 1470 H 137.701 3.33533 -1.99023 0
M  V30 1471 H 139.433 3.37404 -2.23474 0
M  V30 1472 H 136.188 2.47059 -4.04053 0
M  V30 1473 H 136.612 1.71293 -6.54972 0
M  V30 1474 H 141.254 2.0964 -3.67166 0
M  V30 1475 H 138.972 1.08601 -8.00769 0
M  V30 1476 H 142.558 1.38747 -5.65014 0
M  V30 1477 H 141.438 0.890482 -7.79128 0
M  V30 1478 N 138.941 1.26152 0.944643 0
M  V30 1479 C 139.889 1.07215 2.06417 0
M  V30 1480 C 140.883 9.2007e-05 1.694 0
M  V30 1481 O 142.089 0.1565 1.79318 0
M  V30 1482 H 138.464 0.329837 0.675805 0
M  V30 1483 H 140.435 2.02099 2.19541 0
M  V30 1484 C 139.184 0.718197 3.40202 0
M  V30 1485 H 138.507 1.53497 3.69159 0
M  V30 1486 H 139.947 0.625459 4.19361 0
M  V30 1487 C 138.406 -0.576435 3.31932 0
M  V30 1488 O 138.936 -1.61574 3.67773 0
M  V30 1489 N 137.142 -0.565781 2.85039 0
M  V30 1490 H 136.689 0.280367 2.5607 0
M  V30 1491 H 136.647 -1.43213 2.79888 0
M  V30 1492 N 140.419 -1.14872 1.07899 0
M  V30 1493 C 141.647 -1.89661 0.82683 0
M  V30 1494 C 142.062 -1.78312 -0.620519 0
M  V30 1495 O 141.419 -1.13888 -1.42604 0
M  V30 1496 C 141.47 -3.39817 1.23316 0
M  V30 1497 O 141.191 -3.50845 2.62372 0
M  V30 1498 C 142.692 -4.31615 1.0111 0
M  V30 1499 H 139.912 -0.60092 0.298557 0
M  V30 1500 H 142.456 -1.4551 1.43691 0
M  V30 1501 H 140.611 -3.8161 0.667286 0
M  V30 1502 H 141.025 -4.44076 2.79101 0
M  V30 1503 H 142.499 -5.35367 1.34486 0
M  V30 1504 H 142.976 -4.39169 -0.0522168 0
M  V30 1505 H 143.582 -3.95572 1.56215 0
M  V30 1506 N 141.898 -0.863906 -1.31812 0
M  V30 1507 C 143.175 -0.39275 -1.91616 0
M  V30 1508 C 143.555 1.12461 -1.7865 0
M  V30 1509 O 142.903 1.95045 -1.19037 0
M  V30 1510 C 143.113 -0.867385 -3.38049 0
M  V30 1511 C 144.461 -0.889966 -4.15168 0
M  V30 1512 O 145.485 -0.812635 -3.46806 0
M  V30 1513 O 144.344 -1.00079 -5.37258 0
M  V30 1514 H 141.438 -0.116358 -0.818773 0
M  V30 1515 H 143.984 -0.951418 -1.40521 0
M  V30 1516 H 142.756 -1.91081 -3.41473 0
M  V30 1517 H 142.379 -0.286687 -3.96565 0
M  V30 1518 N 143.376 1.44774 -0.622745 0
M  V30 1519 C 144.604 2.06487 -0.130722 0
M  V30 1520 C 145.019 1.46476 1.19123 0
M  V30 1521 O 144.376 0.584502 1.72887 0
M  V30 1522 C 144.427 3.615 -0.000807207 0
M  V30 1523 O 144.148 4.19274 -1.27048 0
M  V30 1524 C 145.649 4.40229 0.520898 0
M  V30 1525 H 142.869 0.666704 -0.0758106 0
M  V30 1526 H 145.413 1.85779 -0.854774 0
M  V30 1527 H 143.568 3.81498 0.673643 0
M  V30 1528 H 143.982 5.12622 -1.1099 0
M  V30 1529 H 145.456 5.49144 0.560838 0
M  V30 1530 H 145.933 4.1108 1.54627 0
M  V30 1531 H 146.539 4.25131 -0.120018 0
M  V30 1532 N 144.854 0.36279 1.53368 0
M  V30 1533 C 146.265 -0.117022 1.86333 0
M  V30 1534 C 146.616 -1.48397 1.28347 0
M  V30 1535 O 145.741 -2.07787 0.604428 0
M  V30 1536 C 146.336 -0.21912 3.38091 0
M  V30 1537 C 144.895 -0.643184 3.70864 0
M  V30 1538 C 144.042 0.211318 2.76494 0
M  V30 1539 H 146.993 0.581687 1.47655 0
M  V30 1540 H 147.014 -1.04319 3.6592 0
M  V30 1541 H 146.526 0.775902 3.80265 0
M  V30 1542 H 144.627 -1.64654 3.34245 0
M  V30 1543 H 144.74 -0.41973 4.77258 0
M  V30 1544 H 143.104 -0.319367 2.5269 0
M  V30 1545 H 143.887 1.20383 3.21501 0
M  V30 1546 N 146.332 -1.57332 0.0918853 0
M  V30 1547 C 147.264 -2.10869 -0.898168 0
M  V30 1548 C 148.277 -1.04521 -1.24817 0
M  V30 1549 O 149.466 -1.31977 -1.20184 0
M  V30 1550 C 146.566 -2.57083 -2.2082 0
M  V30 1551 C 145.739 -3.87229 -2.03402 0
M  V30 1552 C 144.798 -4.19324 -3.17889 0
M  V30 1553 O 143.824 -4.88598 -2.91994 0
M  V30 1554 N 145.026 -3.74471 -4.43567 0
M  V30 1555 H 147.791 -2.96439 -0.440943 0
M  V30 1556 H 145.352 -1.61631 -0.0933064 0
M  V30 1557 H 147.344 -2.75602 -2.96354 0
M  V30 1558 H 145.914 -1.76541 -2.57977 0
M  V30 1559 H 145.134 -3.7789 -1.12218 0
M  V30 1560 H 146.422 -4.72379 -1.89038 0
M  V30 1561 H 145.82 -3.18546 -4.67488 0
M  V30 1562 H 144.377 -3.98151 -5.16061 0
M  V30 1563 N 147.81 0.181792 -1.56548 0
M  V30 1564 C 149.087 0.926765 -1.72251 0
M  V30 1565 C 149.467 2.00831 -0.650386 0
M  V30 1566 O 148.815 2.26008 0.336521 0
M  V30 1567 C 149.025 1.50106 -3.1507 0
M  V30 1568 C 150.373 1.97805 -3.75711 0
M  V30 1569 O 151.397 1.59922 -3.18282 0
M  V30 1570 O 150.256 2.67555 -4.76525 0
M  V30 1571 H 147.35 0.435506 -0.703039 0
M  V30 1572 H 149.896 0.170443 -1.68842 0
M  V30 1573 H 148.668 0.72212 -3.84579 0
M  V30 1574 H 148.291 2.32186 -3.22763 0
M  V30 1575 N 149.288 1.51039 0.449983 0
M  V30 1576 C 150.704 1.38934 0.785462 0
M  V30 1577 C 150.904 0.461817 1.96136 0
M  V30 1578 O 149.96 -0.0877389 2.52348 0
M  V30 1579 C 151.273 2.80724 1.0777 0
M  V30 1580 C 152.821 2.89787 1.1829 0
M  V30 1581 C 153.296 4.32457 1.50815 0
M  V30 1582 N 154.787 4.35505 1.57764 0
M  V30 1583 C 155.522 5.42914 1.84477 0
M  V30 1584 N 155.018 6.60502 2.09068 0
M  V30 1585 N 156.811 5.3038 1.86155 0
M  V30 1586 H 148.962 2.09904 -0.324647 0
M  V30 1587 H 151.225 0.944378 -0.0827957 0
M  V30 1588 H 150.931 3.50531 0.286498 0
M  V30 1589 H 150.805 3.19273 2.00859 0
M  V30 1590 H 153.192 2.20186 1.96474 0
M  V30 1591 H 153.273 2.54752 0.231314 0
M  V30 1592 H 152.917 5.02603 0.731622 0
M  V30 1593 H 152.847 4.64995 2.47158 0
M  V30 1594 H 155.338 3.50724 1.40715 0
M  V30 1595 H 155.651 7.38158 2.28785 0
M  V30 1596 H 153.996 6.63639 2.06416 0
M  V30 1597 H 157.187 4.37505 1.66454 0
M  V30 1598 H 157.36 6.1417 2.06637 0
M  V30 1599 N 150.766 -0.704594 1.40972 0
M  V30 1600 C 152.012 -1.46675 1.40051 0
M  V30 1601 C 152.345 -1.94199 0.00641102 0
M  V30 1602 O 151.62 -1.68916 -0.964235 0
M  V30 1603 C 151.903 -2.68505 2.39952 0
M  V30 1604 C 151.756 -2.26805 3.88432 0
M  V30 1605 C 153.075 -3.70686 2.37233 0
M  V30 1606 H 150.194 -0.532015 0.510028 0
M  V30 1607 H 152.836 -0.803255 1.72185 0
M  V30 1608 H 150.986 -3.25114 2.1268 0
M  V30 1609 H 152.658 -1.75592 4.26574 0
M  V30 1610 H 150.901 -1.58685 4.03734 0
M  V30 1611 H 151.572 -3.14181 4.53866 0
M  V30 1612 H 154.048 -3.23731 2.61415 0
M  V30 1613 H 152.924 -4.53553 3.09162 0
M  V30 1614 H 153.185 -4.19754 1.38777 0
M  V30 1615 N 152.244 -1.26651 -0.937939 0
M  V30 1616 C 153.66 -1.03834 -1.21205 0
M  V30 1617 C 153.86 0.234502 -2.00131 0
M  V30 1618 O 152.916 0.942767 -2.3424 0
M  V30 1619 C 154.229 -2.27167 -1.97017 0
M  V30 1620 C 155.777 -2.32101 -2.09996 0
M  V30 1621 C 156.252 -3.55136 -2.8921 0
M  V30 1622 N 157.743 -3.55632 -2.96783 0
M  V30 1623 C 158.478 -4.475 -3.58512 0
M  V30 1624 N 157.974 -5.4966 -4.21717 0
M  V30 1625 N 159.767 -4.35145 -3.55816 0
M  V30 1626 H 151.918 -2.08398 -0.410391 0
M  V30 1627 H 154.181 -0.916031 -0.244114 0
M  V30 1628 H 153.887 -3.19765 -1.46434 0
M  V30 1629 H 153.761 -2.31672 -2.97671 0
M  V30 1630 H 156.148 -1.40015 -2.59769 0
M  V30 1631 H 156.229 -2.31605 -1.08594 0
M  V30 1632 H 155.873 -4.47553 -2.40123 0
M  V30 1633 H 155.803 -3.5288 -3.90875 0
M  V30 1634 H 158.294 -2.81743 -2.51852 0
M  V30 1635 H 158.607 -6.15943 -4.66727 0
M  V30 1636 H 156.952 -5.53514 -4.20294 0
M  V30 1637 H 160.143 -3.5455 -3.05634 0
M  V30 1638 H 160.316 -5.06934 -4.03636 0
M  V30 1639 N 153.722 1.14298 -1.08507 0
M  V30 1640 C 154.672 2.17449 -0.685569 0
M  V30 1641 C 155.656 1.58167 0.295315 0
M  V30 1642 O 156.848 1.76675 0.107172 0
M  V30 1643 C 153.977 3.43161 -0.0975318 0
M  V30 1644 C 153.063 4.09471 -1.10426 0
M  V30 1645 N 153.454 4.51089 -2.28806 0
M  V30 1646 C 151.752 4.35976 -0.940258 0
M  V30 1647 C 152.453 5.02654 -2.9277 0
M  V30 1648 N 151.429 4.96927 -2.20374 0
M  V30 1649 H 155.231 2.47369 -1.587 0
M  V30 1650 H 152.745 1.30992 -0.959936 0
M  V30 1651 H 154.742 4.16388 0.20664 0
M  V30 1652 H 153.402 3.14719 0.798872 0
M  V30 1653 H 154.413 4.44097 -2.66455 0
M  V30 1654 H 151.09 4.17386 -0.0977441 0
M  V30 1655 H 152.48 5.44723 -3.93352 0
M  V30 1656 N 155.201 0.870884 1.31352 0
M  V30 1657 C 156.447 0.482987 1.96965 0
M  V30 1658 C 156.78 -0.962462 1.68672 0
M  V30 1659 O 156.055 -1.6779 0.98371 0
M  V30 1660 C 156.338 0.741752 3.52378 0
M  V30 1661 C 156.191 2.2368 3.9024 0
M  V30 1662 C 157.51 0.208838 4.39604 0
M  V30 1663 H 154.629 0.176955 0.715441 0
M  V30 1664 H 157.271 1.09229 1.55464 0
M  V30 1665 H 155.421 0.223149 3.87859 0
M  V30 1666 H 157.093 2.82273 3.64856 0
M  V30 1667 H 155.336 2.70901 3.38814 0
M  V30 1668 H 156.007 2.3685 4.98604 0
M  V30 1669 H 158.483 0.652529 4.10952 0
M  V30 1670 H 157.359 0.419336 5.47296 0
M  V30 1671 H 157.62 -0.889275 4.33064 0
M  V30 1672 N 156.679 -1.44442 0.630414 0
M  V30 1673 C 157.909 -2.06115 0.141465 0
M  V30 1674 C 158.317 -1.47179 -1.1889 0
M  V30 1675 O 157.66 -0.588873 -1.74006 0
M  V30 1676 C 157.722 -3.59467 -0.0484355 0
M  V30 1677 C 157.386 -4.40864 1.20366 0
M  V30 1678 C 158.383 -4.74391 2.12719 0
M  V30 1679 C 156.068 -4.8125 1.43887 0
M  V30 1680 C 158.062 -5.47186 3.26904 0
M  V30 1681 C 155.749 -5.53795 2.5837 0
M  V30 1682 C 156.747 -5.86682 3.49705 0
M  V30 1683 O 156.435 -6.57749 4.62191 0
M  V30 1684 H 156.167 -0.671648 0.0765792 0
M  V30 1685 H 158.721 -1.86312 0.864695 0
M  V30 1686 H 156.951 -3.77758 -0.826803 0
M  V30 1687 H 158.64 -4.02909 -0.491849 0
M  V30 1688 H 159.406 -4.43728 1.95781 0
M  V30 1689 H 155.285 -4.55073 0.736853 0
M  V30 1690 H 158.829 -5.72773 3.98217 0
M  V30 1691 H 154.726 -5.83872 2.75251 0
M  V30 1692 H 155.494 -6.76217 4.61164 0
M  V30 1693 N 158.157 -0.370918 -1.53173 0
M  V30 1694 C 159.087 0.464847 -2.28826 0
M  V30 1695 C 160.068 1.07936 -1.31468 0
M  V30 1696 O 161.253 1.0956 -1.60344 0
M  V30 1697 C 158.383 1.60196 -3.08147 0
M  V30 1698 C 157.337 1.11443 -4.13237 0
M  V30 1699 C 156.663 2.3422 -4.80672 0
M  V30 1700 C 157.963 0.195384 -5.21934 0
M  V30 1701 H 159.657 -0.166329 -2.98938 0
M  V30 1702 H 157.203 -0.0814359 -1.4377 0
M  V30 1703 H 159.156 2.19332 -3.59822 0
M  V30 1704 H 157.88 2.26045 -2.35735 0
M  V30 1705 H 156.539 0.545727 -3.62515 0
M  V30 1706 H 156.187 2.98537 -4.04827 0
M  V30 1707 H 155.887 2.02269 -5.51689 0
M  V30 1708 H 157.411 2.94032 -5.35143 0
M  V30 1709 H 158.825 0.694375 -5.69079 0
M  V30 1710 H 157.222 -0.0335027 -6.00091 0
M  V30 1711 H 158.292 -0.760961 -4.78892 0
M  V30 1712 N 159.635 1.57281 -0.100228 0
M  V30 1713 C 161.051 1.57527 0.256416 0
M  V30 1714 C 161.251 1.11173 1.68056 0
M  V30 1715 O 160.307 0.79053 2.39806 0
M  V30 1716 C 161.62 3.00673 0.0401747 0
M  V30 1717 C 163.168 3.12815 0.107528 0
M  V30 1718 C 163.643 4.57929 -0.0807834 0
M  V30 1719 N 165.134 4.63193 -0.0261207 0
M  V30 1720 C 165.869 5.73212 -0.146999 0
M  V30 1721 N 165.365 6.92047 -0.322999 0
M  V30 1722 N 167.158 5.62031 -0.0879044 0
M  V30 1723 H 159.309 1.85718 -1.03065 0
M  V30 1724 H 161.572 0.857446 -0.404339 0
M  V30 1725 H 161.278 3.38804 -0.943649 0
M  V30 1726 H 161.152 3.69042 0.780262 0
M  V30 1727 H 163.539 2.74554 1.08186 0
M  V30 1728 H 163.62 2.47028 -0.664134 0
M  V30 1729 H 163.264 4.96886 -1.05201 0
M  V30 1730 H 163.194 5.21783 0.710635 0
M  V30 1731 H 165.685 3.77748 0.107161 0
M  V30 1732 H 165.998 7.7173 -0.406608 0
M  V30 1733 H 164.343 6.94074 -0.358733 0
M  V30 1734 H 167.534 4.68075 0.048498 0
M  V30 1735 H 167.707 6.47734 -0.185557 0
M  V30 1736 N 161.113 -0.173488 1.56642 0
M  V30 1737 C 162.023 -1.23482 1.99473 0
M  V30 1738 C 163.039 -1.48567 0.905752 0
M  V30 1739 O 164.215 -1.60758 1.21321 0
M  V30 1740 C 161.28 -2.55444 2.34413 0
M  V30 1741 C 160.341 -2.38241 3.57127 0
M  V30 1742 C 159.574 -3.63909 3.90392 0
M  V30 1743 O 159.797 -4.68996 3.24653 0
M  V30 1744 O 158.731 -3.58149 4.83749 0
M  V30 1745 H 162.557 -0.901279 2.90018 0
M  V30 1746 H 160.142 -0.380185 1.44482 0
M  V30 1747 H 162.024 -3.33292 2.57865 0
M  V30 1748 H 160.699 -2.88382 1.4703 0
M  V30 1749 H 159.606 -1.58431 3.38896 0
M  V30 1750 H 160.939 -2.10228 4.45045 0
M  V30 1751 N 162.591 -1.51276 -0.441967 0
M  V30 1752 C 163.554 -1.7167 -1.51862 0
M  V30 1753 C 164.554 -0.586793 -1.49711 0
M  V30 1754 O 165.744 -0.854276 -1.51815 0
M  V30 1755 C 162.876 -1.76889 -2.91416 0
M  V30 1756 H 164.069 -2.67754 -1.35084 0
M  V30 1757 H 161.622 -1.41196 -0.670333 0
M  V30 1758 H 162.357 -0.826026 -3.13604 0
M  V30 1759 H 162.142 -2.59001 -2.94382 0
M  V30 1760 H 163.632 -1.94522 -3.69528 0
M  V30 1761 N 164.069 0.697108 -1.41344 0
M  V30 1762 C 165.315 1.4593 -1.40827 0
M  V30 1763 C 165.648 1.94193 -0.0167098 0
M  V30 1764 O 164.923 1.69425 0.955263 0
M  V30 1765 C 165.206 2.67229 -2.41373 0
M  V30 1766 C 165.059 2.24741 -3.8963 0
M  V30 1767 C 166.378 3.69423 -2.39196 0
M  V30 1768 H 163.497 0.529303 -0.512842 0
M  V30 1769 H 166.139 0.794112 -1.72609 0
M  V30 1770 H 164.289 3.23982 -2.14401 0
M  V30 1771 H 165.961 1.73327 -4.27499 0
M  V30 1772 H 164.204 1.56542 -4.0457 0
M  V30 1773 H 164.875 3.1177 -4.55525 0
M  V30 1774 H 167.351 3.2234 -2.63128 0
M  V30 1775 H 166.227 4.51907 -3.11563 0
M  V30 1776 H 166.488 4.19012 -1.41001 0
M  V30 1777 N 165.547 1.27147 0.931209 0
M  V30 1778 C 166.963 1.04475 1.20653 0
M  V30 1779 C 167.163 -0.223885 2.00252 0
M  V30 1780 O 166.219 -0.930332 2.34736 0
M  V30 1781 C 167.532 2.28209 1.95809 0
M  V30 1782 C 169.08 2.33211 2.08762 0
M  V30 1783 C 169.555 3.56665 2.87323 0
M  V30 1784 N 171.046 3.57201 2.94892 0
M  V30 1785 C 171.781 4.49395 3.56134 0
M  V30 1786 N 171.277 5.51889 4.18796 0
M  V30 1787 N 173.07 4.37026 3.53504 0
M  V30 1788 H 165.221 2.08612 0.399333 0
M  V30 1789 H 167.484 0.917312 0.239253 0
M  V30 1790 H 167.19 3.20538 1.44736 0
M  V30 1791 H 167.064 2.33247 2.96438 0
M  V30 1792 H 169.451 1.41391 2.59023 0
M  V30 1793 H 169.532 2.32178 1.07364 0
M  V30 1794 H 169.176 4.4882 2.37746 0
M  V30 1795 H 169.106 3.54948 3.88998 0
M  V30 1796 H 171.597 2.83074 2.50354 0
M  V30 1797 H 171.91 6.18409 4.63454 0
M  V30 1798 H 170.255 5.55735 4.17353 0
M  V30 1799 H 173.446 3.56166 3.03749 0
M  V30 1800 H 173.619 5.09067 4.00942 0
M  V30 1801 N 167.025 -1.13721 1.09112 0
M  V30 1802 C 167.955 -2.21148 0.749385 0
M  V30 1803 C 168.936 -1.6792 -0.271475 0
M  V30 1804 O 170.121 -1.93693 -0.140251 0
M  V30 1805 C 167.251 -3.46905 0.165659 0
M  V30 1806 C 166.205 -4.13203 1.11567 0
M  V30 1807 C 165.531 -5.33248 0.393809 0
M  V30 1808 C 166.831 -4.60912 2.45678 0
M  V30 1809 H 168.525 -2.4999 1.64758 0
M  V30 1810 H 166.071 -1.20156 0.793626 0
M  V30 1811 H 168.024 -4.21313 -0.085466 0
M  V30 1812 H 166.748 -3.17449 -0.767714 0
M  V30 1813 H 165.407 -3.40758 1.35202 0
M  V30 1814 H 165.055 -5.00054 -0.543599 0
M  V30 1815 H 164.755 -5.78552 1.02721 0
M  V30 1816 H 166.279 -6.10413 0.150908 0
M  V30 1817 H 167.693 -5.26759 2.26269 0
M  V30 1818 H 166.09 -5.16944 3.04776 0
M  V30 1819 H 167.16 -3.75603 3.06677 0
M  V30 1820 N 168.503 -0.877838 -1.30888 0
M  V30 1821 C 169.919 -0.570844 -1.49042 0
M  V30 1822 C 170.119 0.893159 -1.80624 0
M  V30 1823 O 169.175 1.67485 -1.88958 0
M  V30 1824 C 170.488 -1.47784 -2.61878 0
M  V30 1825 C 172.036 -1.48071 -2.75761 0
M  V30 1826 C 172.511 -2.37347 -3.91702 0
M  V30 1827 N 174.002 -2.35271 -3.99001 0
M  V30 1828 C 174.737 -3.01063 -4.88004 0
M  V30 1829 N 174.233 -3.76055 -5.81854 0
M  V30 1830 N 176.026 -2.90332 -4.81315 0
M  V30 1831 H 168.177 -1.82502 -1.0866 0
M  V30 1832 H 170.44 -0.780797 -0.537644 0
M  V30 1833 H 170.146 -2.51993 -2.45341 0
M  V30 1834 H 170.02 -1.18215 -3.58197 0
M  V30 1835 H 172.407 -0.446166 -2.91708 0
M  V30 1836 H 172.488 -1.81668 -1.80085 0
M  V30 1837 H 172.132 -3.40883 -3.76512 0
M  V30 1838 H 172.062 -2.01071 -4.86701 0
M  V30 1839 H 174.553 -1.80768 -3.3186 0
M  V30 1840 H 174.866 -4.23366 -6.46514 0
M  V30 1841 H 173.211 -3.80163 -5.81808 0
M  V30 1842 H 176.402 -2.31278 -4.06974 0
M  V30 1843 H 176.575 -3.41885 -5.50471 0
M  V30 1844 N 169.982 1.44106 -0.638065 0
M  V30 1845 C 171.393 1.85316 -0.226894 0
M  V30 1846 C 171.744 1.53399 1.22324 0
M  V30 1847 O 170.869 0.975463 1.93167 0
M  V30 1848 C 171.464 3.3637 -0.405013 0
M  V30 1849 C 170.023 3.76369 -0.0482902 0
M  V30 1850 C 169.17 2.67921 -0.715108 0
M  V30 1851 H 172.121 1.34474 -0.842764 0
M  V30 1852 H 172.142 3.7885 0.354 0
M  V30 1853 H 171.654 3.59569 -1.46053 0
M  V30 1854 H 169.755 3.58784 1.00522 0
M  V30 1855 H 169.868 4.76856 -0.463187 0
M  V30 1856 H 168.232 2.54259 -0.149753 0
M  V30 1857 H 169.015 2.93951 -1.77335 0
M  V30 1858 N 171.46 0.379036 1.52974 0
M  V30 1859 C 172.737 -0.263479 1.93817 0
M  V30 1860 C 173.117 -1.65244 1.31368 0
M  V30 1861 O 172.465 -2.23448 0.477856 0
M  V30 1862 C 172.675 -0.300166 3.47707 0
M  V30 1863 C 174.023 -0.534061 4.21228 0
M  V30 1864 O 175.047 -0.38081 3.54159 0
M  V30 1865 O 173.906 -0.833501 5.40106 0
M  V30 1866 H 171 -0.161149 0.811147 0
M  V30 1867 H 173.546 0.432798 1.64088 0
M  V30 1868 H 172.318 0.673138 3.85467 0
M  V30 1869 H 171.941 -1.04179 3.83709 0
M  V30 1870 N 172.938 -1.57226 0.108567 0
M  V30 1871 C 173.868 -2.17778 -0.84232 0
M  V30 1872 C 174.849 -1.11487 -1.2847 0
M  V30 1873 O 176.034 -1.39681 -1.34918 0
M  V30 1874 C 173.164 -2.76888 -2.09644 0
M  V30 1875 C 172.118 -3.88669 -1.79221 0
M  V30 1876 C 171.444 -4.34541 -3.11574 0
M  V30 1877 C 172.744 -5.11251 -1.06864 0
M  V30 1878 H 174.438 -2.97489 -0.337774 0
M  V30 1879 H 171.984 -1.43097 -0.161025 0
M  V30 1880 H 173.937 -3.17904 -2.76614 0
M  V30 1881 H 172.661 -1.94451 -2.62405 0
M  V30 1882 H 171.32 -3.48213 -1.14644 0
M  V30 1883 H 170.968 -3.48977 -3.62249 0
M  V30 1884 H 170.668 -5.09914 -2.91996 0
M  V30 1885 H 172.192 -4.782 -3.7968 0
M  V30 1886 H 173.606 -5.49352 -1.63968 0
M  V30 1887 H 172.003 -5.9214 -0.974178 0
M  V30 1888 H 173.073 -4.8487 -0.0536168 0
M  V30 1889 N 174.416 0.165178 -1.56732 0
M  V30 1890 C 175.326 1.22423 -2.00125 0
M  V30 1891 C 176.342 1.48084 -0.913619 0
M  V30 1892 O 177.518 1.60112 -1.22172 0
M  V30 1893 C 174.583 2.54197 -2.35764 0
M  V30 1894 C 173.644 2.36343 -3.58386 0
M  V30 1895 C 172.877 3.61834 -3.92316 0
M  V30 1896 O 173.1 4.67267 -3.27135 0
M  V30 1897 O 172.034 3.55579 -4.85641 0
M  V30 1898 H 175.86 0.885886 -2.90492 0
M  V30 1899 H 173.445 0.372518 -1.44681 0
M  V30 1900 H 175.327 3.3192 -2.59629 0
M  V30 1901 H 174.002 2.87598 -1.48557 0
M  V30 1902 H 172.909 1.56632 -3.39731 0
M  V30 1903 H 174.242 2.07865 -4.46154 0
M  V30 1904 N 175.894 1.51508 0.433938 0
M  V30 1905 C 177.119 1.68443 1.21003 0
M  V30 1906 C 177.544 0.382636 1.84167 0
M  V30 1907 O 176.902 -0.65755 1.68956 0
M  V30 1908 C 176.95 2.80405 2.26727 0
M  V30 1909 O 176.054 2.44245 3.32292 0
M  V30 1910 H 175.395 0.561536 0.354363 0
M  V30 1911 H 177.925 1.9809 0.512024 0
M  V30 1912 H 177.935 3.0459 2.71457 0
M  V30 1913 H 176.61 3.74867 1.80132 0
M  V30 1914 H 175.187 2.30644 2.93015 0
M  V30 1915 N 177.372 -0.689602 1.41712 0
M  V30 1916 C 178.335 -1.78521 1.43746 0
M  V30 1917 C 179.335 -1.57436 0.327191 0
M  V30 1918 O 180.525 -1.64 0.587348 0
M  V30 1919 C 177.657 -3.16971 1.25467 0
M  V30 1920 H 178.85 -1.78108 2.41283 0
M  V30 1921 H 176.403 -0.89781 1.27942 0
M  V30 1922 H 177.138 -3.23019 0.287948 0
M  V30 1923 H 176.923 -3.33678 2.05917 0
M  V30 1924 H 178.413 -3.96935 1.2974 0
M  V30 1925 N 178.85 -1.27639 -0.924453 0
M  V30 1926 C 179.782 -1.06442 -2.02985 0
M  V30 1927 C 180.795 -0.0194771 -1.62788 0
M  V30 1928 O 181.984 -0.261388 -1.76576 0
M  V30 1929 C 179.084 -0.59327 -3.33667 0
M  V30 1930 C 178.257 -1.71123 -4.02537 0
M  V30 1931 C 177.316 -1.23527 -5.11495 0
M  V30 1932 O 176.342 -1.93553 -5.35281 0
M  V30 1933 N 177.544 -0.0926678 -5.80426 0
M  V30 1934 H 180.309 -2.01633 -2.2173 0
M  V30 1935 H 177.87 -1.19248 -1.09505 0
M  V30 1936 H 179.862 -0.258686 -4.03872 0
M  V30 1937 H 178.432 0.265502 -3.1147 0
M  V30 1938 H 177.652 -2.21593 -3.26022 0
M  V30 1939 H 178.94 -2.46145 -4.45298 0
M  V30 1940 H 178.338 0.491741 -5.63559 0
M  V30 1941 H 176.895 0.182714 -6.51544 0
M  V30 1942 O 180.367 1.05887 -1.21944 0
M  V30 1943 H 181.058 1.66953 -0.982159 0
M  V30 END ATOM
M  V30 BEGIN BOND
M  V30 END BOND
M  V30 END CTAB
M  END
$$$$
