drugbank_target|Q84II6 Terminal oxygenase component of carbazole (DB07301)
 OpenBabel12092120413D

  0  0  0     0  0            999 V3000
M  V30 BEGIN CTAB
M  V30 COUNTS 6096 6178 0 0 0
M  V30 BEGIN ATOM
M  V30 1 H -0.908 1.98254 -0.117106 0
M  V30 2 N 0 1.576 0 0
M  V30 3 C 0.933 2.03868 1.02534 0
M  V30 4 C 1.911 0.928543 1.3348 0
M  V30 5 O 3.095 1.19667 1.45644 0
M  V30 6 C 0.222 2.43627 2.35294 0
M  V30 7 C -0.732 3.65373 2.2001 0
M  V30 8 S 0.101 5.13292 1.52614 0
M  V30 9 C 1.257 5.56322 2.86805 0
M  V30 10 H 1.49 2.90518 0.631377 0
M  V30 11 H -0.977 1.52953 0.210867 0
M  V30 12 H 0.981 2.67203 3.11629 0
M  V30 13 H -0.358 1.57376 2.7183 0
M  V30 14 H -1.165 3.90944 3.18086 0
M  V30 15 H -1.563 3.418 1.51819 0
M  V30 16 H 0.729 5.58782 3.83104 0
M  V30 17 H 1.672 6.56266 2.65933 0
M  V30 18 H 2.08 4.83886 2.90714 0
M  V30 19 N 1.4781 -0.272755 1.55222 0
M  V30 20 C 2.4411 -1.32041 1.87344 0
M  V30 21 C 3.4411 -1.42342 0.74803 0
M  V30 22 O 4.6311 -1.41488 1.0162 0
M  V30 23 C 1.7631 -2.70173 2.07893 0
M  V30 24 H 2.9561 -1.04789 2.80997 0
M  V30 25 H 0.5091 -0.51083 1.47717 0
M  V30 26 H 1.2441 -3.02605 1.16622 0
M  V30 27 H 1.0291 -2.64082 2.89833 0
M  V30 28 H 2.5191 -3.45869 2.34017 0
M  V30 29 N 2.9562 -1.48159 -0.537278 0
M  V30 30 C 3.9042 -1.62573 -1.66352 0
M  V30 31 C 4.8982 -0.492366 -1.62087 0
M  V30 32 O 6.1042 -0.670847 -1.67032 0
M  V30 33 H 2.4792 -0.511992 -0.550789 0
M  V30 34 H 4.4502 -2.57176 -1.51337 0
M  V30 35 C 3.1992 -1.67583 -3.04649 0
M  V30 36 H 2.5222 -2.54151 -3.08622 0
M  V30 37 H 3.9622 -1.81713 -3.83088 0
M  V30 38 C 2.4212 -0.413039 -3.34358 0
M  V30 39 O 2.9512 0.477259 -3.98855 0
M  V30 40 N 1.1572 -0.286961 -2.8918 0
M  V30 41 H 0.7042 -1.01241 -2.36871 0
M  V30 42 H 0.6622 0.556963 -3.09427 0
M  V30 43 N 4.4343 0.785586 -1.36625 0
M  V30 44 C 5.6803 1.54591 -1.31261 0
M  V30 45 C 6.0133 1.93906 0.106823 0
M  V30 46 O 5.2883 1.63007 1.06108 0
M  V30 47 C 5.5713 2.82038 -2.23889 0
M  V30 48 C 5.4243 2.49066 -3.74548 0
M  V30 49 C 6.7433 3.83887 -2.15217 0
M  V30 50 H 3.8623 0.560846 -0.478143 0
M  V30 51 H 6.5043 0.902278 -1.67209 0
M  V30 52 H 4.6543 3.36961 -1.93363 0
M  V30 53 H 6.3263 2.00164 -4.15611 0
M  V30 54 H 4.5693 1.81954 -3.93796 0
M  V30 55 H 5.2403 3.40109 -4.34776 0
M  V30 56 H 7.7163 3.38421 -2.42096 0
M  V30 57 H 6.5923 4.70806 -2.82193 0
M  V30 58 H 6.8533 4.27131 -1.14068 0
M  V30 59 N 5.9124 1.20967 1.01018 0
M  V30 60 C 7.1894 0.93264 1.71934 0
M  V30 61 C 7.5694 -0.55692 2.03621 0
M  V30 62 O 6.9174 -1.52035 1.7058 0
M  V30 63 C 7.1274 1.81233 2.98254 0
M  V30 64 C 8.4754 2.05804 3.71389 0
M  V30 65 O 9.4994 1.78539 3.08225 0
M  V30 66 O 8.3584 2.51888 4.84989 0
M  V30 67 H 5.4524 0.349272 0.749625 0
M  V30 68 H 7.9984 1.31871 1.06808 0
M  V30 69 H 6.7704 2.82067 2.71208 0
M  V30 70 H 6.3934 1.42674 3.7112 0
M  V30 71 N 7.3905 -1.2043 1.01659 0
M  V30 72 C 8.3005 -2.2689 0.596484 0
M  V30 73 C 9.3165 -1.70107 -0.36599 0
M  V30 74 O 10.4925 -2.00117 -0.226942 0
M  V30 75 C 7.5575 -3.4665 -0.0586659 0
M  V30 76 C 6.6185 -4.18662 0.949751 0
M  V30 77 C 5.8515 -5.32705 0.32577 0
M  V30 78 O 6.0745 -5.63656 -0.874509 0
M  V30 79 O 5.0085 -5.92803 1.04249 0
M  V30 80 H 8.8345 -2.65041 1.4828 0
M  V30 81 H 6.4195 -1.27048 0.786082 0
M  V30 82 H 8.3015 -4.19256 -0.424564 0
M  V30 83 H 6.9765 -3.10375 -0.91918 0
M  V30 84 H 5.8835 -3.48229 1.36702 0
M  V30 85 H 7.2165 -4.58878 1.78023 0
M  V30 86 N 8.8686 -0.792821 -1.36206 0
M  V30 87 C 9.8316 -0.199459 -2.2833 0
M  V30 88 C 10.8316 0.605189 -1.48977 0
M  V30 89 O 12.0216 0.425685 -1.68919 0
M  V30 90 C 9.1536 0.723523 -3.33134 0
M  V30 91 H 10.3466 -1.01181 -2.82316 0
M  V30 92 H 7.8996 -0.562485 -1.45828 0
M  V30 93 H 8.6346 1.56008 -2.84309 0
M  V30 94 H 8.4196 0.148436 -3.91819 0
M  V30 95 H 9.9096 1.13344 -4.01924 0
M  V30 96 N 10.3467 1.47872 -0.545128 0
M  V30 97 C 11.5957 2.01695 -0.0145033 0
M  V30 98 C 11.9087 1.42609 1.33873 0
M  V30 99 O 13.1147 1.88021 1.95858 0
M  V30 100 C 11.5707 3.59892 0.0245068 0
M  V30 101 C 11.1787 4.27966 -1.32475 0
M  V30 102 C 12.9227 4.21507 0.50316 0
M  V30 103 C 10.8297 5.78136 -1.2455 0
M  V30 104 H 9.7597 0.753998 -0.00165172 0
M  V30 105 H 12.4107 1.69985 -0.691175 0
M  V30 106 H 10.7927 3.88509 0.766575 0
M  V30 107 H 11.9667 4.11003 -2.08357 0
M  V30 108 H 10.2817 3.78286 -1.74036 0
M  V30 109 H 12.8787 5.31538 0.580656 0
M  V30 110 H 13.2217 3.87855 1.51243 0
M  V30 111 H 13.7547 3.97376 -0.183681 0
M  V30 112 H 10.4937 6.16388 -2.23039 0
M  V30 113 H 10.0137 5.97469 -0.528282 0
M  V30 114 H 11.6927 6.40099 -0.942488 0
M  V30 115 N 11.8248 0.280983 1.55075 0
M  V30 116 C 12.7548 -0.597469 2.25727 0
M  V30 117 C 13.7358 -1.15417 1.24952 0
M  V30 118 O 14.9208 -1.18722 1.53684 0
M  V30 119 C 12.0508 -1.7789 2.98283 0
M  V30 120 C 11.0048 -1.35347 4.06036 0
M  V30 121 C 10.3308 -2.61846 4.66198 0
M  V30 122 C 11.6308 -0.499354 5.19907 0
M  V30 123 H 13.3248 -0.00824265 2.99399 0
M  V30 124 H 10.8708 -0.0025244 1.44 0
M  V30 125 H 12.8238 -2.39937 3.46422 0
M  V30 126 H 11.5478 -2.39405 2.22155 0
M  V30 127 H 10.2068 -0.756156 3.58717 0
M  V30 128 H 9.8548 -3.21632 3.86732 0
M  V30 129 H 9.5548 -2.3409 5.38958 0
M  V30 130 H 11.0788 -3.24732 5.1709 0
M  V30 131 H 12.4928 -1.02498 5.64063 0
M  V30 132 H 10.8898 -0.316424 5.99265 0
M  V30 133 H 11.9598 0.480459 4.82514 0
M  V30 134 N 13.3029 -1.57598 0.00835791 0
M  V30 135 C 14.2499 -2.08945 -0.980346 0
M  V30 136 C 15.2199 -0.986738 -1.33614 0
M  V30 137 O 16.4049 -1.25968 -1.43306 0
M  V30 138 C 13.5449 -2.60425 -2.26435 0
M  V30 139 C 12.6579 -3.84628 -1.96685 0
M  V30 140 C 11.7929 -4.24579 -3.19228 0
M  V30 141 C 10.8319 -5.41596 -2.85202 0
M  V30 142 N 9.9689 -5.768 -4.00307 0
M  V30 143 H 14.8089 -2.93148 -0.535551 0
M  V30 144 H 12.3459 -1.44912 -0.252776 0
M  V30 145 H 14.3039 -2.88354 -3.01509 0
M  V30 146 H 12.9339 -1.79083 -2.68568 0
M  V30 147 H 11.9859 -3.63556 -1.11942 0
M  V30 148 H 13.2979 -4.69796 -1.67611 0
M  V30 149 H 12.4519 -4.53834 -4.02641 0
M  V30 150 H 11.1909 -3.38137 -3.51447 0
M  V30 151 H 10.1959 -5.12056 -2.00198 0
M  V30 152 H 11.4209 -6.29721 -2.54222 0
M  V30 153 H 9.3669 -4.93316 -4.32407 0
M  V30 154 H 9.2839 -6.5656 -3.74786 0
M  V30 155 H 10.5519 -6.10652 -4.84484 0
M  V30 156 N 14.781 0.264519 -1.55364 0
M  V30 157 C 16.197 0.61215 -1.47394 0
M  V30 158 C 16.397 1.89134 -0.695018 0
M  V30 159 O 15.453 2.51563 -0.217275 0
M  V30 160 C 16.766 0.731235 -2.91674 0
M  V30 161 C 18.314 0.82473 -3.01939 0
M  V30 162 C 18.789 0.975522 -4.4749 0
M  V30 163 N 20.28 1.04083 -4.51354 0
M  V30 164 C 21.015 1.17646 -5.61201 0
M  V30 165 N 20.511 1.27874 -6.80896 0
M  V30 166 N 22.304 1.20823 -5.48961 0
M  V30 167 H 14.455 -0.575456 -2.04456 0
M  V30 168 H 16.718 -0.196099 -0.927496 0
M  V30 169 H 16.424 -0.138392 -3.51428 0
M  V30 170 H 16.298 1.60883 -3.41169 0
M  V30 171 H 18.685 1.68482 -2.42276 0
M  V30 172 H 18.766 -0.0776479 -2.55682 0
M  V30 173 H 18.41 0.120058 -5.07758 0
M  V30 174 H 18.34 1.89268 -4.91412 0
M  V30 175 H 20.831 0.973846 -3.65136 0
M  V30 176 H 21.144 1.38081 -7.60364 0
M  V30 177 H 19.489 1.24863 -6.83692 0
M  V30 178 H 22.68 1.12469 -4.54388 0
M  V30 179 H 22.853 1.31049 -6.3461 0
M  V30 180 N 16.2591 1.48442 0.529413 0
M  V30 181 C 17.5051 1.5672 1.28711 0
M  V30 182 C 17.8381 0.2406 1.92704 0
M  V30 183 O 17.1131 -0.753454 1.79313 0
M  V30 184 C 17.3961 2.70587 2.37603 0
M  V30 185 C 17.2491 4.12953 1.78297 0
M  V30 186 C 18.5681 2.80212 3.39366 0
M  V30 187 H 15.6871 0.570474 0.466613 0
M  V30 188 H 18.3291 1.80617 0.589706 0
M  V30 189 H 16.4791 2.50342 2.97088 0
M  V30 190 H 18.1511 4.44639 1.22858 0
M  V30 191 H 16.3941 4.19927 1.0883 0
M  V30 192 H 17.0651 4.88448 2.57144 0
M  V30 193 H 19.5411 2.98553 2.89836 0
M  V30 194 H 18.4171 3.61611 4.12951 0
M  V30 195 H 18.6781 1.88393 3.99951 0
M  V30 196 N 17.7372 -0.778329 1.37039 0
M  V30 197 C 18.6842 -1.89139 1.32269 0
M  V30 198 C 19.6542 -1.65017 0.189387 0
M  V30 199 O 20.8392 -1.87024 0.377693 0
M  V30 200 C 17.9792 -3.26112 1.12894 0
M  V30 201 C 17.0922 -3.62233 2.35396 0
M  V30 202 C 16.2272 -4.8838 2.08946 0
M  V30 203 C 15.2662 -5.17212 3.2735 0
M  V30 204 N 14.4032 -6.34546 3.00492 0
M  V30 205 H 19.2432 -1.92552 2.27437 0
M  V30 206 H 16.7802 -0.941473 1.13025 0
M  V30 207 H 18.7382 -4.05116 0.996835 0
M  V30 208 H 17.3682 -3.22091 0.213758 0
M  V30 209 H 16.4202 -2.78265 2.5937 0
M  V30 210 H 17.7322 -3.79481 3.23721 0
M  V30 211 H 16.8862 -5.75274 1.92729 0
M  V30 212 H 15.6252 -4.73222 1.17949 0
M  V30 213 H 14.6302 -4.28796 3.44113 0
M  V30 214 H 15.8552 -5.34283 4.19188 0
M  V30 215 H 13.8012 -6.20759 2.12118 0
M  V30 216 H 13.7182 -6.52179 3.82358 0
M  V30 217 H 14.9862 -7.24394 2.87879 0
M  V30 218 N 19.2153 -1.21501 -1.00376 0
M  V30 219 C 20.4633 -1.03095 -1.73827 0
M  V30 220 C 20.7843 0.436341 -1.90055 0
M  V30 221 O 20.0543 1.31466 -1.45236 0
M  V30 222 H 18.6343 -0.378487 -0.644016 0
M  V30 223 H 21.2963 -1.52831 -1.20949 0
M  V30 224 H 20.3923 -1.49991 -2.73695 0
M  V30 225 N 20.6934 1.19889 -1.02296 0
M  V30 226 C 21.9394 1.89973 -0.726759 0
M  V30 227 C 22.2944 1.7776 0.73614 0
M  V30 228 O 21.5874 1.15523 1.52856 0
M  V30 229 C 21.7814 3.39883 -1.10518 0
M  V30 230 C 21.6104 3.66684 -2.60332 0
M  V30 231 C 20.3804 3.85045 -3.27213 0
M  V30 232 C 22.5784 3.68727 -3.58532 0
M  V30 233 N 20.5604 3.99422 -4.66192 0
M  V30 234 C 21.9314 3.88604 -4.83101 0
M  V30 235 C 23.9864 3.51722 -3.52414 0
M  V30 236 C 22.6894 3.9324 -6.02292 0
M  V30 237 C 24.7154 3.57632 -4.71013 0
M  V30 238 C 24.0774 3.77988 -5.94394 0
M  V30 239 H 20.1764 0.714551 -0.317712 0
M  V30 240 H 22.7604 1.44123 -1.30907 0
M  V30 241 H 20.9314 3.8447 -0.551142 0
M  V30 242 H 22.6634 3.97464 -0.761853 0
M  V30 243 H 19.4184 3.83689 -2.77632 0
M  V30 244 H 19.8424 4.10473 -5.38368 0
M  V30 245 H 24.4844 3.34945 -2.58015 0
M  V30 246 H 22.2024 4.08811 -6.97065 0
M  V30 247 H 25.7884 3.45773 -4.67902 0
M  V30 248 H 24.6684 3.82428 -6.8463 0
M  V30 249 N 22.1715 0.800033 1.35784 0
M  V30 250 C 23.1345 0.211565 2.28221 0
M  V30 251 C 24.1345 -0.59728 1.49296 0
M  V30 252 O 25.3245 -0.416721 1.69142 0
M  V30 253 C 22.4565 -0.705846 3.33513 0
M  V30 254 H 23.6495 1.02677 2.81776 0
M  V30 255 H 21.2025 0.570211 1.45528 0
M  V30 256 H 21.9375 -1.54498 2.85133 0
M  V30 257 H 21.7225 -0.127655 3.91892 0
M  V30 258 H 23.2125 -1.11211 4.02519 0
M  V30 259 N 23.6496 -1.47581 0.552962 0
M  V30 260 C 25.0606 -1.86324 0.118463 0
M  V30 261 C 25.4116 -1.46006 -1.3106 0
M  V30 262 O 24.5366 -0.861182 -1.98526 0
M  V30 263 C 25.1316 -3.3816 0.20821 0
M  V30 264 C 23.6906 -3.7601 -0.171226 0
M  V30 265 C 22.8376 -2.71634 0.557686 0
M  V30 266 H 25.7886 -1.39159 0.762928 0
M  V30 267 H 25.8096 -3.76141 -0.574278 0
M  V30 268 H 25.3216 -3.67473 1.24841 0
M  V30 269 H 23.4226 -3.52313 -1.21269 0
M  V30 270 H 23.5356 -4.78745 0.184379 0
M  V30 271 H 21.8996 -2.547 0.00125792 0
M  V30 272 H 22.6826 -3.0379 1.59896 0
M  V30 273 N 25.1277 -0.289203 -1.54924 0
M  V30 274 C 26.3577 0.325989 -2.04012 0
M  V30 275 C 26.7657 1.48961 -1.1665 0
M  V30 276 O 26.1087 1.82794 -0.1822 0
M  V30 277 C 26.1707 0.856112 -3.49158 0
M  V30 278 C 25.8347 -0.180697 -4.56643 0
M  V30 279 C 26.8317 -1.0051 -5.10092 0
M  V30 280 C 24.5167 -0.318998 -5.01286 0
M  V30 281 C 26.5107 -1.95385 -6.06715 0
M  V30 282 C 24.1977 -1.27121 -5.97732 0
M  V30 283 C 25.1957 -2.08713 -6.50329 0
M  V30 284 O 24.8837 -3.02322 -7.44887 0
M  V30 285 H 24.6157 0.0765276 -0.671654 0
M  V30 286 H 27.1697 -0.423254 -2.00992 0
M  V30 287 H 25.3997 1.65567 -3.49463 0
M  V30 288 H 27.0887 1.38591 -3.81507 0
M  V30 289 H 27.8547 -0.90906 -4.76404 0
M  V30 290 H 23.7337 0.306108 -4.59983 0
M  V30 291 H 27.2777 -2.59111 -6.47694 0
M  V30 292 H 23.1747 -1.36801 -6.30837 0
M  V30 293 H 23.9427 -2.97165 -7.6265 0
M  V30 294 N 26.6058 1.57591 -0.0167156 0
M  V30 295 C 27.8518 1.91567 0.665582 0
M  V30 296 C 28.1848 0.892298 1.72487 0
M  V30 297 O 27.4598 -0.0867127 1.94307 0
M  V30 298 C 27.7428 3.36069 1.29342 0
M  V30 299 C 27.5958 4.49135 0.244541 0
M  V30 300 C 28.9148 3.803 2.21495 0
M  V30 301 H 26.0338 0.69666 0.240488 0
M  V30 302 H 28.6758 1.89866 -0.0714356 0
M  V30 303 H 26.8258 3.3765 1.92158 0
M  V30 304 H 28.4978 4.59689 -0.385228 0
M  V30 305 H 26.7408 4.3165 -0.431379 0
M  V30 306 H 27.4118 5.47242 0.723207 0
M  V30 307 H 29.8878 3.80377 1.68678 0
M  V30 308 H 28.7638 4.82127 2.62382 0
M  V30 309 H 29.0248 3.15104 3.101 0
M  V30 310 N 28.0839 -0.256276 1.55502 0
M  V30 311 C 29.3609 -1.00789 1.67633 0
M  V30 312 C 29.7409 -2.03706 0.553826 0
M  V30 313 O 29.0889 -2.24145 -0.443969 0
M  V30 314 C 29.2989 -1.64968 3.07549 0
M  V30 315 C 30.6469 -2.15505 3.65845 0
M  V30 316 O 31.6709 -1.74925 3.1029 0
M  V30 317 O 30.5299 -2.89986 4.63217 0
M  V30 318 H 27.6239 -0.468553 0.681459 0
M  V30 319 H 30.1699 -0.250806 1.67836 0
M  V30 320 H 28.9419 -0.904785 3.80696 0
M  V30 321 H 28.5649 -2.47321 3.11317 0
M  V30 322 N 29.562 -1.4872 -0.521534 0
M  V30 323 C 30.525 -1.63379 -1.60748 0
M  V30 324 C 31.525 -0.50661 -1.52611 0
M  V30 325 O 32.715 -0.772601 -1.5613 0
M  V30 326 C 29.847 -1.61192 -3.00383 0
M  V30 327 H 31.04 -2.60217 -1.49087 0
M  V30 328 H 28.593 -1.37444 -0.744235 0
M  V30 329 H 29.328 -0.65863 -3.17541 0
M  V30 330 H 29.113 -2.43032 -3.07698 0
M  V30 331 H 30.603 -1.7466 -3.7932 0
M  V30 332 N 31.0401 0.771051 -1.3745 0
M  V30 333 C 31.9871 1.88435 -1.3327 0
M  V30 334 C 32.9571 1.64914 -0.198136 0
M  V30 335 O 34.1421 1.86821 -0.387606 0
M  V30 336 C 31.2821 3.25509 -1.14622 0
M  V30 337 C 30.3951 3.60979 -2.37314 0
M  V30 338 C 29.5301 4.87265 -2.11533 0
M  V30 339 C 28.5691 5.15469 -3.30088 0
M  V30 340 N 27.7061 6.32944 -3.03853 0
M  V30 341 H 32.5461 1.91344 -2.28455 0
M  V30 342 H 30.0831 0.935466 -1.13523 0
M  V30 343 H 32.0411 4.04582 -1.01831 0
M  V30 344 H 30.6711 3.21974 -0.230837 0
M  V30 345 H 29.7231 2.76885 -2.60842 0
M  V30 346 H 31.0351 3.77759 -3.25729 0
M  V30 347 H 30.1891 5.74244 -1.95777 0
M  V30 348 H 28.9281 4.7259 -1.20457 0
M  V30 349 H 27.9331 4.26966 -3.46382 0
M  V30 350 H 29.1581 5.32052 -4.22016 0
M  V30 351 H 27.1041 6.19625 -2.15407 0
M  V30 352 H 27.0211 6.50143 -3.85812 0
M  V30 353 H 28.2891 7.22857 -2.91716 0
M  V30 354 N 32.5182 1.22032 0.997298 0
M  V30 355 C 33.4482 1.01065 2.10495 0
M  V30 356 C 34.4292 -0.0669542 1.69968 0
M  V30 357 O 35.6142 0.0943987 1.9397 0
M  V30 358 C 32.7442 0.582874 3.42374 0
M  V30 359 C 31.6982 1.60592 3.96729 0
M  V30 360 C 31.0242 1.03412 5.24605 0
M  V30 361 C 32.3242 2.99478 4.27914 0
M  V30 362 H 34.0182 1.93708 2.28292 0
M  V30 363 H 31.5642 0.932761 1.09707 0
M  V30 364 H 33.5172 0.423332 4.19268 0
M  V30 365 H 32.2412 -0.379213 3.24391 0
M  V30 366 H 30.9002 1.75316 3.21963 0
M  V30 367 H 30.5482 0.063518 5.0296 0
M  V30 368 H 30.2482 1.71754 5.61938 0
M  V30 369 H 31.7722 0.886066 6.04137 0
M  V30 370 H 33.1862 2.88153 4.95622 0
M  V30 371 H 31.5832 3.64903 4.76409 0
M  V30 372 H 32.6532 3.49742 3.3587 0
M  V30 373 N 33.9963 -1.19345 1.0293 0
M  V30 374 C 35.2443 -1.88665 0.724574 0
M  V30 375 C 35.5653 -1.80036 -0.749144 0
M  V30 376 O 34.8353 -1.2111 -1.53978 0
M  V30 377 H 33.4153 -0.698406 0.265025 0
M  V30 378 H 36.0773 -1.44885 1.30362 0
M  V30 379 H 35.1733 -2.94987 1.01926 0
M  V30 380 N 35.4744 -0.807222 -1.35358 0
M  V30 381 C 36.7214 -0.387888 -1.9875 0
M  V30 382 C 37.0494 1.04509 -1.64037 0
M  V30 383 O 36.3044 1.73986 -0.895946 0
M  V30 384 C 36.6034 -0.519036 -3.53611 0
M  V30 385 C 36.2694 -1.91542 -4.08194 0
M  V30 386 C 34.9314 -2.29745 -4.22813 0
M  V30 387 C 37.2834 -2.82896 -4.37744 0
M  V30 388 C 34.6114 -3.58668 -4.643 0
M  V30 389 C 36.9634 -4.11265 -4.8067 0
M  V30 390 C 35.6274 -4.49466 -4.93494 0
M  V30 391 H 34.8974 -0.141938 -0.727279 0
M  V30 392 H 37.5444 -1.02814 -1.6156 0
M  V30 393 H 35.8494 0.204658 -3.91265 0
M  V30 394 H 37.5464 -0.175345 -4.00616 0
M  V30 395 H 34.1364 -1.60862 -3.97268 0
M  V30 396 H 38.3204 -2.54629 -4.26002 0
M  V30 397 H 33.5764 -3.88113 -4.72418 0
M  V30 398 H 37.7504 -4.82153 -5.02496 0
M  V30 399 H 35.3774 -5.49418 -5.25399 0
M  V30 400 N 36.9525 1.47285 -0.560781 0
M  V30 401 C 38.3685 1.58065 -0.22081 0
M  V30 402 C 38.5685 1.55892 1.27671 0
M  V30 403 O 37.6245 1.46422 2.0571 0
M  V30 404 C 38.9375 2.88418 -0.850625 0
M  V30 405 C 40.4855 3.02009 -0.822184 0
M  V30 406 C 40.9605 4.35066 -1.43113 0
M  V30 407 N 42.4515 4.41711 -1.39448 0
M  V30 408 C 43.1865 5.43237 -1.83525 0
M  V30 409 N 42.6825 6.51555 -2.35474 0
M  V30 410 N 44.4755 5.34304 -1.74574 0
M  V30 411 H 36.6265 1.46941 -1.53369 0
M  V30 412 H 38.8895 0.699558 -0.639783 0
M  V30 413 H 38.5955 2.95755 -1.9032 0
M  V30 414 H 38.4695 3.75612 -0.345773 0
M  V30 415 H 40.8565 2.94266 0.221714 0
M  V30 416 H 40.9375 2.16347 -1.36483 0
M  V30 417 H 40.5815 4.43565 -2.47412 0
M  V30 418 H 40.5115 5.19465 -0.863899 0
M  V30 419 H 43.0025 3.64027 -1.01452 0
M  V30 420 H 43.3155 7.25203 -2.67021 0
M  V30 421 H 41.6605 6.52435 -2.39487 0
M  V30 422 H 44.8515 4.48581 -1.33763 0
M  V30 423 H 45.0245 6.13288 -2.09242 0
M  V30 424 N 38.4306 0.297415 1.54768 0
M  V30 425 C 39.3786 -0.596051 2.24833 0
M  V30 426 C 40.3726 -1.13992 1.25308 0
M  V30 427 O 41.5786 -1.09098 1.4317 0
M  V30 428 H 37.9536 -0.210814 0.721846 0
M  V30 429 H 39.9246 0.0174667 2.98395 0
M  V30 430 C 38.6736 -1.75818 2.99972 0
M  V30 431 H 37.9966 -1.3489 3.76357 0
M  V30 432 H 39.4366 -2.35949 3.52284 0
M  V30 433 C 37.8956 -2.66014 2.06732 0
M  V30 434 O 38.4256 -3.67009 1.63302 0
M  V30 435 N 36.6316 -2.33669 1.72763 0
M  V30 436 H 36.1786 -1.51586 2.08277 0
M  V30 437 H 36.1366 -2.94285 1.10652 0
M  V30 438 N 39.9087 -1.5758 0.0250728 0
M  V30 439 C 40.8587 -2.06468 -0.967201 0
M  V30 440 C 41.8427 -0.964376 -1.28797 0
M  V30 441 O 43.0347 -1.22797 -1.27475 0
M  V30 442 C 40.1637 -2.59203 -2.25097 0
M  V30 443 C 39.2497 -3.76157 -1.95874 0
M  V30 444 N 39.6407 -4.86919 -1.36905 0
M  V30 445 C 37.9387 -3.84566 -2.25887 0
M  V30 446 C 38.6397 -5.68172 -1.24724 0
M  V30 447 N 37.6157 -5.14953 -1.74138 0
M  V30 448 H 41.4177 -2.89508 -0.506176 0
M  V30 449 H 38.9317 -1.61399 -0.18004 0
M  V30 450 H 40.9287 -2.92517 -2.97052 0
M  V30 451 H 39.5887 -1.77592 -2.71829 0
M  V30 452 H 40.5997 -5.07256 -1.04459 0
M  V30 453 H 37.2767 -3.13854 -2.75321 0
M  V30 454 H 38.6667 -6.67221 -0.791605 0
M  V30 455 N 41.3868 0.248026 -1.55636 0
M  V30 456 C 42.6328 0.973427 -1.78594 0
M  V30 457 C 42.9878 1.83007 -0.593823 0
M  V30 458 O 42.2808 1.87097 0.412961 0
M  V30 459 C 42.4748 1.86819 -3.04686 0
M  V30 460 C 42.3038 1.09965 -4.36048 0
M  V30 461 C 41.0738 0.805204 -4.98843 0
M  V30 462 C 43.2718 0.477783 -5.12076 0
M  V30 463 N 41.2538 0.0124859 -6.13899 0
M  V30 464 C 42.6248 -0.179565 -6.1974 0
M  V30 465 C 44.6798 0.388136 -4.96385 0
M  V30 466 C 43.3828 -0.91795 -7.13419 0
M  V30 467 C 45.4088 -0.336716 -5.90441 0
M  V30 468 C 44.7708 -0.982705 -6.97511 0
M  V30 469 H 40.8698 0.337348 -0.705493 0
M  V30 470 H 43.4538 0.24667 -1.93131 0
M  V30 471 H 41.6248 2.56698 -2.9148 0
M  V30 472 H 43.3568 2.52907 -3.15944 0
M  V30 473 H 40.1118 1.11671 -4.60246 0
M  V30 474 H 40.5358 -0.371933 -6.75978 0
M  V30 475 H 45.1778 0.873237 -4.13684 0
M  V30 476 H 42.8958 -1.41466 -7.95621 0
M  V30 477 H 46.4818 -0.406731 -5.80377 0
M  V30 478 H 45.3618 -1.53464 -7.69037 0
M  V30 479 N 42.8649 1.48995 0.513639 0
M  V30 480 C 44.0949 1.61297 1.291 0
M  V30 481 C 44.5029 0.278656 1.87137 0
M  V30 482 O 43.8459 -0.744325 1.67945 0
M  V30 483 C 43.9079 2.61326 2.46879 0
M  V30 484 C 43.5719 4.05993 2.09807 0
M  V30 485 C 44.5689 4.93183 1.64519 0
M  V30 486 C 42.2539 4.51642 2.19829 0
M  V30 487 C 44.2479 6.24056 1.2974 0
M  V30 488 C 41.9349 5.82532 1.84662 0
M  V30 489 C 42.9329 6.68562 1.3969 0
M  V30 490 O 42.6209 7.97014 1.04992 0
M  V30 491 H 42.3529 0.546236 0.39825 0
M  V30 492 H 44.9069 1.95673 0.62459 0
M  V30 493 H 43.1369 2.22104 3.16554 0
M  V30 494 H 44.8259 2.6329 3.08923 0
M  V30 495 H 45.5919 4.59147 1.56233 0
M  V30 496 H 41.4709 3.84855 2.53786 0
M  V30 497 H 45.0149 6.91161 0.945659 0
M  V30 498 H 40.9119 6.16099 1.92594 0
M  V30 499 H 41.6799 8.09913 1.18249 0
M  V30 500 N 44.343 -0.763751 1.37857 0
M  V30 501 C 45.754 -1.3405 1.29952 0
M  V30 502 C 46.105 -1.96138 -0.0492898 0
M  V30 503 O 45.23 -1.94372 -0.951239 0
M  V30 504 C 45.825 -2.43729 2.35333 0
M  V30 505 C 44.384 -2.97151 2.31037 0
M  V30 506 C 43.531 -1.70438 2.18738 0
M  V30 507 H 46.482 -0.563396 1.48363 0
M  V30 508 H 46.503 -3.23412 2.00462 0
M  V30 509 H 46.015 -1.9851 3.33489 0
M  V30 510 H 44.116 -3.46724 1.3643 0
M  V30 511 H 44.229 -3.52221 3.24772 0
M  V30 512 H 42.593 -1.93673 1.65418 0
M  V30 513 H 43.376 -1.27312 3.18821 0
M  V30 514 N 45.8211 -1.22559 -0.990812 0
M  V30 515 C 47.0671 -1.05297 -1.73322 0
M  V30 516 C 47.4001 0.410655 -1.89808 0
M  V30 517 O 46.6751 1.30439 -1.44277 0
M  V30 518 C 46.9581 -1.76713 -3.13759 0
M  V30 519 C 46.8111 -3.30684 -3.04907 0
M  V30 520 C 48.1301 -1.52121 -4.12974 0
M  V30 521 H 45.2491 -0.38392 -0.629106 0
M  V30 522 H 47.8911 -1.50926 -1.15418 0
M  V30 523 H 46.0411 -1.37924 -3.63193 0
M  V30 524 H 47.7131 -3.7893 -2.63077 0
M  V30 525 H 45.9561 -3.60253 -2.41661 0
M  V30 526 H 46.6271 -3.75833 -4.04294 0
M  V30 527 H 49.1031 -1.85819 -3.72304 0
M  V30 528 H 47.9791 -2.04582 -5.0935 0
M  V30 529 H 48.2401 -0.454257 -4.3976 0
M  V30 530 N 47.2992 1.18797 -1.03562 0
M  V30 531 C 48.2322 2.2105 -0.56676 0
M  V30 532 C 49.2102 1.57704 0.395993 0
M  V30 533 O 50.3942 1.85908 0.311498 0
M  V30 534 C 47.5212 3.38259 0.172704 0
M  V30 535 C 46.5672 4.19987 -0.74252 0
M  V30 536 S 47.4002 4.87199 -2.22254 0
M  V30 537 C 48.5562 6.07813 -1.49379 0
M  V30 538 H 48.7892 2.60478 -1.43312 0
M  V30 539 H 46.3222 1.29151 -0.846133 0
M  V30 540 H 48.2802 4.06191 0.593191 0
M  V30 541 H 46.9412 2.97252 1.01488 0
M  V30 542 H 46.1342 5.03709 -0.171265 0
M  V30 543 H 45.7362 3.57408 -1.10163 0
M  V30 544 H 48.0282 6.72948 -0.784056 0
M  V30 545 H 48.9712 6.69435 -2.30786 0
M  V30 546 H 49.3792 5.55781 -0.988331 0
M  V30 547 N 48.7773 0.814389 1.34928 0
M  V30 548 C 50.0243 0.398423 1.98542 0
M  V30 549 C 50.3523 -1.03638 1.64589 0
M  V30 550 O 49.6073 -1.73509 0.90516 0
M  V30 551 C 49.9063 0.537781 3.53331 0
M  V30 552 C 49.5723 1.93704 4.07172 0
M  V30 553 C 48.2343 2.31984 4.21589 0
M  V30 554 C 50.5863 2.85213 4.36237 0
M  V30 555 C 47.9143 3.61125 4.62391 0
M  V30 556 C 50.2663 4.13809 4.78482 0
M  V30 557 C 48.9303 4.52077 4.91104 0
M  V30 558 H 48.2003 0.145793 0.726516 0
M  V30 559 H 50.8473 1.03669 1.61012 0
M  V30 560 H 49.1523 -0.183906 3.91368 0
M  V30 561 H 50.8493 0.196588 4.00518 0
M  V30 562 H 47.4393 1.62966 3.96409 0
M  V30 563 H 51.6233 2.56885 4.24645 0
M  V30 564 H 46.8793 3.90612 4.70353 0
M  V30 565 H 51.0533 4.84811 4.99932 0
M  V30 566 H 48.6803 5.52196 5.22478 0
M  V30 567 N 50.2554 -1.46986 0.568584 0
M  V30 568 C 51.4804 -2.07335 0.0520528 0
M  V30 569 C 51.9054 -1.41675 -1.23733 0
M  V30 570 O 51.2634 -0.495623 -1.74394 0
M  V30 571 C 51.3114 -3.60417 -0.11501 0
M  V30 572 O 50.4154 -3.95309 -1.17492 0
M  V30 573 H 49.7564 -0.661597 0.0564385 0
M  V30 574 H 52.2864 -1.88837 0.787507 0
M  V30 575 H 52.2964 -4.06698 -0.325644 0
M  V30 576 H 50.9714 -4.07601 0.826675 0
M  V30 577 H 49.5484 -3.60757 -0.943869 0
M  V30 578 N 51.7335 -0.305618 -1.54608 0
M  V30 579 C 52.6805 0.568421 -2.23691 0
M  V30 580 C 53.6505 1.12592 -1.22116 0
M  V30 581 O 54.8355 1.16959 -1.50749 0
M  V30 582 C 51.9755 1.7322 -2.98477 0
M  V30 583 C 51.0885 1.20566 -4.14835 0
M  V30 584 C 50.2235 2.33368 -4.77193 0
M  V30 585 C 49.2625 1.7787 -5.85686 0
M  V30 586 N 48.3995 2.84263 -6.4198 0
M  V30 587 H 53.2395 -0.0272867 -2.97988 0
M  V30 588 H 50.7765 -0.0252363 -1.47078 0
M  V30 589 H 52.7345 2.41675 -3.40072 0
M  V30 590 H 51.3645 2.29947 -2.26548 0
M  V30 591 H 50.4165 0.413223 -3.78149 0
M  V30 592 H 51.7285 0.759417 -4.92985 0
M  V30 593 H 50.8825 3.09761 -5.21664 0
M  V30 594 H 49.6215 2.8132 -3.98385 0
M  V30 595 H 48.6265 0.99968 -5.40635 0
M  V30 596 H 49.8515 1.30816 -6.66381 0
M  V30 597 H 47.7975 3.31541 -5.66053 0
M  V30 598 H 47.7145 2.44149 -7.15491 0
M  V30 599 H 48.9825 3.6054 -6.91109 0
M  V30 600 N 53.2116 1.57565 -0.0334293 0
M  V30 601 C 54.1216 2.13943 0.962572 0
M  V30 602 C 55.1376 1.09276 1.35406 0
M  V30 603 O 56.3136 1.41355 1.4346 0
M  V30 604 C 53.3786 2.65887 2.22497 0
M  V30 605 C 52.4396 3.85286 1.8935 0
M  V30 606 C 51.6726 4.34743 3.09571 0
M  V30 607 O 51.8956 3.83352 4.22371 0
M  V30 608 O 50.8296 5.26538 2.91618 0
M  V30 609 H 54.6556 2.99333 0.513169 0
M  V30 610 H 52.2406 1.4822 0.18743 0
M  V30 611 H 54.1226 2.99346 2.96598 0
M  V30 612 H 52.7976 1.83578 2.6661 0
M  V30 613 H 51.7046 3.56746 1.1262 0
M  V30 614 H 53.0376 4.68771 1.5005 0
M  V30 615 N 54.6897 -0.239769 1.55765 0
M  V30 616 C 55.9387 -0.964754 1.77131 0
M  V30 617 C 56.2517 -1.86213 0.59868 0
M  V30 618 O 57.4577 -2.6244 0.695522 0
M  V30 619 C 55.9137 -1.76552 3.1362 0
M  V30 620 C 55.5217 -0.915185 4.38553 0
M  V30 621 C 57.2657 -2.48281 3.44321 0
M  V30 622 C 55.1727 -1.71225 5.66071 0
M  V30 623 H 54.1027 -0.363953 0.660344 0
M  V30 624 H 56.7537 -0.219181 1.82186 0
M  V30 625 H 55.1357 -2.55331 3.02691 0
M  V30 626 H 56.3097 -0.169217 4.60489 0
M  V30 627 H 54.6247 -0.310889 4.15238 0
M  V30 628 H 57.2217 -3.08382 4.36812 0
M  V30 629 H 57.5647 -3.20256 2.65973 0
M  V30 630 H 58.0977 -1.76507 3.56497 0
M  V30 631 H 54.8367 -1.03612 6.4726 0
M  V30 632 H 54.3567 -2.43331 5.48224 0
M  V30 633 H 56.0357 -2.27758 6.05587 0
M  V30 634 N 56.1678 -1.49265 -0.50573 0
M  V30 635 C 57.1158 -1.66065 -1.62866 0
M  V30 636 C 58.1098 -0.526636 -1.61006 0
M  V30 637 O 59.3158 -0.706126 -1.65571 0
M  V30 638 H 55.6908 -0.52356 -0.539805 0
M  V30 639 H 57.6618 -2.60329 -1.45848 0
M  V30 640 C 56.4108 -1.74008 -3.01026 0
M  V30 641 H 55.7338 -2.6064 -3.03161 0
M  V30 642 H 57.1738 -1.89798 -3.79147 0
M  V30 643 C 55.6328 -0.483868 -3.33407 0
M  V30 644 O 56.1628 0.392548 -3.99777 0
M  V30 645 N 54.3688 -0.348236 -2.88506 0
M  V30 646 H 53.9158 -1.06242 -2.34671 0
M  V30 647 H 53.8738 0.491204 -3.10539 0
M  V30 648 N 57.6459 0.756429 -1.3826 0
M  V30 649 C 58.5559 1.9009 -1.37488 0
M  V30 650 C 59.5719 1.71855 -0.272366 0
M  V30 651 O 60.7479 1.94827 -0.510318 0
M  V30 652 C 57.8129 3.25421 -1.19592 0
M  V30 653 C 56.8739 3.56202 -2.39622 0
M  V30 654 C 56.1069 4.85075 -2.2257 0
M  V30 655 O 56.3299 5.57246 -1.21793 0
M  V30 656 O 55.2639 5.15269 -3.11098 0
M  V30 657 H 59.0899 1.93695 -2.33914 0
M  V30 658 H 56.6749 0.901313 -1.1915 0
M  V30 659 H 58.5569 4.06337 -1.11661 0
M  V30 660 H 57.2319 3.22634 -0.262486 0
M  V30 661 H 56.1389 2.75458 -2.53128 0
M  V30 662 H 57.4719 3.63747 -3.31586 0
M  V30 663 N 59.124 1.23083 0.984299 0
M  V30 664 C 60.372 1.05848 1.72165 0
M  V30 665 C 60.693 -0.406049 1.90726 0
M  V30 666 O 59.963 -1.29139 1.47309 0
M  V30 667 H 58.543 0.388685 0.637913 0
M  V30 668 H 61.205 1.54736 1.18503 0
M  V30 669 H 60.301 1.54327 2.71274 0
M  V30 670 N 60.6021 -1.18246 1.0419 0
M  V30 671 C 61.5121 -2.25574 0.644476 0
M  V30 672 C 62.5281 -1.70845 -0.329826 0
M  V30 673 O 63.7041 -2.00554 -0.184443 0
M  V30 674 C 60.7691 -3.46697 0.014877 0
M  V30 675 C 59.8301 -4.16554 1.03834 0
M  V30 676 C 59.0631 -5.31894 0.438692 0
M  V30 677 O 59.2861 -5.65385 -0.754752 0
M  V30 678 O 58.2201 -5.90459 1.168 0
M  V30 679 H 62.0461 -2.61836 1.53869 0
M  V30 680 H 59.6311 -1.25352 0.812854 0
M  V30 681 H 61.5131 -4.20062 -0.335538 0
M  V30 682 H 60.1881 -3.12255 -0.853138 0
M  V30 683 H 59.0951 -3.45251 1.44057 0
M  V30 684 H 60.4281 -4.54998 1.87716 0
M  V30 685 N 62.0802 -0.821533 -1.34494 0
M  V30 686 C 63.4912 -0.467956 -1.8074 0
M  V30 687 C 63.8422 1.01151 -1.68116 0
M  V30 688 O 62.9672 1.78707 -1.22036 0
M  V30 689 C 63.5622 -0.842627 -3.28154 0
M  V30 690 C 62.1212 -0.541439 -3.72485 0
M  V30 691 C 61.2682 -1.06028 -2.56229 0
M  V30 692 H 64.2192 -1.01183 -1.22261 0
M  V30 693 H 64.2402 -0.145876 -3.8022 0
M  V30 694 H 63.7522 -1.91945 -3.37311 0
M  V30 695 H 61.8532 0.526034 -3.68868 0
M  V30 696 H 61.9662 -1.08453 -4.66663 0
M  V30 697 H 60.3302 -0.481892 -2.501 0
M  V30 698 H 61.1132 -2.14352 -2.68157 0
M  V30 699 N 63.5583 1.46682 -0.576371 0
M  V30 700 C 64.5053 2.30241 0.160499 0
M  V30 701 C 65.4753 1.40233 0.890162 0
M  V30 702 O 66.6603 1.69186 0.882084 0
M  V30 703 C 63.8003 3.24578 1.1723 0
M  V30 704 C 62.9133 4.29684 0.446736 0
M  V30 705 C 62.0483 5.11154 1.44551 0
M  V30 706 C 61.0873 6.08015 0.70599 0
M  V30 707 N 60.2243 6.82376 1.65251 0
M  V30 708 H 65.0643 2.92727 -0.558127 0
M  V30 709 H 62.6013 1.44272 -0.287056 0
M  V30 710 H 64.5593 3.77711 1.77172 0
M  V30 711 H 63.1893 2.63916 1.85872 0
M  V30 712 H 62.2413 3.79458 -0.267594 0
M  V30 713 H 63.5533 4.98626 -0.131686 0
M  V30 714 H 62.7073 5.68533 2.11791 0
M  V30 715 H 61.4463 4.42158 2.05786 0
M  V30 716 H 60.4513 5.49796 0.0197725 0
M  V30 717 H 61.6763 6.79028 0.09912 0
M  V30 718 H 59.6223 6.16094 2.25308 0
M  V30 719 H 59.5393 7.47556 1.12673 0
M  V30 720 H 60.8073 7.44316 2.31546 0
M  V30 721 N 65.0364 0.313813 1.54444 0
M  V30 722 C 66.2644 -0.293918 2.04802 0
M  V30 723 C 66.6794 -1.46537 1.19047 0
M  V30 724 O 66.0364 -1.81182 0.218939 0
M  V30 725 C 66.0874 -0.737806 3.53891 0
M  V30 726 O 65.8084 0.387038 4.36387 0
M  V30 727 C 67.3094 -1.40936 4.203 0
M  V30 728 H 64.5294 -0.0620057 0.668129 0
M  V30 729 H 67.0734 0.457169 1.99324 0
M  V30 730 H 65.2284 -1.43889 3.59687 0
M  V30 731 H 65.6424 0.0391274 5.24485 0
M  V30 732 H 67.1164 -1.67099 5.26101 0
M  V30 733 H 67.5934 -2.35355 3.70816 0
M  V30 734 H 68.1994 -0.751117 4.18615 0
M  V30 735 N 66.5145 -1.57545 0.0417849 0
M  V30 736 C 67.4445 -2.14009 -0.933929 0
M  V30 737 C 68.4255 -1.05938 -1.33083 0
M  V30 738 O 69.6105 -1.33833 -1.40721 0
M  V30 739 C 66.7405 -2.67747 -2.21199 0
M  V30 740 C 65.6945 -3.80718 -1.95544 0
M  V30 741 C 65.0205 -4.20935 -3.29724 0
M  V30 742 C 66.3205 -5.06258 -1.28452 0
M  V30 743 H 68.0145 -2.95788 -0.463645 0
M  V30 744 H 65.5605 -1.42285 -0.221573 0
M  V30 745 H 67.5135 -3.05886 -2.89848 0
M  V30 746 H 66.2375 -1.83147 -2.70416 0
M  V30 747 H 64.8965 -3.43037 -1.2931 0
M  V30 748 H 64.5445 -3.33298 -3.76724 0
M  V30 749 H 64.2445 -4.9707 -3.13361 0
M  V30 750 H 65.7685 -4.61666 -3.9962 0
M  V30 751 H 67.1825 -5.41903 -1.8712 0
M  V30 752 H 65.5795 -5.87475 -1.22445 0
M  V30 753 H 66.6495 -4.84207 -0.259219 0
M  V30 754 N 67.9926 0.231505 -1.5589 0
M  V30 755 C 68.9396 1.28682 -1.91598 0
M  V30 756 C 69.9096 1.47071 -0.771974 0
M  V30 757 O 71.0946 1.60802 -1.027 0
M  V30 758 C 68.2346 2.6342 -2.22944 0
M  V30 759 C 67.3476 2.52912 -3.50228 0
M  V30 760 C 66.4826 3.80106 -3.7107 0
M  V30 761 C 65.5216 3.64279 -4.91902 0
M  V30 762 N 64.6586 4.834 -5.09184 0
M  V30 763 H 69.4986 0.975305 -2.81588 0
M  V30 764 H 67.0356 0.470299 -1.39379 0
M  V30 765 H 68.9936 3.41869 -2.39126 0
M  V30 766 H 67.6236 2.92687 -1.36139 0
M  V30 767 H 66.6756 1.6595 -3.42294 0
M  V30 768 H 67.9876 2.37133 -4.38827 0
M  V30 769 H 67.1416 4.66999 -3.87295 0
M  V30 770 H 65.8806 3.98799 -2.80733 0
M  V30 771 H 64.8856 2.7577 -4.75637 0
M  V30 772 H 66.1106 3.47067 -5.83714 0
M  V30 773 H 64.0566 5.02425 -4.21788 0
M  V30 774 H 63.9736 4.70311 -5.91898 0
M  V30 775 H 65.2416 5.71747 -5.29835 0
M  V30 776 N 69.4707 1.49531 0.497807 0
M  V30 777 C 70.4007 1.6935 1.60757 0
M  V30 778 C 71.3817 0.542218 1.61227 0
M  V30 779 O 72.5667 0.778417 1.77917 0
M  V30 780 C 69.6967 1.76298 2.99226 0
M  V30 781 C 68.6507 2.91248 3.13622 0
M  V30 782 C 67.9767 2.83312 4.53474 0
M  V30 783 C 69.2767 4.3214 2.93346 0
M  V30 784 H 70.9707 2.62263 1.44425 0
M  V30 785 H 68.5167 1.26208 0.693367 0
M  V30 786 H 70.4697 1.88749 3.76765 0
M  V30 787 H 69.1937 0.799871 3.16654 0
M  V30 788 H 67.8527 2.78404 2.38509 0
M  V30 789 H 67.5007 1.84902 4.67782 0
M  V30 790 H 67.2007 3.60465 4.64046 0
M  V30 791 H 68.7247 2.97775 5.33069 0
M  V30 792 H 70.1387 4.45649 3.60652 0
M  V30 793 H 68.5357 5.1054 3.15387 0
M  V30 794 H 69.6057 4.46363 1.89441 0
M  V30 795 N 70.9488 -0.749086 1.3866 0
M  V30 796 C 71.8788 -1.8764 1.38973 0
M  V30 797 C 72.8598 -1.68178 0.255004 0
M  V30 798 O 74.0448 -1.88704 0.458754 0
M  V30 799 C 71.1748 -3.25222 1.21851 0
M  V30 800 C 70.1288 -3.59295 2.32575 0
M  V30 801 C 69.4548 -4.95663 2.00555 0
M  V30 802 C 70.7548 -3.63709 3.7485 0
M  V30 803 H 72.4488 -1.87635 2.3331 0
M  V30 804 H 69.9948 -0.901329 1.12303 0
M  V30 805 H 71.9478 -4.03746 1.20695 0
M  V30 806 H 70.6718 -3.25719 0.239775 0
M  V30 807 H 69.3308 -2.83093 2.32925 0
M  V30 808 H 68.9788 -4.92724 1.01154 0
M  V30 809 H 68.6788 -5.19429 2.74714 0
M  V30 810 H 70.2028 -5.7656 2.01024 0
M  V30 811 H 71.6168 -4.32338 3.76506 0
M  V30 812 H 70.0138 -3.98986 4.48252 0
M  V30 813 H 71.0838 -2.63834 4.06841 0
M  V30 814 N 72.4269 -1.23603 -0.977757 0
M  V30 815 C 73.6749 -1.06759 -1.71601 0
M  V30 816 C 73.9959 0.395929 -1.90938 0
M  V30 817 O 73.2659 1.28356 -1.47992 0
M  V30 818 H 71.8459 -0.392062 -0.635843 0
M  V30 819 H 74.5079 -1.55362 -1.1768 0
M  V30 820 H 73.6039 -1.55763 -2.70452 0
M  V30 821 N 73.905 1.17692 -1.04816 0
M  V30 822 C 74.815 2.25229 -0.65643 0
M  V30 823 C 75.831 1.71018 0.320761 0
M  V30 824 O 77.007 2.00649 0.173805 0
M  V30 825 C 74.072 3.46684 -0.0332629 0
M  V30 826 C 73.133 4.15997 -1.06042 0
M  V30 827 C 72.366 5.31654 -0.466893 0
M  V30 828 O 72.589 5.65777 0.724758 0
M  V30 829 O 71.523 5.89831 -1.1993 0
M  V30 830 H 75.349 2.61016 -1.55255 0
M  V30 831 H 72.934 1.24919 -0.81949 0
M  V30 832 H 74.816 4.20234 0.313256 0
M  V30 833 H 73.491 3.12703 0.836566 0
M  V30 834 H 72.398 3.44482 -1.45886 0
M  V30 835 H 73.731 4.53996 -1.90127 0
M  V30 836 N 75.3831 0.828654 1.34056 0
M  V30 837 C 76.3311 0.242973 2.31327 0
M  V30 838 C 77.3251 -0.61944 1.57668 0
M  V30 839 O 78.5311 -0.51014 1.7262 0
M  V30 840 H 74.9061 0.059834 0.749616 0
M  V30 841 H 76.8771 1.07809 2.78244 0
M  V30 842 C 75.6261 -0.575733 3.429 0
M  V30 843 H 74.9491 0.0785582 3.99723 0
M  V30 844 H 76.3891 -0.951547 4.13185 0
M  V30 845 C 74.8481 -1.75044 2.87856 0
M  V30 846 O 75.3781 -2.84882 2.83205 0
M  V30 847 N 73.5841 -1.56903 2.44602 0
M  V30 848 H 73.1311 -0.675547 2.48584 0
M  V30 849 H 73.0891 -2.35652 2.08124 0
M  V30 850 N 76.8612 -1.46375 0.584142 0
M  V30 851 C 77.7912 -2.33103 -0.136037 0
M  V30 852 C 78.7722 -1.45431 -0.882255 0
M  V30 853 O 79.9572 -1.74246 -0.857434 0
M  V30 854 C 77.0872 -3.27731 -1.14933 0
M  V30 855 C 76.0412 -4.24855 -0.517862 0
M  V30 856 C 75.3672 -5.09001 -1.63773 0
M  V30 857 C 76.6672 -5.19439 0.545886 0
M  V30 858 H 78.3612 -2.93568 0.588086 0
M  V30 859 H 75.9072 -1.41166 0.284259 0
M  V30 860 H 77.8602 -3.87261 -1.66153 0
M  V30 861 H 76.5842 -2.65377 -1.90375 0
M  V30 862 H 75.2432 -3.6659 -0.0267361 0
M  V30 863 H 74.8912 -4.43031 -2.38185 0
M  V30 864 H 74.5912 -5.74777 -1.22085 0
M  V30 865 H 76.1152 -5.71396 -2.15266 0
M  V30 866 H 77.5292 -5.73177 0.118704 0
M  V30 867 H 75.9262 -5.93566 0.88317 0
M  V30 868 H 76.9962 -4.63285 1.43162 0
M  V30 869 N 78.3393 -0.321999 -1.54275 0
M  V30 870 C 79.2693 0.537411 -2.27231 0
M  V30 871 C 80.2503 1.12064 -1.27968 0
M  V30 872 O 81.4353 1.14606 -1.56777 0
M  V30 873 C 78.5653 1.69919 -3.02894 0
M  V30 874 C 77.5193 1.24534 -4.09482 0
M  V30 875 C 76.8453 2.49394 -4.72977 0
M  V30 876 C 78.1453 0.361335 -5.21049 0
M  V30 877 H 79.8393 -0.0711406 -2.99315 0
M  V30 878 H 77.3853 -0.0356555 -1.43956 0
M  V30 879 H 79.3383 2.30668 -3.52662 0
M  V30 880 H 78.0623 2.33431 -2.28424 0
M  V30 881 H 76.7213 0.660782 -3.60596 0
M  V30 882 H 76.3693 3.11265 -3.95124 0
M  V30 883 H 76.0693 2.19718 -5.44975 0
M  V30 884 H 77.5933 3.10908 -5.25517 0
M  V30 885 H 79.0073 0.875072 -5.66582 0
M  V30 886 H 77.4043 0.157428 -5.99893 0
M  V30 887 H 78.4743 -0.60822 -4.8107 0
M  V30 888 N 79.8174 1.5752 -0.0501392 0
M  V30 889 C 81.0634 1.92936 0.624798 0
M  V30 890 C 81.3964 0.928685 1.70555 0
M  V30 891 O 80.6714 -0.0454779 1.94447 0
M  V30 892 C 80.9544 3.38737 1.22185 0
M  V30 893 C 80.8074 4.49552 0.149218 0
M  V30 894 C 82.1264 3.84913 2.13378 0
M  V30 895 H 79.2454 0.701604 0.225657 0
M  V30 896 H 81.8874 1.89671 -0.111693 0
M  V30 897 H 80.0374 3.4165 1.84953 0
M  V30 898 H 81.7094 4.58768 -0.482648 0
M  V30 899 H 79.9524 4.30638 -0.522841 0
M  V30 900 H 80.6234 5.48653 0.606966 0
M  V30 901 H 83.0994 3.8387 1.60572 0
M  V30 902 H 81.9754 4.87584 2.52097 0
M  V30 903 H 82.2364 3.21611 3.03346 0
M  V30 904 N 81.2955 -0.223234 1.56011 0
M  V30 905 C 82.2435 -1.29627 1.93131 0
M  V30 906 C 83.2375 -1.48608 0.813146 0
M  V30 907 O 84.4435 -1.49802 0.997966 0
M  V30 908 H 80.8185 -0.434563 0.613726 0
M  V30 909 H 82.7895 -0.955995 2.82672 0
M  V30 910 C 81.5385 -2.63983 2.26292 0
M  V30 911 H 80.8615 -2.50185 3.11846 0
M  V30 912 H 82.3015 -3.3788 2.56151 0
M  V30 913 C 80.7605 -3.18866 1.08747 0
M  V30 914 O 81.2905 -4.00192 0.347727 0
M  V30 915 N 79.4965 -2.77217 0.871743 0
M  V30 916 H 79.0435 -2.1119 1.47501 0
M  V30 917 H 79.0015 -3.1428 0.0869905 0
M  V30 918 N 82.7736 -1.49793 -0.48987 0
M  V30 919 C 84.1896 -1.36803 -0.822022 0
M  V30 920 C 84.3896 -0.409652 -1.97292 0
M  V30 921 O 83.4456 0.154614 -2.52026 0
M  V30 922 C 84.7586 -2.77768 -1.15175 0
M  V30 923 C 86.3066 -2.86549 -1.25931 0
M  V30 924 C 86.7816 -4.28306 -1.62228 0
M  V30 925 N 88.2726 -4.31169 -1.69256 0
M  V30 926 C 89.0076 -5.37832 -1.98807 0
M  V30 927 N 88.5036 -6.54726 -2.26507 0
M  V30 928 N 90.2966 -5.25258 -2.00152 0
M  V30 929 H 82.4476 -2.10691 0.268881 0
M  V30 930 H 84.7106 -0.946241 0.057728 0
M  V30 931 H 84.4166 -3.49648 -0.379335 0
M  V30 932 H 84.2906 -3.13836 -2.09253 0
M  V30 933 H 86.6776 -2.14899 -2.02243 0
M  V30 934 H 86.7586 -2.54049 -0.298776 0
M  V30 935 H 86.4026 -5.00486 -0.864622 0
M  V30 936 H 86.3326 -4.58279 -2.594 0
M  V30 937 H 88.8236 -3.4687 -1.49965 0
M  V30 938 H 89.1366 -7.31833 -2.48276 0
M  V30 939 H 87.4816 -6.57933 -2.23939 0
M  V30 940 H 90.6726 -4.32938 -1.77996 0
M  V30 941 H 90.8456 -6.08476 -2.22848 0
M  V30 942 N 84.2517 0.741722 -1.39055 0
M  V30 943 C 85.5007 1.49656 -1.35225 0
M  V30 944 C 85.8137 1.95533 0.0512708 0
M  V30 945 O 87.0197 2.7067 0.212138 0
M  V30 946 C 85.4757 2.70389 -2.37525 0
M  V30 947 C 85.0837 2.31489 -3.83558 0
M  V30 948 C 86.8277 3.48236 -2.42759 0
M  V30 949 C 84.7347 3.48903 -4.77515 0
M  V30 950 H 83.6647 0.56197 -0.502699 0
M  V30 951 H 86.3157 0.809727 -1.64668 0
M  V30 952 H 84.6977 3.41113 -2.01142 0
M  V30 953 H 85.8717 1.68354 -4.28945 0
M  V30 954 H 84.1867 1.66749 -3.81554 0
M  V30 955 H 86.7837 4.35558 -3.1015 0
M  V30 956 H 87.1267 3.90229 -1.45008 0
M  V30 957 H 87.6597 2.84535 -2.78002 0
M  V30 958 H 84.3987 3.11966 -5.76504 0
M  V30 959 H 83.9187 4.11041 -4.36813 0
M  V30 960 H 85.5977 4.15328 -4.96096 0
M  V30 961 N 85.7298 1.2412 0.971189 0
M  V30 962 C 87.0068 0.986867 1.6888 0
M  V30 963 C 87.3868 -0.491857 2.0529 0
M  V30 964 O 86.7348 -1.46531 1.75331 0
M  V30 965 C 86.9448 1.9063 2.92338 0
M  V30 966 C 88.2928 2.17515 3.64654 0
M  V30 967 O 89.3168 1.88254 3.02388 0
M  V30 968 O 88.1758 2.6719 4.7673 0
M  V30 969 H 85.2698 0.372944 0.738134 0
M  V30 970 H 87.8158 1.35203 1.02559 0
M  V30 971 H 86.5878 2.90552 2.62097 0
M  V30 972 H 86.2108 1.54408 3.66393 0
M  V30 973 N 87.2079 -1.17134 1.05439 0
M  V30 974 C 88.4559 -1.87085 0.764429 0
M  V30 975 C 88.7769 -1.81584 -0.710787 0
M  V30 976 O 88.0469 -1.24349 -1.51374 0
M  V30 977 H 86.6269 -0.692627 0.279779 0
M  V30 978 H 89.2889 -1.42087 1.33406 0
M  V30 979 H 88.3849 -2.92759 1.0816 0
M  V30 980 N 88.686 -0.835752 -1.33615 0
M  V30 981 C 89.633 -0.26473 -2.29277 0
M  V30 982 C 90.603 0.617712 -1.54187 0
M  V30 983 O 91.788 0.556641 -1.825 0
M  V30 984 C 88.928 0.556777 -3.40579 0
M  V30 985 C 88.041 -0.349339 -4.30585 0
M  V30 986 C 87.176 0.482969 -5.29 0
M  V30 987 C 86.215 -0.421732 -6.10645 0
M  V30 988 N 85.352 0.372262 -7.01112 0
M  V30 989 H 90.192 -1.08582 -2.77514 0
M  V30 990 H 87.729 -0.546927 -1.36554 0
M  V30 991 H 89.687 1.04852 -4.03809 0
M  V30 992 H 88.317 1.34286 -2.93542 0
M  V30 993 H 87.369 -0.959372 -3.68104 0
M  V30 994 H 88.681 -1.04445 -4.87742 0
M  V30 995 H 87.835 1.03866 -5.97743 0
M  V30 996 H 86.574 1.21153 -4.72412 0
M  V30 997 H 85.579 -0.989464 -5.40823 0
M  V30 998 H 86.804 -1.14861 -6.69316 0
M  V30 999 H 84.75 1.08426 -6.46977 0
M  V30 1000 H 84.667 -0.264198 -7.55538 0
M  V30 1001 H 85.935 0.910293 -7.74167 0
M  V30 1002 N 90.1641 1.46063 -0.591896 0
M  V30 1003 C 91.0941 2.33172 0.123673 0
M  V30 1004 C 92.0751 1.45897 0.87453 0
M  V30 1005 O 93.2601 1.74698 0.848181 0
M  V30 1006 C 90.3901 3.28336 1.13194 0
M  V30 1007 C 89.3441 4.25124 0.495324 0
M  V30 1008 C 88.6701 5.09863 1.61071 0
M  V30 1009 C 89.9701 5.19143 -0.573425 0
M  V30 1010 H 91.6641 2.93252 -0.603646 0
M  V30 1011 H 89.2101 1.41014 -0.291741 0
M  V30 1012 H 91.1631 3.88137 1.64097 0
M  V30 1013 H 89.8871 2.66383 1.88965 0
M  V30 1014 H 88.5461 3.66599 0.00729452 0
M  V30 1015 H 88.1941 4.44288 2.35832 0
M  V30 1016 H 87.8941 5.75417 1.19035 0
M  V30 1017 H 89.4181 5.72529 2.12233 0
M  V30 1018 H 90.8321 5.73106 -0.1491 0
M  V30 1019 H 89.2291 5.93089 -0.914636 0
M  V30 1020 H 90.2991 4.62519 -1.45617 0
M  V30 1021 N 91.6422 0.330177 1.54103 0
M  V30 1022 C 92.8722 -0.271784 2.04805 0
M  V30 1023 C 93.2802 -1.45816 1.20559 0
M  V30 1024 O 92.6232 -1.82247 0.2306 0
M  V30 1025 C 92.6852 -0.763238 3.51305 0
M  V30 1026 C 92.3492 0.301705 4.56003 0
M  V30 1027 C 93.3462 1.13999 5.07248 0
M  V30 1028 C 91.0312 0.451793 5.00264 0
M  V30 1029 C 93.0252 2.11402 6.01322 0
M  V30 1030 C 90.7122 1.42924 5.94151 0
M  V30 1031 C 91.7102 2.25882 6.44567 0
M  V30 1032 O 91.3982 3.21965 7.3661 0
M  V30 1033 H 91.1302 -0.058693 0.673447 0
M  V30 1034 H 93.6842 0.476395 1.99799 0
M  V30 1035 H 91.9142 -1.56244 3.5373 0
M  V30 1036 H 93.6032 -1.28427 3.85047 0
M  V30 1037 H 94.3692 1.03505 4.73827 0
M  V30 1038 H 90.2482 -0.184044 4.60632 0
M  V30 1039 H 93.7922 2.76192 6.40596 0
M  V30 1040 H 89.6892 1.53479 6.26988 0
M  V30 1041 H 90.4572 3.17281 7.54503 0
M  V30 1042 N 93.1203 -1.57491 0.0584922 0
M  V30 1043 C 94.3603 -1.94851 -0.617458 0
M  V30 1044 C 94.7243 -0.937165 -1.67575 0
M  V30 1045 O 95.9253 -1.19795 -2.40629 0
M  V30 1046 C 94.1963 -3.36955 -1.19147 0
M  V30 1047 S 95.7553 -3.96277 -1.8844 0
M  V30 1048 H 92.5733 -0.681539 -0.202547 0
M  V30 1049 H 95.1753 -1.95073 0.129176 0
M  V30 1050 H 93.8793 -4.08355 -0.409215 0
M  V30 1051 H 93.4103 -3.40245 -1.97476 0
M  V30 1052 H 95.4253 -3.82099 -3.16568 0
M  V30 1053 N 94.5984 0.214957 -1.56127 0
M  V30 1054 C 95.5284 1.2695 -1.95974 0
M  V30 1055 C 96.5094 1.48539 -0.828868 0
M  V30 1056 O 97.6944 1.60611 -1.09168 0
M  V30 1057 C 94.8244 2.61794 -2.28214 0
M  V30 1058 C 93.7784 2.54851 -3.43853 0
M  V30 1059 C 93.1044 3.93785 -3.61715 0
M  V30 1060 C 94.4044 2.09065 -4.78632 0
M  V30 1061 H 96.0984 0.93846 -2.84312 0
M  V30 1062 H 93.6444 0.449996 -1.36788 0
M  V30 1063 H 95.5974 3.35731 -2.54682 0
M  V30 1064 H 94.3214 2.96599 -1.36736 0
M  V30 1065 H 92.9804 1.8337 -3.17444 0
M  V30 1066 H 92.6284 4.25908 -2.67602 0
M  V30 1067 H 92.3284 3.90019 -4.39498 0
M  V30 1068 H 93.8524 4.69374 -3.90539 0
M  V30 1069 H 95.2664 2.7275 -5.04262 0
M  V30 1070 H 93.6634 2.16346 -5.59745 0
M  V30 1071 H 94.7334 1.04315 -4.73547 0
M  V30 1072 N 96.0765 1.50051 0.48192 0
M  V30 1073 C 97.0235 1.68122 1.58125 0
M  V30 1074 C 97.9935 0.522545 1.57666 0
M  V30 1075 O 99.1785 0.751844 1.75362 0
M  V30 1076 C 96.3185 1.77142 2.96167 0
M  V30 1077 C 95.4315 3.0444 3.06497 0
M  V30 1078 C 94.5665 3.04321 4.35387 0
M  V30 1079 C 93.6055 4.26118 4.3942 0
M  V30 1080 N 92.7425 4.238 5.59766 0
M  V30 1081 H 97.5825 2.6198 1.42022 0
M  V30 1082 H 95.1195 1.29877 0.690687 0
M  V30 1083 H 97.0775 1.80352 3.76203 0
M  V30 1084 H 95.7075 0.867329 3.1093 0
M  V30 1085 H 94.7595 3.10752 2.19402 0
M  V30 1086 H 96.0715 3.94426 3.05336 0
M  V30 1087 H 95.2255 3.062 5.23762 0
M  V30 1088 H 93.9645 2.12147 4.39141 0
M  V30 1089 H 92.9695 4.24463 3.49444 0
M  V30 1090 H 94.1945 5.19507 4.37366 0
M  V30 1091 H 92.1405 3.34474 5.64326 0
M  V30 1092 H 92.0575 5.07542 5.60301 0
M  V30 1093 H 93.3255 4.2981 6.50295 0
M  V30 1094 N 97.5546 -0.734337 1.39446 0
M  V30 1095 C 98.8316 -1.48579 1.27215 0
M  V30 1096 C 99.2116 -2.1077 -0.117968 0
M  V30 1097 O 98.5596 -1.98646 -1.12924 0
M  V30 1098 C 98.7696 -2.53667 2.39696 0
M  V30 1099 C 100.118 -3.20031 2.79044 0
M  V30 1100 O 101.142 -2.6398 2.39151 0
M  V30 1101 O 100.001 -4.21455 3.47905 0
M  V30 1102 H 97.0946 -0.659816 0.49857 0
M  V30 1103 H 99.6406 -0.768106 1.51322 0
M  V30 1104 H 98.4126 -2.06096 3.32626 0
M  V30 1105 H 98.0356 -3.32994 2.17258 0
M  V30 1106 N 99.0327 -1.24633 -0.964593 0
M  V30 1107 C 100.449 -1.01239 -1.2338 0
M  V30 1108 C 100.649 0.2769 -1.99588 0
M  V30 1109 O 99.7047 0.992241 -2.32187 0
M  V30 1110 C 101.018 -2.22937 -2.01791 0
M  V30 1111 C 102.566 -2.27594 -2.14872 0
M  V30 1112 C 103.041 -3.48921 -2.96678 0
M  V30 1113 N 104.532 -3.49257 -3.04259 0
M  V30 1114 C 105.267 -4.39795 -3.67924 0
M  V30 1115 N 104.763 -5.40591 -4.33281 0
M  V30 1116 N 106.556 -4.275 -3.64966 0
M  V30 1117 H 98.7067 -2.0748 -0.454502 0
M  V30 1118 H 100.97 -0.910647 -0.26349 0
M  V30 1119 H 100.676 -3.16587 -1.53184 0
M  V30 1120 H 100.55 -2.25306 -3.02518 0
M  V30 1121 H 102.937 -1.34473 -2.6268 0
M  V30 1122 H 103.018 -2.2925 -1.13482 0
M  V30 1123 H 102.662 -4.42359 -2.49562 0
M  V30 1124 H 102.592 -3.4451 -3.98272 0
M  V30 1125 H 105.083 -2.76337 -2.57771 0
M  V30 1126 H 105.396 -6.05904 -4.79687 0
M  V30 1127 H 103.741 -5.44475 -4.3194 0
M  V30 1128 H 106.932 -3.47987 -3.13086 0
M  V30 1129 H 107.105 -4.98258 -4.14298 0
M  V30 1130 N 100.511 1.16574 -1.06058 0
M  V30 1131 C 101.751 1.88723 -0.78504 0
M  V30 1132 C 102.115 1.79706 0.676006 0
M  V30 1133 O 103.316 2.46757 1.06603 0
M  V30 1134 C 101.587 3.34338 -1.26304 0
M  V30 1135 S 103.146 4.24366 -1.1162 0
M  V30 1136 H 99.9638 0.651448 -0.284846 0
M  V30 1137 H 102.566 1.40732 -1.35701 0
M  V30 1138 H 101.27 3.38439 -2.32136 0
M  V30 1139 H 100.801 3.87378 -0.685719 0
M  V30 1140 H 102.816 4.96179 -0.0456539 0
M  V30 1141 N 101.989 0.842826 1.3317 0
M  V30 1142 C 102.919 0.294028 2.31641 0
M  V30 1143 C 103.9 -0.600401 1.59151 0
M  V30 1144 O 105.085 -0.523124 1.87022 0
M  V30 1145 C 102.215 -0.528416 3.43257 0
M  V30 1146 C 101.169 0.27056 4.27144 0
M  V30 1147 C 100.495 -0.675881 5.30411 0
M  V30 1148 C 101.795 1.48981 5.00602 0
M  V30 1149 H 103.489 1.11681 2.77791 0
M  V30 1150 H 101.035 0.538478 1.33553 0
M  V30 1151 H 102.988 -0.922674 4.11175 0
M  V30 1152 H 101.712 -1.38445 2.95805 0
M  V30 1153 H 100.371 0.646427 3.60856 0
M  V30 1154 H 100.019 -1.52842 4.79216 0
M  V30 1155 H 99.7189 -0.145374 5.8742 0
M  V30 1156 H 101.243 -1.06757 6.01195 0
M  V30 1157 H 102.657 1.16849 5.61266 0
M  V30 1158 H 101.054 1.95739 5.6728 0
M  V30 1159 H 102.124 2.25746 4.29147 0
M  V30 1160 N 103.467 -1.45747 0.599634 0
M  V30 1161 C 104.417 -2.27538 -0.145107 0
M  V30 1162 C 105.401 -1.3686 -0.846055 0
M  V30 1163 O 106.593 -1.6091 -0.737357 0
M  V30 1164 C 103.722 -3.23569 -1.14708 0
M  V30 1165 C 102.808 -4.21734 -0.447383 0
M  V30 1166 N 103.199 -5.03257 0.506535 0
M  V30 1167 C 101.497 -4.40536 -0.695966 0
M  V30 1168 C 102.198 -5.74426 0.917068 0
M  V30 1169 N 101.174 -5.42966 0.26253 0
M  V30 1170 H 104.976 -2.87965 0.587672 0
M  V30 1171 H 102.49 -1.56803 0.422697 0
M  V30 1172 H 104.487 -3.8089 -1.69495 0
M  V30 1173 H 103.147 -2.64702 -1.8805 0
M  V30 1174 H 104.158 -5.10319 0.882899 0
M  V30 1175 H 100.835 -3.92802 -1.41467 0
M  V30 1176 H 102.225 -6.4995 1.70338 0
M  V30 1177 N 104.945 -0.338344 -1.53925 0
M  V30 1178 C 106.361 0.0137736 -1.59594 0
M  V30 1179 C 106.561 1.49186 -1.35447 0
M  V30 1180 O 105.617 2.24987 -1.14616 0
M  V30 1181 C 106.93 -0.41773 -2.97784 0
M  V30 1182 C 108.478 -0.369633 -3.1081 0
M  V30 1183 C 108.953 -0.776524 -4.51369 0
M  V30 1184 N 110.444 -0.730506 -4.57403 0
M  V30 1185 C 111.179 -1.01736 -5.64303 0
M  V30 1186 N 110.675 -1.3721 -6.79077 0
M  V30 1187 N 112.468 -0.941942 -5.54151 0
M  V30 1188 H 104.619 -1.3012 -1.67876 0
M  V30 1189 H 106.882 -0.530082 -0.78595 0
M  V30 1190 H 106.588 -1.44811 -3.20504 0
M  V30 1191 H 106.462 0.209729 -3.76616 0
M  V30 1192 H 108.849 0.651568 -2.87817 0
M  V30 1193 H 108.93 -1.03223 -2.34049 0
M  V30 1194 H 108.574 -1.79571 -4.75096 0
M  V30 1195 H 108.504 -0.0914649 -5.26521 0
M  V30 1196 H 110.995 -0.468783 -3.74981 0
M  V30 1197 H 111.308 -1.57597 -7.5656 0
M  V30 1198 H 109.653 -1.4105 -6.80536 0
M  V30 1199 H 112.844 -0.664184 -4.63364 0
M  V30 1200 H 113.017 -1.16884 -6.37371 0
M  V30 1201 N 106.423 1.57458 -0.0668435 0
M  V30 1202 C 107.671 1.92919 0.602214 0
M  V30 1203 C 107.992 0.947215 1.70449 0
M  V30 1204 O 107.262 -0.00544117 1.95899 0
M  V30 1205 H 105.842 0.71217 0.22544 0
M  V30 1206 H 108.504 1.94508 -0.123535 0
M  V30 1207 H 107.6 2.94589 1.03073 0
M  V30 1208 N 107.901 -0.206675 1.56239 0
M  V30 1209 C 109.147 -0.930218 1.80208 0
M  V30 1210 C 109.48 -1.83387 0.638981 0
M  V30 1211 O 108.755 -1.91119 -0.361066 0
M  V30 1212 C 109.038 -1.75641 3.1436 0
M  V30 1213 C 108.891 -0.878257 4.41142 0
M  V30 1214 C 110.21 -2.73129 3.45092 0
M  V30 1215 H 107.329 -0.336742 0.655571 0
M  V30 1216 H 109.971 -0.198222 1.88963 0
M  V30 1217 H 108.121 -2.38048 3.07027 0
M  V30 1218 H 109.793 -0.269787 4.6051 0
M  V30 1219 H 108.036 -0.184385 4.33408 0
M  V30 1220 H 108.707 -1.49106 5.3148 0
M  V30 1221 H 111.183 -2.20856 3.52649 0
M  V30 1222 H 110.059 -3.28028 4.40101 0
M  V30 1223 H 110.32 -3.51606 2.68003 0
M  V30 1224 N 109.379 -1.50304 -0.473955 0
M  V30 1225 C 110.311 -1.65109 -1.58971 0
M  V30 1226 C 111.324 -0.532676 -1.53839 0
M  V30 1227 O 112.513 -0.805751 -1.59279 0
M  V30 1228 C 109.613 -1.61684 -2.97845 0
M  V30 1229 C 108.786 -2.8951 -3.27876 0
M  V30 1230 C 107.845 -2.78768 -4.4629 0
M  V30 1231 O 106.871 -3.52722 -4.46739 0
M  V30 1232 N 108.073 -1.9213 -5.47783 0
M  V30 1233 H 110.838 -2.61347 -1.46689 0
M  V30 1234 H 108.399 -1.47732 -0.662324 0
M  V30 1235 H 110.391 -1.52114 -3.75024 0
M  V30 1236 H 108.961 -0.731925 -3.03911 0
M  V30 1237 H 108.181 -3.13228 -2.39336 0
M  V30 1238 H 109.469 -3.74199 -3.4475 0
M  V30 1239 H 108.867 -1.31353 -5.50239 0
M  V30 1240 H 107.424 -1.88466 -6.23958 0
M  V30 1241 N 110.857 0.726932 -1.39834 0
M  V30 1242 C 111.787 1.85405 -1.41941 0
M  V30 1243 C 112.768 1.67751 -0.281728 0
M  V30 1244 O 113.953 1.8795 -0.488717 0
M  V30 1245 C 111.083 3.23243 -1.2701 0
M  V30 1246 C 110.037 3.55549 -2.38262 0
M  V30 1247 C 109.363 4.9241 -2.08415 0
M  V30 1248 C 110.663 3.577 -3.80589 0
M  V30 1249 H 112.357 1.83899 -2.36266 0
M  V30 1250 H 109.903 0.883349 -1.13723 0
M  V30 1251 H 111.856 4.01775 -1.27103 0
M  V30 1252 H 110.58 3.25296 -0.291564 0
M  V30 1253 H 109.239 2.79351 -2.37399 0
M  V30 1254 H 108.887 4.91052 -1.0898 0
M  V30 1255 H 108.587 5.14992 -2.82943 0
M  V30 1256 H 110.111 5.73289 -2.10171 0
M  V30 1257 H 111.525 4.26293 -3.83337 0
M  V30 1258 H 109.922 3.91804 -4.54543 0
M  V30 1259 H 110.992 2.57328 -4.10987 0
M  V30 1260 N 112.336 1.25143 0.95797 0
M  V30 1261 C 113.561 1.12521 1.74223 0
M  V30 1262 C 113.986 -0.317402 1.85403 0
M  V30 1263 O 113.344 -1.2299 1.33204 0
M  V30 1264 C 113.392 1.78062 3.1357 0
M  V30 1265 O 112.496 1.058 3.98598 0
M  V30 1266 H 111.837 0.39304 0.535178 0
M  V30 1267 H 114.367 1.65641 1.201 0
M  V30 1268 H 114.377 1.84213 3.64046 0
M  V30 1269 H 113.052 2.83021 3.04749 0
M  V30 1270 H 111.629 1.07506 3.57067 0
M  V30 1271 N 113.814 -1.1601 1.06675 0
M  V30 1272 C 115.06 -1.86909 0.786945 0
M  V30 1273 C 115.393 -1.81717 -0.685018 0
M  V30 1274 O 114.668 -1.23551 -1.50218 0
M  V30 1275 C 114.951 -3.36313 1.28707 0
M  V30 1276 C 114.804 -3.50175 2.82308 0
M  V30 1277 C 116.123 -4.3084 0.898071 0
M  V30 1278 H 113.242 -0.678677 0.287343 0
M  V30 1279 H 115.884 -1.36336 1.32334 0
M  V30 1280 H 114.034 -3.79513 0.830768 0
M  V30 1281 H 115.706 -3.15886 3.36175 0
M  V30 1282 H 113.949 -2.91959 3.20847 0
M  V30 1283 H 114.62 -4.55116 3.12368 0
M  V30 1284 H 117.096 -3.95561 1.29114 0
M  V30 1285 H 115.972 -5.33876 1.27543 0
M  V30 1286 H 116.233 -4.41662 -0.196651 0
M  V30 1287 N 115.292 -0.849877 -1.32721 0
M  V30 1288 C 116.239 -0.289033 -2.28983 0
M  V30 1289 C 117.209 0.601324 -1.54833 0
M  V30 1290 O 118.394 0.537253 -1.8308 0
M  V30 1291 C 115.534 0.520623 -3.4115 0
M  V30 1292 C 114.647 -0.394989 -4.3019 0
M  V30 1293 C 113.782 0.426834 -5.29482 0
M  V30 1294 C 112.821 -0.486476 -6.10164 0
M  V30 1295 N 111.958 0.297879 -7.01468 0
M  V30 1296 H 116.798 -1.11519 -2.76347 0
M  V30 1297 H 114.335 -0.56138 -1.35967 0
M  V30 1298 H 116.293 1.00563 -4.04899 0
M  V30 1299 H 114.923 1.31165 -2.9495 0
M  V30 1300 H 113.975 -0.99836 -3.67065 0
M  V30 1301 H 115.287 -1.09612 -4.86607 0
M  V30 1302 H 114.441 0.975205 -5.98811 0
M  V30 1303 H 113.18 1.16136 -4.73671 0
M  V30 1304 H 112.185 -1.04677 -5.39743 0
M  V30 1305 H 113.41 -1.21953 -6.6806 0
M  V30 1306 H 111.356 1.01558 -6.48091 0
M  V30 1307 H 111.273 -0.344318 -7.55216 0
M  V30 1308 H 112.541 0.828131 -7.75089 0
M  V30 1309 N 116.77 1.45427 -0.607355 0
M  V30 1310 C 118.016 2.0254 -0.102607 0
M  V30 1311 C 118.349 1.47478 1.26348 0
M  V30 1312 O 117.624 0.64939 1.83339 0
M  V30 1313 C 117.907 3.60044 -0.0634347 0
M  V30 1314 C 117.76 4.2544 -1.46017 0
M  V30 1315 C 119.079 4.35646 0.624514 0
M  V30 1316 H 116.198 0.73598 -0.0387607 0
M  V30 1317 H 118.84 1.73284 -0.779282 0
M  V30 1318 H 116.99 3.85101 0.512808 0
M  V30 1319 H 118.662 4.11569 -2.08347 0
M  V30 1320 H 116.905 3.83849 -2.02094 0
M  V30 1321 H 117.576 5.34342 -1.385 0
M  V30 1322 H 120.052 4.15882 0.134723 0
M  V30 1323 H 118.928 5.45376 0.621028 0
M  V30 1324 H 119.189 4.08501 1.69055 0
M  V30 1325 N 118.248 0.346503 1.53744 0
M  V30 1326 C 119.158 -0.517293 2.28826 0
M  V30 1327 C 120.174 -1.10935 1.3405 0
M  V30 1328 O 121.35 -1.1244 1.6709 0
M  V30 1329 C 118.415 -1.65098 3.04866 0
M  V30 1330 C 117.476 -1.0884 4.15274 0
M  V30 1331 C 116.709 -2.16806 4.87679 0
M  V30 1332 O 116.932 -3.3758 4.59778 0
M  V30 1333 O 115.866 -1.80934 5.74061 0
M  V30 1334 H 119.692 0.0931396 3.03557 0
M  V30 1335 H 117.277 0.111458 1.48984 0
M  V30 1336 H 119.159 -2.31053 3.5241 0
M  V30 1337 H 117.834 -2.24717 2.32989 0
M  V30 1338 H 116.741 -0.3933 3.72027 0
M  V30 1339 H 118.074 -0.537036 4.89261 0
M  V30 1340 N 119.726 -1.57421 0.075193 0
M  V30 1341 C 120.966 -1.95495 -0.596757 0
M  V30 1342 C 121.33 -0.954886 -1.66571 0
M  V30 1343 O 122.531 -1.22341 -2.39345 0
M  V30 1344 C 120.802 -3.382 -1.15566 0
M  V30 1345 S 122.361 -3.98254 -1.84226 0
M  V30 1346 H 119.179 -0.683649 -0.195307 0
M  V30 1347 H 121.781 -1.94925 0.149859 0
M  V30 1348 H 120.485 -4.08766 -0.36588 0
M  V30 1349 H 120.016 -3.42321 -1.93856 0
M  V30 1350 H 122.031 -3.85435 -3.12497 0
M  V30 1351 N 121.204 0.198386 -1.56346 0
M  V30 1352 C 122.151 1.24589 -1.94284 0
M  V30 1353 C 123.121 1.454 -0.802997 0
M  V30 1354 O 124.306 1.58588 -1.06087 0
M  V30 1355 C 121.446 2.58631 -2.28482 0
M  V30 1356 C 120.559 2.45426 -3.55514 0
M  V30 1357 C 119.694 3.7215 -3.79049 0
M  V30 1358 C 118.733 3.53763 -4.99518 0
M  V30 1359 N 117.87 4.72491 -5.19323 0
M  V30 1360 H 122.71 0.915356 -2.83593 0
M  V30 1361 H 120.247 0.440629 -1.40346 0
M  V30 1362 H 122.205 3.3672 -2.46324 0
M  V30 1363 H 120.835 2.89734 -1.42317 0
M  V30 1364 H 119.887 1.58652 -3.45737 0
M  V30 1365 H 121.199 2.27772 -4.43758 0
M  V30 1366 H 120.353 4.58679 -3.97113 0
M  V30 1367 H 119.092 3.92754 -2.89129 0
M  V30 1368 H 118.097 2.65619 -4.8138 0
M  V30 1369 H 119.322 3.34607 -5.90944 0
M  V30 1370 H 117.268 4.93365 -4.3235 0
M  V30 1371 H 117.185 4.5765 -6.01741 0
M  V30 1372 H 118.453 5.6038 -5.41843 0
M  V30 1373 N 122.682 1.50554 0.465978 0
M  V30 1374 C 123.91 1.65563 1.24083 0
M  V30 1375 C 124.325 0.341051 1.85694 0
M  V30 1376 O 123.682 -0.677543 1.69457 0
M  V30 1377 C 123.733 2.75051 2.34583 0
M  V30 1378 O 123.454 4.01413 1.75497 0
M  V30 1379 C 124.955 3.01078 3.25372 0
M  V30 1380 H 122.175 0.55638 0.375077 0
M  V30 1381 H 124.719 1.96807 0.555624 0
M  V30 1382 H 122.874 2.46486 2.9887 0
M  V30 1383 H 123.288 4.62002 2.48303 0
M  V30 1384 H 124.762 3.81339 3.99105 0
M  V30 1385 H 125.239 2.12349 3.84453 0
M  V30 1386 H 125.845 3.31194 2.66816 0
M  V30 1387 N 124.16 -0.719506 1.40217 0
M  V30 1388 C 125.107 -1.83359 1.40172 0
M  V30 1389 C 126.077 -1.64065 0.259206 0
M  V30 1390 O 127.262 -1.85254 0.456677 0
M  V30 1391 C 124.402 -3.2103 1.26624 0
M  V30 1392 C 123.515 -3.51923 2.50548 0
M  V30 1393 C 122.65 -4.79079 2.29471 0
M  V30 1394 C 121.689 -5.02863 3.48992 0
M  V30 1395 N 120.826 -6.2123 3.27135 0
M  V30 1396 H 125.666 -1.82733 2.35399 0
M  V30 1397 H 123.203 -0.892688 1.16917 0
M  V30 1398 H 125.161 -4.00524 1.16776 0
M  V30 1399 H 123.791 -3.20895 0.350176 0
M  V30 1400 H 122.843 -2.67014 2.70939 0
M  V30 1401 H 124.155 -3.6541 3.39525 0
M  V30 1402 H 123.309 -5.66582 2.16955 0
M  V30 1403 H 122.048 -4.67794 1.37913 0
M  V30 1404 H 121.053 -4.13816 3.6199 0
M  V30 1405 H 122.278 -5.16023 4.41472 0
M  V30 1406 H 120.224 -6.11204 2.38256 0
M  V30 1407 H 120.141 -6.35375 4.09675 0
M  V30 1408 H 121.409 -7.11532 3.18344 0
M  V30 1409 N 125.638 -1.25649 -0.95132 0
M  V30 1410 C 126.863 -1.13443 -1.73624 0
M  V30 1411 C 127.288 0.307565 -1.85568 0
M  V30 1412 O 126.646 1.22282 -1.33854 0
M  V30 1413 C 126.694 -1.79723 -3.12621 0
M  V30 1414 O 125.798 -1.07912 -3.98031 0
M  V30 1415 H 125.139 -0.395872 -0.533086 0
M  V30 1416 H 127.669 -1.66276 -1.1922 0
M  V30 1417 H 127.679 -1.86141 -3.63064 0
M  V30 1418 H 126.354 -2.84633 -3.03244 0
M  V30 1419 H 124.931 -1.09398 -3.56492 0
M  V30 1420 N 127.117 1.15442 -1.07289 0
M  V30 1421 C 128.345 1.90096 -0.81676 0
M  V30 1422 C 128.76 1.7798 0.629966 0
M  V30 1423 O 128.117 1.1313 1.43206 0
M  V30 1424 C 128.168 3.40466 -1.21512 0
M  V30 1425 O 127.889 3.52232 -2.60508 0
M  V30 1426 C 129.39 4.32145 -0.988198 0
M  V30 1427 H 126.61 0.602495 -0.295366 0
M  V30 1428 H 129.154 1.4627 -1.42918 0
M  V30 1429 H 127.309 3.81958 -0.647039 0
M  V30 1430 H 127.723 4.45549 -2.76742 0
M  V30 1431 H 129.197 5.36072 -1.31645 0
M  V30 1432 H 129.674 4.39135 0.0755063 0
M  V30 1433 H 130.28 3.96395 -1.54115 0
M  V30 1434 N 128.595 0.856903 1.32268 0
M  V30 1435 C 129.844 0.457599 1.96441 0
M  V30 1436 C 130.157 -0.992426 1.68553 0
M  V30 1437 O 131.363 -1.49727 2.26482 0
M  V30 1438 C 129.819 0.767358 3.51624 0
M  V30 1439 C 129.427 2.23326 3.88367 0
M  V30 1440 C 131.171 0.435887 4.22256 0
M  V30 1441 C 129.078 2.48613 5.36606 0
M  V30 1442 H 128.008 0.167387 0.735185 0
M  V30 1443 H 130.659 1.048 1.5063 0
M  V30 1444 H 129.041 0.106367 3.95857 0
M  V30 1445 H 130.215 2.93623 3.55137 0
M  V30 1446 H 128.53 2.52948 3.30766 0
M  V30 1447 H 131.127 0.602202 5.31298 0
M  V30 1448 H 131.47 -0.622672 4.11617 0
M  V30 1449 H 132.003 1.05286 3.83614 0
M  V30 1450 H 128.742 3.53101 5.52268 0
M  V30 1451 H 128.262 1.82896 5.71235 0
M  V30 1452 H 129.941 2.32676 6.03714 0
M  V30 1453 N 130.073 -1.45103 0.615059 0
M  V30 1454 C 131.301 -2.06553 0.11977 0
M  V30 1455 C 131.716 -1.45842 -1.19898 0
M  V30 1456 O 131.073 -0.575325 -1.73194 0
M  V30 1457 C 131.124 -3.61495 -0.018364 0
M  V30 1458 O 130.845 -4.19942 1.24822 0
M  V30 1459 C 132.346 -4.39947 -0.544237 0
M  V30 1460 H 129.566 -0.667096 0.0722739 0
M  V30 1461 H 132.11 -1.8623 0.84491 0
M  V30 1462 H 130.265 -3.81135 -0.693865 0
M  V30 1463 H 130.679 -5.13204 1.0827 0
M  V30 1464 H 132.153 -5.48838 -0.589953 0
M  V30 1465 H 132.63 -4.10255 -1.56805 0
M  V30 1466 H 133.236 -4.25188 0.0974703 0
M  V30 1467 N 131.551 -0.354651 -1.53558 0
M  V30 1468 C 132.791 0.238651 -2.03002 0
M  V30 1469 C 133.155 1.46878 -1.23656 0
M  V30 1470 O 134.356 2.13699 -1.63053 0
M  V30 1471 C 132.627 0.534175 -3.53386 0
M  V30 1472 S 134.186 1.10271 -4.24719 0
M  V30 1473 H 131.004 0.0702908 -0.707517 0
M  V30 1474 H 133.606 -0.494987 -1.8913 0
M  V30 1475 H 132.31 -0.368765 -4.0874 0
M  V30 1476 H 131.841 1.29718 -3.71398 0
M  V30 1477 H 133.856 2.38772 -4.34974 0
M  V30 1478 N 133.029 1.57378 -0.0835403 0
M  V30 1479 C 134.275 1.95025 0.577664 0
M  V30 1480 C 134.63 0.964049 1.66505 0
M  V30 1481 O 133.923 -0.0118235 1.91596 0
M  V30 1482 C 134.117 3.37063 1.1884 0
M  V30 1483 C 133.946 4.49409 0.16171 0
M  V30 1484 C 132.716 5.04642 -0.257756 0
M  V30 1485 C 134.914 5.10722 -0.605634 0
M  V30 1486 N 132.896 6.00537 -1.27393 0
M  V30 1487 C 134.267 6.02225 -1.47395 0
M  V30 1488 C 136.322 4.93501 -0.660418 0
M  V30 1489 C 135.025 6.78355 -2.39221 0
M  V30 1490 C 137.051 5.70283 -1.56623 0
M  V30 1491 C 136.413 6.61444 -2.4222 0
M  V30 1492 H 132.512 0.760512 0.182058 0
M  V30 1493 H 135.096 1.94013 -0.163419 0
M  V30 1494 H 133.267 3.3879 1.89936 0
M  V30 1495 H 134.999 3.61917 1.81103 0
M  V30 1496 H 131.754 4.73428 0.127702 0
M  V30 1497 H 132.178 6.53184 -1.77987 0
M  V30 1498 H 136.82 4.22798 -0.0128221 0
M  V30 1499 H 134.538 7.48327 -3.05011 0
M  V30 1500 H 138.124 5.58976 -1.61361 0
M  V30 1501 H 137.004 7.1982 -3.11174 0
M  V30 1502 N 134.507 -0.190092 1.56449 0
M  V30 1503 C 135.737 -0.92443 1.84764 0
M  V30 1504 C 136.145 -1.77146 0.664529 0
M  V30 1505 O 135.488 -1.79812 -0.375957 0
M  V30 1506 C 135.55 -1.86651 3.07248 0
M  V30 1507 C 135.214 -1.20094 4.40938 0
M  V30 1508 C 136.211 -0.575445 5.16706 0
M  V30 1509 C 133.896 -1.2033 4.87674 0
M  V30 1510 C 135.89 0.0388111 6.37388 0
M  V30 1511 C 133.577 -0.585214 6.08291 0
M  V30 1512 C 134.575 0.0347578 6.82991 0
M  V30 1513 O 134.263 0.643147 8.01323 0
M  V30 1514 H 133.995 -0.274974 0.617548 0
M  V30 1515 H 136.549 -0.200788 2.04416 0
M  V30 1516 H 134.779 -2.62998 2.83494 0
M  V30 1517 H 136.468 -2.46907 3.22167 0
M  V30 1518 H 137.234 -0.565728 4.81689 0
M  V30 1519 H 133.113 -1.67526 4.29484 0
M  V30 1520 H 136.657 0.523329 6.95634 0
M  V30 1521 H 132.554 -0.592451 6.42775 0
M  V30 1522 H 133.322 0.540545 8.16713 0
M  V30 1523 N 135.985 -1.50799 -0.457987 0
M  V30 1524 C 136.935 -1.67003 -1.55222 0
M  V30 1525 C 137.919 -0.52434 -1.52117 0
M  V30 1526 O 139.111 -0.779345 -1.58919 0
M  V30 1527 C 136.24 -1.77956 -2.93576 0
M  V30 1528 C 135.326 -2.98243 -3.01516 0
M  V30 1529 N 135.717 -4.21732 -2.79241 0
M  V30 1530 C 134.015 -2.97072 -3.32662 0
M  V30 1531 C 134.716 -5.02817 -2.92489 0
M  V30 1532 N 133.692 -4.37038 -3.23262 0
M  V30 1533 H 137.494 -2.60163 -1.36721 0
M  V30 1534 H 135.008 -1.48163 -0.664952 0
M  V30 1535 H 137.005 -1.87671 -3.72271 0
M  V30 1536 H 135.665 -0.859634 -3.13114 0
M  V30 1537 H 136.676 -4.51016 -2.54567 0
M  V30 1538 H 133.353 -2.14631 -3.58106 0
M  V30 1539 H 134.743 -6.11054 -2.79396 0
M  V30 1540 N 137.463 0.71206 -1.40597 0
M  V30 1541 C 138.426 1.80785 -1.40888 0
M  V30 1542 C 139.426 1.57937 -0.302103 0
M  V30 1543 O 140.616 1.64913 -0.561182 0
M  V30 1544 C 137.748 3.18927 -1.20409 0
M  V30 1545 H 138.941 1.81924 -2.38419 0
M  V30 1546 H 136.494 0.91805 -1.26497 0
M  V30 1547 H 137.229 3.23436 -0.236522 0
M  V30 1548 H 137.014 3.36911 -2.00582 0
M  V30 1549 H 138.504 3.98949 -1.23408 0
M  V30 1550 N 138.941 1.26152 0.944643 0
M  V30 1551 C 140.187 1.12665 1.69346 0
M  V30 1552 C 140.542 -0.3273 1.89596 0
M  V30 1553 O 139.835 -1.23717 1.46303 0
M  V30 1554 C 140.029 1.82541 3.07268 0
M  V30 1555 C 139.858 3.34582 3.00475 0
M  V30 1556 C 138.628 4.03863 3.03681 0
M  V30 1557 C 140.826 4.30828 2.80877 0
M  V30 1558 N 138.808 5.42603 2.87151 0
M  V30 1559 C 140.179 5.5672 2.7288 0
M  V30 1560 C 142.234 4.21122 2.65633 0
M  V30 1561 C 140.937 6.74013 2.51196 0
M  V30 1562 C 142.963 5.38118 2.45323 0
M  V30 1563 C 142.325 6.62955 2.38055 0
M  V30 1564 H 138.424 0.467041 0.627214 0
M  V30 1565 H 141.008 1.59391 1.11815 0
M  V30 1566 H 139.179 1.38296 3.62945 0
M  V30 1567 H 140.911 1.61708 3.70989 0
M  V30 1568 H 137.666 3.55198 3.1326 0
M  V30 1569 H 138.09 6.15443 2.82063 0
M  V30 1570 H 142.732 3.25344 2.70021 0
M  V30 1571 H 140.45 7.6989 2.4555 0
M  V30 1572 H 144.036 5.32475 2.34439 0
M  V30 1573 H 142.916 7.51959 2.22546 0
M  V30 1574 N 140.419 -1.14872 1.07899 0
M  V30 1575 C 141.647 -1.89661 0.82683 0
M  V30 1576 C 142.062 -1.78312 -0.620519 0
M  V30 1577 O 141.419 -1.13888 -1.42604 0
M  V30 1578 C 141.47 -3.39817 1.23316 0
M  V30 1579 O 141.191 -3.50845 2.62372 0
M  V30 1580 C 142.692 -4.31615 1.0111 0
M  V30 1581 H 139.912 -0.60092 0.298557 0
M  V30 1582 H 142.456 -1.4551 1.43691 0
M  V30 1583 H 140.611 -3.8161 0.667286 0
M  V30 1584 H 141.025 -4.44076 2.79101 0
M  V30 1585 H 142.499 -5.35367 1.34486 0
M  V30 1586 H 142.976 -4.39169 -0.0522168 0
M  V30 1587 H 143.582 -3.95572 1.56215 0
M  V30 1588 N 141.898 -0.863906 -1.31812 0
M  V30 1589 C 143.128 -0.485406 -2.00817 0
M  V30 1590 C 143.536 0.925007 -1.65046 0
M  V30 1591 O 142.879 1.61653 -0.872574 0
M  V30 1592 C 142.941 -0.555589 -3.55181 0
M  V30 1593 C 142.605 -1.92654 -4.14407 0
M  V30 1594 C 143.602 -2.89324 -4.31958 0
M  V30 1595 C 141.287 -2.2262 -4.50273 0
M  V30 1596 C 143.281 -4.14108 -4.84555 0
M  V30 1597 C 140.968 -3.47654 -5.02573 0
M  V30 1598 C 141.966 -4.43214 -5.19664 0
M  V30 1599 O 141.654 -5.66033 -5.70843 0
M  V30 1600 H 141.386 -0.188224 -0.649267 0
M  V30 1601 H 143.94 -1.16514 -1.69156 0
M  V30 1602 H 142.17 0.181037 -3.86276 0
M  V30 1603 H 143.859 -0.19138 -4.05449 0
M  V30 1604 H 144.625 -2.6748 -4.04573 0
M  V30 1605 H 140.504 -1.4902 -4.3625 0
M  V30 1606 H 144.048 -4.88703 -4.9781 0
M  V30 1607 H 139.945 -3.69345 -5.29391 0
M  V30 1608 H 140.713 -5.6812 -5.89222 0
M  V30 1609 N 143.376 1.44774 -0.622745 0
M  V30 1610 C 144.792 1.56986 -0.287652 0
M  V30 1611 C 144.992 1.61167 1.20944 0
M  V30 1612 O 144.048 1.55015 1.99315 0
M  V30 1613 C 145.361 2.84551 -0.972188 0
M  V30 1614 C 146.909 2.9825 -0.949536 0
M  V30 1615 C 147.384 4.28605 -1.61437 0
M  V30 1616 N 148.875 4.35399 -1.58057 0
M  V30 1617 C 149.61 5.34964 -2.064 0
M  V30 1618 N 149.106 6.40981 -2.62897 0
M  V30 1619 N 150.899 5.26419 -1.97078 0
M  V30 1620 H 143.05 1.40304 -1.59463 0
M  V30 1621 H 145.313 0.671794 -0.668878 0
M  V30 1622 H 145.019 2.87417 -2.02693 0
M  V30 1623 H 144.893 3.73807 -0.504771 0
M  V30 1624 H 147.28 2.94941 0.0967067 0
M  V30 1625 H 147.361 2.10364 -1.45536 0
M  V30 1626 H 147.005 4.32672 -2.66002 0
M  V30 1627 H 146.935 5.15334 -1.08344 0
M  V30 1628 H 149.426 3.59397 -1.16801 0
M  V30 1629 H 149.739 7.13225 -2.97539 0
M  V30 1630 H 148.084 6.4169 -2.66943 0
M  V30 1631 H 151.275 4.42504 -1.52669 0
M  V30 1632 H 151.448 6.03861 -2.35066 0
M  V30 1633 N 144.854 0.36279 1.53368 0
M  V30 1634 C 146.1 -0.220702 2.02199 0
M  V30 1635 C 146.455 -1.46649 1.24546 0
M  V30 1636 O 145.748 -1.88737 0.32996 0
M  V30 1637 C 145.942 -0.568417 3.52851 0
M  V30 1638 C 145.771 0.642126 4.45092 0
M  V30 1639 C 144.541 1.15335 4.91961 0
M  V30 1640 C 146.739 1.50649 4.91741 0
M  V30 1641 N 144.721 2.3242 5.68202 0
M  V30 1642 C 146.092 2.52404 5.66297 0
M  V30 1643 C 148.147 1.52969 4.73819 0
M  V30 1644 C 146.85 3.56331 6.24836 0
M  V30 1645 C 148.876 2.55789 5.33222 0
M  V30 1646 C 148.238 3.56268 6.07662 0
M  V30 1647 H 144.337 -0.0435508 0.780786 0
M  V30 1648 H 146.921 0.506704 1.87991 0
M  V30 1649 H 145.092 -1.2649 3.67226 0
M  V30 1650 H 146.824 -1.13676 3.88407 0
M  V30 1651 H 143.579 0.718412 4.68119 0
M  V30 1652 H 144.003 2.91591 6.10986 0
M  V30 1653 H 148.645 0.766418 4.15795 0
M  V30 1654 H 146.363 4.33543 6.81958 0
M  V30 1655 H 149.949 2.58435 5.21251 0
M  V30 1656 H 148.829 4.34524 6.52808 0
M  V30 1657 N 146.332 -1.57332 0.0918853 0
M  V30 1658 C 147.242 -2.17368 -0.882505 0
M  V30 1659 C 148.258 -1.14226 -1.31257 0
M  V30 1660 O 149.434 -1.46582 -1.38115 0
M  V30 1661 C 146.499 -2.73962 -2.12476 0
M  V30 1662 C 145.56 -3.92048 -1.7492 0
M  V30 1663 C 144.793 -4.45933 -2.93223 0
M  V30 1664 O 145.016 -3.98764 -4.07852 0
M  V30 1665 O 143.95 -5.36999 -2.71875 0
M  V30 1666 H 147.776 -3.01031 -0.40172 0
M  V30 1667 H 145.361 -1.48813 -0.132291 0
M  V30 1668 H 147.243 -3.10147 -2.85283 0
M  V30 1669 H 145.918 -1.93347 -2.59613 0
M  V30 1670 H 144.825 -3.6068 -0.993025 0
M  V30 1671 H 146.158 -4.74017 -1.32548 0
M  V30 1672 N 147.81 0.181792 -1.56548 0
M  V30 1673 C 149.087 0.926765 -1.72251 0
M  V30 1674 C 149.467 2.00831 -0.650386 0
M  V30 1675 O 148.815 2.26008 0.336521 0
M  V30 1676 C 149.025 1.50106 -3.1507 0
M  V30 1677 C 150.373 1.97805 -3.75711 0
M  V30 1678 O 151.397 1.59922 -3.18282 0
M  V30 1679 O 150.256 2.67555 -4.76525 0
M  V30 1680 H 147.35 0.435506 -0.703039 0
M  V30 1681 H 149.896 0.170443 -1.68842 0
M  V30 1682 H 148.668 0.72212 -3.84579 0
M  V30 1683 H 148.291 2.32186 -3.22763 0
M  V30 1684 N 149.288 1.51039 0.449983 0
M  V30 1685 C 150.536 1.62759 1.19808 0
M  V30 1686 C 150.857 0.339981 1.92013 0
M  V30 1687 O 150.127 -0.643606 1.85026 0
M  V30 1688 H 148.707 0.599811 0.445237 0
M  V30 1689 H 151.369 1.87914 0.517138 0
M  V30 1690 H 150.465 2.44911 1.93455 0
M  V30 1691 N 150.766 -0.704594 1.40972 0
M  V30 1692 C 152.012 -1.46675 1.40051 0
M  V30 1693 C 152.345 -1.94199 0.00641102 0
M  V30 1694 O 151.62 -1.68916 -0.964235 0
M  V30 1695 C 151.903 -2.68505 2.39952 0
M  V30 1696 C 151.756 -2.26805 3.88432 0
M  V30 1697 C 153.075 -3.70686 2.37233 0
M  V30 1698 H 150.194 -0.532015 0.510028 0
M  V30 1699 H 152.836 -0.803255 1.72185 0
M  V30 1700 H 150.986 -3.25114 2.1268 0
M  V30 1701 H 152.658 -1.75592 4.26574 0
M  V30 1702 H 150.901 -1.58685 4.03734 0
M  V30 1703 H 151.572 -3.14181 4.53866 0
M  V30 1704 H 154.048 -3.23731 2.61415 0
M  V30 1705 H 152.924 -4.53553 3.09162 0
M  V30 1706 H 153.185 -4.19754 1.38777 0
M  V30 1707 N 152.244 -1.26651 -0.937939 0
M  V30 1708 C 153.174 -1.10993 -2.05433 0
M  V30 1709 C 154.155 -0.0142161 -1.70094 0
M  V30 1710 O 155.34 -0.186837 -1.93299 0
M  V30 1711 C 152.47 -0.745561 -3.39203 0
M  V30 1712 C 151.424 -1.79337 -3.88616 0
M  V30 1713 C 150.75 -1.28324 -5.19073 0
M  V30 1714 C 152.05 -3.19553 -4.13138 0
M  V30 1715 H 153.744 -2.0438 -2.1879 0
M  V30 1716 H 151.29 -0.984041 -1.05131 0
M  V30 1717 H 153.243 -0.622888 -4.16771 0
M  V30 1718 H 151.967 0.22401 -3.25831 0
M  V30 1719 H 150.626 -1.90477 -3.13231 0
M  V30 1720 H 150.274 -0.303414 -5.02084 0
M  V30 1721 H 149.974 -1.98369 -5.53103 0
M  V30 1722 H 151.498 -1.1733 -5.99221 0
M  V30 1723 H 152.912 -3.11471 -4.81309 0
M  V30 1724 H 151.309 -3.87218 -4.58457 0
M  V30 1725 H 152.379 -3.65368 -3.18801 0
M  V30 1726 N 153.722 1.14298 -1.08507 0
M  V30 1727 C 154.962 1.87016 -0.824894 0
M  V30 1728 C 155.326 1.81099 0.637735 0
M  V30 1729 O 156.527 2.48963 1.01345 0
M  V30 1730 C 154.798 3.31584 -1.33368 0
M  V30 1731 S 156.357 4.21903 -1.20596 0
M  V30 1732 H 153.175 0.645259 -0.2986 0
M  V30 1733 H 155.777 1.37822 -1.38656 0
M  V30 1734 H 154.481 3.33439 -2.39262 0
M  V30 1735 H 154.012 3.85836 -0.767734 0
M  V30 1736 H 156.027 4.95971 -0.150891 0
M  V30 1737 N 155.201 0.870884 1.31352 0
M  V30 1738 C 156.478 0.402907 1.91405 0
M  V30 1739 C 156.858 -1.11512 1.79244 0
M  V30 1740 O 156.206 -1.94411 1.2007 0
M  V30 1741 C 156.416 0.885301 3.37585 0
M  V30 1742 C 157.764 0.911971 4.14691 0
M  V30 1743 O 158.788 0.831016 3.46371 0
M  V30 1744 O 157.647 1.02927 5.3672 0
M  V30 1745 H 154.741 0.120698 0.818145 0
M  V30 1746 H 157.287 0.958857 1.40014 0
M  V30 1747 H 156.059 1.92889 3.40455 0
M  V30 1748 H 155.682 0.307714 3.96407 0
M  V30 1749 N 156.679 -1.44442 0.630414 0
M  V30 1750 C 157.928 -2.01267 0.132073 0
M  V30 1751 C 158.241 -1.50172 -1.25331 0
M  V30 1752 O 159.447 -1.9912 -1.84562 0
M  V30 1753 C 157.903 -3.59422 0.185362 0
M  V30 1754 C 157.511 -4.19514 1.57201 0
M  V30 1755 C 159.255 -4.23724 -0.256553 0
M  V30 1756 C 157.162 -5.69891 1.58045 0
M  V30 1757 H 156.092 -0.752619 0.0456092 0
M  V30 1758 H 158.743 -1.65666 0.789106 0
M  V30 1759 H 157.125 -3.92318 -0.538759 0
M  V30 1760 H 158.299 -3.98156 2.31966 0
M  V30 1761 H 156.614 -3.67496 1.95795 0
M  V30 1762 H 159.211 -5.34019 -0.269767 0
M  V30 1763 H 159.554 -3.96013 -1.28372 0
M  V30 1764 H 160.087 -3.95629 0.41505 0
M  V30 1765 H 156.826 -6.02336 2.58597 0
M  V30 1766 H 156.346 -5.93373 0.875725 0
M  V30 1767 H 158.025 -6.33515 1.31408 0
M  V30 1768 N 158.157 -0.370918 -1.53173 0
M  V30 1769 C 159.087 0.464847 -2.28826 0
M  V30 1770 C 160.068 1.07936 -1.31468 0
M  V30 1771 O 161.253 1.0956 -1.60344 0
M  V30 1772 C 158.383 1.60196 -3.08147 0
M  V30 1773 C 157.337 1.11443 -4.13237 0
M  V30 1774 C 156.663 2.3422 -4.80672 0
M  V30 1775 C 157.963 0.195384 -5.21934 0
M  V30 1776 H 159.657 -0.166329 -2.98938 0
M  V30 1777 H 157.203 -0.0814359 -1.4377 0
M  V30 1778 H 159.156 2.19332 -3.59822 0
M  V30 1779 H 157.88 2.26045 -2.35735 0
M  V30 1780 H 156.539 0.545727 -3.62515 0
M  V30 1781 H 156.187 2.98537 -4.04827 0
M  V30 1782 H 155.887 2.02269 -5.51689 0
M  V30 1783 H 157.411 2.94032 -5.35143 0
M  V30 1784 H 158.825 0.694375 -5.69079 0
M  V30 1785 H 157.222 -0.0335027 -6.00091 0
M  V30 1786 H 158.292 -0.760961 -4.78892 0
M  V30 1787 N 159.635 1.57281 -0.100228 0
M  V30 1788 C 160.863 1.98879 0.570509 0
M  V30 1789 C 161.278 0.979476 1.61405 0
M  V30 1790 O 160.635 -0.0302288 1.82475 0
M  V30 1791 C 160.686 3.4052 1.2136 0
M  V30 1792 O 160.407 4.37588 0.211786 0
M  V30 1793 C 161.908 3.97149 1.96945 0
M  V30 1794 H 159.128 0.653428 0.152555 0
M  V30 1795 H 161.672 2.03697 -0.18103 0
M  V30 1796 H 159.827 3.367 1.91603 0
M  V30 1797 H 160.241 5.20118 0.676607 0
M  V30 1798 H 161.715 4.98393 2.37294 0
M  V30 1799 H 162.192 3.3525 2.83733 0
M  V30 1800 H 162.798 4.04458 1.31506 0
M  V30 1801 N 161.113 -0.173488 1.56642 0
M  V30 1802 C 162.061 -1.23417 1.97157 0
M  V30 1803 C 163.055 -1.45946 0.860013 0
M  V30 1804 O 164.261 -1.46551 1.04512 0
M  V30 1805 H 160.636 -0.414818 0.62724 0
M  V30 1806 H 162.607 -0.865582 2.8557 0
M  V30 1807 C 161.356 -2.5665 2.34576 0
M  V30 1808 H 160.679 -2.40137 3.19647 0
M  V30 1809 H 162.119 -3.2956 2.6677 0
M  V30 1810 C 160.578 -3.15245 1.18836 0
M  V30 1811 O 161.108 -3.98883 0.474869 0
M  V30 1812 N 159.314 -2.74303 0.959497 0
M  V30 1813 H 158.861 -2.0639 1.54146 0
M  V30 1814 H 158.819 -3.13844 0.186932 0
M  V30 1815 N 162.591 -1.51276 -0.441967 0
M  V30 1816 C 164.002 -1.56244 -1.02199 0
M  V30 1817 C 164.353 -0.383149 -1.92422 0
M  V30 1818 O 163.478 0.500613 -2.1053 0
M  V30 1819 C 164.073 -2.83162 -1.86024 0
M  V30 1820 C 162.632 -2.90716 -2.39084 0
M  V30 1821 C 161.779 -2.50858 -1.18175 0
M  V30 1822 H 164.73 -1.5712 -0.223416 0
M  V30 1823 H 164.751 -2.66663 -2.71425 0
M  V30 1824 H 164.263 -3.68974 -1.20331 0
M  V30 1825 H 162.364 -2.09323 -3.08244 0
M  V30 1826 H 162.477 -3.94266 -2.72198 0
M  V30 1827 H 160.841 -2.03951 -1.52565 0
M  V30 1828 H 161.624 -3.3901 -0.541001 0
M  V30 1829 N 164.069 0.697108 -1.41344 0
M  V30 1830 C 165.297 1.48593 -1.43972 0
M  V30 1831 C 165.712 1.88747 -0.0445612 0
M  V30 1832 O 165.069 1.56682 0.935785 0
M  V30 1833 C 165.12 2.74946 -2.34706 0
M  V30 1834 O 164.841 2.36484 -3.68791 0
M  V30 1835 C 166.342 3.687 -2.46121 0
M  V30 1836 H 163.562 0.457964 -0.490418 0
M  V30 1837 H 166.106 0.858429 -1.8561 0
M  V30 1838 H 164.261 3.33937 -1.9638 0
M  V30 1839 H 164.675 3.17918 -4.17167 0
M  V30 1840 H 166.149 4.54145 -3.13777 0
M  V30 1841 H 166.626 4.13081 -1.49199 0
M  V30 1842 H 167.232 3.15613 -2.85076 0
M  V30 1843 N 165.547 1.27147 0.931209 0
M  V30 1844 C 166.772 1.16191 1.71797 0
M  V30 1845 C 167.197 -0.278004 1.86034 0
M  V30 1846 O 166.555 -1.20137 1.35782 0
M  V30 1847 C 166.603 1.84673 3.09723 0
M  V30 1848 O 165.707 1.14231 3.96264 0
M  V30 1849 H 165.048 0.404303 0.526721 0
M  V30 1850 H 167.578 1.68152 1.1656 0
M  V30 1851 H 167.588 1.91893 3.60057 0
M  V30 1852 H 166.263 2.89421 2.98677 0
M  V30 1853 H 164.84 1.15056 3.54706 0
M  V30 1854 N 167.025 -1.13721 1.09112 0
M  V30 1855 C 167.988 -2.17222 0.731241 0
M  V30 1856 C 168.988 -1.59035 -0.237566 0
M  V30 1857 O 170.178 -1.74192 -0.0161704 0
M  V30 1858 C 167.31 -3.40804 0.0808443 0
M  V30 1859 H 168.503 -2.50573 1.64783 0
M  V30 1860 H 166.056 -1.28493 0.889897 0
M  V30 1861 H 166.791 -3.1304 -0.847127 0
M  V30 1862 H 166.576 -3.84306 0.777896 0
M  V30 1863 H 168.066 -4.1731 -0.155657 0
M  V30 1864 N 168.503 -0.877838 -1.30888 0
M  V30 1865 C 169.435 -0.296607 -2.27273 0
M  V30 1866 C 170.448 0.544799 -1.53414 0
M  V30 1867 O 171.637 0.365511 -1.74718 0
M  V30 1868 C 168.737 0.597481 -3.33592 0
M  V30 1869 C 167.91 -0.213251 -4.3688 0
M  V30 1870 C 166.969 0.610208 -5.2265 0
M  V30 1871 O 165.995 0.035441 -5.69189 0
M  V30 1872 N 167.197 1.92071 -5.47804 0
M  V30 1873 H 169.962 -1.12492 -2.77787 0
M  V30 1874 H 167.523 -0.740105 -1.43993 0
M  V30 1875 H 169.515 1.15425 -3.87891 0
M  V30 1876 H 168.085 1.32647 -2.83061 0
M  V30 1877 H 167.305 -0.951466 -3.82545 0
M  V30 1878 H 168.593 -0.769262 -5.02951 0
M  V30 1879 H 167.991 2.4107 -5.11763 0
M  V30 1880 H 166.548 2.42508 -6.05007 0
M  V30 1881 N 169.982 1.44106 -0.638065 0
M  V30 1882 C 171.231 2.01194 -0.142744 0
M  V30 1883 C 171.544 1.50835 1.24532 0
M  V30 1884 O 172.75 2.00096 1.83504 0
M  V30 1885 C 171.206 3.59319 -0.20442 0
M  V30 1886 C 170.814 4.18674 -1.59423 0
M  V30 1887 C 172.558 4.23854 0.234079 0
M  V30 1888 C 170.465 5.69045 -1.61065 0
M  V30 1889 H 169.395 0.752367 -0.0495998 0
M  V30 1890 H 172.046 1.65246 -0.797881 0
M  V30 1891 H 170.428 3.92598 0.517946 0
M  V30 1892 H 171.602 3.96921 -2.34074 0
M  V30 1893 H 169.917 3.66453 -1.97741 0
M  V30 1894 H 172.514 5.34155 0.241443 0
M  V30 1895 H 172.857 3.96688 1.2627 0
M  V30 1896 H 173.39 3.95403 -0.436025 0
M  V30 1897 H 170.129 6.00956 -2.61787 0
M  V30 1898 H 169.649 5.929 -0.90718 0
M  V30 1899 H 171.328 6.32809 -1.34766 0
M  V30 1900 N 171.46 0.379036 1.52974 0
M  V30 1901 C 172.708 -0.206014 2.01047 0
M  V30 1902 C 173.029 -1.48175 1.26765 0
M  V30 1903 O 172.299 -1.92085 0.384743 0
M  V30 1904 H 170.879 -0.0791184 0.742798 0
M  V30 1905 H 173.541 0.508366 1.88153 0
M  V30 1906 H 172.637 -0.423501 3.09213 0
M  V30 1907 N 172.938 -1.57226 0.108567 0
M  V30 1908 C 174.354 -1.5766 -0.248058 0
M  V30 1909 C 174.554 -1.12063 -1.67464 0
M  V30 1910 O 173.61 -0.803236 -2.39383 0
M  V30 1911 C 174.923 -3.0069 -0.0242287 0
M  V30 1912 C 176.471 -3.12868 -0.0909372 0
M  V30 1913 C 176.946 -4.57879 0.105067 0
M  V30 1914 N 178.437 -4.63172 0.0506846 0
M  V30 1915 C 179.172 -5.73126 0.177396 0
M  V30 1916 N 178.668 -6.91866 0.359696 0
M  V30 1917 N 180.461 -5.61977 0.117709 0
M  V30 1918 H 172.612 -1.85169 1.04049 0
M  V30 1919 H 174.875 -0.85529 0.40888 0
M  V30 1920 H 174.581 -3.38299 0.961604 0
M  V30 1921 H 174.455 -3.6945 -0.76068 0
M  V30 1922 H 176.842 -2.75124 -1.06729 0
M  V30 1923 H 176.923 -2.46672 0.677225 0
M  V30 1924 H 176.567 -4.96321 1.07834 0
M  V30 1925 H 176.497 -5.22153 -0.682954 0
M  V30 1926 H 178.988 -3.778 -0.0871266 0
M  V30 1927 H 179.301 -7.71503 0.447529 0
M  V30 1928 H 177.646 -6.93874 0.395536 0
M  V30 1929 H 180.837 -4.68094 -0.0236741 0
M  V30 1930 H 181.01 -6.47627 0.219905 0
M  V30 1931 N 174.416 0.165178 -1.56732 0
M  V30 1932 C 175.348 1.22911 -1.93457 0
M  V30 1933 C 176.361 1.40152 -0.828333 0
M  V30 1934 O 177.55 1.40046 -1.10677 0
M  V30 1935 C 174.65 2.59686 -2.17753 0
M  V30 1936 C 173.823 2.63663 -3.48999 0
M  V30 1937 C 172.882 3.81845 -3.62051 0
M  V30 1938 O 171.908 3.67559 -4.34613 0
M  V30 1939 N 173.11 4.98557 -2.97357 0
M  V30 1940 H 175.875 0.917118 -2.85323 0
M  V30 1941 H 173.436 0.354895 -1.57962 0
M  V30 1942 H 175.428 3.37225 -2.23743 0
M  V30 1943 H 173.998 2.83251 -1.32242 0
M  V30 1944 H 173.218 1.72173 -3.54612 0
M  V30 1945 H 174.506 2.63336 -4.35352 0
M  V30 1946 H 173.904 5.13065 -2.38287 0
M  V30 1947 H 172.461 5.73936 -3.08934 0
M  V30 1948 N 175.894 1.51508 0.433938 0
M  V30 1949 C 176.841 1.73068 1.52696 0
M  V30 1950 C 177.811 0.572441 1.55924 0
M  V30 1951 O 178.996 0.807253 1.72882 0
M  V30 1952 C 176.136 1.86474 2.90381 0
M  V30 1953 C 175.249 3.14037 2.96656 0
M  V30 1954 C 174.384 3.18019 4.25485 0
M  V30 1955 C 173.423 4.39882 4.2564 0
M  V30 1956 N 172.56 4.41394 5.45999 0
M  V30 1957 H 177.4 2.66366 1.33615 0
M  V30 1958 H 174.937 1.32008 0.649018 0
M  V30 1959 H 176.895 1.92229 3.70275 0
M  V30 1960 H 175.525 0.965809 3.08013 0
M  V30 1961 H 174.577 3.17575 2.09404 0
M  V30 1962 H 175.889 4.0394 2.92633 0
M  V30 1963 H 175.043 3.22708 5.13755 0
M  V30 1964 H 173.782 2.2601 4.3217 0
M  V30 1965 H 172.787 4.35366 3.35763 0
M  V30 1966 H 174.012 5.33159 4.20617 0
M  V30 1967 H 171.958 3.52258 5.53399 0
M  V30 1968 H 171.875 5.25111 5.4387 0
M  V30 1969 H 173.143 4.50281 6.36292 0
M  V30 1970 N 177.372 -0.689602 1.41712 0
M  V30 1971 C 178.302 -1.81577 1.46806 0
M  V30 1972 C 179.283 -1.66945 0.326105 0
M  V30 1973 O 180.468 -1.86588 0.538377 0
M  V30 1974 C 177.598 -3.19762 1.35535 0
M  V30 1975 C 176.552 -3.49107 2.47605 0
M  V30 1976 C 175.878 -4.86711 2.21397 0
M  V30 1977 C 177.178 -3.47483 3.89939 0
M  V30 1978 H 178.872 -1.7757 2.41058 0
M  V30 1979 H 176.418 -0.852887 1.16025 0
M  V30 1980 H 178.371 -3.98263 1.3771 0
M  V30 1981 H 177.095 -3.24409 0.377708 0
M  V30 1982 H 175.754 -2.72959 2.44722 0
M  V30 1983 H 175.402 -4.8799 1.21961 0
M  V30 1984 H 175.102 -5.0731 2.96497 0
M  V30 1985 H 176.626 -5.67515 2.25297 0
M  V30 1986 H 178.04 -4.1598 3.94505 0
M  V30 1987 H 176.437 -3.79615 4.64771 0
M  V30 1988 H 177.507 -2.46341 4.17665 0
M  V30 1989 N 178.85 -1.27639 -0.924453 0
M  V30 1990 C 179.797 -1.10644 -2.0255 0
M  V30 1991 C 180.767 -0.00658438 -1.66099 0
M  V30 1992 O 181.952 -0.16952 -1.90045 0
M  V30 1993 C 179.092 -0.76309 -3.36557 0
M  V30 1994 C 178.205 -1.94091 -3.85944 0
M  V30 1995 C 177.34 -1.53914 -5.08413 0
M  V30 1996 C 176.379 -2.68425 -5.50104 0
M  V30 1997 N 175.516 -2.28815 -6.63768 0
M  V30 1998 H 180.356 -2.04858 -2.16419 0
M  V30 1999 H 177.893 -1.01974 -1.06017 0
M  V30 2000 H 179.851 -0.544822 -4.13627 0
M  V30 2001 H 178.481 0.142102 -3.22487 0
M  V30 2002 H 177.533 -2.27162 -3.05125 0
M  V30 2003 H 178.845 -2.7998 -4.12811 0
M  V30 2004 H 177.999 -1.28231 -5.92994 0
M  V30 2005 H 176.738 -0.651391 -4.8333 0
M  V30 2006 H 175.743 -2.94819 -4.64071 0
M  V30 2007 H 176.968 -3.57826 -5.7718 0
M  V30 2008 H 174.914 -1.42495 -6.40337 0
M  V30 2009 H 174.831 -3.08242 -6.90306 0
M  V30 2010 H 176.099 -2.06387 -7.51681 0
M  V30 2011 N 180.328 1.1314 -1.09713 0
M  V30 2012 C 181.556 1.88321 -0.856898 0
M  V30 2013 C 181.971 1.79276 0.592073 0
M  V30 2014 O 181.328 1.16142 1.40774 0
M  V30 2015 C 181.379 3.37812 -1.28706 0
M  V30 2016 O 181.1 3.46627 -2.67921 0
M  V30 2017 C 182.601 4.29952 -1.07964 0
M  V30 2018 H 179.821 0.596094 -0.308079 0
M  V30 2019 H 182.365 1.43205 -1.45988 0
M  V30 2020 H 180.52 3.805 -0.727912 0
M  V30 2021 H 180.934 4.39579 -2.8613 0
M  V30 2022 H 182.408 5.33159 -1.42986 0
M  V30 2023 H 182.885 4.39196 -0.0176577 0
M  V30 2024 H 183.491 3.93036 -1.62489 0
M  V30 2025 N 181.806 0.884767 1.30421 0
M  V30 2026 C 183.036 0.517293 2.00019 0
M  V30 2027 C 183.444 -0.898632 1.66497 0
M  V30 2028 O 182.787 -1.60245 0.898181 0
M  V30 2029 C 182.849 0.612025 3.54252 0
M  V30 2030 C 182.513 1.99222 4.1129 0
M  V30 2031 C 183.51 2.9616 4.273 0
M  V30 2032 C 181.195 2.29755 4.46674 0
M  V30 2033 C 183.189 4.21764 4.77906 0
M  V30 2034 C 180.876 3.55606 4.96979 0
M  V30 2035 C 181.874 4.51425 5.12547 0
M  V30 2036 O 181.562 5.75043 5.61766 0
M  V30 2037 H 181.294 0.198529 0.64619 0
M  V30 2038 H 183.848 1.1919 1.67281 0
M  V30 2039 H 182.078 -0.119561 3.86515 0
M  V30 2040 H 183.767 0.255859 4.05093 0
M  V30 2041 H 184.533 2.73882 4.00267 0
M  V30 2042 H 180.412 1.55942 4.33824 0
M  V30 2043 H 183.956 4.96561 4.89972 0
M  V30 2044 H 179.853 3.7772 5.23448 0
M  V30 2045 H 180.621 5.77422 5.80109 0
M  V30 2046 N 183.284 -1.43765 0.645699 0
M  V30 2047 C 184.695 -1.85193 0.236719 0
M  V30 2048 C 185.046 -1.54045 -1.21509 0
M  V30 2049 O 184.171 -0.985694 -1.92647 0
M  V30 2050 C 184.766 -3.36151 0.422845 0
M  V30 2051 C 183.325 -3.76338 0.0682492 0
M  V30 2052 C 182.472 -2.67538 0.729306 0
M  V30 2053 H 185.423 -1.34025 0.849883 0
M  V30 2054 H 185.444 -3.79032 -0.333904 0
M  V30 2055 H 184.956 -3.5879 1.47958 0
M  V30 2056 H 183.057 -3.59312 -0.986179 0
M  V30 2057 H 183.17 -4.76603 0.488469 0
M  V30 2058 H 181.534 -2.54176 0.163235 0
M  V30 2059 H 182.317 -2.93006 1.78892 0
M  V30 2060 N 184.763 -0.387143 -1.52771 0
M  V30 2061 C 186.009 0.196025 -2.0185 0
M  V30 2062 C 186.342 1.46641 -1.27319 0
M  V30 2063 O 185.617 1.90889 -0.373032 0
M  V30 2064 C 185.9 0.466136 -3.5707 0
M  V30 2065 C 185.753 -0.819385 -4.42274 0
M  V30 2066 C 187.072 1.25768 -4.21747 0
M  V30 2067 H 184.191 0.0697708 -0.73369 0
M  V30 2068 H 186.833 -0.516286 -1.82851 0
M  V30 2069 H 184.983 1.07293 -3.7339 0
M  V30 2070 H 186.655 -1.4563 -4.37709 0
M  V30 2071 H 184.898 -1.43517 -4.09372 0
M  V30 2072 H 185.569 -0.585065 -5.48891 0
M  V30 2073 H 188.045 0.744167 -4.09391 0
M  V30 2074 H 186.921 1.41541 -5.30337 0
M  V30 2075 H 187.182 2.27228 -3.79236 0
M  V30 2076 N 186.241 1.57166 -0.116904 0
M  V30 2077 C 187.173 2.12271 0.864507 0
M  V30 2078 C 188.186 1.06494 1.23138 0
M  V30 2079 O 189.375 1.33873 1.18069 0
M  V30 2080 C 186.475 2.60564 2.16702 0
M  V30 2081 C 185.648 3.90416 1.97216 0
M  V30 2082 C 184.707 4.24329 3.11178 0
M  V30 2083 O 183.733 4.93182 2.84184 0
M  V30 2084 N 184.935 3.8148 4.37554 0
M  V30 2085 H 187.7 2.97102 0.393726 0
M  V30 2086 H 185.261 1.61759 0.0675805 0
M  V30 2087 H 187.253 2.80282 2.91932 0
M  V30 2088 H 185.823 1.80623 2.55135 0
M  V30 2089 H 185.043 3.79627 1.06192 0
M  V30 2090 H 186.331 4.75327 1.81499 0
M  V30 2091 H 185.729 3.25943 4.62361 0
M  V30 2092 H 184.286 4.06311 5.09661 0
M  V30 2093 N 187.719 -0.156864 1.56817 0
M  V30 2094 C 188.629 -1.2136 2.00771 0
M  V30 2095 C 189.645 -1.47598 0.921459 0
M  V30 2096 O 190.821 -1.59462 1.2302 0
M  V30 2097 C 187.886 -2.52943 2.37109 0
M  V30 2098 C 186.947 -2.34439 3.59634 0
M  V30 2099 C 186.18 -3.59748 3.94229 0
M  V30 2100 O 186.403 -4.65526 3.29609 0
M  V30 2101 O 185.337 -3.52998 4.8752 0
M  V30 2102 H 189.163 -0.870468 2.90958 0
M  V30 2103 H 186.748 -0.36484 1.44877 0
M  V30 2104 H 188.63 -3.30538 2.61386 0
M  V30 2105 H 187.305 -2.86806 1.5008 0
M  V30 2106 H 186.212 -1.54828 3.40557 0
M  V30 2107 H 187.545 -2.05496 4.4725 0
M  V30 2108 N 189.197 -1.51736 -0.425897 0
M  V30 2109 C 190.16 -1.73271 -1.50032 0
M  V30 2110 C 191.16 -0.602639 -1.4908 0
M  V30 2111 O 192.35 -0.87033 -1.509 0
M  V30 2112 C 189.482 -1.79969 -2.89523 0
M  V30 2113 H 190.675 -2.69172 -1.32237 0
M  V30 2114 H 188.228 -1.41899 -0.65532 0
M  V30 2115 H 188.963 -0.859241 -3.1271 0
M  V30 2116 H 188.748 -2.62109 -2.91619 0
M  V30 2117 H 190.238 -1.9843 -3.67444 0
M  V30 2118 N 190.675 0.682077 -1.42076 0
M  V30 2119 C 191.622 1.79578 -1.44984 0
M  V30 2120 C 192.592 1.6332 -0.302614 0
M  V30 2121 O 193.777 1.83978 -0.505633 0
M  V30 2122 C 190.917 3.1756 -1.35091 0
M  V30 2123 C 190.03 3.45156 -2.59791 0
M  V30 2124 C 189.165 4.72826 -2.42093 0
M  V30 2125 C 188.204 4.93433 -3.62202 0
M  V30 2126 N 187.341 6.12338 -3.43491 0
M  V30 2127 H 192.181 1.76427 -2.40161 0
M  V30 2128 H 189.718 0.861376 -1.19242 0
M  V30 2129 H 191.676 3.97287 -1.27354 0
M  V30 2130 H 190.306 3.19854 -0.435133 0
M  V30 2131 H 189.358 2.59736 -2.77923 0
M  V30 2132 H 190.67 3.5628 -3.49094 0
M  V30 2133 H 189.824 5.60631 -2.319 0
M  V30 2134 H 188.563 4.63973 -1.50268 0
M  V30 2135 H 187.568 4.04073 -3.72834 0
M  V30 2136 H 188.793 5.04136 -4.54998 0
M  V30 2137 H 186.739 6.04672 -2.54377 0
M  V30 2138 H 186.656 6.2429 -4.26377 0
M  V30 2139 H 187.924 7.02841 -3.37097 0
M  V30 2140 N 192.153 1.28127 0.917671 0
M  V30 2141 C 193.401 1.14825 1.66312 0
M  V30 2142 C 193.722 -0.304379 1.9261 0
M  V30 2143 O 192.992 -1.21149 1.53947 0
M  V30 2144 H 191.572 0.421953 0.616413 0
M  V30 2145 H 194.234 1.608 1.10134 0
M  V30 2146 H 193.33 1.68489 2.62712 0
M  V30 2147 N 193.631 -1.12557 1.10312 0
M  V30 2148 C 194.871 -1.8568 0.854543 0
M  V30 2149 C 195.235 -1.82091 -0.608843 0
M  V30 2150 O 196.436 -2.50544 -0.973717 0
M  V30 2151 C 194.707 -3.2942 1.38626 0
M  V30 2152 S 196.266 -4.19931 1.27293 0
M  V30 2153 H 193.084 -0.640427 0.308827 0
M  V30 2154 H 195.686 -1.35599 1.40831 0
M  V30 2155 H 194.39 -3.2959 2.44537 0
M  V30 2156 H 193.921 -3.84566 0.82902 0
M  V30 2157 H 195.936 -4.95668 0.229776 0
M  V30 2158 N 195.109 -0.891671 -1.2995 0
M  V30 2159 C 196.355 -0.514261 -1.96171 0
M  V30 2160 C 196.688 0.935506 -1.70182 0
M  V30 2161 O 195.963 1.66204 -1.01028 0
M  V30 2162 C 196.246 -0.797719 -3.51153 0
M  V30 2163 C 196.099 -2.2986 -3.86632 0
M  V30 2164 C 197.418 -0.278749 -4.39216 0
M  V30 2165 H 194.537 -0.188314 -0.712535 0
M  V30 2166 H 197.179 -1.11689 -1.53706 0
M  V30 2167 H 195.329 -0.284826 -3.87455 0
M  V30 2168 H 197.001 -2.88042 -3.60319 0
M  V30 2169 H 195.244 -2.76257 -3.34462 0
M  V30 2170 H 195.915 -2.44753 -4.94773 0
M  V30 2171 H 198.391 -0.717825 -4.09862 0
M  V30 2172 H 197.267 -0.506353 -5.46559 0
M  V30 2173 H 197.528 0.820266 -4.34424 0
M  V30 2174 N 196.587 1.43421 -0.653314 0
M  V30 2175 C 197.834 2.01812 -0.166745 0
M  V30 2176 C 198.162 1.51535 1.21931 0
M  V30 2177 O 197.417 0.698975 1.82792 0
M  V30 2178 C 197.716 3.57176 -0.126623 0
M  V30 2179 C 197.382 4.26798 -1.45444 0
M  V30 2180 C 196.044 4.45534 -1.81805 0
M  V30 2181 C 198.396 4.66225 -2.32989 0
M  V30 2182 C 195.724 5.00961 -3.05377 0
M  V30 2183 C 198.076 5.23021 -3.55853 0
M  V30 2184 C 196.74 5.39973 -3.9241 0
M  V30 2185 H 196.01 0.738484 -0.0610162 0
M  V30 2186 H 198.657 1.71896 -0.84404 0
M  V30 2187 H 196.962 3.86634 0.634123 0
M  V30 2188 H 198.659 4.00112 0.266723 0
M  V30 2189 H 195.249 4.12561 -1.16153 0
M  V30 2190 H 199.433 4.51443 -2.06187 0
M  V30 2191 H 194.689 5.12271 -3.3375 0
M  V30 2192 H 198.863 5.52518 -4.23907 0
M  V30 2193 H 196.49 5.82687 -4.88242 0
M  V30 2194 N 198.065 0.39524 1.52563 0
M  V30 2195 C 199.314 -0.186321 2.00838 0
M  V30 2196 C 199.627 -1.47402 1.28577 0
M  V30 2197 O 200.833 -2.13599 1.67593 0
M  V30 2198 C 199.289 -0.382595 3.57861 0
M  V30 2199 C 198.897 0.892202 4.39026 0
M  V30 2200 C 200.641 -0.9202 4.14406 0
M  V30 2201 C 198.548 0.66388 5.87662 0
M  V30 2202 H 197.478 -0.0734041 0.750418 0
M  V30 2203 H 200.129 0.518552 1.76021 0
M  V30 2204 H 198.511 -1.14946 3.7895 0
M  V30 2205 H 199.685 1.66414 4.29701 0
M  V30 2206 H 198 1.35519 3.9373 0
M  V30 2207 H 200.597 -1.10683 5.23119 0
M  V30 2208 H 200.94 -1.89096 3.70875 0
M  V30 2209 H 201.473 -0.212751 3.97231 0
M  V30 2210 H 198.212 1.6058 6.35527 0
M  V30 2211 H 197.732 -0.0690193 5.9976 0
M  V30 2212 H 199.411 0.300699 6.46301 0
M  V30 2213 N 199.544 -1.57102 0.125237 0
M  V30 2214 C 200.774 -1.99472 -0.538015 0
M  V30 2215 C 201.182 -1.00395 -1.60366 0
M  V30 2216 O 200.525 0.0103875 -1.83697 0
M  V30 2217 C 200.587 -3.38262 -1.21734 0
M  V30 2218 C 200.251 -4.56021 -0.298897 0
M  V30 2219 C 201.248 -5.17817 0.464943 0
M  V30 2220 C 198.933 -5.01869 -0.208149 0
M  V30 2221 C 200.927 -6.23852 1.3072 0
M  V30 2222 C 198.614 -6.07763 0.637736 0
M  V30 2223 C 199.612 -6.68622 1.39403 0
M  V30 2224 O 199.3 -7.7247 2.22586 0
M  V30 2225 H 199.032 -0.659934 -0.146501 0
M  V30 2226 H 201.586 -2.04321 0.210267 0
M  V30 2227 H 199.816 -3.30185 -2.01282 0
M  V30 2228 H 201.505 -3.6488 -1.77813 0
M  V30 2229 H 202.271 -4.83308 0.404741 0
M  V30 2230 H 198.15 -4.54241 -0.786522 0
M  V30 2231 H 201.694 -6.71284 1.898 0
M  V30 2232 H 197.591 -6.41701 0.699309 0
M  V30 2233 H 198.359 -7.89595 2.15596 0
M  V30 2234 N 201.022 0.148545 -1.56898 0
M  V30 2235 C 201.952 1.18524 -2.01182 0
M  V30 2236 C 202.933 1.4489 -0.891123 0
M  V30 2237 O 204.118 1.55836 -1.15882 0
M  V30 2238 C 201.248 2.51879 -2.39112 0
M  V30 2239 C 200.202 2.40038 -3.54353 0
M  V30 2240 C 199.528 3.78089 -3.78091 0
M  V30 2241 C 200.828 1.88577 -4.87069 0
M  V30 2242 H 202.522 0.817029 -2.88036 0
M  V30 2243 H 200.068 0.391575 -1.38574 0
M  V30 2244 H 202.021 3.24627 -2.68692 0
M  V30 2245 H 200.745 2.90532 -1.49193 0
M  V30 2246 H 199.404 1.69742 -3.24936 0
M  V30 2247 H 199.052 4.14175 -2.85426 0
M  V30 2248 H 198.752 3.71028 -4.55645 0
M  V30 2249 H 200.276 4.52387 -4.10095 0
M  V30 2250 H 201.69 2.51117 -5.15377 0
M  V30 2251 H 200.087 1.9241 -5.68417 0
M  V30 2252 H 201.157 0.84136 -4.77545 0
M  V30 2253 N 202.5 1.5196 0.417844 0
M  V30 2254 C 203.748 1.65263 1.16329 0
M  V30 2255 C 204.069 0.380634 1.91249 0
M  V30 2256 O 203.339 -0.604214 1.86349 0
M  V30 2257 H 201.919 0.60912 0.432414 0
M  V30 2258 H 204.581 1.88969 0.477162 0
M  V30 2259 H 203.677 2.4896 1.88217 0
M  V30 2260 N 203.978 -0.674533 1.42435 0
M  V30 2261 C 205.255 -1.4305 1.33402 0
M  V30 2262 C 205.635 -2.11081 -0.0284674 0
M  V30 2263 O 204.983 -2.03257 -1.04397 0
M  V30 2264 C 205.193 -2.43272 2.50239 0
M  V30 2265 C 206.541 -3.07907 2.92367 0
M  V30 2266 O 207.565 -2.53599 2.50132 0
M  V30 2267 O 206.424 -4.0632 3.65467 0
M  V30 2268 H 203.518 -0.638076 0.526106 0
M  V30 2269 H 206.064 -0.703235 1.54443 0
M  V30 2270 H 204.836 -1.91803 3.41068 0
M  V30 2271 H 204.459 -3.23479 2.31186 0
M  V30 2272 N 205.456 -1.28612 -0.910864 0
M  V30 2273 C 206.704 -1.15705 -1.65701 0
M  V30 2274 C 207.025 0.29416 -1.92769 0
M  V30 2275 O 206.295 1.20331 -1.54588 0
M  V30 2276 H 204.875 -0.425216 -0.614167 0
M  V30 2277 H 207.537 -1.61381 -1.0928 0
M  V30 2278 H 206.633 -1.6988 -2.61815 0
M  V30 2279 N 206.934 1.1197 -1.10907 0
M  V30 2280 C 208.211 1.79959 -0.766432 0
M  V30 2281 C 208.591 1.97466 0.746363 0
M  V30 2282 O 207.939 1.55491 1.67436 0
M  V30 2283 C 208.149 3.14009 -1.52314 0
M  V30 2284 C 209.497 3.89134 -1.69883 0
M  V30 2285 O 210.521 3.2368 -1.48692 0
M  V30 2286 O 209.38 5.06572 -2.05054 0
M  V30 2287 H 206.474 0.779208 -0.277062 0
M  V30 2288 H 209.02 1.18762 -1.21217 0
M  V30 2289 H 207.792 2.96587 -2.55249 0
M  V30 2290 H 207.415 3.82915 -1.07059 0
M  V30 2291 N 208.412 0.89855 1.29475 0
M  V30 2292 C 209.823 0.572537 1.77705 0
M  V30 2293 C 210.174 -0.911778 1.73727 0
M  V30 2294 O 209.299 -1.71288 1.32247 0
M  V30 2295 C 209.894 1.03252 3.22683 0
M  V30 2296 C 208.453 0.757687 3.68695 0
M  V30 2297 C 207.6 1.20787 2.49612 0
M  V30 2298 H 210.551 1.08139 1.16153 0
M  V30 2299 H 210.572 0.367307 3.78723 0
M  V30 2300 H 210.084 2.11285 3.25546 0
M  V30 2301 H 208.185 -0.310079 3.71308 0
M  V30 2302 H 208.298 1.35476 4.59547 0
M  V30 2303 H 206.662 0.626888 2.46865 0
M  V30 2304 H 207.445 2.29622 2.55203 0
M  V30 2305 N 209.89 -1.43072 0.660911 0
M  V30 2306 C 211.301 -1.84932 0.256348 0
M  V30 2307 C 211.652 -1.55325 -1.19868 0
M  V30 2308 O 210.777 -1.00607 -1.91591 0
M  V30 2309 C 211.372 -3.35684 0.458475 0
M  V30 2310 C 209.931 -3.76245 0.108161 0
M  V30 2311 C 209.078 -2.66749 0.757641 0
M  V30 2312 H 212.029 -1.33116 0.864051 0
M  V30 2313 H 212.05 -3.79365 -0.293683 0
M  V30 2314 H 211.562 -3.572 1.51755 0
M  V30 2315 H 209.663 -3.60338 -0.948014 0
M  V30 2316 H 209.776 -4.76058 0.538992 0
M  V30 2317 H 208.14 -2.53989 0.190185 0
M  V30 2318 H 208.923 -2.91092 1.81989 0
M  V30 2319 N 211.368 -0.403325 -1.52352 0
M  V30 2320 C 212.779 0.0675782 -1.86578 0
M  V30 2321 C 213.13 1.44941 -1.32236 0
M  V30 2322 O 212.255 2.06112 -0.659307 0
M  V30 2323 C 212.85 0.129404 -3.38553 0
M  V30 2324 C 211.409 0.544629 -3.72439 0
M  V30 2325 C 210.556 -0.284551 -2.75836 0
M  V30 2326 H 213.507 -0.620631 -1.46061 0
M  V30 2327 H 213.528 0.94581 -3.68558 0
M  V30 2328 H 213.04 -0.87645 -3.78074 0
M  V30 2329 H 211.141 1.55734 -3.38493 0
M  V30 2330 H 211.254 0.293046 -4.78203 0
M  V30 2331 H 209.618 0.252258 -2.53448 0
M  V30 2332 H 210.401 -1.28865 -3.18196 0
M  V30 2333 N 212.846 1.57033 -0.133567 0
M  V30 2334 C 213.776 2.1909 0.807567 0
M  V30 2335 C 214.757 1.13517 1.26681 0
M  V30 2336 O 215.942 1.41809 1.32679 0
M  V30 2337 C 213.072 2.80188 2.05212 0
M  V30 2338 C 212.026 3.91471 1.73015 0
M  V30 2339 C 211.352 4.39443 3.04622 0
M  V30 2340 C 212.652 5.12886 0.987168 0
M  V30 2341 H 214.346 2.97988 0.290403 0
M  V30 2342 H 211.892 1.43335 0.138239 0
M  V30 2343 H 213.845 3.22264 2.71521 0
M  V30 2344 H 212.569 1.98601 2.59278 0
M  V30 2345 H 211.228 3.49993 1.0909 0
M  V30 2346 H 210.876 3.54695 3.56651 0
M  V30 2347 H 210.576 5.14495 2.83847 0
M  V30 2348 H 212.1 4.8418 3.72024 0
M  V30 2349 H 213.514 5.51891 1.55208 0
M  V30 2350 H 211.911 5.93615 0.87985 0
M  V30 2351 H 212.981 4.84894 -0.0235286 0
M  V30 2352 N 214.325 -0.140222 1.56975 0
M  V30 2353 C 215.288 -1.15689 1.97861 0
M  V30 2354 C 216.288 -1.3549 0.865974 0
M  V30 2355 O 217.478 -1.32367 1.13246 0
M  V30 2356 C 214.61 -2.51582 2.30042 0
M  V30 2357 H 215.803 -0.805971 2.88867 0
M  V30 2358 H 213.356 -0.383801 1.51515 0
M  V30 2359 H 214.091 -2.91632 1.41849 0
M  V30 2360 H 213.876 -2.38569 3.11171 0
M  V30 2361 H 215.366 -3.24792 2.62488 0
M  V30 2362 N 215.803 -1.52179 -0.40978 0
M  V30 2363 C 217.219 -1.40968 -0.74835 0
M  V30 2364 C 217.419 -0.513657 -1.94843 0
M  V30 2365 O 216.475 0.0208026 -2.52491 0
M  V30 2366 C 217.788 -2.83483 -1.0029 0
M  V30 2367 C 219.336 -2.92821 -1.10565 0
M  V30 2368 C 219.811 -4.36303 -1.39296 0
M  V30 2369 N 221.302 -4.39535 -1.46162 0
M  V30 2370 C 222.037 -5.47614 -1.70018 0
M  V30 2371 N 221.533 -6.65812 -1.91483 0
M  V30 2372 N 223.326 -5.35129 -1.72027 0
M  V30 2373 H 215.477 -2.0897 0.380186 0
M  V30 2374 H 217.74 -0.94185 0.107805 0
M  V30 2375 H 217.446 -3.51168 -0.193461 0
M  V30 2376 H 217.32 -3.24487 -1.92323 0
M  V30 2377 H 219.707 -2.25318 -1.90568 0
M  V30 2378 H 219.788 -2.55276 -0.16369 0
M  V30 2379 H 219.432 -5.04366 -0.598109 0
M  V30 2380 H 219.362 -4.71385 -2.34743 0
M  V30 2381 H 221.853 -3.54332 -1.31367 0
M  V30 2382 H 222.166 -7.43964 -2.09134 0
M  V30 2383 H 220.511 -6.68879 -1.88749 0
M  V30 2384 H 223.702 -4.41764 -1.54796 0
M  V30 2385 H 223.875 -6.19433 -1.9028 0
M  V30 2386 N 217.281 0.66697 -1.42791 0
M  V30 2387 C 218.558 1.4234 -1.34159 0
M  V30 2388 C 218.938 2.11093 0.0172729 0
M  V30 2389 O 218.286 2.03808 1.03318 0
M  V30 2390 C 218.496 2.41942 -2.51526 0
M  V30 2391 C 219.844 3.06353 -2.93995 0
M  V30 2392 O 220.868 2.52269 -2.51473 0
M  V30 2393 O 219.727 4.04376 -3.67617 0
M  V30 2394 H 216.821 0.635277 -0.529483 0
M  V30 2395 H 219.367 0.695034 -1.54814 0
M  V30 2396 H 218.139 1.89991 -3.42081 0
M  V30 2397 H 217.762 3.22249 -2.32898 0
M  V30 2398 N 218.759 1.29093 0.90403 0
M  V30 2399 C 219.987 1.19689 1.68766 0
M  V30 2400 C 220.402 -0.243113 1.87228 0
M  V30 2401 O 219.759 -1.16326 1.40621 0
M  V30 2402 C 219.81 1.90144 3.07453 0
M  V30 2403 O 219.531 3.2852 2.89838 0
M  V30 2404 C 221.032 1.87162 4.01852 0
M  V30 2405 H 218.252 0.415035 0.527244 0
M  V30 2406 H 220.796 1.7039 1.13082 0
M  V30 2407 H 218.951 1.43289 3.59926 0
M  V30 2408 H 219.365 3.63944 3.77684 0
M  V30 2409 H 220.839 2.41032 4.96596 0
M  V30 2410 H 221.316 0.84617 4.30972 0
M  V30 2411 H 221.922 2.33741 3.5531 0
M  V30 2412 N 220.237 -1.11381 1.11499 0
M  V30 2413 C 221.648 -1.6465 0.880191 0
M  V30 2414 C 221.999 -1.87199 -0.587434 0
M  V30 2415 O 221.124 -1.60667 -1.44966 0
M  V30 2416 C 221.719 -2.99105 1.59128 0
M  V30 2417 C 220.278 -3.49279 1.40289 0
M  V30 2418 C 219.425 -2.24077 1.63354 0
M  V30 2419 H 222.376 -0.950123 1.27116 0
M  V30 2420 H 222.397 -3.66107 1.03664 0
M  V30 2421 H 221.909 -2.82661 2.65941 0
M  V30 2422 H 220.01 -3.70887 0.356888 0
M  V30 2423 H 220.123 -4.2803 2.15238 0
M  V30 2424 H 218.487 -2.31733 1.05698 0
M  V30 2425 H 219.27 -2.10175 2.71443 0
M  V30 2426 N 221.715 -0.905404 -1.28997 0
M  V30 2427 C 223.126 -0.581953 -1.77398 0
M  V30 2428 C 223.477 0.902552 -1.74208 0
M  V30 2429 O 222.602 1.70584 -1.33154 0
M  V30 2430 C 223.197 -1.04961 -3.22131 0
M  V30 2431 C 221.756 -0.777229 -3.68288 0
M  V30 2432 C 220.903 -1.22109 -2.48967 0
M  V30 2433 H 223.854 -1.08754 -1.15578 0
M  V30 2434 H 223.875 -0.387387 -3.78523 0
M  V30 2435 H 223.387 -2.13008 -3.24421 0
M  V30 2436 H 221.488 0.290383 -3.71467 0
M  V30 2437 H 221.601 -1.37911 -4.58822 0
M  V30 2438 H 219.965 -0.639971 -2.46529 0
M  V30 2439 H 220.748 -2.30972 -2.53982 0
M  V30 2440 N 223.193 1.4272 -0.668489 0
M  V30 2441 C 224.141 2.32586 0.0254857 0
M  V30 2442 C 225.135 1.49471 0.797176 0
M  V30 2443 O 226.341 1.65583 0.705853 0
M  V30 2444 H 222.716 0.751514 0.0270339 0
M  V30 2445 H 224.687 2.88823 -0.749936 0
M  V30 2446 C 223.436 3.3397 0.967427 0
M  V30 2447 H 222.759 3.97961 0.383048 0
M  V30 2448 H 224.199 3.9945 1.42181 0
M  V30 2449 C 222.658 2.65744 2.0708 0
M  V30 2450 O 223.188 2.48454 3.15648 0
M  V30 2451 N 221.394 2.2487 1.8407 0
M  V30 2452 H 220.941 2.39132 0.95778 0
M  V30 2453 H 220.899 1.79552 2.58086 0
M  V30 2454 N 224.671 0.411399 1.52136 0
M  V30 2455 C 225.918 -0.163645 2.01838 0
M  V30 2456 C 226.246 -1.4495 1.29691 0
M  V30 2457 O 225.501 -1.91725 0.392431 0
M  V30 2458 C 225.8 -0.455872 3.54481 0
M  V30 2459 C 225.466 0.741055 4.44769 0
M  V30 2460 C 224.128 1.06936 4.69167 0
M  V30 2461 C 226.48 1.54075 4.97906 0
M  V30 2462 C 223.808 2.19851 5.43951 0
M  V30 2463 C 226.16 2.66067 5.73926 0
M  V30 2464 C 224.824 2.99381 5.96596 0
M  V30 2465 H 224.094 -0.0598821 0.738576 0
M  V30 2466 H 226.741 0.553283 1.83333 0
M  V30 2467 H 225.046 -1.2544 3.71177 0
M  V30 2468 H 226.743 -0.913802 3.90449 0
M  V30 2469 H 223.333 0.475192 4.25958 0
M  V30 2470 H 227.517 1.30033 4.78963 0
M  V30 2471 H 222.773 2.46006 5.59724 0
M  V30 2472 H 226.947 3.28419 6.14096 0
M  V30 2473 H 224.574 3.86992 6.54325 0
M  V30 2474 N 226.149 -1.5696 0.141893 0
M  V30 2475 C 227.079 -2.19516 -0.795936 0
M  V30 2476 C 228.06 -1.14187 -1.26077 0
M  V30 2477 O 229.245 -1.42511 -1.31925 0
M  V30 2478 C 226.375 -2.81272 -2.03723 0
M  V30 2479 C 225.329 -3.92384 -1.70936 0
M  V30 2480 C 224.655 -4.41052 -3.02287 0
M  V30 2481 C 225.955 -5.13403 -0.959954 0
M  V30 2482 H 227.649 -2.98138 -0.274596 0
M  V30 2483 H 225.195 -1.43406 -0.130636 0
M  V30 2484 H 227.148 -3.237 -2.69808 0
M  V30 2485 H 225.872 -1.99973 -2.58221 0
M  V30 2486 H 224.531 -3.50566 -1.07232 0
M  V30 2487 H 224.179 -3.56582 -3.54765 0
M  V30 2488 H 223.879 -5.15993 -2.81114 0
M  V30 2489 H 225.403 -4.86146 -3.69451 0
M  V30 2490 H 226.817 -5.52706 -1.52279 0
M  V30 2491 H 225.214 -5.94073 -0.848357 0
M  V30 2492 H 226.284 -4.84875 0.0492434 0
M  V30 2493 N 227.627 0.131896 -1.57047 0
M  V30 2494 C 228.904 0.871495 -1.75112 0
M  V30 2495 C 229.284 1.9866 -0.713949 0
M  V30 2496 O 228.632 2.26965 0.264447 0
M  V30 2497 C 228.842 1.40007 -3.19686 0
M  V30 2498 C 230.19 1.85752 -3.81813 0
M  V30 2499 O 231.214 1.49715 -3.23209 0
M  V30 2500 O 230.073 2.5226 -4.84796 0
M  V30 2501 H 227.167 0.412919 -0.716538 0
M  V30 2502 H 229.713 0.116641 -1.69299 0
M  V30 2503 H 228.485 0.599404 -3.86682 0
M  V30 2504 H 228.108 2.218 -3.29986 0
M  V30 2505 N 229.106 1.52395 0.401703 0
M  V30 2506 C 230.383 1.57387 1.16141 0
M  V30 2507 C 230.763 0.359359 2.08019 0
M  V30 2508 O 230.111 -0.65326 2.18963 0
M  V30 2509 C 230.321 2.90631 1.93221 0
M  V30 2510 C 231.669 3.43904 2.49028 0
M  V30 2511 O 232.693 2.92421 2.03393 0
M  V30 2512 O 231.552 4.33823 3.32356 0
M  V30 2513 H 228.646 0.634262 0.530698 0
M  V30 2514 H 231.192 1.64725 0.407883 0
M  V30 2515 H 229.964 3.70473 1.25958 0
M  V30 2516 H 229.587 2.8662 2.75563 0
M  V30 2517 N 230.584 -0.659388 1.43143 0
M  V30 2518 C 231.861 -1.41627 1.34912 0
M  V30 2519 C 232.241 -2.11099 -0.00607785 0
M  V30 2520 O 231.589 -2.04353 -1.02236 0
M  V30 2521 C 231.799 -2.40604 2.52805 0
M  V30 2522 C 233.147 -3.04789 2.95616 0
M  V30 2523 O 234.171 -2.50932 2.52807 0
M  V30 2524 O 233.03 -4.02421 3.69756 0
M  V30 2525 H 230.124 -0.63246 0.532844 0
M  V30 2526 H 232.67 -0.686814 1.5518 0
M  V30 2527 H 231.442 -1.88174 3.43083 0
M  V30 2528 H 231.065 -3.21009 2.34604 0
M  V30 2529 N 232.062 -1.29571 -0.897171 0
M  V30 2530 C 232.995 -1.0924 -2.00354 0
M  V30 2531 C 233.973 -0.00354011 -1.626 0
M  V30 2532 O 235.157 -0.15473 -1.87864 0
M  V30 2533 C 232.284 -0.66352 -3.32137 0
M  V30 2534 C 231.33 -1.75146 -3.88878 0
M  V30 2535 S 232.163 -3.35124 -4.17674 0
M  V30 2536 C 233.319 -2.9411 -5.52494 0
M  V30 2537 H 233.552 -2.02907 -2.17292 0
M  V30 2538 H 231.085 -1.13746 -1.04408 0
M  V30 2539 H 233.043 -0.422791 -4.08317 0
M  V30 2540 H 231.704 0.253588 -3.13075 0
M  V30 2541 H 230.897 -1.40337 -4.84068 0
M  V30 2542 H 230.499 -1.94584 -3.19395 0
M  V30 2543 H 232.791 -2.41312 -6.33068 0
M  V30 2544 H 233.734 -3.88161 -5.9223 0
M  V30 2545 H 234.142 -2.32332 -5.14473 0
M  V30 2546 N 233.54 1.10788 -1.12088 0
M  V30 2547 C 234.45 2.20599 -0.798338 0
M  V30 2548 C 235.466 1.72712 0.21135 0
M  V30 2549 O 236.642 2.01348 0.0458477 0
M  V30 2550 C 233.707 3.45771 -0.253674 0
M  V30 2551 C 232.768 4.08411 -1.32283 0
M  V30 2552 C 232.001 5.27608 -0.80406 0
M  V30 2553 O 232.224 5.69241 0.363478 0
M  V30 2554 O 231.158 5.8101 -1.57198 0
M  V30 2555 H 234.984 2.50614 -1.7154 0
M  V30 2556 H 232.569 1.19454 -0.897275 0
M  V30 2557 H 234.451 4.21376 0.0453691 0
M  V30 2558 H 233.126 3.1739 0.636005 0
M  V30 2559 H 232.033 3.34507 -1.67499 0
M  V30 2560 H 233.366 4.40986 -2.18614 0
M  V30 2561 N 235.018 0.912232 1.28515 0
M  V30 2562 C 236.267 0.540504 1.94323 0
M  V30 2563 C 236.58 -0.920044 1.72611 0
M  V30 2564 O 237.786 -1.39986 2.32629 0
M  V30 2565 C 236.242 0.915803 3.48053 0
M  V30 2566 C 235.85 2.39598 3.78546 0
M  V30 2567 C 237.594 0.614588 4.20027 0
M  V30 2568 C 235.501 2.71148 5.25578 0
M  V30 2569 H 234.431 0.198418 0.727424 0
M  V30 2570 H 237.082 1.11094 1.46049 0
M  V30 2571 H 235.464 0.274168 3.9505 0
M  V30 2572 H 236.638 3.08422 3.42364 0
M  V30 2573 H 234.953 2.66749 3.1974 0
M  V30 2574 H 237.55 0.827002 5.28266 0
M  V30 2575 H 237.893 -0.447531 4.13887 0
M  V30 2576 H 238.426 1.21462 3.78803 0
M  V30 2577 H 235.165 3.76207 5.36794 0
M  V30 2578 H 234.685 2.0696 5.62963 0
M  V30 2579 H 236.364 2.58072 5.93302 0
M  V30 2580 N 236.496 -1.42363 0.676048 0
M  V30 2581 C 237.426 -2.33497 0.0124832 0
M  V30 2582 C 238.407 -1.50748 -0.787981 0
M  V30 2583 O 239.592 -1.79346 -0.744884 0
M  V30 2584 C 236.722 -3.34377 -0.938582 0
M  V30 2585 C 235.676 -4.27289 -0.246622 0
M  V30 2586 C 235.002 -5.18386 -1.31071 0
M  V30 2587 C 236.302 -5.14916 0.875125 0
M  V30 2588 H 237.996 -2.89233 0.773593 0
M  V30 2589 H 235.542 -1.39073 0.37346 0
M  V30 2590 H 237.495 -3.97044 -1.41188 0
M  V30 2591 H 236.219 -2.76947 -1.73113 0
M  V30 2592 H 234.878 -3.66018 0.206456 0
M  V30 2593 H 234.526 -4.57282 -2.09528 0
M  V30 2594 H 234.226 -5.81378 -0.852839 0
M  V30 2595 H 235.75 -5.83929 -1.78492 0
M  V30 2596 H 237.164 -5.71262 0.482983 0
M  V30 2597 H 235.561 -5.86747 1.25887 0
M  V30 2598 H 236.631 -4.53242 1.72335 0
M  V30 2599 N 237.974 -0.419461 -1.51915 0
M  V30 2600 C 239.222 0.152637 -2.01523 0
M  V30 2601 C 239.543 1.44762 -1.30649 0
M  V30 2602 O 238.813 1.90997 -0.435535 0
M  V30 2603 H 237.393 0.0593966 -0.744635 0
M  V30 2604 H 240.055 -0.558073 -1.86739 0
M  V30 2605 H 239.151 0.341369 -3.10227 0
M  V30 2606 N 239.452 1.56882 -0.150215 0
M  V30 2607 C 240.399 2.16922 0.788244 0
M  V30 2608 C 241.369 1.10303 1.24187 0
M  V30 2609 O 242.554 1.38359 1.31383 0
M  V30 2610 C 239.694 2.79754 2.02068 0
M  V30 2611 C 238.807 4.00775 1.61257 0
M  V30 2612 C 237.942 4.51595 2.79705 0
M  V30 2613 C 236.981 5.65074 2.35282 0
M  V30 2614 N 236.118 6.10499 3.4675 0
M  V30 2615 H 240.958 2.96779 0.269444 0
M  V30 2616 H 238.495 1.46599 0.12128 0
M  V30 2617 H 240.453 3.14329 2.74323 0
M  V30 2618 H 239.083 2.02536 2.51354 0
M  V30 2619 H 238.135 3.72158 0.787553 0
M  V30 2620 H 239.447 4.82978 1.24633 0
M  V30 2621 H 238.601 4.88242 3.60145 0
M  V30 2622 H 237.34 3.68406 3.19576 0
M  V30 2623 H 236.345 5.28 1.53283 0
M  V30 2624 H 237.57 6.50052 1.96493 0
M  V30 2625 H 235.516 5.30243 3.86236 0
M  V30 2626 H 235.433 6.87637 3.14152 0
M  V30 2627 H 236.701 6.51791 4.27537 0
M  V30 2628 N 240.93 -0.123565 1.57115 0
M  V30 2629 C 241.878 -1.17082 2.00984 0
M  V30 2630 C 242.872 -1.43136 0.906009 0
M  V30 2631 O 244.078 -1.43152 1.09121 0
M  V30 2632 H 240.453 -0.394653 0.64012 0
M  V30 2633 H 242.424 -0.774292 2.88179 0
M  V30 2634 C 241.173 -2.49057 2.42623 0
M  V30 2635 H 240.496 -2.29846 3.27125 0
M  V30 2636 H 241.936 -3.20906 2.7712 0
M  V30 2637 C 240.395 -3.11305 1.28805 0
M  V30 2638 O 240.925 -3.97171 0.60153 0
M  V30 2639 N 239.131 -2.71111 1.04628 0
M  V30 2640 H 238.678 -2.01382 1.60634 0
M  V30 2641 H 238.636 -3.1309 0.286685 0
M  V30 2642 N 242.408 -1.52605 -0.393616 0
M  V30 2643 C 243.34 -1.73303 -1.49995 0
M  V30 2644 C 244.353 -0.613473 -1.50799 0
M  V30 2645 O 245.542 -0.889049 -1.54784 0
M  V30 2646 C 242.642 -1.77245 -2.88855 0
M  V30 2647 C 241.815 -3.06483 -3.12069 0
M  V30 2648 C 240.874 -3.02033 -4.30886 0
M  V30 2649 O 239.9 -3.75907 -4.27414 0
M  V30 2650 N 241.102 -2.20897 -5.36828 0
M  V30 2651 H 243.867 -2.68756 -1.32629 0
M  V30 2652 H 241.428 -1.51036 -0.583083 0
M  V30 2653 H 243.42 -1.7178 -3.66434 0
M  V30 2654 H 241.99 -0.891993 -2.99603 0
M  V30 2655 H 241.21 -3.25474 -2.22396 0
M  V30 2656 H 242.498 -3.91947 -3.2443 0
M  V30 2657 H 241.896 -1.60336 -5.42502 0
M  V30 2658 H 240.453 -2.21275 -6.13091 0
M  V30 2659 N 243.887 0.651787 -1.4349 0
M  V30 2660 C 245.136 1.40754 -1.44469 0
M  V30 2661 C 245.449 1.95463 -0.0731845 0
M  V30 2662 O 246.655 2.71471 0.0395721 0
M  V30 2663 C 245.111 2.54735 -2.5424 0
M  V30 2664 C 244.719 2.06628 -3.97504 0
M  V30 2665 C 246.463 3.32092 -2.64414 0
M  V30 2666 C 244.37 3.17829 -4.98737 0
M  V30 2667 H 243.3 0.528862 -0.53742 0
M  V30 2668 H 245.951 0.703365 -1.69485 0
M  V30 2669 H 244.333 3.2763 -2.22428 0
M  V30 2670 H 245.507 1.40734 -4.38783 0
M  V30 2671 H 243.822 1.42146 -3.91387 0
M  V30 2672 H 246.419 4.14952 -3.37223 0
M  V30 2673 H 246.762 3.80217 -1.69532 0
M  V30 2674 H 247.295 2.66279 -2.95534 0
M  V30 2675 H 244.034 2.74671 -5.95177 0
M  V30 2676 H 243.554 3.82429 -4.62069 0
M  V30 2677 H 245.233 3.82937 -5.21505 0
M  V30 2678 N 245.365 1.30045 0.890287 0
M  V30 2679 C 246.614 1.17929 1.63633 0
M  V30 2680 C 246.927 -0.266204 1.9378 0
M  V30 2681 O 248.133 -0.508804 2.6669 0
M  V30 2682 C 246.589 2.06317 2.94892 0
M  V30 2683 C 246.197 3.55745 2.72305 0
M  V30 2684 C 247.941 2.0295 3.72843 0
M  V30 2685 C 245.848 4.36205 3.99348 0
M  V30 2686 H 244.778 0.437782 0.613892 0
M  V30 2687 H 247.429 1.54754 0.986075 0
M  V30 2688 H 245.811 1.6237 3.61182 0
M  V30 2689 H 246.985 4.07805 2.1455 0
M  V30 2690 H 245.3 3.6088 2.07737 0
M  V30 2691 H 247.897 2.60319 4.67053 0
M  V30 2692 H 248.24 1.0117 4.0382 0
M  V30 2693 H 248.773 2.4499 3.13408 0
M  V30 2694 H 245.512 5.38659 3.73533 0
M  V30 2695 H 245.032 3.8891 4.56628 0
M  V30 2696 H 246.711 4.47362 4.67415 0
M  V30 2697 N 246.843 -1.10192 1.12674 0
M  V30 2698 C 247.79 -2.16606 0.796906 0
M  V30 2699 C 248.76 -1.64394 -0.237476 0
M  V30 2700 O 249.945 -1.90474 -0.111484 0
M  V30 2701 C 247.085 -3.44116 0.26043 0
M  V30 2702 C 246.198 -4.10268 1.35293 0
M  V30 2703 C 245.333 -5.25507 0.775621 0
M  V30 2704 C 244.372 -5.83567 1.84706 0
M  V30 2705 N 243.509 -6.90179 1.28829 0
M  V30 2706 H 248.349 -2.44163 1.70846 0
M  V30 2707 H 245.886 -1.19846 0.85295 0
M  V30 2708 H 247.844 -4.17143 -0.0686814 0
M  V30 2709 H 246.474 -3.16901 -0.614274 0
M  V30 2710 H 245.526 -3.35184 1.79877 0
M  V30 2711 H 246.838 -4.4946 2.16303 0
M  V30 2712 H 245.992 -6.05398 0.397327 0
M  V30 2713 H 244.731 -4.87656 -0.0656581 0
M  V30 2714 H 243.736 -5.02344 2.23452 0
M  V30 2715 H 244.961 -6.23482 2.69161 0
M  V30 2716 H 242.907 -6.54322 0.468881 0
M  V30 2717 H 242.824 -7.28097 2.03497 0
M  V30 2718 H 244.092 -7.73844 0.937311 0
M  V30 2719 N 248.321 -0.919034 -1.28029 0
M  V30 2720 C 249.546 -0.570357 -1.99403 0
M  V30 2721 C 249.971 0.842486 -1.68178 0
M  V30 2722 O 249.329 1.56391 -0.917141 0
M  V30 2723 C 249.377 -0.792541 -3.51783 0
M  V30 2724 O 248.481 0.145988 -4.12142 0
M  V30 2725 H 247.822 -0.220555 -0.6263 0
M  V30 2726 H 250.352 -1.23592 -1.63053 0
M  V30 2727 H 250.362 -0.704708 -4.01868 0
M  V30 2728 H 249.037 -1.82247 -3.73844 0
M  V30 2729 H 247.614 0.00897528 -3.72899 0
M  V30 2730 N 249.799 1.42003 -0.683588 0
M  V30 2731 C 250.747 2.326 0.000815408 0
M  V30 2732 C 251.741 1.50308 0.781278 0
M  V30 2733 O 252.947 1.66322 0.688251 0
M  V30 2734 H 249.322 0.751758 0.0190616 0
M  V30 2735 H 251.293 2.88011 -0.780528 0
M  V30 2736 C 250.042 3.34978 0.93195 0
M  V30 2737 H 249.365 3.98345 0.340817 0
M  V30 2738 H 250.805 4.00936 1.37936 0
M  V30 2739 C 249.264 2.67925 2.04249 0
M  V30 2740 O 249.794 2.51788 3.12995 0
M  V30 2741 N 248 2.2681 1.81675 0
M  V30 2742 H 247.547 2.40135 0.932363 0
M  V30 2743 H 247.505 1.8228 2.56167 0
M  V30 2744 N 251.277 0.427512 1.51691 0
M  V30 2745 C 252.523 -0.134744 2.02953 0
M  V30 2746 C 252.878 -1.41235 1.30654 0
M  V30 2747 O 252.171 -1.87168 0.409713 0
M  V30 2748 C 252.365 -0.418249 3.54944 0
M  V30 2749 C 252.194 0.830327 4.41968 0
M  V30 2750 C 250.964 1.36097 4.86627 0
M  V30 2751 C 253.162 1.7137 4.84909 0
M  V30 2752 N 251.144 2.56311 5.57833 0
M  V30 2753 C 252.515 2.76195 5.55082 0
M  V30 2754 C 254.57 1.72928 4.66905 0
M  V30 2755 C 253.273 3.82512 6.09161 0
M  V30 2756 C 255.299 2.78175 5.21894 0
M  V30 2757 C 254.661 3.8172 5.92004 0
M  V30 2758 H 250.76 -0.0103958 0.781931 0
M  V30 2759 H 253.344 0.585981 1.85673 0
M  V30 2760 H 251.515 -1.10801 3.7226 0
M  V30 2761 H 253.247 -0.970999 3.92879 0
M  V30 2762 H 250.002 0.916311 4.64651 0
M  V30 2763 H 250.426 3.17242 5.98069 0
M  V30 2764 H 255.068 0.942081 4.12171 0
M  V30 2765 H 252.786 4.62077 6.62956 0
M  V30 2766 H 256.372 2.8031 5.09821 0
M  V30 2767 H 255.252 4.61821 6.33791 0
M  V30 2768 N 252.755 -1.56801 0.158532 0
M  V30 2769 C 254.171 -1.5837 -0.197774 0
M  V30 2770 C 254.371 -1.17334 -1.63814 0
M  V30 2771 O 253.427 -0.878988 -2.36707 0
M  V30 2772 C 254.74 -3.00615 0.0714459 0
M  V30 2773 C 256.288 -3.12999 0.00864533 0
M  V30 2774 C 256.763 -4.57313 0.250685 0
M  V30 2775 N 258.254 -4.62777 0.198014 0
M  V30 2776 C 258.989 -5.72271 0.359642 0
M  V30 2777 N 258.485 -6.90371 0.579625 0
M  V30 2778 N 260.278 -5.61318 0.296438 0
M  V30 2779 H 252.429 -1.81765 1.09887 0
M  V30 2780 H 254.692 -0.841849 0.435884 0
M  V30 2781 H 254.398 -3.35068 1.06874 0
M  V30 2782 H 254.272 -3.71683 -0.642757 0
M  V30 2783 H 256.659 -2.7838 -0.979217 0
M  V30 2784 H 256.74 -2.44393 0.755359 0
M  V30 2785 H 256.384 -4.92639 1.2357 0
M  V30 2786 H 256.314 -5.24061 -0.516489 0
M  V30 2787 H 258.805 -3.77885 0.0331115 0
M  V30 2788 H 259.118 -7.69689 0.69275 0
M  V30 2789 H 257.463 -6.92264 0.616087 0
M  V30 2790 H 260.654 -4.67932 0.125258 0
M  V30 2791 H 260.827 -6.46599 0.425831 0
M  V30 2792 N 254.233 0.115231 -1.57178 0
M  V30 2793 C 255.163 1.1423 -2.03651 0
M  V30 2794 C 256.144 1.42967 -0.921655 0
M  V30 2795 O 257.329 1.53343 -1.19162 0
M  V30 2796 C 254.459 2.4675 -2.44401 0
M  V30 2797 C 253.413 2.32467 -3.59365 0
M  V30 2798 C 252.739 3.69984 -3.86026 0
M  V30 2799 C 254.039 1.78203 -4.90959 0
M  V30 2800 H 255.733 0.755749 -2.89705 0
M  V30 2801 H 253.279 0.362093 -1.39373 0
M  V30 2802 H 255.232 3.18854 -2.75517 0
M  V30 2803 H 253.956 2.87302 -1.55322 0
M  V30 2804 H 252.615 1.62811 -3.28463 0
M  V30 2805 H 252.263 4.08028 -2.94147 0
M  V30 2806 H 251.963 3.61279 -4.63412 0
M  V30 2807 H 253.487 4.43587 -4.19599 0
M  V30 2808 H 254.901 2.40128 -5.20587 0
M  V30 2809 H 253.298 1.8031 -5.72371 0
M  V30 2810 H 254.368 0.739876 -4.79222 0
M  V30 2811 N 255.711 1.52812 0.385517 0
M  V30 2812 C 256.674 1.77188 1.45386 0
M  V30 2813 C 257.674 0.641953 1.4743 0
M  V30 2814 O 258.864 0.910033 1.4854 0
M  V30 2815 C 255.996 1.87582 2.8465 0
M  V30 2816 H 257.189 2.72583 1.25054 0
M  V30 2817 H 254.742 1.43586 0.617467 0
M  V30 2818 H 255.477 0.941849 3.10322 0
M  V30 2819 H 255.262 2.69748 2.84567 0
M  V30 2820 H 256.752 2.08102 3.62054 0
M  V30 2821 N 257.189 -0.644168 1.43834 0
M  V30 2822 C 258.435 -1.40603 1.46146 0
M  V30 2823 C 258.768 -1.93997 0.0887717 0
M  V30 2824 O 258.043 -1.72854 -0.891724 0
M  V30 2825 C 258.326 -2.58086 2.51124 0
M  V30 2826 C 258.179 -2.10126 3.97702 0
M  V30 2827 C 259.498 -3.60291 2.52742 0
M  V30 2828 H 256.617 -0.509905 0.532134 0
M  V30 2829 H 259.259 -0.729502 1.75437 0
M  V30 2830 H 257.409 -3.15801 2.26278 0
M  V30 2831 H 259.081 -1.57342 4.33637 0
M  V30 2832 H 257.324 -1.41419 4.10101 0
M  V30 2833 H 257.995 -2.94649 4.66783 0
M  V30 2834 H 260.471 -3.12352 2.7491 0
M  V30 2835 H 259.347 -4.40032 3.28121 0
M  V30 2836 H 259.608 -4.1349 1.56455 0
M  V30 2837 N 258.668 -1.30515 -0.883378 0
M  V30 2838 C 259.578 -1.18959 -2.02203 0
M  V30 2839 C 260.594 -0.109172 -1.73657 0
M  V30 2840 O 261.77 -0.324413 -1.9877 0
M  V30 2841 C 258.835 -0.883871 -3.35244 0
M  V30 2842 C 257.896 -2.04982 -3.77201 0
M  V30 2843 C 257.129 -1.75859 -5.03894 0
M  V30 2844 O 257.352 -0.687276 -5.66244 0
M  V30 2845 O 256.286 -2.61146 -5.42297 0
M  V30 2846 H 260.112 -2.14616 -2.1488 0
M  V30 2847 H 257.697 -1.10124 -1.0096 0
M  V30 2848 H 259.579 -0.728644 -4.15053 0
M  V30 2849 H 258.254 0.0427798 -3.23672 0
M  V30 2850 H 257.161 -2.26038 -2.9809 0
M  V30 2851 H 258.494 -2.95825 -3.93381 0
M  V30 2852 N 260.146 1.09593 -1.13257 0
M  V30 2853 C 261.094 2.18271 -0.803783 0
M  V30 2854 C 262.088 1.68054 0.213148 0
M  V30 2855 O 263.294 1.79862 0.0704699 0
M  V30 2856 H 259.669 0.711949 -0.242143 0
M  V30 2857 H 261.64 2.43235 -1.72856 0
M  V30 2858 C 260.389 3.46536 -0.28424 0
M  V30 2859 H 259.712 3.85545 -1.05807 0
M  V30 2860 H 261.152 4.23899 -0.0925945 0
M  V30 2861 C 259.611 3.22036 0.989684 0
M  V30 2862 O 260.141 3.44509 2.06584 0
M  V30 2863 N 258.347 2.7565 0.920086 0
M  V30 2864 H 257.894 2.57562 0.0442019 0
M  V30 2865 H 257.852 2.59635 1.77306 0
M  V30 2866 N 261.624 0.925811 1.2754 0
M  V30 2867 C 262.872 0.564138 1.94067 0
M  V30 2868 C 263.193 -0.897188 1.73134 0
M  V30 2869 O 262.463 -1.63573 1.07799 0
M  V30 2870 H 261.043 0.205645 0.718136 0
M  V30 2871 H 263.705 1.1778 1.55287 0
M  V30 2872 H 262.801 0.76881 3.02483 0
M  V30 2873 N 263.102 -1.41638 0.69111 0
M  V30 2874 C 264.349 -2.01299 0.220193 0
M  V30 2875 C 264.677 -1.54715 -1.17871 0
M  V30 2876 O 263.932 -0.747193 -1.80874 0
M  V30 2877 C 264.231 -3.56714 0.221277 0
M  V30 2878 C 263.897 -4.22792 1.56709 0
M  V30 2879 C 262.559 -4.40557 1.93554 0
M  V30 2880 C 264.911 -4.59883 2.45268 0
M  V30 2881 C 262.239 -4.92688 3.18552 0
M  V30 2882 C 264.591 -5.13403 3.69595 0
M  V30 2883 C 263.255 -5.29379 4.06589 0
M  V30 2884 H 262.525 -0.736606 0.0805743 0
M  V30 2885 H 265.172 -1.69598 0.889319 0
M  V30 2886 H 263.477 -3.8818 -0.531391 0
M  V30 2887 H 265.174 -4.00678 -0.160547 0
M  V30 2888 H 261.764 -4.09336 1.2705 0
M  V30 2889 H 265.948 -4.45817 2.18084 0
M  V30 2890 H 261.204 -5.03242 3.47214 0
M  V30 2891 H 265.378 -5.41084 4.38407 0
M  V30 2892 H 263.005 -5.69537 5.03519 0
M  V30 2893 N 264.58 -0.43555 -1.51462 0
M  V30 2894 C 265.857 0.191364 -1.94662 0
M  V30 2895 C 266.237 1.60254 -1.37411 0
M  V30 2896 O 265.585 2.2152 -0.560458 0
M  V30 2897 C 265.795 0.17091 -3.48581 0
M  V30 2898 C 267.143 0.377357 -4.2292 0
M  V30 2899 O 268.167 0.249104 -3.55328 0
M  V30 2900 O 267.026 0.63247 -5.42828 0
M  V30 2901 H 264.12 0.130932 -0.816569 0
M  V30 2902 H 266.666 -0.4934 -1.62369 0
M  V30 2903 H 265.438 -0.815738 -3.82703 0
M  V30 2904 H 265.061 0.898659 -3.87311 0
M  V30 2905 N 266.058 1.56714 -0.166846 0
M  V30 2906 C 267.469 1.83378 0.350646 0
M  V30 2907 C 267.82 1.08646 1.63372 0
M  V30 2908 O 266.945 0.338058 2.13743 0
M  V30 2909 C 267.54 3.32643 0.642963 0
M  V30 2910 C 266.099 3.59818 1.10491 0
M  V30 2911 C 265.246 2.76954 0.138411 0
M  V30 2912 H 268.197 1.53803 -0.391193 0
M  V30 2913 H 268.218 3.49878 1.49551 0
M  V30 2914 H 267.73 3.87007 -0.291055 0
M  V30 2915 H 265.831 3.1086 2.05418 0
M  V30 2916 H 265.944 4.68178 1.01716 0
M  V30 2917 H 264.308 2.4666 0.634911 0
M  V30 2918 H 265.091 3.34097 -0.789549 0
M  V30 2919 N 267.536 -0.106894 1.57237 0
M  V30 2920 C 268.761 -0.830287 1.90055 0
M  V30 2921 C 269.186 -1.72064 0.75998 0
M  V30 2922 O 268.544 -1.78982 -0.288991 0
M  V30 2923 C 268.592 -1.6295 3.21683 0
M  V30 2924 O 267.696 -2.73748 3.08441 0
M  V30 2925 H 267.037 -0.228855 0.623315 0
M  V30 2926 H 269.567 -0.085658 2.04421 0
M  V30 2927 H 269.577 -2.01621 3.54701 0
M  V30 2928 H 268.252 -0.975989 4.04286 0
M  V30 2929 H 266.829 -2.38192 2.86913 0
M  V30 2930 N 269.014 -1.53014 -0.377408 0
M  V30 2931 C 269.964 -1.74996 -1.46152 0
M  V30 2932 C 270.948 -0.604236 -1.49123 0
M  V30 2933 O 272.14 -0.862489 -1.54564 0
M  V30 2934 C 269.269 -1.93267 -2.8373 0
M  V30 2935 C 268.355 -3.13807 -2.85283 0
M  V30 2936 N 268.746 -4.35941 -2.56493 0
M  V30 2937 C 267.044 -3.14288 -3.16448 0
M  V30 2938 C 267.745 -5.17615 -2.65424 0
M  V30 2939 N 266.721 -4.53559 -2.99641 0
M  V30 2940 H 270.523 -2.67044 -1.22738 0
M  V30 2941 H 268.037 -1.51479 -0.585479 0
M  V30 2942 H 270.034 -2.0714 -3.61799 0
M  V30 2943 H 268.694 -1.0244 -3.08117 0
M  V30 2944 H 269.705 -4.63876 -2.30302 0
M  V30 2945 H 266.382 -2.33312 -3.46225 0
M  V30 2946 H 267.772 -6.25006 -2.46612 0
M  V30 2947 N 270.492 0.636531 -1.44174 0
M  V30 2948 C 271.741 1.39213 -1.45954 0
M  V30 2949 C 272.054 1.95374 -0.0939119 0
M  V30 2950 O 273.26 2.71498 0.0107767 0
M  V30 2951 C 271.716 2.52025 -2.56927 0
M  V30 2952 C 271.324 2.024 -3.99673 0
M  V30 2953 C 273.068 3.29269 -2.67922 0
M  V30 2954 C 270.975 3.12521 -5.0208 0
M  V30 2955 H 269.905 0.523132 -0.542999 0
M  V30 2956 H 272.556 0.685349 -1.70221 0
M  V30 2957 H 270.938 3.25253 -2.25891 0
M  V30 2958 H 272.112 1.36073 -4.40251 0
M  V30 2959 H 270.427 1.37987 -3.92872 0
M  V30 2960 H 273.024 4.11352 -3.41605 0
M  V30 2961 H 273.367 3.78397 -1.73555 0
M  V30 2962 H 273.9 2.63129 -2.98342 0
M  V30 2963 H 270.639 2.68343 -5.98057 0
M  V30 2964 H 270.159 3.77507 -4.66099 0
M  V30 2965 H 271.838 3.77385 -5.25538 0
M  V30 2966 N 271.97 1.30982 0.876444 0
M  V30 2967 C 273.2 1.23063 1.65949 0
M  V30 2968 C 273.608 -0.207537 1.88058 0
M  V30 2969 O 272.951 -1.14781 1.43426 0
M  V30 2970 C 273.013 1.89768 3.05333 0
M  V30 2971 C 272.677 3.39106 3.0636 0
M  V30 2972 C 273.674 4.3496 2.84791 0
M  V30 2973 C 271.359 3.80693 3.27686 0
M  V30 2974 C 273.353 5.70375 2.84519 0
M  V30 2975 C 271.04 5.16223 3.27043 0
M  V30 2976 C 272.038 6.10875 3.05485 0
M  V30 2977 O 271.726 7.43928 3.04674 0
M  V30 2978 H 271.458 0.426685 0.524324 0
M  V30 2979 H 274.012 1.7329 1.10271 0
M  V30 2980 H 272.242 1.34082 3.6271 0
M  V30 2981 H 273.931 1.75853 3.65829 0
M  V30 2982 H 274.697 4.0416 2.68103 0
M  V30 2983 H 270.576 3.07457 3.43499 0
M  V30 2984 H 274.12 6.44228 2.67611 0
M  V30 2985 H 270.017 5.4666 3.43269 0
M  V30 2986 H 270.785 7.53022 3.2078 0
M  V30 2987 N 273.449 -1.08991 1.13837 0
M  V30 2988 C 274.698 -1.80631 0.897509 0
M  V30 2989 C 275.011 -1.86872 -0.57777 0
M  V30 2990 O 276.217 -2.54866 -0.935701 0
M  V30 2991 C 274.673 -3.24517 1.55618 0
M  V30 2992 C 274.281 -3.26529 3.0673 0
M  V30 2993 C 276.025 -4.00882 1.3962 0
M  V30 2994 C 273.932 -4.64965 3.65461 0
M  V30 2995 H 272.862 -0.67691 0.332129 0
M  V30 2996 H 275.513 -1.2246 1.3666 0
M  V30 2997 H 273.895 -3.82778 1.01476 0
M  V30 2998 H 275.069 -2.78008 3.67489 0
M  V30 2999 H 273.384 -2.63656 3.22296 0
M  V30 3000 H 275.981 -5.03167 1.80906 0
M  V30 3001 H 276.324 -4.14896 0.341578 0
M  V30 3002 H 276.857 -3.49075 1.90766 0
M  V30 3003 H 273.596 -4.56153 4.70749 0
M  V30 3004 H 273.116 -5.13792 3.09481 0
M  V30 3005 H 274.795 -5.3394 3.654 0
M  V30 3006 N 274.927 -0.932562 -1.27047 0
M  V30 3007 C 275.877 -0.406392 -2.24349 0
M  V30 3008 C 276.861 0.492066 -1.53191 0
M  V30 3009 O 278.053 0.328717 -1.73921 0
M  V30 3010 C 275.182 0.335214 -3.41659 0
M  V30 3011 C 274.268 -0.58004 -4.20115 0
M  V30 3012 N 274.659 -1.70203 -4.76303 0
M  V30 3013 C 272.957 -0.383974 -4.44344 0
M  V30 3014 C 273.658 -2.27167 -5.35509 0
M  V30 3015 N 272.634 -1.56068 -5.20715 0
M  V30 3016 H 276.436 -1.26299 -2.65378 0
M  V30 3017 H 273.95 -0.787408 -1.42034 0
M  V30 3018 H 275.947 0.729142 -4.10474 0
M  V30 3019 H 274.607 1.18868 -3.0216 0
M  V30 3020 H 275.618 -2.08433 -4.74106 0
M  V30 3021 H 272.295 0.428436 -4.15296 0
M  V30 3022 H 273.685 -3.21654 -5.89905 0
M  V30 3023 N 276.405 1.4127 -0.698611 0
M  V30 3024 C 277.352 2.30773 -0.0352094 0
M  V30 3025 C 278.322 1.47273 0.768111 0
M  V30 3026 O 279.507 1.76053 0.735524 0
M  V30 3027 C 276.647 3.33346 0.893 0
M  V30 3028 C 275.76 4.31924 0.0809695 0
M  V30 3029 C 274.895 5.21566 1.0071 0
M  V30 3030 C 273.934 6.11811 0.188155 0
M  V30 3031 N 273.071 6.93926 1.06825 0
M  V30 3032 H 277.911 2.86943 -0.804207 0
M  V30 3033 H 275.448 1.4132 -0.408294 0
M  V30 3034 H 277.406 3.91368 1.44523 0
M  V30 3035 H 276.036 2.78719 1.62836 0
M  V30 3036 H 275.088 3.75825 -0.588224 0
M  V30 3037 H 276.4 4.95716 -0.553801 0
M  V30 3038 H 275.554 5.84437 1.62845 0
M  V30 3039 H 274.293 4.58008 1.67572 0
M  V30 3040 H 273.298 5.47986 -0.446254 0
M  V30 3041 H 274.523 6.77425 -0.476716 0
M  V30 3042 H 272.469 6.32973 1.72283 0
M  V30 3043 H 272.386 7.54416 0.489123 0
M  V30 3044 H 273.654 7.61262 1.67632 0
M  V30 3045 N 277.883 0.443576 1.51229 0
M  V30 3046 C 279.16 -0.181038 1.9476 0
M  V30 3047 C 279.54 -1.59523 1.38259 0
M  V30 3048 O 278.888 -2.2122 0.572198 0
M  V30 3049 C 279.098 -0.152422 3.48667 0
M  V30 3050 C 280.446 -0.354923 4.23114 0
M  V30 3051 O 281.47 -0.230257 3.55455 0
M  V30 3052 O 280.329 -0.603674 5.43156 0
M  V30 3053 H 277.423 -0.1266 0.817252 0
M  V30 3054 H 279.969 0.502004 1.62105 0
M  V30 3055 H 278.741 0.836022 3.82265 0
M  V30 3056 H 278.364 -0.878107 3.87782 0
M  V30 3057 N 279.361 -1.56624 0.175154 0
M  V30 3058 C 280.586 -2.01813 -0.478137 0
M  V30 3059 C 281.011 -1.05457 -1.55757 0
M  V30 3060 O 280.369 -0.0347439 -1.81267 0
M  V30 3061 C 280.417 -3.45581 -1.02987 0
M  V30 3062 O 279.521 -3.52305 -2.14371 0
M  V30 3063 H 278.862 -0.65413 -0.114059 0
M  V30 3064 H 281.392 -2.02673 0.280173 0
M  V30 3065 H 281.402 -3.84965 -1.35151 0
M  V30 3066 H 280.077 -4.1521 -0.239556 0
M  V30 3067 H 278.654 -3.24783 -1.83222 0
M  V30 3068 N 280.839 0.0985539 -1.57292 0
M  V30 3069 C 282.088 0.801358 -1.85098 0
M  V30 3070 C 282.401 1.80066 -0.763902 0
M  V30 3071 O 283.607 2.55112 -0.928981 0
M  V30 3072 C 282.063 1.47599 -3.28242 0
M  V30 3073 C 281.671 0.516624 -4.45011 0
M  V30 3074 C 283.415 2.16272 -3.65276 0
M  V30 3075 C 281.322 1.19564 -5.79188 0
M  V30 3076 H 280.252 0.303022 -0.69043 0
M  V30 3077 H 282.903 0.0542623 -1.8342 0
M  V30 3078 H 281.285 2.27042 -3.2445 0
M  V30 3079 H 282.459 -0.246065 -4.60143 0
M  V30 3080 H 280.774 -0.064227 -4.1635 0
M  V30 3081 H 283.371 2.67802 -4.62803 0
M  V30 3082 H 283.714 2.95009 -2.93727 0
M  V30 3083 H 284.247 1.43693 -3.70941 0
M  V30 3084 H 280.986 0.449157 -6.53959 0
M  V30 3085 H 280.506 1.92984 -5.67906 0
M  V30 3086 H 282.185 1.7231 -6.23633 0
M  V30 3087 N 282.317 1.53212 0.369288 0
M  V30 3088 C 283.247 1.82365 1.45826 0
M  V30 3089 C 284.228 0.676907 1.56051 0
M  V30 3090 O 285.413 0.926401 1.70679 0
M  V30 3091 C 282.543 2.01023 2.83208 0
M  V30 3092 C 281.497 3.1678 2.8781 0
M  V30 3093 C 280.823 3.20724 4.27832 0
M  V30 3094 C 282.123 4.55447 2.55667 0
M  V30 3095 H 283.817 2.73559 1.21678 0
M  V30 3096 H 281.363 1.3163 0.583911 0
M  V30 3097 H 283.316 2.20001 3.59413 0
M  V30 3098 H 282.04 1.06536 3.08736 0
M  V30 3099 H 280.699 2.97616 2.14056 0
M  V30 3100 H 280.347 2.23882 4.50429 0
M  V30 3101 H 280.047 3.98496 4.31827 0
M  V30 3102 H 281.571 3.41881 5.05915 0
M  V30 3103 H 282.985 4.74611 3.21586 0
M  V30 3104 H 281.382 5.35432 2.70984 0
M  V30 3105 H 282.452 4.60812 1.5093 0
M  V30 3106 N 283.795 -0.628877 1.44509 0
M  V30 3107 C 285.041 -1.39045 1.47629 0
M  V30 3108 C 285.374 -1.93892 0.109343 0
M  V30 3109 O 284.649 -1.7379 -0.87334 0
M  V30 3110 C 284.932 -2.55408 2.53848 0
M  V30 3111 C 284.785 -2.05896 3.99909 0
M  V30 3112 C 286.104 -3.5759 2.56549 0
M  V30 3113 H 283.223 -0.504232 0.537512 0
M  V30 3114 H 285.865 -0.710854 1.76201 0
M  V30 3115 H 284.015 -3.13384 2.29615 0
M  V30 3116 H 285.687 -1.52734 4.35282 0
M  V30 3117 H 283.93 -1.37061 4.11578 0
M  V30 3118 H 284.601 -2.89681 4.69882 0
M  V30 3119 H 287.077 -3.09419 2.78207 0
M  V30 3120 H 285.953 -4.36527 3.32769 0
M  V30 3121 H 286.214 -4.11808 1.60832 0
M  V30 3122 N 285.273 -1.31445 -0.869486 0
M  V30 3123 C 286.22 -1.19135 -1.97675 0
M  V30 3124 C 287.19 -0.0770266 -1.65921 0
M  V30 3125 O 288.375 -0.249972 -1.89155 0
M  V30 3126 C 285.515 -0.905149 -3.33018 0
M  V30 3127 C 284.628 -2.10285 -3.77365 0
M  V30 3128 C 283.763 -1.75339 -5.01427 0
M  V30 3129 C 282.802 -2.91515 -5.38224 0
M  V30 3130 N 281.939 -2.56762 -6.53466 0
M  V30 3131 H 286.779 -2.13853 -2.07535 0
M  V30 3132 H 284.316 -1.06379 -1.01597 0
M  V30 3133 H 286.274 -0.719765 -4.10944 0
M  V30 3134 H 284.904 0.00519624 -3.228 0
M  V30 3135 H 283.956 -2.39899 -2.95216 0
M  V30 3136 H 285.268 -2.97237 -4.00564 0
M  V30 3137 H 284.422 -1.53266 -5.87022 0
M  V30 3138 H 283.161 -0.855801 -4.80133 0
M  V30 3139 H 282.166 -3.14237 -4.51149 0
M  V30 3140 H 283.391 -3.81985 -5.61484 0
M  V30 3141 H 281.337 -1.69526 -6.33717 0
M  V30 3142 H 281.254 -3.37243 -6.76612 0
M  V30 3143 H 282.522 -2.38083 -7.42251 0
M  V30 3144 N 286.751 1.08385 -1.14413 0
M  V30 3145 C 288.028 1.77429 -0.823297 0
M  V30 3146 C 288.408 1.9974 0.683163 0
M  V30 3147 O 287.756 1.60739 1.62405 0
M  V30 3148 C 287.966 3.09004 -1.62227 0
M  V30 3149 C 289.314 3.83532 -1.82177 0
M  V30 3150 O 290.338 3.18786 -1.58915 0
M  V30 3151 O 289.197 4.99792 -2.21067 0
M  V30 3152 H 286.291 0.769999 -0.301712 0
M  V30 3153 H 288.837 1.14846 -1.24934 0
M  V30 3154 H 287.609 2.88316 -2.64555 0
M  V30 3155 H 287.232 3.79316 -1.19187 0
M  V30 3156 N 288.23 0.939286 1.26551 0
M  V30 3157 C 289.178 0.43815 2.28436 0
M  V30 3158 C 290.172 -0.483587 1.62351 0
M  V30 3159 O 291.378 -0.362009 1.76322 0
M  V30 3160 H 287.753 0.123149 0.741848 0
M  V30 3161 H 289.724 1.31002 2.68106 0
M  V30 3162 C 288.473 -0.283052 3.46546 0
M  V30 3163 H 287.796 0.417043 3.97619 0
M  V30 3164 H 289.236 -0.597948 4.19763 0
M  V30 3165 C 287.695 -1.50018 3.01656 0
M  V30 3166 O 288.225 -2.59855 3.0633 0
M  V30 3167 N 286.431 -1.35608 2.57019 0
M  V30 3168 H 285.978 -0.46244 2.53415 0
M  V30 3169 H 285.936 -2.17165 2.27347 0
M  V30 3170 N 289.708 -1.40897 0.706093 0
M  V30 3171 C 290.985 -1.94868 0.169099 0
M  V30 3172 C 291.365 -1.64485 -1.32318 0
M  V30 3173 O 290.713 -0.95744 -2.07474 0
M  V30 3174 C 290.923 -3.45798 0.471654 0
M  V30 3175 C 292.271 -4.22663 0.405127 0
M  V30 3176 O 293.295 -3.53865 0.407168 0
M  V30 3177 O 292.154 -5.45216 0.374383 0
M  V30 3178 H 289.248 -0.82673 0.0211352 0
M  V30 3179 H 291.794 -1.50558 0.782976 0
M  V30 3180 H 290.566 -3.61235 1.50416 0
M  V30 3181 H 290.189 -3.97225 -0.172666 0
M  V30 3182 N 291.186 -0.45159 -1.50991 0
M  V30 3183 C 292.116 0.342898 -2.30969 0
M  V30 3184 C 293.097 1.00815 -1.37005 0
M  V30 3185 O 294.282 1.00907 -1.65926 0
M  V30 3186 C 291.412 1.43637 -3.16205 0
M  V30 3187 C 290.366 0.893818 -4.18563 0
M  V30 3188 C 289.692 2.08411 -4.92411 0
M  V30 3189 C 290.992 -0.0815568 -5.22236 0
M  V30 3190 H 292.686 -0.324556 -2.97636 0
M  V30 3191 H 290.232 -0.157531 -1.43136 0
M  V30 3192 H 292.185 1.9995 -3.70942 0
M  V30 3193 H 290.909 2.13232 -2.47386 0
M  V30 3194 H 289.568 0.352798 -3.64898 0
M  V30 3195 H 289.216 2.76658 -4.20082 0
M  V30 3196 H 288.916 1.72741 -5.61636 0
M  V30 3197 H 290.44 2.65251 -5.49976 0
M  V30 3198 H 291.854 0.391742 -5.7196 0
M  V30 3199 H 290.251 -0.351551 -5.99069 0
M  V30 3200 H 291.321 -1.01374 -4.74185 0
M  V30 3201 N 292.664 1.56529 -0.183458 0
M  V30 3202 C 293.627 2.17324 0.728223 0
M  V30 3203 C 294.627 1.12453 1.14939 0
M  V30 3204 O 295.817 1.37902 1.06437 0
M  V30 3205 C 292.949 2.76591 1.99274 0
M  V30 3206 H 294.142 2.99241 0.198772 0
M  V30 3207 H 291.695 1.5616 0.0661391 0
M  V30 3208 H 292.43 1.98441 2.56499 0
M  V30 3209 H 292.215 3.5335 1.69959 0
M  V30 3210 H 293.705 3.23311 2.6431 0
M  V30 3211 N 294.142 -0.090211 1.57342 0
M  V30 3212 C 295.072 -1.10976 2.05443 0
M  V30 3213 C 296.053 -1.41482 0.944284 0
M  V30 3214 O 297.238 -1.51428 1.21586 0
M  V30 3215 C 294.368 -2.42831 2.48295 0
M  V30 3216 C 293.322 -2.26721 3.63018 0
M  V30 3217 C 292.648 -3.63796 3.91863 0
M  V30 3218 C 293.948 -1.7037 4.93732 0
M  V30 3219 H 295.642 -0.709564 2.9087 0
M  V30 3220 H 293.188 -0.339874 1.39932 0
M  V30 3221 H 295.141 -3.14431 2.80555 0
M  V30 3222 H 293.865 -2.84795 1.59873 0
M  V30 3223 H 292.524 -1.57565 3.31012 0
M  V30 3224 H 292.172 -4.03297 3.00601 0
M  V30 3225 H 291.872 -3.53861 4.69101 0
M  V30 3226 H 293.396 -4.36855 4.26603 0
M  V30 3227 H 294.81 -2.31816 5.24342 0
M  V30 3228 H 293.207 -1.71181 5.75167 0
M  V30 3229 H 294.277 -0.663542 4.80339 0
M  V30 3230 N 295.62 -1.53406 -0.361157 0
M  V30 3231 C 297.031 -1.61442 -0.937728 0
M  V30 3232 C 297.382 -0.48461 -1.90121 0
M  V30 3233 O 296.507 0.388312 -2.12888 0
M  V30 3234 C 297.102 -2.92624 -1.70753 0
M  V30 3235 C 295.661 -3.02981 -2.23337 0
M  V30 3236 C 294.808 -2.5677 -1.04712 0
M  V30 3237 H 297.759 -1.58083 -0.139816 0
M  V30 3238 H 297.78 -2.80675 -2.56908 0
M  V30 3239 H 297.292 -3.74834 -1.00604 0
M  V30 3240 H 295.393 -2.25368 -2.96715 0
M  V30 3241 H 295.506 -4.0814 -2.50916 0
M  V30 3242 H 293.87 -2.11752 -1.41539 0
M  V30 3243 H 294.653 -3.41402 -0.360539 0
M  V30 3244 N 297.098 0.621204 -1.44841 0
M  V30 3245 C 298.028 1.74366 -1.55303 0
M  V30 3246 C 299.009 1.65199 -0.405385 0
M  V30 3247 O 300.194 1.83807 -0.626787 0
M  V30 3248 C 297.324 3.12931 -1.50637 0
M  V30 3249 C 296.278 3.36896 -2.63979 0
M  V30 3250 C 295.604 4.75594 -2.44366 0
M  V30 3251 C 296.904 3.28483 -4.06074 0
M  V30 3252 H 298.598 1.65867 -2.49256 0
M  V30 3253 H 296.144 0.796558 -1.19962 0
M  V30 3254 H 298.097 3.9124 -1.56555 0
M  V30 3255 H 296.821 3.22237 -0.532057 0
M  V30 3256 H 295.48 2.60972 -2.57467 0
M  V30 3257 H 295.128 4.81616 -1.45105 0
M  V30 3258 H 294.828 4.92586 -3.20364 0
M  V30 3259 H 296.352 5.5612 -2.52117 0
M  V30 3260 H 297.766 3.96684 -4.13902 0
M  V30 3261 H 296.163 3.57008 -4.82354 0
M  V30 3262 H 297.233 2.26133 -4.28943 0
M  V30 3263 N 298.576 1.31904 0.862503 0
M  V30 3264 C 299.824 1.21776 1.61292 0
M  V30 3265 C 300.145 -0.222413 1.93727 0
M  V30 3266 O 299.415 -1.1451 1.58947 0
M  V30 3267 H 297.995 0.447717 0.597962 0
M  V30 3268 H 300.657 1.65326 1.03215 0
M  V30 3269 H 299.753 1.7948 2.5533 0
M  V30 3270 N 300.054 -1.07777 1.14986 0
M  V30 3271 C 301.301 -1.8029 0.922056 0
M  V30 3272 C 301.629 -1.86531 -0.55105 0
M  V30 3273 O 300.884 -1.34189 -1.42449 0
M  V30 3274 C 301.183 -3.25495 1.47608 0
M  V30 3275 C 300.849 -3.39361 2.96893 0
M  V30 3276 C 299.511 -3.42852 3.37647 0
M  V30 3277 C 301.863 -3.42512 3.92854 0
M  V30 3278 C 299.191 -3.47094 4.73015 0
M  V30 3279 C 301.543 -3.4829 5.28088 0
M  V30 3280 C 300.207 -3.50058 5.68345 0
M  V30 3281 H 299.477 -0.659727 0.337404 0
M  V30 3282 H 302.124 -1.26854 1.43459 0
M  V30 3283 H 300.429 -3.81683 0.88463 0
M  V30 3284 H 302.126 -3.80168 1.27568 0
M  V30 3285 H 298.716 -3.37339 2.64387 0
M  V30 3286 H 302.9 -3.3904 3.62444 0
M  V30 3287 H 298.156 -3.46758 5.03556 0
M  V30 3288 H 302.33 -3.49675 6.02246 0
M  V30 3289 H 299.957 -3.53097 6.73221 0
M  V30 3290 N 301.532 -0.945985 -1.26051 0
M  V30 3291 C 302.495 -0.463897 -2.24456 0
M  V30 3292 C 303.495 0.427655 -1.55009 0
M  V30 3293 O 304.685 0.226157 -1.72726 0
M  V30 3294 C 301.817 0.330812 -3.39291 0
M  V30 3295 H 303.01 -1.33357 -2.68619 0
M  V30 3296 H 300.563 -0.728416 -1.38289 0
M  V30 3297 H 301.298 1.21852 -3.00537 0
M  V30 3298 H 301.083 -0.308679 -3.90883 0
M  V30 3299 H 302.573 0.657865 -4.12386 0
M  V30 3300 N 303.011 1.40521 -0.713556 0
M  V30 3301 C 304.422 1.83853 -0.324807 0
M  V30 3302 C 304.773 1.59667 1.14021 0
M  V30 3303 O 303.898 1.07649 1.87725 0
M  V30 3304 C 304.493 3.33751 -0.582746 0
M  V30 3305 C 303.052 3.75584 -0.247727 0
M  V30 3306 C 302.199 2.63753 -0.856121 0
M  V30 3307 H 305.15 1.29817 -0.91286 0
M  V30 3308 H 305.171 3.80194 0.152682 0
M  V30 3309 H 304.683 3.51322 -1.64908 0
M  V30 3310 H 302.784 3.63608 0.813624 0
M  V30 3311 H 302.897 4.7373 -0.715307 0
M  V30 3312 H 301.261 2.53108 -0.28432 0
M  V30 3313 H 302.044 2.84137 -1.92668 0
M  V30 3314 N 304.489 0.459591 1.5075 0
M  V30 3315 C 305.737 -0.0991532 2.01857 0
M  V30 3316 C 306.058 -1.41247 1.34441 0
M  V30 3317 O 305.328 -1.89775 0.486022 0
M  V30 3318 H 303.908 -0.039633 0.745948 0
M  V30 3319 H 306.57 0.607387 1.85194 0
M  V30 3320 H 305.666 -0.258998 3.11023 0
M  V30 3321 N 305.967 -1.56429 0.191757 0
M  V30 3322 C 307.215 -1.97095 -0.447006 0
M  V30 3323 C 307.536 -1.07967 -1.62383 0
M  V30 3324 O 306.806 -0.150248 -1.95323 0
M  V30 3325 H 305.386 -0.727832 -0.168135 0
M  V30 3326 H 308.048 -1.92911 0.27771 0
M  V30 3327 H 307.144 -3.01848 -0.793371 0
M  V30 3328 N 307.445 0.0818655 -1.57387 0
M  V30 3329 C 308.722 0.815343 -1.77796 0
M  V30 3330 C 309.102 1.96289 -0.77679 0
M  V30 3331 O 308.45 2.27691 0.192106 0
M  V30 3332 C 308.66 1.29765 -3.23978 0
M  V30 3333 C 310.008 1.7351 -3.8753 0
M  V30 3334 O 311.032 1.39356 -3.27808 0
M  V30 3335 O 309.891 2.36708 -4.92576 0
M  V30 3336 H 306.985 0.389914 -0.729312 0
M  V30 3337 H 309.531 0.0627213 -1.69584 0
M  V30 3338 H 308.303 0.47608 -3.88393 0
M  V30 3339 H 307.926 2.11189 -3.36875 0
M  V30 3340 N 308.923 1.53595 0.353017 0
M  V30 3341 C 310.339 1.43648 0.695516 0
M  V30 3342 C 310.539 0.585617 1.92802 0
M  V30 3343 O 309.595 0.0729223 2.52395 0
M  V30 3344 C 310.908 2.8701 0.896991 0
M  V30 3345 C 312.456 2.96723 0.996209 0
M  V30 3346 C 312.931 4.41173 1.23007 0
M  V30 3347 N 314.422 4.44657 1.29749 0
M  V30 3348 C 315.157 5.53547 1.49577 0
M  V30 3349 N 314.653 6.72461 1.66639 0
M  V30 3350 N 316.446 5.41145 1.52048 0
M  V30 3351 H 308.597 2.07415 -0.457481 0
M  V30 3352 H 310.86 0.9372 -0.142687 0
M  V30 3353 H 310.566 3.51644 0.0629938 0
M  V30 3354 H 310.44 3.31401 1.80148 0
M  V30 3355 H 312.827 2.32235 1.82074 0
M  V30 3356 H 312.908 2.55707 0.0688331 0
M  V30 3357 H 312.552 5.06238 0.410505 0
M  V30 3358 H 312.482 4.79772 2.17086 0
M  V30 3359 H 314.973 3.58963 1.18126 0
M  V30 3360 H 315.286 7.51214 1.81378 0
M  V30 3361 H 313.631 6.75423 1.63794 0
M  V30 3362 H 316.822 4.47205 1.38294 0
M  V30 3363 H 316.995 6.26068 1.67159 0
M  V30 3364 N 310.401 -0.613514 1.45168 0
M  V30 3365 C 311.348 -1.72456 1.53387 0
M  V30 3366 C 312.318 -1.6169 0.380191 0
M  V30 3367 O 313.503 -1.81356 0.592836 0
M  V30 3368 C 310.643 -3.10753 1.50088 0
M  V30 3369 C 309.756 -3.32368 2.75963 0
M  V30 3370 C 308.891 -4.60737 2.64376 0
M  V30 3371 C 307.93 -4.7559 3.85332 0
M  V30 3372 N 307.067 -5.95253 3.72315 0
M  V30 3373 H 311.907 -1.64768 2.48305 0
M  V30 3374 H 309.444 -0.803503 1.23216 0
M  V30 3375 H 311.402 -3.90758 1.46164 0
M  V30 3376 H 310.032 -3.17413 0.587243 0
M  V30 3377 H 309.084 -2.4618 2.89999 0
M  V30 3378 H 310.396 -3.39218 3.65695 0
M  V30 3379 H 309.55 -5.48928 2.58385 0
M  V30 3380 H 308.289 -4.56275 1.72233 0
M  V30 3381 H 307.294 -3.85824 3.91688 0
M  V30 3382 H 308.519 -4.81854 4.78533 0
M  V30 3383 H 306.465 -5.91847 2.82937 0
M  V30 3384 H 306.382 -6.03236 4.55677 0
M  V30 3385 H 307.65 -6.85958 3.70246 0
M  V30 3386 N 311.879 -1.3236 -0.855495 0
M  V30 3387 C 312.811 -1.17052 -1.97057 0
M  V30 3388 C 313.824 -0.10574 -1.62456 0
M  V30 3389 O 315.013 -0.354619 -1.74942 0
M  V30 3390 C 312.113 -0.769305 -3.30053 0
M  V30 3391 C 311.286 -1.9222 -3.929 0
M  V30 3392 C 310.345 -1.50466 -5.04228 0
M  V30 3393 O 309.371 -2.21655 -5.24269 0
M  V30 3394 N 310.573 -0.400209 -5.79119 0
M  V30 3395 H 313.338 -2.13103 -2.1073 0
M  V30 3396 H 310.899 -1.24885 -1.0303 0
M  V30 3397 H 312.891 -0.472407 -4.01933 0
M  V30 3398 H 311.461 0.100025 -3.1244 0
M  V30 3399 H 310.681 -2.38563 -3.13817 0
M  V30 3400 H 311.969 -2.69403 -4.31624 0
M  V30 3401 H 311.367 0.192319 -5.65373 0
M  V30 3402 H 309.924 -0.162912 -6.51596 0
M  V30 3403 N 313.357 1.07166 -1.15556 0
M  V30 3404 C 314.289 2.14341 -0.811815 0
M  V30 3405 C 315.302 1.61835 0.177015 0
M  V30 3406 O 316.491 1.78439 -0.0464996 0
M  V30 3407 C 313.591 3.38387 -0.186481 0
M  V30 3408 C 312.764 4.20238 -1.21321 0
M  V30 3409 C 311.823 5.2266 -0.609302 0
M  V30 3410 O 310.849 5.54719 -1.27576 0
M  V30 3411 N 312.051 5.77306 0.608099 0
M  V30 3412 H 314.816 2.44431 -1.73417 0
M  V30 3413 H 312.377 1.23089 -1.0517 0
M  V30 3414 H 314.369 4.04044 0.230339 0
M  V30 3415 H 312.939 3.05994 0.639249 0
M  V30 3416 H 312.159 3.50369 -1.80652 0
M  V30 3417 H 313.447 4.71736 -1.90638 0
M  V30 3418 H 312.845 5.53513 1.1679 0
M  V30 3419 H 311.402 6.44583 0.96725 0
M  V30 3420 N 314.835 0.952656 1.25548 0
M  V30 3421 C 316.063 0.623496 1.97282 0
M  V30 3422 C 316.478 -0.803987 1.70826 0
M  V30 3423 O 315.835 -1.53755 0.983147 0
M  V30 3424 C 315.886 0.870209 3.5087 0
M  V30 3425 O 315.607 2.24156 3.76412 0
M  V30 3426 C 317.108 0.553164 4.39835 0
M  V30 3427 H 314.328 0.233931 0.628902 0
M  V30 3428 H 316.872 1.27649 1.59768 0
M  V30 3429 H 315.027 0.263652 3.86502 0
M  V30 3430 H 315.441 2.31021 4.70882 0
M  V30 3431 H 316.915 0.776342 5.46513 0
M  V30 3432 H 317.392 -0.512215 4.36203 0
M  V30 3433 H 317.998 1.13896 4.09766 0
M  V30 3434 N 316.313 -1.40141 0.720998 0
M  V30 3435 C 317.729 -1.54632 0.395113 0
M  V30 3436 C 317.929 -1.69115 -1.09555 0
M  V30 3437 O 316.985 -1.68377 -1.88163 0
M  V30 3438 C 318.298 -2.77177 1.1659 0
M  V30 3439 C 319.846 -2.91 1.15274 0
M  V30 3440 C 320.321 -4.16465 1.90579 0
M  V30 3441 N 321.812 -4.23476 1.87675 0
M  V30 3442 C 322.547 -5.19475 2.42762 0
M  V30 3443 N 322.043 -6.21348 3.06428 0
M  V30 3444 N 323.836 -5.11592 2.32874 0
M  V30 3445 H 315.987 -1.28986 1.68749 0
M  V30 3446 H 318.25 -0.62412 0.713567 0
M  V30 3447 H 317.956 -2.72771 2.22011 0
M  V30 3448 H 317.83 -3.69442 0.76108 0
M  V30 3449 H 320.217 -2.94907 0.106702 0
M  V30 3450 H 320.298 -1.99838 1.59682 0
M  V30 3451 H 319.942 -4.1332 2.95176 0
M  V30 3452 H 319.872 -5.06646 1.43587 0
M  V30 3453 H 322.363 -3.50497 1.41281 0
M  V30 3454 H 322.676 -6.91034 3.45965 0
M  V30 3455 H 321.021 -6.21777 3.10514 0
M  V30 3456 H 324.212 -4.30936 1.82789 0
M  V30 3457 H 324.385 -5.86233 2.76106 0
M  V30 3458 N 317.792 -0.46758 -1.50504 0
M  V30 3459 C 319.038 0.0887532 -2.02606 0
M  V30 3460 C 319.371 1.39686 -1.34913 0
M  V30 3461 O 318.646 1.88644 -0.473694 0
M  V30 3462 C 318.929 0.276206 -3.59039 0
M  V30 3463 C 318.782 -1.05267 -4.37309 0
M  V30 3464 C 320.101 1.03235 -4.27821 0
M  V30 3465 H 317.22 0.0307814 -0.736357 0
M  V30 3466 H 319.862 -0.612485 -1.79857 0
M  V30 3467 H 318.012 0.8735 -3.78553 0
M  V30 3468 H 319.684 -1.68628 -4.29374 0
M  V30 3469 H 317.927 -1.65015 -4.01189 0
M  V30 3470 H 318.598 -0.875197 -5.45018 0
M  V30 3471 H 321.074 0.526111 -4.12761 0
M  V30 3472 H 319.95 1.1323 -5.37094 0
M  V30 3473 H 320.211 2.06806 -3.90748 0
M  V30 3474 N 319.27 1.56325 -0.20005 0
M  V30 3475 C 320.516 1.98012 0.438059 0
M  V30 3476 C 320.849 1.08702 1.60927 0
M  V30 3477 O 320.124 0.140064 1.93995 0
M  V30 3478 C 320.407 3.48841 0.893419 0
M  V30 3479 C 320.26 4.48928 -0.279947 0
M  V30 3480 C 321.579 4.03498 1.75719 0
M  V30 3481 H 318.698 0.719918 0.157757 0
M  V30 3482 H 321.34 1.87743 -0.291968 0
M  V30 3483 H 319.49 3.57723 1.51547 0
M  V30 3484 H 321.162 4.52079 -0.91772 0
M  V30 3485 H 319.405 4.23694 -0.930919 0
M  V30 3486 H 320.076 5.5194 0.0812601 0
M  V30 3487 H 322.552 3.97427 1.23253 0
M  V30 3488 H 321.428 5.09393 2.04476 0
M  V30 3489 H 321.689 3.4906 2.71311 0
M  V30 3490 N 320.748 -0.0735177 1.57428 0
M  V30 3491 C 322.025 -0.805903 1.78226 0
M  V30 3492 C 322.405 -1.95874 0.787189 0
M  V30 3493 O 321.753 -2.2779 -0.180029 0
M  V30 3494 C 321.963 -1.28045 3.24662 0
M  V30 3495 C 323.311 -1.71453 3.88444 0
M  V30 3496 O 324.335 -1.37616 3.28543 0
M  V30 3497 O 323.194 -2.34093 4.93825 0
M  V30 3498 H 320.288 -0.386041 0.73137 0
M  V30 3499 H 322.834 -0.0537269 1.69615 0
M  V30 3500 H 321.606 -0.455476 3.8864 0
M  V30 3501 H 321.229 -2.094 3.37991 0
M  V30 3502 N 322.226 -1.5378 -0.344866 0
M  V30 3503 C 323.503 -1.61589 -1.10219 0
M  V30 3504 C 323.883 -0.436316 -2.06542 0
M  V30 3505 O 323.231 0.571543 -2.21237 0
M  V30 3506 C 323.441 -2.97602 -1.82301 0
M  V30 3507 C 324.789 -3.5291 -2.36093 0
M  V30 3508 O 325.813 -2.99768 -1.924 0
M  V30 3509 O 324.672 -4.45859 -3.16026 0
M  V30 3510 H 321.766 -0.653522 -0.506792 0
M  V30 3511 H 324.312 -1.66126 -0.346465 0
M  V30 3512 H 323.084 -3.74893 -1.12121 0
M  V30 3513 H 322.707 -2.9665 -2.64735 0
M  V30 3514 N 323.704 0.605807 -1.45491 0
M  V30 3515 C 324.981 1.36522 -1.40075 0
M  V30 3516 C 325.361 2.10976 -0.0722744 0
M  V30 3517 O 324.709 2.08007 0.945808 0
M  V30 3518 C 324.919 2.31056 -2.61561 0
M  V30 3519 C 326.267 2.93608 -3.06724 0
M  V30 3520 O 327.291 2.41376 -2.61946 0
M  V30 3521 O 326.15 3.88421 -3.84437 0
M  V30 3522 H 323.244 0.612248 -0.555951 0
M  V30 3523 H 325.79 0.628747 -1.57623 0
M  V30 3524 H 324.562 1.75311 -3.49831 0
M  V30 3525 H 324.185 3.12081 -2.46356 0
M  V30 3526 N 325.182 1.32811 0.848464 0
M  V30 3527 C 326.428 1.23907 1.60546 0
M  V30 3528 C 326.761 -0.197161 1.93197 0
M  V30 3529 O 326.036 -1.13596 1.5788 0
M  V30 3530 C 326.319 2.10489 2.92175 0
M  V30 3531 C 326.172 3.62522 2.66266 0
M  V30 3532 C 327.491 1.97075 3.93509 0
M  V30 3533 H 324.61 0.451459 0.58254 0
M  V30 3534 H 327.252 1.62818 0.979296 0
M  V30 3535 H 325.402 1.77434 3.45614 0
M  V30 3536 H 327.074 4.05821 2.19334 0
M  V30 3537 H 325.317 3.84879 2.00126 0
M  V30 3538 H 325.988 4.18437 3.6002 0
M  V30 3539 H 328.464 2.26045 3.49346 0
M  V30 3540 H 327.34 2.59923 4.83457 0
M  V30 3541 H 327.601 0.940186 4.31987 0
M  V30 3542 N 326.66 -1.06551 1.16123 0
M  V30 3543 C 327.906 -1.79567 0.94252 0
M  V30 3544 C 328.239 -1.86869 -0.528547 0
M  V30 3545 O 327.514 -1.35838 -1.39206 0
M  V30 3546 C 327.797 -3.24195 1.56747 0
M  V30 3547 C 327.65 -3.24989 3.10969 0
M  V30 3548 C 328.969 -4.21678 1.25998 0
M  V30 3549 H 326.088 -0.651883 0.343828 0
M  V30 3550 H 328.73 -1.2463 1.43413 0
M  V30 3551 H 326.88 -3.71107 1.14942 0
M  V30 3552 H 328.552 -2.86258 3.61737 0
M  V30 3553 H 326.795 -2.63716 3.44436 0
M  V30 3554 H 327.466 -4.27005 3.49815 0
M  V30 3555 H 329.942 -3.83196 1.62174 0
M  V30 3556 H 328.818 -5.21146 1.7233 0
M  V30 3557 H 329.079 -4.4174 0.178367 0
M  V30 3558 N 328.138 -0.959301 -1.25041 0
M  V30 3559 C 329.386 -0.615393 -1.92503 0
M  V30 3560 C 329.707 0.850969 -1.75452 0
M  V30 3561 O 328.977 1.60658 -1.12098 0
M  V30 3562 H 327.557 -0.224613 -0.712431 0
M  V30 3563 H 330.219 -1.21855 -1.5211 0
M  V30 3564 H 329.315 -0.848738 -3.00338 0
M  V30 3565 N 329.616 1.39756 -0.72842 0
M  V30 3566 C 331.032 1.5442 -0.403308 0
M  V30 3567 C 331.232 1.69694 1.08656 0
M  V30 3568 O 330.288 1.69373 1.87267 0
M  V30 3569 C 331.601 2.76555 -1.18058 0
M  V30 3570 C 333.149 2.90384 -1.16815 0
M  V30 3571 C 333.624 4.15449 -1.92785 0
M  V30 3572 N 335.115 4.22475 -1.89918 0
M  V30 3573 C 335.85 5.1818 -2.45514 0
M  V30 3574 N 335.346 6.19714 -3.09719 0
M  V30 3575 N 337.139 5.1035 -2.35584 0
M  V30 3576 H 329.29 1.28089 -1.69431 0
M  V30 3577 H 331.553 0.620327 -0.716867 0
M  V30 3578 H 331.259 2.7159 -2.23455 0
M  V30 3579 H 331.133 3.69033 -0.780662 0
M  V30 3580 H 333.52 2.94846 -0.12234 0
M  V30 3581 H 333.601 1.98988 -1.6074 0
M  V30 3582 H 333.245 4.11749 -2.97364 0
M  V30 3583 H 333.175 5.05877 -1.46272 0
M  V30 3584 H 335.666 3.49743 -1.43138 0
M  V30 3585 H 335.979 6.8919 -3.49625 0
M  V30 3586 H 334.324 6.20121 -3.13807 0
M  V30 3587 H 337.515 4.2996 -1.85072 0
M  V30 3588 H 337.688 5.84761 -2.79211 0
M  V30 3589 N 331.094 0.475555 1.50254 0
M  V30 3590 C 332.041 -0.316293 2.28622 0
M  V30 3591 C 333.011 -0.983227 1.33873 0
M  V30 3592 O 334.196 -0.994805 1.62814 0
M  V30 3593 C 331.336 -1.38975 3.1588 0
M  V30 3594 C 330.449 -0.737146 4.25664 0
M  V30 3595 C 329.584 -1.78887 5.00173 0
M  V30 3596 C 328.623 -1.11676 6.01826 0
M  V30 3597 N 327.76 -2.11154 6.69596 0
M  V30 3598 H 332.6 0.358297 2.95838 0
M  V30 3599 H 330.137 0.188541 1.45887 0
M  V30 3600 H 332.095 -2.02383 3.64825 0
M  V30 3601 H 330.725 -2.03344 2.50701 0
M  V30 3602 H 329.777 0.0096065 3.80399 0
M  V30 3603 H 331.089 -0.206816 4.98371 0
M  V30 3604 H 330.243 -2.49865 5.52859 0
M  V30 3605 H 328.982 -2.35302 4.27182 0
M  V30 3606 H 327.987 -0.392633 5.48396 0
M  V30 3607 H 329.212 -0.55945 6.76792 0
M  V30 3608 H 327.158 -2.66577 5.99394 0
M  V30 3609 H 327.075 -1.63118 7.38193 0
M  V30 3610 H 328.343 -2.81497 7.26897 0
M  V30 3611 N 332.573 -1.56217 0.208337 0
M  V30 3612 C 333.821 -1.97558 -0.426076 0
M  V30 3613 C 334.142 -1.09683 -1.61229 0
M  V30 3614 O 333.412 -0.170956 -1.95153 0
M  V30 3615 H 331.992 -0.729575 -0.160405 0
M  V30 3616 H 334.654 -1.92606 0.298155 0
M  V30 3617 H 333.75 -3.02672 -0.761312 0
M  V30 3618 N 334.051 0.0651679 -1.57465 0
M  V30 3619 C 335.297 0.764193 -1.87851 0
M  V30 3620 C 335.63 1.76889 -0.801495 0
M  V30 3621 O 334.905 1.93594 0.187528 0
M  V30 3622 C 335.188 1.46625 -3.28897 0
M  V30 3623 C 335.041 0.477515 -4.47258 0
M  V30 3624 C 336.36 2.4095 -3.68281 0
M  V30 3625 H 333.479 0.276351 -0.683227 0
M  V30 3626 H 336.121 0.0272868 -1.8998 0
M  V30 3627 H 334.271 2.09438 -3.27212 0
M  V30 3628 H 335.943 -0.145922 -4.61069 0
M  V30 3629 H 334.186 -0.206576 -4.33308 0
M  V30 3630 H 334.857 1.0065 -5.42746 0
M  V30 3631 H 337.333 1.88209 -3.71102 0
M  V30 3632 H 336.209 2.87072 -4.67847 0
M  V30 3633 H 336.47 3.26049 -2.98571 0
M  V30 3634 N 335.529 1.53961 0.336706 0
M  V30 3635 C 336.759 1.75229 1.09446 0
M  V30 3636 C 337.167 0.494602 1.82621 0
M  V30 3637 O 336.51 -0.543764 1.75468 0
M  V30 3638 C 336.572 2.88288 2.1478 0
M  V30 3639 C 336.236 4.27656 1.6112 0
M  V30 3640 C 337.233 5.08981 1.0599 0
M  V30 3641 C 334.918 4.74161 1.6576 0
M  V30 3642 C 336.912 6.34916 0.562129 0
M  V30 3643 C 334.599 6.00067 1.15595 0
M  V30 3644 C 335.597 6.80278 0.609147 0
M  V30 3645 O 335.285 8.03818 0.114999 0
M  V30 3646 H 335.017 0.588881 0.331956 0
M  V30 3647 H 337.571 2.01614 0.392566 0
M  V30 3648 H 335.801 2.57443 2.88548 0
M  V30 3649 H 337.49 2.97461 2.76174 0
M  V30 3650 H 338.256 4.74213 1.01722 0
M  V30 3651 H 334.135 4.11781 2.07261 0
M  V30 3652 H 337.679 6.9747 0.134668 0
M  V30 3653 H 333.576 6.3433 1.19566 0
M  V30 3654 H 334.344 8.18172 0.231651 0
M  V30 3655 N 337.007 -0.598083 1.45811 0
M  V30 3656 C 338.284 -1.35777 1.40797 0
M  V30 3657 C 338.664 -2.10935 0.083462 0
M  V30 3658 O 338.012 -2.08505 -0.934763 0
M  V30 3659 C 338.222 -2.29666 2.62783 0
M  V30 3660 C 339.57 -2.91977 3.08277 0
M  V30 3661 O 340.594 -2.39984 2.63223 0
M  V30 3662 O 339.453 -3.86376 3.86491 0
M  V30 3663 H 336.547 -0.609291 0.55919 0
M  V30 3664 H 339.093 -0.620379 1.57954 0
M  V30 3665 H 337.865 -1.73454 3.50756 0
M  V30 3666 H 337.488 -3.1077 2.48008 0
M  V30 3667 N 338.485 -1.33259 -0.841409 0
M  V30 3668 C 339.415 -1.25926 -1.96634 0
M  V30 3669 C 340.396 -0.140349 -1.6952 0
M  V30 3670 O 341.581 -0.329707 -1.91381 0
M  V30 3671 C 338.711 -0.99512 -3.32738 0
M  V30 3672 C 337.665 -2.0767 -3.74242 0
M  V30 3673 C 336.991 -1.66474 -5.08125 0
M  V30 3674 C 338.291 -3.49318 -3.88297 0
M  V30 3675 H 339.985 -2.20046 -2.03027 0
M  V30 3676 H 337.531 -1.05931 -0.975425 0
M  V30 3677 H 339.484 -0.930323 -4.11002 0
M  V30 3678 H 338.208 -0.0183004 -3.26595 0
M  V30 3679 H 336.867 -2.13187 -2.98239 0
M  V30 3680 H 336.515 -0.675012 -4.9845 0
M  V30 3681 H 336.215 -2.3885 -5.36865 0
M  V30 3682 H 337.739 -1.61455 -5.88867 0
M  V30 3683 H 339.153 -3.46316 -4.56879 0
M  V30 3684 H 337.55 -4.20158 -4.28471 0
M  V30 3685 H 338.62 -3.8801 -2.9082 0
M  V30 3686 N 339.963 1.05934 -1.16686 0
M  V30 3687 C 341.212 1.78188 -0.945085 0
M  V30 3688 C 341.525 1.88338 0.528021 0
M  V30 3689 O 342.731 2.57258 0.867799 0
M  V30 3690 C 341.187 3.20277 -1.64167 0
M  V30 3691 C 340.795 3.18281 -3.15279 0
M  V30 3692 C 342.539 3.97039 -1.502 0
M  V30 3693 C 340.446 4.55112 -3.7766 0
M  V30 3694 H 339.376 0.667866 -0.349959 0
M  V30 3695 H 342.027 1.18794 -1.39858 0
M  V30 3696 H 340.409 3.79952 -1.11589 0
M  V30 3697 H 341.583 2.68167 -3.74731 0
M  V30 3698 H 339.898 2.55018 -3.29173 0
M  V30 3699 H 342.495 4.98194 -1.94183 0
M  V30 3700 H 342.838 4.13845 -0.451461 0
M  V30 3701 H 343.371 3.43894 -1.99954 0
M  V30 3702 H 340.11 4.43512 -4.82677 0
M  V30 3703 H 339.63 5.05406 -3.22994 0
M  V30 3704 H 341.309 5.24064 -3.79428 0
M  V30 3705 N 341.441 0.965919 1.2453 0
M  V30 3706 C 342.689 0.625593 1.92174 0
M  V30 3707 C 343.01 -0.841652 1.75901 0
M  V30 3708 O 342.28 -1.60061 1.12948 0
M  V30 3709 H 340.86 0.228388 0.71123 0
M  V30 3710 H 343.522 1.2266 1.51461 0
M  V30 3711 H 342.618 0.864653 2.99884 0
M  V30 3712 N 342.919 -1.39368 0.735821 0
M  V30 3713 C 343.829 -2.34395 0.0979693 0
M  V30 3714 C 344.845 -1.58361 -0.720968 0
M  V30 3715 O 346.021 -1.90648 -0.649245 0
M  V30 3716 C 343.086 -3.37393 -0.797916 0
M  V30 3717 C 342.147 -4.29287 0.0333662 0
M  V30 3718 C 341.38 -5.27365 -0.819854 0
M  V30 3719 O 341.603 -5.31959 -2.05855 0
M  V30 3720 O 340.537 -6.01389 -0.248079 0
M  V30 3721 H 344.363 -2.90601 0.882315 0
M  V30 3722 H 341.948 -1.40909 0.4965 0
M  V30 3723 H 343.83 -4.00505 -1.31048 0
M  V30 3724 H 342.505 -2.83571 -1.56106 0
M  V30 3725 H 341.412 -3.69395 0.591475 0
M  V30 3726 H 342.745 -4.86317 0.758752 0
M  V30 3727 N 344.397 -0.483516 -1.5 0
M  V30 3728 C 345.347 0.32306 -2.257 0
M  V30 3729 C 346.331 0.950755 -1.29805 0
M  V30 3730 O 347.523 0.861247 -1.54634 0
M  V30 3731 C 344.652 1.39724 -3.13579 0
M  V30 3732 C 343.738 0.776663 -4.16928 0
M  V30 3733 N 344.129 -0.1104 -5.0568 0
M  V30 3734 C 342.427 1.03922 -4.33724 0
M  V30 3735 C 343.128 -0.46387 -5.79848 0
M  V30 3736 N 342.104 0.163987 -5.43353 0
M  V30 3737 H 345.906 -0.360086 -2.91686 0
M  V30 3738 H 343.42 -0.298456 -1.59634 0
M  V30 3739 H 345.417 1.98837 -3.66428 0
M  V30 3740 H 344.077 2.08225 -2.49143 0
M  V30 3741 H 345.088 -0.480069 -5.1567 0
M  V30 3742 H 341.765 1.71829 -3.80501 0
M  V30 3743 H 343.155 -1.18854 -6.61304 0
M  V30 3744 N 345.875 1.56104 -0.216619 0
M  V30 3745 C 347.123 1.97781 0.415593 0
M  V30 3746 C 347.444 1.10536 1.60645 0
M  V30 3747 O 346.714 0.181303 1.95059 0
M  V30 3748 H 345.294 0.730415 0.156534 0
M  V30 3749 H 347.956 1.92445 -0.308366 0
M  V30 3750 H 347.052 3.03072 0.74525 0
M  V30 3751 N 347.353 -0.0568162 1.57498 0
M  V30 3752 C 348.599 -0.75422 1.88253 0
M  V30 3753 C 348.932 -1.76461 0.810865 0
M  V30 3754 O 348.207 -1.93691 -0.177259 0
M  V30 3755 C 348.49 -1.44878 3.2967 0
M  V30 3756 C 348.343 -0.453789 4.47505 0
M  V30 3757 C 349.662 -2.38994 3.69554 0
M  V30 3758 H 346.781 -0.272724 0.684683 0
M  V30 3759 H 349.423 -0.0172113 1.89992 0
M  V30 3760 H 347.573 -2.077 3.28318 0
M  V30 3761 H 349.245 0.170371 4.60985 0
M  V30 3762 H 347.488 0.229552 4.33192 0
M  V30 3763 H 348.159 -0.977699 5.43273 0
M  V30 3764 H 350.635 -1.86239 3.72095 0
M  V30 3765 H 349.511 -2.84587 4.69363 0
M  V30 3766 H 349.772 -3.24461 3.00296 0
M  V30 3767 N 348.832 -1.54138 -0.328536 0
M  V30 3768 C 350.243 -1.63395 -0.903272 0
M  V30 3769 C 350.594 -0.524828 -1.8905 0
M  V30 3770 O 349.719 0.343068 -2.13663 0
M  V30 3771 C 350.314 -2.9618 -1.64507 0
M  V30 3772 C 348.873 -3.0765 -2.1686 0
M  V30 3773 C 348.02 -2.58933 -0.992416 0
M  V30 3774 H 350.971 -1.58344 -0.106253 0
M  V30 3775 H 350.992 -2.86061 -2.50897 0
M  V30 3776 H 350.504 -3.76884 -0.926302 0
M  V30 3777 H 348.605 -2.31611 -2.91868 0
M  V30 3778 H 348.718 -4.1337 -2.42202 0
M  V30 3779 H 347.082 -2.14706 -1.37016 0
M  V30 3780 H 347.865 -3.42089 -0.288041 0
M  V30 3781 N 350.31 0.590341 -1.46126 0
M  V30 3782 C 351.556 1.35082 -1.51264 0
M  V30 3783 C 351.889 1.93534 -0.160711 0
M  V30 3784 O 351.164 1.76045 0.826956 0
M  V30 3785 C 351.447 2.48588 -2.6053 0
M  V30 3786 C 351.3 1.95221 -4.05227 0
M  V30 3787 C 352.619 3.50662 -2.6594 0
M  V30 3788 H 349.738 0.489803 -0.550692 0
M  V30 3789 H 352.38 0.663887 -1.78024 0
M  V30 3790 H 350.53 3.07186 -2.37843 0
M  V30 3791 H 352.202 1.41139 -4.39178 0
M  V30 3792 H 350.445 1.26101 -4.15068 0
M  V30 3793 H 351.116 2.77121 -4.77397 0
M  V30 3794 H 353.592 3.01934 -2.86313 0
M  V30 3795 H 352.468 4.27551 -3.44226 0
M  V30 3796 H 352.729 4.07399 -1.71694 0
M  V30 3797 N 351.788 1.33704 0.83433 0
M  V30 3798 C 353.035 1.25417 1.58987 0
M  V30 3799 C 353.363 -0.178869 1.93676 0
M  V30 3800 O 352.618 -1.13723 1.59265 0
M  V30 3801 C 352.917 2.07926 2.90692 0
M  V30 3802 C 352.583 3.57066 2.75345 0
M  V30 3803 C 351.245 3.97724 2.70867 0
M  V30 3804 C 353.597 4.51817 2.59828 0
M  V30 3805 C 350.925 5.31344 2.48778 0
M  V30 3806 C 353.277 5.85604 2.39272 0
M  V30 3807 C 351.941 6.25439 2.33199 0
M  V30 3808 H 351.211 0.458934 0.581774 0
M  V30 3809 H 353.858 1.65335 0.966261 0
M  V30 3810 H 352.163 1.608 3.57282 0
M  V30 3811 H 353.86 1.98868 3.48213 0
M  V30 3812 H 350.45 3.24785 2.79665 0
M  V30 3813 H 354.634 4.21311 2.62319 0
M  V30 3814 H 349.89 5.61241 2.42526 0
M  V30 3815 H 354.064 6.58623 2.2625 0
M  V30 3816 H 351.691 7.28914 2.15843 0
M  V30 3817 N 353.266 -1.05314 1.17247 0
M  V30 3818 C 354.176 -2.16538 0.90268 0
M  V30 3819 C 355.192 -1.73523 -0.128707 0
M  V30 3820 O 356.368 -2.01337 0.0502701 0
M  V30 3821 C 353.433 -3.44167 0.418356 0
M  V30 3822 C 352.494 -4.01635 1.51618 0
M  V30 3823 C 351.727 -5.23171 1.05487 0
M  V30 3824 O 351.95 -5.70327 -0.0914715 0
M  V30 3825 O 350.884 -5.72848 1.8474 0
M  V30 3826 H 354.71 -2.42145 1.83302 0
M  V30 3827 H 352.295 -1.15037 0.953246 0
M  V30 3828 H 354.177 -4.21112 0.155726 0
M  V30 3829 H 352.852 -3.20063 -0.48385 0
M  V30 3830 H 351.759 -3.26135 1.83268 0
M  V30 3831 H 353.092 -4.30053 2.39405 0
M  V30 3832 N 354.744 -0.972509 -1.24016 0
M  V30 3833 C 355.992 -0.635776 -1.91839 0
M  V30 3834 C 356.313 0.832312 -1.76345 0
M  V30 3835 O 355.583 1.5946 -1.13795 0
M  V30 3836 H 354.163 -0.232157 -0.710009 0
M  V30 3837 H 356.825 -1.23462 -1.50809 0
M  V30 3838 H 355.921 -0.880545 -2.99421 0
M  V30 3839 N 356.222 1.38976 -0.743202 0
M  V30 3840 C 357.45 2.04636 -0.30525 0
M  V30 3841 C 357.865 1.56044 1.06281 0
M  V30 3842 O 357.222 0.728921 1.67311 0
M  V30 3843 C 357.273 3.60193 -0.307177 0
M  V30 3844 O 356.994 4.06998 -1.62124 0
M  V30 3845 C 358.495 4.4306 0.145928 0
M  V30 3846 H 355.715 0.65788 -0.132041 0
M  V30 3847 H 358.259 1.77866 -1.00915 0
M  V30 3848 H 356.414 3.85835 0.347898 0
M  V30 3849 H 356.828 5.01371 -1.54036 0
M  V30 3850 H 358.302 5.51921 0.0934183 0
M  V30 3851 H 358.779 4.22706 1.19231 0
M  V30 3852 H 359.385 4.22584 -0.479886 0
M  V30 3853 N 357.7 0.491464 1.49741 0
M  V30 3854 C 358.949 -0.0582189 2.01616 0
M  V30 3855 C 359.262 -1.38927 1.3769 0
M  V30 3856 O 360.468 -2.02509 1.80838 0
M  V30 3857 C 358.924 -0.154235 3.59569 0
M  V30 3858 C 358.532 1.1696 4.32463 0
M  V30 3859 C 360.276 -0.65479 4.1942 0
M  V30 3860 C 358.183 1.03627 5.8225 0
M  V30 3861 H 357.113 -0.0255317 0.753568 0
M  V30 3862 H 359.764 0.629445 1.72367 0
M  V30 3863 H 358.146 -0.906138 3.85493 0
M  V30 3864 H 359.32 1.93405 4.18248 0
M  V30 3865 H 357.635 1.60285 3.84315 0
M  V30 3866 H 360.232 -0.771903 5.29099 0
M  V30 3867 H 360.575 -1.65127 3.8215 0
M  V30 3868 H 361.108 0.040304 3.9778 0
M  V30 3869 H 357.847 2.00672 6.24028 0
M  V30 3870 H 357.367 0.312546 5.98985 0
M  V30 3871 H 359.046 0.711114 6.4308 0
M  V30 3872 N 359.178 -1.55987 0.224894 0
M  V30 3873 C 360.426 -1.97998 -0.405099 0
M  V30 3874 C 360.747 -1.11387 -1.60056 0
M  V30 3875 O 360.017 -0.191645 -1.9496 0
M  V30 3876 H 358.597 -0.731235 -0.152658 0
M  V30 3877 H 361.259 -1.92279 0.318567 0
M  V30 3878 H 360.355 -3.03463 -0.729167 0
M  V30 3879 N 360.656 0.0484629 -1.57525 0
M  V30 3880 C 361.904 0.741657 -1.88 0
M  V30 3881 C 362.225 1.76918 -0.820054 0
M  V30 3882 O 361.495 1.95335 0.148661 0
M  V30 3883 H 360.075 0.276908 -0.69378 0
M  V30 3884 H 362.737 0.019013 -1.94891 0
M  V30 3885 H 361.833 1.24336 -2.86264 0
M  V30 3886 N 362.134 1.5431 0.320358 0
M  V30 3887 C 363.044 1.86946 1.41734 0
M  V30 3888 C 364.06 0.761689 1.56443 0
M  V30 3889 O 365.236 1.05629 1.71477 0
M  V30 3890 C 362.301 2.09293 2.76401 0
M  V30 3891 C 361.362 3.33082 2.70841 0
M  V30 3892 C 360.595 3.54353 3.99086 0
M  V30 3893 O 360.818 2.79002 4.97508 0
M  V30 3894 O 359.752 4.47838 4.0215 0
M  V30 3895 H 363.578 2.80232 1.17062 0
M  V30 3896 H 361.163 1.40255 0.514673 0
M  V30 3897 H 363.045 2.25303 3.56113 0
M  V30 3898 H 361.72 1.19194 3.00956 0
M  V30 3899 H 360.627 3.22454 1.89668 0
M  V30 3900 H 361.96 4.23249 2.5124 0
M  V30 3901 N 363.613 -0.582584 1.46437 0
M  V30 3902 C 364.859 -1.34278 1.51978 0
M  V30 3903 C 365.192 -1.93446 0.170973 0
M  V30 3904 O 364.467 -1.76481 -0.817608 0
M  V30 3905 C 364.75 -2.47203 2.61845 0
M  V30 3906 C 364.603 -1.93069 4.06257 0
M  V30 3907 C 365.922 -3.49247 2.67795 0
M  V30 3908 H 363.041 -0.486876 0.553282 0
M  V30 3909 H 365.683 -0.654437 1.78374 0
M  V30 3910 H 363.833 -3.0592 2.39469 0
M  V30 3911 H 365.505 -1.38808 4.3992 0
M  V30 3912 H 363.748 -1.23898 4.1573 0
M  V30 3913 H 364.419 -2.74586 4.7886 0
M  V30 3914 H 366.895 -3.00411 2.8791 0
M  V30 3915 H 365.771 -4.25719 3.46489 0
M  V30 3916 H 366.032 -4.06482 1.73852 0
M  V30 3917 N 365.091 -1.34144 -0.827227 0
M  V30 3918 C 366.337 -1.26446 -1.58554 0
M  V30 3919 C 366.67 0.1664 -1.93486 0
M  V30 3920 O 365.945 1.1107 -1.59667 0
M  V30 3921 C 366.228 -2.15111 -2.8879 0
M  V30 3922 C 366.081 -3.66712 -2.60465 0
M  V30 3923 C 367.4 -2.03311 -3.90324 0
M  V30 3924 H 364.519 -0.46067 -0.575284 0
M  V30 3925 H 367.161 -1.64356 -0.953269 0
M  V30 3926 H 365.311 -1.8291 -3.42748 0
M  V30 3927 H 366.983 -4.09259 -2.1285 0
M  V30 3928 H 365.226 -3.88014 -1.93978 0
M  V30 3929 H 365.897 -4.24112 -3.53317 0
M  V30 3930 H 368.373 -2.31574 -3.45706 0
M  V30 3931 H 367.249 -2.67582 -4.79261 0
M  V30 3932 H 367.51 -1.00879 -4.30437 0
M  V30 3933 N 366.569 1.04691 -1.17803 0
M  V30 3934 C 367.985 1.29963 -0.926379 0
M  V30 3935 C 368.185 1.97251 0.411635 0
M  V30 3936 O 367.241 2.24922 1.14744 0
M  V30 3937 C 368.554 2.16447 -2.08737 0
M  V30 3938 C 370.102 2.29814 -2.12496 0
M  V30 3939 C 370.577 3.19661 -3.27995 0
M  V30 3940 N 372.068 3.27247 -3.27816 0
M  V30 3941 C 372.803 3.96906 -4.13827 0
M  V30 3942 N 372.299 4.6895 -5.09959 0
M  V30 3943 N 374.092 3.93122 -4.01761 0
M  V30 3944 H 366.243 0.594182 -2.0392 0
M  V30 3945 H 368.506 0.324649 -0.890678 0
M  V30 3946 H 368.212 1.74304 -3.05469 0
M  V30 3947 H 368.086 3.17103 -2.04268 0
M  V30 3948 H 370.473 2.71196 -1.16347 0
M  V30 3949 H 370.554 1.2877 -2.21025 0
M  V30 3950 H 370.198 2.78991 -4.24413 0
M  V30 3951 H 370.128 4.20722 -3.16703 0
M  V30 3952 H 372.619 2.75921 -2.58217 0
M  V30 3953 H 372.932 5.19679 -5.71974 0
M  V30 3954 H 371.277 4.67875 -5.13924 0
M  V30 3955 H 374.468 3.35967 -3.2595 0
M  V30 3956 H 374.641 4.47139 -4.6901 0
M  V30 3957 N 368.047 0.979072 1.23499 0
M  V30 3958 C 368.957 0.526431 2.28617 0
M  V30 3959 C 369.973 -0.418126 1.68901 0
M  V30 3960 O 371.149 -0.288372 1.99325 0
M  V30 3961 C 368.214 -0.165235 3.46306 0
M  V30 3962 C 367.275 0.82056 4.21385 0
M  V30 3963 C 366.508 0.161807 5.33455 0
M  V30 3964 O 366.731 -1.04742 5.60701 0
M  V30 3965 O 365.665 0.859708 5.95729 0
M  V30 3966 H 369.491 1.4006 2.69475 0
M  V30 3967 H 367.076 0.746643 1.29405 0
M  V30 3968 H 368.958 -0.553287 4.17752 0
M  V30 3969 H 367.633 -1.01419 3.07402 0
M  V30 3970 H 366.54 1.25929 3.52268 0
M  V30 3971 H 367.873 1.63828 4.64135 0
M  V30 3972 N 369.525 -1.3858 0.750561 0
M  V30 3973 C 370.773 -1.99789 0.30477 0
M  V30 3974 C 371.094 -1.59874 -1.11649 0
M  V30 3975 O 370.364 -0.85417 -1.76297 0
M  V30 3976 H 368.944 -0.738902 0.109694 0
M  V30 3977 H 371.606 -1.69391 0.963983 0
M  V30 3978 H 370.702 -3.09952 0.365499 0
M  V30 3979 N 371.003 -0.499398 -1.49478 0
M  V30 3980 C 371.966 0.268838 -2.27618 0
M  V30 3981 C 372.966 0.895383 -1.33565 0
M  V30 3982 O 374.156 0.760164 -1.56739 0
M  V30 3983 C 371.288 1.38559 -3.11471 0
M  V30 3984 H 372.481 -0.416812 -2.96989 0
M  V30 3985 H 370.034 -0.254313 -1.54217 0
M  V30 3986 H 370.769 2.10544 -2.46661 0
M  V30 3987 H 370.554 0.941797 -3.80621 0
M  V30 3988 H 372.044 1.92678 -3.70493 0
M  V30 3989 N 372.481 1.55866 -0.233164 0
M  V30 3990 C 373.711 2.02704 0.399325 0
M  V30 3991 C 374.119 1.11204 1.53069 0
M  V30 3992 O 373.462 0.116182 1.83332 0
M  V30 3993 C 373.524 3.45844 0.981429 0
M  V30 3994 C 373.188 4.56997 -0.0159561 0
M  V30 3995 C 374.185 5.13384 -0.820552 0
M  V30 3996 C 371.87 5.0211 -0.138072 0
M  V30 3997 C 373.864 6.13365 -1.73386 0
M  V30 3998 C 371.551 6.01926 -1.0549 0
M  V30 3999 C 372.549 6.57431 -1.85132 0
M  V30 4000 O 372.237 7.55302 -2.75272 0
M  V30 4001 H 371.969 0.668459 0.100692 0
M  V30 4002 H 374.523 2.02387 -0.35052 0
M  V30 4003 H 372.753 3.43267 1.78058 0
M  V30 4004 H 374.442 3.76262 1.52255 0
M  V30 4005 H 375.208 4.79372 -0.736721 0
M  V30 4006 H 371.087 4.5858 0.471737 0
M  V30 4007 H 374.631 6.56614 -2.35592 0
M  V30 4008 H 370.528 6.35359 -1.1397 0
M  V30 4009 H 371.296 7.72867 -2.69477 0
M  V30 4010 N 373.959 -0.0401083 1.57549 0
M  V30 4011 C 375.207 -0.731677 1.8839 0
M  V30 4012 C 375.528 -1.76481 0.829425 0
M  V30 4013 O 374.798 -1.95411 -0.1383 0
M  V30 4014 H 373.378 -0.273225 0.695239 0
M  V30 4015 H 376.04 -0.00867725 1.94898 0
M  V30 4016 H 375.136 -1.22816 2.86919 0
M  V30 4017 N 375.437 -1.54477 -0.31217 0
M  V30 4018 C 376.347 -1.87695 -1.4074 0
M  V30 4019 C 377.363 -0.769975 -1.56036 0
M  V30 4020 O 378.539 -1.06537 -1.70915 0
M  V30 4021 C 375.604 -2.10755 -2.75287 0
M  V30 4022 C 374.665 -3.34514 -2.69071 0
M  V30 4023 C 373.898 -3.56465 -3.97201 0
M  V30 4024 O 374.121 -2.81637 -4.96021 0
M  V30 4025 O 373.055 -4.49964 -3.9977 0
M  V30 4026 H 376.881 -2.80849 -1.15574 0
M  V30 4027 H 374.466 -1.40526 -0.507228 0
M  V30 4028 H 376.348 -2.27188 -3.54913 0
M  V30 4029 H 375.023 -1.20788 -3.0032 0
M  V30 4030 H 373.93 -3.23456 -1.87955 0
M  V30 4031 H 375.263 -4.24575 -2.48992 0
M  V30 4032 N 376.915 0.57481 -1.46744 0
M  V30 4033 C 377.862 1.68329 -1.57905 0
M  V30 4034 C 378.832 1.60625 -0.422927 0
M  V30 4035 O 380.017 1.79721 -0.640711 0
M  V30 4036 C 377.157 3.06665 -1.58274 0
M  V30 4037 C 376.27 3.24935 -2.84678 0
M  V30 4038 C 375.405 4.53566 -2.76499 0
M  V30 4039 C 374.444 4.65207 -3.97806 0
M  V30 4040 N 373.581 5.85172 -3.87967 0
M  V30 4041 H 378.421 1.58127 -2.52587 0
M  V30 4042 H 375.958 0.770552 -1.25303 0
M  V30 4043 H 377.916 3.86745 -1.56473 0
M  V30 4044 H 376.546 3.15745 -0.671194 0
M  V30 4045 H 375.598 2.38405 -2.96424 0
M  V30 4046 H 376.91 3.29403 -3.7456 0
M  V30 4047 H 376.064 5.41885 -2.72848 0
M  V30 4048 H 374.803 4.51548 -1.8427 0
M  V30 4049 H 373.808 3.75304 -4.0178 0
M  V30 4050 H 375.033 4.68997 -4.9114 0
M  V30 4051 H 372.979 5.84137 -2.98529 0
M  V30 4052 H 372.896 5.90943 -4.71511 0
M  V30 4053 H 374.164 6.759 -3.88303 0
M  V30 4054 N 378.394 1.34581 0.820102 0
M  V30 4055 C 379.643 1.26437 1.57151 0
M  V30 4056 C 379.956 -0.163111 1.94919 0
M  V30 4057 O 381.162 -0.366722 2.69012 0
M  V30 4058 C 379.618 2.21658 2.83541 0
M  V30 4059 C 379.226 3.69679 2.53065 0
M  V30 4060 C 380.97 2.22428 3.61561 0
M  V30 4061 C 378.877 4.56761 3.75664 0
M  V30 4062 H 377.807 0.469707 0.589823 0
M  V30 4063 H 380.458 1.59763 0.902656 0
M  V30 4064 H 378.84 1.81287 3.52067 0
M  V30 4065 H 380.014 4.18605 1.92631 0
M  V30 4066 H 378.329 3.71384 1.88316 0
M  V30 4067 H 380.926 2.8471 4.52597 0
M  V30 4068 H 381.269 1.22434 3.97889 0
M  V30 4069 H 381.802 2.61259 2.99981 0
M  V30 4070 H 378.541 5.57702 3.44454 0
M  V30 4071 H 378.061 4.12568 4.35371 0
M  V30 4072 H 379.74 4.71509 4.43044 0
M  V30 4073 N 379.872 -1.04064 1.18357 0
M  V30 4074 C 381.118 -1.77528 0.980397 0
M  V30 4075 C 381.451 -1.87948 -0.48879 0
M  V30 4076 O 380.726 -1.3876 -1.36293 0
M  V30 4077 C 381.009 -3.20797 1.63588 0
M  V30 4078 C 380.862 -3.1832 3.17793 0
M  V30 4079 C 382.181 -4.18911 1.34914 0
M  V30 4080 H 379.3 -0.644443 0.357578 0
M  V30 4081 H 381.942 -1.2156 1.46024 0
M  V30 4082 H 380.092 -3.68586 1.22788 0
M  V30 4083 H 381.764 -2.78521 3.67728 0
M  V30 4084 H 380.007 -2.56351 3.49952 0
M  V30 4085 H 380.678 -4.19489 3.58794 0
M  V30 4086 H 383.154 -3.7967 1.70265 0
M  V30 4087 H 382.03 -5.17374 1.83346 0
M  V30 4088 H 382.291 -4.41262 0.272027 0
M  V30 4089 N 381.35 -0.985608 -1.22978 0
M  V30 4090 C 382.313 -0.535071 -2.22867 0
M  V30 4091 C 383.313 0.378123 -1.56291 0
M  V30 4092 O 384.503 0.171092 -1.73358 0
M  V30 4093 C 381.635 0.222702 -3.40172 0
M  V30 4094 H 382.828 -1.41835 -2.6424 0
M  V30 4095 H 380.381 -0.772042 -1.35901 0
M  V30 4096 H 381.116 1.12229 -3.04262 0
M  V30 4097 H 380.901 -0.43288 -3.89703 0
M  V30 4098 H 382.391 0.526335 -4.1427 0
M  V30 4099 N 382.828 1.3818 -0.7579 0
M  V30 4100 C 383.776 2.32277 -0.122482 0
M  V30 4101 C 384.77 1.54238 0.700505 0
M  V30 4102 O 385.976 1.69737 0.599119 0
M  V30 4103 H 382.351 0.751712 -0.0208143 0
M  V30 4104 H 384.322 2.83469 -0.932099 0
M  V30 4105 C 383.071 3.39447 0.753076 0
M  V30 4106 H 382.394 3.99591 0.129184 0
M  V30 4107 H 383.834 4.07684 1.16489 0
M  V30 4108 C 382.293 2.78375 1.8976 0
M  V30 4109 O 382.823 2.68025 2.99208 0
M  V30 4110 N 381.029 2.36121 1.69397 0
M  V30 4111 H 380.576 2.4474 0.803762 0
M  V30 4112 H 380.534 1.95602 2.46145 0
M  V30 4113 N 384.306 0.507319 1.49211 0
M  V30 4114 C 385.583 -0.0982702 1.95353 0
M  V30 4115 C 385.963 -1.53516 1.449 0
M  V30 4116 O 385.311 -2.18594 0.66551 0
M  V30 4117 C 385.521 -0.00440283 3.49 0
M  V30 4118 C 386.869 -0.175147 4.24239 0
M  V30 4119 O 387.893 -0.0792891 3.56112 0
M  V30 4120 O 386.752 -0.37276 5.45227 0
M  V30 4121 H 383.846 -0.0918236 0.821887 0
M  V30 4122 H 386.392 0.570307 1.5983 0
M  V30 4123 H 385.164 0.997402 3.78375 0
M  V30 4124 H 384.787 -0.712845 3.91158 0
M  V30 4125 N 385.784 -1.5574 0.241426 0
M  V30 4126 C 387.033 -1.97986 -0.385295 0
M  V30 4127 C 387.346 -1.13267 -1.59468 0
M  V30 4128 O 388.552 -1.45501 -2.2922 0
M  V30 4129 C 387.008 -3.52275 -0.736884 0
M  V30 4130 C 386.616 -4.45726 0.450796 0
M  V30 4131 C 388.36 -4.03189 -1.3281 0
M  V30 4132 C 386.267 -5.91352 0.0756662 0
M  V30 4133 H 385.197 -0.739386 -0.147731 0
M  V30 4134 H 387.848 -1.80308 0.340779 0
M  V30 4135 H 386.23 -3.65628 -1.52094 0
M  V30 4136 H 387.404 -4.44131 1.22819 0
M  V30 4137 H 385.719 -4.05264 0.956573 0
M  V30 4138 H 388.316 -5.09505 -1.62201 0
M  V30 4139 H 388.659 -3.50212 -2.25071 0
M  V30 4140 H 389.192 -3.93141 -0.607069 0
M  V30 4141 H 385.931 -6.48354 0.965272 0
M  V30 4142 H 385.451 -5.96095 -0.665635 0
M  V30 4143 H 387.13 -6.46084 -0.344075 0
M  V30 4144 N 387.262 0.0317525 -1.57568 0
M  V30 4145 C 388.487 0.738664 -1.938 0
M  V30 4146 C 388.912 1.68242 -0.841208 0
M  V30 4147 O 388.27 1.80157 0.203267 0
M  V30 4148 C 388.318 1.47417 -3.29091 0
M  V30 4149 O 387.422 2.5872 -3.2115 0
M  V30 4150 H 386.763 0.198856 -0.633524 0
M  V30 4151 H 389.293 -0.0119713 -2.04596 0
M  V30 4152 H 389.303 1.84468 -3.63917 0
M  V30 4153 H 387.978 0.781988 -4.08482 0
M  V30 4154 H 386.555 2.24231 -2.97951 0
M  V30 4155 N 388.74 1.54641 0.303973 0
M  V30 4156 C 389.989 1.7299 1.03717 0
M  V30 4157 C 390.302 0.521168 1.88529 0
M  V30 4158 O 391.508 0.586408 2.65092 0
M  V30 4159 C 389.964 3.06051 1.89369 0
M  V30 4160 C 389.572 4.34393 1.09574 0
M  V30 4161 C 391.316 3.3376 2.62306 0
M  V30 4162 C 389.223 5.58506 1.94486 0
M  V30 4163 H 388.153 0.64473 0.390947 0
M  V30 4164 H 390.804 1.81124 0.294328 0
M  V30 4165 H 389.186 2.91874 2.67629 0
M  V30 4166 H 390.36 4.59396 0.359485 0
M  V30 4167 H 388.675 4.13597 0.482324 0
M  V30 4168 H 391.272 4.23687 3.26181 0
M  V30 4169 H 391.615 2.52503 3.3098 0
M  V30 4170 H 392.148 3.48894 1.91097 0
M  V30 4171 H 388.887 6.42422 1.30287 0
M  V30 4172 H 388.407 5.37694 2.65792 0
M  V30 4173 H 390.086 5.95651 2.52605 0
M  V30 4174 N 390.218 -0.567019 1.47046 0
M  V30 4175 C 391.464 -1.32434 1.54379 0
M  V30 4176 C 391.819 -1.91365 0.199276 0
M  V30 4177 O 391.112 -1.74378 -0.793915 0
M  V30 4178 C 391.306 -2.4623 2.59047 0
M  V30 4179 C 391.135 -1.98448 4.03545 0
M  V30 4180 C 389.905 -1.82741 4.71098 0
M  V30 4181 C 392.103 -1.53477 4.90866 0
M  V30 4182 N 390.085 -1.29196 6.00151 0
M  V30 4183 C 391.456 -1.1163 6.09868 0
M  V30 4184 C 393.511 -1.41438 4.77388 0
M  V30 4185 C 392.214 -0.589425 7.16881 0
M  V30 4186 C 394.24 -0.901528 5.84488 0
M  V30 4187 C 393.602 -0.492932 7.02673 0
M  V30 4188 H 389.701 -0.477005 0.61967 0
M  V30 4189 H 392.285 -0.643856 1.83746 0
M  V30 4190 H 390.456 -3.11821 2.31564 0
M  V30 4191 H 392.188 -3.13213 2.56281 0
M  V30 4192 H 388.943 -2.05162 4.26855 0
M  V30 4193 H 389.367 -1.0454 6.6888 0
M  V30 4194 H 394.009 -1.71643 3.86392 0
M  V30 4195 H 391.727 -0.274994 8.07632 0
M  V30 4196 H 395.313 -0.812071 5.76105 0
M  V30 4197 H 394.193 -0.102227 7.84133 0
M  V30 4198 N 391.696 -1.35014 -0.812953 0
M  V30 4199 C 392.626 -1.30069 -1.93919 0
M  V30 4200 C 393.607 -0.176275 -1.69184 0
M  V30 4201 O 394.792 -0.370227 -1.90638 0
M  V30 4202 C 391.922 -1.06547 -3.30552 0
M  V30 4203 C 390.876 -2.15561 -3.69753 0
M  V30 4204 C 390.202 -1.77214 -5.04479 0
M  V30 4205 C 391.502 -3.57476 -3.808 0
M  V30 4206 H 393.196 -2.24303 -1.98314 0
M  V30 4207 H 390.742 -1.07977 -0.952736 0
M  V30 4208 H 392.695 -1.01729 -4.08937 0
M  V30 4209 H 391.419 -0.0875719 -3.26483 0
M  V30 4210 H 390.078 -2.19466 -2.9365 0
M  V30 4211 H 389.726 -0.780589 -4.96906 0
M  V30 4212 H 389.426 -2.50184 -5.31678 0
M  V30 4213 H 390.95 -1.7391 -5.8531 0
M  V30 4214 H 392.364 -3.55929 -4.4943 0
M  V30 4215 H 390.761 -4.29152 -4.19462 0
M  V30 4216 H 391.831 -3.94091 -2.82525 0
M  V30 4217 N 393.175 1.03435 -1.18907 0
M  V30 4218 C 394.586 1.58195 -0.991523 0
M  V30 4219 C 394.937 1.90801 0.457081 0
M  V30 4220 O 394.062 1.70272 1.33553 0
M  V30 4221 C 394.657 2.87432 -1.79355 0
M  V30 4222 C 393.216 3.38785 -1.64017 0
M  V30 4223 C 392.363 2.12292 -1.78402 0
M  V30 4224 H 395.314 0.860299 -1.33359 0
M  V30 4225 H 395.335 3.58096 -1.28638 0
M  V30 4226 H 394.847 2.63669 -2.84781 0
M  V30 4227 H 392.948 3.67547 -0.611536 0
M  V30 4228 H 393.061 4.12186 -2.44212 0
M  V30 4229 H 391.425 2.23901 -1.2141 0
M  V30 4230 H 392.208 1.90977 -2.85277 0
M  V30 4231 N 394.653 0.992116 1.22453 0
M  V30 4232 C 395.901 0.666215 1.90804 0
M  V30 4233 C 396.222 -0.804152 1.77647 0
M  V30 4234 O 395.492 -1.57629 1.16318 0
M  V30 4235 H 394.072 0.243423 0.706225 0
M  V30 4236 H 396.734 1.25845 1.48825 0
M  V30 4237 H 395.83 0.928069 2.97982 0
M  V30 4238 N 396.131 -1.37776 0.765217 0
M  V30 4239 C 397.377 -2.00145 0.327072 0
M  V30 4240 C 397.71 -1.60607 -1.09175 0
M  V30 4241 O 396.985 -0.849127 -1.74986 0
M  V30 4242 C 397.268 -3.57109 0.46319 0
M  V30 4243 C 397.121 -4.06576 1.92395 0
M  V30 4244 C 398.44 -4.39888 -0.136473 0
M  V30 4245 H 395.559 -0.727113 0.120316 0
M  V30 4246 H 398.201 -1.63549 0.967039 0
M  V30 4247 H 396.351 -3.88414 -0.0816358 0
M  V30 4248 H 398.023 -3.85864 2.52798 0
M  V30 4249 H 396.266 -3.59011 2.43503 0
M  V30 4250 H 396.937 -5.15639 1.97028 0
M  V30 4251 H 399.413 -4.14803 0.328317 0
M  V30 4252 H 398.289 -5.48899 -0.0110582 0
M  V30 4253 H 398.55 -4.24758 -1.22608 0
M  V30 4254 N 397.609 -0.515225 -1.4894 0
M  V30 4255 C 398.539 0.244628 -2.32215 0
M  V30 4256 C 399.52 0.949136 -1.41157 0
M  V30 4257 O 400.705 0.937783 -1.70057 0
M  V30 4258 C 397.835 1.30096 -3.22013 0
M  V30 4259 C 396.789 0.715486 -4.21977 0
M  V30 4260 C 396.115 1.87339 -5.00808 0
M  V30 4261 C 397.415 -0.302982 -5.2142 0
M  V30 4262 H 399.109 -0.450501 -2.95991 0
M  V30 4263 H 396.655 -0.218098 -1.42339 0
M  V30 4264 H 398.608 1.84037 -3.79089 0
M  V30 4265 H 397.332 2.02547 -2.56207 0
M  V30 4266 H 395.991 0.197715 -3.66066 0
M  V30 4267 H 395.639 2.58592 -4.31438 0
M  V30 4268 H 395.339 1.48764 -5.68457 0
M  V30 4269 H 396.863 2.41686 -5.60732 0
M  V30 4270 H 398.277 0.148802 -5.73107 0
M  V30 4271 H 396.674 -0.60532 -5.97039 0
M  V30 4272 H 397.744 -1.21395 -4.69459 0
M  V30 4273 N 399.087 1.5561 -0.249682 0
M  V30 4274 C 400.034 2.21496 0.648694 0
M  V30 4275 C 401.004 1.17977 1.16921 0
M  V30 4276 O 402.189 1.46434 1.22318 0
M  V30 4277 C 399.329 2.92039 1.83868 0
M  V30 4278 C 398.442 4.10219 1.35442 0
M  V30 4279 C 397.577 4.6847 2.50419 0
M  V30 4280 C 396.616 5.78893 1.98869 0
M  V30 4281 N 395.753 6.31315 3.07223 0
M  V30 4282 H 400.593 2.97892 0.0801582 0
M  V30 4283 H 398.13 1.47074 0.0278031 0
M  V30 4284 H 400.088 3.31138 2.53778 0
M  V30 4285 H 398.718 2.18111 2.37965 0
M  V30 4286 H 397.77 3.76413 0.54928 0
M  V30 4287 H 399.082 4.89927 0.936649 0
M  V30 4288 H 398.236 5.10158 3.28366 0
M  V30 4289 H 396.975 3.87984 2.95499 0
M  V30 4290 H 395.98 5.3668 1.19393 0
M  V30 4291 H 397.205 6.61232 1.54755 0
M  V30 4292 H 395.151 5.53733 3.51732 0
M  V30 4293 H 395.068 7.06224 2.69784 0
M  V30 4294 H 396.336 6.77662 3.8522 0
M  V30 4295 N 400.565 -0.0233959 1.57583 0
M  V30 4296 C 401.811 -0.714119 1.89811 0
M  V30 4297 C 402.144 -1.74702 0.848113 0
M  V30 4298 O 401.419 -1.94023 -0.136135 0
M  V30 4299 C 401.702 -1.37853 3.32669 0
M  V30 4300 C 401.555 -0.358764 4.48367 0
M  V30 4301 C 402.874 -2.31101 3.7454 0
M  V30 4302 H 399.993 -0.25814 0.690314 0
M  V30 4303 H 402.635 0.0230927 1.89986 0
M  V30 4304 H 400.785 -2.00689 3.3265 0
M  V30 4305 H 402.457 0.268115 4.6052 0
M  V30 4306 H 400.7 0.321387 4.32608 0
M  V30 4307 H 401.371 -0.862242 5.45224 0
M  V30 4308 H 403.847 -1.78304 3.75961 0
M  V30 4309 H 402.723 -2.74567 4.75294 0
M  V30 4310 H 402.984 -3.18018 3.0711 0
M  V30 4311 N 402.043 -1.548 -0.295768 0
M  V30 4312 C 402.991 -1.86874 -1.38495 0
M  V30 4313 C 403.985 -0.742938 -1.52239 0
M  V30 4314 O 405.191 -0.926999 -1.54294 0
M  V30 4315 H 401.566 -0.592786 -0.462719 0
M  V30 4316 H 403.537 -2.77904 -1.08682 0
M  V30 4317 C 402.286 -2.13732 -2.74252 0
M  V30 4318 H 401.609 -2.99835 -2.64459 0
M  V30 4319 H 403.049 -2.4011 -3.49461 0
M  V30 4320 C 401.508 -0.937539 -3.23592 0
M  V30 4321 O 402.038 -0.160665 -4.01379 0
M  V30 4322 N 400.244 -0.741478 -2.80981 0
M  V30 4323 H 399.791 -1.37489 -2.1784 0
M  V30 4324 H 399.749 0.0597103 -3.14343 0
M  V30 4325 N 403.521 0.559213 -1.47345 0
M  V30 4326 C 404.932 1.14134 -1.47751 0
M  V30 4327 C 405.283 1.94834 -0.231103 0
M  V30 4328 O 404.408 2.05957 0.664137 0
M  V30 4329 C 405.003 2.07653 -2.67705 0
M  V30 4330 C 403.562 2.61141 -2.71076 0
M  V30 4331 C 402.709 1.3748 -2.40821 0
M  V30 4332 H 405.66 0.345917 -1.54884 0
M  V30 4333 H 405.681 2.91497 -2.44561 0
M  V30 4334 H 405.193 1.4889 -3.58404 0
M  V30 4335 H 403.294 3.23707 -1.84511 0
M  V30 4336 H 403.407 3.02272 -3.7171 0
M  V30 4337 H 401.771 1.68086 -1.91362 0
M  V30 4338 H 402.554 0.805135 -3.33725 0
M  V30 4339 N 404.999 1.35443 0.805782 0
M  V30 4340 C 406.246 1.28761 1.56291 0
M  V30 4341 C 406.574 -0.137747 1.94012 0
M  V30 4342 O 405.829 -1.1032 1.61642 0
M  V30 4343 C 406.128 2.14045 2.86216 0
M  V30 4344 C 405.794 3.62826 2.67709 0
M  V30 4345 C 404.456 4.0338 2.6237 0
M  V30 4346 C 406.808 4.57227 2.50186 0
M  V30 4347 C 404.136 5.36501 2.37451 0
M  V30 4348 C 406.488 5.90547 2.26797 0
M  V30 4349 C 405.152 6.30245 2.1988 0
M  V30 4350 H 404.422 0.471171 0.571908 0
M  V30 4351 H 407.069 1.67347 0.930974 0
M  V30 4352 H 405.374 1.68342 3.53791 0
M  V30 4353 H 407.071 2.0621 3.43917 0
M  V30 4354 H 403.661 3.30644 2.72713 0
M  V30 4355 H 407.845 4.2678 2.53323 0
M  V30 4356 H 403.101 5.66259 2.30567 0
M  V30 4357 H 407.275 6.63274 2.12228 0
M  V30 4358 H 404.902 7.33328 2.00333 0
M  V30 4359 N 406.477 -1.02803 1.19454 0
M  V30 4360 C 407.888 -1.57667 0.999899 0
M  V30 4361 C 408.239 -1.91041 -0.446956 0
M  V30 4362 O 407.364 -1.70978 -1.32648 0
M  V30 4363 C 407.959 -2.86477 1.80877 0
M  V30 4364 C 406.518 -3.37911 1.65811 0
M  V30 4365 C 405.665 -2.11343 1.79526 0
M  V30 4366 H 408.616 -0.853214 1.33813 0
M  V30 4367 H 408.637 -3.57408 1.30536 0
M  V30 4368 H 408.149 -2.62155 2.86175 0
M  V30 4369 H 406.25 -3.67218 0.63102 0
M  V30 4370 H 406.363 -4.10885 2.46395 0
M  V30 4371 H 404.727 -2.23254 1.22596 0
M  V30 4372 H 405.51 -1.89461 2.86285 0
M  V30 4373 N 407.956 -0.998596 -1.21925 0
M  V30 4374 C 408.904 -0.546641 -2.26085 0
M  V30 4375 C 409.898 0.405576 -1.64473 0
M  V30 4376 O 411.104 0.277471 -1.77849 0
M  V30 4377 H 407.479 -0.158403 -0.735127 0
M  V30 4378 H 409.45 -1.43645 -2.61551 0
M  V30 4379 C 408.199 0.117388 -3.47502 0
M  V30 4380 H 407.522 -0.606277 -3.95176 0
M  V30 4381 H 408.962 0.396993 -4.22137 0
M  V30 4382 C 407.421 1.35455 -3.0847 0
M  V30 4383 O 407.951 2.44944 -3.18379 0
M  V30 4384 N 406.157 1.23191 -2.63196 0
M  V30 4385 H 405.704 0.341006 -2.55333 0
M  V30 4386 H 405.662 2.06071 -2.37449 0
M  V30 4387 N 409.434 1.37368 -0.772513 0
M  V30 4388 C 410.845 1.8231 -0.402493 0
M  V30 4389 C 411.196 1.6436 1.07146 0
M  V30 4390 O 410.321 1.15514 1.82991 0
M  V30 4391 C 410.916 3.30979 -0.723776 0
M  V30 4392 C 409.475 3.74195 -0.406802 0
M  V30 4393 C 408.622 2.59885 -0.967218 0
M  V30 4394 H 411.573 1.25829 -0.967099 0
M  V30 4395 H 411.594 3.80499 -0.00870832 0
M  V30 4396 H 411.106 3.44011 -1.7966 0
M  V30 4397 H 409.207 3.66732 0.658673 0
M  V30 4398 H 409.32 4.7027 -0.915588 0
M  V30 4399 H 407.684 2.51674 -0.391416 0
M  V30 4400 H 408.467 2.7571 -2.04546 0
M  V30 4401 N 410.912 0.523116 1.48665 0
M  V30 4402 C 412.189 -0.0775449 1.95446 0
M  V30 4403 C 412.569 -1.5197 1.4652 0
M  V30 4404 O 411.917 -2.17876 0.688657 0
M  V30 4405 C 412.127 0.0326135 3.48985 0
M  V30 4406 C 413.475 -0.130141 4.24401 0
M  V30 4407 O 414.499 -0.0415142 3.56176 0
M  V30 4408 O 413.358 -0.31491 5.45592 0
M  V30 4409 H 410.452 -0.0831012 0.822814 0
M  V30 4410 H 412.998 0.587227 1.59216 0
M  V30 4411 H 411.77 1.03748 3.77296 0
M  V30 4412 H 411.393 -0.671317 3.91892 0
M  V30 4413 N 412.39 -1.55475 0.257931 0
M  V30 4414 C 413.323 -2.179 -0.677862 0
M  V30 4415 C 414.301 -1.13448 -1.16483 0
M  V30 4416 O 415.485 -1.41889 -1.24095 0
M  V30 4417 C 412.612 -2.78851 -1.92249 0
M  V30 4418 C 411.658 -3.96454 -1.57246 0
M  V30 4419 S 412.491 -5.31349 -0.665501 0
M  V30 4420 C 413.647 -5.9576 -1.91889 0
M  V30 4421 H 413.88 -2.96934 -0.147396 0
M  V30 4422 H 411.413 -1.54342 0.0423023 0
M  V30 4423 H 413.371 -3.14602 -2.63697 0
M  V30 4424 H 412.032 -1.99742 -2.42409 0
M  V30 4425 H 411.225 -4.37731 -2.49814 0
M  V30 4426 H 410.827 -3.62038 -0.938325 0
M  V30 4427 H 413.119 -6.13947 -2.86487 0
M  V30 4428 H 414.062 -6.9094 -1.54942 0
M  V30 4429 H 414.47 -5.2494 -2.076 0
M  V30 4430 N 413.868 0.0150385 -1.57593 0
M  V30 4431 C 414.801 1.04475 -2.0288 0
M  V30 4432 C 415.779 1.3436 -0.915764 0
M  V30 4433 O 416.963 1.46779 -1.18271 0
M  V30 4434 C 414.09 2.37608 -2.41371 0
M  V30 4435 C 413.136 2.23487 -3.63257 0
M  V30 4436 S 413.969 1.57505 -5.11813 0
M  V30 4437 C 415.125 2.921 -5.5356 0
M  V30 4438 H 415.358 0.65907 -2.89903 0
M  V30 4439 H 412.891 0.225452 -1.52745 0
M  V30 4440 H 414.849 3.14165 -2.64217 0
M  V30 4441 H 413.51 2.7332 -1.54775 0
M  V30 4442 H 412.703 3.21802 -3.87891 0
M  V30 4443 H 412.305 1.55074 -3.40335 0
M  V30 4444 H 414.597 3.88419 -5.55101 0
M  V30 4445 H 415.54 2.72184 -6.53698 0
M  V30 4446 H 415.948 2.95318 -4.8109 0
M  V30 4447 N 415.346 1.54954 0.287554 0
M  V30 4448 C 416.278 1.83224 1.37701 0
M  V30 4449 C 417.291 0.715898 1.46215 0
M  V30 4450 O 418.48 0.993565 1.48292 0
M  V30 4451 C 415.58 1.96723 2.75959 0
M  V30 4452 C 414.753 3.27253 2.90215 0
M  V30 4453 C 413.812 3.30998 4.09056 0
M  V30 4454 O 412.838 4.04457 4.00503 0
M  V30 4455 N 414.04 2.57353 5.20336 0
M  V30 4456 H 416.805 2.77254 1.138 0
M  V30 4457 H 414.366 1.54694 0.477652 0
M  V30 4458 H 416.358 1.96615 3.5373 0
M  V30 4459 H 414.928 1.09626 2.92747 0
M  V30 4460 H 414.148 3.40022 1.99447 0
M  V30 4461 H 415.436 4.13365 2.96659 0
M  V30 4462 H 414.834 1.97327 5.30169 0
M  V30 4463 H 413.391 2.62984 5.96391 0
M  V30 4464 N 416.824 -0.551391 1.4764 0
M  V30 4465 C 418.071 -1.3083 1.54563 0
M  V30 4466 C 418.399 -1.93359 0.210361 0
M  V30 4467 O 417.654 -1.78721 -0.797332 0
M  V30 4468 C 417.953 -2.43469 2.61644 0
M  V30 4469 C 417.619 -1.98732 4.04742 0
M  V30 4470 C 416.281 -1.86248 4.43695 0
M  V30 4471 C 418.633 -1.64659 4.94507 0
M  V30 4472 C 415.961 -1.37995 5.70241 0
M  V30 4473 C 418.313 -1.17875 6.21521 0
M  V30 4474 C 416.977 -1.03992 6.5935 0
M  V30 4475 H 416.247 -0.478741 0.565587 0
M  V30 4476 H 418.894 -0.617697 1.81264 0
M  V30 4477 H 417.199 -3.18109 2.28722 0
M  V30 4478 H 418.896 -3.01642 2.64222 0
M  V30 4479 H 415.486 -2.09393 3.73968 0
M  V30 4480 H 419.67 -1.73174 4.65107 0
M  V30 4481 H 414.926 -1.25915 5.98294 0
M  V30 4482 H 419.1 -0.905739 6.90485 0
M  V30 4483 H 416.727 -0.663794 7.57296 0
M  V30 4484 N 418.302 -1.35869 -0.798587 0
M  V30 4485 C 419.212 -1.31578 -1.94228 0
M  V30 4486 C 420.228 -0.21939 -1.72611 0
M  V30 4487 O 421.404 -0.450167 -1.96305 0
M  V30 4488 C 418.469 -1.09528 -3.28944 0
M  V30 4489 C 417.53 -2.28556 -3.63402 0
M  V30 4490 C 416.763 -2.07549 -4.9169 0
M  V30 4491 O 416.986 -1.046 -5.60727 0
M  V30 4492 O 415.92 -2.95106 -5.24591 0
M  V30 4493 H 419.746 -2.27847 -2.00796 0
M  V30 4494 H 417.331 -1.16322 -0.937526 0
M  V30 4495 H 419.213 -0.991127 -4.09579 0
M  V30 4496 H 417.888 -0.16315 -3.23289 0
M  V30 4497 H 416.795 -2.44538 -2.83112 0
M  V30 4498 H 418.128 -3.20244 -3.73771 0
M  V30 4499 N 419.78 1.02168 -1.19998 0
M  V30 4500 C 421.026 1.7606 -1.01855 0
M  V30 4501 C 421.381 1.87178 0.445222 0
M  V30 4502 O 420.674 1.3828 1.32624 0
M  V30 4503 C 420.868 3.18081 -1.62969 0
M  V30 4504 C 420.697 3.20809 -3.15137 0
M  V30 4505 C 419.467 3.28342 -3.84083 0
M  V30 4506 C 421.665 3.07268 -4.1242 0
M  V30 4507 N 419.647 3.2052 -5.23584 0
M  V30 4508 C 421.018 3.0716 -5.38566 0
M  V30 4509 C 423.073 2.91448 -4.03686 0
M  V30 4510 C 421.776 2.92853 -6.56985 0
M  V30 4511 C 423.802 2.78494 -5.21723 0
M  V30 4512 C 423.164 2.79046 -6.46771 0
M  V30 4513 H 419.263 0.655192 -0.426905 0
M  V30 4514 H 421.847 1.21564 -1.52087 0
M  V30 4515 H 420.018 3.70882 -1.15329 0
M  V30 4516 H 421.75 3.80375 -1.38192 0
M  V30 4517 H 418.505 3.34859 -3.34913 0
M  V30 4518 H 418.929 3.19997 -5.96599 0
M  V30 4519 H 423.571 2.89838 -3.07821 0
M  V30 4520 H 421.289 2.93213 -7.53028 0
M  V30 4521 H 424.875 2.67278 -5.16773 0
M  V30 4522 H 423.755 2.69134 -7.36571 0
M  V30 4523 N 421.258 1.00505 1.21394 0
M  V30 4524 C 422.488 0.705584 1.94178 0
M  V30 4525 C 422.896 -0.735846 1.74304 0
M  V30 4526 O 422.239 -1.50954 1.04683 0
M  V30 4527 C 422.301 0.94689 3.46806 0
M  V30 4528 C 421.965 2.37517 3.90429 0
M  V30 4529 C 422.962 3.35539 3.97127 0
M  V30 4530 C 420.647 2.71284 4.22742 0
M  V30 4531 C 422.641 4.65395 4.3553 0
M  V30 4532 C 420.328 4.01356 4.60822 0
M  V30 4533 C 421.326 4.98223 4.67186 0
M  V30 4534 O 421.014 6.25969 5.04399 0
M  V30 4535 H 420.746 0.259216 0.624326 0
M  V30 4536 H 423.3 1.34592 1.55159 0
M  V30 4537 H 421.53 0.249386 3.85895 0
M  V30 4538 H 423.219 0.640804 4.0081 0
M  V30 4539 H 423.985 3.10786 3.7234 0
M  V30 4540 H 419.864 1.96581 4.16985 0
M  V30 4541 H 423.408 5.41002 4.40412 0
M  V30 4542 H 419.305 4.25893 4.85063 0
M  V30 4543 H 420.073 6.30085 5.22431 0
M  V30 4544 N 422.737 -1.36956 0.779787 0
M  V30 4545 C 423.983 -1.99787 0.348281 0
M  V30 4546 C 424.316 -1.61756 -1.07465 0
M  V30 4547 O 423.591 -0.867639 -1.74075 0
M  V30 4548 C 423.874 -3.56597 0.50104 0
M  V30 4549 C 423.727 -4.04513 1.96697 0
M  V30 4550 C 425.046 -4.40008 -0.0898097 0
M  V30 4551 H 422.165 -0.725796 0.128022 0
M  V30 4552 H 424.807 -1.62514 0.984331 0
M  V30 4553 H 422.957 -3.88479 -0.0404347 0
M  V30 4554 H 424.629 -3.83161 2.56876 0
M  V30 4555 H 422.872 -3.56408 2.47297 0
M  V30 4556 H 423.543 -5.1352 2.02486 0
M  V30 4557 H 426.019 -4.14431 0.372293 0
M  V30 4558 H 424.895 -5.4888 0.0471605 0
M  V30 4559 H 425.156 -4.26035 -1.18096 0
M  V30 4560 N 424.215 -0.530993 -1.48385 0
M  V30 4561 C 425.626 -0.0907905 -1.86479 0
M  V30 4562 C 425.977 1.33213 -1.44044 0
M  V30 4563 O 425.102 1.99783 -0.831615 0
M  V30 4564 C 425.697 -0.157987 -3.38431 0
M  V30 4565 C 424.256 0.227026 -3.75715 0
M  V30 4566 C 423.403 -0.5173 -2.72432 0
M  V30 4567 H 426.354 -0.742186 -1.40276 0
M  V30 4568 H 426.375 0.630053 -3.75247 0
M  V30 4569 H 425.887 -1.19372 -3.69286 0
M  V30 4570 H 423.988 1.26486 -3.50474 0
M  V30 4571 H 424.101 -0.113288 -4.78966 0
M  V30 4572 H 422.465 0.0365527 -2.54674 0
M  V30 4573 H 423.248 -1.55368 -3.0613 0
M  V30 4574 N 425.693 1.55336 -0.266172 0
M  V30 4575 C 426.942 1.98574 0.353749 0
M  V30 4576 C 427.255 1.15789 1.57646 0
M  V30 4577 O 428.461 1.49129 2.26876 0
M  V30 4578 C 426.917 3.53403 0.680747 0
M  V30 4579 C 426.525 4.44953 -0.52165 0
M  V30 4580 C 428.269 4.05251 1.26379 0
M  V30 4581 C 426.176 5.91156 -0.169736 0
M  V30 4582 H 425.106 0.741643 0.135949 0
M  V30 4583 H 427.757 1.79743 -0.369421 0
M  V30 4584 H 426.139 3.68001 1.46257 0
M  V30 4585 H 427.313 4.42121 -1.29869 0
M  V30 4586 H 425.628 4.03691 -1.02093 0
M  V30 4587 H 428.225 5.12021 1.54074 0
M  V30 4588 H 428.568 3.53749 2.19471 0
M  V30 4589 H 429.101 3.94057 0.544447 0
M  V30 4590 H 425.84 6.46736 -1.0683 0
M  V30 4591 H 425.36 5.97079 0.570717 0
M  V30 4592 H 427.039 6.4655 0.241245 0
M  V30 4593 N 427.171 -0.0066808 1.57599 0
M  V30 4594 C 428.448 -0.729586 1.81484 0
M  V30 4595 C 428.828 -1.92359 0.869558 0
M  V30 4596 O 428.176 -2.28348 -0.0832533 0
M  V30 4597 C 428.386 -1.1416 3.29801 0
M  V30 4598 C 429.734 -1.54823 3.95367 0
M  V30 4599 O 430.758 -1.23558 3.34084 0
M  V30 4600 O 429.617 -2.12937 5.03309 0
M  V30 4601 H 426.711 -0.354674 0.747085 0
M  V30 4602 H 429.257 0.0182609 1.6969 0
M  V30 4603 H 428.029 -0.290231 3.90222 0
M  V30 4604 H 427.652 -1.94876 3.46568 0
M  V30 4605 N 428.649 -1.55105 -0.279332 0
M  V30 4606 C 429.559 -1.90638 -1.36727 0
M  V30 4607 C 430.575 -0.802899 -1.54368 0
M  V30 4608 O 431.751 -1.10138 -1.68616 0
M  V30 4609 C 428.816 -2.16547 -2.70755 0
M  V30 4610 C 427.877 -3.40146 -2.61915 0
M  V30 4611 C 427.11 -3.6481 -3.8955 0
M  V30 4612 O 427.333 -2.92095 -4.89935 0
M  V30 4613 O 426.267 -4.58343 -3.90135 0
M  V30 4614 H 430.093 -2.83237 -1.09591 0
M  V30 4615 H 427.678 -1.4157 -0.477306 0
M  V30 4616 H 429.56 -2.34665 -3.50014 0
M  V30 4617 H 428.235 -1.27131 -2.9769 0
M  V30 4618 H 427.142 -3.2737 -1.81052 0
M  V30 4619 H 428.475 -4.29761 -2.3993 0
M  V30 4620 N 430.127 0.543554 -1.4793 0
M  V30 4621 C 431.075 1.67039 -1.61866 0
M  V30 4622 C 432.069 1.62294 -0.48549 0
M  V30 4623 O 433.275 1.67315 -0.66376 0
M  V30 4624 H 429.65 0.552954 -0.509652 0
M  V30 4625 H 431.621 1.52426 -2.56533 0
M  V30 4626 C 430.37 3.05357 -1.6629 0
M  V30 4627 H 429.693 3.09696 -2.5284 0
M  V30 4628 H 431.133 3.83855 -1.80088 0
M  V30 4629 C 429.592 3.34531 -0.398861 0
M  V30 4630 O 430.122 3.98649 0.494162 0
M  V30 4631 N 428.328 2.89299 -0.2747 0
M  V30 4632 H 427.875 2.37298 -1.00236 0
M  V30 4633 H 427.833 3.09188 0.570075 0
M  V30 4634 N 431.605 1.3629 0.791371 0
M  V30 4635 C 432.833 1.33562 1.58016 0
M  V30 4636 C 433.248 -0.0835616 1.88615 0
M  V30 4637 O 432.605 -1.0399 1.49974 0
M  V30 4638 C 432.656 2.15517 2.90232 0
M  V30 4639 O 432.377 3.51902 2.60953 0
M  V30 4640 C 433.878 2.20546 3.84544 0
M  V30 4641 H 431.098 0.458226 0.490173 0
M  V30 4642 H 433.642 1.79361 0.982345 0
M  V30 4643 H 431.797 1.73278 3.46487 0
M  V30 4644 H 432.211 3.94644 3.4548 0
M  V30 4645 H 433.685 2.82252 4.74382 0
M  V30 4646 H 434.162 1.20838 4.2225 0
M  V30 4647 H 434.768 2.63013 3.34222 0
M  V30 4648 N 433.083 -1.0153 1.20538 0
M  V30 4649 C 434.033 -2.08482 0.922991 0
M  V30 4650 C 435.017 -1.60469 -0.117702 0
M  V30 4651 O 436.209 -1.76772 0.0898465 0
M  V30 4652 C 433.338 -3.39952 0.478312 0
M  V30 4653 C 432.424 -3.94662 1.5525 0
M  V30 4654 N 432.815 -4.22866 2.77521 0
M  V30 4655 C 431.113 -4.22825 1.41897 0
M  V30 4656 C 431.814 -4.67002 3.4682 0
M  V30 4657 N 430.79 -4.69356 2.74237 0
M  V30 4658 H 434.592 -2.28199 1.85209 0
M  V30 4659 H 432.106 -1.19512 1.09957 0
M  V30 4660 H 434.103 -4.16105 0.257408 0
M  V30 4661 H 432.763 -3.21648 -0.444148 0
M  V30 4662 H 433.774 -4.11732 3.1416 0
M  V30 4663 H 430.451 -4.13714 0.561015 0
M  V30 4664 H 431.841 -4.97632 4.51455 0
M  V30 4665 N 434.561 -1.01147 -1.20859 0
M  V30 4666 C 435.791 -0.715872 -1.93801 0
M  V30 4667 C 436.199 0.726592 -1.74692 0
M  V30 4668 O 435.542 1.50397 -1.05482 0
M  V30 4669 C 435.604 -0.965269 -3.46299 0
M  V30 4670 C 435.268 -2.39584 -3.89164 0
M  V30 4671 C 436.265 -3.3764 -3.95342 0
M  V30 4672 C 433.95 -2.73522 -4.21297 0
M  V30 4673 C 435.944 -4.67698 -4.33056 0
M  V30 4674 C 433.631 -4.03794 -4.58687 0
M  V30 4675 C 434.629 -5.00693 -4.64538 0
M  V30 4676 O 434.317 -6.28635 -5.01072 0
M  V30 4677 H 434.049 -0.262524 -0.622942 0
M  V30 4678 H 436.603 -1.35413 -1.54443 0
M  V30 4679 H 434.833 -0.269847 -3.85757 0
M  V30 4680 H 436.522 -0.662051 -4.00464 0
M  V30 4681 H 437.288 -3.12757 -3.70686 0
M  V30 4682 H 433.167 -1.9879 -4.15937 0
M  V30 4683 H 436.711 -5.4333 -4.37537 0
M  V30 4684 H 432.608 -4.28459 -4.82797 0
M  V30 4685 H 433.376 -6.32847 -5.19083 0
M  V30 4686 N 436.039 1.36541 -0.78704 0
M  V30 4687 C 437.269 2.03266 -0.369662 0
M  V30 4688 C 437.677 1.59481 1.01796 0
M  V30 4689 O 437.02 0.778612 1.66383 0
M  V30 4690 C 437.082 3.57779 -0.351371 0
M  V30 4691 C 436.746 4.24756 -1.68617 0
M  V30 4692 C 437.743 4.47811 -2.64124 0
M  V30 4693 C 435.428 4.62277 -1.96481 0
M  V30 4694 C 437.422 5.07464 -3.85693 0
M  V30 4695 C 435.109 5.21649 -3.18317 0
M  V30 4696 C 436.107 5.44182 -4.12741 0
M  V30 4697 O 435.795 6.02307 -5.32429 0
M  V30 4698 H 435.527 0.658977 -0.150751 0
M  V30 4699 H 438.081 1.75548 -1.0664 0
M  V30 4700 H 436.311 3.84606 0.401847 0
M  V30 4701 H 438 4.05879 0.0410147 0
M  V30 4702 H 438.766 4.19221 -2.43883 0
M  V30 4703 H 434.645 4.44065 -1.23805 0
M  V30 4704 H 438.189 5.24968 -4.59407 0
M  V30 4705 H 434.086 5.49664 -3.38437 0
M  V30 4706 H 434.854 6.20775 -5.33461 0
M  V30 4707 N 437.518 0.538854 1.48102 0
M  V30 4708 C 438.765 0.0080018 2.02498 0
M  V30 4709 C 439.093 -1.33437 1.41509 0
M  V30 4710 O 438.348 -1.87709 0.553507 0
M  V30 4711 C 438.647 -0.153808 3.57069 0
M  V30 4712 C 438.313 1.11533 4.36888 0
M  V30 4713 C 436.975 1.46314 4.58417 0
M  V30 4714 C 439.327 1.95718 4.83057 0
M  V30 4715 C 436.655 2.6516 5.23361 0
M  V30 4716 C 439.007 3.13751 5.49312 0
M  V30 4717 C 437.671 3.48866 5.69077 0
M  V30 4718 H 436.941 0.00292807 0.740994 0
M  V30 4719 H 439.588 0.706668 1.77984 0
M  V30 4720 H 437.893 -0.935309 3.80472 0
M  V30 4721 H 439.59 -0.579607 3.96789 0
M  V30 4722 H 436.18 0.834484 4.20398 0
M  V30 4723 H 440.364 1.70158 4.66219 0
M  V30 4724 H 435.62 2.92558 5.36861 0
M  V30 4725 H 439.794 3.79282 5.84053 0
M  V30 4726 H 437.421 4.41054 6.19173 0
M  V30 4727 N 438.996 -1.55193 0.274407 0
M  V30 4728 C 439.928 -2.1989 -0.646595 0
M  V30 4729 C 440.941 -1.1834 -1.11801 0
M  V30 4730 O 442.13 -1.4507 -1.04004 0
M  V30 4731 C 439.23 -2.8104 -1.89393 0
M  V30 4732 C 438.403 -4.08274 -1.56943 0
M  V30 4733 C 437.462 -4.53478 -2.66916 0
M  V30 4734 O 436.488 -5.19267 -2.33132 0
M  V30 4735 N 437.69 -4.2356 -3.9696 0
M  V30 4736 H 440.455 -2.99556 -0.0928686 0
M  V30 4737 H 438.016 -1.61618 0.0954783 0
M  V30 4738 H 440.008 -3.08226 -2.62257 0
M  V30 4739 H 438.578 -2.05372 -2.35672 0
M  V30 4740 H 437.798 -3.88384 -0.674655 0
M  V30 4741 H 439.086 -4.91173 -1.32764 0
M  V30 4742 H 438.484 -3.70799 -4.27229 0
M  V30 4743 H 437.041 -4.55518 -4.66205 0
M  V30 4744 N 440.474 -0.00167713 -1.576 0
M  V30 4745 C 441.702 0.693759 -1.94922 0
M  V30 4746 C 442.117 1.67215 -0.876626 0
M  V30 4747 O 441.474 1.81929 0.144279 0
M  V30 4748 C 441.525 1.42416 -3.32265 0
M  V30 4749 O 441.246 0.485014 -4.35407 0
M  V30 4750 C 442.747 2.21395 -3.84056 0
M  V30 4751 H 439.967 0.193118 -0.642609 0
M  V30 4752 H 442.511 -0.0532952 -2.04431 0
M  V30 4753 H 440.666 2.12284 -3.24059 0
M  V30 4754 H 441.08 1.00053 -5.14868 0
M  V30 4755 H 442.554 2.67996 -4.82578 0
M  V30 4756 H 443.031 3.04142 -3.16851 0
M  V30 4757 H 443.637 1.56542 -3.95443 0
M  V30 4758 N 441.952 1.55251 0.271103 0
M  V30 4759 C 442.882 1.9127 1.33933 0
M  V30 4760 C 443.863 0.77478 1.5143 0
M  V30 4761 O 445.048 1.03307 1.64442 0
M  V30 4762 C 442.178 2.18627 2.69851 0
M  V30 4763 C 441.132 3.34442 2.67081 0
M  V30 4764 C 440.458 3.47284 4.06569 0
M  V30 4765 C 441.758 4.70784 2.26185 0
M  V30 4766 H 443.452 2.80744 1.04035 0
M  V30 4767 H 440.998 1.35077 0.499017 0
M  V30 4768 H 442.951 2.42413 3.44694 0
M  V30 4769 H 441.675 1.25955 3.01335 0
M  V30 4770 H 440.334 3.10627 1.94695 0
M  V30 4771 H 439.982 2.52074 4.35279 0
M  V30 4772 H 439.682 4.25152 4.0561 0
M  V30 4773 H 441.206 3.73363 4.83148 0
M  V30 4774 H 442.62 4.94102 2.90751 0
M  V30 4775 H 441.017 5.51582 2.36384 0
M  V30 4776 H 442.087 4.69478 1.21319 0
M  V30 4777 N 443.43 -0.535701 1.48216 0
M  V30 4778 C 444.678 -1.28928 1.55634 0
M  V30 4779 C 444.999 -1.93645 0.229514 0
M  V30 4780 O 444.269 -1.81038 -0.74846 0
M  V30 4781 H 442.849 -0.47884 0.573342 0
M  V30 4782 H 445.511 -0.623853 1.84646 0
M  V30 4783 H 444.607 -2.07157 2.33436 0
M  V30 4784 N 444.908 -1.36708 -0.784132 0
M  V30 4785 C 445.855 -1.31466 -1.89698 0
M  V30 4786 C 446.825 -0.18239 -1.65096 0
M  V30 4787 O 448.01 -0.369762 -1.87183 0
M  V30 4788 C 445.15 -1.1151 -3.26588 0
M  V30 4789 C 444.263 -2.33859 -3.63227 0
M  V30 4790 C 443.398 -2.06873 -4.89262 0
M  V30 4791 C 442.437 -3.25154 -5.18595 0
M  V30 4792 N 441.574 -2.978 -6.35814 0
M  V30 4793 H 446.414 -2.26619 -1.93515 0
M  V30 4794 H 443.951 -1.12625 -0.946256 0
M  V30 4795 H 445.909 -0.979653 -4.05535 0
M  V30 4796 H 444.539 -0.200103 -3.22179 0
M  V30 4797 H 443.591 -2.58188 -2.79362 0
M  V30 4798 H 444.903 -3.22109 -3.8085 0
M  V30 4799 H 444.057 -1.90289 -5.76086 0
M  V30 4800 H 442.796 -1.15942 -4.73718 0
M  V30 4801 H 441.801 -3.42292 -4.30251 0
M  V30 4802 H 443.026 -4.1692 -5.36055 0
M  V30 4803 H 440.972 -2.09485 -6.21653 0
M  V30 4804 H 440.889 -3.7959 -6.53794 0
M  V30 4805 H 442.157 -2.84805 -7.25607 0
M  V30 4806 N 446.386 1.0089 -1.21074 0
M  V30 4807 C 447.797 1.56056 -1.02486 0
M  V30 4808 C 448.148 1.91728 0.416506 0
M  V30 4809 O 447.273 1.73066 1.29912 0
M  V30 4810 C 447.868 2.83563 -1.85411 0
M  V30 4811 C 446.427 3.3523 -1.71166 0
M  V30 4812 C 445.574 2.0846 -1.82865 0
M  V30 4813 H 448.525 0.831818 -1.35154 0
M  V30 4814 H 448.546 3.55286 -1.36205 0
M  V30 4815 H 448.058 2.57569 -2.9031 0
M  V30 4816 H 446.159 3.66167 -0.689361 0
M  V30 4817 H 446.272 4.06913 -2.52901 0
M  V30 4818 H 444.636 2.21275 -1.26132 0
M  V30 4819 H 445.419 1.84883 -2.89263 0
M  V30 4820 N 447.864 1.01787 1.20321 0
M  V30 4821 C 449.104 0.716493 1.91431 0
M  V30 4822 C 449.468 -0.740352 1.77152 0
M  V30 4823 O 450.669 -1.1543 2.42754 0
M  V30 4824 C 448.94 1.14169 3.38674 0
M  V30 4825 S 450.499 0.962482 4.28114 0
M  V30 4826 H 447.317 0.261175 0.661293 0
M  V30 4827 H 449.919 1.30539 1.45533 0
M  V30 4828 H 448.623 2.19784 3.46588 0
M  V30 4829 H 448.154 0.545621 3.89598 0
M  V30 4830 H 450.169 -0.133253 4.96021 0
M  V30 4831 N 449.342 -1.36122 0.79427 0
M  V30 4832 C 450.305 -2.28309 0.201889 0
M  V30 4833 C 451.305 -1.49041 -0.603603 0
M  V30 4834 O 452.495 -1.68964 -0.423888 0
M  V30 4835 C 449.627 -3.3321 -0.719978 0
M  V30 4836 H 450.82 -2.82208 1.01481 0
M  V30 4837 H 448.373 -1.45768 0.564037 0
M  V30 4838 H 449.108 -2.84475 -1.55706 0
M  V30 4839 H 448.893 -3.91835 -0.144266 0
M  V30 4840 H 450.383 -4.02044 -1.12916 0
M  V30 4841 N 450.82 -0.546701 -1.47814 0
M  V30 4842 C 451.768 0.220048 -2.31557 0
M  V30 4843 C 452.762 0.919472 -1.42275 0
M  V30 4844 O 453.968 0.841953 -1.59095 0
M  V30 4845 H 450.343 0.0898334 -0.746615 0
M  V30 4846 H 452.314 -0.505589 -2.94086 0
M  V30 4847 C 451.063 1.24353 -3.24702 0
M  V30 4848 H 450.386 0.714758 -3.93359 0
M  V30 4849 H 451.826 1.75112 -3.8615 0
M  V30 4850 C 450.285 2.28593 -2.47481 0
M  V30 4851 O 450.815 3.35334 -2.21165 0
M  V30 4852 N 449.021 2.02244 -2.08676 0
M  V30 4853 H 448.568 1.15455 -2.30278 0
M  V30 4854 H 448.526 2.72207 -1.57323 0
M  V30 4855 N 452.299 1.55045 -0.282633 0
M  V30 4856 C 453.576 1.9179 0.384166 0
M  V30 4857 C 453.956 1.20778 1.73136 0
M  V30 4858 O 453.304 0.33719 2.25998 0
M  V30 4859 C 453.514 3.45149 0.517014 0
M  V30 4860 C 454.862 4.17064 0.796427 0
M  V30 4861 O 455.886 3.51084 0.601535 0
M  V30 4862 O 454.745 5.33837 1.16962 0
M  V30 4863 H 451.839 0.799483 0.211558 0
M  V30 4864 H 454.385 1.66474 -0.32934 0
M  V30 4865 H 453.157 3.88922 -0.430772 0
M  V30 4866 H 452.78 3.76443 1.2797 0
M  V30 4867 N 453.777 0.010035 1.57597 0
M  V30 4868 C 454.687 -0.994226 2.12491 0
M  V30 4869 C 455.703 -1.37013 1.07254 0
M  V30 4870 O 456.879 -1.45542 1.3921 0
M  V30 4871 C 453.944 -2.2642 2.62555 0
M  V30 4872 C 453.005 -1.95049 3.82432 0
M  V30 4873 C 452.238 -3.15991 4.30099 0
M  V30 4874 O 452.461 -4.28015 3.7704 0
M  V30 4875 O 451.395 -2.99403 5.22151 0
M  V30 4876 H 455.221 -0.557549 2.98538 0
M  V30 4877 H 452.806 -0.209413 1.47925 0
M  V30 4878 H 454.688 -3.01009 2.9491 0
M  V30 4879 H 453.363 -2.69306 1.796 0
M  V30 4880 H 452.27 -1.17904 3.55034 0
M  V30 4881 H 453.603 -1.56992 4.66491 0
M  V30 4882 N 455.255 -1.55392 -0.262866 0
M  V30 4883 C 456.165 -1.92077 -1.34698 0
M  V30 4884 C 457.181 -0.819227 -1.53508 0
M  V30 4885 O 458.357 -1.11921 -1.67439 0
M  V30 4886 C 455.422 -2.19407 -2.68443 0
M  V30 4887 C 454.483 -3.42905 -2.58292 0
M  V30 4888 C 453.716 -3.68921 -3.85659 0
M  V30 4889 O 453.939 -2.97275 -4.8681 0
M  V30 4890 O 452.873 -4.62455 -3.85252 0
M  V30 4891 H 456.699 -2.84384 -1.06581 0
M  V30 4892 H 454.284 -1.42069 -0.462264 0
M  V30 4893 H 456.166 -2.38365 -3.47506 0
M  V30 4894 H 454.841 -1.30282 -2.96325 0
M  V30 4895 H 453.748 -3.29272 -1.7757 0
M  V30 4896 H 455.081 -4.32282 -2.35358 0
M  V30 4897 N 456.733 0.527833 -1.48498 0
M  V30 4898 C 458.149 0.856571 -1.34666 0
M  V30 4899 C 458.349 1.98271 -0.35931 0
M  V30 4900 O 457.405 2.51551 0.218703 0
M  V30 4901 C 458.718 1.22207 -2.74747 0
M  V30 4902 C 460.266 1.33183 -2.83251 0
M  V30 4903 C 460.741 1.73075 -4.24039 0
M  V30 4904 N 462.232 1.80174 -4.26722 0
M  V30 4905 C 462.967 2.1243 -5.32598 0
M  V30 4906 N 462.463 2.43096 -6.4875 0
M  V30 4907 N 464.256 2.13454 -5.19994 0
M  V30 4908 H 456.407 -0.215174 -2.11307 0
M  V30 4909 H 458.67 -0.0336281 -0.947403 0
M  V30 4910 H 458.376 0.468195 -3.4857 0
M  V30 4911 H 458.25 2.17173 -3.08409 0
M  V30 4912 H 460.637 2.07647 -2.09683 0
M  V30 4913 H 460.718 0.363333 -2.53206 0
M  V30 4914 H 460.362 0.991712 -4.98124 0
M  V30 4915 H 460.292 2.70979 -4.51529 0
M  V30 4916 H 462.783 1.58744 -3.42942 0
M  V30 4917 H 463.096 2.6682 -7.25277 0
M  V30 4918 H 461.441 2.40611 -6.52021 0
M  V30 4919 H 464.632 1.88956 -4.28268 0
M  V30 4920 H 464.805 2.38261 -6.02608 0
M  V30 4921 N 458.211 1.37122 0.776871 0
M  V30 4922 C 459.158 1.3247 1.88998 0
M  V30 4923 C 460.128 0.191143 1.64997 0
M  V30 4924 O 461.313 0.379683 1.86984 0
M  V30 4925 C 458.453 1.13241 3.25992 0
M  V30 4926 C 457.566 2.35782 3.61982 0
M  V30 4927 C 456.701 2.09465 4.88158 0
M  V30 4928 C 455.74 3.279 5.16864 0
M  V30 4929 N 454.877 3.01167 6.34226 0
M  V30 4930 H 459.717 2.27642 1.9231 0
M  V30 4931 H 457.254 1.13125 0.94027 0
M  V30 4932 H 459.212 1.00115 4.0501 0
M  V30 4933 H 457.842 0.217186 3.22069 0
M  V30 4934 H 456.894 2.59666 2.77989 0
M  V30 4935 H 458.206 3.24125 3.79137 0
M  V30 4936 H 457.36 1.93341 5.75069 0
M  V30 4937 H 456.099 1.18452 4.73097 0
M  V30 4938 H 455.104 3.44569 4.2843 0
M  V30 4939 H 456.329 4.19757 5.33836 0
M  V30 4940 H 454.275 2.12779 6.20533 0
M  V30 4941 H 454.192 3.83052 6.51772 0
M  V30 4942 H 455.46 2.88649 7.24087 0
M  V30 4943 N 459.689 -1.00246 1.21608 0
M  V30 4944 C 460.636 -2.09073 0.977613 0
M  V30 4945 C 461.606 -1.65815 -0.097297 0
M  V30 4946 O 462.791 -1.90734 0.0503445 0
M  V30 4947 C 459.931 -3.40671 0.551133 0
M  V30 4948 C 459.044 -3.97326 1.69576 0
M  V30 4949 C 458.179 -5.17043 1.2182 0
M  V30 4950 C 457.218 -5.65813 2.335 0
M  V30 4951 N 456.355 -6.76778 1.86859 0
M  V30 4952 H 461.195 -2.28806 1.90924 0
M  V30 4953 H 458.732 -1.12186 0.951452 0
M  V30 4954 H 460.69 -4.16225 0.285097 0
M  V30 4955 H 459.32 -3.20967 -0.343489 0
M  V30 4956 H 458.372 -3.18734 2.07637 0
M  V30 4957 H 459.684 -4.29511 2.53617 0
M  V30 4958 H 458.838 -5.99852 0.908975 0
M  V30 4959 H 457.577 -4.86458 0.347869 0
M  V30 4960 H 456.582 -4.81599 2.65222 0
M  V30 4961 H 457.807 -5.98427 3.21033 0
M  V30 4962 H 455.753 -6.47994 1.02174 0
M  V30 4963 H 455.67 -7.08231 2.64471 0
M  V30 4964 H 456.938 -7.63116 1.58978 0
M  V30 4965 N 461.167 -1.02423 -1.1978 0
M  V30 4966 C 462.397 -0.736387 -1.93031 0
M  V30 4967 C 462.805 0.708023 -1.75453 0
M  V30 4968 O 462.148 1.4927 -1.07071 0
M  V30 4969 C 462.21 -1.00194 -3.45255 0
M  V30 4970 C 461.874 -2.43698 -3.86601 0
M  V30 4971 C 462.871 -3.41814 -3.91738 0
M  V30 4972 C 460.556 -2.77975 -4.18372 0
M  V30 4973 C 462.55 -4.72265 -4.28071 0
M  V30 4974 C 460.237 -4.08636 -4.54378 0
M  V30 4975 C 461.235 -5.05592 -4.59201 0
M  V30 4976 O 460.923 -6.33914 -4.94376 0
M  V30 4977 H 460.655 -0.269116 -0.620123 0
M  V30 4978 H 463.209 -1.37043 -1.52998 0
M  V30 4979 H 461.439 -0.310747 -3.85449 0
M  V30 4980 H 463.128 -0.704488 -3.9974 0
M  V30 4981 H 463.894 -3.16671 -3.67348 0
M  V30 4982 H 459.773 -2.0319 -4.13805 0
M  V30 4983 H 463.317 -5.4794 -4.3175 0
M  V30 4984 H 459.214 -4.33556 -4.78226 0
M  V30 4985 H 459.982 -6.38317 -5.12341 0
M  V30 4986 N 462.645 1.35699 -0.801477 0
M  V30 4987 C 463.555 2.33661 -0.209691 0
M  V30 4988 C 464.571 1.6162 0.644591 0
M  V30 4989 O 465.747 1.93529 0.557545 0
M  V30 4990 C 462.812 3.40816 0.636033 0
M  V30 4991 C 461.873 4.28639 -0.238147 0
M  V30 4992 C 461.106 5.30676 0.567307 0
M  V30 4993 O 461.329 5.41174 1.8024 0
M  V30 4994 O 460.263 6.01887 -0.0391336 0
M  V30 4995 H 464.089 2.8606 -1.01996 0
M  V30 4996 H 461.674 1.38379 -0.563164 0
M  V30 4997 H 463.556 4.06301 1.11791 0
M  V30 4998 H 462.231 2.90696 1.42399 0
M  V30 4999 H 461.138 3.66152 -0.767044 0
M  V30 5000 H 462.471 4.82143 -0.989915 0
M  V30 5001 N 464.123 0.554532 1.47522 0
M  V30 5002 C 465.055 -0.232106 2.28022 0
M  V30 5003 C 466.068 -0.881865 1.36847 0
M  V30 5004 O 467.257 -0.756168 1.61692 0
M  V30 5005 C 464.357 -1.34604 3.11022 0
M  V30 5006 C 463.53 -0.793582 4.30141 0
M  V30 5007 C 462.589 -1.79168 4.94758 0
M  V30 5008 O 461.615 -1.33886 5.5323 0
M  V30 5009 N 462.817 -3.12495 4.89211 0
M  V30 5010 H 465.582 0.458407 2.96173 0
M  V30 5011 H 463.143 0.390433 1.57122 0
M  V30 5012 H 465.135 -2.01243 3.51118 0
M  V30 5013 H 463.705 -1.93983 2.45131 0
M  V30 5014 H 462.925 0.0495025 3.94169 0
M  V30 5015 H 464.213 -0.403776 5.07195 0
M  V30 5016 H 463.611 -3.51931 4.42901 0
M  V30 5017 H 462.168 -3.74698 5.33333 0
M  V30 5018 N 465.601 -1.54893 0.290851 0
M  V30 5019 C 466.511 -2.26812 -0.59945 0
M  V30 5020 C 467.527 -1.29963 -1.15696 0
M  V30 5021 O 468.703 -1.62928 -1.18391 0
M  V30 5022 C 465.768 -2.98716 -1.75982 0
M  V30 5023 C 464.829 -4.1108 -1.2374 0
M  V30 5024 C 464.062 -4.79546 -2.34246 0
M  V30 5025 O 464.285 -4.47309 -3.53936 0
M  V30 5026 O 463.219 -5.67165 -2.01512 0
M  V30 5027 H 467.045 -3.03696 -0.0163561 0
M  V30 5028 H 464.63 -1.49289 0.0576755 0
M  V30 5029 H 466.512 -3.43851 -2.43607 0
M  V30 5030 H 465.187 -2.24737 -2.3297 0
M  V30 5031 H 464.094 -3.70367 -0.527163 0
M  V30 5032 H 465.427 -4.87007 -0.71307 0
M  V30 5033 N 467.08 -0.0183926 -1.57589 0
M  V30 5034 C 468.327 0.662562 -1.91354 0
M  V30 5035 C 468.655 1.72747 -0.893788 0
M  V30 5036 O 467.91 1.9545 0.0988509 0
M  V30 5037 C 468.209 1.32676 -3.31861 0
M  V30 5038 C 467.875 0.393267 -4.49182 0
M  V30 5039 C 466.537 0.136302 -4.81007 0
M  V30 5040 C 468.889 -0.248366 -5.20608 0
M  V30 5041 C 466.217 -0.770282 -5.81621 0
M  V30 5042 C 468.569 -1.14294 -6.22189 0
M  V30 5043 C 467.233 -1.4089 -6.52462 0
M  V30 5044 H 466.503 0.242448 -0.700214 0
M  V30 5045 H 469.15 -0.0778629 -1.91342 0
M  V30 5046 H 467.455 2.14168 -3.28084 0
M  V30 5047 H 469.152 1.86001 -3.55253 0
M  V30 5048 H 465.742 0.603723 -4.24327 0
M  V30 5049 H 469.926 -0.062883 -4.9626 0
M  V30 5050 H 465.182 -0.984154 -6.03427 0
M  V30 5051 H 469.356 -1.64637 -6.76659 0
M  V30 5052 H 466.983 -2.11306 -7.30242 0
M  V30 5053 N 468.558 1.5553 0.254621 0
M  V30 5054 C 469.468 1.92789 1.33677 0
M  V30 5055 C 470.484 0.827356 1.53071 0
M  V30 5056 O 471.66 1.12807 1.66843 0
M  V30 5057 C 468.725 2.20827 2.67275 0
M  V30 5058 C 467.786 3.4427 2.5647 0
M  V30 5059 C 467.019 3.70961 3.83697 0
M  V30 5060 O 467.242 2.99852 4.85227 0
M  V30 5061 O 466.176 4.64491 3.82794 0
M  V30 5062 H 470.002 2.84945 1.05071 0
M  V30 5063 H 467.587 1.42312 0.454723 0
M  V30 5064 H 469.469 2.40204 3.46237 0
M  V30 5065 H 468.144 1.31851 2.9563 0
M  V30 5066 H 467.051 3.30209 1.75821 0
M  V30 5067 H 468.384 4.33524 2.33062 0
M  V30 5068 N 470.036 -0.519951 1.48776 0
M  V30 5069 C 471.261 -1.30447 1.6124 0
M  V30 5070 C 471.686 -1.86055 0.276591 0
M  V30 5071 O 471.044 -1.64915 -0.753183 0
M  V30 5072 C 471.092 -2.42406 2.66967 0
M  V30 5073 O 470.196 -3.45728 2.24824 0
M  V30 5074 H 469.537 -0.385924 0.540332 0
M  V30 5075 H 472.067 -0.624572 1.94834 0
M  V30 5076 H 472.077 -2.88447 2.88552 0
M  V30 5077 H 470.752 -2.01294 3.63941 0
M  V30 5078 H 469.329 -3.05737 2.13494 0
M  V30 5079 N 471.514 -1.37532 -0.769588 0
M  V30 5080 C 472.461 -1.3347 -1.88293 0
M  V30 5081 C 473.431 -0.199891 -1.64893 0
M  V30 5082 O 474.616 -0.389594 -1.8678 0
M  V30 5083 C 471.756 -1.14968 -3.25387 0
M  V30 5084 C 470.869 -2.37698 -3.60727 0
M  V30 5085 C 470.004 -2.12051 -4.8704 0
M  V30 5086 C 469.043 -3.30636 -5.15117 0
M  V30 5087 N 468.18 -3.04527 -6.3262 0
M  V30 5088 H 473.02 -2.28658 -1.911 0
M  V30 5089 H 470.557 -1.13622 -0.934257 0
M  V30 5090 H 472.515 -1.02261 -4.04473 0
M  V30 5091 H 471.145 -0.234263 -3.21949 0
M  V30 5092 H 470.197 -2.61137 -2.76608 0
M  V30 5093 H 471.509 -3.26131 -3.77413 0
M  V30 5094 H 470.663 -1.96388 -5.74035 0
M  V30 5095 H 469.402 -1.20959 -4.72462 0
M  V30 5096 H 468.407 -3.46836 -4.26597 0
M  V30 5097 H 469.632 -4.22582 -5.31603 0
M  V30 5098 H 467.578 -2.16067 -6.19396 0
M  V30 5099 H 467.495 -3.86503 -6.49732 0
M  V30 5100 H 468.763 -2.92485 -7.22546 0
M  V30 5101 N 472.992 0.995999 -1.22138 0
M  V30 5102 C 474.238 1.7386 -1.05567 0
M  V30 5103 C 474.593 1.8808 0.405418 0
M  V30 5104 O 473.886 1.41062 1.29661 0
M  V30 5105 C 474.08 3.14553 -1.6968 0
M  V30 5106 C 473.909 3.14053 -3.21871 0
M  V30 5107 C 472.679 3.20121 -3.90961 0
M  V30 5108 C 474.877 2.98451 -4.18845 0
M  V30 5109 N 472.859 3.09342 -5.30265 0
M  V30 5110 C 474.23 2.95667 -5.4496 0
M  V30 5111 C 476.285 2.8282 -4.09777 0
M  V30 5112 C 474.988 2.78852 -6.63049 0
M  V30 5113 C 477.014 2.67364 -5.27513 0
M  V30 5114 C 476.376 2.65264 -6.52544 0
M  V30 5115 H 472.475 0.645989 -0.440706 0
M  V30 5116 H 475.059 1.1831 -1.54631 0
M  V30 5117 H 473.23 3.68353 -1.2317 0
M  V30 5118 H 474.962 3.77358 -1.4623 0
M  V30 5119 H 471.717 3.27679 -3.4194 0
M  V30 5120 H 472.141 3.0727 -6.03253 0
M  V30 5121 H 476.783 2.83243 -3.139 0
M  V30 5122 H 474.501 2.77175 -7.59078 0
M  V30 5123 H 478.087 2.56256 -5.22326 0
M  V30 5124 H 476.967 2.5345 -7.42114 0
M  V30 5125 N 474.47 1.03057 1.19235 0
M  V30 5126 C 475.417 0.612832 2.22515 0
M  V30 5127 C 476.387 -0.374224 1.61829 0
M  V30 5128 O 477.572 -0.270501 1.88873 0
M  V30 5129 C 474.712 -0.028475 3.45088 0
M  V30 5130 C 473.825 1.00483 4.20151 0
M  V30 5131 C 472.96 0.333102 5.30155 0
M  V30 5132 C 471.999 1.3522 5.96977 0
M  V30 5133 N 471.136 0.70616 6.9854 0
M  V30 5134 H 475.976 1.49812 2.57605 0
M  V30 5135 H 473.513 0.749658 1.26564 0
M  V30 5136 H 475.471 -0.417548 4.15105 0
M  V30 5137 H 474.101 -0.877334 3.10649 0
M  V30 5138 H 473.153 1.51194 3.49062 0
M  V30 5139 H 474.465 1.77929 4.65986 0
M  V30 5140 H 473.619 -0.110725 6.06599 0
M  V30 5141 H 472.358 -0.473547 4.85396 0
M  V30 5142 H 471.363 1.80627 5.19282 0
M  V30 5143 H 472.588 2.16037 6.4382 0
M  V30 5144 H 470.534 -0.0803667 6.55951 0
M  V30 5145 H 470.451 1.41848 7.42573 0
M  V30 5146 H 471.719 0.286391 7.78974 0
M  V30 5147 N 475.948 -1.35272 0.808662 0
M  V30 5148 C 477.359 -1.81179 0.450688 0
M  V30 5149 C 477.71 -1.67143 -1.02751 0
M  V30 5150 O 476.835 -1.20325 -1.79864 0
M  V30 5151 C 477.43 -3.28943 0.811275 0
M  V30 5152 C 475.989 -3.72985 0.505871 0
M  V30 5153 C 475.136 -2.57229 1.03578 0
M  V30 5154 H 478.087 -1.2322 1.00012 0
M  V30 5155 H 478.108 -3.80342 0.109588 0
M  V30 5156 H 477.62 -3.39127 1.88718 0
M  V30 5157 H 475.721 -3.68349 -0.561209 0
M  V30 5158 H 475.834 -4.67677 1.03995 0
M  V30 5159 H 474.198 -2.50548 0.458005 0
M  V30 5160 H 474.981 -2.7019 2.11784 0
M  V30 5161 N 477.426 -0.562348 -1.47226 0
M  V30 5162 C 478.359 0.230405 -2.27034 0
M  V30 5163 C 479.337 0.915609 -1.3437 0
M  V30 5164 O 480.521 0.933573 -1.63758 0
M  V30 5165 C 477.648 1.32874 -3.11548 0
M  V30 5166 C 476.694 0.751552 -4.19826 0
M  V30 5167 S 477.527 -0.405848 -5.3396 0
M  V30 5168 C 478.683 0.694186 -6.22038 0
M  V30 5169 H 478.916 -0.446811 -2.93923 0
M  V30 5170 H 476.449 -0.348781 -1.50409 0
M  V30 5171 H 478.407 1.95773 -3.60809 0
M  V30 5172 H 477.068 1.97782 -2.44011 0
M  V30 5173 H 476.261 1.57651 -4.78709 0
M  V30 5174 H 475.863 0.198645 -3.73472 0
M  V30 5175 H 478.155 1.58501 -6.58698 0
M  V30 5176 H 479.098 0.142592 -7.07956 0
M  V30 5177 H 479.506 0.989169 -5.55766 0
M  V30 5178 N 478.904 1.54736 -0.299062 0
M  V30 5179 C 479.867 2.22127 0.565012 0
M  V30 5180 C 480.867 1.20669 1.06281 0
M  V30 5181 O 482.057 1.45417 0.959145 0
M  V30 5182 C 479.189 2.90611 1.78208 0
M  V30 5183 H 480.382 2.99891 -0.0237448 0
M  V30 5184 H 477.935 1.5622 -0.0498788 0
M  V30 5185 H 478.67 2.16921 2.41072 0
M  V30 5186 H 478.455 3.64984 1.43281 0
M  V30 5187 H 479.945 3.42026 2.396 0
M  V30 5188 N 480.382 0.0267497 1.57577 0
M  V30 5189 C 481.312 -0.954308 2.13108 0
M  V30 5190 C 482.293 -1.34088 1.04663 0
M  V30 5191 O 483.478 -1.41992 1.32484 0
M  V30 5192 C 480.608 -2.23744 2.65624 0
M  V30 5193 C 479.562 -1.99168 3.78835 0
M  V30 5194 C 478.888 -3.33726 4.17769 0
M  V30 5195 C 480.188 -1.33277 5.0501 0
M  V30 5196 H 481.882 -0.491848 2.95332 0
M  V30 5197 H 479.428 -0.23514 1.42067 0
M  V30 5198 H 481.381 -2.92754 3.03106 0
M  V30 5199 H 480.105 -2.72151 1.80558 0
M  V30 5200 H 478.764 -1.32577 3.41788 0
M  V30 5201 H 478.412 -3.79888 3.29688 0
M  V30 5202 H 478.112 -3.18089 4.94058 0
M  V30 5203 H 479.636 -4.04008 4.57832 0
M  V30 5204 H 481.05 -1.92283 5.40093 0
M  V30 5205 H 479.447 -1.28045 5.8628 0
M  V30 5206 H 480.517 -0.305411 4.83937 0
M  V30 5207 N 481.861 -1.55662 -0.24637 0
M  V30 5208 C 482.771 -1.93495 -1.32653 0
M  V30 5209 C 483.787 -0.835462 -1.5263 0
M  V30 5210 O 484.963 -1.1369 -1.66242 0
M  V30 5211 C 482.028 -2.22242 -2.66101 0
M  V30 5212 C 481.089 -3.45625 -2.54641 0
M  V30 5213 C 480.322 -3.72991 -3.81724 0
M  V30 5214 O 480.545 -3.02421 -4.8363 0
M  V30 5215 O 479.479 -4.66515 -3.80325 0
M  V30 5216 H 483.305 -2.85498 -1.03559 0
M  V30 5217 H 480.89 -1.42551 -0.44717 0
M  V30 5218 H 482.772 -2.42037 -3.44958 0
M  V30 5219 H 481.447 -1.33417 -2.94926 0
M  V30 5220 H 480.354 -3.31136 -1.74067 0
M  V30 5221 H 481.687 -4.34754 -2.3076 0
M  V30 5222 N 483.339 0.512053 -1.4905 0
M  V30 5223 C 484.587 1.26436 -1.57665 0
M  V30 5224 C 484.908 1.93255 -0.260293 0
M  V30 5225 O 484.178 1.82206 0.719564 0
M  V30 5226 H 482.758 0.469658 -0.580888 0
M  V30 5227 H 485.42 0.594398 -1.85615 0
M  V30 5228 H 484.516 2.03417 -2.36702 0
M  V30 5229 N 484.817 1.37938 0.762283 0
M  V30 5230 C 486.064 1.33668 1.52115 0
M  V30 5231 C 486.392 -0.0759538 1.94352 0
M  V30 5232 O 485.647 -1.05121 1.6507 0
M  V30 5233 C 485.946 2.23042 2.79261 0
M  V30 5234 C 485.612 3.71159 2.56031 0
M  V30 5235 C 484.274 4.11523 2.49404 0
M  V30 5236 C 486.626 4.64955 2.35513 0
M  V30 5237 C 483.954 5.43784 2.20263 0
M  V30 5238 C 486.306 5.97464 2.07894 0
M  V30 5239 C 484.97 6.36922 1.99718 0
M  V30 5240 H 484.24 0.489127 0.556629 0
M  V30 5241 H 486.887 1.70224 0.877262 0
M  V30 5242 H 485.192 1.79512 3.48256 0
M  V30 5243 H 486.889 2.17047 3.37182 0
M  V30 5244 H 483.479 3.39153 2.62056 0
M  V30 5245 H 487.663 4.34623 2.39617 0
M  V30 5246 H 482.919 5.73307 2.12435 0
M  V30 5247 H 487.093 6.6969 1.91019 0
M  V30 5248 H 484.72 7.39331 1.76902 0
M  V30 5249 N 486.295 -0.989507 1.22664 0
M  V30 5250 C 487.243 -2.10148 0.997035 0
M  V30 5251 C 488.237 -1.6929 -0.0609783 0
M  V30 5252 O 489.443 -1.79766 0.0917523 0
M  V30 5253 H 485.818 -0.687256 0.305259 0
M  V30 5254 H 487.789 -2.26685 1.94053 0
M  V30 5255 C 486.538 -3.4257 0.595085 0
M  V30 5256 H 485.861 -3.74453 1.40089 0
M  V30 5257 H 487.301 -4.21344 0.473869 0
M  V30 5258 C 485.76 -3.29638 -0.695725 0
M  V30 5259 O 486.29 -3.61709 -1.74727 0
M  V30 5260 N 484.496 -2.82814 -0.668173 0
M  V30 5261 H 484.043 -2.56914 0.18787 0
M  V30 5262 H 484.001 -2.74544 -1.5321 0
M  V30 5263 N 487.773 -1.03688 -1.18687 0
M  V30 5264 C 488.721 -0.618292 -2.24232 0
M  V30 5265 C 489.715 0.353045 -1.6568 0
M  V30 5266 O 490.921 0.220749 -1.78641 0
M  V30 5267 H 487.296 -0.181711 -0.729716 0
M  V30 5268 H 489.267 -1.51893 -2.56848 0
M  V30 5269 C 488.016 0.00677342 -3.47699 0
M  V30 5270 H 487.339 -0.731692 -3.93047 0
M  V30 5271 H 488.779 0.262492 -4.23187 0
M  V30 5272 C 487.238 1.25572 -3.12623 0
M  V30 5273 O 487.768 2.34691 -3.26011 0
M  V30 5274 N 485.974 1.14755 -2.66982 0
M  V30 5275 H 485.521 0.259601 -2.56289 0
M  V30 5276 H 485.479 1.98412 -2.43885 0
M  V30 5277 N 489.251 1.34841 -0.815825 0
M  V30 5278 C 490.528 1.92908 -0.323416 0
M  V30 5279 C 490.908 1.74479 1.18828 0
M  V30 5280 O 490.256 1.11928 1.99209 0
M  V30 5281 C 490.466 3.40957 -0.744952 0
M  V30 5282 C 491.814 4.18107 -0.739716 0
M  V30 5283 O 492.838 3.49511 -0.68708 0
M  V30 5284 O 491.697 5.40517 -0.806456 0
M  V30 5285 H 488.791 0.822436 -0.0867646 0
M  V30 5286 H 491.337 1.4386 -0.90014 0
M  V30 5287 H 490.109 3.4814 -1.78646 0
M  V30 5288 H 489.732 3.97341 -0.143535 0
M  V30 5289 N 490.729 0.570148 1.46925 0
M  V30 5290 C 492.006 -0.0153259 1.95594 0
M  V30 5291 C 492.386 -1.47232 1.51281 0
M  V30 5292 O 491.734 -2.15574 0.757624 0
M  V30 5293 C 491.944 0.143624 3.48704 0
M  V30 5294 C 493.292 0.00494484 4.246 0
M  V30 5295 O 494.316 0.0718214 3.56128 0
M  V30 5296 O 493.175 -0.141175 5.46318 0
M  V30 5297 H 490.269 -0.0568819 0.825041 0
M  V30 5298 H 492.815 0.637583 1.57267 0
M  V30 5299 H 491.587 1.15699 3.73804 0
M  V30 5300 H 491.21 -0.5463 3.93829 0
M  V30 5301 N 492.207 -1.54576 0.307264 0
M  V30 5302 C 493.456 -1.99442 -0.300976 0
M  V30 5303 C 493.769 -1.19928 -1.5452 0
M  V30 5304 O 494.975 -1.55092 -2.22842 0
M  V30 5305 C 493.431 -3.55084 -0.586809 0
M  V30 5306 C 493.039 -4.43413 0.639438 0
M  V30 5307 C 494.783 -4.0846 -1.1559 0
M  V30 5308 C 492.69 -5.90499 0.326411 0
M  V30 5309 H 491.62 -0.744986 -0.116238 0
M  V30 5310 H 494.271 -1.787 0.416947 0
M  V30 5311 H 492.653 -3.71749 -1.36449 0
M  V30 5312 H 493.827 -4.38522 1.41545 0
M  V30 5313 H 492.142 -4.00842 1.1276 0
M  V30 5314 H 494.739 -5.15926 -1.40445 0
M  V30 5315 H 495.082 -3.59443 -2.10015 0
M  V30 5316 H 495.615 -3.95362 -0.439778 0
M  V30 5317 H 492.354 -6.43676 1.23939 0
M  V30 5318 H 491.874 -5.98382 -0.412212 0
M  V30 5319 H 493.553 -6.46962 -0.0697393 0
M  V30 5320 N 493.685 -0.035106 -1.57561 0
M  V30 5321 C 494.931 0.637362 -1.93156 0
M  V30 5322 C 495.286 1.69391 -0.912392 0
M  V30 5323 O 494.579 1.91469 0.070735 0
M  V30 5324 C 494.773 1.29149 -3.3325 0
M  V30 5325 C 494.602 0.29983 -4.48699 0
M  V30 5326 C 493.372 -0.102454 -5.05196 0
M  V30 5327 C 495.57 -0.448297 -5.12342 0
M  V30 5328 N 493.552 -1.08866 -6.0417 0
M  V30 5329 C 494.923 -1.28807 -6.06472 0
M  V30 5330 C 496.978 -0.508351 -4.95298 0
M  V30 5331 C 495.681 -2.18248 -6.85391 0
M  V30 5332 C 497.707 -1.39013 -5.7483 0
M  V30 5333 C 497.069 -2.21766 -6.6858 0
M  V30 5334 H 493.168 0.205358 -0.754554 0
M  V30 5335 H 495.752 -0.103682 -1.94424 0
M  V30 5336 H 493.923 2.00264 -3.3279 0
M  V30 5337 H 495.655 1.92147 -3.56177 0
M  V30 5338 H 492.41 0.273223 -4.72811 0
M  V30 5339 H 492.834 -1.57817 -6.58348 0
M  V30 5340 H 497.476 0.117197 -4.22638 0
M  V30 5341 H 495.194 -2.81855 -7.57353 0
M  V30 5342 H 498.78 -1.44096 -5.63673 0
M  V30 5343 H 497.66 -2.88892 -7.29048 0
M  V30 5344 N 495.163 1.55791 0.238111 0
M  V30 5345 C 496.126 1.90239 1.27835 0
M  V30 5346 C 497.126 0.779552 1.4064 0
M  V30 5347 O 498.316 1.04747 1.3919 0
M  V30 5348 C 495.448 2.13859 2.65475 0
M  V30 5349 H 496.641 2.83262 0.985034 0
M  V30 5350 H 494.194 1.48818 0.477799 0
M  V30 5351 H 494.929 1.23334 2.99932 0
M  V30 5352 H 494.714 2.95643 2.57561 0
M  V30 5353 H 496.204 2.41664 3.40571 0
M  V30 5354 N 496.642 -0.504142 1.49319 0
M  V30 5355 C 498.058 -0.835039 1.36012 0
M  V30 5356 C 498.258 -1.97674 0.390808 0
M  V30 5357 O 497.314 -2.51867 -0.178655 0
M  V30 5358 C 498.627 -1.17821 2.76656 0
M  V30 5359 C 500.175 -1.2866 2.85334 0
M  V30 5360 C 500.65 -1.66307 4.26739 0
M  V30 5361 N 502.141 -1.73362 4.29534 0
M  V30 5362 C 502.876 -2.0393 5.35911 0
M  V30 5363 N 502.372 -2.32744 6.52535 0
M  V30 5364 N 504.165 -2.05155 5.23324 0
M  V30 5365 H 496.316 0.248764 2.10938 0
M  V30 5366 H 498.579 0.0486962 0.946748 0
M  V30 5367 H 498.285 -0.412682 3.4927 0
M  V30 5368 H 498.159 -2.12239 3.11825 0
M  V30 5369 H 500.546 -2.04285 2.1296 0
M  V30 5370 H 500.627 -0.323004 2.53752 0
M  V30 5371 H 500.271 -0.91234 4.99639 0
M  V30 5372 H 500.201 -2.63761 4.55782 0
M  V30 5373 H 502.692 -1.53268 3.45424 0
M  V30 5374 H 503.005 -2.55248 7.2943 0
M  V30 5375 H 501.35 -2.30207 6.55767 0
M  V30 5376 H 504.541 -1.82119 4.3122 0
M  V30 5377 H 504.714 -2.28644 6.06322 0
M  V30 5378 N 498.12 -1.38341 -0.754957 0
M  V30 5379 C 499.03 -1.3769 -1.89944 0
M  V30 5380 C 500.046 -0.274194 -1.71826 0
M  V30 5381 O 501.222 -0.512391 -1.94773 0
M  V30 5382 C 498.287 -1.19938 -3.25293 0
M  V30 5383 C 497.348 -2.40001 -3.55946 0
M  V30 5384 C 496.581 -2.23087 -4.84838 0
M  V30 5385 O 496.804 -1.22386 -5.57116 0
M  V30 5386 O 495.738 -3.11646 -5.14937 0
M  V30 5387 H 499.564 -2.3412 -1.93446 0
M  V30 5388 H 497.149 -1.19246 -0.900044 0
M  V30 5389 H 499.031 -1.12093 -4.06218 0
M  V30 5390 H 497.706 -0.265919 -3.22606 0
M  V30 5391 H 496.613 -2.53421 -2.75188 0
M  V30 5392 H 497.946 -3.31973 -3.63394 0
M  V30 5393 N 499.598 0.982988 -1.23187 0
M  V30 5394 C 500.561 2.05649 -1.01198 0
M  V30 5395 C 501.561 1.6078 0.0252464 0
M  V30 5396 O 502.751 1.72878 -0.214243 0
M  V30 5397 C 499.883 3.36744 -0.530656 0
M  V30 5398 H 501.076 2.2659 -1.96461 0
M  V30 5399 H 498.629 1.15602 -1.05195 0
M  V30 5400 H 499.364 3.21492 0.425873 0
M  V30 5401 H 499.149 3.7065 -1.2791 0
M  V30 5402 H 500.639 4.15705 -0.397366 0
M  V30 5403 N 501.076 1.04316 1.18135 0
M  V30 5404 C 502.009 0.580823 2.20685 0
M  V30 5405 C 502.987 -0.385943 1.57953 0
M  V30 5406 O 504.171 -0.299654 1.86103 0
M  V30 5407 C 501.298 -0.151162 3.38363 0
M  V30 5408 C 500.344 0.769247 4.19505 0
M  V30 5409 S 501.177 2.25352 4.85774 0
M  V30 5410 C 502.333 1.53246 6.0685 0
M  V30 5411 H 502.566 1.44968 2.5956 0
M  V30 5412 H 500.099 0.85434 1.28609 0
M  V30 5413 H 502.057 -0.567315 4.06561 0
M  V30 5414 H 500.718 -0.995936 2.97892 0
M  V30 5415 H 499.911 0.203335 5.0359 0
M  V30 5416 H 499.513 1.12436 3.56699 0
M  V30 5417 H 501.805 0.82689 6.72435 0
M  V30 5418 H 502.748 2.35044 6.67952 0
M  V30 5419 H 503.156 1.0237 5.5514 0
M  V30 5420 N 502.554 -1.34406 0.822964 0
M  V30 5421 C 503.8 -1.98578 0.411666 0
M  V30 5422 C 504.133 -1.65093 -1.02264 0
M  V30 5423 O 503.408 -0.92258 -1.71227 0
M  V30 5424 C 503.691 -3.54823 0.614235 0
M  V30 5425 C 503.544 -3.9805 2.09466 0
M  V30 5426 C 504.863 -4.40071 0.050221 0
M  V30 5427 H 501.982 -0.721355 0.151047 0
M  V30 5428 H 504.624 -1.59301 1.03554 0
M  V30 5429 H 502.774 -3.88411 0.0831774 0
M  V30 5430 H 504.446 -3.74795 2.68936 0
M  V30 5431 H 502.689 -3.4836 2.5851 0
M  V30 5432 H 503.36 -5.06819 2.18721 0
M  V30 5433 H 505.836 -4.13037 0.503953 0
M  V30 5434 H 504.712 -5.48452 0.221759 0
M  V30 5435 H 504.973 -4.29576 -1.04482 0
M  V30 5436 N 504.032 -0.577932 -1.46621 0
M  V30 5437 C 505.309 0.00495287 -1.95599 0
M  V30 5438 C 505.689 1.46428 -1.5206 0
M  V30 5439 O 505.037 2.1517 -0.769046 0
M  V30 5440 C 505.247 -0.162114 -3.48623 0
M  V30 5441 C 506.595 -0.0274623 -4.24591 0
M  V30 5442 O 507.619 -0.0907067 -3.56084 0
M  V30 5443 O 506.478 0.1122 -5.46385 0
M  V30 5444 H 503.572 0.0525057 -0.825332 0
M  V30 5445 H 506.118 -0.645914 -1.56927 0
M  V30 5446 H 504.89 -1.17679 -3.73185 0
M  V30 5447 H 504.513 0.525407 -3.94113 0
M  V30 5448 N 505.51 1.54411 -0.315457 0
M  V30 5449 C 506.757 2.00419 0.289543 0
M  V30 5450 C 507.085 1.20373 1.52776 0
M  V30 5451 O 506.34 0.271769 1.93804 0
M  V30 5452 C 506.639 3.50936 0.676652 0
M  V30 5453 C 506.305 4.48532 -0.461472 0
M  V30 5454 C 504.967 4.74936 -0.773879 0
M  V30 5455 C 507.319 5.06567 -1.22637 0
M  V30 5456 C 504.647 5.56634 -1.85405 0
M  V30 5457 C 506.999 5.89441 -2.29657 0
M  V30 5458 C 505.663 6.1415 -2.61488 0
M  V30 5459 H 504.933 0.733386 0.105951 0
M  V30 5460 H 507.58 1.86434 -0.437554 0
M  V30 5461 H 505.885 3.62606 1.48405 0
M  V30 5462 H 507.582 3.83971 1.15618 0
M  V30 5463 H 504.172 4.28096 -0.207893 0
M  V30 5464 H 508.356 4.86157 -0.998271 0
M  V30 5465 H 503.612 5.74012 -2.10523 0
M  V30 5466 H 507.786 6.33432 -2.89374 0
M  V30 5467 H 505.413 6.77245 -3.45317 0
M  V30 5468 N 506.988 0.0434614 1.5754 0
M  V30 5469 C 508.218 -0.640905 1.96408 0
M  V30 5470 C 508.626 -1.65365 0.919297 0
M  V30 5471 O 507.969 -1.83395 -0.105795 0
M  V30 5472 C 508.031 -1.39141 3.31482 0
M  V30 5473 C 507.695 -0.535375 4.53853 0
M  V30 5474 C 508.692 0.195335 5.19533 0
M  V30 5475 C 506.377 -0.468564 5.0011 0
M  V30 5476 C 508.371 0.981377 6.298 0
M  V30 5477 C 506.058 0.321171 6.10255 0
M  V30 5478 C 507.056 1.04484 6.74961 0
M  V30 5479 O 506.744 1.8216 7.8299 0
M  V30 5480 H 506.476 -0.180584 0.651433 0
M  V30 5481 H 509.03 0.103848 2.05137 0
M  V30 5482 H 507.26 -2.18162 3.19284 0
M  V30 5483 H 508.949 -1.96526 3.55151 0
M  V30 5484 H 509.715 0.15314 4.84758 0
M  V30 5485 H 505.594 -1.02142 4.49542 0
M  V30 5486 H 509.138 1.54674 6.80237 0
M  V30 5487 H 505.035 0.365032 6.44467 0
M  V30 5488 H 505.803 1.74289 7.99728 0
M  V30 5489 N 508.466 -1.55915 -0.229846 0
M  V30 5490 C 509.429 -1.90914 -1.26824 0
M  V30 5491 C 510.429 -0.786999 -1.40225 0
M  V30 5492 O 511.619 -1.05484 -1.38632 0
M  V30 5493 C 508.751 -2.15264 -2.64337 0
M  V30 5494 H 509.944 -2.8378 -0.969998 0
M  V30 5495 H 507.497 -1.49069 -0.4699 0
M  V30 5496 H 508.232 -1.24923 -2.99274 0
M  V30 5497 H 508.017 -2.97005 -2.55989 0
M  V30 5498 H 509.507 -2.43467 -3.39284 0
M  V30 5499 N 509.944 0.496216 -1.49584 0
M  V30 5500 C 511.221 1.25755 -1.49816 0
M  V30 5501 C 511.601 2.09859 -0.228572 0
M  V30 5502 O 510.949 2.14449 0.788908 0
M  V30 5503 C 511.159 2.11017 -2.7798 0
M  V30 5504 C 512.507 2.70047 -3.27658 0
M  V30 5505 O 513.531 2.21281 -2.79129 0
M  V30 5506 O 512.39 3.58834 -4.1219 0
M  V30 5507 H 509.484 0.569322 -0.599834 0
M  V30 5508 H 512.03 0.510094 -1.61852 0
M  V30 5509 H 510.802 1.48879 -3.61871 0
M  V30 5510 H 510.425 2.92947 -2.68827 0
M  V30 5511 N 511.423 1.38739 0.74761 0
M  V30 5512 C 512.7 1.25791 1.49786 0
M  V30 5513 C 513.08 -0.138075 2.10648 0
M  V30 5514 O 512.428 -1.14815 1.9756 0
M  V30 5515 C 512.638 2.37265 2.55942 0
M  V30 5516 C 513.986 2.75978 3.22679 0
M  V30 5517 O 515.01 2.36621 2.6625 0
M  V30 5518 O 513.869 3.43867 4.24756 0
M  V30 5519 H 510.963 0.492251 0.664543 0
M  V30 5520 H 513.509 1.50582 0.782511 0
M  V30 5521 H 512.281 3.30644 2.0926 0
M  V30 5522 H 511.904 2.14071 3.35051 0
M  V30 5523 N 512.901 -0.976442 1.23707 0
M  V30 5524 C 513.848 -2.06952 1.02174 0
M  V30 5525 C 514.818 -1.65984 -0.0621034 0
M  V30 5526 O 516.003 -1.90584 0.0907906 0
M  V30 5527 C 513.143 -3.39425 0.62327 0
M  V30 5528 C 512.256 -3.9364 1.77966 0
M  V30 5529 C 511.391 -5.14343 1.3276 0
M  V30 5530 C 510.43 -5.60733 2.45449 0
M  V30 5531 N 509.567 -6.72662 2.01172 0
M  V30 5532 H 514.407 -2.24704 1.95734 0
M  V30 5533 H 511.944 -1.10143 0.975034 0
M  V30 5534 H 513.902 -4.15526 0.37332 0
M  V30 5535 H 512.532 -3.21624 -0.275329 0
M  V30 5536 H 511.584 -3.14258 2.14351 0
M  V30 5537 H 512.896 -4.24035 2.62671 0
M  V30 5538 H 512.05 -5.97789 1.03601 0
M  V30 5539 H 510.789 -4.8561 0.450975 0
M  V30 5540 H 509.794 -4.75865 2.75378 0
M  V30 5541 H 511.019 -5.91483 3.33654 0
M  V30 5542 H 508.965 -6.45681 1.15895 0
M  V30 5543 H 508.882 -7.02462 2.79434 0
M  V30 5544 H 510.15 -7.59572 1.75129 0
M  V30 5545 N 514.379 -1.04941 -1.1758 0
M  V30 5546 C 515.627 -0.756492 -1.87408 0
M  V30 5547 C 515.948 0.718478 -1.81281 0
M  V30 5548 O 515.218 1.519 -1.23706 0
M  V30 5549 H 513.798 -0.276841 -0.693807 0
M  V30 5550 H 516.46 -1.32803 -1.42652 0
M  V30 5551 H 515.556 -1.06918 -2.93215 0
M  V30 5552 N 515.857 1.33968 -0.830081 0
M  V30 5553 C 517.103 1.98773 -0.431394 0
M  V30 5554 C 517.458 1.64598 0.99626 0
M  V30 5555 O 516.751 0.911022 1.68555 0
M  V30 5556 C 516.945 3.52679 -0.57898 0
M  V30 5557 C 516.774 4.01807 -2.01943 0
M  V30 5558 C 515.544 4.30062 -2.65282 0
M  V30 5559 C 517.742 4.18663 -2.98707 0
M  V30 5560 N 515.724 4.65272 -4.00493 0
M  V30 5561 C 517.095 4.57133 -4.18843 0
M  V30 5562 C 519.15 4.00929 -2.95229 0
M  V30 5563 C 517.853 4.79723 -5.35965 0
M  V30 5564 C 519.879 4.2469 -4.11573 0
M  V30 5565 C 519.241 4.63454 -5.30462 0
M  V30 5566 H 515.34 0.75435 -0.206107 0
M  V30 5567 H 517.924 1.62247 -1.07629 0
M  V30 5568 H 516.095 3.88383 0.0360632 0
M  V30 5569 H 517.827 4.04412 -0.152596 0
M  V30 5570 H 514.582 4.21231 -2.16475 0
M  V30 5571 H 515.006 4.87101 -4.70172 0
M  V30 5572 H 519.648 3.70082 -2.04448 0
M  V30 5573 H 517.366 5.09434 -6.27297 0
M  V30 5574 H 520.952 4.12497 -4.10289 0
M  V30 5575 H 519.832 4.81476 -6.18992 0
M  V30 5576 N 517.335 0.585699 1.46312 0
M  V30 5577 C 518.581 0.0725284 2.0267 0
M  V30 5578 C 518.914 -1.28523 1.45586 0
M  V30 5579 O 518.189 -1.84283 0.622101 0
M  V30 5580 C 518.472 0.0099788 3.60099 0
M  V30 5581 C 518.325 1.39685 4.27561 0
M  V30 5582 C 519.644 -0.689117 4.34671 0
M  V30 5583 H 516.763 0.0278307 0.736474 0
M  V30 5584 H 519.405 0.753472 1.74421 0
M  V30 5585 H 517.555 -0.56992 3.84297 0
M  V30 5586 H 519.227 2.02215 4.14617 0
M  V30 5587 H 517.47 1.96374 3.86807 0
M  V30 5588 H 518.141 1.30553 5.36339 0
M  V30 5589 H 520.617 -0.196446 4.15636 0
M  V30 5590 H 519.493 -0.701921 5.44393 0
M  V30 5591 H 519.754 -1.75101 4.05946 0
M  V30 5592 N 518.813 -1.54241 0.323641 0
M  V30 5593 C 519.761 -2.25813 -0.557804 0
M  V30 5594 C 520.755 -1.27225 -1.11849 0
M  V30 5595 O 521.961 -1.45001 -1.06652 0
M  V30 5596 H 518.336 -0.72532 -0.198532 0
M  V30 5597 H 520.307 -2.98322 0.0681112 0
M  V30 5598 C 519.056 -3.02913 -1.70701 0
M  V30 5599 H 518.379 -3.78593 -1.28482 0
M  V30 5600 H 519.819 -3.56238 -2.29935 0
M  V30 5601 C 518.278 -2.11217 -2.62467 0
M  V30 5602 O 518.808 -1.69508 -3.64184 0
M  V30 5603 N 517.014 -1.76704 -2.30703 0
M  V30 5604 H 516.561 -2.1082 -1.48029 0
M  V30 5605 H 516.519 -1.15631 -2.92364 0
M  V30 5606 N 520.291 -0.0518155 -1.57515 0
M  V30 5607 C 521.201 0.937539 -2.15052 0
M  V30 5608 C 522.217 1.34121 -1.10849 0
M  V30 5609 O 523.393 1.418 -1.4302 0
M  V30 5610 C 520.458 2.19379 -2.68466 0
M  V30 5611 C 519.519 1.84841 -3.87469 0
M  V30 5612 C 518.752 3.04477 -4.38326 0
M  V30 5613 O 518.975 4.17868 -3.88256 0
M  V30 5614 O 517.909 2.85453 -5.29906 0
M  V30 5615 H 521.735 0.478201 -2.99912 0
M  V30 5616 H 519.32 0.17012 -1.48428 0
M  V30 5617 H 521.202 2.93084 -3.02787 0
M  V30 5618 H 519.877 2.64449 -1.86677 0
M  V30 5619 H 518.784 1.08449 -3.58036 0
M  V30 5620 H 520.117 1.44569 -4.7049 0
M  V30 5621 N 521.769 1.56035 0.221574 0
M  V30 5622 C 523.018 1.78245 0.944016 0
M  V30 5623 C 523.331 0.620371 1.85501 0
M  V30 5624 O 524.537 0.726103 2.6161 0
M  V30 5625 C 522.993 3.15659 1.7288 0
M  V30 5626 C 522.601 4.39591 0.863942 0
M  V30 5627 C 524.345 3.47195 2.44246 0
M  V30 5628 C 522.252 5.6803 1.64607 0
M  V30 5629 H 521.182 0.664547 0.356222 0
M  V30 5630 H 523.833 1.8243 0.197904 0
M  V30 5631 H 522.215 3.0565 2.51781 0
M  V30 5632 H 523.389 4.60655 0.115464 0
M  V30 5633 H 521.704 4.15572 0.262407 0
M  V30 5634 H 524.301 4.40381 3.03263 0
M  V30 5635 H 524.644 2.69693 3.1713 0
M  V30 5636 H 525.177 3.58533 1.72334 0
M  V30 5637 H 521.916 6.48425 0.960507 0
M  V30 5638 H 521.436 5.51027 2.36917 0
M  V30 5639 H 523.115 6.08203 2.20675 0
M  V30 5640 N 523.247 -0.488276 1.49845 0
M  V30 5641 C 524.177 -1.59675 1.70371 0
M  V30 5642 C 525.158 -1.60878 0.552473 0
M  V30 5643 O 526.343 -1.77417 0.78973 0
M  V30 5644 C 523.473 -2.98098 1.782 0
M  V30 5645 C 522.427 -3.11761 2.93239 0
M  V30 5646 C 521.753 -4.51661 2.86193 0
M  V30 5647 C 523.053 -2.90589 4.33999 0
M  V30 5648 H 524.747 -1.42752 2.63177 0
M  V30 5649 H 522.293 -0.685317 1.26647 0
M  V30 5650 H 524.246 -3.75555 1.91144 0
M  V30 5651 H 522.97 -3.16138 0.820018 0
M  V30 5652 H 521.629 -2.36732 2.79917 0
M  V30 5653 H 521.277 -4.66595 1.87877 0
M  V30 5654 H 520.977 -4.61742 3.63412 0
M  V30 5655 H 522.501 -5.31162 3.01163 0
M  V30 5656 H 523.915 -3.57807 4.47936 0
M  V30 5657 H 522.312 -3.1213 5.12538 0
M  V30 5658 H 523.382 -1.86595 4.4756 0
M  V30 5659 N 524.725 -1.39134 -0.740242 0
M  V30 5660 C 525.972 -1.36071 -1.49969 0
M  V30 5661 C 526.3 0.0450245 -1.94448 0
M  V30 5662 O 525.555 1.02482 -1.66721 0
M  V30 5663 C 525.854 -2.27457 -2.75678 0
M  V30 5664 C 525.52 -3.75185 -2.50094 0
M  V30 5665 C 524.182 -4.15439 -2.42825 0
M  V30 5666 C 526.534 -4.68643 -2.28086 0
M  V30 5667 C 523.862 -5.4722 -2.11584 0
M  V30 5668 C 526.214 -6.00695 -1.98363 0
M  V30 5669 C 524.878 -6.40018 -1.8956 0
M  V30 5670 H 524.148 -0.497921 -0.548777 0
M  V30 5671 H 526.795 -1.71599 -0.85007 0
M  V30 5672 H 525.1 -1.8503 -3.45356 0
M  V30 5673 H 526.797 -2.22384 -3.33686 0
M  V30 5674 H 523.387 -3.43279 -2.56627 0
M  V30 5675 H 527.571 -4.3838 -2.32672 0
M  V30 5676 H 522.827 -5.76615 -2.03287 0
M  V30 5677 H 527.001 -6.72644 -1.80341 0
M  V30 5678 H 524.628 -7.42051 -1.65117 0
M  V30 5679 N 526.204 0.969867 -1.24223 0
M  V30 5680 C 527.114 2.09806 -1.0497 0
M  V30 5681 C 528.13 1.73998 0.00886455 0
M  V30 5682 O 529.306 2.00513 -0.188848 0
M  V30 5683 C 526.371 3.40467 -0.654452 0
M  V30 5684 C 525.432 3.90236 -1.78926 0
M  V30 5685 C 524.665 5.14662 -1.41277 0
M  V30 5686 O 524.888 5.69602 -0.301632 0
M  V30 5687 O 523.822 5.58761 -2.23763 0
M  V30 5688 H 527.648 2.28942 -1.99548 0
M  V30 5689 H 525.233 1.08197 -1.03023 0
M  V30 5690 H 527.115 4.19039 -0.445452 0
M  V30 5691 H 525.79 3.22636 0.262216 0
M  V30 5692 H 524.697 3.12735 -2.05299 0
M  V30 5693 H 526.03 4.1254 -2.68462 0
M  V30 5694 N 527.682 1.05563 1.17022 0
M  V30 5695 C 528.907 0.788437 1.91829 0
M  V30 5696 C 529.332 -0.650356 1.76499 0
M  V30 5697 O 528.69 -1.45229 1.08527 0
M  V30 5698 C 528.738 1.1786 3.40795 0
M  V30 5699 O 527.842 0.312965 4.11211 0
M  V30 5700 H 527.183 0.288794 0.597908 0
M  V30 5701 H 529.713 1.40948 1.48307 0
M  V30 5702 H 529.723 1.14697 3.91546 0
M  V30 5703 H 528.398 2.22666 3.51273 0
M  V30 5704 H 526.975 0.405515 3.70689 0
M  V30 5705 N 529.16 -1.33526 0.837174 0
M  V30 5706 C 530.437 -1.92369 0.354065 0
M  V30 5707 C 530.817 -1.76348 -1.16038 0
M  V30 5708 O 530.165 -1.15083 -1.97403 0
M  V30 5709 C 530.375 -3.39728 0.799101 0
M  V30 5710 C 531.723 -4.16877 0.806139 0
M  V30 5711 O 532.747 -3.48373 0.742597 0
M  V30 5712 O 531.606 -5.39166 0.892345 0
M  V30 5713 H 528.7 -0.820952 0.0998378 0
M  V30 5714 H 531.246 -1.42409 0.922913 0
M  V30 5715 H 530.018 -3.45254 1.84162 0
M  V30 5716 H 529.641 -3.97062 0.206731 0
M  V30 5717 N 530.638 -0.59345 -1.46 0
M  V30 5718 C 531.548 0.135817 -2.34207 0
M  V30 5719 C 532.564 0.875008 -1.50398 0
M  V30 5720 O 533.74 0.835778 -1.83239 0
M  V30 5721 C 530.805 1.12977 -3.27776 0
M  V30 5722 C 529.866 0.394081 -4.27487 0
M  V30 5723 C 529.099 1.34068 -5.16586 0
M  V30 5724 O 529.322 2.5778 -5.08828 0
M  V30 5725 O 528.256 0.845426 -5.95933 0
M  V30 5726 H 532.082 -0.588691 -2.9794 0
M  V30 5727 H 529.667 -0.353784 -1.45151 0
M  V30 5728 H 531.549 1.70261 -3.85473 0
M  V30 5729 H 530.224 1.83556 -2.66625 0
M  V30 5730 H 529.131 -0.220869 -3.73447 0
M  V30 5731 H 530.464 -0.270939 -4.91454 0
M  V30 5732 N 532.116 1.54067 -0.331816 0
M  V30 5733 C 533.079 2.23275 0.517768 0
M  V30 5734 C 534.079 1.22897 1.03697 0
M  V30 5735 O 535.269 1.47419 0.928084 0
M  V30 5736 C 532.401 2.94326 1.72004 0
M  V30 5737 H 533.594 2.99773 -0.0873507 0
M  V30 5738 H 531.147 1.56079 -0.0830042 0
M  V30 5739 H 531.882 2.21986 2.36417 0
M  V30 5740 H 531.667 3.67941 1.35507 0
M  V30 5741 H 533.157 3.47031 2.32291 0
M  V30 5742 N 533.594 0.0601682 1.57485 0
M  V30 5743 C 534.843 -0.611101 1.9222 0
M  V30 5744 C 535.156 -1.71469 0.941159 0
M  V30 5745 O 536.362 -2.44473 1.18089 0
M  V30 5746 C 534.818 -1.13832 3.41424 0
M  V30 5747 C 534.426 -0.0663596 4.47951 0
M  V30 5748 C 536.17 -1.78432 3.85178 0
M  V30 5749 C 534.077 -0.606965 5.88277 0
M  V30 5750 H 533.007 -0.232033 0.71741 0
M  V30 5751 H 535.658 0.130518 1.83035 0
M  V30 5752 H 534.04 -1.93254 3.45643 0
M  V30 5753 H 535.214 0.707682 4.55333 0
M  V30 5754 H 533.529 0.482715 4.13593 0
M  V30 5755 H 536.126 -2.1989 4.87394 0
M  V30 5756 H 536.469 -2.63966 3.21913 0
M  V30 5757 H 537.002 -1.05651 3.83514 0
M  V30 5758 H 533.741 0.21095 6.5516 0
M  V30 5759 H 533.261 -1.34879 5.84438 0
M  V30 5760 H 534.94 -1.08704 6.37803 0
M  V30 5761 N 535.072 -1.5615 -0.213296 0
M  V30 5762 C 536.318 -1.79812 -0.937849 0
M  V30 5763 C 536.651 -0.631201 -1.83656 0
M  V30 5764 O 535.926 0.369165 -1.90964 0
M  V30 5765 C 536.209 -3.13613 -1.76972 0
M  V30 5766 C 536.062 -4.40766 -0.89695 0
M  V30 5767 C 537.381 -3.43931 -2.7459 0
M  V30 5768 H 534.5 -0.654138 -0.339518 0
M  V30 5769 H 537.142 -1.88877 -0.20623 0
M  V30 5770 H 535.292 -3.06015 -2.39347 0
M  V30 5771 H 536.964 -4.60392 -0.289306 0
M  V30 5772 H 535.207 -4.33326 -0.202756 0
M  V30 5773 H 535.878 -5.30843 -1.51358 0
M  V30 5774 H 538.354 -3.5171 -2.22349 0
M  V30 5775 H 537.23 -4.38706 -3.29891 0
M  V30 5776 H 537.491 -2.6651 -3.52739 0
M  V30 5777 N 536.55 0.480323 -1.50102 0
M  V30 5778 C 537.513 1.56181 -1.6775 0
M  V30 5779 C 538.513 1.51156 -0.548503 0
M  V30 5780 O 539.703 1.5394 -0.815363 0
M  V30 5781 C 536.835 2.95823 -1.69415 0
M  V30 5782 H 538.028 1.41855 -2.6423 0
M  V30 5783 H 535.581 0.70605 -1.39444 0
M  V30 5784 H 536.316 3.15604 -0.745948 0
M  V30 5785 H 536.101 3.00878 -2.51425 0
M  V30 5786 H 537.591 3.74359 -1.85054 0
M  V30 5787 N 538.028 1.39524 0.732853 0
M  V30 5788 C 539.274 1.38072 1.49358 0
M  V30 5789 C 539.629 -0.0227943 1.92386 0
M  V30 5790 O 538.922 -0.98976 1.64056 0
M  V30 5791 C 539.116 2.28916 2.74468 0
M  V30 5792 C 538.945 3.7796 2.43673 0
M  V30 5793 C 537.715 4.46874 2.35863 0
M  V30 5794 C 539.913 4.69886 2.09074 0
M  V30 5795 N 537.895 5.81242 1.97561 0
M  V30 5796 C 539.266 5.9292 1.81234 0
M  V30 5797 C 541.321 4.57887 1.95561 0
M  V30 5798 C 540.024 7.05297 1.41242 0
M  V30 5799 C 542.05 5.70187 1.56972 0
M  V30 5800 C 541.412 6.92297 1.30018 0
M  V30 5801 H 537.511 0.56051 0.5453 0
M  V30 5802 H 540.095 1.75093 0.85151 0
M  V30 5803 H 538.266 1.9405 3.36451 0
M  V30 5804 H 539.998 2.18441 3.40684 0
M  V30 5805 H 536.753 4.00341 2.5303 0
M  V30 5806 H 537.177 6.52356 1.80997 0
M  V30 5807 H 541.819 3.64014 2.15067 0
M  V30 5808 H 539.537 7.99069 1.20476 0
M  V30 5809 H 543.123 5.62892 1.47119 0
M  V30 5810 H 542.003 7.7772 1.00605 0
M  V30 5811 N 539.506 -0.963266 1.24736 0
M  V30 5812 C 540.922 -1.23273 1.01371 0
M  V30 5813 C 541.122 -1.99618 -0.274776 0
M  V30 5814 O 540.178 -2.32293 -0.989769 0
M  V30 5815 C 541.491 -2.01554 2.23152 0
M  V30 5816 C 543.039 -2.14629 2.27823 0
M  V30 5817 C 543.514 -2.96307 3.49237 0
M  V30 5818 N 545.005 -3.03887 3.49581 0
M  V30 5819 C 545.74 -3.67456 4.40186 0
M  V30 5820 N 545.236 -4.32706 5.41052 0
M  V30 5821 N 547.029 -3.64511 4.27888 0
M  V30 5822 H 539.18 -0.452294 2.07528 0
M  V30 5823 H 541.443 -0.262521 0.910926 0
M  V30 5824 H 541.149 -1.52847 3.1675 0
M  V30 5825 H 541.023 -3.02278 2.25628 0
M  V30 5826 H 543.41 -2.62537 1.34753 0
M  V30 5827 H 543.491 -1.13238 2.2937 0
M  V30 5828 H 543.135 -2.49091 4.42624 0
M  V30 5829 H 543.065 -3.97905 3.44933 0
M  V30 5830 H 545.556 -2.57477 2.76611 0
M  V30 5831 H 545.869 -4.79042 6.06415 0
M  V30 5832 H 544.214 -4.31361 5.44934 0
M  V30 5833 H 547.405 -3.12715 3.4832 0
M  V30 5834 H 547.578 -4.13768 4.98698 0
M  V30 5835 N 540.985 -1.06182 -1.16461 0
M  V30 5836 C 541.932 -0.671613 -2.20812 0
M  V30 5837 C 542.902 0.331186 -1.62765 0
M  V30 5838 O 544.087 0.22033 -1.89524 0
M  V30 5839 C 541.227 -0.063029 -3.45042 0
M  V30 5840 C 540.34 -1.11587 -4.1734 0
M  V30 5841 C 539.475 -0.473546 -5.29085 0
M  V30 5842 C 538.514 -1.51 -5.93182 0
M  V30 5843 N 537.651 -0.891118 -6.96422 0
M  V30 5844 H 542.491 -1.56589 -2.53542 0
M  V30 5845 H 540.028 -0.782951 -1.24532 0
M  V30 5846 H 541.986 0.307344 -4.16066 0
M  V30 5847 H 540.616 0.794663 -3.12866 0
M  V30 5848 H 539.668 -1.60396 -3.44931 0
M  V30 5849 H 540.98 -1.90221 -4.61104 0
M  V30 5850 H 540.134 -0.0501432 -6.06679 0
M  V30 5851 H 538.873 0.344687 -4.8648 0
M  V30 5852 H 537.878 -1.94331 -5.14311 0
M  V30 5853 H 539.103 -2.33031 -6.37866 0
M  V30 5854 H 537.049 -0.0935753 -6.55933 0
M  V30 5855 H 536.966 -1.61486 -7.38551 0
M  V30 5856 H 538.234 -0.492822 -7.77941 0
M  V30 5857 N 542.463 1.3308 -0.844243 0
M  V30 5858 C 543.393 2.3161 -0.296493 0
M  V30 5859 C 544.374 1.59215 0.598707 0
M  V30 5860 O 545.559 1.87077 0.521134 0
M  V30 5861 C 542.689 3.43313 0.524762 0
M  V30 5862 C 541.643 4.27115 -0.275106 0
M  V30 5863 C 540.969 5.30483 0.670236 0
M  V30 5864 C 542.269 5.00443 -1.49514 0
M  V30 5865 H 543.963 2.77672 -1.11976 0
M  V30 5866 H 541.509 1.33496 -0.539899 0
M  V30 5867 H 543.462 4.11273 0.918298 0
M  V30 5868 H 542.186 2.95952 1.3813 0
M  V30 5869 H 540.845 3.60787 -0.650267 0
M  V30 5870 H 540.493 4.79379 1.52332 0
M  V30 5871 H 540.193 5.87435 0.139123 0
M  V30 5872 H 541.717 6.01308 1.06117 0
M  V30 5873 H 543.131 5.61141 -1.17447 0
M  V30 5874 H 541.528 5.67071 -1.96343 0
M  V30 5875 H 542.598 4.28906 -2.26202 0
M  V30 5876 N 543.941 0.601185 1.45683 0
M  V30 5877 C 544.904 -0.111398 2.28929 0
M  V30 5878 C 545.904 -0.801246 1.39416 0
M  V30 5879 O 547.094 -0.650383 1.61603 0
M  V30 5880 C 544.226 -1.16773 3.20276 0
M  V30 5881 H 545.419 0.620412 2.93413 0
M  V30 5882 H 542.972 0.359946 1.52099 0
M  V30 5883 H 543.707 -1.93051 2.60579 0
M  V30 5884 H 543.492 -0.677358 3.86205 0
M  V30 5885 H 544.982 -1.66698 3.82886 0
M  V30 5886 N 545.419 -1.53889 0.339982 0
M  V30 5887 C 546.644 -2.05741 -0.261798 0
M  V30 5888 C 547.069 -1.21354 -1.43718 0
M  V30 5889 O 546.427 -0.22645 -1.7988 0
M  V30 5890 C 546.475 -3.54542 -0.658228 0
M  V30 5891 O 545.579 -3.7302 -1.75869 0
M  V30 5892 H 544.92 -0.662529 -0.0441672 0
M  V30 5893 H 547.45 -1.98568 0.493161 0
M  V30 5894 H 547.46 -3.9711 -0.936368 0
M  V30 5895 H 546.135 -4.15412 0.201358 0
M  V30 5896 H 544.712 -3.42355 -1.47809 0
M  V30 5897 N 546.897 -0.0685191 -1.57451 0
M  V30 5898 C 547.807 0.914677 -2.16034 0
M  V30 5899 C 548.823 1.32938 -1.12265 0
M  V30 5900 O 549.999 1.40275 -1.44516 0
M  V30 5901 C 547.064 2.16519 -2.70777 0
M  V30 5902 C 546.125 1.80721 -3.89408 0
M  V30 5903 C 545.358 2.9981 -4.41531 0
M  V30 5904 O 545.581 4.13727 -3.92666 0
M  V30 5905 O 544.515 2.79817 -5.32903 0
M  V30 5906 H 548.341 0.446364 -3.00402 0
M  V30 5907 H 545.926 0.154367 -1.486 0
M  V30 5908 H 547.808 2.89856 -3.05878 0
M  V30 5909 H 546.483 2.62454 -1.89471 0
M  V30 5910 H 545.39 1.04646 -3.59166 0
M  V30 5911 H 546.723 1.39571 -4.71997 0
M  V30 5912 N 548.375 1.56261 0.205012 0
M  V30 5913 C 549.325 1.90155 1.25798 0
M  V30 5914 C 550.309 0.766227 1.41484 0
M  V30 5915 O 551.501 1.02893 1.44021 0
M  V30 5916 C 548.63 2.23603 2.60493 0
M  V30 5917 C 547.716 3.43568 2.48639 0
M  V30 5918 N 548.107 4.61747 2.06455 0
M  V30 5919 C 546.405 3.4751 2.79558 0
M  V30 5920 C 547.106 5.43907 2.06253 0
M  V30 5921 N 546.082 4.84051 2.47377 0
M  V30 5922 H 549.884 2.79031 0.922986 0
M  V30 5923 H 547.398 1.57048 0.413501 0
M  V30 5924 H 549.395 2.46067 3.36537 0
M  V30 5925 H 548.055 1.36049 2.94823 0
M  V30 5926 H 549.066 4.86598 1.77321 0
M  V30 5927 H 545.743 2.70345 3.18151 0
M  V30 5928 H 547.133 6.48542 1.75622 0
M  V30 5929 N 549.853 -0.472356 1.50355 0
M  V30 5930 C 550.801 -1.59126 1.69651 0
M  V30 5931 C 551.795 -1.59793 0.56237 0
M  V30 5932 O 553.001 -1.63957 0.742832 0
M  V30 5933 H 549.376 -0.528008 0.535454 0
M  V30 5934 H 551.347 -1.40013 2.63513 0
M  V30 5935 C 550.096 -2.97075 1.8067 0
M  V30 5936 H 549.419 -2.9728 2.67329 0
M  V30 5937 H 550.859 -3.74825 1.98197 0
M  V30 5938 C 549.318 -3.32247 0.558016 0
M  V30 5939 O 549.848 -4.00553 -0.303399 0
M  V30 5940 N 548.054 -2.87659 0.412415 0
M  V30 5941 H 547.601 -2.32246 1.11443 0
M  V30 5942 H 547.559 -3.11556 -0.421908 0
M  V30 5943 N 551.331 -1.39911 -0.725443 0
M  V30 5944 C 552.263 -1.35301 -1.85003 0
M  V30 5945 C 553.276 -0.260102 -1.60709 0
M  V30 5946 O 554.465 -0.519749 -1.70766 0
M  V30 5947 C 551.565 -1.08039 -3.21218 0
M  V30 5948 C 550.738 -2.28793 -3.7279 0
M  V30 5949 C 549.797 -1.97841 -4.87591 0
M  V30 5950 O 548.823 -2.70616 -5.00755 0
M  V30 5951 N 550.025 -0.950367 -5.72668 0
M  V30 5952 H 552.79 -2.32218 -1.89459 0
M  V30 5953 H 550.351 -1.34137 -0.90658 0
M  V30 5954 H 552.343 -0.853354 -3.95601 0
M  V30 5955 H 550.913 -0.198229 -3.11971 0
M  V30 5956 H 550.133 -2.67388 -2.8965 0
M  V30 5957 H 551.421 -3.09317 -4.03981 0
M  V30 5958 H 550.819 -0.347436 -5.64632 0
M  V30 5959 H 549.376 -0.783232 -6.47077 0
M  V30 5960 N 552.809 0.956637 -1.25245 0
M  V30 5961 C 554.057 1.69764 -1.09657 0
M  V30 5962 C 554.378 1.91583 0.363464 0
M  V30 5963 O 553.648 1.50149 1.25825 0
M  V30 5964 H 552.228 0.629097 -0.402798 0
M  V30 5965 H 554.89 1.15026 -1.57337 0
M  V30 5966 H 553.986 2.67769 -1.60331 0
M  V30 5967 N 554.287 1.06798 1.15896 0
M  V30 5968 C 555.536 0.782796 1.8589 0
M  V30 5969 C 555.849 -0.693498 1.82893 0
M  V30 5970 O 557.055 -1.09325 2.48516 0
M  V30 5971 C 555.511 1.3502 3.33613 0
M  V30 5972 C 555.119 2.8571 3.45071 0
M  V30 5973 C 556.863 1.14278 4.08829 0
M  V30 5974 C 554.77 3.35669 4.86909 0
M  V30 5975 H 553.7 0.289149 0.696354 0
M  V30 5976 H 556.351 1.28734 1.30766 0
M  V30 5977 H 554.733 0.773407 3.88374 0
M  V30 5978 H 555.907 3.49385 3.00445 0
M  V30 5979 H 554.222 3.05178 2.83294 0
M  V30 5980 H 556.819 1.49087 5.13495 0
M  V30 5981 H 557.162 0.0814575 4.1622 0
M  V30 5982 H 557.695 1.68563 3.60321 0
M  V30 5983 H 554.434 4.41302 4.84698 0
M  V30 5984 H 553.954 2.76745 5.32139 0
M  V30 5985 H 555.633 3.31296 5.55745 0
M  V30 5986 N 555.766 -1.3263 0.851289 0
M  V30 5987 C 556.698 -2.27824 0.250757 0
M  V30 5988 C 557.711 -1.52285 -0.575598 0
M  V30 5989 O 558.9 -1.73946 -0.400638 0
M  V30 5990 C 556 -3.3232 -0.664571 0
M  V30 5991 C 555.173 -4.37221 0.125187 0
M  V30 5992 C 554.232 -5.21314 -0.715385 0
M  V30 5993 O 553.258 -5.69002 -0.150111 0
M  V30 5994 N 554.46 -5.43823 -2.03069 0
M  V30 5995 H 557.225 -2.79997 1.06873 0
M  V30 5996 H 554.786 -1.45455 0.710943 0
M  V30 5997 H 556.778 -3.85486 -1.23216 0
M  V30 5998 H 555.348 -2.80331 -1.38323 0
M  V30 5999 H 554.568 -3.84384 0.874199 0
M  V30 6000 H 555.856 -5.04399 0.667774 0
M  V30 6001 H 555.254 -5.06803 -2.51332 0
M  V30 6002 H 553.811 -5.99998 -2.54648 0
M  V30 6003 N 557.244 -0.608902 -1.45362 0
M  V30 6004 C 558.472 -0.111013 -2.06602 0
M  V30 6005 C 558.887 1.20516 -1.45332 0
M  V30 6006 O 558.244 1.73437 -0.567978 0
M  V30 6007 C 558.295 0.033688 -3.61484 0
M  V30 6008 O 558.016 -1.23041 -4.20467 0
M  V30 6009 C 559.517 0.562882 -4.39712 0
M  V30 6010 H 556.737 -0.0694453 -0.667397 0
M  V30 6011 H 559.281 -0.837008 -1.86586 0
M  V30 6012 H 557.436 0.710016 -3.80838 0
M  V30 6013 H 557.85 -1.06094 -5.13658 0
M  V30 6014 H 559.324 0.613213 -5.48583 0
M  V30 6015 H 559.801 1.58543 -4.09586 0
M  V30 6016 H 560.407 -0.0794454 -4.25226 0
M  V30 6017 N 558.722 1.53707 -0.348139 0
M  V30 6018 C 559.654 2.22725 0.540946 0
M  V30 6019 C 560.667 1.2354 1.06027 0
M  V30 6020 O 561.856 1.49867 0.96964 0
M  V30 6021 C 558.956 2.89756 1.75768 0
M  V30 6022 C 558.129 4.15297 1.37285 0
M  V30 6023 C 557.188 4.65697 2.44976 0
M  V30 6024 O 556.214 5.29798 2.08092 0
M  V30 6025 N 557.416 4.42017 3.763 0
M  V30 6026 H 560.181 2.99658 -0.0501592 0
M  V30 6027 H 557.742 1.60979 -0.17248 0
M  V30 6028 H 559.734 3.20388 2.47252 0
M  V30 6029 H 558.304 2.16382 2.25605 0
M  V30 6030 H 557.524 3.9116 0.488584 0
M  V30 6031 H 558.812 4.96948 1.09179 0
M  V30 6032 H 558.21 3.9076 4.09051 0
M  V30 6033 H 556.767 4.77242 4.4394 0
M  V30 6034 N 560.2 0.0768682 1.57412 0
M  V30 6035 C 561.163 -0.873949 2.11884 0
M  V30 6036 C 562.163 -1.22301 1.04398 0
M  V30 6037 O 563.353 -1.15545 1.30365 0
M  V30 6038 C 560.485 -2.17575 2.62438 0
M  V30 6039 H 561.678 -0.401278 2.97203 0
M  V30 6040 H 559.231 -0.171904 1.55352 0
M  V30 6041 H 559.966 -2.69368 1.80587 0
M  V30 6042 H 559.751 -1.93534 3.41009 0
M  V30 6043 H 561.241 -2.85631 3.04639 0
M  V30 6044 N 561.678 -1.56367 -0.196722 0
M  V30 6045 C 562.628 -1.9082 -1.24787 0
M  V30 6046 C 563.612 -0.773719 -1.41076 0
M  V30 6047 O 564.804 -1.03655 -1.43474 0
M  V30 6048 C 561.933 -2.24982 -2.59303 0
M  V30 6049 C 561.019 -3.44882 -2.46814 0
M  V30 6050 N 561.41 -4.62835 -2.04003 0
M  V30 6051 C 559.708 -3.48988 -2.77711 0
M  V30 6052 C 560.409 -5.44993 -2.03366 0
M  V30 6053 N 559.385 -4.85356 -2.44807 0
M  V30 6054 H 563.187 -2.79516 -0.908175 0
M  V30 6055 H 560.701 -1.57265 -0.405166 0
M  V30 6056 H 562.698 -2.47848 -3.35227 0
M  V30 6057 H 561.358 -1.37611 -2.94098 0
M  V30 6058 H 562.369 -4.87532 -1.74738 0
M  V30 6059 H 559.046 -2.72029 -3.16712 0
M  V30 6060 H 560.436 -6.49464 -1.72181 0
M  V30 6061 N 563.156 0.464375 -1.50603 0
M  V30 6062 C 564.402 1.21776 -1.62168 0
M  V30 6063 C 564.735 1.91476 -0.324154 0
M  V30 6064 O 564.01 1.8242 0.674782 0
M  V30 6065 C 564.293 2.25614 -2.80661 0
M  V30 6066 C 564.146 1.60175 -4.20314 0
M  V30 6067 C 565.465 3.26862 -2.94702 0
M  V30 6068 H 562.584 0.44137 -0.590222 0
M  V30 6069 H 565.226 0.510623 -1.8301 0
M  V30 6070 H 563.376 2.85923 -2.63021 0
M  V30 6071 H 565.048 1.03411 -4.4956 0
M  V30 6072 H 563.291 0.904697 -4.24261 0
M  V30 6073 H 563.962 2.35665 -4.99165 0
M  V30 6074 H 566.438 2.76582 -3.10872 0
M  V30 6075 H 565.314 3.96839 -3.79223 0
M  V30 6076 H 565.575 3.91382 -2.05603 0
M  V30 6077 N 564.634 1.40294 0.718013 0
M  V30 6078 C 565.859 1.41941 1.5122 0
M  V30 6079 C 566.284 0.0202371 1.88089 0
M  V30 6080 O 565.642 -0.971078 1.53101 0
M  V30 6081 C 565.69 2.3141 2.76554 0
M  V30 6082 O 564.794 1.75567 3.73162 0
M  V30 6083 H 564.135 0.482644 0.456016 0
M  V30 6084 H 566.665 1.84494 0.884478 0
M  V30 6085 H 566.675 2.46513 3.25108 0
M  V30 6086 H 565.35 3.33085 2.49053 0
M  V30 6087 H 563.927 1.69798 3.31999 0
M  V30 6088 N 566.112 -0.949982 1.2575 0
M  V30 6089 C 567.36 -1.6918 1.10555 0
M  V30 6090 C 567.681 -1.91773 -0.353298 0
M  V30 6091 O 566.951 -1.50814 -1.25027 0
M  V30 6092 H 565.531 -0.626952 0.406129 0
M  V30 6093 H 568.193 -1.1419 1.57945 0
M  V30 6094 H 567.289 -2.66915 1.61749 0
M  V30 6095 O 567.629 -1.19786 -1.08322 0
M  V30 6096 H 568.32 -0.948322 -1.68898 0
M  V30 END ATOM
M  V30 BEGIN BOND
M  V30 END BOND
M  V30 END CTAB
M  END
$$$$
