drugbank_target|Q86DI9 Sodium channel protein (DB13746)
 OpenBabel12092121133D

  0  0  0     0  0            999 V3000
M  V30 BEGIN CTAB
M  V30 COUNTS 32579 32952 0 0 0
M  V30 BEGIN ATOM
M  V30 1 H -0.908 1.98254 -0.117106 0
M  V30 2 N 0 1.576 0 0
M  V30 3 C 0.933 2.03868 1.02534 0
M  V30 4 C 1.911 0.928543 1.3348 0
M  V30 5 O 3.095 1.19667 1.45644 0
M  V30 6 C 0.222 2.43627 2.35294 0
M  V30 7 C -0.732 3.65373 2.2001 0
M  V30 8 S 0.101 5.13292 1.52614 0
M  V30 9 C 1.257 5.56322 2.86805 0
M  V30 10 H 1.49 2.90518 0.631377 0
M  V30 11 H -0.977 1.52953 0.210867 0
M  V30 12 H 0.981 2.67203 3.11629 0
M  V30 13 H -0.358 1.57376 2.7183 0
M  V30 14 H -1.165 3.90944 3.18086 0
M  V30 15 H -1.563 3.418 1.51819 0
M  V30 16 H 0.729 5.58782 3.83104 0
M  V30 17 H 1.672 6.56266 2.65933 0
M  V30 18 H 2.08 4.83886 2.90714 0
M  V30 19 N 1.4781 -0.272755 1.55222 0
M  V30 20 C 2.7031 -1.02683 1.80197 0
M  V30 21 C 3.1281 -1.79142 0.573551 0
M  V30 22 O 2.4861 -1.74917 -0.476849 0
M  V30 23 C 2.5341 -1.9609 3.02624 0
M  V30 24 O 1.6381 -3.04863 2.77727 0
M  V30 25 H 0.9791 -0.293557 0.595584 0
M  V30 26 H 3.5091 -0.30159 2.02365 0
M  V30 27 H 3.5191 -2.38039 3.31363 0
M  V30 28 H 2.1941 -1.39851 3.91682 0
M  V30 29 H 0.7711 -2.67228 2.60084 0
M  V30 30 N 2.9562 -1.48159 -0.537278 0
M  V30 31 C 4.2332 -1.46291 -1.29839 0
M  V30 32 C 4.6132 -0.170613 -2.10409 0
M  V30 33 O 3.9612 0.847746 -2.12192 0
M  V30 34 C 4.1712 -2.72055 -2.18603 0
M  V30 35 C 5.5192 -3.20087 -2.7898 0
M  V30 36 O 6.5432 -2.72921 -2.28894 0
M  V30 37 O 5.4022 -4.02138 -3.70064 0
M  V30 38 H 2.4962 -0.583906 -0.585647 0
M  V30 39 H 5.0422 -1.60384 -0.554534 0
M  V30 40 H 3.8142 -3.57628 -1.58801 0
M  V30 41 H 3.4372 -2.60646 -3.00249 0
M  V30 42 N 4.4343 0.785586 -1.36625 0
M  V30 43 C 5.6833 1.53883 -1.30396 0
M  V30 44 C 5.9963 1.95271 0.113452 0
M  V30 45 O 7.2023 2.69858 0.298142 0
M  V30 46 C 5.6583 2.77808 -2.28802 0
M  V30 47 C 5.2663 2.43574 -3.75999 0
M  V30 48 C 7.0103 3.55783 -2.31558 0
M  V30 49 C 4.9173 3.63919 -4.66173 0
M  V30 50 H 3.8473 0.577678 -0.484566 0
M  V30 51 H 6.4983 0.861705 -1.62009 0
M  V30 52 H 4.8803 3.47339 -1.90188 0
M  V30 53 H 6.0543 1.81916 -4.23371 0
M  V30 54 H 4.3693 1.78803 -3.76056 0
M  V30 55 H 6.9663 4.45205 -2.96137 0
M  V30 56 H 7.3093 3.94644 -1.3252 0
M  V30 57 H 7.8423 2.93235 -2.68809 0
M  V30 58 H 4.5813 3.3015 -5.66287 0
M  V30 59 H 4.1013 4.2473 -4.23515 0
M  V30 60 H 5.7803 4.30901 -4.82632 0
M  V30 61 N 5.9124 1.20967 1.01018 0
M  V30 62 C 7.1374 1.0503 1.78839 0
M  V30 63 C 7.5624 -0.395752 1.8389 0
M  V30 64 O 6.9204 -1.28529 1.27867 0
M  V30 65 C 6.9684 1.64602 3.2084 0
M  V30 66 O 6.0724 0.887988 4.02726 0
M  V30 67 H 5.4134 0.369987 0.551367 0
M  V30 68 H 7.9434 1.60399 1.27018 0
M  V30 69 H 7.9534 1.68607 3.71532 0
M  V30 70 H 6.6284 2.69841 3.16479 0
M  V30 71 H 5.2054 0.922648 3.61305 0
M  V30 72 N 7.3905 -1.2043 1.01659 0
M  V30 73 C 8.6675 -1.8548 0.621004 0
M  V30 74 C 9.0475 -1.9091 -0.900919 0
M  V30 75 O 8.3955 -1.41694 -1.79263 0
M  V30 76 C 8.6055 -3.25119 1.2688 0
M  V30 77 C 9.9535 -4.01403 1.38423 0
M  V30 78 O 10.9775 -3.34473 1.22501 0
M  V30 79 O 9.8365 -5.21265 1.64151 0
M  V30 80 H 6.9305 -0.798761 0.214266 0
M  V30 81 H 9.4765 -1.28019 1.11396 0
M  V30 82 H 8.2485 -3.15932 2.30873 0
M  V30 83 H 7.8715 -3.90212 0.762917 0
M  V30 84 N 8.8686 -0.792821 -1.36206 0
M  V30 85 C 10.1156 -0.366786 -1.99151 0
M  V30 86 C 10.4436 1.06243 -1.62919 0
M  V30 87 O 9.6986 1.74927 -0.877442 0
M  V30 88 C 9.9976 -0.481501 -3.54142 0
M  V30 89 C 9.6636 -1.87202 -4.10203 0
M  V30 90 C 8.3256 -2.25248 -4.25226 0
M  V30 91 C 10.6776 -2.78237 -4.40719 0
M  V30 92 C 8.0056 -3.53723 -4.68078 0
M  V30 93 C 10.3576 -4.06144 -4.85005 0
M  V30 94 C 9.0216 -4.44207 -4.98234 0
M  V30 95 H 8.2916 -0.134217 -0.728743 0
M  V30 96 H 10.9386 -1.01094 -1.62641 0
M  V30 97 H 9.2436 0.246146 -3.91026 0
M  V30 98 H 10.9406 -0.132844 -4.0078 0
M  V30 99 H 7.5306 -1.56639 -3.98951 0
M  V30 100 H 11.7146 -2.50097 -4.28679 0
M  V30 101 H 6.9706 -3.8308 -4.76508 0
M  V30 102 H 11.1446 -4.76796 -5.07581 0
M  V30 103 H 8.7716 -5.43814 -5.31197 0
M  V30 104 N 10.3467 1.47872 -0.545128 0
M  V30 105 C 11.2967 2.26842 0.229456 0
M  V30 106 C 12.2807 1.33626 0.896267 0
M  V30 107 O 13.4727 1.58063 0.79657 0
M  V30 108 C 10.6017 3.19089 1.26638 0
M  V30 109 C 9.6877 4.19783 0.603598 0
M  V30 110 N 10.0787 5.0479 -0.319405 0
M  V30 111 C 8.3767 4.3765 0.858989 0
M  V30 112 C 9.0777 5.77433 -0.703241 0
M  V30 113 N 8.0537 5.43566 -0.0608309 0
M  V30 114 H 11.8557 2.89947 -0.480391 0
M  V30 115 H 9.3697 1.58263 -0.364209 0
M  V30 116 H 11.3667 3.74337 1.83515 0
M  V30 117 H 10.0267 2.5754 1.97745 0
M  V30 118 H 11.0377 5.13244 -0.692889 0
M  V30 119 H 7.7147 3.87281 1.55948 0
M  V30 120 H 9.1047 6.55824 -1.46098 0
M  V30 121 N 11.8248 0.280983 1.55075 0
M  V30 122 C 13.0498 -0.340154 2.04592 0
M  V30 123 C 13.4748 -1.48246 1.15779 0
M  V30 124 O 12.8328 -1.80614 0.15761 0
M  V30 125 C 12.8808 -0.793104 3.5177 0
M  V30 126 O 11.9848 -1.89981 3.66034 0
M  V30 127 H 11.3258 -0.0694289 0.66036 0
M  V30 128 H 13.8558 0.416993 2.00306 0
M  V30 129 H 13.8658 -1.08729 3.93245 0
M  V30 130 H 12.5408 0.0426163 4.15878 0
M  V30 131 H 11.1178 -1.60771 3.36463 0
M  V30 132 N 13.3029 -1.57598 0.00835791 0
M  V30 133 C 14.2129 -2.12385 -0.996487 0
M  V30 134 C 15.2289 -1.07108 -1.37127 0
M  V30 135 O 16.4049 -1.39055 -1.4569 0
M  V30 136 C 13.4699 -2.62314 -2.26699 0
M  V30 137 C 12.5309 -3.82225 -1.95456 0
M  V30 138 C 11.7639 -4.29763 -3.16449 0
M  V30 139 O 11.9869 -3.76584 -4.28416 0
M  V30 140 O 10.9209 -5.21832 -2.99958 0
M  V30 141 H 14.7469 -2.98479 -0.560725 0
M  V30 142 H 12.3319 -1.47903 -0.210987 0
M  V30 143 H 14.2139 -2.94589 -3.01322 0
M  V30 144 H 12.8889 -1.79313 -2.69497 0
M  V30 145 H 11.7959 -3.54909 -1.18282 0
M  V30 146 H 13.1289 -4.66324 -1.57489 0
M  V30 147 N 14.781 0.264519 -1.55364 0
M  V30 148 C 15.691 1.34902 -1.91934 0
M  V30 149 C 16.707 1.53595 -0.817593 0
M  V30 150 O 17.883 1.67558 -1.11742 0
M  V30 151 C 14.948 2.68676 -2.19121 0
M  V30 152 C 14.009 2.58657 -3.4263 0
M  V30 153 C 13.242 3.86051 -3.68511 0
M  V30 154 O 13.465 4.87126 -2.96757 0
M  V30 155 O 12.399 3.85744 -4.62045 0
M  V30 156 H 16.225 1.06883 -2.8427 0
M  V30 157 H 13.81 0.463775 -1.42019 0
M  V30 158 H 15.692 3.47759 -2.37995 0
M  V30 159 H 14.367 2.96463 -1.29966 0
M  V30 160 H 13.274 1.7792 -3.29082 0
M  V30 161 H 14.607 2.35818 -4.32031 0
M  V30 162 N 16.2591 1.48442 0.529413 0
M  V30 163 C 17.1691 1.6569 1.66084 0
M  V30 164 C 18.1851 0.539432 1.65427 0
M  V30 165 O 19.3611 0.810572 1.84368 0
M  V30 166 C 16.4261 1.69315 3.02545 0
M  V30 167 C 15.4871 2.92694 3.14052 0
M  V30 168 C 14.7201 2.96137 4.44003 0
M  V30 169 O 14.9431 2.07973 5.31134 0
M  V30 170 O 13.8771 3.88312 4.59888 0
M  V30 171 H 17.7031 2.61483 1.54469 0
M  V30 172 H 15.2881 1.3185 0.702567 0
M  V30 173 H 17.1701 1.74217 3.83701 0
M  V30 174 H 15.8451 0.766966 3.14483 0
M  V30 175 H 14.7521 2.93324 2.32189 0
M  V30 176 H 16.0851 3.84699 3.0703 0
M  V30 177 N 17.7372 -0.778329 1.37039 0
M  V30 178 C 18.6692 -1.90034 1.2814 0
M  V30 179 C 19.6822 -1.61585 0.198558 0
M  V30 180 O 20.8712 -1.72625 0.454175 0
M  V30 181 C 17.9712 -3.25108 0.956968 0
M  V30 182 C 17.1442 -3.81253 2.14394 0
M  V30 183 C 16.2032 -4.94789 1.79082 0
M  V30 184 O 15.2292 -5.10721 2.51301 0
M  V30 185 N 16.4312 -5.75878 0.731043 0
M  V30 186 H 19.1962 -1.98186 2.24816 0
M  V30 187 H 16.7572 -0.957129 1.30578 0
M  V30 188 H 18.7492 -3.9857 0.701701 0
M  V30 189 H 17.3192 -3.125 0.0789812 0
M  V30 190 H 16.5392 -2.99647 2.56135 0
M  V30 191 H 17.8272 -4.15495 2.93668 0
M  V30 192 H 17.2252 -5.65547 0.131618 0
M  V30 193 H 15.7822 -6.49596 0.535622 0
M  V30 194 N 19.2153 -1.21501 -1.00376 0
M  V30 195 C 20.6313 -0.972629 -1.26539 0
M  V30 196 C 20.8313 0.340257 -1.98606 0
M  V30 197 O 19.8873 1.06561 -2.28913 0
M  V30 198 C 21.2003 -2.16404 -2.08781 0
M  V30 199 C 22.7483 -2.20643 -2.22004 0
M  V30 200 C 23.2233 -3.39306 -3.07629 0
M  V30 201 N 24.7143 -3.39401 -3.15217 0
M  V30 202 C 25.4493 -4.27867 -3.81729 0
M  V30 203 N 24.9453 -5.26533 -4.5026 0
M  V30 204 N 26.7383 -4.15672 -3.78382 0
M  V30 205 H 18.8893 -2.05929 -0.520281 0
M  V30 206 H 21.1523 -0.901803 -0.292328 0
M  V30 207 H 20.8583 -3.11554 -1.63178 0
M  V30 208 H 20.7323 -2.15567 -3.09533 0
M  V30 209 H 23.1193 -1.26048 -2.66825 0
M  V30 210 H 23.2003 -2.25523 -1.20718 0
M  V30 211 H 22.8443 -4.34195 -2.63509 0
M  V30 212 H 22.7743 -3.31665 -4.09031 0
M  V30 213 H 25.2653 -2.67997 -2.66432 0
M  V30 214 H 25.5783 -5.90337 -4.98721 0
M  V30 215 H 23.9233 -5.30457 -4.49044 0
M  V30 216 H 27.1143 -3.3785 -3.23998 0
M  V30 217 H 27.2873 -4.84825 -4.2994 0
M  V30 218 N 20.6934 1.19889 -1.02296 0
M  V30 219 C 21.6234 2.25141 -0.619174 0
M  V30 220 C 22.6044 1.66051 0.368915 0
M  V30 221 O 23.7894 1.92546 0.252941 0
M  V30 222 C 20.9194 3.4728 0.0368783 0
M  V30 223 C 19.8734 4.19005 -0.872865 0
M  V30 224 C 19.1994 5.34637 -0.0822402 0
M  V30 225 C 20.4994 4.74452 -2.18387 0
M  V30 226 H 22.1934 2.59171 -1.49903 0
M  V30 227 H 19.7394 1.24579 -0.722222 0
M  V30 228 H 21.6924 4.20098 0.330958 0
M  V30 229 H 20.4164 3.12433 0.95149 0
M  V30 230 H 19.0754 3.48061 -1.15105 0
M  V30 231 H 18.7234 4.96034 0.83422 0
M  V30 232 H 18.4234 5.83557 -0.688149 0
M  V30 233 H 19.9474 6.10255 0.205238 0
M  V30 234 H 21.3614 5.39055 -1.95172 0
M  V30 235 H 19.7584 5.33834 -2.74119 0
M  V30 236 H 20.8284 3.92844 -2.84257 0
M  V30 237 N 22.1715 0.800033 1.35784 0
M  V30 238 C 23.4185 0.377342 1.98953 0
M  V30 239 C 23.7465 -1.05378 1.6348 0
M  V30 240 O 23.0015 -1.74459 0.886707 0
M  V30 241 C 23.3005 0.500276 3.53881 0
M  V30 242 C 22.9665 1.89375 4.09204 0
M  V30 243 C 21.6285 2.27499 4.24025 0
M  V30 244 C 23.9805 2.8057 4.39238 0
M  V30 245 C 21.3085 3.562 4.66195 0
M  V30 246 C 23.6605 4.0871 4.82844 0
M  V30 247 C 22.3245 4.46843 4.95871 0
M  V30 248 H 21.5945 0.138079 0.728021 0
M  V30 249 H 24.2415 1.01955 1.62103 0
M  V30 250 H 22.5465 -0.225405 3.91151 0
M  V30 251 H 24.2435 0.154097 4.00704 0
M  V30 252 H 20.8335 1.58753 3.98115 0
M  V30 253 H 25.0175 2.52367 4.27346 0
M  V30 254 H 20.2735 3.85602 4.74469 0
M  V30 255 H 24.4475 4.79481 5.05046 0
M  V30 256 H 22.0745 5.46623 5.28306 0
M  V30 257 N 23.6496 -1.47581 0.552962 0
M  V30 258 C 25.0656 -1.5818 0.212424 0
M  V30 259 C 25.2656 -1.55213 -1.28496 0
M  V30 260 O 24.3216 -1.45329 -2.06484 0
M  V30 261 C 25.6346 -2.88865 0.835318 0
M  V30 262 C 27.1826 -3.0244 0.806156 0
M  V30 263 C 27.6576 -4.35819 1.40804 0
M  V30 264 N 29.1486 -4.42444 1.37103 0
M  V30 265 C 29.8836 -5.44202 1.80641 0
M  V30 266 N 29.3796 -6.52795 2.32015 0
M  V30 267 N 31.1726 -5.35222 1.71738 0
M  V30 268 H 23.3236 -1.47753 1.52587 0
M  V30 269 H 25.5866 -0.702941 0.636064 0
M  V30 270 H 25.2926 -2.9676 1.88749 0
M  V30 271 H 25.1666 -3.7579 0.325848 0
M  V30 272 H 27.5536 -2.94144 -0.237317 0
M  V30 273 H 27.6346 -2.17068 1.35334 0
M  V30 274 H 27.2786 -4.44871 2.45056 0
M  V30 275 H 27.2086 -5.19916 0.836338 0
M  V30 276 H 29.6996 -3.6456 0.995202 0
M  V30 277 H 30.0126 -7.26609 2.63171 0
M  V30 278 H 28.3576 -6.53696 2.36023 0
M  V30 279 H 31.5486 -4.49284 1.31382 0
M  V30 280 H 31.7216 -6.14389 2.05987 0
M  V30 281 N 25.1277 -0.289203 -1.54924 0
M  V30 282 C 26.5387 0.205791 -1.85562 0
M  V30 283 C 26.8897 1.54351 -1.2112 0
M  V30 284 O 26.0147 2.10435 -0.504601 0
M  V30 285 C 26.6097 0.380177 -3.3666 0
M  V30 286 C 25.1687 0.819395 -3.67373 0
M  V30 287 C 24.3157 -0.079159 -2.77187 0
M  V30 288 H 27.2667 -0.510577 -1.50262 0
M  V30 289 H 27.2877 1.21659 -3.60526 0
M  V30 290 H 26.7997 -0.593589 -3.83534 0
M  V30 291 H 24.9007 1.80413 -3.26009 0
M  V30 292 H 25.0137 0.646957 -4.74712 0
M  V30 293 H 23.3777 0.439565 -2.50878 0
M  V30 294 H 24.1607 -1.04906 -3.26878 0
M  V30 295 N 26.6058 1.57591 -0.0167156 0
M  V30 296 C 27.8528 1.91283 0.664597 0
M  V30 297 C 28.1808 0.891949 1.72842 0
M  V30 298 O 27.4358 -0.100931 1.9544 0
M  V30 299 C 27.7348 3.3172 1.33029 0
M  V30 300 C 27.4008 4.4914 0.398047 0
M  V30 301 C 26.0628 4.80992 0.141421 0
M  V30 302 C 28.4148 5.20634 -0.242825 0
M  V30 303 C 25.7428 5.81703 -0.764092 0
M  V30 304 C 28.0948 6.22311 -1.13632 0
M  V30 305 C 26.7588 6.52611 -1.40196 0
M  V30 306 H 26.0288 0.699956 0.243193 0
M  V30 307 H 28.6758 1.9135 -0.0758267 0
M  V30 308 H 26.9808 3.27856 2.14517 0
M  V30 309 H 28.6778 3.55055 1.86379 0
M  V30 310 H 25.2678 4.24262 0.608238 0
M  V30 311 H 29.4518 4.96267 -0.0576019 0
M  V30 312 H 24.7078 6.03532 -0.977732 0
M  V30 313 H 28.8818 6.76834 -1.63917 0
M  V30 314 H 26.5088 7.30467 -2.10529 0
M  V30 315 N 28.0839 -0.256276 1.55502 0
M  V30 316 C 29.3119 -1.00342 1.8094 0
M  V30 317 C 29.7269 -1.79307 0.59114 0
M  V30 318 O 29.0839 -1.77114 -0.440081 0
M  V30 319 C 29.1349 -1.94875 3.04476 0
M  V30 320 O 28.8559 -1.19107 4.21598 0
M  V30 321 C 30.3569 -2.81266 3.42644 0
M  V30 322 H 27.5769 -0.295685 0.602338 0
M  V30 323 H 30.1209 -0.281998 2.02546 0
M  V30 324 H 28.2759 -2.62457 2.84947 0
M  V30 325 H 28.6899 -1.82969 4.91551 0
M  V30 326 H 30.1639 -3.43362 4.32211 0
M  V30 327 H 30.6409 -3.51897 2.62802 0
M  V30 328 H 31.2469 -2.1915 3.64491 0
M  V30 329 N 29.562 -1.4872 -0.521534 0
M  V30 330 C 30.978 -1.35028 -0.850855 0
M  V30 331 C 31.178 -0.367712 -1.98116 0
M  V30 332 O 30.234 0.208037 -2.51642 0
M  V30 333 C 31.547 -2.75263 -1.21041 0
M  V30 334 C 33.095 -2.83813 -1.31981 0
M  V30 335 C 33.57 -4.24769 -1.71276 0
M  V30 336 N 35.061 -4.27482 -1.78363 0
M  V30 337 C 35.796 -5.33494 -2.1017 0
M  V30 338 N 35.292 -6.49775 -2.40343 0
M  V30 339 N 37.085 -5.20894 -2.11248 0
M  V30 340 H 29.236 -2.11214 0.22413 0
M  V30 341 H 31.499 -0.947252 0.0376439 0
M  V30 342 H 31.205 -3.48765 -0.453415 0
M  V30 343 H 31.079 -3.09327 -2.15863 0
M  V30 344 H 33.466 -2.10561 -2.06756 0
M  V30 345 H 33.547 -2.53358 -0.352596 0
M  V30 346 H 33.191 -4.9854 -0.970588 0
M  V30 347 H 33.121 -4.52673 -2.69062 0
M  V30 348 H 35.612 -3.43611 -1.57288 0
M  V30 349 H 35.925 -7.26402 -2.63743 0
M  V30 350 H 34.27 -6.53035 -2.37844 0
M  V30 351 H 37.461 -4.29065 -1.87139 0
M  V30 352 H 37.634 -6.03612 -2.35704 0
M  V30 353 N 31.0401 0.771051 -1.3745 0
M  V30 354 C 31.9501 1.91538 -1.35464 0
M  V30 355 C 32.9661 1.72134 -0.254123 0
M  V30 356 O 34.1421 1.95358 -0.489626 0
M  V30 357 C 31.2071 3.26671 -1.16134 0
M  V30 358 C 30.2681 3.58723 -2.35831 0
M  V30 359 C 29.5011 4.87409 -2.17413 0
M  V30 360 O 29.7241 5.58506 -1.15876 0
M  V30 361 O 28.6581 5.18539 -3.05615 0
M  V30 362 H 32.4841 1.96165 -2.31847 0
M  V30 363 H 30.0691 0.9139 -1.18187 0
M  V30 364 H 31.9511 4.07499 -1.07345 0
M  V30 365 H 30.6261 3.22894 -0.228251 0
M  V30 366 H 29.5331 2.78127 -2.50192 0
M  V30 367 H 30.8661 3.67243 -3.27709 0
M  V30 368 N 32.5182 1.22032 0.997298 0
M  V30 369 C 33.7432 1.06921 1.77715 0
M  V30 370 C 34.1682 -0.376226 1.84299 0
M  V30 371 O 33.5262 -1.27165 1.29223 0
M  V30 372 C 33.5742 1.67996 3.19076 0
M  V30 373 O 32.6782 0.930653 4.01762 0
M  V30 374 H 32.0192 0.375814 0.547412 0
M  V30 375 H 34.5492 1.61737 1.25309 0
M  V30 376 H 34.5592 1.72538 3.69723 0
M  V30 377 H 33.2342 2.73182 3.13599 0
M  V30 378 H 31.8112 0.960917 3.60307 0
M  V30 379 N 33.9963 -1.19345 1.0293 0
M  V30 380 C 34.9263 -2.2481 0.631105 0
M  V30 381 C 35.9073 -1.66245 -0.360104 0
M  V30 382 O 37.0923 -1.92677 -0.242726 0
M  V30 383 C 34.2223 -3.47295 -0.0184607 0
M  V30 384 C 33.1763 -4.18536 0.895073 0
M  V30 385 C 32.5023 -5.34586 0.110592 0
M  V30 386 C 33.8023 -4.73287 2.209 0
M  V30 387 H 35.4963 -2.58372 1.51275 0
M  V30 388 H 33.0423 -1.24194 0.728818 0
M  V30 389 H 34.9953 -4.20268 -0.308675 0
M  V30 390 H 33.7193 -3.12933 -0.934907 0
M  V30 391 H 32.3783 -3.47446 1.16949 0
M  V30 392 H 32.0263 -4.96469 -0.807902 0
M  V30 393 H 31.7263 -5.83183 0.719087 0
M  V30 394 H 33.2503 -6.10355 -0.172871 0
M  V30 395 H 34.6643 -5.38013 1.98028 0
M  V30 396 H 33.0613 -5.32373 2.76946 0
M  V30 397 H 34.1313 -3.91331 2.86336 0
M  V30 398 N 35.4744 -0.807222 -1.35358 0
M  V30 399 C 36.4374 -0.223665 -2.28106 0
M  V30 400 C 37.4374 0.589354 -1.4961 0
M  V30 401 O 38.6274 0.407745 -1.69361 0
M  V30 402 C 35.7594 0.688149 -3.33882 0
M  V30 403 H 36.9524 -1.04169 -2.81227 0
M  V30 404 H 34.5054 -0.577921 -1.45223 0
M  V30 405 H 35.2404 1.52984 -2.85948 0
M  V30 406 H 35.0254 0.10687 -3.91954 0
M  V30 407 H 36.5154 1.09075 -4.03104 0
M  V30 408 N 36.9525 1.47285 -0.560781 0
M  V30 409 C 37.9155 2.28535 0.174488 0
M  V30 410 C 38.9155 1.37153 0.839388 0
M  V30 411 O 40.1055 1.59748 0.694702 0
M  V30 412 C 37.2375 3.16934 1.25561 0
M  V30 413 H 38.4305 2.95012 -0.539262 0
M  V30 414 H 35.9835 1.53034 -0.317865 0
M  V30 415 H 36.7185 2.55157 2.00164 0
M  V30 416 H 36.5035 3.8419 0.783604 0
M  V30 417 H 37.9935 3.78143 1.77193 0
M  V30 418 N 38.4306 0.297415 1.54768 0
M  V30 419 C 39.6796 -0.313669 1.99246 0
M  V30 420 C 39.9926 -1.55281 1.18942 0
M  V30 421 O 41.1986 -2.23825 1.5367 0
M  V30 422 C 39.6546 -0.609407 3.54703 0
M  V30 423 C 39.2626 0.611192 4.43811 0
M  V30 424 C 41.0066 -1.18188 4.07715 0
M  V30 425 C 38.9136 0.288805 5.90694 0
M  V30 426 H 37.8436 -0.120979 0.744231 0
M  V30 427 H 40.4946 0.40556 1.78962 0
M  V30 428 H 38.8766 -1.38813 3.70873 0
M  V30 429 H 40.0506 1.3875 4.39414 0
M  V30 430 H 38.3656 1.10205 4.01552 0
M  V30 431 H 40.9626 -1.43727 5.15021 0
M  V30 432 H 41.3056 -2.12299 3.58099 0
M  V30 433 H 41.8386 -0.464944 3.95074 0
M  V30 434 H 38.5776 1.19838 6.44453 0
M  V30 435 H 38.0976 -0.450305 5.98107 0
M  V30 436 H 39.7766 -0.110933 6.46905 0
M  V30 437 N 39.9087 -1.5758 0.0250728 0
M  V30 438 C 40.8187 -2.1343 -0.973905 0
M  V30 439 C 41.8347 -1.08556 -1.35984 0
M  V30 440 O 43.0107 -1.40592 -1.44207 0
M  V30 441 C 40.0757 -2.64703 -2.23904 0
M  V30 442 C 39.1367 -3.84276 -1.91391 0
M  V30 443 C 38.3697 -4.33095 -3.11873 0
M  V30 444 O 38.5927 -3.81107 -4.24398 0
M  V30 445 O 37.5267 -5.24984 -2.94406 0
M  V30 446 H 41.3527 -2.99057 -0.529036 0
M  V30 447 H 38.9377 -1.48118 -0.195288 0
M  V30 448 H 40.8197 -2.97769 -2.98181 0
M  V30 449 H 39.4947 -1.82161 -2.6758 0
M  V30 450 H 38.4017 -3.56143 -1.14511 0
M  V30 451 H 39.7347 -4.67968 -1.52534 0
M  V30 452 N 41.3868 0.248026 -1.55636 0
M  V30 453 C 42.3188 1.32993 -1.8667 0
M  V30 454 C 43.3318 1.44345 -0.752877 0
M  V30 455 O 44.5208 1.45715 -1.03098 0
M  V30 456 C 41.6208 2.70863 -2.03682 0
M  V30 457 C 40.7938 2.81792 -3.34532 0
M  V30 458 C 39.8528 4.005 -3.41301 0
M  V30 459 O 38.8788 3.9008 -4.14519 0
M  V30 460 N 40.0808 5.13618 -2.70512 0
M  V30 461 H 42.8458 1.06707 -2.8006 0
M  V30 462 H 40.4068 0.438129 -1.55859 0
M  V30 463 H 42.3988 3.48612 -2.05553 0
M  V30 464 H 40.9688 2.89862 -1.17041 0
M  V30 465 H 40.1888 1.90729 -3.44987 0
M  V30 466 H 41.4768 2.86043 -4.20781 0
M  V30 467 H 40.8748 5.24975 -2.10755 0
M  V30 468 H 39.4318 5.89505 -2.78077 0
M  V30 469 N 42.8649 1.48995 0.513639 0
M  V30 470 C 44.2809 1.35478 0.843682 0
M  V30 471 C 44.4809 0.378213 1.97919 0
M  V30 472 O 43.5369 -0.194689 2.51748 0
M  V30 473 C 44.8499 2.75901 1.1958 0
M  V30 474 C 46.3979 2.84509 1.30474 0
M  V30 475 C 46.8729 4.25671 1.69021 0
M  V30 476 N 48.3639 4.28422 1.76094 0
M  V30 477 C 49.0989 5.34601 2.07338 0
M  V30 478 N 48.5949 6.5104 2.36894 0
M  V30 479 N 50.3879 5.22007 2.08483 0
M  V30 480 H 42.5389 2.11092 -0.235328 0
M  V30 481 H 44.8019 0.947039 -0.0426669 0
M  V30 482 H 44.5079 3.49001 0.434913 0
M  V30 483 H 44.3819 3.10467 2.1422 0
M  V30 484 H 46.7689 2.11655 2.05637 0
M  V30 485 H 46.8499 2.53542 0.339155 0
M  V30 486 H 46.4939 4.99048 0.944135 0
M  V30 487 H 46.4239 4.54094 2.66658 0
M  V30 488 H 48.9149 3.44441 1.55464 0
M  V30 489 H 49.2279 7.2779 2.59887 0
M  V30 490 H 47.5729 6.54287 2.34378 0
M  V30 491 H 50.7639 4.30051 1.84861 0
M  V30 492 H 50.9369 6.04854 2.325 0
M  V30 493 N 44.343 -0.763751 1.37857 0
M  V30 494 C 45.592 -1.51789 1.32827 0
M  V30 495 C 45.905 -1.95426 -0.0823719 0
M  V30 496 O 47.111 -2.70298 -0.255172 0
M  V30 497 C 45.567 -2.74133 2.33193 0
M  V30 498 C 45.175 -2.37562 3.79827 0
M  V30 499 C 46.919 -3.52054 2.37188 0
M  V30 500 C 44.826 -3.56456 4.71904 0
M  V30 501 H 43.756 -0.569896 0.493695 0
M  V30 502 H 46.407 -0.835822 1.63359 0
M  V30 503 H 44.789 -3.4427 1.9569 0
M  V30 504 H 45.963 -1.75157 4.26212 0
M  V30 505 H 44.278 -1.72798 3.78853 0
M  V30 506 H 46.875 -4.40437 3.03182 0
M  V30 507 H 47.218 -3.92486 1.38782 0
M  V30 508 H 47.751 -2.88921 2.7344 0
M  V30 509 H 44.49 -3.21099 5.71468 0
M  V30 510 H 44.01 -4.17938 4.30218 0
M  V30 511 H 45.689 -4.23168 4.89426 0
M  V30 512 N 45.8211 -1.22559 -0.990812 0
M  V30 513 C 46.7841 -0.998863 -2.0629 0
M  V30 514 C 47.7841 0.0354834 -1.60761 0
M  V30 515 O 48.9741 -0.203231 -1.7301 0
M  V30 516 C 46.1061 -0.509203 -3.37076 0
M  V30 517 H 47.2991 -1.95014 -2.27837 0
M  V30 518 H 44.8521 -1.04456 -1.16269 0
M  V30 519 H 45.5871 0.446335 -3.21214 0
M  V30 520 H 45.3721 -1.25547 -3.71457 0
M  V30 521 H 46.8621 -0.370888 -4.1595 0
M  V30 522 N 47.2992 1.18797 -1.03562 0
M  V30 523 C 48.2312 2.21731 -0.580337 0
M  V30 524 C 49.2442 1.59051 0.347349 0
M  V30 525 O 50.4332 1.77929 0.142669 0
M  V30 526 C 47.5332 3.38459 0.172805 0
M  V30 527 C 46.7062 4.3072 -0.761496 0
M  V30 528 C 45.7652 5.26174 -0.0525547 0
M  V30 529 O 44.7912 5.65108 -0.681333 0
M  V30 530 N 45.9932 5.67624 1.21586 0
M  V30 531 H 48.7582 2.61417 -1.46565 0
M  V30 532 H 46.3192 1.33531 -0.915476 0
M  V30 533 H 48.3112 3.99335 0.656793 0
M  V30 534 H 46.8812 2.97507 0.959602 0
M  V30 535 H 46.1012 3.67525 -1.42544 0
M  V30 536 H 47.3892 4.89267 -1.39626 0
M  V30 537 H 46.7872 5.38038 1.74732 0
M  V30 538 H 45.3442 6.30721 1.64421 0
M  V30 539 N 48.7773 0.814389 1.34928 0
M  V30 540 C 49.6873 0.231978 2.3345 0
M  V30 541 C 50.7033 -0.629139 1.62228 0
M  V30 542 O 51.8793 -0.539052 1.94052 0
M  V30 543 C 48.9443 -0.603482 3.41407 0
M  V30 544 C 48.0053 0.279037 4.28392 0
M  V30 545 C 47.2383 -0.516643 5.31193 0
M  V30 546 O 47.4613 -1.75068 5.4287 0
M  V30 547 O 46.3953 0.0965652 6.01823 0
M  V30 548 H 50.2213 1.04721 2.85074 0
M  V30 549 H 47.8063 0.576343 1.37836 0
M  V30 550 H 49.6883 -1.07908 4.0735 0
M  V30 551 H 48.3633 -1.39618 2.92042 0
M  V30 552 H 47.2703 0.801948 3.65403 0
M  V30 553 H 48.6033 1.03588 4.81176 0
M  V30 554 N 50.2554 -1.46986 0.568584 0
M  V30 555 C 51.2034 -2.31858 -0.185649 0
M  V30 556 C 52.1974 -1.43624 -0.898249 0
M  V30 557 O 53.4034 -1.60327 -0.818242 0
M  V30 558 H 49.7784 -0.747866 -0.0787399 0
M  V30 559 H 51.7494 -2.93303 0.549191 0
M  V30 560 C 50.4984 -3.26513 -1.19519 0
M  V30 561 H 49.8214 -3.94377 -0.656285 0
M  V30 562 H 51.2614 -3.88707 -1.6936 0
M  V30 563 C 49.7204 -2.50847 -2.24894 0
M  V30 564 O 50.2504 -2.26119 -3.32014 0
M  V30 565 N 48.4564 -2.11656 -1.99124 0
M  V30 566 H 48.0034 -2.31966 -1.12024 0
M  V30 567 H 47.9614 -1.61347 -2.69842 0
M  V30 568 N 51.7335 -0.305618 -1.54608 0
M  V30 569 C 52.6435 0.57778 -2.27374 0
M  V30 570 C 53.6595 1.14451 -1.31061 0
M  V30 571 O 54.8355 1.16831 -1.6405 0
M  V30 572 C 51.9005 1.73123 -3.00382 0
M  V30 573 C 50.9615 1.19812 -4.12242 0
M  V30 574 C 50.1945 2.2966 -4.81759 0
M  V30 575 O 50.4175 3.49651 -4.50666 0
M  V30 576 O 49.3515 1.96091 -5.69062 0
M  V30 577 H 53.1775 -0.012624 -3.03697 0
M  V30 578 H 50.7625 -0.0719184 -1.49227 0
M  V30 579 H 52.6445 2.40315 -3.4616 0
M  V30 580 H 51.3195 2.30815 -2.26949 0
M  V30 581 H 50.2265 0.491798 -3.70853 0
M  V30 582 H 51.5595 0.666566 -4.87666 0
M  V30 583 N 53.2116 1.57565 -0.0334293 0
M  V30 584 C 54.1586 2.10478 0.946981 0
M  V30 585 C 55.1286 1.00787 1.32027 0
M  V30 586 O 56.3136 1.28232 1.41284 0
M  V30 587 C 53.4536 2.63994 2.22263 0
M  V30 588 C 52.5666 3.87709 1.90541 0
M  V30 589 C 51.7016 4.29604 3.12433 0
M  V30 590 C 50.7406 5.46065 2.76549 0
M  V30 591 N 49.8776 5.83096 3.9108 0
M  V30 592 H 54.7176 2.93963 0.488846 0
M  V30 593 H 52.2546 1.45296 0.22969 0
M  V30 594 H 54.2126 2.93114 2.96884 0
M  V30 595 H 52.8426 1.83333 2.65685 0
M  V30 596 H 51.8946 3.65291 1.06144 0
M  V30 597 H 53.2066 4.72403 1.60116 0
M  V30 598 H 52.3606 4.60182 3.9537 0
M  V30 599 H 51.0996 3.43685 3.46023 0
M  V30 600 H 50.1046 5.15176 1.92026 0
M  V30 601 H 51.3296 6.33685 2.44171 0
M  V30 602 H 49.2756 5.00132 4.24504 0
M  V30 603 H 49.1926 6.6244 3.64293 0
M  V30 604 H 50.4606 6.18282 4.74708 0
M  V30 605 N 54.6897 -0.239769 1.55765 0
M  V30 606 C 55.9367 -0.966801 1.7793 0
M  V30 607 C 56.2647 -1.85046 0.599015 0
M  V30 608 O 55.5197 -1.91197 -0.417395 0
M  V30 609 C 55.8187 -1.852 3.05672 0
M  V30 610 C 55.4847 -1.1231 4.36689 0
M  V30 611 C 54.1467 -0.921689 4.72291 0
M  V30 612 C 56.4987 -0.607019 5.17653 0
M  V30 613 C 53.8267 -0.191996 5.86386 0
M  V30 614 C 56.1787 0.109241 6.32506 0
M  V30 615 C 54.8427 0.322073 6.66723 0
M  V30 616 H 54.1127 -0.353778 0.651093 0
M  V30 617 H 56.7597 -0.23634 1.90036 0
M  V30 618 H 55.0647 -2.64975 2.8861 0
M  V30 619 H 56.7617 -2.41635 3.20021 0
M  V30 620 H 53.3517 -1.29004 4.08725 0
M  V30 621 H 57.5357 -0.750153 4.90598 0
M  V30 622 H 52.7917 -0.0166949 6.11398 0
M  V30 623 H 56.9657 0.516737 6.9448 0
M  V30 624 H 54.5927 0.88944 7.54979 0
M  V30 625 N 56.1678 -1.49265 -0.50573 0
M  V30 626 C 57.1148 -1.65585 -1.6078 0
M  V30 627 C 58.0848 -0.497396 -1.58478 0
M  V30 628 O 59.2698 -0.72385 -1.76536 0
M  V30 629 C 56.4098 -1.72408 -2.98948 0
M  V30 630 C 55.5228 -2.99525 -3.11301 0
M  V30 631 C 54.6578 -2.97356 -4.40174 0
M  V30 632 C 53.6968 -4.19074 -4.46143 0
M  V30 633 N 52.8338 -4.14841 -5.66437 0
M  V30 634 H 57.6738 -2.59688 -1.46172 0
M  V30 635 H 55.2108 -1.28761 -0.711261 0
M  V30 636 H 57.1688 -1.74344 -3.79025 0
M  V30 637 H 55.7988 -0.817753 -3.1227 0
M  V30 638 H 54.8508 -3.07222 -2.24318 0
M  V30 639 H 56.1628 -3.89518 -3.11572 0
M  V30 640 H 55.3168 -2.97829 -5.28567 0
M  V30 641 H 54.0558 -2.05133 -4.42461 0
M  V30 642 H 53.0608 -4.1885 -3.56153 0
M  V30 643 H 54.2858 -5.12483 -4.45575 0
M  V30 644 H 52.2318 -3.25453 -5.69575 0
M  V30 645 H 52.1488 -4.98564 -5.68304 0
M  V30 646 H 53.4168 -4.1941 -6.57051 0
M  V30 647 N 57.6459 0.756429 -1.3826 0
M  V30 648 C 58.5559 1.9009 -1.37488 0
M  V30 649 C 59.5719 1.71855 -0.272366 0
M  V30 650 O 60.7479 1.94827 -0.510318 0
M  V30 651 C 57.8129 3.25421 -1.19592 0
M  V30 652 C 56.8739 3.56202 -2.39622 0
M  V30 653 C 56.1069 4.85075 -2.2257 0
M  V30 654 O 56.3299 5.57246 -1.21793 0
M  V30 655 O 55.2639 5.15269 -3.11098 0
M  V30 656 H 59.0899 1.93695 -2.33914 0
M  V30 657 H 56.6749 0.901313 -1.1915 0
M  V30 658 H 58.5569 4.06337 -1.11661 0
M  V30 659 H 57.2319 3.22634 -0.262486 0
M  V30 660 H 56.1389 2.75458 -2.53128 0
M  V30 661 H 57.4719 3.63747 -3.31586 0
M  V30 662 N 59.124 1.23083 0.984299 0
M  V30 663 C 60.054 1.03292 2.09411 0
M  V30 664 C 61.035 -0.048923 1.7003 0
M  V30 665 O 62.22 0.114967 1.93859 0
M  V30 666 C 59.35 0.619155 3.41736 0
M  V30 667 C 58.304 1.64791 3.95004 0
M  V30 668 C 57.63 1.0897 5.23478 0
M  V30 669 C 58.93 3.03999 4.24714 0
M  V30 670 H 60.624 1.96119 2.26225 0
M  V30 671 H 58.17 0.944344 1.08711 0
M  V30 672 H 60.123 0.467777 4.18796 0
M  V30 673 H 58.847 -0.344786 3.24775 0
M  V30 674 H 57.506 1.78721 3.20085 0
M  V30 675 H 57.154 0.11686 5.02864 0
M  V30 676 H 56.854 1.77704 5.60085 0
M  V30 677 H 58.378 0.950093 6.03163 0
M  V30 678 H 59.792 2.93393 4.92538 0
M  V30 679 H 58.189 3.69936 4.72512 0
M  V30 680 H 59.259 3.53285 3.32142 0
M  V30 681 N 60.6021 -1.18246 1.0419 0
M  V30 682 C 61.5121 -2.25574 0.644476 0
M  V30 683 C 62.5281 -1.70845 -0.329826 0
M  V30 684 O 63.7041 -2.00554 -0.184443 0
M  V30 685 C 60.7691 -3.46697 0.014877 0
M  V30 686 C 59.8301 -4.16554 1.03834 0
M  V30 687 C 59.0631 -5.31894 0.438692 0
M  V30 688 O 59.2861 -5.65385 -0.754752 0
M  V30 689 O 58.2201 -5.90459 1.168 0
M  V30 690 H 62.0461 -2.61836 1.53869 0
M  V30 691 H 59.6311 -1.25352 0.812854 0
M  V30 692 H 61.5131 -4.20062 -0.335538 0
M  V30 693 H 60.1881 -3.12255 -0.853138 0
M  V30 694 H 59.0951 -3.45251 1.44057 0
M  V30 695 H 60.4281 -4.54998 1.87716 0
M  V30 696 N 62.0802 -0.821533 -1.34494 0
M  V30 697 C 63.0272 -0.240397 -2.29545 0
M  V30 698 C 63.9972 0.634031 -1.53523 0
M  V30 699 O 65.1822 0.575966 -1.81899 0
M  V30 700 C 62.3222 0.592869 -3.39969 0
M  V30 701 C 61.4352 -0.30365 -4.30932 0
M  V30 702 C 60.5702 0.539049 -5.28458 0
M  V30 703 C 59.6092 -0.356942 -6.11058 0
M  V30 704 N 58.7462 0.446603 -7.00678 0
M  V30 705 H 63.5862 -1.05632 -2.7865 0
M  V30 706 H 61.1232 -0.532413 -1.37127 0
M  V30 707 H 63.0812 1.09129 -4.02675 0
M  V30 708 H 61.7112 1.37392 -2.92102 0
M  V30 709 H 60.7632 -0.920276 -3.691 0
M  V30 710 H 62.0752 -0.992661 -4.88823 0
M  V30 711 H 61.2292 1.102 -5.96608 0
M  V30 712 H 59.9682 1.26157 -4.71101 0
M  V30 713 H 58.9732 -0.932047 -5.41842 0
M  V30 714 H 60.1982 -1.07755 -6.70497 0
M  V30 715 H 58.1442 1.15282 -6.45791 0
M  V30 716 H 58.0612 -0.184048 -7.55776 0
M  V30 717 H 59.3292 0.992352 -7.73158 0
M  V30 718 N 63.5583 1.46682 -0.576371 0
M  V30 719 C 64.5053 2.30241 0.160499 0
M  V30 720 C 65.4753 1.40233 0.890162 0
M  V30 721 O 66.6603 1.69186 0.882084 0
M  V30 722 C 63.8003 3.24578 1.1723 0
M  V30 723 C 62.9133 4.29684 0.446736 0
M  V30 724 C 62.0483 5.11154 1.44551 0
M  V30 725 C 61.0873 6.08015 0.70599 0
M  V30 726 N 60.2243 6.82376 1.65251 0
M  V30 727 H 65.0643 2.92727 -0.558127 0
M  V30 728 H 62.6013 1.44272 -0.287056 0
M  V30 729 H 64.5593 3.77711 1.77172 0
M  V30 730 H 63.1893 2.63916 1.85872 0
M  V30 731 H 62.2413 3.79458 -0.267594 0
M  V30 732 H 63.5533 4.98626 -0.131686 0
M  V30 733 H 62.7073 5.68533 2.11791 0
M  V30 734 H 61.4463 4.42158 2.05786 0
M  V30 735 H 60.4513 5.49796 0.0197725 0
M  V30 736 H 61.6763 6.79028 0.09912 0
M  V30 737 H 59.6223 6.16094 2.25308 0
M  V30 738 H 59.5393 7.47556 1.12673 0
M  V30 739 H 60.8073 7.44316 2.31546 0
M  V30 740 N 65.0364 0.313813 1.54444 0
M  V30 741 C 66.4524 -0.0391619 1.59552 0
M  V30 742 C 66.6524 -1.51322 1.33056 0
M  V30 743 O 65.7084 -2.26782 1.11022 0
M  V30 744 C 67.0214 0.370302 2.98411 0
M  V30 745 C 68.5694 0.320139 3.11358 0
M  V30 746 C 69.0444 0.704617 4.52547 0
M  V30 747 N 70.5354 0.657645 4.58508 0
M  V30 748 C 71.2704 0.927453 5.6585 0
M  V30 749 N 70.7664 1.26389 6.81174 0
M  V30 750 N 72.5594 0.853662 5.5558 0
M  V30 751 H 64.7104 1.27433 1.69925 0
M  V30 752 H 66.9734 0.517511 0.794284 0
M  V30 753 H 66.6794 1.39694 3.22767 0
M  V30 754 H 66.5534 -0.269619 3.76235 0
M  V30 755 H 68.9404 -0.697275 2.86744 0
M  V30 756 H 69.0214 0.99486 2.35661 0
M  V30 757 H 68.6654 1.7199 4.77893 0
M  V30 758 H 68.5954 0.00768843 5.26599 0
M  V30 759 H 71.0864 0.409067 3.75679 0
M  V30 760 H 71.3994 1.4554 7.58972 0
M  V30 761 H 69.7444 1.30206 6.82694 0
M  V30 762 H 72.9354 0.590383 4.64362 0
M  V30 763 H 73.1084 1.0673 6.3915 0
M  V30 764 N 66.5145 -1.57545 0.0417849 0
M  V30 765 C 67.4775 -2.09885 -0.92093 0
M  V30 766 C 68.4775 -1.01648 -1.24596 0
M  V30 767 O 69.6675 -1.27759 -1.1842 0
M  V30 768 C 66.7995 -2.57527 -2.23367 0
M  V30 769 H 67.9925 -2.96236 -0.467382 0
M  V30 770 H 65.5455 -1.5493 -0.206467 0
M  V30 771 H 66.2805 -1.74542 -2.73323 0
M  V30 772 H 66.0655 -3.36613 -2.01083 0
M  V30 773 H 67.5555 -2.98201 -2.92346 0
M  V30 774 N 67.9926 0.231505 -1.5589 0
M  V30 775 C 69.2696 0.981096 -1.69215 0
M  V30 776 C 69.6496 2.02799 -0.586164 0
M  V30 777 O 68.9976 2.24823 0.408253 0
M  V30 778 C 69.2076 1.60054 -3.10135 0
M  V30 779 C 70.5556 2.09658 -3.69227 0
M  V30 780 O 71.5796 1.69967 -3.13033 0
M  V30 781 O 70.4386 2.8258 -4.67772 0
M  V30 782 H 67.5326 0.457653 -0.688827 0
M  V30 783 H 70.0786 0.224073 -1.68214 0
M  V30 784 H 68.8506 0.844105 -3.82087 0
M  V30 785 H 68.4736 2.42336 -3.15212 0
M  V30 786 N 69.4707 1.49531 0.497807 0
M  V30 787 C 70.7187 1.58865 1.24926 0
M  V30 788 C 71.0397 0.278721 1.92998 0
M  V30 789 O 70.3097 -0.702144 1.82885 0
M  V30 790 H 68.8897 0.585343 0.464094 0
M  V30 791 H 71.5517 1.86174 0.57666 0
M  V30 792 H 70.6477 2.38633 2.01149 0
M  V30 793 N 70.9488 -0.749086 1.3866 0
M  V30 794 C 71.8588 -1.89358 1.38494 0
M  V30 795 C 72.8748 -1.71708 0.281476 0
M  V30 796 O 74.0508 -1.94554 0.520643 0
M  V30 797 C 71.1158 -3.24782 1.21316 0
M  V30 798 C 70.1768 -3.54926 2.41508 0
M  V30 799 C 69.4098 -4.83888 2.2514 0
M  V30 800 O 69.6328 -5.56592 1.24746 0
M  V30 801 O 68.5668 -5.13612 3.13826 0
M  V30 802 H 72.3928 -1.92452 2.34938 0
M  V30 803 H 69.9778 -0.894981 1.19626 0
M  V30 804 H 71.8598 -4.05739 1.13814 0
M  V30 805 H 70.5348 -3.2249 0.279592 0
M  V30 806 H 69.4418 -2.74112 2.54585 0
M  V30 807 H 70.7748 -3.61983 3.3351 0
M  V30 808 N 72.4269 -1.23603 -0.977757 0
M  V30 809 C 73.6759 -1.06377 -1.71368 0
M  V30 810 C 73.9889 0.399062 -1.91486 0
M  V30 811 O 75.1949 0.691312 -2.62551 0
M  V30 812 C 73.6509 -1.85512 -3.08404 0
M  V30 813 C 73.2589 -3.36141 -2.96164 0
M  V30 814 C 75.0029 -1.76783 -3.85938 0
M  V30 815 C 72.9099 -4.07659 -4.28449 0
M  V30 816 H 71.8399 -0.394452 -0.642591 0
M  V30 817 H 74.4909 -1.47594 -1.09034 0
M  V30 818 H 72.8729 -1.37103 -3.71509 0
M  V30 819 H 74.0469 -3.92056 -2.42133 0
M  V30 820 H 72.3619 -3.45712 -2.32104 0
M  V30 821 H 74.9589 -2.27526 -4.83876 0
M  V30 822 H 75.3019 -0.731116 -4.0983 0
M  V30 823 H 75.8349 -2.22818 -3.2954 0
M  V30 824 H 72.5739 -5.11648 -4.09752 0
M  V30 825 H 72.0939 -3.5653 -4.82334 0
M  V30 826 H 73.7729 -4.141 -4.97122 0
M  V30 827 N 73.905 1.17692 -1.04816 0
M  V30 828 C 75.321 1.39863 -0.768794 0
M  V30 829 C 75.521 1.91118 0.638451 0
M  V30 830 O 74.577 2.10036 1.40146 0
M  V30 831 C 75.89 2.39274 -1.82122 0
M  V30 832 C 77.438 2.52987 -1.843 0
M  V30 833 C 77.913 3.55669 -2.88555 0
M  V30 834 N 79.404 3.63183 -2.87493 0
M  V30 835 C 80.139 4.42381 -3.64811 0
M  V30 836 N 79.635 5.25125 -4.51903 0
M  V30 837 N 81.428 4.37217 -3.53267 0
M  V30 838 H 73.579 0.82752 -1.95617 0
M  V30 839 H 75.842 0.426123 -0.846831 0
M  V30 840 H 75.548 2.08678 -2.83102 0
M  V30 841 H 75.422 3.38725 -1.65967 0
M  V30 842 H 77.809 2.82896 -0.839869 0
M  V30 843 H 77.89 1.53623 -2.04532 0
M  V30 844 H 77.534 3.26499 -3.89051 0
M  V30 845 H 77.464 4.54728 -2.65575 0
M  V30 846 H 79.955 3.04103 -2.24343 0
M  V30 847 H 80.268 5.82728 -5.07591 0
M  V30 848 H 78.613 5.24519 -4.55966 0
M  V30 849 H 81.804 3.71626 -2.84625 0
M  V30 850 H 81.977 4.98696 -4.13771 0
M  V30 851 N 75.3831 0.828654 1.34056 0
M  V30 852 C 76.6131 0.431993 2.02033 0
M  V30 853 C 77.0211 -0.96844 1.62536 0
M  V30 854 O 76.3641 -1.6391 0.829408 0
M  V30 855 C 76.4261 0.461224 3.56529 0
M  V30 856 C 76.0901 1.81599 4.1937 0
M  V30 857 C 77.0871 2.7777 4.39477 0
M  V30 858 C 74.7721 2.10604 4.56017 0
M  V30 859 C 76.7661 4.01115 4.95364 0
M  V30 860 C 74.4531 3.34207 5.11614 0
M  V30 861 C 75.4511 4.2928 5.31232 0
M  V30 862 O 75.1391 5.50699 5.8565 0
M  V30 863 H 74.8711 0.170943 0.654029 0
M  V30 864 H 77.4251 1.11988 1.72185 0
M  V30 865 H 75.6551 -0.283388 3.8566 0
M  V30 866 H 77.3441 0.0838149 4.05813 0
M  V30 867 H 78.1101 2.56659 4.11523 0
M  V30 868 H 73.9891 1.37402 4.40047 0
M  V30 869 H 77.5331 4.75333 5.10592 0
M  V30 870 H 73.4301 3.55179 5.38997 0
M  V30 871 H 74.1981 5.52298 6.04077 0
M  V30 872 N 76.8612 -1.46375 0.584142 0
M  V30 873 C 78.1382 -1.956 0.0033388 0
M  V30 874 C 78.5182 -1.52679 -1.45782 0
M  V30 875 O 77.8662 -0.77816 -2.14842 0
M  V30 876 C 78.0762 -3.48551 0.176891 0
M  V30 877 C 79.4242 -4.24576 0.0454609 0
M  V30 878 O 80.4482 -3.56043 0.105801 0
M  V30 879 O 79.3072 -5.46427 -0.0890376 0
M  V30 880 H 76.4012 -0.825547 -0.0490066 0
M  V30 881 H 78.9472 -1.56652 0.65256 0
M  V30 882 H 77.7192 -3.72683 1.1926 0
M  V30 883 H 77.3422 -3.94332 -0.508695 0
M  V30 884 N 78.3393 -0.321999 -1.54275 0
M  V30 885 C 79.6163 0.335232 -1.92706 0
M  V30 886 C 79.9963 1.70006 -1.25145 0
M  V30 887 O 79.3443 2.25067 -0.394596 0
M  V30 888 C 79.5543 0.429008 -3.46353 0
M  V30 889 C 80.9023 0.690029 -4.18956 0
M  V30 890 O 81.9263 0.511992 -3.52501 0
M  V30 891 O 80.7853 1.03338 -5.36641 0
M  V30 892 H 77.8793 0.191143 -0.804608 0
M  V30 893 H 80.4253 -0.3716 -1.65581 0
M  V30 894 H 79.1973 -0.529611 -3.87699 0
M  V30 895 H 78.8203 1.18348 -3.79578 0
M  V30 896 N 79.8174 1.5752 -0.0501392 0
M  V30 897 C 80.7274 2.14952 0.939827 0
M  V30 898 C 81.7434 1.10706 1.34239 0
M  V30 899 O 82.9194 1.42869 1.41952 0
M  V30 900 C 79.9844 2.68232 2.19665 0
M  V30 901 C 79.0454 3.87272 1.85253 0
M  V30 902 C 78.2784 4.38002 3.04943 0
M  V30 903 O 78.5014 3.87811 4.18281 0
M  V30 904 O 77.4354 5.29602 2.86017 0
M  V30 905 H 81.2614 2.9986 0.481392 0
M  V30 906 H 78.8464 1.4841 0.171699 0
M  V30 907 H 80.7284 3.02475 2.93406 0
M  V30 908 H 79.4034 1.86395 2.64648 0
M  V30 909 H 78.3104 3.5792 1.0883 0
M  V30 910 H 79.6434 4.70336 1.4507 0
M  V30 911 N 81.2955 -0.223234 1.56011 0
M  V30 912 C 82.5725 -0.972108 1.69733 0
M  V30 913 C 82.9525 -2.02485 0.59691 0
M  V30 914 O 82.3005 -2.25037 -0.396324 0
M  V30 915 C 82.5105 -1.58407 3.10979 0
M  V30 916 C 83.8585 -2.07696 3.70334 0
M  V30 917 O 84.8825 -1.68304 3.1393 0
M  V30 918 O 83.7415 -2.80096 4.69264 0
M  V30 919 H 80.8355 -0.453993 0.691245 0
M  V30 920 H 83.3815 -0.215149 1.68331 0
M  V30 921 H 82.1535 -0.823831 3.82529 0
M  V30 922 H 81.7765 -2.40661 3.16493 0
M  V30 923 N 82.7736 -1.49793 -0.48987 0
M  V30 924 C 83.6836 -1.70036 -1.61632 0
M  V30 925 C 84.6996 -0.583102 -1.63939 0
M  V30 926 O 85.8756 -0.859169 -1.82154 0
M  V30 927 C 82.9406 -1.77277 -2.97949 0
M  V30 928 C 82.0016 -3.00918 -3.06181 0
M  V30 929 C 81.2346 -3.07804 -4.35996 0
M  V30 930 O 81.4576 -2.21982 -5.25433 0
M  V30 931 O 80.3916 -4.00369 -4.49431 0
M  V30 932 H 84.2176 -2.65486 -1.47482 0
M  V30 933 H 81.8026 -1.33666 -0.667362 0
M  V30 934 H 83.6846 -1.84329 -3.78947 0
M  V30 935 H 82.3596 -0.850076 -3.12339 0
M  V30 936 H 81.2666 -2.99377 -2.2433 0
M  V30 937 H 82.5996 -3.92704 -2.96723 0
M  V30 938 N 84.2517 0.741722 -1.39055 0
M  V30 939 C 85.5287 1.49252 -1.26425 0
M  V30 940 C 85.9087 2.10705 0.129144 0
M  V30 941 O 85.2567 1.98045 1.13976 0
M  V30 942 C 85.4667 2.54934 -2.38347 0
M  V30 943 C 86.8147 3.21506 -2.77343 0
M  V30 944 O 87.8387 2.65245 -2.37747 0
M  V30 945 O 86.6977 4.23294 -3.45665 0
M  V30 946 H 83.7917 0.662451 -0.495064 0
M  V30 947 H 86.3377 0.776121 -1.50912 0
M  V30 948 H 85.1097 2.07857 -3.31529 0
M  V30 949 H 84.7327 3.34141 -2.15489 0
M  V30 950 N 85.7298 1.2412 0.971189 0
M  V30 951 C 86.6398 1.04747 2.09917 0
M  V30 952 C 87.6558 -0.0107162 1.73997 0
M  V30 953 O 88.8318 0.186714 2.00533 0
M  V30 954 C 85.8968 0.650828 3.40537 0
M  V30 955 C 84.9578 1.7851 3.90426 0
M  V30 956 C 84.1908 1.40729 5.14812 0
M  V30 957 O 84.4138 0.29557 5.69634 0
M  V30 958 O 83.3478 2.23168 5.58999 0
M  V30 959 H 87.1738 1.99304 2.29154 0
M  V30 960 H 84.7588 1.02908 1.08307 0
M  V30 961 H 86.6408 0.440992 4.19086 0
M  V30 962 H 85.3158 -0.265649 3.22608 0
M  V30 963 H 84.2228 2.04966 3.12953 0
M  V30 964 H 85.5558 2.68023 4.12825 0
M  V30 965 N 87.2079 -1.17134 1.05439 0
M  V30 966 C 88.4559 -1.87085 0.764429 0
M  V30 967 C 88.7769 -1.81584 -0.710787 0
M  V30 968 O 88.0469 -1.24349 -1.51374 0
M  V30 969 H 86.6269 -0.692627 0.279779 0
M  V30 970 H 89.2889 -1.42087 1.33406 0
M  V30 971 H 88.3849 -2.92759 1.0816 0
M  V30 972 N 88.686 -0.835752 -1.33615 0
M  V30 973 C 90.097 -0.487099 -1.80234 0
M  V30 974 C 90.448 0.993627 -1.69179 0
M  V30 975 O 89.573 1.77403 -1.23924 0
M  V30 976 C 90.168 -0.877385 -3.27242 0
M  V30 977 C 88.727 -0.580915 -3.7189 0
M  V30 978 C 87.874 -1.0874 -2.5509 0
M  V30 979 H 90.825 -1.02474 -1.2118 0
M  V30 980 H 90.846 -0.186195 -3.80044 0
M  V30 981 H 90.358 -1.95512 -3.35256 0
M  V30 982 H 88.459 0.486881 -3.69405 0
M  V30 983 H 88.572 -1.13396 -4.65487 0
M  V30 984 H 86.936 -0.508392 -2.49575 0
M  V30 985 H 87.719 -2.17184 -2.65868 0
M  V30 986 N 90.1641 1.46063 -0.591896 0
M  V30 987 C 91.0961 2.28539 0.174001 0
M  V30 988 C 92.1091 1.39047 0.846753 0
M  V30 989 O 93.2981 1.63564 0.714774 0
M  V30 990 C 90.3981 3.14347 1.26645 0
M  V30 991 C 89.5711 4.32021 0.683856 0
M  V30 992 C 88.6301 4.99157 1.66518 0
M  V30 993 O 87.6561 5.56458 1.19763 0
M  V30 994 N 88.8581 4.97005 2.99943 0
M  V30 995 H 91.6231 2.94911 -0.533633 0
M  V30 996 H 89.1841 1.56077 -0.430294 0
M  V30 997 H 91.1761 3.56125 1.92242 0
M  V30 998 H 89.7461 2.49988 1.87682 0
M  V30 999 H 88.9661 3.93915 -0.1498 0
M  V30 1000 H 90.2541 5.08059 0.274567 0
M  V30 1001 H 89.6521 4.51714 3.40545 0
M  V30 1002 H 88.2091 5.42696 3.61004 0
M  V30 1003 N 91.6422 0.330177 1.54103 0
M  V30 1004 C 93.0532 -0.15652 1.86043 0
M  V30 1005 C 93.4042 -1.51086 1.2517 0
M  V30 1006 O 92.5292 -2.09023 0.560217 0
M  V30 1007 C 93.1242 -0.290784 3.3755 0
M  V30 1008 C 91.6832 -0.721705 3.69416 0
M  V30 1009 C 90.8302 0.152622 2.7688 0
M  V30 1010 H 93.7812 0.550237 1.48856 0
M  V30 1011 H 93.8022 -1.12058 3.63625 0
M  V30 1012 H 93.3142 0.695068 3.81825 0
M  V30 1013 H 91.4152 -1.71706 3.30678 0
M  V30 1014 H 91.5282 -0.520869 4.7626 0
M  V30 1015 H 89.8922 -0.372894 2.51956 0
M  V30 1016 H 90.6752 1.13536 3.23982 0
M  V30 1017 N 93.1203 -1.57491 0.0584922 0
M  V30 1018 C 94.3973 -1.84346 -0.653918 0
M  V30 1019 C 94.7773 -0.948355 -1.88599 0
M  V30 1020 O 94.1253 -0.0112403 -2.28497 0
M  V30 1021 C 94.3353 -3.34239 -1.00425 0
M  V30 1022 C 95.6833 -4.01431 -1.38342 0
M  V30 1023 O 96.7073 -3.38907 -1.09637 0
M  V30 1024 O 95.5663 -5.11683 -1.91943 0
M  V30 1025 H 92.6603 -0.761112 -0.323478 0
M  V30 1026 H 95.2063 -1.6947 0.0884125 0
M  V30 1027 H 93.9783 -3.91089 -0.128625 0
M  V30 1028 H 93.6013 -3.54329 -1.80378 0
M  V30 1029 N 94.5984 0.214957 -1.56127 0
M  V30 1030 C 96.0094 0.781386 -1.69562 0
M  V30 1031 C 96.3604 1.84707 -0.66165 0
M  V30 1032 O 95.4854 2.156 0.185927 0
M  V30 1033 C 96.0804 1.42411 -3.07416 0
M  V30 1034 C 94.6394 1.93786 -3.22683 0
M  V30 1035 C 93.7864 0.800438 -2.65496 0
M  V30 1036 H 96.7374 -0.00980633 -1.58697 0
M  V30 1037 H 96.7584 2.29309 -3.0364 0
M  V30 1038 H 96.2704 0.64826 -3.82648 0
M  V30 1039 H 94.3714 2.74152 -2.52332 0
M  V30 1040 H 94.4844 2.1133 -4.29973 0
M  V30 1041 H 92.8484 1.2095 -2.2415 0
M  V30 1042 H 93.6314 0.0371471 -3.4328 0
M  V30 1043 N 96.0765 1.50051 0.48192 0
M  V30 1044 C 97.3045 1.64237 1.25832 0
M  V30 1045 C 97.7195 0.321336 1.86045 0
M  V30 1046 O 97.0765 -0.695478 1.68729 0
M  V30 1047 C 97.1275 2.72548 2.37487 0
M  V30 1048 O 96.8485 3.99529 1.79745 0
M  V30 1049 C 98.3495 2.9761 3.28547 0
M  V30 1050 H 95.5695 0.55237 0.380957 0
M  V30 1051 H 98.1135 1.96207 0.576467 0
M  V30 1052 H 96.2685 2.43303 3.01467 0
M  V30 1053 H 96.6825 4.59342 2.5319 0
M  V30 1054 H 98.1565 3.77084 4.03127 0
M  V30 1055 H 98.6335 2.0826 3.86684 0
M  V30 1056 H 99.2395 3.28345 2.70314 0
M  V30 1057 N 97.5546 -0.734337 1.39446 0
M  V30 1058 C 98.4846 -1.86155 1.40955 0
M  V30 1059 C 99.4656 -1.67898 0.272827 0
M  V30 1060 O 100.651 -1.88207 0.478743 0
M  V30 1061 C 97.7806 -3.23912 1.25294 0
M  V30 1062 C 96.7346 -3.56808 2.36373 0
M  V30 1063 C 96.0606 -4.93508 2.058 0
M  V30 1064 C 97.3606 -3.59713 3.78687 0
M  V30 1065 H 99.0546 -1.8515 2.35287 0
M  V30 1066 H 96.6006 -0.889367 1.13253 0
M  V30 1067 H 98.5536 -4.02443 1.2497 0
M  V30 1068 H 97.2776 -3.25446 0.274308 0
M  V30 1069 H 95.9366 -2.80606 2.35914 0
M  V30 1070 H 95.5846 -4.91623 1.06374 0
M  V30 1071 H 95.2846 -5.16486 2.80208 0
M  V30 1072 H 96.8086 -5.74396 2.07128 0
M  V30 1073 H 98.2226 -4.2832 3.81071 0
M  V30 1074 H 96.6196 -3.94209 4.52459 0
M  V30 1075 H 97.6896 -2.59504 4.09617 0
M  V30 1076 N 99.0327 -1.24633 -0.964593 0
M  V30 1077 C 99.9427 -1.05859 -2.09359 0
M  V30 1078 C 100.959 0.00148855 -1.74 0
M  V30 1079 O 102.135 -0.197346 -2.00431 0
M  V30 1080 C 99.1997 -0.668879 -3.40187 0
M  V30 1081 C 98.2607 -1.80578 -3.89474 0
M  V30 1082 C 97.4937 -1.43457 -5.14058 0
M  V30 1083 O 97.7167 -0.325775 -5.69469 0
M  V30 1084 O 96.6507 -2.2613 -5.57807 0
M  V30 1085 H 100.477 -2.00516 -2.28094 0
M  V30 1086 H 98.0617 -1.03481 -1.0776 0
M  V30 1087 H 99.9437 -0.463211 -4.18846 0
M  V30 1088 H 98.6187 0.248536 -3.22744 0
M  V30 1089 H 97.5257 -2.06623 -3.11862 0
M  V30 1090 H 98.8587 -2.70208 -4.11398 0
M  V30 1091 N 100.511 1.16574 -1.06058 0
M  V30 1092 C 101.443 2.2045 -0.627239 0
M  V30 1093 C 102.456 1.59752 0.313534 0
M  V30 1094 O 103.645 1.78192 0.104896 0
M  V30 1095 C 100.745 3.3875 0.100974 0
M  V30 1096 C 99.9178 4.29008 -0.852687 0
M  V30 1097 C 98.9768 5.25944 -0.164152 0
M  V30 1098 O 98.0028 5.63535 -0.801047 0
M  V30 1099 N 99.2048 5.70075 1.09518 0
M  V30 1100 H 101.97 2.58249 -1.52077 0
M  V30 1101 H 99.5308 1.3156 -0.943594 0
M  V30 1102 H 101.523 4.00638 0.57194 0
M  V30 1103 H 100.093 2.99476 0.89628 0
M  V30 1104 H 99.3128 3.64419 -1.50308 0
M  V30 1105 H 100.601 4.86195 -1.49972 0
M  V30 1106 H 99.9988 5.41624 1.6328 0
M  V30 1107 H 98.5558 6.34067 1.51006 0
M  V30 1108 N 101.989 0.842826 1.3317 0
M  V30 1109 C 103.237 0.439577 1.97262 0
M  V30 1110 C 103.558 -1.00548 1.67078 0
M  V30 1111 O 102.828 -1.70098 0.971779 0
M  V30 1112 H 101.408 0.159558 0.72976 0
M  V30 1113 H 104.07 1.07665 1.62463 0
M  V30 1114 H 103.166 0.574886 3.0676 0
M  V30 1115 N 103.467 -1.45747 0.599634 0
M  V30 1116 C 104.713 -2.02592 0.0918643 0
M  V30 1117 C 105.046 -1.46806 -1.27128 0
M  V30 1118 O 104.321 -0.639658 -1.83681 0
M  V30 1119 C 104.604 -3.60073 0.0443398 0
M  V30 1120 C 104.457 -4.26208 1.43759 0
M  V30 1121 C 105.776 -4.35309 -0.647608 0
M  V30 1122 H 102.895 -0.736175 0.034857 0
M  V30 1123 H 105.537 -1.73694 0.770081 0
M  V30 1124 H 103.687 -3.84823 -0.533224 0
M  V30 1125 H 105.359 -4.12668 2.06162 0
M  V30 1126 H 103.602 -3.84916 2.00056 0
M  V30 1127 H 104.273 -5.35069 1.35665 0
M  V30 1128 H 106.749 -4.15805 -0.156776 0
M  V30 1129 H 105.625 -5.45038 -0.649942 0
M  V30 1130 H 105.886 -4.07598 -1.71219 0
M  V30 1131 N 104.945 -0.338344 -1.53925 0
M  V30 1132 C 106.356 0.146651 -1.86123 0
M  V30 1133 C 106.707 1.5042 -1.2597 0
M  V30 1134 O 105.832 2.08723 -0.571294 0
M  V30 1135 C 106.427 0.272879 -3.37699 0
M  V30 1136 C 104.986 0.702103 -3.69794 0
M  V30 1137 C 104.133 -0.167304 -2.76795 0
M  V30 1138 H 107.084 -0.558123 -1.48562 0
M  V30 1139 H 107.105 1.10128 -3.64214 0
M  V30 1140 H 106.617 -0.715307 -3.81451 0
M  V30 1141 H 104.718 1.6995 -3.31584 0
M  V30 1142 H 104.831 0.495604 -4.7653 0
M  V30 1143 H 103.195 0.359527 -2.5215 0
M  V30 1144 H 103.978 -1.15253 -3.23375 0
M  V30 1145 N 106.423 1.57458 -0.0668435 0
M  V30 1146 C 107.672 1.92477 0.602947 0
M  V30 1147 C 107.985 0.948419 1.71068 0
M  V30 1148 O 109.191 1.19124 2.43971 0
M  V30 1149 C 107.647 3.41903 1.12383 0
M  V30 1150 C 107.255 4.47975 0.04737 0
M  V30 1151 C 108.999 3.85931 1.76797 0
M  V30 1152 C 106.906 5.88529 0.582022 0
M  V30 1153 H 105.836 0.718387 0.22899 0
M  V30 1154 H 108.487 1.82978 -0.138276 0
M  V30 1155 H 106.869 3.46459 1.91787 0
M  V30 1156 H 108.043 4.55029 -0.726978 0
M  V30 1157 H 106.358 4.13384 -0.500243 0
M  V30 1158 H 108.955 4.88322 2.17821 0
M  V30 1159 H 109.298 3.23029 2.62599 0
M  V30 1160 H 109.831 3.83958 1.04024 0
M  V30 1161 H 106.57 6.55065 -0.238721 0
M  V30 1162 H 106.09 5.85004 1.324 0
M  V30 1163 H 107.769 6.38258 1.05999 0
M  V30 1164 N 107.901 -0.206675 1.56239 0
M  V30 1165 C 109.312 -0.772383 1.69974 0
M  V30 1166 C 109.663 -1.84353 0.671436 0
M  V30 1167 O 108.788 -2.15695 -0.174491 0
M  V30 1168 C 109.383 -1.40779 3.08167 0
M  V30 1169 C 107.942 -1.92072 3.23706 0
M  V30 1170 C 107.089 -0.786347 2.65917 0
M  V30 1171 H 110.04 0.0182223 1.5869 0
M  V30 1172 H 110.061 -2.27696 3.04852 0
M  V30 1173 H 109.573 -0.627958 3.82986 0
M  V30 1174 H 107.674 -2.7281 2.53782 0
M  V30 1175 H 107.787 -2.09046 4.31087 0
M  V30 1176 H 106.151 -1.1976 2.24788 0
M  V30 1177 H 106.934 -0.0189416 3.43295 0
M  V30 1178 N 109.379 -1.50304 -0.473955 0
M  V30 1179 C 110.625 -1.61389 -1.22806 0
M  V30 1180 C 110.958 -0.311955 -1.91678 0
M  V30 1181 O 110.233 0.686384 -1.81986 0
M  V30 1182 C 110.516 -2.79219 -2.27396 0
M  V30 1183 C 110.369 -4.19286 -1.62848 0
M  V30 1184 C 111.688 -2.92614 -3.28732 0
M  V30 1185 H 108.807 -0.587399 -0.445119 0
M  V30 1186 H 111.449 -1.82681 -0.522265 0
M  V30 1187 H 109.599 -2.61195 -2.87592 0
M  V30 1188 H 111.271 -4.48892 -1.06271 0
M  V30 1189 H 109.514 -4.23677 -0.931693 0
M  V30 1190 H 110.185 -4.97655 -2.38838 0
M  V30 1191 H 112.661 -3.09105 -2.78556 0
M  V30 1192 H 111.537 -3.76688 -3.99246 0
M  V30 1193 H 111.798 -2.03107 -3.92683 0
M  V30 1194 N 110.857 0.726932 -1.39834 0
M  V30 1195 C 112.273 1.03354 -1.21615 0
M  V30 1196 C 112.473 2.01327 -0.08338 0
M  V30 1197 O 111.529 2.46158 0.56238 0
M  V30 1198 C 112.842 1.58811 -2.55342 0
M  V30 1199 C 114.39 1.70851 -2.62257 0
M  V30 1200 C 114.865 2.29716 -3.96225 0
M  V30 1201 N 116.356 2.37116 -3.97907 0
M  V30 1202 C 117.091 2.83619 -4.98345 0
M  V30 1203 N 116.587 3.29958 -6.09179 0
M  V30 1204 N 118.38 2.82901 -4.8572 0
M  V30 1205 H 110.531 0.0773069 -2.12259 0
M  V30 1206 H 112.794 0.0969102 -0.943034 0
M  V30 1207 H 112.5 0.942855 -3.38826 0
M  V30 1208 H 112.374 2.57502 -2.75632 0
M  V30 1209 H 114.761 2.34497 -1.79152 0
M  V30 1210 H 114.842 0.707913 -2.45809 0
M  V30 1211 H 114.486 1.66696 -4.79765 0
M  V30 1212 H 114.416 3.30469 -4.09997 0
M  V30 1213 H 116.907 2.04374 -3.17868 0
M  V30 1214 H 117.22 3.63976 -6.8172 0
M  V30 1215 H 115.565 3.27946 -6.12761 0
M  V30 1216 H 118.756 2.46027 -3.98231 0
M  V30 1217 H 118.929 3.18827 -5.6414 0
M  V30 1218 N 112.336 1.25143 0.95797 0
M  V30 1219 C 113.269 0.995565 2.05338 0
M  V30 1220 C 114.247 -0.0740423 1.62431 0
M  V30 1221 O 115.431 0.0649212 1.88388 0
M  V30 1222 C 112.558 0.504298 3.34925 0
M  V30 1223 C 111.604 1.56393 3.96792 0
M  V30 1224 S 112.437 3.14815 4.33188 0
M  V30 1225 C 113.593 2.67415 5.65898 0
M  V30 1226 H 113.826 1.92309 2.26726 0
M  V30 1227 H 111.359 1.08635 1.09716 0
M  V30 1228 H 113.317 0.227497 4.09869 0
M  V30 1229 H 111.978 -0.402671 3.11508 0
M  V30 1230 H 111.171 1.17082 4.90212 0
M  V30 1231 H 110.773 1.79124 3.28315 0
M  V30 1232 H 113.065 2.10833 6.4386 0
M  V30 1233 H 114.008 3.59463 6.10076 0
M  V30 1234 H 114.416 2.07521 5.24972 0
M  V30 1235 N 113.814 -1.1601 1.06675 0
M  V30 1236 C 114.746 -2.20115 0.638921 0
M  V30 1237 C 115.759 -1.59916 -0.305057 0
M  V30 1238 O 116.948 -1.78245 -0.0954446 0
M  V30 1239 C 114.048 -3.38798 -0.0830083 0
M  V30 1240 C 113.221 -4.2855 0.875426 0
M  V30 1241 C 112.28 -5.25849 0.192042 0
M  V30 1242 O 111.306 -5.63102 0.830921 0
M  V30 1243 N 112.508 -5.70648 -1.06493 0
M  V30 1244 H 115.273 -2.57439 1.53444 0
M  V30 1245 H 112.834 -1.31057 0.950557 0
M  V30 1246 H 114.826 -4.00936 -0.550685 0
M  V30 1247 H 113.396 -2.99947 -0.880386 0
M  V30 1248 H 112.616 -3.63617 1.52238 0
M  V30 1249 H 113.904 -4.85393 1.52548 0
M  V30 1250 H 113.302 -5.42482 -1.60405 0
M  V30 1251 H 111.859 -6.34859 -1.47641 0
M  V30 1252 N 115.292 -0.849877 -1.32721 0
M  V30 1253 C 116.54 -0.450032 -1.97026 0
M  V30 1254 C 116.861 0.996604 -1.67609 0
M  V30 1255 O 116.131 1.6958 -0.980786 0
M  V30 1256 H 114.711 -0.163426 -0.728904 0
M  V30 1257 H 117.373 -1.08526 -1.6189 0
M  V30 1258 H 116.469 -0.591146 -3.0645 0
M  V30 1259 N 116.77 1.45427 -0.607355 0
M  V30 1260 C 117.68 2.34325 0.113463 0
M  V30 1261 C 118.696 1.51226 0.860617 0
M  V30 1262 O 119.872 1.84029 0.818255 0
M  V30 1263 C 116.937 3.28839 1.09844 0
M  V30 1264 C 115.998 4.27844 0.353271 0
M  V30 1265 C 115.231 5.17842 1.29133 0
M  V30 1266 O 115.454 5.11264 2.52913 0
M  V30 1267 O 114.388 5.96713 0.788523 0
M  V30 1268 H 118.214 2.97364 -0.617094 0
M  V30 1269 H 115.799 1.44807 -0.367619 0
M  V30 1270 H 117.681 3.8708 1.66575 0
M  V30 1271 H 116.356 2.68365 1.81003 0
M  V30 1272 H 115.263 3.7322 -0.256494 0
M  V30 1273 H 116.596 4.91173 -0.317822 0
M  V30 1274 N 118.248 0.346503 1.53744 0
M  V30 1275 C 119.495 -0.249104 2.00962 0
M  V30 1276 C 119.823 -1.5032 1.23426 0
M  V30 1277 O 119.078 -1.93217 0.310761 0
M  V30 1278 C 119.377 -0.605809 3.52228 0
M  V30 1279 C 119.043 0.551747 4.47512 0
M  V30 1280 C 117.705 0.86941 4.73281 0
M  V30 1281 C 120.057 1.32818 5.03993 0
M  V30 1282 C 117.385 1.96582 5.52786 0
M  V30 1283 C 119.737 2.41486 5.84694 0
M  V30 1284 C 118.401 2.73808 6.08757 0
M  V30 1285 H 117.671 -0.0911538 0.735372 0
M  V30 1286 H 120.318 0.475027 1.85515 0
M  V30 1287 H 118.623 -1.4107 3.65522 0
M  V30 1288 H 120.32 -1.07858 3.86222 0
M  V30 1289 H 116.91 0.294102 4.2759 0
M  V30 1290 H 121.094 1.09602 4.84047 0
M  V30 1291 H 116.35 2.22045 5.69654 0
M  V30 1292 H 120.524 3.02078 6.27473 0
M  V30 1293 H 118.151 3.58892 6.7015 0
M  V30 1294 N 119.726 -1.57421 0.075193 0
M  V30 1295 C 121.137 -1.81021 -0.456964 0
M  V30 1296 C 121.488 -0.98936 -1.69429 0
M  V30 1297 O 120.613 -0.212865 -2.15351 0
M  V30 1298 C 121.208 -3.28329 -0.83581 0
M  V30 1299 C 119.767 -3.52764 -1.31281 0
M  V30 1300 C 118.914 -2.75676 -0.299648 0
M  V30 1301 H 121.865 -1.55822 0.300856 0
M  V30 1302 H 121.886 -3.40564 -1.69696 0
M  V30 1303 H 121.398 -3.88046 0.0649238 0
M  V30 1304 H 119.499 -2.98355 -2.23193 0
M  V30 1305 H 119.612 -4.61451 -1.28839 0
M  V30 1306 H 117.976 -2.42538 -0.777641 0
M  V30 1307 H 118.759 -3.38132 0.593417 0
M  V30 1308 N 121.204 0.198386 -1.56346 0
M  V30 1309 C 122.136 1.26987 -1.90806 0
M  V30 1310 C 123.149 1.41877 -0.798419 0
M  V30 1311 O 124.338 1.42362 -1.07682 0
M  V30 1312 C 121.438 2.64246 -2.12196 0
M  V30 1313 C 120.611 2.71007 -3.43328 0
M  V30 1314 C 119.67 3.89439 -3.5387 0
M  V30 1315 O 118.696 3.76695 -4.26719 0
M  V30 1316 N 119.898 5.04752 -2.86715 0
M  V30 1317 H 122.663 0.977433 -2.83313 0
M  V30 1318 H 120.224 0.388322 -1.57174 0
M  V30 1319 H 122.216 3.41896 -2.1654 0
M  V30 1320 H 120.786 2.85992 -1.26204 0
M  V30 1321 H 120.006 1.79657 -3.50881 0
M  V30 1322 H 121.294 2.72512 -4.29668 0
M  V30 1323 H 120.692 5.18004 -2.2735 0
M  V30 1324 H 119.249 5.8036 -2.96691 0
M  V30 1325 N 122.682 1.50554 0.465978 0
M  V30 1326 C 123.592 1.72585 1.58907 0
M  V30 1327 C 124.608 0.60911 1.6299 0
M  V30 1328 O 125.784 0.88804 1.80765 0
M  V30 1329 C 122.849 1.81995 2.95091 0
M  V30 1330 C 121.91 3.05751 3.01355 0
M  V30 1331 C 121.143 3.14702 4.31043 0
M  V30 1332 O 121.366 2.30313 5.21835 0
M  V30 1333 O 120.3 4.07468 4.43005 0
M  V30 1334 H 124.126 2.67799 1.43239 0
M  V30 1335 H 121.711 1.34711 0.646013 0
M  V30 1336 H 123.593 1.90335 3.75966 0
M  V30 1337 H 122.268 0.899659 3.10947 0
M  V30 1338 H 121.175 3.02908 2.19539 0
M  V30 1339 H 122.508 3.97375 2.90437 0
M  V30 1340 N 124.16 -0.719506 1.40217 0
M  V30 1341 C 125.09 -1.8465 1.42922 0
M  V30 1342 C 126.071 -1.67599 0.29062 0
M  V30 1343 O 127.256 -1.87688 0.498677 0
M  V30 1344 C 124.386 -3.22565 1.28722 0
M  V30 1345 C 123.34 -3.54281 2.40144 0
M  V30 1346 C 122.666 -4.91298 2.11023 0
M  V30 1347 C 123.966 -3.55676 3.82481 0
M  V30 1348 H 125.66 -1.82644 2.37237 0
M  V30 1349 H 123.206 -0.877305 1.1419 0
M  V30 1350 H 125.159 -4.01095 1.29232 0
M  V30 1351 H 123.883 -3.25137 0.308811 0
M  V30 1352 H 122.542 -2.78088 2.38877 0
M  V30 1353 H 122.19 -4.90468 1.11582 0
M  V30 1354 H 121.89 -5.13485 2.8567 0
M  V30 1355 H 123.414 -5.72166 2.13209 0
M  V30 1356 H 124.828 -4.24254 3.85592 0
M  V30 1357 H 123.225 -3.89388 4.56614 0
M  V30 1358 H 124.295 -2.55144 4.12346 0
M  V30 1359 N 125.638 -1.25649 -0.95132 0
M  V30 1360 C 126.601 -1.06399 -2.03007 0
M  V30 1361 C 127.601 -0.0156794 -1.60792 0
M  V30 1362 O 128.791 -0.25817 -1.72276 0
M  V30 1363 C 125.923 -0.616184 -3.35285 0
M  V30 1364 H 127.116 -2.02164 -2.21517 0
M  V30 1365 H 124.669 -1.08103 -1.12887 0
M  V30 1366 H 125.404 0.343917 -3.22471 0
M  V30 1367 H 125.189 -1.37301 -3.67275 0
M  V30 1368 H 126.679 -0.503032 -4.14559 0
M  V30 1369 N 127.117 1.15442 -1.07289 0
M  V30 1370 C 128.342 1.90638 -0.816828 0
M  V30 1371 C 128.767 1.77445 0.624083 0
M  V30 1372 O 128.125 1.10671 1.43602 0
M  V30 1373 C 128.173 3.39008 -1.22906 0
M  V30 1374 O 127.277 4.10701 -0.373975 0
M  V30 1375 H 126.618 0.593555 -0.297638 0
M  V30 1376 H 129.148 1.46198 -1.43134 0
M  V30 1377 H 129.158 3.89801 -1.20497 0
M  V30 1378 H 127.833 3.47929 -2.27856 0
M  V30 1379 H 126.41 3.70046 -0.460499 0
M  V30 1380 N 128.595 0.856903 1.32268 0
M  V30 1381 C 129.823 0.475439 2.01363 0
M  V30 1382 C 130.238 -0.928486 1.64392 0
M  V30 1383 O 129.595 -1.60624 0.866387 0
M  V30 1384 C 129.646 0.607545 3.56358 0
M  V30 1385 O 129.367 1.95617 3.92002 0
M  V30 1386 C 130.868 0.225382 4.42727 0
M  V30 1387 H 128.088 0.186636 0.644521 0
M  V30 1388 H 130.632 1.15446 1.68797 0
M  V30 1389 H 128.787 -0.0237719 3.87393 0
M  V30 1390 H 129.201 1.95455 4.86721 0
M  V30 1391 H 130.675 0.368813 5.50767 0
M  V30 1392 H 131.152 -0.834369 4.31202 0
M  V30 1393 H 131.758 0.831864 4.17085 0
M  V30 1394 N 130.073 -1.45103 0.615059 0
M  V30 1395 C 131.484 -1.85654 0.197383 0
M  V30 1396 C 131.835 -1.51433 -1.24749 0
M  V30 1397 O 130.96 -0.944608 -1.94695 0
M  V30 1398 C 131.555 -3.36972 0.351448 0
M  V30 1399 C 130.114 -3.76398 -0.011593 0
M  V30 1400 C 129.261 -2.69024 0.672394 0
M  V30 1401 H 132.212 -1.35797 0.821263 0
M  V30 1402 H 132.233 -3.78239 -0.414227 0
M  V30 1403 H 131.745 -3.61847 1.40314 0
M  V30 1404 H 129.846 -3.5714 -1.06217 0
M  V30 1405 H 129.959 -4.77532 0.387265 0
M  V30 1406 H 128.323 -2.54465 0.109284 0
M  V30 1407 H 129.106 -2.96735 1.72636 0
M  V30 1408 N 131.551 -0.354651 -1.53558 0
M  V30 1409 C 132.481 0.489091 -2.2832 0
M  V30 1410 C 133.462 1.09324 -1.30316 0
M  V30 1411 O 134.647 1.11255 -1.59173 0
M  V30 1412 C 131.777 1.63456 -3.0643 0
M  V30 1413 C 130.731 1.1582 -4.12031 0
M  V30 1414 C 130.057 2.39305 -4.7816 0
M  V30 1415 C 131.357 0.250731 -5.21698 0
M  V30 1416 H 133.051 -0.134614 -2.99097 0
M  V30 1417 H 130.597 -0.0661826 -1.43848 0
M  V30 1418 H 132.55 2.23136 -3.57475 0
M  V30 1419 H 131.274 2.28533 -2.33325 0
M  V30 1420 H 129.933 0.584146 -3.61916 0
M  V30 1421 H 129.581 3.02814 -4.01637 0
M  V30 1422 H 129.281 2.08109 -5.49513 0
M  V30 1423 H 130.805 2.99691 -5.31994 0
M  V30 1424 H 132.219 0.754695 -5.68311 0
M  V30 1425 H 130.616 0.0301468 -6.00092 0
M  V30 1426 H 131.686 -0.710125 -4.79672 0
M  V30 1427 N 133.029 1.57378 -0.0835403 0
M  V30 1428 C 133.939 2.16897 0.894021 0
M  V30 1429 C 134.955 1.13528 1.31861 0
M  V30 1430 O 136.131 1.45848 1.3889 0
M  V30 1431 C 133.196 2.72831 2.13925 0
M  V30 1432 C 132.257 3.91115 1.76997 0
M  V30 1433 C 131.49 4.44371 2.95584 0
M  V30 1434 O 131.713 3.96596 4.09961 0
M  V30 1435 O 130.647 5.35549 2.74719 0
M  V30 1436 H 134.473 3.00814 0.417679 0
M  V30 1437 H 132.058 1.48741 0.140181 0
M  V30 1438 H 133.94 3.0863 2.86924 0
M  V30 1439 H 132.615 1.91967 2.60635 0
M  V30 1440 H 131.522 3.60148 1.01214 0
M  V30 1441 H 132.855 4.73307 1.3506 0
M  V30 1442 N 134.507 -0.190092 1.56449 0
M  V30 1443 C 135.784 -0.935886 1.71757 0
M  V30 1444 C 136.164 -2.01173 0.639726 0
M  V30 1445 O 135.512 -2.25827 -0.348502 0
M  V30 1446 C 135.722 -1.51775 3.1427 0
M  V30 1447 C 137.07 -1.99794 3.74656 0
M  V30 1448 O 138.094 -1.61607 3.1743 0
M  V30 1449 O 136.953 -2.70079 4.751 0
M  V30 1450 H 134.047 -0.439229 0.700719 0
M  V30 1451 H 136.593 -0.179395 1.68749 0
M  V30 1452 H 135.365 -0.742505 3.84191 0
M  V30 1453 H 134.988 -2.33894 3.21527 0
M  V30 1454 N 135.985 -1.50799 -0.457987 0
M  V30 1455 C 137.234 -1.6168 -1.20593 0
M  V30 1456 C 137.547 -0.32888 -1.92815 0
M  V30 1457 O 138.753 -0.316773 -2.69646 0
M  V30 1458 C 137.209 -2.8545 -2.19195 0
M  V30 1459 C 136.817 -4.21168 -1.52715 0
M  V30 1460 C 138.561 -3.05681 -2.94549 0
M  V30 1461 C 136.468 -5.3611 -2.4968 0
M  V30 1462 H 135.398 -0.602134 -0.453818 0
M  V30 1463 H 138.049 -1.77245 -0.475031 0
M  V30 1464 H 136.431 -2.63472 -2.95632 0
M  V30 1465 H 137.605 -4.53449 -0.819775 0
M  V30 1466 H 135.92 -4.06648 -0.895922 0
M  V30 1467 H 138.517 -3.88727 -3.67145 0
M  V30 1468 H 138.86 -2.17929 -3.54701 0
M  V30 1469 H 139.393 -3.27901 -2.25223 0
M  V30 1470 H 136.132 -6.26057 -1.94249 0
M  V30 1471 H 135.652 -5.0823 -3.18532 0
M  V30 1472 H 137.331 -5.6722 -3.11241 0
M  V30 1473 N 137.463 0.71206 -1.40597 0
M  V30 1474 C 138.74 1.46536 -1.29563 0
M  V30 1475 C 139.12 2.10931 0.0844217 0
M  V30 1476 O 138.468 2.00418 1.0975 0
M  V30 1477 C 138.678 2.49821 -2.43701 0
M  V30 1478 C 140.026 3.15551 -2.841 0
M  V30 1479 O 141.05 2.60142 -2.4332 0
M  V30 1480 O 139.909 4.15867 -3.54566 0
M  V30 1481 H 137.003 0.651801 -0.509004 0
M  V30 1482 H 139.549 0.743935 -1.52524 0
M  V30 1483 H 138.321 2.00778 -3.35863 0
M  V30 1484 H 137.944 3.29495 -2.22528 0
M  V30 1485 N 138.941 1.26152 0.944643 0
M  V30 1486 C 140.166 1.14363 1.7302 0
M  V30 1487 C 140.591 -0.29772 1.85729 0
M  V30 1488 O 139.949 -1.2157 1.34501 0
M  V30 1489 C 139.997 1.81378 3.11664 0
M  V30 1490 O 139.101 1.10022 3.97453 0
M  V30 1491 H 138.442 0.398694 0.53098 0
M  V30 1492 H 140.972 1.66906 1.18337 0
M  V30 1493 H 140.982 1.88064 3.62072 0
M  V30 1494 H 139.657 2.86237 3.0173 0
M  V30 1495 H 138.234 1.11287 3.55907 0
M  V30 1496 N 140.419 -1.14872 1.07899 0
M  V30 1497 C 141.649 -1.89386 0.825631 0
M  V30 1498 C 142.057 -1.78565 -0.625406 0
M  V30 1499 O 141.4 -1.13918 -1.44113 0
M  V30 1500 C 141.462 -3.40206 1.16191 0
M  V30 1501 C 141.126 -3.74812 2.61467 0
M  V30 1502 C 142.123 -3.75367 3.59716 0
M  V30 1503 C 139.808 -4.0495 2.97189 0
M  V30 1504 C 141.802 -4.05574 4.9172 0
M  V30 1505 C 139.489 -4.34821 4.29388 0
M  V30 1506 C 140.487 -4.35116 5.26463 0
M  V30 1507 O 140.175 -4.64267 6.56286 0
M  V30 1508 H 139.907 -0.606894 0.297751 0
M  V30 1509 H 142.461 -1.46438 1.44031 0
M  V30 1510 H 140.691 -3.8358 0.490214 0
M  V30 1511 H 142.38 -3.96018 0.890193 0
M  V30 1512 H 143.146 -3.52176 3.33462 0
M  V30 1513 H 139.025 -4.03876 2.22273 0
M  V30 1514 H 142.569 -4.05719 5.67484 0
M  V30 1515 H 138.466 -4.5748 4.55392 0
M  V30 1516 H 139.234 -4.82007 6.61522 0
M  V30 1517 N 141.898 -0.863906 -1.31812 0
M  V30 1518 C 143.128 -0.485406 -2.00817 0
M  V30 1519 C 143.536 0.925007 -1.65046 0
M  V30 1520 O 142.879 1.61653 -0.872574 0
M  V30 1521 C 142.941 -0.555589 -3.55181 0
M  V30 1522 C 142.605 -1.92654 -4.14407 0
M  V30 1523 C 143.602 -2.89324 -4.31958 0
M  V30 1524 C 141.287 -2.2262 -4.50273 0
M  V30 1525 C 143.281 -4.14108 -4.84555 0
M  V30 1526 C 140.968 -3.47654 -5.02573 0
M  V30 1527 C 141.966 -4.43214 -5.19664 0
M  V30 1528 O 141.654 -5.66033 -5.70843 0
M  V30 1529 H 141.386 -0.188224 -0.649267 0
M  V30 1530 H 143.94 -1.16514 -1.69156 0
M  V30 1531 H 142.17 0.181037 -3.86276 0
M  V30 1532 H 143.859 -0.19138 -4.05449 0
M  V30 1533 H 144.625 -2.6748 -4.04573 0
M  V30 1534 H 140.504 -1.4902 -4.3625 0
M  V30 1535 H 144.048 -4.88703 -4.9781 0
M  V30 1536 H 139.945 -3.69345 -5.29391 0
M  V30 1537 H 140.713 -5.6812 -5.89222 0
M  V30 1538 N 143.376 1.44774 -0.622745 0
M  V30 1539 C 144.326 2.2774 0.108889 0
M  V30 1540 C 145.31 1.38189 0.824175 0
M  V30 1541 O 146.502 1.62063 0.711664 0
M  V30 1542 C 143.631 3.25353 1.09546 0
M  V30 1543 C 142.717 4.22392 0.380232 0
M  V30 1544 N 143.108 5.02388 -0.586535 0
M  V30 1545 C 141.406 4.41588 0.625792 0
M  V30 1546 C 142.107 5.72894 -1.00834 0
M  V30 1547 N 141.083 5.42479 -0.348878 0
M  V30 1548 H 144.885 2.86993 -0.63341 0
M  V30 1549 H 142.399 1.5611 -0.447589 0
M  V30 1550 H 144.396 3.83538 1.63414 0
M  V30 1551 H 143.056 2.6766 1.83815 0
M  V30 1552 H 144.067 5.0885 -0.963975 0
M  V30 1553 H 140.744 3.95003 1.352 0
M  V30 1554 H 142.134 6.47158 -1.80656 0
M  V30 1555 N 144.854 0.36279 1.53368 0
M  V30 1556 C 145.802 -0.500155 2.27159 0
M  V30 1557 C 146.796 -1.08575 1.3003 0
M  V30 1558 O 148.002 -1.02927 1.47668 0
M  V30 1559 H 144.377 -0.180009 0.730138 0
M  V30 1560 H 146.348 0.14401 2.98052 0
M  V30 1561 C 145.097 -1.62937 3.07159 0
M  V30 1562 H 144.42 -1.18806 3.8174 0
M  V30 1563 H 145.86 -2.20795 3.61975 0
M  V30 1564 C 144.319 -2.57007 2.17829 0
M  V30 1565 O 144.849 -3.59752 1.78721 0
M  V30 1566 N 143.055 -2.26131 1.82518 0
M  V30 1567 H 142.602 -1.42616 2.14519 0
M  V30 1568 H 142.56 -2.89327 1.23034 0
M  V30 1569 N 146.332 -1.57332 0.0918853 0
M  V30 1570 C 147.264 -2.10869 -0.898168 0
M  V30 1571 C 148.277 -1.04521 -1.24817 0
M  V30 1572 O 149.466 -1.31977 -1.20184 0
M  V30 1573 C 146.566 -2.57083 -2.2082 0
M  V30 1574 C 145.739 -3.87229 -2.03402 0
M  V30 1575 C 144.798 -4.19324 -3.17889 0
M  V30 1576 O 143.824 -4.88598 -2.91994 0
M  V30 1577 N 145.026 -3.74471 -4.43567 0
M  V30 1578 H 147.791 -2.96439 -0.440943 0
M  V30 1579 H 145.352 -1.61631 -0.0933064 0
M  V30 1580 H 147.344 -2.75602 -2.96354 0
M  V30 1581 H 145.914 -1.76541 -2.57977 0
M  V30 1582 H 145.134 -3.7789 -1.12218 0
M  V30 1583 H 146.422 -4.72379 -1.89038 0
M  V30 1584 H 145.82 -3.18546 -4.67488 0
M  V30 1585 H 144.377 -3.98151 -5.16061 0
M  V30 1586 N 147.81 0.181792 -1.56548 0
M  V30 1587 C 149.226 0.53316 -1.50431 0
M  V30 1588 C 149.426 1.85184 -0.794297 0
M  V30 1589 O 148.482 2.50058 -0.350318 0
M  V30 1590 C 149.795 0.575597 -2.9514 0
M  V30 1591 C 151.343 0.663519 -3.05886 0
M  V30 1592 C 151.818 0.736946 -4.52032 0
M  V30 1593 N 153.309 0.800118 -4.56237 0
M  V30 1594 C 154.044 0.877327 -5.66649 0
M  V30 1595 N 153.54 0.916016 -6.86718 0
M  V30 1596 N 155.333 0.915542 -5.54594 0
M  V30 1597 H 147.484 -0.683025 -2.01118 0
M  V30 1598 H 149.747 -0.244988 -0.915797 0
M  V30 1599 H 149.453 -0.324482 -3.502 0
M  V30 1600 H 149.327 1.42572 -3.49218 0
M  V30 1601 H 151.714 1.55403 -2.50867 0
M  V30 1602 H 151.795 -0.21307 -2.54911 0
M  V30 1603 H 151.439 -0.149262 -5.07681 0
M  V30 1604 H 151.369 1.62953 -5.00753 0
M  V30 1605 H 153.86 0.778926 -3.69785 0
M  V30 1606 H 154.173 0.975813 -7.66614 0
M  V30 1607 H 152.518 0.884469 -6.89349 0
M  V30 1608 H 155.709 0.882245 -4.59711 0
M  V30 1609 H 155.882 0.972253 -6.40665 0
M  V30 1610 N 149.288 1.51039 0.449983 0
M  V30 1611 C 150.516 1.66869 1.2232 0
M  V30 1612 C 150.931 0.360727 1.85322 0
M  V30 1613 O 150.288 -0.659531 1.70166 0
M  V30 1614 C 150.339 2.77524 2.31652 0
M  V30 1615 O 150.06 4.03252 1.7123 0
M  V30 1616 C 151.561 3.04512 3.2216 0
M  V30 1617 H 148.781 0.560326 0.369155 0
M  V30 1618 H 151.325 1.97385 0.534719 0
M  V30 1619 H 149.48 2.49642 2.96239 0
M  V30 1620 H 149.894 4.64609 2.43389 0
M  V30 1621 H 151.368 3.85551 3.95038 0
M  V30 1622 H 151.845 2.16415 3.8218 0
M  V30 1623 H 152.451 3.34005 2.63288 0
M  V30 1624 N 150.766 -0.704594 1.40972 0
M  V30 1625 C 152.013 -1.46458 1.39844 0
M  V30 1626 C 152.341 -1.94499 0.00447594 0
M  V30 1627 O 151.596 -1.69275 -0.982057 0
M  V30 1628 C 151.895 -2.698 2.34399 0
M  V30 1629 C 151.561 -2.40464 3.81429 0
M  V30 1630 C 150.223 -2.32174 4.21484 0
M  V30 1631 C 152.575 -2.16086 4.74296 0
M  V30 1632 C 149.903 -1.97589 5.52427 0
M  V30 1633 C 152.255 -1.83011 6.05549 0
M  V30 1634 C 150.919 -1.7321 6.44635 0
M  V30 1635 H 150.189 -0.535927 0.511725 0
M  V30 1636 H 152.836 -0.806124 1.73706 0
M  V30 1637 H 151.141 -3.40536 1.93759 0
M  V30 1638 H 152.838 -3.27919 2.30804 0
M  V30 1639 H 149.428 -2.47808 3.49699 0
M  V30 1640 H 153.612 -2.2144 4.4416 0
M  V30 1641 H 148.868 -1.88547 5.81601 0
M  V30 1642 H 153.042 -1.63164 6.77016 0
M  V30 1643 H 150.669 -1.46179 7.46013 0
M  V30 1644 N 152.244 -1.26651 -0.937939 0
M  V30 1645 C 153.49 -1.12553 -1.687 0
M  V30 1646 C 153.823 0.329782 -1.91379 0
M  V30 1647 O 153.098 1.24202 -1.4968 0
M  V30 1648 C 153.381 -1.89862 -3.05981 0
M  V30 1649 C 153.234 -3.43318 -2.90607 0
M  V30 1650 C 154.553 -1.69499 -4.0615 0
M  V30 1651 H 151.672 -0.410257 -0.612257 0
M  V30 1652 H 154.314 -1.55685 -1.08913 0
M  V30 1653 H 152.464 -1.53204 -3.57017 0
M  V30 1654 H 154.136 -3.89747 -2.46769 0
M  V30 1655 H 152.379 -3.70179 -2.26164 0
M  V30 1656 H 153.05 -3.92642 -3.8799 0
M  V30 1657 H 155.526 -2.01442 -3.64088 0
M  V30 1658 H 154.402 -2.26002 -5.00214 0
M  V30 1659 H 154.663 -0.640365 -4.37438 0
M  V30 1660 N 153.722 1.14298 -1.08507 0
M  V30 1661 C 154.968 1.85633 -0.816581 0
M  V30 1662 C 155.301 1.82784 0.656021 0
M  V30 1663 O 154.576 1.25926 1.48233 0
M  V30 1664 C 154.859 3.34223 -1.34041 0
M  V30 1665 C 154.712 3.45639 -2.87843 0
M  V30 1666 C 156.031 4.29356 -0.9665 0
M  V30 1667 H 153.15 0.67402 -0.298104 0
M  V30 1668 H 155.792 1.34214 -1.34487 0
M  V30 1669 H 153.942 3.78144 -0.89104 0
M  V30 1670 H 155.614 3.10498 -3.41158 0
M  V30 1671 H 153.857 2.86817 -3.25451 0
M  V30 1672 H 154.528 4.50089 -3.19569 0
M  V30 1673 H 157.004 3.93457 -1.35391 0
M  V30 1674 H 155.88 5.3178 -1.3602 0
M  V30 1675 H 156.141 4.41919 0.126362 0
M  V30 1676 N 155.201 0.870884 1.31352 0
M  V30 1677 C 156.45 0.478408 1.95944 0
M  V30 1678 C 156.763 -0.974493 1.69597 0
M  V30 1679 O 157.969 -1.47316 2.28058 0
M  V30 1680 C 156.425 0.804609 3.50791 0
M  V30 1681 C 156.033 2.27433 3.85977 0
M  V30 1682 C 157.777 0.480648 4.2177 0
M  V30 1683 C 155.684 2.5429 5.33939 0
M  V30 1684 H 154.614 0.175175 0.733369 0
M  V30 1685 H 157.265 1.06391 1.4951 0
M  V30 1686 H 155.647 0.148347 3.95722 0
M  V30 1687 H 156.821 2.97373 3.52002 0
M  V30 1688 H 155.136 2.56442 3.28065 0
M  V30 1689 H 157.733 0.658519 5.30629 0
M  V30 1690 H 158.076 -0.578979 4.12254 0
M  V30 1691 H 158.609 1.09349 3.82476 0
M  V30 1692 H 155.348 3.58939 5.48491 0
M  V30 1693 H 154.868 1.88945 5.69263 0
M  V30 1694 H 156.547 2.39066 6.01212 0
M  V30 1695 N 156.679 -1.44442 0.630414 0
M  V30 1696 C 157.904 -2.06927 0.139944 0
M  V30 1697 C 158.329 -1.46795 -1.17613 0
M  V30 1698 O 157.687 -0.569144 -1.72135 0
M  V30 1699 C 157.735 -3.6058 0.0379581 0
M  V30 1700 O 156.839 -3.99937 -1.0062 0
M  V30 1701 H 156.18 -0.658608 0.0844483 0
M  V30 1702 H 158.71 -1.85327 0.866891 0
M  V30 1703 H 158.72 -4.07714 -0.152856 0
M  V30 1704 H 157.395 -4.03728 0.998809 0
M  V30 1705 H 155.972 -3.64436 -0.79001 0
M  V30 1706 N 158.157 -0.370918 -1.53173 0
M  V30 1707 C 159.104 0.473035 -2.259 0
M  V30 1708 C 160.074 1.07311 -1.26781 0
M  V30 1709 O 161.259 1.1046 -1.55574 0
M  V30 1710 C 158.399 1.60405 -3.05556 0
M  V30 1711 C 157.512 1.02863 -4.19575 0
M  V30 1712 C 156.647 2.12918 -4.86661 0
M  V30 1713 C 155.686 1.52869 -5.92704 0
M  V30 1714 N 154.823 2.56779 -6.53459 0
M  V30 1715 H 159.663 -0.153649 -2.97604 0
M  V30 1716 H 157.2 -0.0875946 -1.46839 0
M  V30 1717 H 159.158 2.27034 -3.50016 0
M  V30 1718 H 157.788 2.20131 -2.36097 0
M  V30 1719 H 156.84 0.252465 -3.79561 0
M  V30 1720 H 158.152 0.549642 -4.95762 0
M  V30 1721 H 157.306 2.87356 -5.34333 0
M  V30 1722 H 156.045 2.6417 -4.09958 0
M  V30 1723 H 155.05 0.769479 -5.44389 0
M  V30 1724 H 156.275 1.02435 -6.7133 0
M  V30 1725 H 154.221 3.07235 -5.79606 0
M  V30 1726 H 154.138 2.13583 -7.25202 0
M  V30 1727 H 155.406 3.30903 -7.05779 0
M  V30 1728 N 159.635 1.57281 -0.100228 0
M  V30 1729 C 160.883 1.94153 0.561157 0
M  V30 1730 C 161.204 0.983157 1.68401 0
M  V30 1731 O 160.474 0.0361132 1.95867 0
M  V30 1732 H 159.054 0.716791 0.210283 0
M  V30 1733 H 161.716 1.94202 -0.164765 0
M  V30 1734 H 160.812 2.96709 0.968008 0
M  V30 1735 N 161.113 -0.173488 1.56642 0
M  V30 1736 C 162.06 -1.21482 1.96242 0
M  V30 1737 C 163.03 -1.44104 0.826027 0
M  V30 1738 O 164.215 -1.5688 1.08597 0
M  V30 1739 C 161.355 -2.54964 2.32567 0
M  V30 1740 C 160.468 -2.39739 3.59373 0
M  V30 1741 C 159.603 -3.66072 3.84921 0
M  V30 1742 C 158.642 -3.45771 5.05083 0
M  V30 1743 N 157.779 -4.64169 5.26775 0
M  V30 1744 H 162.619 -0.870123 2.85014 0
M  V30 1745 H 160.156 -0.418245 1.41029 0
M  V30 1746 H 162.114 -3.32758 2.5165 0
M  V30 1747 H 160.744 -2.87433 1.46908 0
M  V30 1748 H 159.796 -1.53131 3.48217 0
M  V30 1749 H 161.108 -2.20683 4.47326 0
M  V30 1750 H 160.262 -4.52303 4.0436 0
M  V30 1751 H 159.001 -3.88105 2.9534 0
M  V30 1752 H 158.006 -2.57927 4.85545 0
M  V30 1753 H 159.231 -3.25163 5.96193 0
M  V30 1754 H 157.177 -4.86425 4.40144 0
M  V30 1755 H 157.094 -4.48019 6.08946 0
M  V30 1756 H 158.362 -5.51689 5.5069 0
M  V30 1757 N 162.591 -1.51276 -0.441967 0
M  V30 1758 C 163.868 -1.54252 -1.20273 0
M  V30 1759 C 164.248 -0.30408 -2.08898 0
M  V30 1760 O 163.596 0.711084 -2.17154 0
M  V30 1761 C 163.806 -2.85406 -2.00859 0
M  V30 1762 C 165.154 -3.37181 -2.58059 0
M  V30 1763 O 166.178 -2.86925 -2.11074 0
M  V30 1764 O 165.037 -4.24858 -3.43741 0
M  V30 1765 H 162.131 -0.619969 -0.547328 0
M  V30 1766 H 164.677 -1.63586 -0.451413 0
M  V30 1767 H 163.449 -3.67003 -1.35736 0
M  V30 1768 H 163.072 -2.79213 -2.83065 0
M  V30 1769 N 164.069 0.697108 -1.41344 0
M  V30 1770 C 165.318 1.45279 -1.39918 0
M  V30 1771 C 165.631 1.95597 -0.0109624 0
M  V30 1772 O 166.837 2.71208 0.125919 0
M  V30 1773 C 165.293 2.62695 -2.46007 0
M  V30 1774 C 164.901 2.19169 -3.90729 0
M  V30 1775 C 166.645 3.40336 -2.53715 0
M  V30 1776 C 164.552 3.33535 -4.88373 0
M  V30 1777 H 163.482 0.545692 -0.520323 0
M  V30 1778 H 166.133 0.756929 -1.67161 0
M  V30 1779 H 164.515 3.34541 -2.11892 0
M  V30 1780 H 165.689 1.54623 -4.34083 0
M  V30 1781 H 164.004 1.54525 -3.86666 0
M  V30 1782 H 166.601 4.2547 -3.2385 0
M  V30 1783 H 166.944 3.85418 -1.5735 0
M  V30 1784 H 167.477 2.75546 -2.86913 0
M  V30 1785 H 164.216 2.93468 -5.86137 0
M  V30 1786 H 163.736 3.96936 -4.49668 0
M  V30 1787 H 165.415 3.99335 -5.09059 0
M  V30 1788 N 165.547 1.27147 0.931209 0
M  V30 1789 C 166.794 1.13278 1.67852 0
M  V30 1790 C 167.122 -0.32204 1.91815 0
M  V30 1791 O 166.377 -1.25224 1.50391 0
M  V30 1792 C 166.676 1.8579 3.05314 0
M  V30 1793 C 166.342 3.35657 3.01073 0
M  V30 1794 C 165.004 3.76536 2.99623 0
M  V30 1795 C 167.356 4.31299 2.92627 0
M  V30 1796 C 164.684 5.11426 2.87506 0
M  V30 1797 C 167.036 5.66242 2.82051 0
M  V30 1798 C 165.7 6.06418 2.7895 0
M  V30 1799 H 164.97 0.414515 0.614214 0
M  V30 1800 H 167.617 1.57712 1.08624 0
M  V30 1801 H 165.922 1.33854 3.68226 0
M  V30 1802 H 167.619 1.72491 3.62005 0
M  V30 1803 H 164.209 3.03146 3.02986 0
M  V30 1804 H 168.393 4.00692 2.92848 0
M  V30 1805 H 163.649 5.41705 2.83489 0
M  V30 1806 H 167.823 6.40026 2.74481 0
M  V30 1807 H 165.45 7.10895 2.69318 0
M  V30 1808 N 167.025 -1.13721 1.09112 0
M  V30 1809 C 168.441 -1.36914 0.820174 0
M  V30 1810 C 168.641 -1.93356 -0.567079 0
M  V30 1811 O 167.697 -2.15093 -1.32255 0
M  V30 1812 C 169.01 -2.3235 1.90877 0
M  V30 1813 C 170.558 -2.45973 1.93562 0
M  V30 1814 C 171.033 -3.44714 3.01556 0
M  V30 1815 N 172.524 -3.52263 3.00775 0
M  V30 1816 C 173.259 -4.28536 3.80978 0
M  V30 1817 N 172.755 -5.07991 4.71081 0
M  V30 1818 N 174.548 -4.23804 3.69251 0
M  V30 1819 H 166.699 -0.754348 1.98553 0
M  V30 1820 H 168.962 -0.3944 0.862063 0
M  V30 1821 H 168.668 -1.98027 2.90651 0
M  V30 1822 H 168.542 -3.32332 1.78424 0
M  V30 1823 H 170.929 -2.79584 0.944286 0
M  V30 1824 H 171.01 -1.45926 2.10093 0
M  V30 1825 H 170.654 -3.11835 4.00901 0
M  V30 1826 H 170.584 -4.44558 2.82269 0
M  V30 1827 H 173.075 -2.95567 2.35475 0
M  V30 1828 H 173.388 -5.63487 5.28869 0
M  V30 1829 H 171.733 -5.07235 4.75119 0
M  V30 1830 H 174.924 -3.60806 2.98222 0
M  V30 1831 H 175.097 -4.82995 4.31995 0
M  V30 1832 N 168.503 -0.877838 -1.30888 0
M  V30 1833 C 169.75 -0.492696 -1.96415 0
M  V30 1834 C 170.078 0.956671 -1.69346 0
M  V30 1835 O 169.333 1.68993 -0.986913 0
M  V30 1836 C 169.632 -0.705748 -3.50363 0
M  V30 1837 C 169.298 -2.1291 -3.97467 0
M  V30 1838 C 167.96 -2.51834 -4.1004 0
M  V30 1839 C 170.312 -3.05702 -4.22132 0
M  V30 1840 C 167.64 -3.82775 -4.44635 0
M  V30 1841 C 169.992 -4.36166 -4.58194 0
M  V30 1842 C 168.656 -4.74993 -4.68975 0
M  V30 1843 H 167.926 -0.18029 -0.718733 0
M  V30 1844 H 170.573 -1.11233 -1.55883 0
M  V30 1845 H 168.878 -0.00303058 -3.918 0
M  V30 1846 H 170.575 -0.387456 -3.99124 0
M  V30 1847 H 167.165 -1.81694 -3.88182 0
M  V30 1848 H 171.349 -2.76853 -4.11906 0
M  V30 1849 H 166.605 -4.12609 -4.51181 0
M  V30 1850 H 170.779 -5.08111 -4.76231 0
M  V30 1851 H 168.406 -5.76495 -4.95537 0
M  V30 1852 N 169.982 1.44106 -0.638065 0
M  V30 1853 C 171.207 2.0685 -0.150916 0
M  V30 1854 C 171.632 1.47417 1.16833 0
M  V30 1855 O 170.99 0.578264 1.71831 0
M  V30 1856 C 171.038 3.60555 -0.05708 0
M  V30 1857 O 170.142 4.00465 0.984972 0
M  V30 1858 H 169.483 0.658151 -0.0879399 0
M  V30 1859 H 172.013 1.84865 -0.876707 0
M  V30 1860 H 172.023 4.07789 0.131232 0
M  V30 1861 H 170.698 4.03193 -1.02021 0
M  V30 1862 H 169.275 3.64849 0.770672 0
M  V30 1863 N 171.46 0.379036 1.52974 0
M  V30 1864 C 172.423 -0.448865 2.24762 0
M  V30 1865 C 173.423 -0.998689 1.26027 0
M  V30 1866 O 174.613 -0.882313 1.50203 0
M  V30 1867 C 171.745 -1.62872 2.99476 0
M  V30 1868 H 172.938 0.179491 2.99362 0
M  V30 1869 H 170.491 0.13096 1.5575 0
M  V30 1870 H 171.226 -2.29479 2.29151 0
M  V30 1871 H 171.011 -1.24128 3.71934 0
M  V30 1872 H 172.501 -2.2151 3.5401 0
M  V30 1873 N 172.938 -1.57226 0.108567 0
M  V30 1874 C 174.166 -1.99179 -0.559954 0
M  V30 1875 C 174.581 -0.988022 -1.60884 0
M  V30 1876 O 173.938 0.0205512 -1.82488 0
M  V30 1877 C 173.989 -3.41159 -1.19552 0
M  V30 1878 O 173.71 -4.37694 -0.188577 0
M  V30 1879 C 175.211 -3.98188 -1.94837 0
M  V30 1880 H 172.431 -0.654228 -0.149088 0
M  V30 1881 H 174.975 -2.03598 0.19183 0
M  V30 1882 H 173.13 -3.37711 -1.89815 0
M  V30 1883 H 173.544 -5.20469 -0.649014 0
M  V30 1884 H 175.018 -4.99644 -2.34648 0
M  V30 1885 H 175.495 -3.3675 -2.81951 0
M  V30 1886 H 176.101 -4.0515 -1.2936 0
M  V30 1887 N 174.416 0.165178 -1.56732 0
M  V30 1888 C 175.364 1.22369 -1.97809 0
M  V30 1889 C 176.358 1.45488 -0.867741 0
M  V30 1890 O 177.564 1.45995 -1.05288 0
M  V30 1891 H 173.939 0.411486 -0.629431 0
M  V30 1892 H 175.91 0.850425 -2.86025 0
M  V30 1893 C 174.659 2.55403 -2.35934 0
M  V30 1894 H 173.982 2.38438 -3.20916 0
M  V30 1895 H 175.422 3.2814 -2.68514 0
M  V30 1896 C 173.881 3.14611 -1.20506 0
M  V30 1897 O 174.411 3.98626 -0.496016 0
M  V30 1898 N 172.617 2.7379 -0.97403 0
M  V30 1899 H 172.164 2.0557 -1.55238 0
M  V30 1900 H 172.122 3.1374 -0.203573 0
M  V30 1901 N 175.894 1.51508 0.433938 0
M  V30 1902 C 176.857 1.72473 1.50949 0
M  V30 1903 C 177.857 0.594725 1.49398 0
M  V30 1904 O 179.047 0.862315 1.5136 0
M  V30 1905 C 176.179 1.78431 2.90474 0
M  V30 1906 H 177.372 2.68467 1.33662 0
M  V30 1907 H 174.925 1.41549 0.662836 0
M  V30 1908 H 175.66 0.842645 3.13161 0
M  V30 1909 H 175.445 2.60558 2.93005 0
M  V30 1910 H 176.935 1.96479 3.68491 0
M  V30 1911 N 177.372 -0.689602 1.41712 0
M  V30 1912 C 178.305 -1.81403 1.3845 0
M  V30 1913 C 179.283 -1.60653 0.250874 0
M  V30 1914 O 180.467 -1.83323 0.43874 0
M  V30 1915 C 177.594 -3.18176 1.1611 0
M  V30 1916 C 176.64 -3.57705 2.3227 0
M  V30 1917 S 177.473 -3.61827 3.94767 0
M  V30 1918 C 178.629 -5.01318 3.74742 0
M  V30 1919 H 178.862 -1.83893 2.33603 0
M  V30 1920 H 176.395 -0.858878 1.28307 0
M  V30 1921 H 178.353 -3.97132 1.03907 0
M  V30 1922 H 177.014 -3.13288 0.225668 0
M  V30 1923 H 176.207 -4.57082 2.12349 0
M  V30 1924 H 175.809 -2.86073 2.40911 0
M  V30 1925 H 178.101 -5.88986 3.34817 0
M  V30 1926 H 179.044 -5.26283 4.73743 0
M  V30 1927 H 179.452 -4.73138 3.07898 0
M  V30 1928 N 178.85 -1.27639 -0.924453 0
M  V30 1929 C 180.096 -1.15345 -1.67532 0
M  V30 1930 C 180.451 0.297096 -1.90092 0
M  V30 1931 O 179.744 1.21374 -1.48253 0
M  V30 1932 C 179.938 -1.87407 -3.04325 0
M  V30 1933 C 179.767 -3.3932 -2.95114 0
M  V30 1934 C 178.537 -4.08644 -2.97218 0
M  V30 1935 C 180.735 -4.35242 -2.73987 0
M  V30 1936 N 178.717 -5.47102 -2.78482 0
M  V30 1937 C 180.088 -5.6099 -2.63988 0
M  V30 1938 C 182.143 -4.25294 -2.589 0
M  V30 1939 C 180.846 -6.77924 -2.40442 0
M  V30 1940 C 182.872 -5.41952 -2.36731 0
M  V30 1941 C 182.234 -6.66658 -2.27478 0
M  V30 1942 H 178.333 -0.47696 -0.619704 0
M  V30 1943 H 180.917 -1.6115 -1.09265 0
M  V30 1944 H 179.088 -1.44053 -3.60699 0
M  V30 1945 H 180.82 -1.6759 -3.68369 0
M  V30 1946 H 177.575 -3.60136 -3.07569 0
M  V30 1947 H 177.999 -6.19852 -2.72236 0
M  V30 1948 H 182.641 -3.29598 -2.64811 0
M  V30 1949 H 180.359 -7.73699 -2.3327 0
M  V30 1950 H 183.945 -5.36137 -2.25938 0
M  V30 1951 H 182.825 -7.55405 -2.10555 0
M  V30 1952 N 180.328 1.1314 -1.09713 0
M  V30 1953 C 181.577 1.83838 -0.829851 0
M  V30 1954 C 181.89 1.84599 0.646728 0
M  V30 1955 O 183.096 2.51218 1.02965 0
M  V30 1956 C 181.552 3.30069 -1.43466 0
M  V30 1957 C 181.16 3.37688 -2.94399 0
M  V30 1958 C 182.904 4.05788 -1.24645 0
M  V30 1959 C 180.811 4.78209 -3.47952 0
M  V30 1960 H 179.741 0.68877 -0.306777 0
M  V30 1961 H 182.392 1.27448 -1.3202 0
M  V30 1962 H 180.774 3.8628 -0.871996 0
M  V30 1963 H 181.948 2.91456 -3.56918 0
M  V30 1964 H 180.263 2.75436 -3.12289 0
M  V30 1965 H 182.86 5.09535 -1.62107 0
M  V30 1966 H 183.203 4.15878 -0.187357 0
M  V30 1967 H 183.736 3.55915 -1.77678 0
M  V30 1968 H 180.475 4.73311 -4.53495 0
M  V30 1969 H 179.995 5.24924 -2.90198 0
M  V30 1970 H 181.674 5.47133 -3.45332 0
M  V30 1971 N 181.806 0.884767 1.30421 0
M  V30 1972 C 182.736 0.367574 2.30589 0
M  V30 1973 C 183.717 -0.549464 1.60981 0
M  V30 1974 O 184.902 -0.46336 1.88591 0
M  V30 1975 C 182.032 -0.418944 3.44764 0
M  V30 1976 C 180.986 0.406316 4.26067 0
M  V30 1977 C 180.312 -0.506793 5.32293 0
M  V30 1978 C 181.612 1.64832 4.95608 0
M  V30 1979 H 183.306 1.20462 2.74097 0
M  V30 1980 H 180.852 0.580695 1.31772 0
M  V30 1981 H 182.805 -0.791395 4.13902 0
M  V30 1982 H 181.529 -1.28964 3.0006 0
M  V30 1983 H 180.188 0.760903 3.58617 0
M  V30 1984 H 179.836 -1.37519 4.83836 0
M  V30 1985 H 179.536 0.0415828 5.87585 0
M  V30 1986 H 181.06 -0.875764 6.04287 0
M  V30 1987 H 182.474 1.34646 5.57264 0
M  V30 1988 H 180.871 2.13688 5.60765 0
M  V30 1989 H 181.941 2.39284 4.21748 0
M  V30 1990 N 183.284 -1.43765 0.645699 0
M  V30 1991 C 184.561 -1.9541 0.0862963 0
M  V30 1992 C 184.941 -1.58725 -1.39175 0
M  V30 1993 O 184.289 -0.868581 -2.11348 0
M  V30 1994 C 184.499 -3.47488 0.324565 0
M  V30 1995 C 185.847 -4.24001 0.225497 0
M  V30 1996 O 186.871 -3.55274 0.256715 0
M  V30 1997 O 185.73 -5.46313 0.142801 0
M  V30 1998 H 182.824 -0.826882 -0.0139483 0
M  V30 1999 H 185.37 -1.53743 0.718415 0
M  V30 2000 H 184.142 -3.67289 1.3496 0
M  V30 2001 H 183.765 -3.96135 -0.340987 0
M  V30 2002 N 184.763 -0.387143 -1.52771 0
M  V30 2003 C 186.174 0.0873634 -1.86495 0
M  V30 2004 C 186.525 1.46336 -1.30691 0
M  V30 2005 O 185.65 2.068 -0.637409 0
M  V30 2006 C 186.245 0.165305 -3.38396 0
M  V30 2007 C 184.804 0.584101 -3.7184 0
M  V30 2008 C 183.951 -0.255279 -2.76122 0
M  V30 2009 H 186.902 -0.605104 -1.46711 0
M  V30 2010 H 186.923 0.984848 -3.67534 0
M  V30 2011 H 186.435 -0.836301 -3.78982 0
M  V30 2012 H 184.536 1.59315 -3.36823 0
M  V30 2013 H 184.649 0.343749 -4.77865 0
M  V30 2014 H 183.013 0.279126 -2.53166 0
M  V30 2015 H 183.796 -1.25482 -3.19545 0
M  V30 2016 N 186.241 1.57166 -0.116904 0
M  V30 2017 C 187.488 1.95123 0.541603 0
M  V30 2018 C 187.816 1.00006 1.6682 0
M  V30 2019 O 187.071 0.0235658 1.95686 0
M  V30 2020 C 187.37 3.39508 1.11664 0
M  V30 2021 C 187.036 4.50762 0.111606 0
M  V30 2022 C 185.698 4.80918 -0.164758 0
M  V30 2023 C 188.05 5.18036 -0.573438 0
M  V30 2024 C 185.378 5.75666 -1.13249 0
M  V30 2025 C 187.73 6.13824 -1.52978 0
M  V30 2026 C 186.394 6.42374 -1.81415 0
M  V30 2027 H 185.664 0.714005 0.198187 0
M  V30 2028 H 188.311 1.9048 -0.197365 0
M  V30 2029 H 186.616 3.40835 1.93232 0
M  V30 2030 H 188.313 3.66189 1.63422 0
M  V30 2031 H 184.903 4.27272 0.337192 0
M  V30 2032 H 189.087 4.94896 -0.373092 0
M  V30 2033 H 184.343 5.96092 -1.35958 0
M  V30 2034 H 188.517 6.65039 -2.06629 0
M  V30 2035 H 186.144 7.15599 -2.56557 0
M  V30 2036 N 187.719 -0.156864 1.56817 0
M  V30 2037 C 188.667 -1.21319 1.98455 0
M  V30 2038 C 189.661 -1.45025 0.875444 0
M  V30 2039 O 190.867 -1.45435 1.0606 0
M  V30 2040 H 187.242 -0.408142 0.631605 0
M  V30 2041 H 189.213 -0.835244 2.86472 0
M  V30 2042 C 187.962 -2.54148 2.37285 0
M  V30 2043 H 187.285 -2.36733 3.22176 0
M  V30 2044 H 188.725 -3.26712 2.70251 0
M  V30 2045 C 187.184 -3.13967 1.22173 0
M  V30 2046 O 187.714 -3.98357 0.517149 0
M  V30 2047 N 185.92 -2.7327 0.988536 0
M  V30 2048 H 185.467 -2.04744 1.56326 0
M  V30 2049 H 185.425 -3.13628 0.220209 0
M  V30 2050 N 189.197 -1.51736 -0.425897 0
M  V30 2051 C 190.608 -1.5732 -1.00536 0
M  V30 2052 C 190.959 -0.403537 -1.92005 0
M  V30 2053 O 190.084 0.478256 -2.11049 0
M  V30 2054 C 190.679 -2.85119 -1.8301 0
M  V30 2055 C 189.238 -2.93236 -2.35987 0
M  V30 2056 C 188.385 -2.52098 -1.15508 0
M  V30 2057 H 191.336 -1.57348 -0.206739 0
M  V30 2058 H 191.357 -2.69526 -2.68581 0
M  V30 2059 H 190.869 -3.7023 -1.16411 0
M  V30 2060 H 188.97 -2.12581 -3.06007 0
M  V30 2061 H 189.083 -3.9713 -2.68001 0
M  V30 2062 H 187.447 -2.05558 -1.50393 0
M  V30 2063 H 188.23 -3.39565 -0.505014 0
M  V30 2064 N 190.675 0.682077 -1.42076 0
M  V30 2065 C 191.924 1.43786 -1.41451 0
M  V30 2066 C 192.237 1.95574 -0.0317074 0
M  V30 2067 O 193.443 2.71326 0.0971462 0
M  V30 2068 C 191.899 2.60071 -2.48779 0
M  V30 2069 C 191.507 2.15013 -3.93031 0
M  V30 2070 C 193.251 3.37626 -2.57311 0
M  V30 2071 C 191.158 3.28336 -4.91883 0
M  V30 2072 H 190.088 0.540143 -0.526082 0
M  V30 2073 H 192.739 0.739157 -1.67955 0
M  V30 2074 H 191.121 3.32275 -2.15429 0
M  V30 2075 H 192.295 1.5001 -4.35699 0
M  V30 2076 H 190.61 1.50416 -3.88284 0
M  V30 2077 H 193.207 4.22012 -3.28345 0
M  V30 2078 H 193.55 3.83727 -1.61429 0
M  V30 2079 H 194.083 2.72488 -2.89819 0
M  V30 2080 H 190.822 2.87234 -5.89217 0
M  V30 2081 H 190.342 3.92145 -4.53853 0
M  V30 2082 H 192.021 3.93913 -5.13265 0
M  V30 2083 N 192.153 1.28127 0.917671 0
M  V30 2084 C 193.569 1.05749 1.19538 0
M  V30 2085 C 193.769 -0.202633 2.00479 0
M  V30 2086 O 192.825 -0.905382 2.3571 0
M  V30 2087 C 194.138 2.30273 1.93378 0
M  V30 2088 C 195.686 2.35412 2.06277 0
M  V30 2089 C 196.161 3.59692 2.83524 0
M  V30 2090 N 197.652 3.60309 2.91087 0
M  V30 2091 C 198.387 4.53147 3.51348 0
M  V30 2092 N 197.883 5.563 4.12919 0
M  V30 2093 N 199.676 4.40751 3.48849 0
M  V30 2094 H 191.827 2.09024 0.377184 0
M  V30 2095 H 194.09 0.919798 0.22951 0
M  V30 2096 H 193.796 3.22055 1.41328 0
M  V30 2097 H 193.67 2.36378 2.93947 0
M  V30 2098 H 196.057 1.4413 2.57508 0
M  V30 2099 H 196.138 2.33304 1.04895 0
M  V30 2100 H 195.782 4.51316 2.32973 0
M  V30 2101 H 195.712 3.59054 3.85211 0
M  V30 2102 H 198.203 2.85714 2.47338 0
M  V30 2103 H 198.516 6.2329 4.56869 0
M  V30 2104 H 196.861 5.60131 4.11435 0
M  V30 2105 H 200.052 3.59367 2.99955 0
M  V30 2106 H 200.225 5.13291 3.9552 0
M  V30 2107 N 193.631 -1.12557 1.10312 0
M  V30 2108 C 195.047 -1.36036 0.834649 0
M  V30 2109 C 195.247 -1.93946 -0.546539 0
M  V30 2110 O 194.303 -2.16484 -1.29966 0
M  V30 2111 C 195.616 -2.30312 1.9333 0
M  V30 2112 C 197.164 -2.43906 1.9616 0
M  V30 2113 C 197.639 -3.41496 3.05195 0
M  V30 2114 N 199.13 -3.49053 3.04494 0
M  V30 2115 C 199.865 -4.24471 3.85502 0
M  V30 2116 N 199.361 -5.02966 4.76442 0
M  V30 2117 N 201.154 -4.19864 3.73725 0
M  V30 2118 H 193.305 -0.733246 1.99342 0
M  V30 2119 H 195.568 -0.385234 0.866198 0
M  V30 2120 H 195.274 -1.94933 2.92735 0
M  V30 2121 H 195.148 -3.30421 1.81939 0
M  V30 2122 H 197.535 -2.78567 0.973886 0
M  V30 2123 H 197.616 -1.4369 2.11629 0
M  V30 2124 H 197.26 -3.07565 4.04186 0
M  V30 2125 H 197.19 -4.41539 2.86968 0
M  V30 2126 H 199.681 -2.93053 2.38596 0
M  V30 2127 H 199.994 -5.57846 5.34815 0
M  V30 2128 H 198.339 -5.02167 4.80472 0
M  V30 2129 H 201.53 -3.57623 3.02032 0
M  V30 2130 H 201.703 -4.78386 4.37093 0
M  V30 2131 N 195.109 -0.891671 -1.2995 0
M  V30 2132 C 196.355 -0.514261 -1.96171 0
M  V30 2133 C 196.688 0.935506 -1.70182 0
M  V30 2134 O 195.963 1.66204 -1.01028 0
M  V30 2135 C 196.246 -0.797719 -3.51153 0
M  V30 2136 C 196.099 -2.2986 -3.86632 0
M  V30 2137 C 197.418 -0.278749 -4.39216 0
M  V30 2138 H 194.537 -0.188314 -0.712535 0
M  V30 2139 H 197.179 -1.11689 -1.53706 0
M  V30 2140 H 195.329 -0.284826 -3.87455 0
M  V30 2141 H 197.001 -2.88042 -3.60319 0
M  V30 2142 H 195.244 -2.76257 -3.34462 0
M  V30 2143 H 195.915 -2.44753 -4.94773 0
M  V30 2144 H 198.391 -0.717825 -4.09862 0
M  V30 2145 H 197.267 -0.506353 -5.46559 0
M  V30 2146 H 197.528 0.820266 -4.34424 0
M  V30 2147 N 196.587 1.43421 -0.653314 0
M  V30 2148 C 197.55 2.29182 0.0287951 0
M  V30 2149 C 198.55 1.42213 0.750465 0
M  V30 2150 O 199.74 1.63843 0.591701 0
M  V30 2151 C 196.872 3.24278 1.05151 0
M  V30 2152 H 198.065 2.90985 -0.725786 0
M  V30 2153 H 195.618 1.50702 -0.414545 0
M  V30 2154 H 196.353 2.6737 1.83532 0
M  V30 2155 H 196.138 3.88396 0.537687 0
M  V30 2156 H 197.628 3.88647 1.52786 0
M  V30 2157 N 198.065 0.39524 1.52563 0
M  V30 2158 C 199.314 -0.186321 2.00838 0
M  V30 2159 C 199.627 -1.47402 1.28577 0
M  V30 2160 O 200.833 -2.13599 1.67593 0
M  V30 2161 C 199.289 -0.382595 3.57861 0
M  V30 2162 C 198.897 0.892202 4.39026 0
M  V30 2163 C 200.641 -0.9202 4.14406 0
M  V30 2164 C 198.548 0.66388 5.87662 0
M  V30 2165 H 197.478 -0.0734041 0.750418 0
M  V30 2166 H 200.129 0.518552 1.76021 0
M  V30 2167 H 198.511 -1.14946 3.7895 0
M  V30 2168 H 199.685 1.66414 4.29701 0
M  V30 2169 H 198 1.35519 3.9373 0
M  V30 2170 H 200.597 -1.10683 5.23119 0
M  V30 2171 H 200.94 -1.89096 3.70875 0
M  V30 2172 H 201.473 -0.212751 3.97231 0
M  V30 2173 H 198.212 1.6058 6.35527 0
M  V30 2174 H 197.732 -0.0690193 5.9976 0
M  V30 2175 H 199.411 0.300699 6.46301 0
M  V30 2176 N 199.544 -1.57102 0.125237 0
M  V30 2177 C 200.774 -1.99472 -0.538015 0
M  V30 2178 C 201.182 -1.00395 -1.60366 0
M  V30 2179 O 200.525 0.0103875 -1.83697 0
M  V30 2180 C 200.587 -3.38262 -1.21734 0
M  V30 2181 C 200.251 -4.56021 -0.298897 0
M  V30 2182 C 201.248 -5.17817 0.464943 0
M  V30 2183 C 198.933 -5.01869 -0.208149 0
M  V30 2184 C 200.927 -6.23852 1.3072 0
M  V30 2185 C 198.614 -6.07763 0.637736 0
M  V30 2186 C 199.612 -6.68622 1.39403 0
M  V30 2187 O 199.3 -7.7247 2.22586 0
M  V30 2188 H 199.032 -0.659934 -0.146501 0
M  V30 2189 H 201.586 -2.04321 0.210267 0
M  V30 2190 H 199.816 -3.30185 -2.01282 0
M  V30 2191 H 201.505 -3.6488 -1.77813 0
M  V30 2192 H 202.271 -4.83308 0.404741 0
M  V30 2193 H 198.15 -4.54241 -0.786522 0
M  V30 2194 H 201.694 -6.71284 1.898 0
M  V30 2195 H 197.591 -6.41701 0.699309 0
M  V30 2196 H 198.359 -7.89595 2.15596 0
M  V30 2197 N 201.022 0.148545 -1.56898 0
M  V30 2198 C 202.271 0.85984 -1.82454 0
M  V30 2199 C 202.584 1.82406 -0.706229 0
M  V30 2200 O 203.79 2.57938 -0.847349 0
M  V30 2201 C 202.246 1.57967 -3.2338 0
M  V30 2202 C 201.854 0.65794 -4.43142 0
M  V30 2203 C 203.598 2.27784 -3.58211 0
M  V30 2204 C 201.505 1.3793 -5.75091 0
M  V30 2205 H 200.435 0.324834 -0.68044 0
M  V30 2206 H 203.086 0.112588 -1.83154 0
M  V30 2207 H 201.468 2.37249 -3.17063 0
M  V30 2208 H 202.642 -0.0995497 -4.60692 0
M  V30 2209 H 200.957 0.0682643 -4.16344 0
M  V30 2210 H 203.554 2.8239 -4.54048 0
M  V30 2211 H 203.897 3.04204 -2.84193 0
M  V30 2212 H 204.43 1.55421 -3.66182 0
M  V30 2213 H 201.169 0.656982 -6.52199 0
M  V30 2214 H 200.689 2.10954 -5.61479 0
M  V30 2215 H 202.368 1.92063 -6.17835 0
M  V30 2216 N 202.5 1.5196 0.417844 0
M  V30 2217 C 203.43 1.77634 1.51554 0
M  V30 2218 C 204.411 0.626918 1.58126 0
M  V30 2219 O 205.596 0.871632 1.7354 0
M  V30 2220 C 202.726 1.91911 2.8946 0
M  V30 2221 C 201.68 3.07463 2.97743 0
M  V30 2222 C 201.006 3.06951 4.37819 0
M  V30 2223 C 202.306 4.47082 2.70027 0
M  V30 2224 H 204 2.6955 1.3032 0
M  V30 2225 H 201.546 1.29706 0.625492 0
M  V30 2226 H 203.499 2.08455 3.6623 0
M  V30 2227 H 202.223 0.966598 3.11969 0
M  V30 2228 H 200.882 2.90656 2.23416 0
M  V30 2229 H 200.53 2.09438 4.57323 0
M  V30 2230 H 200.23 3.84556 4.44286 0
M  V30 2231 H 201.754 3.25613 5.16535 0
M  V30 2232 H 203.168 4.6414 3.36522 0
M  V30 2233 H 201.565 5.2654 2.87881 0
M  V30 2234 H 202.635 4.55777 1.65514 0
M  V30 2235 N 203.978 -0.674533 1.42435 0
M  V30 2236 C 205.224 -1.43671 1.43131 0
M  V30 2237 C 205.557 -1.94142 0.0476021 0
M  V30 2238 O 204.832 -1.70924 -0.928188 0
M  V30 2239 C 205.115 -2.63355 2.45594 0
M  V30 2240 C 204.968 -2.18514 3.93156 0
M  V30 2241 C 206.287 -3.65571 2.45043 0
M  V30 2242 H 203.406 -0.521077 0.521198 0
M  V30 2243 H 206.048 -0.766551 1.7385 0
M  V30 2244 H 204.198 -3.2053 2.19528 0
M  V30 2245 H 205.87 -1.66504 4.30202 0
M  V30 2246 H 204.113 -1.50086 4.07009 0
M  V30 2247 H 204.784 -3.04484 4.60428 0
M  V30 2248 H 207.26 -3.18113 2.68223 0
M  V30 2249 H 206.136 -4.46893 3.18713 0
M  V30 2250 H 206.397 -4.16716 1.47649 0
M  V30 2251 N 205.456 -1.28612 -0.910864 0
M  V30 2252 C 206.406 -1.09423 -2.00026 0
M  V30 2253 C 207.39 -0.0170079 -1.60891 0
M  V30 2254 O 208.582 -0.237472 -1.754 0
M  V30 2255 C 205.711 -0.76114 -3.34756 0
M  V30 2256 C 204.797 -1.87735 -3.80285 0
M  V30 2257 N 205.188 -3.11938 -3.98156 0
M  V30 2258 C 203.486 -1.76786 -4.09467 0
M  V30 2259 C 204.187 -3.84687 -4.36338 0
M  V30 2260 N 203.163 -3.12555 -4.44759 0
M  V30 2261 H 206.965 -2.03658 -2.11898 0
M  V30 2262 H 204.479 -1.19573 -1.09891 0
M  V30 2263 H 206.476 -0.604743 -4.12491 0
M  V30 2264 H 205.136 0.173403 -3.24237 0
M  V30 2265 H 206.147 -3.47516 -3.83996 0
M  V30 2266 H 202.824 -0.905284 -4.07567 0
M  V30 2267 H 204.214 -4.91518 -4.58104 0
M  V30 2268 N 206.934 1.1197 -1.10907 0
M  V30 2269 C 208.345 1.65114 -0.871446 0
M  V30 2270 C 208.696 1.86885 0.597353 0
M  V30 2271 O 207.821 1.59896 1.45816 0
M  V30 2272 C 208.416 2.99944 -1.5754 0
M  V30 2273 C 206.975 3.50018 -1.38435 0
M  V30 2274 C 206.122 2.24941 -1.62164 0
M  V30 2275 H 209.073 0.956851 -1.2661 0
M  V30 2276 H 209.094 3.66651 -1.01721 0
M  V30 2277 H 208.606 2.84067 -2.64438 0
M  V30 2278 H 206.707 3.71071 -0.337214 0
M  V30 2279 H 206.82 4.29165 -2.12965 0
M  V30 2280 H 205.184 2.3229 -1.04467 0
M  V30 2281 H 205.967 2.11612 -2.70324 0
M  V30 2282 N 208.412 0.89855 1.29475 0
M  V30 2283 C 209.342 0.39201 2.30186 0
M  V30 2284 C 210.323 -0.532359 1.61555 0
M  V30 2285 O 211.508 -0.443331 1.89072 0
M  V30 2286 C 208.638 -0.382353 3.45189 0
M  V30 2287 C 207.592 0.451483 4.25612 0
M  V30 2288 C 206.918 -0.450307 5.328 0
M  V30 2289 C 208.218 1.70079 4.93832 0
M  V30 2290 H 209.912 1.23362 2.72804 0
M  V30 2291 H 207.458 0.594638 1.31149 0
M  V30 2292 H 209.411 -0.747451 4.14718 0
M  V30 2293 H 208.135 -1.25774 3.01411 0
M  V30 2294 H 206.794 0.798897 3.57789 0
M  V30 2295 H 206.442 -1.32379 4.85268 0
M  V30 2296 H 206.142 0.103902 5.87508 0
M  V30 2297 H 207.666 -0.811623 6.05182 0
M  V30 2298 H 209.08 1.40549 5.55805 0
M  V30 2299 H 207.477 2.19623 5.58467 0
M  V30 2300 H 208.547 2.43744 4.19186 0
M  V30 2301 N 209.89 -1.43072 0.660911 0
M  V30 2302 C 211.137 -2.01721 0.177445 0
M  V30 2303 C 211.465 -1.5218 -1.21126 0
M  V30 2304 O 210.72 -0.708659 -1.82419 0
M  V30 2305 C 211.019 -3.57103 0.145563 0
M  V30 2306 C 210.685 -4.26021 1.47705 0
M  V30 2307 C 209.347 -4.44563 1.84165 0
M  V30 2308 C 211.699 -4.64983 2.35458 0
M  V30 2309 C 209.027 -4.99334 3.0803 0
M  V30 2310 C 211.379 -5.21127 3.58622 0
M  V30 2311 C 210.043 -5.37884 3.95268 0
M  V30 2312 H 209.313 -0.73815 0.0649317 0
M  V30 2313 H 211.96 -1.71446 0.853144 0
M  V30 2314 H 210.265 -3.86965 -0.61361 0
M  V30 2315 H 211.962 -4.00248 -0.2455 0
M  V30 2316 H 208.552 -4.11939 1.18339 0
M  V30 2317 H 212.736 -4.50343 2.08579 0
M  V30 2318 H 207.992 -5.10493 3.36462 0
M  V30 2319 H 212.166 -5.50262 4.26831 0
M  V30 2320 H 209.793 -5.80089 4.91325 0
M  V30 2321 N 211.368 -0.403325 -1.52352 0
M  V30 2322 C 212.593 0.176499 -2.06648 0
M  V30 2323 C 213.018 1.38577 -1.27193 0
M  V30 2324 O 212.376 1.7879 -0.300637 0
M  V30 2325 C 212.424 0.511061 -3.5696 0
M  V30 2326 O 211.528 1.60294 -3.79973 0
M  V30 2327 H 210.869 0.0167337 -0.663789 0
M  V30 2328 H 213.399 -0.574848 -1.96359 0
M  V30 2329 H 213.409 0.771362 -4.00642 0
M  V30 2330 H 212.084 -0.37296 -4.14224 0
M  V30 2331 H 210.661 1.33526 -3.48174 0
M  V30 2332 N 212.846 1.57033 -0.133567 0
M  V30 2333 C 213.776 2.1909 0.807567 0
M  V30 2334 C 214.757 1.13517 1.26681 0
M  V30 2335 O 215.942 1.41809 1.32679 0
M  V30 2336 C 213.072 2.80188 2.05212 0
M  V30 2337 C 212.026 3.91471 1.73015 0
M  V30 2338 C 211.352 4.39443 3.04622 0
M  V30 2339 C 212.652 5.12886 0.987168 0
M  V30 2340 H 214.346 2.97988 0.290403 0
M  V30 2341 H 211.892 1.43335 0.138239 0
M  V30 2342 H 213.845 3.22264 2.71521 0
M  V30 2343 H 212.569 1.98601 2.59278 0
M  V30 2344 H 211.228 3.49993 1.0909 0
M  V30 2345 H 210.876 3.54695 3.56651 0
M  V30 2346 H 210.576 5.14495 2.83847 0
M  V30 2347 H 212.1 4.8418 3.72024 0
M  V30 2348 H 213.514 5.51891 1.55208 0
M  V30 2349 H 211.911 5.93615 0.87985 0
M  V30 2350 H 212.981 4.84894 -0.0235286 0
M  V30 2351 N 214.325 -0.140222 1.56975 0
M  V30 2352 C 215.572 -0.851687 1.83719 0
M  V30 2353 C 215.9 -1.80862 0.715485 0
M  V30 2354 O 215.155 -1.93464 -0.294956 0
M  V30 2355 C 215.454 -1.65386 3.16832 0
M  V30 2356 C 215.12 -0.843112 4.42947 0
M  V30 2357 C 213.782 -0.619464 4.77196 0
M  V30 2358 C 216.134 -0.276582 5.20466 0
M  V30 2359 C 213.462 0.181312 5.8642 0
M  V30 2360 C 215.814 0.51127 6.30531 0
M  V30 2361 C 214.478 0.745432 6.63325 0
M  V30 2362 H 213.748 -0.311654 0.672274 0
M  V30 2363 H 216.395 -0.115006 1.91154 0
M  V30 2364 H 214.7 -2.46084 3.04877 0
M  V30 2365 H 216.397 -2.20793 3.34741 0
M  V30 2366 H 212.987 -1.0275 4.16101 0
M  V30 2367 H 217.171 -0.436632 4.94376 0
M  V30 2368 H 212.427 0.372165 6.10266 0
M  V30 2369 H 216.601 0.957354 6.89788 0
M  V30 2370 H 214.228 1.36778 7.47794 0
M  V30 2371 N 215.803 -1.52179 -0.40978 0
M  V30 2372 C 217.052 -1.65434 -1.15388 0
M  V30 2373 C 217.365 -0.390056 -1.91671 0
M  V30 2374 O 218.571 -0.402399 -2.68501 0
M  V30 2375 C 217.027 -2.92279 -2.10003 0
M  V30 2376 C 216.635 -4.25813 -1.39239 0
M  V30 2377 C 218.379 -3.14897 -2.84675 0
M  V30 2378 C 216.286 -5.43782 -2.32498 0
M  V30 2379 H 215.216 -0.616267 -0.434432 0
M  V30 2380 H 217.867 -1.78666 -0.418401 0
M  V30 2381 H 216.249 -2.72744 -2.871 0
M  V30 2382 H 217.423 -4.55828 -0.675099 0
M  V30 2383 H 215.738 -4.09292 -0.766097 0
M  V30 2384 H 218.335 -4.0021 -3.54593 0
M  V30 2385 H 218.678 -2.29103 -3.47588 0
M  V30 2386 H 219.211 -3.34901 -2.14677 0
M  V30 2387 H 215.95 -6.3192 -1.74233 0
M  V30 2388 H 215.47 -5.18106 -3.02201 0
M  V30 2389 H 217.149 -5.76834 -2.93038 0
M  V30 2390 N 217.281 0.66697 -1.42791 0
M  V30 2391 C 218.53 1.42278 -1.42968 0
M  V30 2392 C 218.843 1.9553 -0.0524489 0
M  V30 2393 O 220.049 2.71414 0.068363 0
M  V30 2394 C 218.505 2.57418 -2.51524 0
M  V30 2395 C 218.113 2.10832 -3.9529 0
M  V30 2396 C 219.857 3.34878 -2.60877 0
M  V30 2397 C 217.764 3.23101 -4.95338 0
M  V30 2398 H 216.694 0.534533 -0.531781 0
M  V30 2399 H 219.345 0.721302 -1.68729 0
M  V30 2400 H 217.727 3.29971 -2.18941 0
M  V30 2401 H 218.901 1.4538 -4.37266 0
M  V30 2402 H 217.216 1.46289 -3.89857 0
M  V30 2403 H 219.813 4.18505 -3.32802 0
M  V30 2404 H 220.156 3.81993 -1.6549 0
M  V30 2405 H 220.689 2.69398 -2.92693 0
M  V30 2406 H 217.428 2.80969 -5.9223 0
M  V30 2407 H 216.948 3.87309 -4.57987 0
M  V30 2408 H 218.627 3.88447 -5.17415 0
M  V30 2409 N 218.759 1.29093 0.90403 0
M  V30 2410 C 219.987 1.19689 1.68766 0
M  V30 2411 C 220.402 -0.243113 1.87228 0
M  V30 2412 O 219.759 -1.16326 1.40621 0
M  V30 2413 C 219.81 1.90144 3.07453 0
M  V30 2414 O 219.531 3.2852 2.89838 0
M  V30 2415 C 221.032 1.87162 4.01852 0
M  V30 2416 H 218.252 0.415035 0.527244 0
M  V30 2417 H 220.796 1.7039 1.13082 0
M  V30 2418 H 218.951 1.43289 3.59926 0
M  V30 2419 H 219.365 3.63944 3.77684 0
M  V30 2420 H 220.839 2.41032 4.96596 0
M  V30 2421 H 221.316 0.84617 4.30972 0
M  V30 2422 H 221.922 2.33741 3.5531 0
M  V30 2423 N 220.237 -1.11381 1.11499 0
M  V30 2424 C 221.465 -1.86934 0.88675 0
M  V30 2425 C 221.88 -1.80195 -0.563476 0
M  V30 2426 O 221.237 -1.18367 -1.38908 0
M  V30 2427 C 221.288 -3.35722 1.34064 0
M  V30 2428 O 221.009 -3.4232 2.73401 0
M  V30 2429 C 222.51 -4.2818 1.14791 0
M  V30 2430 H 219.73 -0.591117 0.317523 0
M  V30 2431 H 222.274 -1.40865 1.48248 0
M  V30 2432 H 220.429 -3.79294 0.788355 0
M  V30 2433 H 220.843 -4.34971 2.93087 0
M  V30 2434 H 222.317 -5.30817 1.5145 0
M  V30 2435 H 222.794 -4.39113 0.0875279 0
M  V30 2436 H 223.4 -3.90402 1.68721 0
M  V30 2437 N 221.715 -0.905404 -1.28997 0
M  V30 2438 C 222.964 -0.530191 -1.94607 0
M  V30 2439 C 223.277 0.929185 -1.72121 0
M  V30 2440 O 224.483 1.41218 -2.31883 0
M  V30 2441 C 222.939 -0.897333 -3.48534 0
M  V30 2442 C 222.547 -2.37587 -3.79811 0
M  V30 2443 C 224.291 -0.592304 -4.20347 0
M  V30 2444 C 222.198 -2.68357 -5.27009 0
M  V30 2445 H 221.128 -0.194558 -0.728466 0
M  V30 2446 H 223.779 -1.10318 -1.46636 0
M  V30 2447 H 222.161 -0.253214 -3.9519 0
M  V30 2448 H 223.335 -3.06602 -3.43994 0
M  V30 2449 H 221.65 -2.6505 -3.2115 0
M  V30 2450 H 224.247 -0.798975 -5.28697 0
M  V30 2451 H 224.59 0.469474 -4.13644 0
M  V30 2452 H 225.123 -1.19452 -3.79442 0
M  V30 2453 H 221.862 -3.73355 -5.38782 0
M  V30 2454 H 221.382 -2.03971 -5.64053 0
M  V30 2455 H 223.061 -2.54922 -5.94663 0
M  V30 2456 N 223.193 1.4272 -0.668489 0
M  V30 2457 C 224.123 2.335 -0.000100175 0
M  V30 2458 C 225.104 1.50328 0.795964 0
M  V30 2459 O 226.289 1.78949 0.754385 0
M  V30 2460 C 223.419 3.33874 0.956302 0
M  V30 2461 C 222.373 4.27152 0.269278 0
M  V30 2462 C 221.699 5.17684 1.33818 0
M  V30 2463 C 222.999 5.15373 -0.847805 0
M  V30 2464 H 224.693 2.89639 -0.758244 0
M  V30 2465 H 222.239 1.39269 -0.366079 0
M  V30 2466 H 224.192 3.9629 1.43292 0
M  V30 2467 H 222.916 2.76025 1.74579 0
M  V30 2468 H 221.575 3.66123 -0.187042 0
M  V30 2469 H 221.223 4.56165 2.1195 0
M  V30 2470 H 220.923 5.80918 0.883659 0
M  V30 2471 H 222.447 5.82974 1.81586 0
M  V30 2472 H 223.861 5.7151 -0.452681 0
M  V30 2473 H 222.258 5.87407 -1.22773 0
M  V30 2474 H 223.328 4.5415 -1.69929 0
M  V30 2475 N 224.671 0.411399 1.52136 0
M  V30 2476 C 225.899 -0.163076 2.06256 0
M  V30 2477 C 226.314 -1.3867 1.28125 0
M  V30 2478 O 225.671 -1.79423 0.333721 0
M  V30 2479 C 225.722 -0.511252 3.57867 0
M  V30 2480 O 225.443 0.66378 4.33042 0
M  V30 2481 C 226.944 -1.13921 4.28412 0
M  V30 2482 H 224.164 -0.0193897 0.67072 0
M  V30 2483 H 226.708 0.583007 1.96013 0
M  V30 2484 H 224.863 -1.20723 3.6811 0
M  V30 2485 H 225.277 0.372601 5.23175 0
M  V30 2486 H 226.751 -1.33302 5.35663 0
M  V30 2487 H 227.228 -2.11296 3.85033 0
M  V30 2488 H 227.834 -0.483373 4.22544 0
M  V30 2489 N 226.149 -1.5696 0.141893 0
M  V30 2490 C 227.097 -2.17784 -0.816874 0
M  V30 2491 C 228.091 -1.1334 -1.25899 0
M  V30 2492 O 229.297 -1.316 -1.22806 0
M  V30 2493 H 225.672 -0.697278 -0.281615 0
M  V30 2494 H 227.643 -2.97087 -0.279621 0
M  V30 2495 C 226.392 -2.80983 -2.04802 0
M  V30 2496 H 225.715 -3.61062 -1.7168 0
M  V30 2497 H 227.155 -3.2705 -2.69841 0
M  V30 2498 C 225.614 -1.79228 -2.8527 0
M  V30 2499 O 226.144 -1.25962 -3.8144 0
M  V30 2500 N 224.35 -1.48647 -2.49704 0
M  V30 2501 H 223.897 -1.92155 -1.71564 0
M  V30 2502 H 223.855 -0.808115 -3.03837 0
M  V30 2503 N 227.627 0.131896 -1.57047 0
M  V30 2504 C 228.867 0.847972 -1.85981 0
M  V30 2505 C 229.231 1.77655 -0.7282 0
M  V30 2506 O 230.432 2.53322 -0.898968 0
M  V30 2507 C 228.703 1.58919 -3.20124 0
M  V30 2508 S 230.262 2.34862 -3.70655 0
M  V30 2509 H 227.08 0.283273 -0.652133 0
M  V30 2510 H 229.682 0.107057 -1.95207 0
M  V30 2511 H 228.386 0.898771 -4.00438 0
M  V30 2512 H 227.917 2.37073 -3.13942 0
M  V30 2513 H 229.932 3.60344 -3.41126 0
M  V30 2514 N 229.106 1.52395 0.401703 0
M  V30 2515 C 230.355 1.66044 1.14509 0
M  V30 2516 C 230.668 0.400216 1.91462 0
M  V30 2517 O 231.874 0.416632 2.68284 0
M  V30 2518 C 230.33 2.93388 2.0845 0
M  V30 2519 C 229.938 4.26545 1.36978 0
M  V30 2520 C 231.682 3.16402 2.83001 0
M  V30 2521 C 229.589 5.45007 2.29611 0
M  V30 2522 H 228.519 0.618562 0.431158 0
M  V30 2523 H 231.17 1.78886 0.40892 0
M  V30 2524 H 229.552 2.74263 2.8565 0
M  V30 2525 H 230.726 4.56179 0.650916 0
M  V30 2526 H 229.041 4.09692 0.74438 0
M  V30 2527 H 231.638 4.02085 3.52465 0
M  V30 2528 H 231.981 2.30943 3.46368 0
M  V30 2529 H 232.514 3.36034 2.12898 0
M  V30 2530 H 229.253 6.32835 1.70879 0
M  V30 2531 H 228.773 5.19702 2.9945 0
M  V30 2532 H 230.452 5.7838 2.89974 0
M  V30 2533 N 230.584 -0.659388 1.43143 0
M  V30 2534 C 231.514 -1.78422 1.50625 0
M  V30 2535 C 232.495 -1.66216 0.361443 0
M  V30 2536 O 233.68 -1.85404 0.577834 0
M  V30 2537 C 230.81 -3.16815 1.42287 0
M  V30 2538 C 229.764 -3.43777 2.54954 0
M  V30 2539 C 229.09 -4.81905 2.31671 0
M  V30 2540 C 230.39 -3.39134 3.97222 0
M  V30 2541 H 232.084 -1.72417 2.44771 0
M  V30 2542 H 229.63 -0.828084 1.17808 0
M  V30 2543 H 231.583 -3.95253 1.46127 0
M  V30 2544 H 230.307 -3.23534 0.446435 0
M  V30 2545 H 228.966 -2.67707 2.50457 0
M  V30 2546 H 228.614 -4.85294 1.32284 0
M  V30 2547 H 228.314 -5.00906 3.07192 0
M  V30 2548 H 229.838 -5.62609 2.37284 0
M  V30 2549 H 231.252 -4.07518 4.03239 0
M  V30 2550 H 229.649 -3.69671 4.72719 0
M  V30 2551 H 230.719 -2.37426 4.22797 0
M  V30 2552 N 232.062 -1.29571 -0.897171 0
M  V30 2553 C 232.995 -1.0924 -2.00354 0
M  V30 2554 C 233.973 -0.00354011 -1.626 0
M  V30 2555 O 235.157 -0.15473 -1.87864 0
M  V30 2556 C 232.284 -0.66352 -3.32137 0
M  V30 2557 C 231.33 -1.75146 -3.88878 0
M  V30 2558 S 232.163 -3.35124 -4.17674 0
M  V30 2559 C 233.319 -2.9411 -5.52494 0
M  V30 2560 H 233.552 -2.02907 -2.17292 0
M  V30 2561 H 231.085 -1.13746 -1.04408 0
M  V30 2562 H 233.043 -0.422791 -4.08317 0
M  V30 2563 H 231.704 0.253588 -3.13075 0
M  V30 2564 H 230.897 -1.40337 -4.84068 0
M  V30 2565 H 230.499 -1.94584 -3.19395 0
M  V30 2566 H 232.791 -2.41312 -6.33068 0
M  V30 2567 H 233.734 -3.88161 -5.9223 0
M  V30 2568 H 234.142 -2.32332 -5.14473 0
M  V30 2569 N 233.54 1.10788 -1.12088 0
M  V30 2570 C 234.789 1.82036 -0.868659 0
M  V30 2571 C 235.102 1.85929 0.607426 0
M  V30 2572 O 236.308 2.53346 0.97613 0
M  V30 2573 C 234.764 3.26951 -1.50435 0
M  V30 2574 C 234.372 3.31367 -3.01496 0
M  V30 2575 C 236.116 4.03053 -1.33225 0
M  V30 2576 C 234.023 4.7072 -3.58017 0
M  V30 2577 H 232.953 0.682108 -0.321318 0
M  V30 2578 H 235.604 1.24618 -1.34694 0
M  V30 2579 H 233.986 3.84343 -0.953735 0
M  V30 2580 H 235.16 2.83819 -3.6302 0
M  V30 2581 H 233.475 2.6875 -3.18061 0
M  V30 2582 H 236.072 5.05981 -1.72878 0
M  V30 2583 H 236.415 4.15387 -0.275529 0
M  V30 2584 H 236.948 3.52066 -1.85188 0
M  V30 2585 H 233.687 4.63585 -4.63432 0
M  V30 2586 H 233.207 5.1865 -3.01268 0
M  V30 2587 H 234.886 5.39685 -3.56859 0
M  V30 2588 N 235.018 0.912232 1.28515 0
M  V30 2589 C 235.951 0.343928 2.25593 0
M  V30 2590 C 236.929 -0.550994 1.5298 0
M  V30 2591 O 238.113 -0.494991 1.81885 0
M  V30 2592 C 235.24 -0.508525 3.34861 0
M  V30 2593 C 234.286 0.320808 4.25292 0
M  V30 2594 S 235.119 1.72658 5.06902 0
M  V30 2595 C 236.275 0.881394 6.19663 0
M  V30 2596 H 236.508 1.16674 2.73449 0
M  V30 2597 H 234.041 0.713384 1.36931 0
M  V30 2598 H 235.999 -0.994539 3.9827 0
M  V30 2599 H 234.66 -1.30571 2.85675 0
M  V30 2600 H 233.853 -0.330941 5.02912 0
M  V30 2601 H 233.455 0.74042 3.66598 0
M  V30 2602 H 235.747 0.110359 6.7741 0
M  V30 2603 H 236.69 1.63009 6.89082 0
M  V30 2604 H 237.098 0.430239 5.62858 0
M  V30 2605 N 236.496 -1.42363 0.676048 0
M  V30 2606 C 237.907 -1.84649 0.275948 0
M  V30 2607 C 238.258 -1.56588 -1.18214 0
M  V30 2608 O 237.383 -1.02634 -1.90513 0
M  V30 2609 C 237.978 -3.35178 0.494053 0
M  V30 2610 C 236.537 -3.76109 0.148061 0
M  V30 2611 C 235.684 -2.65931 0.785891 0
M  V30 2612 H 238.635 -1.32192 0.878121 0
M  V30 2613 H 238.656 -3.79655 -0.25343 0
M  V30 2614 H 238.168 -3.55571 1.55535 0
M  V30 2615 H 236.269 -3.61323 -0.909742 0
M  V30 2616 H 236.382 -4.7546 0.589454 0
M  V30 2617 H 234.746 -2.53773 0.217113 0
M  V30 2618 H 235.529 -2.89146 1.85067 0
M  V30 2619 N 237.974 -0.419461 -1.51915 0
M  V30 2620 C 239.202 0.152136 -2.0634 0
M  V30 2621 C 239.617 1.37988 -1.28859 0
M  V30 2622 O 238.974 1.79243 -0.343232 0
M  V30 2623 C 239.025 0.492266 -3.58133 0
M  V30 2624 O 238.746 -0.686736 -4.32684 0
M  V30 2625 C 240.247 1.11648 -4.2901 0
M  V30 2626 H 237.467 0.0158325 -0.670813 0
M  V30 2627 H 240.011 -0.593394 -1.95702 0
M  V30 2628 H 238.166 1.18769 -3.68745 0
M  V30 2629 H 238.58 -0.400341 -5.2297 0
M  V30 2630 H 240.054 1.3046 -5.36362 0
M  V30 2631 H 240.531 2.09251 -3.86148 0
M  V30 2632 H 241.137 0.460958 -4.22795 0
M  V30 2633 N 239.452 1.56882 -0.150215 0
M  V30 2634 C 240.68 2.00593 0.506948 0
M  V30 2635 C 241.095 1.03033 1.58208 0
M  V30 2636 O 240.452 0.0278396 1.82479 0
M  V30 2637 C 240.503 3.44209 1.10465 0
M  V30 2638 O 240.224 4.3804 0.0724636 0
M  V30 2639 C 241.725 4.03214 1.84211 0
M  V30 2640 H 238.945 0.65795 0.13169 0
M  V30 2641 H 241.489 2.03018 -0.245743 0
M  V30 2642 H 239.644 3.42625 1.80795 0
M  V30 2643 H 240.058 5.22007 0.510793 0
M  V30 2644 H 241.532 5.0569 2.21318 0
M  V30 2645 H 242.009 3.44107 2.72923 0
M  V30 2646 H 242.615 4.08437 1.18572 0
M  V30 2647 N 240.93 -0.123565 1.57115 0
M  V30 2648 C 242.341 -0.681198 1.73829 0
M  V30 2649 C 242.692 -1.80535 0.768214 0
M  V30 2650 O 241.817 -2.16317 -0.0599103 0
M  V30 2651 C 242.412 -1.24246 3.15196 0
M  V30 2652 C 240.971 -1.74643 3.33432 0
M  V30 2653 C 240.118 -0.644284 2.69711 0
M  V30 2654 H 243.069 0.102315 1.5837 0
M  V30 2655 H 243.09 -2.11216 3.16493 0
M  V30 2656 H 242.602 -0.424062 3.85776 0
M  V30 2657 H 240.703 -2.58974 2.67886 0
M  V30 2658 H 240.816 -1.85902 4.41562 0
M  V30 2659 H 239.18 -1.07676 2.3082 0
M  V30 2660 H 239.963 0.163058 3.42913 0
M  V30 2661 N 242.408 -1.52605 -0.393616 0
M  V30 2662 C 243.371 -1.76415 -1.46323 0
M  V30 2663 C 244.371 -0.634126 -1.47768 0
M  V30 2664 O 245.561 -0.902142 -1.4902 0
M  V30 2665 C 242.693 -1.8607 -2.85641 0
M  V30 2666 H 243.886 -2.71916 -1.26498 0
M  V30 2667 H 241.439 -1.43257 -0.625073 0
M  V30 2668 H 242.174 -0.925378 -3.10817 0
M  V30 2669 H 241.959 -2.68235 -2.85993 0
M  V30 2670 H 243.449 -2.06179 -3.63153 0
M  V30 2671 N 243.887 0.651787 -1.4349 0
M  V30 2672 C 245.133 1.41376 -1.45398 0
M  V30 2673 C 245.466 1.94041 -0.0784823 0
M  V30 2674 O 244.741 1.72379 0.900878 0
M  V30 2675 C 245.024 2.59414 -2.49752 0
M  V30 2676 C 244.877 2.12232 -3.96582 0
M  V30 2677 C 246.196 3.61626 -2.50827 0
M  V30 2678 H 243.315 0.512719 -0.529422 0
M  V30 2679 H 245.957 0.738796 -1.75048 0
M  V30 2680 H 244.107 3.16997 -2.246 0
M  V30 2681 H 245.779 1.59639 -4.32797 0
M  V30 2682 H 244.022 1.43592 -4.09346 0
M  V30 2683 H 244.693 2.9712 -4.65214 0
M  V30 2684 H 247.169 3.13805 -2.7325 0
M  V30 2685 H 246.045 4.41766 -3.25783 0
M  V30 2686 H 246.306 4.14314 -1.5426 0
M  V30 2687 N 245.365 1.30045 0.890287 0
M  V30 2688 C 246.275 1.17885 2.02831 0
M  V30 2689 C 247.291 0.0999609 1.73713 0
M  V30 2690 O 248.467 0.313867 1.98939 0
M  V30 2691 C 245.532 0.866079 3.35708 0
M  V30 2692 C 244.593 2.02979 3.78283 0
M  V30 2693 C 243.826 1.73184 5.0482 0
M  V30 2694 O 244.049 0.657237 5.66601 0
M  V30 2695 O 242.983 2.58267 5.43674 0
M  V30 2696 H 246.809 2.13474 2.16015 0
M  V30 2697 H 244.394 1.09587 1.01543 0
M  V30 2698 H 246.276 0.706623 4.15433 0
M  V30 2699 H 244.951 -0.0599443 3.23644 0
M  V30 2700 H 243.858 2.24454 2.99285 0
M  V30 2701 H 245.191 2.93734 3.94944 0
M  V30 2702 N 246.843 -1.10192 1.12674 0
M  V30 2703 C 248.068 -1.86523 0.906853 0
M  V30 2704 C 248.493 -1.80221 -0.538711 0
M  V30 2705 O 247.851 -1.17396 -1.38158 0
M  V30 2706 C 247.899 -3.32758 1.3894 0
M  V30 2707 O 247.003 -4.08449 0.5695 0
M  V30 2708 H 246.344 -0.578678 0.325619 0
M  V30 2709 H 248.874 -1.39203 1.49946 0
M  V30 2710 H 248.884 -3.83608 1.38958 0
M  V30 2711 H 247.559 -3.36661 2.44197 0
M  V30 2712 H 246.136 -3.67427 0.636528 0
M  V30 2713 N 248.321 -0.919034 -1.28029 0
M  V30 2714 C 249.549 -0.570971 -1.98866 0
M  V30 2715 C 249.964 0.848996 -1.68634 0
M  V30 2716 O 249.321 1.56307 -0.942036 0
M  V30 2717 C 249.372 -0.776876 -3.53054 0
M  V30 2718 O 249.093 -2.14097 -3.82222 0
M  V30 2719 C 250.594 -0.436356 -4.41147 0
M  V30 2720 H 247.814 -0.217175 -0.634883 0
M  V30 2721 H 250.358 -1.23368 -1.63097 0
M  V30 2722 H 248.513 -0.161085 -3.87065 0
M  V30 2723 H 248.927 -2.18455 -4.76841 0
M  V30 2724 H 250.401 -0.63117 -5.4838 0
M  V30 2725 H 250.878 0.627686 -4.34692 0
M  V30 2726 H 251.484 -1.02991 -4.12641 0
M  V30 2727 N 249.799 1.42003 -0.683588 0
M  V30 2728 C 250.709 2.34597 -0.0109075 0
M  V30 2729 C 251.725 1.55576 0.779245 0
M  V30 2730 O 252.901 1.88107 0.719555 0
M  V30 2731 C 249.966 3.34199 0.922588 0
M  V30 2732 C 249.027 4.29115 0.125984 0
M  V30 2733 C 248.26 5.23959 1.01502 0
M  V30 2734 O 248.483 5.23952 2.25456 0
M  V30 2735 O 247.417 6.00053 0.47111 0
M  V30 2736 H 251.243 2.93675 -0.773853 0
M  V30 2737 H 248.828 1.42654 -0.443861 0
M  V30 2738 H 250.71 3.95365 1.45823 0
M  V30 2739 H 249.385 2.77582 1.66523 0
M  V30 2740 H 248.292 3.71335 -0.453969 0
M  V30 2741 H 249.625 4.88798 -0.577736 0
M  V30 2742 N 251.277 0.427512 1.51691 0
M  V30 2743 C 252.523 -0.142439 2.02299 0
M  V30 2744 C 252.856 -1.43214 1.31162 0
M  V30 2745 O 252.131 -1.89833 0.423511 0
M  V30 2746 C 252.414 -0.371301 3.58181 0
M  V30 2747 C 252.267 0.936358 4.39946 0
M  V30 2748 C 253.586 -1.14542 4.24933 0
M  V30 2749 H 250.705 -0.0502937 0.735282 0
M  V30 2750 H 253.347 0.564584 1.81418 0
M  V30 2751 H 251.497 -0.973559 3.76104 0
M  V30 2752 H 253.169 1.57184 4.33694 0
M  V30 2753 H 251.412 1.5432 4.05423 0
M  V30 2754 H 252.083 0.730388 5.47147 0
M  V30 2755 H 254.559 -0.635362 4.11221 0
M  V30 2756 H 253.435 -1.27431 5.33903 0
M  V30 2757 H 253.696 -2.17093 3.85127 0
M  V30 2758 N 252.755 -1.56801 0.158532 0
M  V30 2759 C 254.004 -1.95665 -0.489702 0
M  V30 2760 C 254.317 -1.04654 -1.65248 0
M  V30 2761 O 255.523 -1.33146 -2.3661 0
M  V30 2762 C 253.979 -3.47874 -0.922582 0
M  V30 2763 C 253.587 -4.47489 0.213893 0
M  V30 2764 C 255.331 -3.95583 -1.53996 0
M  V30 2765 C 253.238 -5.90921 -0.237903 0
M  V30 2766 H 252.168 -0.730516 -0.186716 0
M  V30 2767 H 254.819 -1.81861 0.244722 0
M  V30 2768 H 253.201 -3.57051 -1.71261 0
M  V30 2769 H 254.375 -4.50017 0.991036 0
M  V30 2770 H 252.69 -4.09764 0.740407 0
M  V30 2771 H 255.287 -5.0019 -1.8898 0
M  V30 2772 H 255.63 -3.37789 -2.43319 0
M  V30 2773 H 256.163 -3.8937 -0.814611 0
M  V30 2774 H 252.902 -6.52559 0.620236 0
M  V30 2775 H 252.422 -5.91729 -0.980676 0
M  V30 2776 H 254.101 -6.43352 -0.686067 0
M  V30 2777 N 254.233 0.115231 -1.57178 0
M  V30 2778 C 255.48 0.822351 -1.8505 0
M  V30 2779 C 255.808 1.79701 -0.744168 0
M  V30 2780 O 255.063 1.93909 0.26414 0
M  V30 2781 C 255.362 1.60324 -3.19423 0
M  V30 2782 C 255.028 0.772536 -4.44233 0
M  V30 2783 C 253.69 0.543468 -4.78121 0
M  V30 2784 C 256.042 0.193746 -5.2084 0
M  V30 2785 C 253.37 -0.274583 -5.86057 0
M  V30 2786 C 255.722 -0.611517 -6.29637 0
M  V30 2787 C 254.386 -0.850867 -6.62055 0
M  V30 2788 H 253.656 0.30092 -0.677147 0
M  V30 2789 H 256.303 0.0845802 -1.91313 0
M  V30 2790 H 254.608 2.41203 -3.08753 0
M  V30 2791 H 256.305 2.1544 -3.38211 0
M  V30 2792 H 252.895 0.96117 -4.17683 0
M  V30 2793 H 257.079 0.357926 -4.95008 0
M  V30 2794 H 252.335 -0.469206 -6.09597 0
M  V30 2795 H 256.509 -1.06697 -6.88178 0
M  V30 2796 H 254.136 -1.48657 -7.45523 0
M  V30 2797 N 255.711 1.52812 0.385517 0
M  V30 2798 C 256.939 1.71907 1.15133 0
M  V30 2799 C 257.354 0.439004 1.83625 0
M  V30 2800 O 256.711 -0.586765 1.7281 0
M  V30 2801 C 256.762 2.87099 2.19673 0
M  V30 2802 O 256.483 4.10151 1.53973 0
M  V30 2803 C 257.984 3.17902 3.08955 0
M  V30 2804 H 255.204 0.575479 0.345057 0
M  V30 2805 H 257.748 1.99476 0.45052 0
M  V30 2806 H 255.903 2.61982 2.85384 0
M  V30 2807 H 256.317 4.74514 2.23465 0
M  V30 2808 H 257.791 4.01959 3.7833 0
M  V30 2809 H 258.268 2.3243 3.72657 0
M  V30 2810 H 258.874 3.44871 2.48885 0
M  V30 2811 N 257.189 -0.644168 1.43834 0
M  V30 2812 C 258.437 -1.40117 1.45642 0
M  V30 2813 C 258.758 -1.94814 0.0852413 0
M  V30 2814 O 258.028 -1.74988 -0.880688 0
M  V30 2815 H 256.608 -0.52005 0.536243 0
M  V30 2816 H 259.27 -0.7591 1.7951 0
M  V30 2817 H 258.366 -2.23902 2.17427 0
M  V30 2818 N 258.668 -1.30515 -0.883378 0
M  V30 2819 C 259.917 -1.18795 -1.63005 0
M  V30 2820 C 260.23 0.255923 -1.93919 0
M  V30 2821 O 261.436 0.494654 -2.66956 0
M  V30 2822 C 259.892 -2.07878 -2.93794 0
M  V30 2823 C 259.5 -3.57184 -2.70414 0
M  V30 2824 C 261.244 -2.04924 -3.71761 0
M  V30 2825 C 259.151 -4.38317 -3.97029 0
M  V30 2826 H 258.081 -0.441031 -0.611562 0
M  V30 2827 H 260.732 -1.55275 -0.977854 0
M  V30 2828 H 259.114 -1.64283 -3.60315 0
M  V30 2829 H 260.288 -4.08937 -2.12384 0
M  V30 2830 H 258.603 -3.61976 -2.0582 0
M  V30 2831 H 261.2 -2.62792 -4.65665 0
M  V30 2832 H 261.543 -1.0331 -4.03277 0
M  V30 2833 H 262.076 -2.46649 -3.12104 0
M  V30 2834 H 258.815 -5.40632 -3.70671 0
M  V30 2835 H 258.335 -3.91326 -4.54559 0
M  V30 2836 H 260.014 -4.49834 -4.65036 0
M  V30 2837 N 260.146 1.09593 -1.13257 0
M  V30 2838 C 261.376 1.85231 -0.915049 0
M  V30 2839 C 261.784 1.81345 0.539498 0
M  V30 2840 O 261.127 1.20664 1.38513 0
M  V30 2841 C 261.189 3.34275 -1.3229 0
M  V30 2842 C 260.853 3.6191 -2.79052 0
M  V30 2843 C 261.85 3.57777 -3.77216 0
M  V30 2844 C 259.535 3.90309 -3.16171 0
M  V30 2845 C 261.529 3.81652 -5.1051 0
M  V30 2846 C 259.216 4.13839 -4.49644 0
M  V30 2847 C 260.214 4.09502 -5.46623 0
M  V30 2848 O 259.902 4.32426 -6.77689 0
M  V30 2849 H 259.634 0.591997 -0.326367 0
M  V30 2850 H 262.188 1.394 -1.50854 0
M  V30 2851 H 260.418 3.80805 -0.672667 0
M  V30 2852 H 262.107 3.9132 -1.07812 0
M  V30 2853 H 262.873 3.35865 -3.49885 0
M  V30 2854 H 258.752 3.92811 -2.41289 0
M  V30 2855 H 262.296 3.78182 -5.86195 0
M  V30 2856 H 258.193 4.35232 -4.767 0
M  V30 2857 H 258.961 4.49896 -6.83766 0
M  V30 2858 N 261.624 0.925811 1.2754 0
M  V30 2859 C 262.852 0.581509 1.9856 0
M  V30 2860 C 263.267 -0.840041 1.69082 0
M  V30 2861 O 262.624 -1.55805 0.950312 0
M  V30 2862 C 262.675 0.795589 3.52637 0
M  V30 2863 O 262.396 2.16121 3.81082 0
M  V30 2864 C 263.897 0.459744 4.4091 0
M  V30 2865 H 261.117 0.220538 0.633722 0
M  V30 2866 H 263.661 1.24232 1.6244 0
M  V30 2867 H 261.816 0.18161 3.86974 0
M  V30 2868 H 262.23 2.2098 4.75676 0
M  V30 2869 H 263.704 0.660244 5.48037 0
M  V30 2870 H 264.181 -0.604625 4.35018 0
M  V30 2871 H 264.787 1.05178 4.12089 0
M  V30 2872 N 263.102 -1.41638 0.69111 0
M  V30 2873 C 264.349 -2.01299 0.220193 0
M  V30 2874 C 264.677 -1.54715 -1.17871 0
M  V30 2875 O 263.932 -0.747193 -1.80874 0
M  V30 2876 C 264.231 -3.56714 0.221277 0
M  V30 2877 C 263.897 -4.22792 1.56709 0
M  V30 2878 C 262.559 -4.40557 1.93554 0
M  V30 2879 C 264.911 -4.59883 2.45268 0
M  V30 2880 C 262.239 -4.92688 3.18552 0
M  V30 2881 C 264.591 -5.13403 3.69595 0
M  V30 2882 C 263.255 -5.29379 4.06589 0
M  V30 2883 H 262.525 -0.736606 0.0805743 0
M  V30 2884 H 265.172 -1.69598 0.889319 0
M  V30 2885 H 263.477 -3.8818 -0.531391 0
M  V30 2886 H 265.174 -4.00678 -0.160547 0
M  V30 2887 H 261.764 -4.09336 1.2705 0
M  V30 2888 H 265.948 -4.45817 2.18084 0
M  V30 2889 H 261.204 -5.03242 3.47214 0
M  V30 2890 H 265.378 -5.41084 4.38407 0
M  V30 2891 H 263.005 -5.69537 5.03519 0
M  V30 2892 N 264.58 -0.43555 -1.51462 0
M  V30 2893 C 265.49 0.383001 -2.31453 0
M  V30 2894 C 266.506 1.02931 -1.4029 0
M  V30 2895 O 267.682 1.02507 -1.73362 0
M  V30 2896 C 264.747 1.47043 -3.13973 0
M  V30 2897 C 263.808 0.844433 -4.20913 0
M  V30 2898 C 263.041 1.88004 -4.9949 0
M  V30 2899 O 263.264 3.10199 -4.78678 0
M  V30 2900 O 262.198 1.47157 -5.83634 0
M  V30 2901 H 266.024 -0.269964 -3.02498 0
M  V30 2902 H 263.609 -0.19813 -1.4808 0
M  V30 2903 H 265.491 2.10113 -3.65281 0
M  V30 2904 H 264.166 2.10751 -2.45695 0
M  V30 2905 H 263.073 0.175729 -3.73687 0
M  V30 2906 H 264.406 0.250869 -4.9156 0
M  V30 2907 N 266.058 1.56714 -0.166846 0
M  V30 2908 C 267.283 2.01557 0.488833 0
M  V30 2909 C 267.708 1.0463 1.56314 0
M  V30 2910 O 267.066 0.0251304 1.81283 0
M  V30 2911 C 267.114 3.4503 1.04818 0
M  V30 2912 O 266.218 3.51163 2.16236 0
M  V30 2913 H 265.559 0.653516 0.117526 0
M  V30 2914 H 268.089 2.02818 -0.269421 0
M  V30 2915 H 268.099 3.84243 1.37191 0
M  V30 2916 H 266.774 4.15077 0.261572 0
M  V30 2917 H 265.351 3.23807 1.84942 0
M  V30 2918 N 267.536 -0.106894 1.57237 0
M  V30 2919 C 268.499 -1.11466 2.0027 0
M  V30 2920 C 269.499 -1.33623 0.894519 0
M  V30 2921 O 270.689 -1.29935 1.16028 0
M  V30 2922 C 267.821 -2.46646 2.35327 0
M  V30 2923 H 269.014 -0.744516 2.90512 0
M  V30 2924 H 266.567 -0.351576 1.52295 0
M  V30 2925 H 267.302 -2.88558 1.48003 0
M  V30 2926 H 267.087 -2.31915 3.16161 0
M  V30 2927 H 268.577 -3.19151 2.69318 0
M  V30 2928 N 269.014 -1.53014 -0.377408 0
M  V30 2929 C 270.26 -1.68872 -1.12294 0
M  V30 2930 C 270.593 -0.433224 -1.89306 0
M  V30 2931 O 269.868 0.569258 -1.85983 0
M  V30 2932 C 270.151 -2.93115 -2.09179 0
M  V30 2933 C 270.004 -4.28794 -1.35853 0
M  V30 2934 C 271.323 -3.12928 -3.09458 0
M  V30 2935 H 268.442 -0.614518 -0.406862 0
M  V30 2936 H 271.084 -1.85633 -0.40503 0
M  V30 2937 H 269.234 -2.78956 -2.70399 0
M  V30 2938 H 270.906 -4.54742 -0.775082 0
M  V30 2939 H 269.149 -4.28744 -0.660364 0
M  V30 2940 H 269.82 -5.11837 -2.06706 0
M  V30 2941 H 272.296 -3.26194 -2.58334 0
M  V30 2942 H 271.172 -4.01316 -3.74482 0
M  V30 2943 H 271.433 -2.27669 -3.78971 0
M  V30 2944 N 270.492 0.636531 -1.44174 0
M  V30 2945 C 271.439 1.74875 -1.50624 0
M  V30 2946 C 272.409 1.62275 -0.35442 0
M  V30 2947 O 273.594 1.82276 -0.563908 0
M  V30 2948 C 270.734 3.13102 -1.45125 0
M  V30 2949 C 269.847 3.36717 -2.7064 0
M  V30 2950 C 268.982 4.64885 -2.57013 0
M  V30 2951 C 268.021 4.8166 -3.77717 0
M  V30 2952 N 267.158 6.01101 -3.62798 0
M  V30 2953 H 271.998 1.68697 -2.45653 0
M  V30 2954 H 269.535 0.823004 -1.21922 0
M  V30 2955 H 271.493 3.93034 -1.39929 0
M  V30 2956 H 270.123 3.18308 -0.536671 0
M  V30 2957 H 269.175 2.50763 -2.86046 0
M  V30 2958 H 270.487 3.44993 -3.60252 0
M  V30 2959 H 269.641 5.52969 -2.49619 0
M  V30 2960 H 268.38 4.58957 -1.64953 0
M  V30 2961 H 267.385 3.92007 -3.85501 0
M  V30 2962 H 268.61 4.89406 -4.70807 0
M  V30 2963 H 266.556 5.96273 -2.73486 0
M  V30 2964 H 266.473 6.10409 -4.46023 0
M  V30 2965 H 267.741 6.91761 -3.59286 0
M  V30 2966 N 271.97 1.30982 0.876444 0
M  V30 2967 C 273.216 1.20474 1.63138 0
M  V30 2968 C 273.549 -0.238096 1.92735 0
M  V30 2969 O 272.824 -1.1692 1.55435 0
M  V30 2970 C 273.107 2.04244 2.96574 0
M  V30 2971 C 272.96 3.56793 2.73896 0
M  V30 2972 C 274.279 1.88684 3.97601 0
M  V30 2973 H 271.398 0.439001 0.591985 0
M  V30 2974 H 274.04 1.60704 1.01361 0
M  V30 2975 H 272.19 1.70063 3.493 0
M  V30 2976 H 273.862 4.01077 2.27892 0
M  V30 2977 H 272.105 3.80548 2.08245 0
M  V30 2978 H 272.776 4.10706 3.68815 0
M  V30 2979 H 275.252 2.18584 3.54062 0
M  V30 2980 H 274.128 2.4961 4.88862 0
M  V30 2981 H 274.389 0.848343 4.33884 0
M  V30 2982 N 273.449 -1.08991 1.13837 0
M  V30 2983 C 274.382 -2.15049 0.763477 0
M  V30 2984 C 275.36 -1.60629 -0.252398 0
M  V30 2985 O 276.544 -1.87958 -0.142853 0
M  V30 2986 C 273.671 -3.38441 0.132545 0
M  V30 2987 C 272.717 -4.11596 1.11763 0
M  V30 2988 S 273.55 -4.6521 2.65216 0
M  V30 2989 C 274.706 -5.91896 2.03495 0
M  V30 2990 H 274.939 -2.46518 1.66182 0
M  V30 2991 H 272.472 -1.21008 0.958976 0
M  V30 2992 H 274.43 -4.09883 -0.225074 0
M  V30 2993 H 273.091 -3.05182 -0.743135 0
M  V30 2994 H 272.284 -5.00121 0.624076 0
M  V30 2995 H 271.886 -3.46038 1.41894 0
M  V30 2996 H 274.178 -6.63156 1.38675 0
M  V30 2997 H 275.121 -6.45938 2.9012 0
M  V30 2998 H 275.529 -5.44625 1.48471 0
M  V30 2999 N 274.927 -0.932562 -1.27047 0
M  V30 3000 C 275.89 -0.440064 -2.24936 0
M  V30 3001 C 276.89 0.444071 -1.54547 0
M  V30 3002 O 278.08 0.244465 -1.72476 0
M  V30 3003 C 275.212 0.36678 -3.38921 0
M  V30 3004 H 276.405 -1.305 -2.70018 0
M  V30 3005 H 273.958 -0.713707 -1.39054 0
M  V30 3006 H 274.693 1.25033 -2.99228 0
M  V30 3007 H 274.478 -0.267204 -3.91188 0
M  V30 3008 H 275.968 0.701567 -4.11665 0
M  V30 3009 N 276.405 1.4127 -0.698611 0
M  V30 3010 C 277.821 1.55241 -0.370462 0
M  V30 3011 C 278.021 1.67351 1.12231 0
M  V30 3012 O 277.077 1.65363 1.90818 0
M  V30 3013 C 278.39 2.78997 -1.12165 0
M  V30 3014 C 279.938 2.92797 -1.1063 0
M  V30 3015 C 280.413 4.19445 -1.8393 0
M  V30 3016 N 281.904 4.26409 -1.80914 0
M  V30 3017 C 282.639 5.23271 -2.34467 0
M  V30 3018 N 282.135 6.26145 -2.96504 0
M  V30 3019 N 283.928 5.15232 -2.24706 0
M  V30 3020 H 276.079 1.31654 -1.66676 0
M  V30 3021 H 278.342 0.635393 -0.703548 0
M  V30 3022 H 278.048 2.76268 -2.17644 0
M  V30 3023 H 277.922 3.70606 -0.702209 0
M  V30 3024 H 280.309 2.95039 -0.0597713 0
M  V30 3025 H 280.39 2.02353 -1.56483 0
M  V30 3026 H 280.034 4.17964 -2.88563 0
M  V30 3027 H 279.964 5.08866 -1.35509 0
M  V30 3028 H 282.455 3.527 -1.35687 0
M  V30 3029 H 282.768 6.96451 -3.34927 0
M  V30 3030 H 281.113 6.26638 -3.00583 0
M  V30 3031 H 284.304 4.33789 -1.7591 0
M  V30 3032 H 284.477 5.90552 -2.66745 0
M  V30 3033 N 277.883 0.443576 1.51229 0
M  V30 3034 C 279.131 -0.120557 2.0174 0
M  V30 3035 C 279.452 -1.42665 1.32935 0
M  V30 3036 O 278.722 -1.9028 0.465866 0
M  V30 3037 H 277.302 -0.0475426 0.745486 0
M  V30 3038 H 279.964 0.587711 1.85828 0
M  V30 3039 H 279.06 -0.291972 3.10731 0
M  V30 3040 N 279.361 -1.56624 0.175154 0
M  V30 3041 C 280.608 -1.96999 -0.468811 0
M  V30 3042 C 280.936 -1.06129 -1.62994 0
M  V30 3043 O 280.191 -0.0961771 -1.95464 0
M  V30 3044 C 280.49 -3.43419 -0.989864 0
M  V30 3045 C 280.156 -4.50866 0.0557687 0
M  V30 3046 C 278.818 -4.79975 0.343134 0
M  V30 3047 C 281.17 -5.15551 0.765308 0
M  V30 3048 C 278.498 -5.71066 1.34536 0
M  V30 3049 C 280.85 -6.07724 1.75654 0
M  V30 3050 C 279.514 -6.35199 2.05132 0
M  V30 3051 H 278.784 -0.720869 -0.17155 0
M  V30 3052 H 281.431 -1.89616 0.267924 0
M  V30 3053 H 279.736 -3.47772 -1.80449 0
M  V30 3054 H 281.433 -3.72002 -1.49719 0
M  V30 3055 H 278.023 -4.28229 -0.178381 0
M  V30 3056 H 282.207 -4.9317 0.556513 0
M  V30 3057 H 277.463 -5.90635 1.57988 0
M  V30 3058 H 281.637 -6.56912 2.31169 0
M  V30 3059 H 279.264 -7.05584 2.8294 0
M  V30 3060 N 280.839 0.0985539 -1.57292 0
M  V30 3061 C 282.088 0.801358 -1.85098 0
M  V30 3062 C 282.401 1.80066 -0.763902 0
M  V30 3063 O 283.607 2.55112 -0.928981 0
M  V30 3064 C 282.063 1.47599 -3.28242 0
M  V30 3065 C 281.671 0.516624 -4.45011 0
M  V30 3066 C 283.415 2.16272 -3.65276 0
M  V30 3067 C 281.322 1.19564 -5.79188 0
M  V30 3068 H 280.252 0.303022 -0.69043 0
M  V30 3069 H 282.903 0.0542623 -1.8342 0
M  V30 3070 H 281.285 2.27042 -3.2445 0
M  V30 3071 H 282.459 -0.246065 -4.60143 0
M  V30 3072 H 280.774 -0.064227 -4.1635 0
M  V30 3073 H 283.371 2.67802 -4.62803 0
M  V30 3074 H 283.714 2.95009 -2.93727 0
M  V30 3075 H 284.247 1.43693 -3.70941 0
M  V30 3076 H 280.986 0.449157 -6.53959 0
M  V30 3077 H 280.506 1.92984 -5.67906 0
M  V30 3078 H 282.185 1.7231 -6.23633 0
M  V30 3079 N 282.317 1.53212 0.369288 0
M  V30 3080 C 283.247 1.82365 1.45826 0
M  V30 3081 C 284.228 0.676907 1.56051 0
M  V30 3082 O 285.413 0.926401 1.70679 0
M  V30 3083 C 282.543 2.01023 2.83208 0
M  V30 3084 C 281.497 3.1678 2.8781 0
M  V30 3085 C 280.823 3.20724 4.27832 0
M  V30 3086 C 282.123 4.55447 2.55667 0
M  V30 3087 H 283.817 2.73559 1.21678 0
M  V30 3088 H 281.363 1.3163 0.583911 0
M  V30 3089 H 283.316 2.20001 3.59413 0
M  V30 3090 H 282.04 1.06536 3.08736 0
M  V30 3091 H 280.699 2.97616 2.14056 0
M  V30 3092 H 280.347 2.23882 4.50429 0
M  V30 3093 H 280.047 3.98496 4.31827 0
M  V30 3094 H 281.571 3.41881 5.05915 0
M  V30 3095 H 282.985 4.74611 3.21586 0
M  V30 3096 H 281.382 5.35432 2.70984 0
M  V30 3097 H 282.452 4.60812 1.5093 0
M  V30 3098 N 283.795 -0.628877 1.44509 0
M  V30 3099 C 284.727 -1.754 1.47538 0
M  V30 3100 C 285.74 -1.58575 0.368506 0
M  V30 3101 O 286.929 -1.66847 0.634376 0
M  V30 3102 C 284.029 -3.1315 1.29577 0
M  V30 3103 C 283.202 -3.56413 2.53551 0
M  V30 3104 C 282.261 -4.7305 2.30457 0
M  V30 3105 O 281.287 -4.81247 3.03957 0
M  V30 3106 N 282.489 -5.64903 1.3366 0
M  V30 3107 H 285.254 -1.73272 2.44534 0
M  V30 3108 H 282.815 -0.813512 1.39977 0
M  V30 3109 H 284.807 -3.88902 1.11971 0
M  V30 3110 H 283.377 -3.09908 0.409371 0
M  V30 3111 H 282.597 -2.70847 2.86419 0
M  V30 3112 H 283.885 -3.82071 3.36005 0
M  V30 3113 H 283.283 -5.60975 0.729604 0
M  V30 3114 H 281.84 -6.40275 1.22032 0
M  V30 3115 N 285.273 -1.31445 -0.869486 0
M  V30 3116 C 286.684 -1.19042 -1.43826 0
M  V30 3117 C 287.035 0.202919 -1.95148 0
M  V30 3118 O 286.16 1.10071 -1.86315 0
M  V30 3119 C 286.755 -2.15499 -2.6143 0
M  V30 3120 C 285.314 -2.07028 -3.14351 0
M  V30 3121 C 284.461 -2.04701 -1.87063 0
M  V30 3122 H 287.412 -1.43489 -0.677984 0
M  V30 3123 H 287.433 -1.74488 -3.38134 0
M  V30 3124 H 286.945 -3.16899 -2.24046 0
M  V30 3125 H 285.046 -1.08825 -3.56354 0
M  V30 3126 H 285.159 -2.96157 -3.766 0
M  V30 3127 H 283.523 -1.49724 -2.06046 0
M  V30 3128 H 284.306 -3.07857 -1.51917 0
M  V30 3129 N 286.751 1.08385 -1.14413 0
M  V30 3130 C 287.998 1.80776 -0.912482 0
M  V30 3131 C 288.326 1.86236 0.560934 0
M  V30 3132 O 287.581 1.33431 1.43159 0
M  V30 3133 C 287.88 3.26273 -1.45879 0
M  V30 3134 C 287.546 3.4093 -2.95089 0
M  V30 3135 C 286.208 3.44638 -3.35824 0
M  V30 3136 C 288.56 3.44591 -3.91033 0
M  V30 3137 C 285.888 3.49597 -4.71167 0
M  V30 3138 C 288.24 3.51086 -5.26233 0
M  V30 3139 C 286.904 3.53067 -5.6648 0
M  V30 3140 H 286.174 0.661507 -0.333901 0
M  V30 3141 H 288.821 1.27613 -1.42784 0
M  V30 3142 H 287.126 3.82146 -0.864376 0
M  V30 3143 H 288.823 3.80839 -1.2555 0
M  V30 3144 H 285.413 3.38736 -2.62594 0
M  V30 3145 H 289.597 3.40957 -3.60641 0
M  V30 3146 H 284.853 3.49424 -5.0171 0
M  V30 3147 H 289.027 3.52864 -6.00383 0
M  V30 3148 H 286.654 3.56662 -6.71339 0
M  V30 3149 N 288.23 0.939286 1.26551 0
M  V30 3150 C 289.458 0.602536 1.97932 0
M  V30 3151 C 289.873 -0.82206 1.69964 0
M  V30 3152 O 289.23 -1.54789 0.966784 0
M  V30 3153 C 289.281 0.832946 3.51773 0
M  V30 3154 O 289.002 2.20151 3.78768 0
M  V30 3155 C 290.503 0.506483 4.40397 0
M  V30 3156 H 287.723 0.227248 0.631347 0
M  V30 3157 H 290.267 1.25948 1.61113 0
M  V30 3158 H 288.422 0.222644 3.8676 0
M  V30 3159 H 288.836 2.26013 4.73306 0
M  V30 3160 H 290.31 0.718333 5.47306 0
M  V30 3161 H 290.787 -0.558451 4.35635 0
M  V30 3162 H 291.393 1.09543 4.10951 0
M  V30 3163 N 289.708 -1.40897 0.706093 0
M  V30 3164 C 290.938 -2.05075 0.250523 0
M  V30 3165 C 291.346 -1.53275 -1.10921 0
M  V30 3166 O 290.689 -0.680281 -1.7064 0
M  V30 3167 C 290.751 -3.59219 0.142178 0
M  V30 3168 C 290.415 -4.33864 1.43566 0
M  V30 3169 C 291.412 -4.62448 2.37566 0
M  V30 3170 C 289.097 -4.72946 1.69195 0
M  V30 3171 C 291.091 -5.29088 3.5545 0
M  V30 3172 C 288.778 -5.3932 2.87362 0
M  V30 3173 C 289.776 -5.6732 3.80312 0
M  V30 3174 O 289.464 -6.32325 4.96408 0
M  V30 3175 H 289.196 -0.666645 0.112074 0
M  V30 3176 H 291.75 -1.81467 0.962239 0
M  V30 3177 H 289.98 -3.81609 -0.6254 0
M  V30 3178 H 291.669 -4.0495 -0.277584 0
M  V30 3179 H 292.435 -4.32727 2.19027 0
M  V30 3180 H 288.314 -4.50527 0.977042 0
M  V30 3181 H 291.858 -5.50859 4.28018 0
M  V30 3182 H 287.755 -5.68461 3.05814 0
M  V30 3183 H 288.523 -6.50821 4.9636 0
M  V30 3184 N 291.186 -0.45159 -1.50991 0
M  V30 3185 C 292.116 0.342898 -2.30969 0
M  V30 3186 C 293.097 1.00815 -1.37005 0
M  V30 3187 O 294.282 1.00907 -1.65926 0
M  V30 3188 C 291.412 1.43637 -3.16205 0
M  V30 3189 C 290.366 0.893818 -4.18563 0
M  V30 3190 C 289.692 2.08411 -4.92411 0
M  V30 3191 C 290.992 -0.0815568 -5.22236 0
M  V30 3192 H 292.686 -0.324556 -2.97636 0
M  V30 3193 H 290.232 -0.157531 -1.43136 0
M  V30 3194 H 292.185 1.9995 -3.70942 0
M  V30 3195 H 290.909 2.13232 -2.47386 0
M  V30 3196 H 289.568 0.352798 -3.64898 0
M  V30 3197 H 289.216 2.76658 -4.20082 0
M  V30 3198 H 288.916 1.72741 -5.61636 0
M  V30 3199 H 290.44 2.65251 -5.49976 0
M  V30 3200 H 291.854 0.391742 -5.7196 0
M  V30 3201 H 290.251 -0.351551 -5.99069 0
M  V30 3202 H 291.321 -1.01374 -4.74185 0
M  V30 3203 N 292.664 1.56529 -0.183458 0
M  V30 3204 C 294.08 1.58664 0.172554 0
M  V30 3205 C 294.28 1.19925 1.61926 0
M  V30 3206 O 293.336 0.916534 2.35278 0
M  V30 3207 C 294.649 3.00463 -0.119262 0
M  V30 3208 C 296.197 3.12945 -0.0584396 0
M  V30 3209 C 296.672 4.56857 -0.323408 0
M  V30 3210 N 298.163 4.62403 -0.271612 0
M  V30 3211 C 298.898 5.71626 -0.450639 0
M  V30 3212 N 298.394 6.89362 -0.689384 0
M  V30 3213 N 300.187 5.60775 -0.385701 0
M  V30 3214 H 292.338 1.79994 -1.12765 0
M  V30 3215 H 294.601 0.834808 -0.449222 0
M  V30 3216 H 294.307 3.33326 -1.12192 0
M  V30 3217 H 294.181 3.72659 0.583544 0
M  V30 3218 H 296.568 2.79902 0.934805 0
M  V30 3219 H 296.649 2.4316 -0.794144 0
M  V30 3220 H 296.293 4.9061 -1.31392 0
M  V30 3221 H 296.223 5.24816 0.43305 0
M  V30 3222 H 298.714 3.77785 -0.0932256 0
M  V30 3223 H 299.027 7.68489 -0.815113 0
M  V30 3224 H 297.372 6.91196 -0.726142 0
M  V30 3225 H 300.563 4.67674 -0.199687 0
M  V30 3226 H 300.736 6.4584 -0.528646 0
M  V30 3227 N 294.142 -0.090211 1.57342 0
M  V30 3228 C 295.419 -0.824761 1.77361 0
M  V30 3229 C 295.799 -1.96698 0.76637 0
M  V30 3230 O 295.147 -2.27586 -0.204179 0
M  V30 3231 C 295.357 -1.31481 3.23286 0
M  V30 3232 C 296.705 -1.75563 3.86604 0
M  V30 3233 O 297.729 -1.41093 3.27065 0
M  V30 3234 O 296.588 -2.39317 4.91314 0
M  V30 3235 H 293.682 -0.393776 0.727234 0
M  V30 3236 H 296.228 -0.0717138 1.69548 0
M  V30 3237 H 295 -0.496671 3.88135 0
M  V30 3238 H 294.623 -2.12973 3.35751 0
M  V30 3239 N 295.62 -1.53406 -0.361157 0
M  V30 3240 C 296.583 -1.79479 -1.42548 0
M  V30 3241 C 297.583 -0.665327 -1.4639 0
M  V30 3242 O 298.773 -0.933549 -1.47073 0
M  V30 3243 C 295.905 -1.92087 -2.8163 0
M  V30 3244 H 297.098 -2.74538 -1.20701 0
M  V30 3245 H 294.651 -1.4455 -0.594546 0
M  V30 3246 H 295.386 -0.991099 -3.08784 0
M  V30 3247 H 295.171 -2.74241 -2.80239 0
M  V30 3248 H 296.661 -2.13836 -3.58697 0
M  V30 3249 N 297.098 0.621204 -1.44841 0
M  V30 3250 C 298.344 1.38073 -1.49357 0
M  V30 3251 C 298.699 1.91973 -0.128115 0
M  V30 3252 O 297.992 1.71311 0.858087 0
M  V30 3253 C 298.186 2.55675 -2.4973 0
M  V30 3254 C 298.015 2.13289 -3.95901 0
M  V30 3255 C 296.785 2.001 -4.63991 0
M  V30 3256 C 298.983 1.7159 -4.84831 0
M  V30 3257 N 296.965 1.51381 -5.94943 0
M  V30 3258 C 298.336 1.34188 -6.05304 0
M  V30 3259 C 300.391 1.59059 -4.7181 0
M  V30 3260 C 299.094 0.855085 -7.14199 0
M  V30 3261 C 301.12 1.11784 -5.8074 0
M  V30 3262 C 300.482 0.753385 -7.0036 0
M  V30 3263 H 296.581 0.499675 -0.601539 0
M  V30 3264 H 299.165 0.711609 -1.8123 0
M  V30 3265 H 297.336 3.20201 -2.19832 0
M  V30 3266 H 299.068 3.22509 -2.4448 0
M  V30 3267 H 295.823 2.20863 -4.18947 0
M  V30 3268 H 296.247 1.29293 -6.64539 0
M  V30 3269 H 300.889 1.85865 -3.79755 0
M  V30 3270 H 298.607 0.574552 -8.06055 0
M  V30 3271 H 302.193 1.02533 -5.72694 0
M  V30 3272 H 301.073 0.393183 -7.83214 0
M  V30 3273 N 298.576 1.31904 0.862503 0
M  V30 3274 C 299.524 1.20125 1.9918 0
M  V30 3275 C 300.518 0.107824 1.69056 0
M  V30 3276 O 301.724 0.270223 1.7796 0
M  V30 3277 H 298.099 0.372148 0.65346 0
M  V30 3278 H 300.07 2.15652 2.06244 0
M  V30 3279 C 298.819 0.933099 3.34946 0
M  V30 3280 H 298.142 1.76664 3.5865 0
M  V30 3281 H 299.582 0.890892 4.14535 0
M  V30 3282 C 298.041 -0.364172 3.34926 0
M  V30 3283 O 298.571 -1.37858 3.77304 0
M  V30 3284 N 296.777 -0.383362 2.8806 0
M  V30 3285 H 296.324 0.442651 2.53768 0
M  V30 3286 H 296.282 -1.25123 2.8843 0
M  V30 3287 N 300.054 -1.07777 1.14986 0
M  V30 3288 C 301.3 -1.80719 0.93339 0
M  V30 3289 C 301.655 -1.8484 -0.534019 0
M  V30 3290 O 300.948 -1.31795 -1.3907 0
M  V30 3291 C 301.142 -3.25495 1.47608 0
M  V30 3292 C 300.971 -3.3548 2.99472 0
M  V30 3293 C 299.741 -3.46293 3.6798 0
M  V30 3294 C 301.939 -3.26596 3.97291 0
M  V30 3295 N 299.921 -3.45136 5.07695 0
M  V30 3296 C 301.292 -3.32506 5.23297 0
M  V30 3297 C 303.347 -3.10376 3.89321 0
M  V30 3298 C 302.05 -3.23866 6.42264 0
M  V30 3299 C 304.076 -3.03069 5.07842 0
M  V30 3300 C 303.438 -3.09587 6.32721 0
M  V30 3301 H 299.537 -0.674814 0.395158 0
M  V30 3302 H 302.121 -1.28681 1.46114 0
M  V30 3303 H 300.292 -3.75963 0.975022 0
M  V30 3304 H 302.024 -3.86535 1.19887 0
M  V30 3305 H 298.779 -3.50456 3.18555 0
M  V30 3306 H 299.203 -3.48097 5.80653 0
M  V30 3307 H 303.845 -3.04194 2.93642 0
M  V30 3308 H 301.563 -3.28807 7.38181 0
M  V30 3309 H 305.149 -2.91629 5.03432 0
M  V30 3310 H 304.029 -3.0397 7.22891 0
M  V30 3311 N 301.532 -0.945985 -1.26051 0
M  V30 3312 C 302.462 -0.477172 -2.28572 0
M  V30 3313 C 303.443 0.472032 -1.63419 0
M  V30 3314 O 304.628 0.372853 -1.90587 0
M  V30 3315 C 301.758 0.253975 -3.4637 0
M  V30 3316 C 300.712 -0.609135 -4.23643 0
M  V30 3317 C 300.038 0.252252 -5.34105 0
M  V30 3318 C 301.338 -1.8829 -4.8718 0
M  V30 3319 H 303.032 -1.33402 -2.68038 0
M  V30 3320 H 300.578 -0.642904 -1.28852 0
M  V30 3321 H 302.531 0.593016 -4.17207 0
M  V30 3322 H 301.255 1.145 -3.05871 0
M  V30 3323 H 299.914 -0.931138 -3.54578 0
M  V30 3324 H 299.562 1.14278 -4.89846 0
M  V30 3325 H 299.262 -0.32188 -5.86718 0
M  V30 3326 H 300.786 0.586454 -6.07777 0
M  V30 3327 H 302.2 -1.61081 -5.50205 0
M  V30 3328 H 300.597 -2.40199 -5.49931 0
M  V30 3329 H 301.667 -2.59134 -4.09851 0
M  V30 3330 N 303.011 1.40521 -0.713556 0
M  V30 3331 C 304.288 1.94775 -0.17943 0
M  V30 3332 C 304.668 1.65184 1.31444 0
M  V30 3333 O 304.016 0.968429 2.06963 0
M  V30 3334 C 304.226 3.45543 -0.489986 0
M  V30 3335 C 305.574 4.22442 -0.427536 0
M  V30 3336 O 306.598 3.53644 -0.425929 0
M  V30 3337 O 305.457 5.4501 -0.403292 0
M  V30 3338 H 302.551 0.826606 -0.0255192 0
M  V30 3339 H 305.097 1.5014 -0.790949 0
M  V30 3340 H 303.869 3.60432 -1.5233 0
M  V30 3341 H 303.492 3.97311 0.151598 0
M  V30 3342 N 304.489 0.459591 1.5075 0
M  V30 3343 C 305.736 -0.0993495 2.02256 0
M  V30 3344 C 306.064 -1.40751 1.34237 0
M  V30 3345 O 305.319 -1.90379 0.453228 0
M  V30 3346 C 305.618 -0.342866 3.55752 0
M  V30 3347 C 305.284 0.88218 4.42186 0
M  V30 3348 C 303.946 1.21808 4.65528 0
M  V30 3349 C 306.298 1.69837 4.92752 0
M  V30 3350 C 303.626 2.37045 5.36681 0
M  V30 3351 C 305.978 2.84192 5.65171 0
M  V30 3352 C 304.642 3.1821 5.8677 0
M  V30 3353 H 303.912 -0.0363545 0.740108 0
M  V30 3354 H 306.559 0.611329 1.8148 0
M  V30 3355 H 304.864 -1.13567 3.7498 0
M  V30 3356 H 306.561 -0.789121 3.93159 0
M  V30 3357 H 303.151 0.610467 4.2423 0
M  V30 3358 H 307.335 1.45205 4.74583 0
M  V30 3359 H 302.591 2.63689 5.51614 0
M  V30 3360 H 306.765 3.4779 6.03337 0
M  V30 3361 H 304.392 4.07613 6.41682 0
M  V30 3362 N 305.967 -1.56429 0.191757 0
M  V30 3363 C 307.216 -1.9666 -0.448088 0
M  V30 3364 C 307.529 -1.08136 -1.62991 0
M  V30 3365 O 308.735 -1.38135 -2.33733 0
M  V30 3366 C 307.191 -3.49753 -0.848585 0
M  V30 3367 C 306.799 -4.46935 0.308764 0
M  V30 3368 C 308.543 -3.9876 -1.4557 0
M  V30 3369 C 306.45 -5.91293 -0.112506 0
M  V30 3370 H 305.38 -0.734312 -0.171179 0
M  V30 3371 H 308.031 -1.81301 0.283242 0
M  V30 3372 H 306.413 -3.60604 -1.63649 0
M  V30 3373 H 307.587 -4.47813 1.08627 0
M  V30 3374 H 305.902 -4.08102 0.827158 0
M  V30 3375 H 308.499 -5.04086 -1.78328 0
M  V30 3376 H 308.842 -3.42875 -2.36099 0
M  V30 3377 H 309.375 -3.9101 -0.731836 0
M  V30 3378 H 306.114 -6.51097 0.758514 0
M  V30 3379 H 305.634 -5.93676 -0.854941 0
M  V30 3380 H 307.313 -6.44663 -0.549448 0
M  V30 3381 N 307.445 0.0818655 -1.57387 0
M  V30 3382 C 308.691 0.784074 -1.8703 0
M  V30 3383 C 309.024 1.77729 -0.782689 0
M  V30 3384 O 308.299 1.93384 0.208051 0
M  V30 3385 C 308.582 1.50105 -3.27323 0
M  V30 3386 C 308.435 0.524925 -4.46727 0
M  V30 3387 C 309.754 2.44843 -3.65705 0
M  V30 3388 H 306.873 0.283582 -0.680257 0
M  V30 3389 H 309.515 0.0474352 -1.89941 0
M  V30 3390 H 307.665 2.12897 -3.24972 0
M  V30 3391 H 309.337 -0.0970111 -4.61198 0
M  V30 3392 H 307.58 -0.160606 -4.33503 0
M  V30 3393 H 308.251 1.064 -5.41648 0
M  V30 3394 H 310.727 1.92135 -3.69085 0
M  V30 3395 H 309.603 2.92018 -4.64776 0
M  V30 3396 H 309.864 3.29197 -2.95096 0
M  V30 3397 N 308.923 1.53595 0.353017 0
M  V30 3398 C 310.172 1.69603 1.09168 0
M  V30 3399 C 310.485 0.460925 1.90092 0
M  V30 3400 O 311.691 0.501774 2.66823 0
M  V30 3401 C 310.147 2.99872 1.9901 0
M  V30 3402 C 309.755 4.30687 1.23339 0
M  V30 3403 C 311.499 3.25246 2.72792 0
M  V30 3404 C 309.406 5.52036 2.12156 0
M  V30 3405 H 308.336 0.631966 0.411261 0
M  V30 3406 H 310.987 1.80096 0.351802 0
M  V30 3407 H 309.369 2.83212 2.7678 0
M  V30 3408 H 310.543 4.58019 0.505456 0
M  V30 3409 H 308.858 4.11853 0.613663 0
M  V30 3410 H 311.455 4.13095 3.39495 0
M  V30 3411 H 311.798 2.41846 3.38846 0
M  V30 3412 H 312.331 3.42638 2.021 0
M  V30 3413 H 309.07 6.37951 1.50659 0
M  V30 3414 H 308.59 5.28966 2.82764 0
M  V30 3415 H 310.269 5.87313 2.71427 0
M  V30 3416 N 310.401 -0.613514 1.45168 0
M  V30 3417 C 311.626 -1.40437 1.52618 0
M  V30 3418 C 312.051 -1.87438 0.157707 0
M  V30 3419 O 311.409 -1.59791 -0.856537 0
M  V30 3420 C 311.457 -2.58894 2.51011 0
M  V30 3421 O 310.561 -3.59326 2.02382 0
M  V30 3422 H 309.902 -0.419506 0.514695 0
M  V30 3423 H 312.432 -0.747215 1.90467 0
M  V30 3424 H 312.442 -3.06214 2.69624 0
M  V30 3425 H 311.117 -2.24032 3.50403 0
M  V30 3426 H 309.694 -3.18695 1.93618 0
M  V30 3427 N 311.879 -1.3236 -0.855495 0
M  V30 3428 C 312.809 -1.23833 -1.97958 0
M  V30 3429 C 313.79 -0.122361 -1.69659 0
M  V30 3430 O 314.975 -0.30939 -1.9172 0
M  V30 3431 C 312.105 -0.959772 -3.33775 0
M  V30 3432 C 311.059 -2.03689 -3.76424 0
M  V30 3433 C 310.385 -1.61075 -5.09862 0
M  V30 3434 C 311.685 -3.4518 -3.9198 0
M  V30 3435 H 313.379 -2.1788 -2.0535 0
M  V30 3436 H 310.925 -1.04891 -0.986605 0
M  V30 3437 H 312.878 -0.886678 -4.11966 0
M  V30 3438 H 311.602 0.0163404 -3.26596 0
M  V30 3439 H 310.261 -2.10012 -3.00484 0
M  V30 3440 H 309.909 -0.622107 -4.99138 0
M  V30 3441 H 309.609 -2.33143 -5.39368 0
M  V30 3442 H 311.133 -1.55201 -5.90546 0
M  V30 3443 H 312.547 -3.4145 -4.60526 0
M  V30 3444 H 310.944 -4.1559 -4.32903 0
M  V30 3445 H 312.014 -3.84903 -2.94919 0
M  V30 3446 N 313.357 1.07166 -1.15556 0
M  V30 3447 C 314.32 2.12589 -0.856644 0
M  V30 3448 C 315.32 1.6015 0.14444 0
M  V30 3449 O 316.51 1.7399 -0.0854163 0
M  V30 3450 C 313.642 3.39753 -0.279405 0
M  V30 3451 H 314.835 2.40539 -1.79112 0
M  V30 3452 H 312.388 1.23086 -0.963298 0
M  V30 3453 H 313.123 3.17447 0.663174 0
M  V30 3454 H 312.908 3.79117 -1.00063 0
M  V30 3455 H 314.398 4.17507 -0.0879113 0
M  V30 3456 N 314.835 0.952656 1.25548 0
M  V30 3457 C 316.065 0.622592 1.96996 0
M  V30 3458 C 316.473 -0.809112 1.71026 0
M  V30 3459 O 315.816 -1.55258 0.981861 0
M  V30 3460 C 315.878 0.798946 3.5051 0
M  V30 3461 C 315.542 2.20744 4.00151 0
M  V30 3462 C 316.539 3.18394 4.11001 0
M  V30 3463 C 314.224 2.5311 4.33867 0
M  V30 3464 C 316.218 4.46504 4.54877 0
M  V30 3465 C 313.905 3.8145 4.7743 0
M  V30 3466 C 314.903 4.77959 4.87897 0
M  V30 3467 O 314.591 6.04012 5.30494 0
M  V30 3468 H 314.323 0.232503 0.634758 0
M  V30 3469 H 316.877 1.2789 1.60728 0
M  V30 3470 H 315.107 0.0854903 3.86605 0
M  V30 3471 H 316.796 0.47023 4.03167 0
M  V30 3472 H 317.562 2.94715 3.85186 0
M  V30 3473 H 313.441 1.78719 4.24948 0
M  V30 3474 H 316.985 5.21835 4.62962 0
M  V30 3475 H 312.882 4.04936 5.0269 0
M  V30 3476 H 313.65 6.0736 5.48685 0
M  V30 3477 N 316.313 -1.40141 0.720998 0
M  V30 3478 C 317.559 -2.01084 0.263231 0
M  V30 3479 C 317.892 -1.57052 -1.14229 0
M  V30 3480 O 317.167 -0.793027 -1.77599 0
M  V30 3481 C 317.45 -3.58401 0.349344 0
M  V30 3482 C 317.303 -4.12491 1.79363 0
M  V30 3483 C 318.622 -4.39231 -0.276351 0
M  V30 3484 H 315.741 -0.730572 0.0971228 0
M  V30 3485 H 318.383 -1.66543 0.914518 0
M  V30 3486 H 316.533 -3.87958 -0.205165 0
M  V30 3487 H 318.205 -3.93711 2.40394 0
M  V30 3488 H 316.448 -3.66576 2.31958 0
M  V30 3489 H 317.119 -5.21646 1.80524 0
M  V30 3490 H 319.595 -4.15637 0.196184 0
M  V30 3491 H 318.471 -5.48586 -0.185681 0
M  V30 3492 H 318.732 -4.20643 -1.36059 0
M  V30 3493 N 317.792 -0.46758 -1.50504 0
M  V30 3494 C 319.02 0.0864133 -2.06719 0
M  V30 3495 C 319.435 1.33819 -1.33184 0
M  V30 3496 O 318.792 1.78061 -0.400083 0
M  V30 3497 C 318.843 0.378079 -3.59517 0
M  V30 3498 O 318.564 -0.824044 -4.3028 0
M  V30 3499 C 320.065 0.979426 -4.32345 0
M  V30 3500 H 317.285 -0.00551697 -0.670977 0
M  V30 3501 H 319.829 -0.655354 -1.93715 0
M  V30 3502 H 317.984 1.06977 -3.72337 0
M  V30 3503 H 318.398 -0.566518 -5.21432 0
M  V30 3504 H 319.872 1.1333 -5.40241 0
M  V30 3505 H 320.349 1.9686 -3.9261 0
M  V30 3506 H 320.955 0.326216 -4.24047 0
M  V30 3507 N 319.27 1.56325 -0.20005 0
M  V30 3508 C 320.203 2.15234 0.758267 0
M  V30 3509 C 321.181 1.09046 1.20614 0
M  V30 3510 O 322.365 1.37186 1.29276 0
M  V30 3511 C 319.492 2.71524 2.02466 0
M  V30 3512 C 318.538 3.90345 1.71852 0
M  V30 3513 S 319.371 5.28513 0.862249 0
M  V30 3514 C 320.527 5.88227 2.13868 0
M  V30 3515 H 320.76 2.96183 0.2575 0
M  V30 3516 H 318.293 1.54393 0.0150099 0
M  V30 3517 H 320.251 3.04598 2.75191 0
M  V30 3518 H 318.912 1.90607 2.49655 0
M  V30 3519 H 318.105 4.28158 2.65888 0
M  V30 3520 H 317.707 3.58306 1.07205 0
M  V30 3521 H 319.999 6.02891 3.09076 0
M  V30 3522 H 320.942 6.84714 1.80479 0
M  V30 3523 H 321.35 5.16874 2.2694 0
M  V30 3524 N 320.748 -0.0735177 1.57428 0
M  V30 3525 C 321.996 -0.771472 1.86796 0
M  V30 3526 C 322.317 -1.78201 0.791804 0
M  V30 3527 O 321.587 -1.95074 -0.179718 0
M  V30 3528 H 320.167 -0.28791 0.689287 0
M  V30 3529 H 322.829 -0.0500161 1.94836 0
M  V30 3530 H 321.925 -1.28874 2.8425 0
M  V30 3531 N 322.226 -1.5378 -0.344866 0
M  V30 3532 C 323.475 -1.7018 -1.08267 0
M  V30 3533 C 323.788 -0.471 -1.89845 0
M  V30 3534 O 324.994 -0.515917 -2.66553 0
M  V30 3535 C 323.45 -3.00923 -1.97417 0
M  V30 3536 C 323.058 -4.31335 -1.21053 0
M  V30 3537 C 324.802 -3.26688 -2.71063 0
M  V30 3538 C 322.709 -5.53153 -2.09225 0
M  V30 3539 H 321.639 -0.634138 -0.407903 0
M  V30 3540 H 324.29 -1.8028 -0.342246 0
M  V30 3541 H 322.672 -2.84676 -2.75274 0
M  V30 3542 H 323.846 -4.58281 -0.481159 0
M  V30 3543 H 322.161 -4.12173 -0.591813 0
M  V30 3544 H 324.758 -4.1489 -3.37299 0
M  V30 3545 H 325.101 -2.43639 -3.37558 0
M  V30 3546 H 325.634 -3.43705 -2.0028 0
M  V30 3547 H 322.373 -6.38741 -1.47274 0
M  V30 3548 H 321.893 -5.30458 -2.79955 0
M  V30 3549 H 323.572 -5.88744 -2.68308 0
M  V30 3550 N 323.704 0.605807 -1.45491 0
M  V30 3551 C 324.981 1.36522 -1.40075 0
M  V30 3552 C 325.361 2.10976 -0.0722744 0
M  V30 3553 O 324.709 2.08007 0.945808 0
M  V30 3554 C 324.919 2.31056 -2.61561 0
M  V30 3555 C 326.267 2.93608 -3.06724 0
M  V30 3556 O 327.291 2.41376 -2.61946 0
M  V30 3557 O 326.15 3.88421 -3.84437 0
M  V30 3558 H 323.244 0.612248 -0.555951 0
M  V30 3559 H 325.79 0.628747 -1.57623 0
M  V30 3560 H 324.562 1.75311 -3.49831 0
M  V30 3561 H 324.185 3.12081 -2.46356 0
M  V30 3562 N 325.182 1.32811 0.848464 0
M  V30 3563 C 326.112 1.24882 1.97299 0
M  V30 3564 C 327.093 0.131357 1.69592 0
M  V30 3565 O 328.278 0.319553 1.91553 0
M  V30 3566 C 325.408 0.97746 3.33261 0
M  V30 3567 C 324.362 2.05682 3.75338 0
M  V30 3568 C 323.688 1.63777 5.09 0
M  V30 3569 C 324.988 3.47254 3.90144 0
M  V30 3570 H 326.682 2.18966 2.04191 0
M  V30 3571 H 324.228 1.05413 0.981029 0
M  V30 3572 H 326.181 0.908513 4.1149 0
M  V30 3573 H 324.905 0.000980011 3.266 0
M  V30 3574 H 323.564 2.11603 2.99366 0
M  V30 3575 H 323.212 0.648569 4.98801 0
M  V30 3576 H 322.912 2.36 5.38124 0
M  V30 3577 H 324.436 1.5833 5.89715 0
M  V30 3578 H 325.85 3.43888 4.58709 0
M  V30 3579 H 324.247 4.1788 4.30693 0
M  V30 3580 H 325.317 3.86462 2.92874 0
M  V30 3581 N 326.66 -1.06551 1.16123 0
M  V30 3582 C 327.908 -1.78947 0.939267 0
M  V30 3583 C 328.229 -1.87532 -0.534476 0
M  V30 3584 O 327.499 -1.38211 -1.38833 0
M  V30 3585 H 326.079 -0.662807 0.344523 0
M  V30 3586 H 328.741 -1.28725 1.46342 0
M  V30 3587 H 327.837 -2.81117 1.35572 0
M  V30 3588 N 328.138 -0.959301 -1.25041 0
M  V30 3589 C 329.086 -0.474437 -2.2771 0
M  V30 3590 C 330.08 0.457697 -1.631 0
M  V30 3591 O 331.286 0.333912 -1.76876 0
M  V30 3592 H 327.661 -0.134936 -0.739795 0
M  V30 3593 H 329.632 -1.35251 -2.65988 0
M  V30 3594 C 328.381 0.227884 -3.46952 0
M  V30 3595 H 327.704 -0.480248 -3.96905 0
M  V30 3596 H 329.144 0.531091 -4.20661 0
M  V30 3597 C 327.603 1.452 -3.04004 0
M  V30 3598 O 328.133 2.54949 -3.10426 0
M  V30 3599 N 326.339 1.31502 -2.59144 0
M  V30 3600 H 325.886 0.422065 -2.54119 0
M  V30 3601 H 325.844 2.13521 -2.30773 0
M  V30 3602 N 329.616 1.39756 -0.72842 0
M  V30 3603 C 330.546 2.33289 -0.0991354 0
M  V30 3604 C 331.527 1.53568 0.731489 0
M  V30 3605 O 332.712 1.81987 0.677807 0
M  V30 3606 C 329.842 3.3763 0.813834 0
M  V30 3607 C 328.796 4.2791 0.0878663 0
M  V30 3608 C 328.122 5.22894 1.11741 0
M  V30 3609 C 329.422 5.11314 -1.06563 0
M  V30 3610 H 331.116 2.86163 -0.880408 0
M  V30 3611 H 328.662 1.37591 -0.424819 0
M  V30 3612 H 330.615 4.0201 1.26355 0
M  V30 3613 H 329.339 2.83181 1.62715 0
M  V30 3614 H 327.998 3.65 -0.342159 0
M  V30 3615 H 327.646 4.64744 1.92412 0
M  V30 3616 H 327.346 5.84143 0.636477 0
M  V30 3617 H 328.87 5.90151 1.56697 0
M  V30 3618 H 330.284 5.69076 -0.694671 0
M  V30 3619 H 328.681 5.81671 -1.47577 0
M  V30 3620 H 329.751 4.46534 -1.89038 0
M  V30 3621 N 331.094 0.475555 1.50254 0
M  V30 3622 C 332.057 -0.305016 2.27161 0
M  V30 3623 C 333.057 -0.916519 1.32123 0
M  V30 3624 O 334.247 -0.785003 1.5551 0
M  V30 3625 C 331.379 -1.43496 3.09227 0
M  V30 3626 H 332.572 0.369511 2.97615 0
M  V30 3627 H 330.125 0.229747 1.54602 0
M  V30 3628 H 330.86 -2.14441 2.43281 0
M  V30 3629 H 330.645 -1.00223 3.79075 0
M  V30 3630 H 332.135 -1.98548 3.67381 0
M  V30 3631 N 332.573 -1.56217 0.208337 0
M  V30 3632 C 333.536 -2.18455 -0.693557 0
M  V30 3633 C 334.536 -1.14268 -1.13135 0
M  V30 3634 O 335.726 -1.39577 -1.0423 0
M  V30 3635 C 332.858 -2.79727 -1.94848 0
M  V30 3636 H 334.051 -2.99519 -0.15114 0
M  V30 3637 H 331.604 -1.56245 -0.041287 0
M  V30 3638 H 332.339 -2.02497 -2.53309 0
M  V30 3639 H 332.124 -3.56009 -1.64316 0
M  V30 3640 H 333.614 -3.27475 -2.59133 0
M  V30 3641 N 334.051 0.0651679 -1.57465 0
M  V30 3642 C 334.981 1.07693 -2.07182 0
M  V30 3643 C 335.962 1.39962 -0.966673 0
M  V30 3644 O 337.147 1.49475 -1.2398 0
M  V30 3645 C 334.277 2.3885 -2.52127 0
M  V30 3646 C 333.231 2.20917 -3.66579 0
M  V30 3647 C 332.557 3.57515 -3.97601 0
M  V30 3648 C 333.857 1.62493 -4.9638 0
M  V30 3649 H 335.551 0.663199 -2.91962 0
M  V30 3650 H 333.097 0.317569 -1.40455 0
M  V30 3651 H 335.05 3.09928 -2.85522 0
M  V30 3652 H 333.774 2.82215 -1.64384 0
M  V30 3653 H 332.433 1.52279 -3.33477 0
M  V30 3654 H 332.081 3.98463 -3.06979 0
M  V30 3655 H 331.781 3.46353 -4.74672 0
M  V30 3656 H 333.305 4.30013 -4.33499 0
M  V30 3657 H 334.719 2.23445 -5.27963 0
M  V30 3658 H 333.116 1.62009 -5.77818 0
M  V30 3659 H 334.186 0.587041 -4.81333 0
M  V30 3660 N 335.529 1.53961 0.336706 0
M  V30 3661 C 336.945 1.44378 0.680241 0
M  V30 3662 C 337.145 0.606034 1.9217 0
M  V30 3663 O 336.201 0.099688 2.52303 0
M  V30 3664 C 337.514 2.87945 0.8665 0
M  V30 3665 C 339.062 2.97763 0.964682 0
M  V30 3666 C 339.537 4.42453 1.18321 0
M  V30 3667 N 341.028 4.46008 1.25025 0
M  V30 3668 C 341.763 5.55102 1.43697 0
M  V30 3669 N 341.259 6.7419 1.59498 0
M  V30 3670 N 343.052 5.42727 1.463 0
M  V30 3671 H 335.203 2.06918 -0.479455 0
M  V30 3672 H 337.466 0.935634 -0.152619 0
M  V30 3673 H 337.172 3.51691 0.0256937 0
M  V30 3674 H 337.046 3.33293 1.76623 0
M  V30 3675 H 339.433 2.34153 1.796 0
M  V30 3676 H 339.514 2.55766 0.041708 0
M  V30 3677 H 339.158 5.06645 0.356788 0
M  V30 3678 H 339.088 4.82048 2.11985 0
M  V30 3679 H 341.579 3.60196 1.14312 0
M  V30 3680 H 341.892 7.53095 1.734 0
M  V30 3681 H 340.237 6.77123 1.56621 0
M  V30 3682 H 343.428 4.48647 1.33543 0
M  V30 3683 H 343.601 6.27806 1.6051 0
M  V30 3684 N 337.007 -0.598083 1.45811 0
M  V30 3685 C 338.235 -1.38322 1.53866 0
M  V30 3686 C 338.65 -1.87992 0.174479 0
M  V30 3687 O 338.007 -1.62756 -0.825627 0
M  V30 3688 C 338.058 -2.58125 2.53089 0
M  V30 3689 O 337.779 -2.10516 3.84206 0
M  V30 3690 C 339.28 -3.50869 2.70935 0
M  V30 3691 H 336.5 -0.423093 0.520801 0
M  V30 3692 H 339.044 -0.728527 1.91083 0
M  V30 3693 H 337.199 -3.19615 2.18917 0
M  V30 3694 H 337.613 -2.88425 4.38077 0
M  V30 3695 H 339.087 -4.31451 3.44317 0
M  V30 3696 H 339.564 -4.01822 1.77301 0
M  V30 3697 H 340.17 -2.95225 3.06141 0
M  V30 3698 N 338.485 -1.33259 -0.841409 0
M  V30 3699 C 339.732 -1.24572 -1.5965 0
M  V30 3700 C 340.06 0.189137 -1.93578 0
M  V30 3701 O 339.315 1.14566 -1.5866 0
M  V30 3702 C 339.614 -2.06381 -2.9179 0
M  V30 3703 C 339.28 -3.556 -2.77235 0
M  V30 3704 C 337.942 -3.96282 -2.72973 0
M  V30 3705 C 340.294 -4.50433 -2.62221 0
M  V30 3706 C 337.622 -5.30017 -2.51592 0
M  V30 3707 C 339.974 -5.84327 -2.42374 0
M  V30 3708 C 338.638 -6.24194 -2.36512 0
M  V30 3709 H 337.908 -0.455842 -0.5842 0
M  V30 3710 H 340.555 -1.6482 -0.975016 0
M  V30 3711 H 338.86 -1.58903 -3.5813 0
M  V30 3712 H 340.557 -1.97019 -3.49263 0
M  V30 3713 H 337.147 -3.23298 -2.81384 0
M  V30 3714 H 341.331 -4.19914 -2.64549 0
M  V30 3715 H 336.587 -5.59947 -2.45499 0
M  V30 3716 H 340.761 -6.57414 -2.29739 0
M  V30 3717 H 338.388 -7.27759 -2.19706 0
M  V30 3718 N 339.963 1.05934 -1.16686 0
M  V30 3719 C 341.379 1.30938 -0.912542 0
M  V30 3720 C 341.579 1.96803 0.432533 0
M  V30 3721 O 340.635 2.23693 1.17123 0
M  V30 3722 C 341.948 2.18649 -2.06429 0
M  V30 3723 C 343.496 2.32055 -2.10047 0
M  V30 3724 C 343.971 3.23122 -3.24586 0
M  V30 3725 N 345.462 3.30706 -3.24327 0
M  V30 3726 C 346.197 4.01273 -4.09594 0
M  V30 3727 N 345.693 4.74332 -5.04956 0
M  V30 3728 N 347.486 3.97361 -3.97569 0
M  V30 3729 H 339.637 0.615777 -2.03278 0
M  V30 3730 H 341.9 0.334077 -0.887185 0
M  V30 3731 H 341.606 1.77534 -3.03603 0
M  V30 3732 H 341.48 3.19252 -2.00894 0
M  V30 3733 H 343.867 2.72415 -1.13464 0
M  V30 3734 H 343.948 1.31107 -2.19647 0
M  V30 3735 H 343.592 2.83477 -4.2143 0
M  V30 3736 H 343.522 4.24057 -3.12223 0
M  V30 3737 H 346.013 2.78644 -2.55276 0
M  V30 3738 H 346.326 5.25716 -5.6643 0
M  V30 3739 H 344.671 4.733 -5.08933 0
M  V30 3740 H 347.862 3.39405 -3.22369 0
M  V30 3741 H 348.035 4.52089 -4.64241 0
M  V30 3742 N 341.441 0.965919 1.2453 0
M  V30 3743 C 342.687 0.62776 1.92839 0
M  V30 3744 C 343.02 -0.834694 1.75347 0
M  V30 3745 O 342.295 -1.60031 1.10546 0
M  V30 3746 C 342.578 1.00109 3.45905 0
M  V30 3747 C 342.431 2.52011 3.72573 0
M  V30 3748 C 343.75 0.53435 4.36844 0
M  V30 3749 H 340.869 0.229537 0.700344 0
M  V30 3750 H 343.511 1.2046 1.46933 0
M  V30 3751 H 341.661 0.510238 3.85135 0
M  V30 3752 H 343.333 3.08559 3.42912 0
M  V30 3753 H 341.576 2.95287 3.17786 0
M  V30 3754 H 342.247 2.73183 4.79661 0
M  V30 3755 H 344.723 0.955565 4.04979 0
M  V30 3756 H 343.599 0.824152 5.42678 0
M  V30 3757 H 343.86 -0.565589 4.38467 0
M  V30 3758 N 342.919 -1.39368 0.735821 0
M  V30 3759 C 343.849 -2.33234 0.111506 0
M  V30 3760 C 344.83 -1.53954 -0.723334 0
M  V30 3761 O 346.015 -1.82344 -0.668147 0
M  V30 3762 C 343.145 -3.38057 -0.795917 0
M  V30 3763 C 342.099 -4.2795 -0.065172 0
M  V30 3764 C 341.425 -5.23479 -1.08967 0
M  V30 3765 C 342.725 -5.10741 1.09273 0
M  V30 3766 H 344.419 -2.85692 0.895571 0
M  V30 3767 H 341.965 -1.37364 0.432109 0
M  V30 3768 H 343.918 -4.02675 -1.24221 0
M  V30 3769 H 342.642 -2.8404 -1.61211 0
M  V30 3770 H 341.301 -3.64813 0.361511 0
M  V30 3771 H 340.949 -4.65758 -1.89944 0
M  V30 3772 H 340.649 -5.84472 -0.605489 0
M  V30 3773 H 342.173 -5.90974 -1.53565 0
M  V30 3774 H 343.587 -5.68699 0.724841 0
M  V30 3775 H 341.984 -5.8088 1.50659 0
M  V30 3776 H 343.054 -4.45525 1.91404 0
M  V30 3777 N 344.397 -0.483516 -1.5 0
M  V30 3778 C 345.813 -0.138404 -1.58999 0
M  V30 3779 C 346.013 1.35597 -1.4905 0
M  V30 3780 O 345.069 2.13039 -1.35539 0
M  V30 3781 C 346.382 -0.699658 -2.92447 0
M  V30 3782 C 347.93 -0.664195 -3.05872 0
M  V30 3783 C 348.405 -1.20321 -4.41913 0
M  V30 3784 N 349.896 -1.16315 -4.48358 0
M  V30 3785 C 350.631 -1.55058 -5.52037 0
M  V30 3786 N 350.127 -2.01311 -6.62907 0
M  V30 3787 N 351.92 -1.46584 -5.42651 0
M  V30 3788 H 344.071 -1.45529 -1.5471 0
M  V30 3789 H 346.334 -0.60258 -0.731848 0
M  V30 3790 H 346.04 -1.747 -3.05242 0
M  V30 3791 H 345.914 -0.150194 -3.76901 0
M  V30 3792 H 348.301 0.374272 -2.92717 0
M  V30 3793 H 348.382 -1.25061 -2.23144 0
M  V30 3794 H 348.026 -2.24037 -4.55818 0
M  V30 3795 H 347.956 -0.592896 -5.23252 0
M  V30 3796 H 350.447 -0.824058 -3.68806 0
M  V30 3797 H 350.76 -2.2899 -7.38095 0
M  V30 3798 H 349.105 -2.05273 -6.63994 0
M  V30 3799 H 352.296 -1.10281 -4.54924 0
M  V30 3800 H 352.469 -1.77103 -6.23329 0
M  V30 3801 N 345.875 1.56104 -0.216619 0
M  V30 3802 C 346.838 2.18819 0.681962 0
M  V30 3803 C 347.838 1.14866 1.12528 0
M  V30 3804 O 349.028 1.40128 1.03488 0
M  V30 3805 C 346.16 2.80756 1.93362 0
M  V30 3806 H 347.353 2.99595 0.135254 0
M  V30 3807 H 344.906 1.56265 0.0330003 0
M  V30 3808 H 345.641 2.03837 2.52232 0
M  V30 3809 H 345.426 3.56876 1.62426 0
M  V30 3810 H 346.916 3.28844 2.57393 0
M  V30 3811 N 347.353 -0.0568162 1.57498 0
M  V30 3812 C 348.283 -1.06593 2.0775 0
M  V30 3813 C 349.264 -1.39448 0.974082 0
M  V30 3814 O 350.449 -1.48815 1.24771 0
M  V30 3815 C 347.579 -2.37509 2.5339 0
M  V30 3816 C 346.533 -2.1897 3.67745 0
M  V30 3817 C 345.859 -3.55402 3.99492 0
M  V30 3818 C 347.159 -1.59859 4.97235 0
M  V30 3819 H 348.853 -0.647706 2.9231 0
M  V30 3820 H 346.399 -0.310116 1.40621 0
M  V30 3821 H 348.352 -3.08409 2.87162 0
M  V30 3822 H 347.076 -2.8134 1.65878 0
M  V30 3823 H 345.735 -1.50508 3.3428 0
M  V30 3824 H 345.383 -3.9683 3.09088 0
M  V30 3825 H 345.083 -3.43831 4.76502 0
M  V30 3826 H 346.607 -4.27708 4.35773 0
M  V30 3827 H 348.021 -2.20642 5.29141 0
M  V30 3828 H 346.418 -1.58942 5.78669 0
M  V30 3829 H 347.488 -0.561506 4.81638 0
M  V30 3830 N 348.832 -1.54138 -0.328536 0
M  V30 3831 C 349.779 -1.83176 -1.40411 0
M  V30 3832 C 350.749 -0.678494 -1.5161 0
M  V30 3833 O 351.934 -0.92443 -1.6691 0
M  V30 3834 C 349.074 -2.06035 -2.76846 0
M  V30 3835 C 348.187 -3.33727 -2.74318 0
M  V30 3836 C 347.322 -3.46574 -4.02567 0
M  V30 3837 C 346.361 -4.68159 -3.94327 0
M  V30 3838 N 345.498 -4.77959 -5.14296 0
M  V30 3839 H 350.338 -2.74938 -1.14948 0
M  V30 3840 H 347.875 -1.36166 -0.556538 0
M  V30 3841 H 349.833 -2.1728 -3.56153 0
M  V30 3842 H 348.463 -1.1757 -3.00628 0
M  V30 3843 H 347.515 -3.31246 -1.8703 0
M  V30 3844 H 348.827 -4.23139 -2.64111 0
M  V30 3845 H 347.981 -3.57333 -4.90304 0
M  V30 3846 H 346.72 -2.55245 -4.15574 0
M  V30 3847 H 345.725 -4.57461 -3.04974 0
M  V30 3848 H 346.95 -5.60868 -3.82889 0
M  V30 3849 H 344.896 -3.89544 -5.27818 0
M  V30 3850 H 344.813 -5.6133 -5.06404 0
M  V30 3851 H 346.081 -4.93044 -6.03761 0
M  V30 3852 N 350.31 0.590341 -1.46126 0
M  V30 3853 C 351.538 1.37504 -1.54597 0
M  V30 3854 C 351.953 1.87897 -0.184447 0
M  V30 3855 O 351.31 1.63192 0.816984 0
M  V30 3856 C 351.361 2.56779 -2.54454 0
M  V30 3857 O 351.082 2.08476 -3.85317 0
M  V30 3858 C 352.583 3.49427 -2.72792 0
M  V30 3859 H 349.803 0.420325 -0.523037 0
M  V30 3860 H 352.347 0.718383 -1.91467 0
M  V30 3861 H 350.502 3.1845 -2.20609 0
M  V30 3862 H 350.916 2.86097 -4.396 0
M  V30 3863 H 352.39 4.29619 -3.466 0
M  V30 3864 H 352.867 4.00876 -1.79429 0
M  V30 3865 H 353.473 2.93598 -3.07702 0
M  V30 3866 N 351.788 1.33704 0.83433 0
M  V30 3867 C 353.034 1.25603 1.59222 0
M  V30 3868 C 353.367 -0.176659 1.93395 0
M  V30 3869 O 352.642 -1.11915 1.59076 0
M  V30 3870 C 352.925 2.13576 2.89926 0
M  V30 3871 C 352.778 3.65326 2.62406 0
M  V30 3872 C 354.097 2.01238 3.91397 0
M  V30 3873 H 351.216 0.457613 0.577719 0
M  V30 3874 H 353.858 1.63848 0.961972 0
M  V30 3875 H 352.008 1.8109 3.43713 0
M  V30 3876 H 353.68 4.08124 2.15017 0
M  V30 3877 H 351.923 3.8698 1.96033 0
M  V30 3878 H 352.594 4.22232 3.55562 0
M  V30 3879 H 355.07 2.29738 3.46929 0
M  V30 3880 H 353.946 2.65036 4.80673 0
M  V30 3881 H 354.207 0.985951 4.30966 0
M  V30 3882 N 353.266 -1.05314 1.17247 0
M  V30 3883 C 354.229 -2.112 0.890357 0
M  V30 3884 C 355.229 -1.60359 -0.118943 0
M  V30 3885 O 356.419 -1.73833 0.113086 0
M  V30 3886 C 353.551 -3.39266 0.333422 0
M  V30 3887 H 354.744 -2.37659 1.82916 0
M  V30 3888 H 352.297 -1.21538 0.982758 0
M  V30 3889 H 353.032 -3.18462 -0.612587 0
M  V30 3890 H 352.817 -3.77477 1.06082 0
M  V30 3891 H 354.307 -4.17315 0.154322 0
M  V30 3892 N 354.744 -0.972509 -1.24016 0
M  V30 3893 C 355.993 -0.632603 -1.91523 0
M  V30 3894 C 356.306 0.836641 -1.76804 0
M  V30 3895 O 357.512 1.28728 -2.39043 0
M  V30 3896 C 355.968 -1.08082 -3.43287 0
M  V30 3897 C 355.576 -2.57386 -3.66683 0
M  V30 3898 C 357.32 -0.814288 -4.16617 0
M  V30 3899 C 355.227 -2.95915 -5.12043 0
M  V30 3900 H 354.157 -0.232898 -0.717129 0
M  V30 3901 H 356.808 -1.17936 -1.40582 0
M  V30 3902 H 355.19 -0.462339 -3.93292 0
M  V30 3903 H 356.364 -3.24405 -3.27258 0
M  V30 3904 H 354.679 -2.81701 -3.06649 0
M  V30 3905 H 357.276 -1.0781 -5.23718 0
M  V30 3906 H 357.619 0.24955 -4.15551 0
M  V30 3907 H 358.152 -1.39397 -3.72577 0
M  V30 3908 H 354.891 -4.0139 -5.18234 0
M  V30 3909 H 354.411 -2.33584 -5.52448 0
M  V30 3910 H 356.09 -2.86086 -5.80314 0
M  V30 3911 N 356.222 1.38976 -0.743202 0
M  V30 3912 C 357.468 2.0064 -0.295189 0
M  V30 3913 C 357.801 1.5885 1.11716 0
M  V30 3914 O 357.076 0.821181 1.76315 0
M  V30 3915 C 357.359 3.578 -0.406318 0
M  V30 3916 C 357.212 4.09586 -1.85903 0
M  V30 3917 C 358.531 4.39616 0.206439 0
M  V30 3918 H 355.65 0.728935 -0.108733 0
M  V30 3919 H 358.292 1.65067 -0.940897 0
M  V30 3920 H 356.442 3.88235 0.143419 0
M  V30 3921 H 358.114 3.89837 -2.46627 0
M  V30 3922 H 356.357 3.6284 -2.3776 0
M  V30 3923 H 357.028 5.18708 -1.888 0
M  V30 3924 H 359.504 4.15273 -0.262283 0
M  V30 3925 H 358.38 5.48812 0.0983819 0
M  V30 3926 H 358.641 4.22754 1.2935 0
M  V30 3927 N 357.7 0.491464 1.49741 0
M  V30 3928 C 359.111 0.0413169 1.86654 0
M  V30 3929 C 359.462 -1.36985 1.40462 0
M  V30 3930 O 358.587 -2.01917 0.778354 0
M  V30 3931 C 359.182 0.0682023 3.38731 0
M  V30 3932 C 357.741 -0.32656 3.74981 0
M  V30 3933 C 356.888 0.444888 2.73708 0
M  V30 3934 H 359.839 0.704733 1.42194 0
M  V30 3935 H 359.86 -0.729322 3.73445 0
M  V30 3936 H 359.372 1.09539 3.72321 0
M  V30 3937 H 357.473 -1.35734 3.46997 0
M  V30 3938 H 357.586 -0.013741 4.79098 0
M  V30 3939 H 355.95 -0.104062 2.54487 0
M  V30 3940 H 356.733 1.47197 3.10142 0
M  V30 3941 N 359.178 -1.55987 0.224894 0
M  V30 3942 C 360.426 -1.97998 -0.405099 0
M  V30 3943 C 360.747 -1.11387 -1.60056 0
M  V30 3944 O 360.017 -0.191645 -1.9496 0
M  V30 3945 H 358.597 -0.731235 -0.152658 0
M  V30 3946 H 361.259 -1.92279 0.318567 0
M  V30 3947 H 360.355 -3.03463 -0.729167 0
M  V30 3948 N 360.656 0.0484629 -1.57525 0
M  V30 3949 C 361.586 1.0549 -2.08313 0
M  V30 3950 C 362.567 1.38929 -0.981463 0
M  V30 3951 O 363.752 1.48151 -1.25558 0
M  V30 3952 C 360.882 2.36162 -2.54646 0
M  V30 3953 C 359.836 2.17016 -3.68901 0
M  V30 3954 C 359.162 3.53278 -4.01371 0
M  V30 3955 C 360.462 1.57219 -4.98076 0
M  V30 3956 H 362.156 0.632195 -2.92649 0
M  V30 3957 H 359.702 0.302654 -1.40784 0
M  V30 3958 H 361.655 3.06882 -2.88793 0
M  V30 3959 H 360.379 2.80456 -1.67368 0
M  V30 3960 H 359.038 1.48733 -3.35073 0
M  V30 3961 H 358.686 3.95185 -3.11188 0
M  V30 3962 H 358.386 3.41299 -4.78318 0
M  V30 3963 H 359.91 4.25391 -4.38035 0
M  V30 3964 H 361.324 2.17832 -5.30304 0
M  V30 3965 H 359.721 1.55871 -5.79503 0
M  V30 3966 H 360.791 0.535956 -4.81929 0
M  V30 3967 N 362.134 1.5431 0.320358 0
M  V30 3968 C 363.081 1.83918 1.39438 0
M  V30 3969 C 364.051 0.686525 1.51248 0
M  V30 3970 O 365.236 0.933269 1.66417 0
M  V30 3971 C 362.376 2.075 2.75749 0
M  V30 3972 C 361.489 3.35177 2.72544 0
M  V30 3973 C 360.624 3.48704 4.00723 0
M  V30 3974 C 359.663 4.70244 3.91838 0
M  V30 3975 N 358.8 4.80679 5.11754 0
M  V30 3976 H 363.64 2.75544 1.13489 0
M  V30 3977 H 361.177 1.36459 0.549309 0
M  V30 3978 H 363.135 2.19166 3.54996 0
M  V30 3979 H 361.765 1.19163 3 0
M  V30 3980 H 360.817 3.32233 1.85271 0
M  V30 3981 H 362.129 4.24534 2.61863 0
M  V30 3982 H 361.283 3.59928 4.88402 0
M  V30 3983 H 360.022 2.57445 4.14214 0
M  V30 3984 H 359.027 4.59072 3.02544 0
M  V30 3985 H 360.252 5.6289 3.7991 0
M  V30 3986 H 358.198 3.92337 5.25745 0
M  V30 3987 H 358.115 5.64007 5.0342 0
M  V30 3988 H 359.383 4.96239 6.01138 0
M  V30 3989 N 363.613 -0.582584 1.46437 0
M  V30 3990 C 364.841 -1.36682 1.55324 0
M  V30 3991 C 365.256 -1.87796 0.194409 0
M  V30 3992 O 364.613 -1.63623 -0.808318 0
M  V30 3993 C 364.664 -2.55426 2.55812 0
M  V30 3994 O 364.385 -2.0643 3.86417 0
M  V30 3995 C 365.886 -3.47976 2.74641 0
M  V30 3996 H 363.106 -0.417545 0.525259 0
M  V30 3997 H 365.65 -0.708219 1.91845 0
M  V30 3998 H 363.805 -3.17275 2.22295 0
M  V30 3999 H 364.219 -2.83762 4.41111 0
M  V30 4000 H 365.693 -4.27775 3.48874 0
M  V30 4001 H 366.17 -3.99919 1.81553 0
M  V30 4002 H 366.776 -2.91962 3.09255 0
M  V30 4003 N 365.091 -1.34144 -0.827227 0
M  V30 4004 C 366.34 -1.25602 -1.5782 0
M  V30 4005 C 366.653 0.173445 -1.94829 0
M  V30 4006 O 367.859 0.380984 -2.68814 0
M  V30 4007 C 366.315 -2.20151 -2.84713 0
M  V30 4008 C 365.923 -3.68331 -2.55021 0
M  V30 4009 C 367.667 -2.20508 -3.62735 0
M  V30 4010 C 365.574 -4.54762 -3.78082 0
M  V30 4011 H 364.504 -0.466573 -0.592306 0
M  V30 4012 H 367.155 -1.59283 -0.911116 0
M  V30 4013 H 365.537 -1.79417 -3.53023 0
M  V30 4014 H 366.711 -4.17577 -1.94849 0
M  V30 4015 H 365.026 -3.7038 -1.90283 0
M  V30 4016 H 367.623 -2.82306 -4.54101 0
M  V30 4017 H 367.966 -1.20322 -3.98533 0
M  V30 4018 H 368.499 -2.59664 -3.01362 0
M  V30 4019 H 365.238 -5.55867 -3.47407 0
M  V30 4020 H 364.758 -4.10254 -4.37552 0
M  V30 4021 H 366.437 -4.69153 -4.45538 0
M  V30 4022 N 366.569 1.04691 -1.17803 0
M  V30 4023 C 367.815 1.78045 -0.970969 0
M  V30 4024 C 368.148 1.87686 0.498751 0
M  V30 4025 O 367.423 1.38035 1.37027 0
M  V30 4026 C 367.706 3.2166 -1.61884 0
M  V30 4027 C 367.559 3.20001 -3.161 0
M  V30 4028 C 368.878 4.1962 -1.3269 0
M  V30 4029 H 365.997 0.64633 -0.354155 0
M  V30 4030 H 368.639 1.22333 -1.45378 0
M  V30 4031 H 366.789 3.69232 -1.20831 0
M  V30 4032 H 368.461 2.80467 -3.66246 0
M  V30 4033 H 366.704 2.58203 -3.48588 0
M  V30 4034 H 367.375 4.21386 -3.56564 0
M  V30 4035 H 369.851 3.80567 -1.68249 0
M  V30 4036 H 368.727 5.18339 -1.80599 0
M  V30 4037 H 368.988 4.414 -0.248622 0
M  V30 4038 N 368.047 0.979072 1.23499 0
M  V30 4039 C 369.295 0.645941 1.91499 0
M  V30 4040 C 369.616 -0.822948 1.76784 0
M  V30 4041 O 368.886 -1.58854 1.14639 0
M  V30 4042 H 367.466 0.235919 0.708767 0
M  V30 4043 H 370.128 1.2426 1.50152 0
M  V30 4044 H 369.224 0.896411 2.9895 0
M  V30 4045 N 369.525 -1.3858 0.750561 0
M  V30 4046 C 370.488 -2.28836 0.129152 0
M  V30 4047 C 371.488 -1.47045 -0.650714 0
M  V30 4048 O 372.678 -1.6753 -0.477428 0
M  V30 4049 C 369.81 -3.30751 -0.825622 0
M  V30 4050 H 371.003 -2.85294 0.924516 0
M  V30 4051 H 368.556 -1.47489 0.517376 0
M  V30 4052 H 369.291 -2.79378 -1.64677 0
M  V30 4053 H 369.076 -3.91177 -0.268852 0
M  V30 4054 H 370.566 -3.98249 -1.2565 0
M  V30 4055 N 371.003 -0.499398 -1.49478 0
M  V30 4056 C 372.249 0.0457576 -2.02748 0
M  V30 4057 C 372.582 1.36793 -1.37846 0
M  V30 4058 O 371.857 1.87596 -0.513601 0
M  V30 4059 C 372.14 0.199986 -3.59544 0
M  V30 4060 C 371.993 -1.1452 -4.34977 0
M  V30 4061 C 373.312 0.94137 -4.29914 0
M  V30 4062 H 370.431 0.0151552 -0.736844 0
M  V30 4063 H 373.073 -0.650498 -1.78518 0
M  V30 4064 H 371.223 0.793007 -3.8032 0
M  V30 4065 H 372.895 -1.77697 -4.25701 0
M  V30 4066 H 371.138 -1.73488 -3.97598 0
M  V30 4067 H 371.809 -0.990607 -5.43039 0
M  V30 4068 H 374.285 0.43844 -4.13784 0
M  V30 4069 H 373.161 1.01812 -5.39375 0
M  V30 4070 H 373.422 1.98471 -3.95046 0
M  V30 4071 N 372.481 1.55866 -0.233164 0
M  V30 4072 C 373.73 1.97779 0.39579 0
M  V30 4073 C 374.043 1.12419 1.60066 0
M  V30 4074 O 375.249 1.44283 2.29988 0
M  V30 4075 C 373.705 3.5188 0.755556 0
M  V30 4076 C 373.313 4.45959 -0.427152 0
M  V30 4077 C 375.057 4.02479 1.34946 0
M  V30 4078 C 372.964 5.91383 -0.0443043 0
M  V30 4079 H 371.894 0.738592 0.15165 0
M  V30 4080 H 374.545 1.80486 -0.331212 0
M  V30 4081 H 372.927 3.64816 1.5403 0
M  V30 4082 H 374.101 4.44776 -1.20462 0
M  V30 4083 H 372.416 4.05765 -0.935068 0
M  V30 4084 H 375.013 5.08637 1.649 0
M  V30 4085 H 375.356 3.49014 2.26925 0
M  V30 4086 H 375.889 3.92813 0.62791 0
M  V30 4087 H 372.628 6.48857 -0.930874 0
M  V30 4088 H 372.148 5.95734 0.697238 0
M  V30 4089 H 373.827 6.45893 0.378334 0
M  V30 4090 N 373.959 -0.0401083 1.57549 0
M  V30 4091 C 374.869 -1.06133 2.0922 0
M  V30 4092 C 375.885 -1.40356 1.0284 0
M  V30 4093 O 377.061 -1.49897 1.34509 0
M  V30 4094 C 374.126 -2.34658 2.55218 0
M  V30 4095 C 373.187 -2.07117 3.76033 0
M  V30 4096 C 372.42 -3.29514 4.19829 0
M  V30 4097 O 372.643 -4.39794 3.63232 0
M  V30 4098 O 371.577 -3.15863 5.12362 0
M  V30 4099 H 375.403 -0.652244 2.96613 0
M  V30 4100 H 372.988 -0.256368 1.47184 0
M  V30 4101 H 374.87 -3.10239 2.85184 0
M  V30 4102 H 373.545 -2.74883 1.70941 0
M  V30 4103 H 372.452 -1.29139 3.51104 0
M  V30 4104 H 373.785 -1.71754 4.61261 0
M  V30 4105 N 375.437 -1.54477 -0.31217 0
M  V30 4106 C 376.662 -1.77526 -1.07235 0
M  V30 4107 C 377.087 -0.527775 -1.80544 0
M  V30 4108 O 376.445 0.52121 -1.73646 0
M  V30 4109 C 376.493 -2.97535 -2.03728 0
M  V30 4110 O 375.597 -2.69878 -3.11833 0
M  V30 4111 H 374.938 -0.58792 -0.30862 0
M  V30 4112 H 377.468 -2.01532 -0.352993 0
M  V30 4113 H 377.478 -3.25198 -2.46395 0
M  V30 4114 H 376.153 -3.87996 -1.49774 0
M  V30 4115 H 374.73 -2.53199 -2.7376 0
M  V30 4116 N 376.915 0.57481 -1.46744 0
M  V30 4117 C 378.161 1.3347 -1.52688 0
M  V30 4118 C 378.494 1.93353 -0.181229 0
M  V30 4119 O 377.769 1.76912 0.808237 0
M  V30 4120 C 378.052 2.45811 -2.63152 0
M  V30 4121 C 377.905 1.90912 -4.07275 0
M  V30 4122 C 379.224 3.47822 -2.69644 0
M  V30 4123 H 376.343 0.483935 -0.555856 0
M  V30 4124 H 378.985 0.644968 -1.78718 0
M  V30 4125 H 377.135 3.04646 -2.41088 0
M  V30 4126 H 378.807 1.36473 -4.4065 0
M  V30 4127 H 377.05 1.21691 -4.16382 0
M  V30 4128 H 377.721 2.72042 -4.80309 0
M  V30 4129 H 380.197 2.9888 -2.895 0
M  V30 4130 H 379.073 4.23876 -3.48742 0
M  V30 4131 H 379.334 4.05555 -1.76005 0
M  V30 4132 N 378.394 1.34581 0.820102 0
M  V30 4133 C 379.341 1.2639 1.93117 0
M  V30 4134 C 380.311 0.138554 1.65521 0
M  V30 4135 O 381.496 0.320004 1.88097 0
M  V30 4136 C 378.636 1.02812 3.29429 0
M  V30 4137 C 377.749 2.24146 3.693 0
M  V30 4138 C 376.884 1.93829 4.94574 0
M  V30 4139 C 375.923 3.1129 5.27034 0
M  V30 4140 N 375.06 2.80838 6.43486 0
M  V30 4141 H 379.9 2.21408 1.99455 0
M  V30 4142 H 377.437 1.10077 0.975784 0
M  V30 4143 H 379.395 0.871788 4.0799 0
M  V30 4144 H 378.025 0.114612 3.22596 0
M  V30 4145 H 377.077 2.50691 2.86109 0
M  V30 4146 H 378.389 3.11899 3.89257 0
M  V30 4147 H 377.543 1.74948 5.80929 0
M  V30 4148 H 376.282 1.03341 4.76626 0
M  V30 4149 H 375.287 3.30764 4.39175 0
M  V30 4150 H 376.512 4.02561 5.4692 0
M  V30 4151 H 374.458 1.92929 6.26988 0
M  V30 4152 H 374.375 3.62123 6.63629 0
M  V30 4153 H 375.643 2.65467 7.32903 0
M  V30 4154 N 379.872 -1.04064 1.18357 0
M  V30 4155 C 380.82 -2.14187 0.907007 0
M  V30 4156 C 381.814 -1.68879 -0.132725 0
M  V30 4157 O 383.02 -1.79993 0.0154248 0
M  V30 4158 H 379.395 -0.699585 0.275835 0
M  V30 4159 H 381.366 -2.34711 1.84264 0
M  V30 4160 C 380.115 -3.44785 0.449254 0
M  V30 4161 H 379.438 -3.80058 1.24081 0
M  V30 4162 H 380.878 -4.22974 0.294737 0
M  V30 4163 C 379.337 -3.26391 -0.834909 0
M  V30 4164 O 379.867 -3.53973 -1.89911 0
M  V30 4165 N 378.073 -2.79726 -0.787523 0
M  V30 4166 H 377.62 -2.5748 0.0787347 0
M  V30 4167 H 377.578 -2.67798 -1.64716 0
M  V30 4168 N 381.35 -0.985608 -1.22978 0
M  V30 4169 C 382.28 -0.549649 -2.26939 0
M  V30 4170 C 383.261 0.419803 -1.64838 0
M  V30 4171 O 384.446 0.31203 -1.91677 0
M  V30 4172 C 381.576 0.143652 -3.47003 0
M  V30 4173 C 380.53 -0.743606 -4.21491 0
M  V30 4174 C 379.856 0.0822027 -5.34637 0
M  V30 4175 C 381.156 -2.03694 -4.80943 0
M  V30 4176 H 382.85 -1.41862 -2.63658 0
M  V30 4177 H 380.396 -0.683571 -1.26741 0
M  V30 4178 H 382.349 0.459985 -4.18882 0
M  V30 4179 H 381.073 1.04711 -3.09359 0
M  V30 4180 H 379.732 -1.04347 -3.51436 0
M  V30 4181 H 379.38 0.986359 -4.93234 0
M  V30 4182 H 379.08 -0.508377 -5.85397 0
M  V30 4183 H 380.604 0.392797 -6.09335 0
M  V30 4184 H 382.018 -1.78504 -5.44802 0
M  V30 4185 H 380.415 -2.57573 -5.42011 0
M  V30 4186 H 381.485 -2.72042 -4.01399 0
M  V30 4187 N 382.828 1.3818 -0.7579 0
M  V30 4188 C 384.244 1.5353 -0.435972 0
M  V30 4189 C 384.444 1.71961 1.05032 0
M  V30 4190 O 383.5 1.73307 1.83633 0
M  V30 4191 C 384.813 2.73989 -1.23898 0
M  V30 4192 C 386.361 2.87841 -1.22949 0
M  V30 4193 C 386.836 4.11266 -2.01554 0
M  V30 4194 N 388.327 4.18352 -1.98837 0
M  V30 4195 C 389.062 5.12856 -2.5645 0
M  V30 4196 N 388.558 6.13005 -3.22794 0
M  V30 4197 N 390.351 5.05238 -2.46356 0
M  V30 4198 H 382.502 1.24467 -1.7211 0
M  V30 4199 H 384.765 0.604982 -0.729864 0
M  V30 4200 H 384.471 2.66789 -2.29165 0
M  V30 4201 H 384.345 3.67294 -0.858764 0
M  V30 4202 H 386.732 2.9452 -0.184854 0
M  V30 4203 H 386.813 1.95534 -1.64924 0
M  V30 4204 H 386.457 4.05349 -3.06031 0
M  V30 4205 H 386.387 5.02661 -1.5697 0
M  V30 4206 H 388.878 3.46628 -1.50524 0
M  V30 4207 H 389.191 6.81619 -3.64165 0
M  V30 4208 H 387.536 6.13325 -3.2689 0
M  V30 4209 H 390.727 4.25938 -1.9415 0
M  V30 4210 H 390.9 5.78707 -2.91552 0
M  V30 4211 N 384.306 0.507319 1.49211 0
M  V30 4212 C 385.583 -0.0982702 1.95353 0
M  V30 4213 C 385.963 -1.53516 1.449 0
M  V30 4214 O 385.311 -2.18594 0.66551 0
M  V30 4215 C 385.521 -0.00440283 3.49 0
M  V30 4216 C 386.869 -0.175147 4.24239 0
M  V30 4217 O 387.893 -0.0792891 3.56112 0
M  V30 4218 O 386.752 -0.37276 5.45227 0
M  V30 4219 H 383.846 -0.0918236 0.821887 0
M  V30 4220 H 386.392 0.570307 1.5983 0
M  V30 4221 H 385.164 0.997402 3.78375 0
M  V30 4222 H 384.787 -0.712845 3.91158 0
M  V30 4223 N 385.784 -1.5574 0.241426 0
M  V30 4224 C 387.03 -1.99104 -0.385406 0
M  V30 4225 C 387.363 -1.1293 -1.57988 0
M  V30 4226 O 386.638 -0.191449 -1.93555 0
M  V30 4227 C 386.921 -3.51087 -0.800616 0
M  V30 4228 C 386.774 -4.48028 0.398874 0
M  V30 4229 C 388.093 -4.08015 -1.64959 0
M  V30 4230 H 385.212 -0.723848 -0.138614 0
M  V30 4231 H 387.854 -1.86903 0.341642 0
M  V30 4232 H 386.004 -3.61615 -1.4201 0
M  V30 4233 H 387.676 -4.49487 1.03726 0
M  V30 4234 H 385.919 -4.21077 1.04293 0
M  V30 4235 H 386.59 -5.51962 0.0651056 0
M  V30 4236 H 389.066 -4.00555 -1.12672 0
M  V30 4237 H 387.942 -5.14635 -1.90898 0
M  V30 4238 H 388.203 -3.56131 -2.61961 0
M  V30 4239 N 387.262 0.0317525 -1.57568 0
M  V30 4240 C 388.511 0.722131 -1.8833 0
M  V30 4241 C 388.824 1.76664 -0.839587 0
M  V30 4242 O 390.03 2.50942 -1.03635 0
M  V30 4243 C 388.486 1.33544 -3.34207 0
M  V30 4244 C 388.094 0.327415 -4.46802 0
M  V30 4245 C 389.838 2.00585 -3.7412 0
M  V30 4246 C 387.745 0.948915 -5.83738 0
M  V30 4247 H 386.675 0.273466 -0.702661 0
M  V30 4248 H 389.326 -0.0235811 -1.83485 0
M  V30 4249 H 387.708 2.13077 -3.33788 0
M  V30 4250 H 388.882 -0.441006 -4.58685 0
M  V30 4251 H 387.197 -0.240758 -4.15703 0
M  V30 4252 H 389.794 2.47932 -4.73744 0
M  V30 4253 H 390.137 2.82285 -3.05975 0
M  V30 4254 H 390.67 1.27831 -3.76702 0
M  V30 4255 H 387.409 0.171387 -6.55276 0
M  V30 4256 H 386.929 1.68724 -5.7558 0
M  V30 4257 H 388.608 1.45705 -6.3038 0
M  V30 4258 N 388.74 1.54641 0.303973 0
M  V30 4259 C 389.989 1.7299 1.03717 0
M  V30 4260 C 390.302 0.521168 1.88529 0
M  V30 4261 O 391.508 0.586408 2.65092 0
M  V30 4262 C 389.964 3.06051 1.89369 0
M  V30 4263 C 389.572 4.34393 1.09574 0
M  V30 4264 C 391.316 3.3376 2.62306 0
M  V30 4265 C 389.223 5.58506 1.94486 0
M  V30 4266 H 388.153 0.64473 0.390947 0
M  V30 4267 H 390.804 1.81124 0.294328 0
M  V30 4268 H 389.186 2.91874 2.67629 0
M  V30 4269 H 390.36 4.59396 0.359485 0
M  V30 4270 H 388.675 4.13597 0.482324 0
M  V30 4271 H 391.272 4.23687 3.26181 0
M  V30 4272 H 391.615 2.52503 3.3098 0
M  V30 4273 H 392.148 3.48894 1.91097 0
M  V30 4274 H 388.887 6.42422 1.30287 0
M  V30 4275 H 388.407 5.37694 2.65792 0
M  V30 4276 H 390.086 5.95651 2.52605 0
M  V30 4277 N 390.218 -0.567019 1.47046 0
M  V30 4278 C 391.148 -1.68482 1.61667 0
M  V30 4279 C 392.129 -1.6358 0.466418 0
M  V30 4280 O 393.314 -1.81354 0.694574 0
M  V30 4281 C 390.444 -3.07124 1.62148 0
M  V30 4282 C 389.398 -3.26867 2.76301 0
M  V30 4283 C 388.724 -4.66196 2.61849 0
M  V30 4284 C 390.024 -3.13186 4.17986 0
M  V30 4285 H 391.718 -1.56502 2.5524 0
M  V30 4286 H 389.264 -0.751486 1.22836 0
M  V30 4287 H 391.217 -3.8516 1.70968 0
M  V30 4288 H 389.941 -3.2004 0.651287 0
M  V30 4289 H 388.6 -2.51237 2.66975 0
M  V30 4290 H 388.248 -4.75898 1.62879 0
M  V30 4291 H 387.948 -4.80356 3.38425 0
M  V30 4292 H 389.472 -5.46379 2.72584 0
M  V30 4293 H 390.886 -3.81049 4.2834 0
M  V30 4294 H 389.283 -3.3886 4.95272 0
M  V30 4295 H 390.353 -2.10057 4.3704 0
M  V30 4296 N 391.696 -1.35014 -0.812953 0
M  V30 4297 C 392.924 -1.31031 -1.6012 0
M  V30 4298 C 393.339 0.113558 -1.88458 0
M  V30 4299 O 392.696 1.06363 -1.48301 0
M  V30 4300 C 392.747 -2.10872 -2.93624 0
M  V30 4301 O 392.468 -3.47706 -2.66518 0
M  V30 4302 C 393.969 -2.14401 -3.88004 0
M  V30 4303 H 391.189 -0.45037 -0.497401 0
M  V30 4304 H 393.733 -1.77775 -1.01076 0
M  V30 4305 H 391.888 -1.67744 -3.492 0
M  V30 4306 H 392.302 -3.89097 -3.51715 0
M  V30 4307 H 393.776 -2.74669 -4.78812 0
M  V30 4308 H 394.253 -1.14105 -4.24119 0
M  V30 4309 H 394.859 -2.57662 -3.38364 0
M  V30 4310 N 393.175 1.03435 -1.18907 0
M  V30 4311 C 394.108 2.11162 -0.86521 0
M  V30 4312 C 395.086 1.6165 0.175473 0
M  V30 4313 O 396.27 1.88425 0.0530129 0
M  V30 4314 C 393.397 3.37423 -0.293868 0
M  V30 4315 C 392.443 4.05795 -1.31274 0
M  V30 4316 S 393.276 4.52027 -2.8711 0
M  V30 4317 C 394.432 5.81513 -2.31504 0
M  V30 4318 H 394.665 2.38308 -1.77754 0
M  V30 4319 H 392.198 1.16295 -1.01562 0
M  V30 4320 H 394.156 4.1049 0.0292572 0
M  V30 4321 H 392.817 3.0838 0.596682 0
M  V30 4322 H 392.01 4.96574 -0.86198 0
M  V30 4323 H 391.612 3.38874 -1.58242 0
M  V30 4324 H 393.904 6.55784 -1.70157 0
M  V30 4325 H 394.847 6.3136 -3.20608 0
M  V30 4326 H 395.255 5.36921 -1.74286 0
M  V30 4327 N 394.653 0.992116 1.22453 0
M  V30 4328 C 395.9 0.667534 1.91181 0
M  V30 4329 C 396.228 -0.800317 1.77271 0
M  V30 4330 O 395.483 -1.59421 1.13505 0
M  V30 4331 C 395.782 1.01832 3.42586 0
M  V30 4332 C 395.448 2.47831 3.76684 0
M  V30 4333 C 394.11 2.87729 3.85701 0
M  V30 4334 C 396.462 3.42466 3.92895 0
M  V30 4335 C 393.79 4.21252 4.08367 0
M  V30 4336 C 396.142 4.75648 4.17064 0
M  V30 4337 C 394.806 5.15288 4.24305 0
M  V30 4338 H 394.076 0.244268 0.699581 0
M  V30 4339 H 396.723 1.24816 1.45235 0
M  V30 4340 H 395.028 0.355769 3.90181 0
M  V30 4341 H 396.725 0.745228 3.94014 0
M  V30 4342 H 393.315 2.15905 3.70247 0
M  V30 4343 H 397.499 3.12814 3.85307 0
M  V30 4344 H 392.755 4.51554 4.122 0
M  V30 4345 H 396.929 5.48924 4.2855 0
M  V30 4346 H 394.556 6.18769 4.41621 0
M  V30 4347 N 396.131 -1.37776 0.765217 0
M  V30 4348 C 397.356 -2.04651 0.336537 0
M  V30 4349 C 397.781 -1.57337 -1.03086 0
M  V30 4350 O 397.139 -0.730621 -1.65927 0
M  V30 4351 C 397.187 -3.58577 0.381468 0
M  V30 4352 O 396.291 -4.07706 -0.62042 0
M  V30 4353 H 395.632 -0.64756 0.146838 0
M  V30 4354 H 398.162 -1.76221 1.03959 0
M  V30 4355 H 398.172 -4.07314 0.236448 0
M  V30 4356 H 396.847 -3.9237 1.37907 0
M  V30 4357 H 395.424 -3.70306 -0.439056 0
M  V30 4358 N 397.609 -0.515225 -1.4894 0
M  V30 4359 C 398.539 0.244628 -2.32215 0
M  V30 4360 C 399.52 0.949136 -1.41157 0
M  V30 4361 O 400.705 0.937783 -1.70057 0
M  V30 4362 C 397.835 1.30096 -3.22013 0
M  V30 4363 C 396.789 0.715486 -4.21977 0
M  V30 4364 C 396.115 1.87339 -5.00808 0
M  V30 4365 C 397.415 -0.302982 -5.2142 0
M  V30 4366 H 399.109 -0.450501 -2.95991 0
M  V30 4367 H 396.655 -0.218098 -1.42339 0
M  V30 4368 H 398.608 1.84037 -3.79089 0
M  V30 4369 H 397.332 2.02547 -2.56207 0
M  V30 4370 H 395.991 0.197715 -3.66066 0
M  V30 4371 H 395.639 2.58592 -4.31438 0
M  V30 4372 H 395.339 1.48764 -5.68457 0
M  V30 4373 H 396.863 2.41686 -5.60732 0
M  V30 4374 H 398.277 0.148802 -5.73107 0
M  V30 4375 H 396.674 -0.60532 -5.97039 0
M  V30 4376 H 397.744 -1.21395 -4.69459 0
M  V30 4377 N 399.087 1.5561 -0.249682 0
M  V30 4378 C 400.312 2.03865 0.381305 0
M  V30 4379 C 400.737 1.12769 1.50548 0
M  V30 4380 O 400.095 0.121189 1.80895 0
M  V30 4381 C 400.143 3.50101 0.863816 0
M  V30 4382 O 399.247 3.62132 1.97318 0
M  V30 4383 H 398.588 0.658827 0.0827194 0
M  V30 4384 H 401.118 2.01105 -0.376552 0
M  V30 4385 H 401.128 3.90975 1.1663 0
M  V30 4386 H 399.803 4.1588 0.0411816 0
M  V30 4387 H 398.38 3.33155 1.67517 0
M  V30 4388 N 400.565 -0.0233959 1.57583 0
M  V30 4389 C 401.811 -0.714119 1.89811 0
M  V30 4390 C 402.144 -1.74702 0.848113 0
M  V30 4391 O 401.419 -1.94023 -0.136135 0
M  V30 4392 C 401.702 -1.37853 3.32669 0
M  V30 4393 C 401.555 -0.358764 4.48367 0
M  V30 4394 C 402.874 -2.31101 3.7454 0
M  V30 4395 H 399.993 -0.25814 0.690314 0
M  V30 4396 H 402.635 0.0230927 1.89986 0
M  V30 4397 H 400.785 -2.00689 3.3265 0
M  V30 4398 H 402.457 0.268115 4.6052 0
M  V30 4399 H 400.7 0.321387 4.32608 0
M  V30 4400 H 401.371 -0.862242 5.45224 0
M  V30 4401 H 403.847 -1.78304 3.75961 0
M  V30 4402 H 402.723 -2.74567 4.75294 0
M  V30 4403 H 402.984 -3.18018 3.0711 0
M  V30 4404 N 402.043 -1.548 -0.295768 0
M  V30 4405 C 403.29 -1.74329 -1.03032 0
M  V30 4406 C 403.618 -0.531915 -1.87085 0
M  V30 4407 O 402.873 0.486052 -1.89568 0
M  V30 4408 C 403.172 -2.98797 -1.961 0
M  V30 4409 C 402.838 -4.32356 -1.2798 0
M  V30 4410 C 401.5 -4.68661 -1.09135 0
M  V30 4411 C 403.852 -5.15128 -0.793243 0
M  V30 4412 C 401.18 -5.85312 -0.403269 0
M  V30 4413 C 403.532 -6.32488 -0.118854 0
M  V30 4414 C 402.196 -6.6745 0.0815043 0
M  V30 4415 H 401.466 -0.637916 -0.37702 0
M  V30 4416 H 404.113 -1.8906 -0.304696 0
M  V30 4417 H 402.418 -2.78869 -2.75207 0
M  V30 4418 H 404.115 -3.11102 -2.53015 0
M  V30 4419 H 400.705 -4.03808 -1.43655 0
M  V30 4420 H 404.889 -4.87575 -0.92653 0
M  V30 4421 H 400.145 -6.1094 -0.237098 0
M  V30 4422 H 404.319 -6.95892 0.266035 0
M  V30 4423 H 401.946 -7.57695 0.616685 0
M  V30 4424 N 403.521 0.559213 -1.47345 0
M  V30 4425 C 404.484 1.64854 -1.59235 0
M  V30 4426 C 405.484 1.53851 -0.467607 0
M  V30 4427 O 406.674 1.58045 -0.732617 0
M  V30 4428 C 403.806 3.04388 -1.53496 0
M  V30 4429 H 404.999 1.55662 -2.56339 0
M  V30 4430 H 402.552 0.778973 -1.35505 0
M  V30 4431 H 403.287 3.19115 -0.577604 0
M  V30 4432 H 403.072 3.13783 -2.35123 0
M  V30 4433 H 404.562 3.83642 -1.6495 0
M  V30 4434 N 404.999 1.35443 0.805782 0
M  V30 4435 C 405.929 1.31095 1.93226 0
M  V30 4436 C 406.91 0.185244 1.69088 0
M  V30 4437 O 408.095 0.380332 1.90439 0
M  V30 4438 C 405.225 1.08299 3.29983 0
M  V30 4439 C 404.179 2.17519 3.68605 0
M  V30 4440 C 403.505 1.79887 5.03532 0
M  V30 4441 C 404.805 3.5949 3.78898 0
M  V30 4442 H 406.499 2.25352 1.97122 0
M  V30 4443 H 404.045 1.0848 0.946996 0
M  V30 4444 H 405.998 1.03897 4.08391 0
M  V30 4445 H 404.722 0.104885 3.26432 0
M  V30 4446 H 403.381 2.2102 2.92482 0
M  V30 4447 H 403.029 0.80693 4.96485 0
M  V30 4448 H 402.729 2.53001 5.30344 0
M  V30 4449 H 404.253 1.77011 5.84379 0
M  V30 4450 H 405.667 3.58307 4.47536 0
M  V30 4451 H 404.064 4.31371 4.1718 0
M  V30 4452 H 405.134 3.95584 2.80431 0
M  V30 4453 N 406.477 -1.02803 1.19454 0
M  V30 4454 C 407.41 -2.107 0.876396 0
M  V30 4455 C 408.388 -1.61741 -0.166897 0
M  V30 4456 O 409.572 -1.88451 -0.0430195 0
M  V30 4457 C 406.699 -3.37262 0.311758 0
M  V30 4458 C 405.745 -4.05093 1.33424 0
M  V30 4459 S 406.578 -4.50498 2.89503 0
M  V30 4460 C 407.734 -5.80277 2.34584 0
M  V30 4461 H 407.967 -2.37362 1.79016 0
M  V30 4462 H 405.5 -1.15755 1.02177 0
M  V30 4463 H 407.458 -4.10499 -0.00748752 0
M  V30 4464 H 406.119 -3.08693 -0.58032 0
M  V30 4465 H 405.312 -4.9611 0.888302 0
M  V30 4466 H 404.914 -3.3803 1.60037 0
M  V30 4467 H 407.206 -6.54873 1.73633 0
M  V30 4468 H 408.149 -6.29651 3.23952 0
M  V30 4469 H 408.557 -5.3599 1.77131 0
M  V30 4470 N 407.956 -0.998596 -1.21925 0
M  V30 4471 C 409.204 -0.676325 -1.90448 0
M  V30 4472 C 409.525 0.794719 -1.78071 0
M  V30 4473 O 408.795 1.5701 -1.17152 0
M  V30 4474 H 407.375 -0.247165 -0.704925 0
M  V30 4475 H 410.037 -1.26633 -1.48156 0
M  V30 4476 H 409.133 -0.943858 -2.97486 0
M  V30 4477 N 409.434 1.37368 -0.772513 0
M  V30 4478 C 410.364 2.32856 -0.173304 0
M  V30 4479 C 411.345 1.55818 0.682262 0
M  V30 4480 O 412.53 1.84052 0.619566 0
M  V30 4481 C 409.66 3.40048 0.706007 0
M  V30 4482 C 408.614 4.27973 -0.0483144 0
M  V30 4483 C 407.94 5.26184 0.950491 0
M  V30 4484 C 409.24 5.07665 -1.22776 0
M  V30 4485 H 410.934 2.83217 -0.971002 0
M  V30 4486 H 408.48 1.3617 -0.468377 0
M  V30 4487 H 410.433 4.05827 1.13501 0
M  V30 4488 H 409.157 2.88214 1.53623 0
M  V30 4489 H 407.816 3.63726 -0.458107 0
M  V30 4490 H 407.464 4.7063 1.77529 0
M  V30 4491 H 407.164 5.85872 0.450314 0
M  V30 4492 H 408.688 5.94838 1.37842 0
M  V30 4493 H 410.102 5.66578 -0.875366 0
M  V30 4494 H 408.499 5.76681 -1.66007 0
M  V30 4495 H 409.569 4.40294 -2.03149 0
M  V30 4496 N 410.912 0.523116 1.48665 0
M  V30 4497 C 411.844 -0.280421 2.27478 0
M  V30 4498 C 412.857 -0.910694 1.34945 0
M  V30 4499 O 414.046 -0.790295 1.60052 0
M  V30 4500 C 411.146 -1.41171 3.08097 0
M  V30 4501 C 410.319 -0.884642 4.28361 0
M  V30 4502 C 409.378 -1.89622 4.90846 0
M  V30 4503 O 408.404 -1.4559 5.50265 0
M  V30 4504 N 409.606 -3.22801 4.82472 0
M  V30 4505 H 412.371 0.395481 2.97079 0
M  V30 4506 H 409.932 0.357018 1.57915 0
M  V30 4507 H 411.924 -2.08645 3.4677 0
M  V30 4508 H 410.494 -1.99139 2.40961 0
M  V30 4509 H 409.714 -0.0341177 3.94185 0
M  V30 4510 H 411.002 -0.511268 5.06225 0
M  V30 4511 H 410.4 -3.61246 4.35336 0
M  V30 4512 H 408.957 -3.85927 5.25265 0
M  V30 4513 N 412.39 -1.55475 0.257931 0
M  V30 4514 C 413.639 -1.98383 -0.364275 0
M  V30 4515 C 413.952 -1.14952 -1.58258 0
M  V30 4516 O 415.158 -1.47924 -2.27664 0
M  V30 4517 C 413.614 -3.53037 -0.699479 0
M  V30 4518 C 413.222 -4.45223 0.498046 0
M  V30 4519 C 414.966 -4.04575 -1.28526 0
M  V30 4520 C 412.873 -5.91238 0.138383 0
M  V30 4521 H 411.803 -0.740911 -0.13988 0
M  V30 4522 H 414.454 -1.79936 0.359883 0
M  V30 4523 H 412.836 -3.6722 -1.48207 0
M  V30 4524 H 414.01 -4.42803 1.27522 0
M  V30 4525 H 412.325 -4.04226 0.999503 0
M  V30 4526 H 414.922 -5.11196 -1.56788 0
M  V30 4527 H 415.265 -3.5258 -2.21344 0
M  V30 4528 H 415.798 -3.93762 -0.565337 0
M  V30 4529 H 412.537 -6.47294 1.03398 0
M  V30 4530 H 412.057 -5.96768 -0.602374 0
M  V30 4531 H 413.736 -6.46413 -0.27553 0
M  V30 4532 N 413.868 0.0150385 -1.57593 0
M  V30 4533 C 415.098 0.713359 -1.93894 0
M  V30 4534 C 415.506 1.68663 -0.857289 0
M  V30 4535 O 414.849 1.82876 0.173788 0
M  V30 4536 C 414.911 1.51348 -3.26089 0
M  V30 4537 C 414.575 0.703451 -4.51554 0
M  V30 4538 C 415.572 -0.00237924 -5.199 0
M  V30 4539 C 413.257 0.653854 -4.98026 0
M  V30 4540 C 415.251 -0.746955 -6.33008 0
M  V30 4541 C 412.938 -0.0944578 -6.11027 0
M  V30 4542 C 413.936 -0.793609 -6.78374 0
M  V30 4543 O 413.624 -1.52974 -7.89211 0
M  V30 4544 H 413.356 0.204637 -0.644282 0
M  V30 4545 H 415.91 -0.0276411 -2.05381 0
M  V30 4546 H 414.14 2.29862 -3.10967 0
M  V30 4547 H 415.829 2.09572 -3.47612 0
M  V30 4548 H 416.595 0.0268803 -4.84993 0
M  V30 4549 H 412.474 1.18756 -4.45441 0
M  V30 4550 H 416.018 -1.2932 -6.85509 0
M  V30 4551 H 411.915 -0.125591 -6.45378 0
M  V30 4552 H 412.683 -1.44488 -8.05646 0
M  V30 4553 N 415.346 1.54954 0.287554 0
M  V30 4554 C 416.279 1.81737 1.3801 0
M  V30 4555 C 417.257 0.669412 1.48181 0
M  V30 4556 O 418.441 0.910839 1.65033 0
M  V30 4557 C 415.568 1.96606 2.75796 0
M  V30 4558 C 414.614 3.19098 2.82982 0
M  V30 4559 S 415.447 4.7683 2.43707 0
M  V30 4560 C 416.603 4.94653 3.83496 0
M  V30 4561 H 416.836 2.74122 1.15085 0
M  V30 4562 H 414.369 1.46538 0.486403 0
M  V30 4563 H 416.327 2.05858 3.55152 0
M  V30 4564 H 414.988 1.05136 2.95982 0
M  V30 4565 H 414.181 3.26344 3.84077 0
M  V30 4566 H 413.783 3.08361 2.11635 0
M  V30 4567 H 416.075 4.79502 4.78628 0
M  V30 4568 H 417.018 5.96728 3.8121 0
M  V30 4569 H 417.426 4.2272 3.74123 0
M  V30 4570 N 416.824 -0.551391 1.4764 0
M  V30 4571 C 418.072 -1.30572 1.54258 0
M  V30 4572 C 418.393 -1.93877 0.208963 0
M  V30 4573 O 417.663 -1.80234 -0.767619 0
M  V30 4574 H 416.243 -0.484894 0.568231 0
M  V30 4575 H 418.905 -0.643402 1.83974 0
M  V30 4576 H 418.001 -2.09621 2.31226 0
M  V30 4577 N 418.302 -1.35869 -0.798587 0
M  V30 4578 C 419.548 -1.2978 -1.55836 0
M  V30 4579 C 419.881 0.125322 -1.93795 0
M  V30 4580 O 419.156 1.07658 -1.61987 0
M  V30 4581 C 419.439 -2.21188 -2.84162 0
M  V30 4582 C 419.292 -3.72155 -2.52628 0
M  V30 4583 C 420.611 -2.11545 -3.85923 0
M  V30 4584 H 417.73 -0.472769 -0.565383 0
M  V30 4585 H 420.372 -1.66341 -0.918192 0
M  V30 4586 H 418.522 -1.90139 -3.38791 0
M  V30 4587 H 420.194 -4.13682 -2.04121 0
M  V30 4588 H 418.437 -3.92042 -1.85704 0
M  V30 4589 H 419.108 -4.31511 -3.44242 0
M  V30 4590 H 421.584 -2.38855 -3.40716 0
M  V30 4591 H 420.46 -2.77688 -4.73477 0
M  V30 4592 H 420.721 -1.09987 -4.282 0
M  V30 4593 N 419.78 1.02168 -1.19998 0
M  V30 4594 C 420.71 2.12488 -0.96804 0
M  V30 4595 C 421.691 1.69799 0.101185 0
M  V30 4596 O 422.876 1.94121 -0.0552993 0
M  V30 4597 C 420.006 3.43479 -0.513776 0
M  V30 4598 C 418.96 3.99884 -1.52566 0
M  V30 4599 C 418.286 5.26582 -0.928214 0
M  V30 4600 C 419.586 4.33861 -2.90795 0
M  V30 4601 H 421.28 2.32149 -1.89069 0
M  V30 4602 H 418.826 1.11564 -0.910468 0
M  V30 4603 H 420.779 4.20036 -0.338774 0
M  V30 4604 H 419.503 3.23561 0.444493 0
M  V30 4605 H 418.162 3.25429 -1.68794 0
M  V30 4606 H 417.81 5.02986 0.0378289 0
M  V30 4607 H 417.51 5.65284 -1.60397 0
M  V30 4608 H 419.034 6.05799 -0.764167 0
M  V30 4609 H 420.448 5.01327 -2.78109 0
M  V30 4610 H 418.845 4.83664 -3.55231 0
M  V30 4611 H 419.915 3.42848 -3.42904 0
M  V30 4612 N 421.258 1.00505 1.21394 0
M  V30 4613 C 422.486 0.706609 1.9446 0
M  V30 4614 C 422.901 -0.73081 1.74082 0
M  V30 4615 O 422.258 -1.49446 1.04747 0
M  V30 4616 C 422.309 1.01824 3.46863 0
M  V30 4617 O 422.03 2.39919 3.66566 0
M  V30 4618 C 423.531 0.739216 4.37093 0
M  V30 4619 H 420.751 0.260394 0.618414 0
M  V30 4620 H 423.295 1.34311 1.54211 0
M  V30 4621 H 421.45 0.427343 3.85036 0
M  V30 4622 H 421.864 2.50784 4.6066 0
M  V30 4623 H 423.338 1.00744 5.42729 0
M  V30 4624 H 423.815 -0.326746 4.37983 0
M  V30 4625 H 424.421 1.31173 4.04566 0
M  V30 4626 N 422.737 -1.36956 0.779787 0
M  V30 4627 C 423.669 -2.28833 0.129639 0
M  V30 4628 C 424.682 -1.4902 -0.655511 0
M  V30 4629 O 425.871 -1.71578 -0.492279 0
M  V30 4630 C 422.971 -3.2833 -0.839792 0
M  V30 4631 C 422.144 -4.3727 -0.10675 0
M  V30 4632 C 421.203 -5.16789 -0.990717 0
M  V30 4633 O 420.229 -5.67406 -0.451516 0
M  V30 4634 N 421.431 -5.32294 -2.3161 0
M  V30 4635 H 424.196 -2.85268 0.918803 0
M  V30 4636 H 421.757 -1.49019 0.632841 0
M  V30 4637 H 423.749 -3.78413 -1.43477 0
M  V30 4638 H 422.319 -2.72605 -1.52988 0
M  V30 4639 H 421.539 -3.88478 0.669216 0
M  V30 4640 H 422.827 -5.07229 0.399464 0
M  V30 4641 H 422.225 -4.92768 -2.77843 0
M  V30 4642 H 420.782 -5.85656 -2.86095 0
M  V30 4643 N 424.215 -0.530993 -1.48385 0
M  V30 4644 C 425.162 0.231223 -2.29639 0
M  V30 4645 C 426.132 0.932864 -1.37429 0
M  V30 4646 O 427.317 0.933692 -1.66394 0
M  V30 4647 C 424.457 1.27155 -3.2082 0
M  V30 4648 C 423.57 0.578655 -4.28107 0
M  V30 4649 C 422.705 1.602 -5.06467 0
M  V30 4650 C 421.744 0.892625 -6.05556 0
M  V30 4651 N 420.881 1.86157 -6.76971 0
M  V30 4652 H 425.721 -0.467848 -2.94305 0
M  V30 4653 H 423.258 -0.242556 -1.45086 0
M  V30 4654 H 425.216 1.88703 -3.72085 0
M  V30 4655 H 423.846 1.939 -2.58075 0
M  V30 4656 H 422.898 -0.150782 -3.80101 0
M  V30 4657 H 424.21 0.0217065 -4.98795 0
M  V30 4658 H 423.364 2.29173 -5.61751 0
M  V30 4659 H 422.103 2.19285 -4.35621 0
M  V30 4660 H 421.108 0.188829 -5.49476 0
M  V30 4661 H 422.333 0.307878 -6.78402 0
M  V30 4662 H 420.279 2.44147 -6.08875 0
M  V30 4663 H 420.196 1.35608 -7.43738 0
M  V30 4664 H 421.464 2.54325 -7.36844 0
M  V30 4665 N 425.693 1.55336 -0.266172 0
M  V30 4666 C 426.933 2.01303 0.354459 0
M  V30 4667 C 427.297 1.15046 1.53715 0
M  V30 4668 O 428.498 1.50554 2.22681 0
M  V30 4669 C 426.769 3.49748 0.735579 0
M  V30 4670 S 428.328 4.1771 1.34401 0
M  V30 4671 H 425.146 0.702333 0.110674 0
M  V30 4672 H 427.748 1.91653 -0.385916 0
M  V30 4673 H 426.452 4.10181 -0.134196 0
M  V30 4674 H 425.983 3.63364 1.50764 0
M  V30 4675 H 427.998 4.20594 2.63278 0
M  V30 4676 N 427.171 -0.0066808 1.57599 0
M  V30 4677 C 428.42 -0.692078 1.89455 0
M  V30 4678 C 428.733 -1.75306 0.867586 0
M  V30 4679 O 429.939 -2.49262 1.07614 0
M  V30 4680 C 428.395 -1.2821 3.36289 0
M  V30 4681 C 428.003 -0.256291 4.47266 0
M  V30 4682 C 429.747 -1.94608 3.77264 0
M  V30 4683 C 427.654 -0.855927 5.85173 0
M  V30 4684 H 426.584 -0.262252 0.706923 0
M  V30 4685 H 429.235 0.052769 1.83424 0
M  V30 4686 H 427.617 -2.0774 3.37135 0
M  V30 4687 H 428.791 0.513923 4.57925 0
M  V30 4688 H 427.106 0.306862 4.15268 0
M  V30 4689 H 429.703 -2.40364 4.77629 0
M  V30 4690 H 430.046 -2.77382 3.10427 0
M  V30 4691 H 430.579 -1.21822 3.78688 0
M  V30 4692 H 427.318 -0.0671161 6.55466 0
M  V30 4693 H 426.838 -1.59546 5.78191 0
M  V30 4694 H 428.517 -1.35658 6.32618 0
M  V30 4695 N 428.649 -1.55105 -0.279332 0
M  V30 4696 C 430.065 -1.46803 -0.626187 0
M  V30 4697 C 430.265 -0.676939 -1.89789 0
M  V30 4698 O 429.321 -0.19326 -2.51759 0
M  V30 4699 C 430.634 -2.90962 -0.759034 0
M  V30 4700 C 432.182 -3.01138 -0.853504 0
M  V30 4701 C 432.657 -4.46539 -1.01818 0
M  V30 4702 N 434.148 -4.50341 -1.08386 0
M  V30 4703 C 434.883 -5.60053 -1.22996 0
M  V30 4704 N 434.379 -6.79645 -1.34366 0
M  V30 4705 N 436.172 -5.47783 -1.26056 0
M  V30 4706 H 428.323 -2.04996 0.555921 0
M  V30 4707 H 430.586 -0.929325 0.187239 0
M  V30 4708 H 430.292 -3.51544 0.104852 0
M  V30 4709 H 430.166 -3.39619 -1.64131 0
M  V30 4710 H 432.553 -2.40658 -1.70786 0
M  V30 4711 H 432.634 -2.55745 0.0532466 0
M  V30 4712 H 432.278 -5.0762 -0.168504 0
M  V30 4713 H 432.208 -4.89583 -1.93948 0
M  V30 4714 H 434.699 -3.64191 -1.00864 0
M  V30 4715 H 435.012 -7.59012 -1.4533 0
M  V30 4716 H 433.357 -6.82469 -1.31382 0
M  V30 4717 H 436.548 -4.53294 -1.168 0
M  V30 4718 H 436.721 -6.33331 -1.37098 0
M  V30 4719 N 430.127 0.543554 -1.4793 0
M  V30 4720 C 431.075 1.67039 -1.61866 0
M  V30 4721 C 432.069 1.62294 -0.48549 0
M  V30 4722 O 433.275 1.67315 -0.66376 0
M  V30 4723 H 429.65 0.552954 -0.509652 0
M  V30 4724 H 431.621 1.52426 -2.56533 0
M  V30 4725 C 430.37 3.05357 -1.6629 0
M  V30 4726 H 429.693 3.09696 -2.5284 0
M  V30 4727 H 431.133 3.83855 -1.80088 0
M  V30 4728 C 429.592 3.34531 -0.398861 0
M  V30 4729 O 430.122 3.98649 0.494162 0
M  V30 4730 N 428.328 2.89299 -0.2747 0
M  V30 4731 H 427.875 2.37298 -1.00236 0
M  V30 4732 H 427.833 3.09188 0.570075 0
M  V30 4733 N 431.605 1.3629 0.791371 0
M  V30 4734 C 432.852 1.30412 1.54916 0
M  V30 4735 C 433.18 -0.117162 1.94147 0
M  V30 4736 O 432.435 -1.08599 1.62803 0
M  V30 4737 C 432.734 2.17068 2.8393 0
M  V30 4738 C 432.4 3.65645 2.63846 0
M  V30 4739 C 431.062 4.0614 2.58077 0
M  V30 4740 C 433.414 4.59855 2.45322 0
M  V30 4741 C 430.742 5.3899 2.31748 0
M  V30 4742 C 433.094 5.9292 2.2052 0
M  V30 4743 C 431.758 6.32542 2.13183 0
M  V30 4744 H 431.028 0.47721 0.566879 0
M  V30 4745 H 433.675 1.68325 0.913172 0
M  V30 4746 H 431.98 1.72085 3.51986 0
M  V30 4747 H 433.677 2.09846 3.4171 0
M  V30 4748 H 430.267 3.33518 2.69191 0
M  V30 4749 H 434.451 4.29443 2.48782 0
M  V30 4750 H 429.707 5.68672 2.24548 0
M  V30 4751 H 433.881 6.65487 2.05182 0
M  V30 4752 H 431.508 7.35412 1.92544 0
M  V30 4753 N 433.083 -1.0153 1.20538 0
M  V30 4754 C 434.494 -1.56598 1.01657 0
M  V30 4755 C 434.845 -1.91505 -0.426668 0
M  V30 4756 O 433.97 -1.72375 -1.30827 0
M  V30 4757 C 434.565 -2.84542 1.83905 0
M  V30 4758 C 433.124 -3.36133 1.69386 0
M  V30 4759 C 432.271 -2.09427 1.81757 0
M  V30 4760 H 435.222 -0.838974 1.34711 0
M  V30 4761 H 435.243 -3.56004 1.34319 0
M  V30 4762 H 434.755 -2.59105 2.8894 0
M  V30 4763 H 432.856 -3.66528 0.669933 0
M  V30 4764 H 432.969 -4.08248 2.50739 0
M  V30 4765 H 431.333 -2.21941 1.24957 0
M  V30 4766 H 432.116 -1.86414 2.88279 0
M  V30 4767 N 434.561 -1.01147 -1.20859 0
M  V30 4768 C 435.494 -0.522108 -2.22147 0
M  V30 4769 C 436.472 0.427686 -1.56874 0
M  V30 4770 O 437.656 0.34889 -1.85243 0
M  V30 4771 C 434.783 0.240819 -3.37843 0
M  V30 4772 C 433.829 -0.657752 -4.21398 0
M  V30 4773 S 434.662 -2.12393 -4.91578 0
M  V30 4774 C 435.818 -1.37102 -6.10699 0
M  V30 4775 H 436.051 -1.38035 -2.63313 0
M  V30 4776 H 433.584 -0.819941 -1.30829 0
M  V30 4777 H 435.542 0.674908 -4.04914 0
M  V30 4778 H 434.203 1.07457 -2.95147 0
M  V30 4779 H 433.396 -0.0697456 -5.03952 0
M  V30 4780 H 432.998 -1.0294 -3.59555 0
M  V30 4781 H 435.29 -0.648315 -6.74391 0
M  V30 4782 H 436.233 -2.17252 -6.73949 0
M  V30 4783 H 436.641 -0.876154 -5.57659 0
M  V30 4784 N 436.039 1.36541 -0.78704 0
M  V30 4785 C 437.316 1.9355 -0.282424 0
M  V30 4786 C 437.696 1.71919 1.22503 0
M  V30 4787 O 437.044 1.07677 2.01539 0
M  V30 4788 C 437.254 3.4246 -0.672462 0
M  V30 4789 C 438.602 4.19582 -0.650863 0
M  V30 4790 O 439.626 3.50889 -0.612789 0
M  V30 4791 O 438.485 5.42106 -0.691623 0
M  V30 4792 H 435.579 0.824091 -0.0693 0
M  V30 4793 H 438.125 1.45736 -0.869423 0
M  V30 4794 H 436.897 3.51851 -1.71221 0
M  V30 4795 H 436.52 3.97556 -0.0592211 0
M  V30 4796 N 437.518 0.538854 1.48102 0
M  V30 4797 C 438.766 0.00798599 2.02098 0
M  V30 4798 C 439.087 -1.33922 1.41739 0
M  V30 4799 O 438.357 -1.86932 0.585934 0
M  V30 4800 H 436.937 -3.62179e-05 0.747 0
M  V30 4801 H 439.599 0.7047 1.81714 0
M  V30 4802 H 438.695 -0.0937672 3.11959 0
M  V30 4803 N 438.996 -1.55193 0.274407 0
M  V30 4804 C 440.221 -2.04446 -0.348824 0
M  V30 4805 C 440.646 -1.15149 -1.48735 0
M  V30 4806 O 440.004 -0.149952 -1.80679 0
M  V30 4807 C 440.052 -3.51431 -0.808009 0
M  V30 4808 O 439.156 -3.65225 -1.91531 0
M  V30 4809 H 438.497 -0.66006 -0.0722276 0
M  V30 4810 H 441.027 -2.00481 0.408498 0
M  V30 4811 H 441.037 -3.92781 -1.10395 0
M  V30 4812 H 439.712 -4.15892 0.0249865 0
M  V30 4813 H 438.289 -3.35778 -1.62196 0
M  V30 4814 N 440.474 -0.00167713 -1.576 0
M  V30 4815 C 441.72 0.683832 -1.90923 0
M  V30 4816 C 442.053 1.7333 -0.875799 0
M  V30 4817 O 441.328 1.94215 0.10525 0
M  V30 4818 C 441.611 1.32543 -3.3482 0
M  V30 4819 C 441.464 0.287387 -4.48881 0
M  V30 4820 C 442.783 2.25114 -3.78169 0
M  V30 4821 H 439.902 0.247125 -0.694333 0
M  V30 4822 H 442.544 -0.0533149 -1.89925 0
M  V30 4823 H 440.694 1.95372 -3.35801 0
M  V30 4824 H 442.366 -0.341346 -4.60035 0
M  V30 4825 H 440.609 -0.39017 -4.32042 0
M  V30 4826 H 441.28 0.775393 -5.46527 0
M  V30 4827 H 443.756 1.723 -3.7875 0
M  V30 4828 H 442.632 2.66971 -4.79602 0
M  V30 4829 H 442.893 3.13092 -3.12131 0
M  V30 4830 N 441.952 1.55251 0.271103 0
M  V30 4831 C 443.2 1.75599 1.00047 0
M  V30 4832 C 443.521 0.561188 1.8675 0
M  V30 4833 O 442.791 -0.423846 1.9126 0
M  V30 4834 H 441.371 0.647562 0.372387 0
M  V30 4835 H 444.033 1.92656 0.294876 0
M  V30 4836 H 443.129 2.65766 1.6363 0
M  V30 4837 N 443.43 -0.535701 1.48216 0
M  V30 4838 C 444.378 -1.66179 1.62749 0
M  V30 4839 C 445.372 -1.62034 0.49409 0
M  V30 4840 O 446.578 -1.6696 0.672624 0
M  V30 4841 H 442.953 -0.550244 0.512578 0
M  V30 4842 H 444.924 -1.51063 2.57337 0
M  V30 4843 C 443.673 -3.04471 1.67907 0
M  V30 4844 H 442.996 -3.08351 2.54479 0
M  V30 4845 H 444.436 -3.82894 1.82121 0
M  V30 4846 C 442.895 -3.34314 0.416596 0
M  V30 4847 O 443.425 -3.98905 -0.473014 0
M  V30 4848 N 441.631 -2.89149 0.290038 0
M  V30 4849 H 441.178 -2.36764 1.01493 0
M  V30 4850 H 441.136 -3.09486 -0.55367 0
M  V30 4851 N 444.908 -1.36708 -0.784132 0
M  V30 4852 C 445.838 -1.34153 -1.91116 0
M  V30 4853 C 446.819 -0.212121 -1.68772 0
M  V30 4854 O 448.004 -0.410581 -1.8981 0
M  V30 4855 C 445.134 -1.13535 -3.28218 0
M  V30 4856 C 444.088 -2.23356 -3.65097 0
M  V30 4857 C 443.414 -1.87875 -5.00607 0
M  V30 4858 C 444.714 -3.65473 -3.73131 0
M  V30 4859 H 446.408 -2.28459 -1.93512 0
M  V30 4860 H 443.954 -1.09973 -0.929618 0
M  V30 4861 H 445.907 -1.10381 -4.06687 0
M  V30 4862 H 444.631 -0.156804 -3.26223 0
M  V30 4863 H 443.29 -2.25645 -2.88929 0
M  V30 4864 H 442.938 -0.885814 -4.95139 0
M  V30 4865 H 442.638 -2.61406 -5.26252 0
M  V30 4866 H 444.162 -1.86286 -5.81489 0
M  V30 4867 H 445.576 -3.65382 -4.41779 0
M  V30 4868 H 443.973 -4.37953 -4.10265 0
M  V30 4869 H 445.043 -3.99995 -2.74102 0
M  V30 4870 N 446.386 1.0089 -1.21074 0
M  V30 4871 C 447.614 1.78191 -1.05145 0
M  V30 4872 C 448.029 1.84537 0.398952 0
M  V30 4873 O 447.386 1.30393 1.27687 0
M  V30 4874 C 447.437 3.22288 -1.63746 0
M  V30 4875 O 447.158 3.16315 -3.03111 0
M  V30 4876 C 448.659 4.16106 -1.52875 0
M  V30 4877 H 445.879 0.560129 -0.369454 0
M  V30 4878 H 448.423 1.26945 -1.60328 0
M  V30 4879 H 446.578 3.70655 -1.12664 0
M  V30 4880 H 446.992 4.06817 -3.31059 0
M  V30 4881 H 448.466 5.15026 -1.98626 0
M  V30 4882 H 448.943 4.36541 -0.482521 0
M  V30 4883 H 449.549 3.73625 -2.03185 0
M  V30 4884 N 447.864 1.01787 1.20321 0
M  V30 4885 C 449.141 0.622978 1.85414 0
M  V30 4886 C 449.521 -0.898887 1.91006 0
M  V30 4887 O 448.869 -1.79112 1.41884 0
M  V30 4888 C 449.079 1.27226 3.24984 0
M  V30 4889 C 450.427 1.3885 4.01255 0
M  V30 4890 O 451.451 1.22857 3.34342 0
M  V30 4891 O 450.31 1.64705 5.2109 0
M  V30 4892 H 447.404 0.215116 0.798533 0
M  V30 4893 H 449.95 1.11533 1.27901 0
M  V30 4894 H 448.722 2.31209 3.15687 0
M  V30 4895 H 448.345 0.767069 3.90131 0
M  V30 4896 N 449.342 -1.36122 0.79427 0
M  V30 4897 C 450.252 -2.33769 0.197296 0
M  V30 4898 C 451.268 -1.61276 -0.653153 0
M  V30 4899 O 452.444 -1.9323 -0.5678 0
M  V30 4900 C 449.509 -3.40474 -0.654098 0
M  V30 4901 C 448.57 -4.28759 0.215411 0
M  V30 4902 C 447.803 -5.30368 -0.595443 0
M  V30 4903 O 448.026 -5.40211 -1.83107 0
M  V30 4904 O 446.96 -6.019 0.00721351 0
M  V30 4905 H 450.786 -2.86597 1.00478 0
M  V30 4906 H 448.371 -1.38676 0.555818 0
M  V30 4907 H 450.253 -4.05703 -1.13944 0
M  V30 4908 H 448.928 -2.89937 -1.43938 0
M  V30 4909 H 447.835 -3.66554 0.747615 0
M  V30 4910 H 449.168 -4.82661 0.964332 0
M  V30 4911 N 450.82 -0.546701 -1.47814 0
M  V30 4912 C 451.768 0.220048 -2.31557 0
M  V30 4913 C 452.762 0.919472 -1.42275 0
M  V30 4914 O 453.968 0.841953 -1.59095 0
M  V30 4915 H 450.343 0.0898334 -0.746615 0
M  V30 4916 H 452.314 -0.505589 -2.94086 0
M  V30 4917 C 451.063 1.24353 -3.24702 0
M  V30 4918 H 450.386 0.714758 -3.93359 0
M  V30 4919 H 451.826 1.75112 -3.8615 0
M  V30 4920 C 450.285 2.28593 -2.47481 0
M  V30 4921 O 450.815 3.35334 -2.21165 0
M  V30 4922 N 449.021 2.02244 -2.08676 0
M  V30 4923 H 448.568 1.15455 -2.30278 0
M  V30 4924 H 448.526 2.72207 -1.57323 0
M  V30 4925 N 452.299 1.55045 -0.282633 0
M  V30 4926 C 453.545 2.0078 0.325436 0
M  V30 4927 C 453.9 1.1676 1.52921 0
M  V30 4928 O 453.193 0.231475 1.90197 0
M  V30 4929 C 453.387 3.49422 0.750938 0
M  V30 4930 C 453.216 4.47827 -0.410056 0
M  V30 4931 C 451.986 4.97288 -0.896239 0
M  V30 4932 C 454.184 4.98903 -1.24902 0
M  V30 4933 N 452.166 5.79508 -2.02591 0
M  V30 4934 C 453.537 5.78644 -2.22646 0
M  V30 4935 C 455.592 4.81126 -1.2815 0
M  V30 4936 C 454.295 6.42502 -3.23393 0
M  V30 4937 C 456.321 5.45789 -2.27745 0
M  V30 4938 C 455.683 6.25348 -3.24222 0
M  V30 4939 H 451.782 0.77747 0.08405 0
M  V30 4940 H 454.366 1.90369 -0.408368 0
M  V30 4941 H 452.537 3.60159 1.45395 0
M  V30 4942 H 454.269 3.81978 1.33698 0
M  V30 4943 H 451.024 4.71219 -0.474277 0
M  V30 4944 H 451.448 6.25308 -2.59459 0
M  V30 4945 H 456.09 4.19215 -0.549397 0
M  V30 4946 H 453.808 7.03558 -3.97533 0
M  V30 4947 H 457.394 5.33972 -2.31009 0
M  V30 4948 H 456.274 6.74498 -4.00027 0
M  V30 4949 N 453.777 0.010035 1.57597 0
M  V30 4950 C 454.724 -0.978122 2.09049 0
M  V30 4951 C 455.694 -1.33509 0.988159 0
M  V30 4952 O 456.879 -1.43172 1.26121 0
M  V30 4953 C 454.019 -2.26158 2.60666 0
M  V30 4954 C 453.132 -1.96275 3.84838 0
M  V30 4955 C 452.267 -3.18776 4.24918 0
M  V30 4956 C 451.306 -2.84625 5.41899 0
M  V30 4957 N 450.443 -3.99693 5.77226 0
M  V30 4958 H 455.283 -0.532431 2.93205 0
M  V30 4959 H 452.82 -0.251234 1.44939 0
M  V30 4960 H 454.778 -3.01202 2.88675 0
M  V30 4961 H 453.408 -2.68378 1.79369 0
M  V30 4962 H 452.46 -1.11555 3.63675 0
M  V30 4963 H 453.772 -1.67111 4.69974 0
M  V30 4964 H 452.926 -4.02157 4.54262 0
M  V30 4965 H 451.665 -3.51087 3.38511 0
M  V30 4966 H 450.67 -1.99653 5.12268 0
M  V30 4967 H 451.895 -2.53551 6.29991 0
M  V30 4968 H 449.841 -4.31882 4.93776 0
M  V30 4969 H 449.758 -3.74087 6.56959 0
M  V30 4970 H 451.026 -4.83834 6.11167 0
M  V30 4971 N 455.255 -1.55392 -0.262866 0
M  V30 4972 C 456.187 -1.85392 -1.34768 0
M  V30 4973 C 457.2 -0.739069 -1.45057 0
M  V30 4974 O 458.389 -1.01703 -1.46693 0
M  V30 4975 C 455.489 -2.01088 -2.72795 0
M  V30 4976 C 454.662 -3.31828 -2.84972 0
M  V30 4977 C 453.721 -3.37464 -4.03738 0
M  V30 4978 O 452.747 -4.10778 -3.94018 0
M  V30 4979 N 453.949 -2.65599 -5.16176 0
M  V30 4980 H 456.714 -2.79029 -1.09375 0
M  V30 4981 H 454.275 -1.55434 -0.452981 0
M  V30 4982 H 456.267 -2.02217 -3.50557 0
M  V30 4983 H 454.837 -1.1427 -2.90966 0
M  V30 4984 H 454.057 -3.43152 -1.94012 0
M  V30 4985 H 455.345 -4.18032 -2.90045 0
M  V30 4986 H 454.743 -2.05736 -5.26962 0
M  V30 4987 H 453.3 -2.72439 -5.92132 0
M  V30 4988 N 456.733 0.527833 -1.48498 0
M  V30 4989 C 457.98 1.28354 -1.56625 0
M  V30 4990 C 458.308 1.93 -0.241096 0
M  V30 4991 O 457.563 1.79967 0.768798 0
M  V30 4992 C 457.862 2.39275 -2.65485 0
M  V30 4993 C 457.528 1.92268 -4.07853 0
M  V30 4994 C 456.19 1.79166 -4.46602 0
M  V30 4995 C 458.542 1.56771 -4.97064 0
M  V30 4996 C 455.87 1.28905 -5.72364 0
M  V30 4997 C 458.222 1.07972 -6.23318 0
M  V30 4998 C 456.886 0.934887 -6.60921 0
M  V30 4999 H 456.156 0.469682 -0.573131 0
M  V30 5000 H 458.803 0.588781 -1.82224 0
M  V30 5001 H 457.108 3.1443 -2.33754 0
M  V30 5002 H 458.805 2.974 -2.68988 0
M  V30 5003 H 455.395 2.03417 -3.77252 0
M  V30 5004 H 459.579 1.65753 -4.67803 0
M  V30 5005 H 454.835 1.16381 -6.00221 0
M  V30 5006 H 459.009 0.795775 -6.91838 0
M  V30 5007 H 456.636 0.543231 -7.58257 0
M  V30 5008 N 458.211 1.37122 0.776871 0
M  V30 5009 C 459.451 1.33441 1.54831 0
M  V30 5010 C 459.815 -0.0818963 1.91825 0
M  V30 5011 O 461.016 -0.24338 2.67696 0
M  V30 5012 C 459.287 2.24267 2.78279 0
M  V30 5013 S 460.846 2.38389 3.68397 0
M  V30 5014 H 457.664 0.473791 0.530135 0
M  V30 5015 H 460.266 1.7282 0.913968 0
M  V30 5016 H 458.97 3.261 2.49173 0
M  V30 5017 H 458.501 1.85953 3.46677 0
M  V30 5018 H 460.516 1.59068 4.70013 0
M  V30 5019 N 459.689 -1.00246 1.21608 0
M  V30 5020 C 460.599 -2.12515 0.993709 0
M  V30 5021 C 461.615 -1.73913 -0.0549939 0
M  V30 5022 O 462.791 -2.00943 0.135619 0
M  V30 5023 C 459.856 -3.42083 0.563953 0
M  V30 5024 C 458.917 -3.94843 1.68516 0
M  V30 5025 C 458.15 -5.18226 1.27582 0
M  V30 5026 O 458.373 -5.70201 0.150506 0
M  V30 5027 O 457.307 -5.64497 2.0887 0
M  V30 5028 H 461.133 -2.34152 1.93407 0
M  V30 5029 H 458.718 -1.10891 1.00118 0
M  V30 5030 H 460.6 -4.20073 0.334194 0
M  V30 5031 H 459.275 -3.21828 -0.347665 0
M  V30 5032 H 458.182 -3.18068 1.96935 0
M  V30 5033 H 459.515 -4.19512 2.5743 0
M  V30 5034 N 461.167 -1.02423 -1.1978 0
M  V30 5035 C 462.115 -0.594474 -2.24875 0
M  V30 5036 C 463.109 0.370598 -1.65296 0
M  V30 5037 O 464.315 0.239684 -1.78397 0
M  V30 5038 H 460.69 -0.173961 -0.731602 0
M  V30 5039 H 462.661 -1.4916 -2.58445 0
M  V30 5040 C 461.41 0.0436512 -3.47673 0
M  V30 5041 H 460.733 -0.689963 -3.93801 0
M  V30 5042 H 462.173 0.307362 -4.22884 0
M  V30 5043 C 460.632 1.28881 -3.11274 0
M  V30 5044 O 461.162 2.38135 -3.23503 0
M  V30 5045 N 459.368 1.1758 -2.6575 0
M  V30 5046 H 458.915 0.286769 -2.55999 0
M  V30 5047 H 458.873 2.00988 -2.41767 0
M  V30 5048 N 462.645 1.35699 -0.801477 0
M  V30 5049 C 463.873 2.03157 -0.391768 0
M  V30 5050 C 464.288 1.60412 0.995668 0
M  V30 5051 O 463.645 0.799228 1.64069 0
M  V30 5052 C 463.696 3.58566 -0.459671 0
M  V30 5053 O 463.417 3.99756 -1.7924 0
M  V30 5054 C 464.918 4.4328 -0.0421205 0
M  V30 5055 H 462.138 0.651688 -0.159825 0
M  V30 5056 H 464.682 1.73426 -1.08368 0
M  V30 5057 H 462.837 3.86963 0.183939 0
M  V30 5058 H 463.251 4.94387 -1.75162 0
M  V30 5059 H 464.725 5.51821 -0.140754 0
M  V30 5060 H 465.202 4.27383 1.01196 0
M  V30 5061 H 465.808 4.20168 -0.658687 0
M  V30 5062 N 464.123 0.554532 1.47522 0
M  V30 5063 C 465.348 0.0322661 2.07375 0
M  V30 5064 C 465.773 -1.25079 1.40488 0
M  V30 5065 O 465.131 -1.74859 0.47896 0
M  V30 5066 C 465.179 -0.149397 3.6029 0
M  V30 5067 O 464.283 -1.21259 3.9417 0
M  V30 5068 H 463.624 0.0501228 0.662106 0
M  V30 5069 H 466.154 0.769452 1.8958 0
M  V30 5070 H 466.164 -0.364437 4.06369 0
M  V30 5071 H 464.839 0.787743 4.08372 0
M  V30 5072 H 463.416 -0.97825 3.5984 0
M  V30 5073 N 465.601 -1.54893 0.290851 0
M  V30 5074 C 466.549 -2.24579 -0.605576 0
M  V30 5075 C 467.543 -1.24824 -1.14522 0
M  V30 5076 O 468.749 -1.42706 -1.09704 0
M  V30 5077 H 465.124 -0.720946 -0.213872 0
M  V30 5078 H 467.095 -2.984 0.0048173 0
M  V30 5079 C 465.844 -2.99224 -1.77088 0
M  V30 5080 H 465.167 -3.75782 -1.36484 0
M  V30 5081 H 466.607 -3.51281 -2.3744 0
M  V30 5082 C 465.066 -2.05602 -2.66888 0
M  V30 5083 O 465.596 -1.61745 -3.67698 0
M  V30 5084 N 463.802 -1.71771 -2.34399 0
M  V30 5085 H 463.349 -2.07633 -1.52468 0
M  V30 5086 H 463.307 -1.09403 -2.94751 0
M  V30 5087 N 467.08 -0.0183926 -1.57589 0
M  V30 5088 C 468.326 0.657813 -1.92469 0
M  V30 5089 C 468.681 1.70349 -0.894375 0
M  V30 5090 O 467.974 1.91384 0.0910389 0
M  V30 5091 C 468.168 1.32676 -3.31861 0
M  V30 5092 C 467.997 0.347403 -4.48356 0
M  V30 5093 C 466.767 -0.0488653 -5.05276 0
M  V30 5094 C 468.965 -0.393931 -5.12789 0
M  V30 5095 N 466.947 -1.02451 -6.05291 0
M  V30 5096 C 468.318 -1.22367 -6.07804 0
M  V30 5097 C 470.373 -0.455789 -4.95809 0
M  V30 5098 C 469.076 -2.10966 -6.87667 0
M  V30 5099 C 471.102 -1.32908 -5.76272 0
M  V30 5100 C 470.464 -2.14662 -6.70894 0
M  V30 5101 H 466.563 0.21335 -0.752334 0
M  V30 5102 H 469.147 -0.0830547 -1.94523 0
M  V30 5103 H 467.318 2.03782 -3.30647 0
M  V30 5104 H 469.05 1.95913 -3.54119 0
M  V30 5105 H 465.805 0.323356 -4.72495 0
M  V30 5106 H 466.229 -1.50826 -6.59985 0
M  V30 5107 H 470.871 0.162017 -4.22489 0
M  V30 5108 H 468.589 -2.73807 -7.603 0
M  V30 5109 H 472.175 -1.38109 -5.6517 0
M  V30 5110 H 471.055 -2.81143 -7.32071 0
M  V30 5111 N 468.558 1.5553 0.254621 0
M  V30 5112 C 469.488 1.9268 1.31897 0
M  V30 5113 C 470.469 0.790797 1.506 0
M  V30 5114 O 471.654 1.05045 1.63337 0
M  V30 5115 C 468.784 2.21477 2.67517 0
M  V30 5116 C 467.738 3.37256 2.63519 0
M  V30 5117 C 467.064 3.51576 4.02862 0
M  V30 5118 C 468.364 4.73157 2.21179 0
M  V30 5119 H 470.058 2.81832 1.01051 0
M  V30 5120 H 467.604 1.35599 0.484662 0
M  V30 5121 H 469.557 2.46055 3.42104 0
M  V30 5122 H 468.281 1.29144 2.99982 0
M  V30 5123 H 466.94 3.12675 1.9139 0
M  V30 5124 H 466.588 2.56676 4.32581 0
M  V30 5125 H 466.288 4.2943 4.01078 0
M  V30 5126 H 467.812 3.78467 4.79161 0
M  V30 5127 H 469.226 4.97158 2.85494 0
M  V30 5128 H 467.623 5.54058 2.30521 0
M  V30 5129 H 468.693 4.70739 1.16332 0
M  V30 5130 N 470.036 -0.519951 1.48776 0
M  V30 5131 C 471.283 -1.27522 1.57303 0
M  V30 5132 C 471.611 -1.92869 0.251328 0
M  V30 5133 O 470.866 -1.80372 -0.759243 0
M  V30 5134 C 471.165 -2.37864 2.6675 0
M  V30 5135 C 470.831 -1.90103 4.08867 0
M  V30 5136 C 469.493 -1.76795 4.47546 0
M  V30 5137 C 471.845 -1.54133 4.97888 0
M  V30 5138 C 469.173 -1.25868 5.73039 0
M  V30 5139 C 471.525 -1.04665 6.23881 0
M  V30 5140 C 470.189 -0.899823 6.61407 0
M  V30 5141 H 469.459 -0.466636 0.575614 0
M  V30 5142 H 472.106 -0.579109 1.82534 0
M  V30 5143 H 470.411 -3.13186 2.35418 0
M  V30 5144 H 472.108 -2.95969 2.70561 0
M  V30 5145 H 468.698 -2.01414 3.78326 0
M  V30 5146 H 472.882 -1.6327 4.68675 0
M  V30 5147 H 468.138 -1.13196 6.0083 0
M  V30 5148 H 472.312 -0.759074 6.92251 0
M  V30 5149 H 469.939 -0.503011 7.58534 0
M  V30 5150 N 471.514 -1.37532 -0.769588 0
M  V30 5151 C 472.462 -1.33561 -1.90432 0
M  V30 5152 C 473.456 -0.224027 -1.67912 0
M  V30 5153 O 474.662 -0.392174 -1.75676 0
M  V30 5154 H 471.037 -0.416279 -0.626271 0
M  V30 5155 H 473.008 -2.29348 -1.90899 0
M  V30 5156 C 471.757 -1.16162 -3.27722 0
M  V30 5157 H 471.08 -2.00951 -3.45628 0
M  V30 5158 H 472.52 -1.17434 -4.07413 0
M  V30 5159 C 470.979 0.132583 -3.36639 0
M  V30 5160 O 471.509 1.11539 -3.85904 0
M  V30 5161 N 469.715 0.184013 -2.90017 0
M  V30 5162 H 469.262 -0.616415 -2.50116 0
M  V30 5163 H 469.22 1.04956 -2.96364 0
M  V30 5164 N 472.992 0.995999 -1.22138 0
M  V30 5165 C 473.902 2.11985 -1.00496 0
M  V30 5166 C 474.918 1.7394 0.0457701 0
M  V30 5167 O 476.094 2.00868 -0.146273 0
M  V30 5168 C 473.159 3.41779 -0.582086 0
M  V30 5169 C 472.22 3.93943 -1.70608 0
M  V30 5170 C 471.453 5.17542 -1.30328 0
M  V30 5171 O 471.676 5.70114 -0.180743 0
M  V30 5172 O 470.61 5.63382 -2.11861 0
M  V30 5173 H 474.436 2.33123 -1.94647 0
M  V30 5174 H 472.021 1.10358 -1.00705 0
M  V30 5175 H 473.903 4.1989 -0.356467 0
M  V30 5176 H 472.578 3.22007 0.330592 0
M  V30 5177 H 471.485 3.17019 -1.98619 0
M  V30 5178 H 472.818 4.18141 -2.59651 0
M  V30 5179 N 474.47 1.03057 1.19235 0
M  V30 5180 C 475.433 0.617418 2.20727 0
M  V30 5181 C 476.433 -0.319856 1.57587 0
M  V30 5182 O 477.623 -0.106633 1.73873 0
M  V30 5183 C 474.755 -0.096296 3.40764 0
M  V30 5184 H 475.948 1.51544 2.58794 0
M  V30 5185 H 473.501 0.821949 1.32942 0
M  V30 5186 H 474.236 -1.00859 3.08217 0
M  V30 5187 H 474.021 0.577217 3.87828 0
M  V30 5188 H 475.511 -0.372219 4.15938 0
M  V30 5189 N 475.948 -1.35272 0.808662 0
M  V30 5190 C 476.895 -2.29764 0.218482 0
M  V30 5191 C 477.865 -1.52911 -0.648652 0
M  V30 5192 O 479.05 -1.81341 -0.593297 0
M  V30 5193 C 476.19 -3.39388 -0.625282 0
M  V30 5194 C 475.303 -4.31202 0.262516 0
M  V30 5195 C 474.438 -5.27919 -0.589451 0
M  V30 5196 C 473.477 -6.11371 0.298617 0
M  V30 5197 N 472.614 -7.0022 -0.513443 0
M  V30 5198 H 477.454 -2.79645 1.02968 0
M  V30 5199 H 474.991 -1.37629 0.519303 0
M  V30 5200 H 476.949 -4.01615 -1.12966 0
M  V30 5201 H 475.579 -2.90777 -1.40173 0
M  V30 5202 H 474.631 -3.69962 0.885013 0
M  V30 5203 H 475.943 -4.89748 0.945971 0
M  V30 5204 H 475.097 -5.95529 -1.15888 0
M  V30 5205 H 473.836 -4.69875 -1.30647 0
M  V30 5206 H 472.841 -5.42707 0.880301 0
M  V30 5207 H 474.066 -6.71494 1.01352 0
M  V30 5208 H 472.012 -6.44662 -1.21439 0
M  V30 5209 H 471.929 -7.55917 0.111922 0
M  V30 5210 H 473.197 -7.72175 -1.06608 0
M  V30 5211 N 477.426 -0.562348 -1.47226 0
M  V30 5212 C 478.674 -0.0401371 -2.0206 0
M  V30 5213 C 478.995 1.3165 -1.43852 0
M  V30 5214 O 478.265 1.85976 -0.615599 0
M  V30 5215 H 476.845 -0.0118479 -0.746906 0
M  V30 5216 H 479.507 -0.73352 -1.8057 0
M  V30 5217 H 478.603 0.0441254 -3.12069 0
M  V30 5218 N 478.904 1.54736 -0.299062 0
M  V30 5219 C 479.814 2.27127 0.587413 0
M  V30 5220 C 480.83 1.30575 1.15005 0
M  V30 5221 O 482.006 1.63554 1.17525 0
M  V30 5222 C 479.071 2.99645 1.74395 0
M  V30 5223 C 478.132 4.11731 1.21559 0
M  V30 5224 C 477.365 4.80781 2.317 0
M  V30 5225 O 477.588 4.4918 3.51558 0
M  V30 5226 O 476.522 5.68226 1.98501 0
M  V30 5227 H 480.348 3.037 0.000250109 0
M  V30 5228 H 477.933 1.49256 -0.0655919 0
M  V30 5229 H 479.815 3.45138 2.4178 0
M  V30 5230 H 478.49 2.25969 2.31775 0
M  V30 5231 H 477.397 3.70641 0.507514 0
M  V30 5232 H 478.73 4.87379 0.687233 0
M  V30 5233 N 480.382 0.0267497 1.57577 0
M  V30 5234 C 481.612 -0.6617 1.95717 0
M  V30 5235 C 482.02 -1.66331 0.901706 0
M  V30 5236 O 481.363 -1.83273 -0.125241 0
M  V30 5237 C 481.425 -1.42649 3.29987 0
M  V30 5238 C 481.089 -0.583482 4.5326 0
M  V30 5239 C 482.086 0.140221 5.19711 0
M  V30 5240 C 479.771 -0.521581 4.99585 0
M  V30 5241 C 481.765 0.914523 6.30805 0
M  V30 5242 C 479.452 0.256428 6.10562 0
M  V30 5243 C 480.45 0.973189 6.76031 0
M  V30 5244 O 480.138 1.73845 7.84878 0
M  V30 5245 H 479.87 -0.187483 0.649481 0
M  V30 5246 H 482.424 0.0820847 2.05236 0
M  V30 5247 H 480.654 -2.21536 3.16952 0
M  V30 5248 H 482.343 -2.00282 3.53047 0
M  V30 5249 H 483.109 0.101716 4.84893 0
M  V30 5250 H 478.988 -1.06904 4.48433 0
M  V30 5251 H 482.532 1.4745 6.81839 0
M  V30 5252 H 478.429 0.296657 6.44818 0
M  V30 5253 H 479.197 1.65797 8.01532 0
M  V30 5254 N 481.861 -1.55662 -0.24637 0
M  V30 5255 C 483.272 -1.67953 -0.81539 0
M  V30 5256 C 483.623 -0.624302 -1.86002 0
M  V30 5257 O 482.748 0.229328 -2.15181 0
M  V30 5258 C 483.343 -3.04484 -1.48576 0
M  V30 5259 C 481.902 -3.18713 -2.00248 0
M  V30 5260 C 481.049 -2.6383 -0.853766 0
M  V30 5261 H 484 -1.58685 -0.0221692 0
M  V30 5262 H 484.021 -2.98959 -2.3538 0
M  V30 5263 H 483.533 -3.81264 -0.725222 0
M  V30 5264 H 481.634 -2.46757 -2.79181 0
M  V30 5265 H 481.747 -4.25628 -2.1995 0
M  V30 5266 H 480.111 -2.21667 -1.25442 0
M  V30 5267 H 480.894 -3.43135 -0.106302 0
M  V30 5268 N 483.339 0.512053 -1.4905 0
M  V30 5269 C 484.269 1.62365 -1.67809 0
M  V30 5270 C 485.25 1.61737 -0.526809 0
M  V30 5271 O 486.435 1.78651 -0.761404 0
M  V30 5272 C 483.565 3.00895 -1.73435 0
M  V30 5273 C 482.519 3.16387 -2.88242 0
M  V30 5274 C 481.845 4.56157 -2.78971 0
M  V30 5275 C 483.145 2.97457 -4.29321 0
M  V30 5276 H 484.839 1.46921 -2.60873 0
M  V30 5277 H 482.385 0.705379 -1.2554 0
M  V30 5278 H 484.338 3.78549 -1.85145 0
M  V30 5279 H 483.062 3.17403 -0.769619 0
M  V30 5280 H 481.721 2.41155 -2.76116 0
M  V30 5281 H 481.369 4.69525 -1.8043 0
M  V30 5282 H 481.069 4.67465 -3.5602 0
M  V30 5283 H 482.593 5.35886 -2.92675 0
M  V30 5284 H 484.007 3.64888 -4.42187 0
M  V30 5285 H 482.404 3.20245 -5.07507 0
M  V30 5286 H 483.474 1.93692 -4.44535 0
M  V30 5287 N 484.817 1.37938 0.762283 0
M  V30 5288 C 486.057 1.35076 1.53407 0
M  V30 5289 C 486.421 -0.061546 1.91901 0
M  V30 5290 O 487.622 -0.214973 2.67939 0
M  V30 5291 C 485.893 2.27206 2.75884 0
M  V30 5292 S 487.452 2.42283 3.65848 0
M  V30 5293 H 484.27 0.479387 0.52508 0
M  V30 5294 H 486.872 1.7378 0.895586 0
M  V30 5295 H 485.576 3.28724 2.457 0
M  V30 5296 H 485.107 1.8962 3.44685 0
M  V30 5297 H 487.122 1.64044 4.68299 0
M  V30 5298 N 486.295 -0.989507 1.22664 0
M  V30 5299 C 487.543 -1.72612 1.05117 0
M  V30 5300 C 487.864 -1.90552 -0.414131 0
M  V30 5301 O 487.134 -1.4676 -1.29762 0
M  V30 5302 H 485.714 -0.639555 0.385977 0
M  V30 5303 H 488.376 -1.19158 1.54232 0
M  V30 5304 H 487.472 -2.71926 1.53175 0
M  V30 5305 N 487.773 -1.03688 -1.18687 0
M  V30 5306 C 488.721 -0.618292 -2.24232 0
M  V30 5307 C 489.715 0.353045 -1.6568 0
M  V30 5308 O 490.921 0.220749 -1.78641 0
M  V30 5309 H 487.296 -0.181711 -0.729716 0
M  V30 5310 H 489.267 -1.51893 -2.56848 0
M  V30 5311 C 488.016 0.00677342 -3.47699 0
M  V30 5312 H 487.339 -0.731692 -3.93047 0
M  V30 5313 H 488.779 0.262492 -4.23187 0
M  V30 5314 C 487.238 1.25572 -3.12623 0
M  V30 5315 O 487.768 2.34691 -3.26011 0
M  V30 5316 N 485.974 1.14755 -2.66982 0
M  V30 5317 H 485.521 0.259601 -2.56289 0
M  V30 5318 H 485.479 1.98412 -2.43885 0
M  V30 5319 N 489.251 1.34841 -0.815825 0
M  V30 5320 C 490.476 2.03261 -0.41226 0
M  V30 5321 C 490.901 1.61055 0.971751 0
M  V30 5322 O 490.259 0.7917 1.63101 0
M  V30 5323 C 490.307 3.56914 -0.514289 0
M  V30 5324 O 489.411 4.09728 0.468675 0
M  V30 5325 H 488.752 0.641664 -0.170771 0
M  V30 5326 H 491.282 1.72241 -1.10427 0
M  V30 5327 H 491.292 4.06156 -0.387457 0
M  V30 5328 H 489.967 3.86982 -1.52375 0
M  V30 5329 H 488.544 3.71681 0.301316 0
M  V30 5330 N 490.729 0.570148 1.46925 0
M  V30 5331 C 491.957 0.0561966 2.06824 0
M  V30 5332 C 492.372 -1.24326 1.42086 0
M  V30 5333 O 491.729 -1.74882 0.521794 0
M  V30 5334 C 491.78 -0.129517 3.61268 0
M  V30 5335 O 491.501 1.1185 4.23581 0
M  V30 5336 C 493.002 -0.679266 4.38065 0
M  V30 5337 H 490.222 0.0517261 0.669003 0
M  V30 5338 H 492.766 0.787243 1.8874 0
M  V30 5339 H 490.921 -0.810739 3.78822 0
M  V30 5340 H 491.335 0.924375 5.1629 0
M  V30 5341 H 492.809 -0.758445 5.46765 0
M  V30 5342 H 493.286 -1.69346 4.05239 0
M  V30 5343 H 493.892 -0.0333237 4.25287 0
M  V30 5344 N 492.207 -1.54576 0.307264 0
M  V30 5345 C 493.455 -1.99867 -0.299574 0
M  V30 5346 C 493.776 -1.19714 -1.53927 0
M  V30 5347 O 493.046 -0.29472 -1.9367 0
M  V30 5348 H 491.626 -0.738299 -0.113683 0
M  V30 5349 H 494.288 -1.9032 0.420042 0
M  V30 5350 H 493.384 -3.06901 -0.567283 0
M  V30 5351 N 493.685 -0.035106 -1.57561 0
M  V30 5352 C 494.648 0.929819 -2.09492 0
M  V30 5353 C 495.648 1.25026 -1.01119 0
M  V30 5354 O 496.838 1.18961 -1.27255 0
M  V30 5355 C 493.97 2.24457 -2.56577 0
M  V30 5356 H 495.163 0.479935 -2.96035 0
M  V30 5357 H 492.716 0.213033 -1.54841 0
M  V30 5358 H 493.451 2.74061 -1.73382 0
M  V30 5359 H 493.236 2.02508 -3.35757 0
M  V30 5360 H 494.726 2.93607 -2.96959 0
M  V30 5361 N 495.163 1.55791 0.238111 0
M  V30 5362 C 496.411 1.77681 0.963001 0
M  V30 5363 C 496.732 0.600674 1.85518 0
M  V30 5364 O 496.002 -0.383182 1.92116 0
M  V30 5365 H 494.582 0.655315 0.358568 0
M  V30 5366 H 497.244 1.93239 0.253945 0
M  V30 5367 H 496.34 2.69177 1.57956 0
M  V30 5368 N 496.642 -0.504142 1.49319 0
M  V30 5369 C 497.574 -1.62265 1.61872 0
M  V30 5370 C 498.587 -1.54881 0.501573 0
M  V30 5371 O 499.776 -1.6087 0.773497 0
M  V30 5372 C 496.876 -3.01042 1.55651 0
M  V30 5373 C 496.049 -3.33642 2.82845 0
M  V30 5374 C 495.108 -4.51816 2.69719 0
M  V30 5375 O 494.134 -4.53755 3.4365 0
M  V30 5376 N 495.336 -5.51543 1.81055 0
M  V30 5377 H 498.101 -1.51924 2.58339 0
M  V30 5378 H 495.662 -0.691954 1.46368 0
M  V30 5379 H 497.654 -3.78013 1.44528 0
M  V30 5380 H 496.224 -3.05323 0.670546 0
M  V30 5381 H 495.444 -2.45598 3.08343 0
M  V30 5382 H 496.732 -3.5222 3.67177 0
M  V30 5383 H 496.13 -5.52774 1.20241 0
M  V30 5384 H 494.687 -6.27629 1.75856 0
M  V30 5385 N 498.12 -1.38341 -0.754957 0
M  V30 5386 C 499.36 -1.35888 -1.52689 0
M  V30 5387 C 499.724 0.0513682 -1.91931 0
M  V30 5388 O 500.925 0.200761 -2.68049 0
M  V30 5389 C 499.196 -2.28666 -2.74676 0
M  V30 5390 S 500.755 -2.4422 -3.64558 0
M  V30 5391 H 497.573 -0.482165 -0.522531 0
M  V30 5392 H 500.175 -1.74253 -0.886358 0
M  V30 5393 H 498.879 -3.30023 -2.43953 0
M  V30 5394 H 498.41 -1.91445 -3.43675 0
M  V30 5395 H 500.425 -1.66525 -4.67423 0
M  V30 5396 N 499.598 0.982988 -1.23187 0
M  V30 5397 C 500.846 1.72052 -1.06031 0
M  V30 5398 C 501.167 1.90769 0.404019 0
M  V30 5399 O 500.437 1.47446 1.28982 0
M  V30 5400 H 499.017 0.637499 -0.389363 0
M  V30 5401 H 501.679 1.18338 -1.54862 0
M  V30 5402 H 500.775 2.7111 -1.54615 0
M  V30 5403 N 501.076 1.04316 1.18135 0
M  V30 5404 C 502.301 0.768047 1.92655 0
M  V30 5405 C 502.726 -0.66904 1.758 0
M  V30 5406 O 502.084 -1.46372 1.06981 0
M  V30 5407 C 502.132 1.14239 3.42026 0
M  V30 5408 O 501.236 0.269333 4.1152 0
M  V30 5409 H 500.577 0.282436 0.600937 0
M  V30 5410 H 503.107 1.39367 1.49793 0
M  V30 5411 H 503.117 1.10538 3.92741 0
M  V30 5412 H 501.792 2.18928 3.53615 0
M  V30 5413 H 500.369 0.366175 3.71098 0
M  V30 5414 N 502.554 -1.34406 0.822964 0
M  V30 5415 C 503.502 -2.31428 0.233165 0
M  V30 5416 C 504.496 -1.57404 -0.626118 0
M  V30 5417 O 505.702 -1.72402 -0.517453 0
M  V30 5418 H 502.077 -0.749863 0.0566557 0
M  V30 5419 H 504.048 -2.78699 1.06628 0
M  V30 5420 C 502.797 -3.42653 -0.590264 0
M  V30 5421 H 502.12 -3.99753 0.0616129 0
M  V30 5422 H 503.56 -4.12778 -0.969054 0
M  V30 5423 C 502.019 -2.87112 -1.76262 0
M  V30 5424 O 502.549 -2.81995 -2.8608 0
M  V30 5425 N 500.755 -2.43934 -1.57938 0
M  V30 5426 H 500.302 -2.48296 -0.686078 0
M  V30 5427 H 500.26 -2.07123 -2.36532 0
M  V30 5428 N 504.032 -0.577932 -1.46621 0
M  V30 5429 C 505.262 -0.0670668 -2.06491 0
M  V30 5430 C 505.67 1.24119 -1.42798 0
M  V30 5431 O 505.013 1.76016 -0.525759 0
M  V30 5432 C 505.075 0.177995 -3.59059 0
M  V30 5433 C 504.739 -1.04394 -4.44917 0
M  V30 5434 C 505.736 -1.95479 -4.81751 0
M  V30 5435 C 503.421 -1.26444 -4.86125 0
M  V30 5436 C 505.415 -3.06965 -5.58615 0
M  V30 5437 C 503.102 -2.38237 -5.62749 0
M  V30 5438 C 504.1 -3.28327 -5.98908 0
M  V30 5439 O 503.788 -4.38179 -6.73984 0
M  V30 5440 H 503.52 -0.0523159 -0.673973 0
M  V30 5441 H 506.074 -0.796966 -1.89308 0
M  V30 5442 H 504.304 0.962451 -3.74531 0
M  V30 5443 H 505.993 0.636782 -4.00874 0
M  V30 5444 H 506.759 -1.79657 -4.50498 0
M  V30 5445 H 502.638 -0.572316 -4.57434 0
M  V30 5446 H 506.182 -3.77309 -5.86757 0
M  V30 5447 H 502.079 -2.54023 -5.93416 0
M  V30 5448 H 502.847 -4.36486 -6.92403 0
M  V30 5449 N 505.51 1.54411 -0.315457 0
M  V30 5450 C 506.738 2.04833 0.291738 0
M  V30 5451 C 507.153 1.19203 1.46411 0
M  V30 5452 O 506.51 0.220867 1.81159 0
M  V30 5453 C 506.561 3.53969 0.73404 0
M  V30 5454 O 506.282 4.36346 -0.391682 0
M  V30 5455 C 507.783 4.2045 1.40489 0
M  V30 5456 H 505.003 0.668195 0.0612947 0
M  V30 5457 H 507.547 1.99276 -0.45929 0
M  V30 5458 H 505.702 3.5984 1.43506 0
M  V30 5459 H 506.116 5.24481 -0.0447088 0
M  V30 5460 H 507.59 5.26278 1.66539 0
M  V30 5461 H 508.067 3.71067 2.3496 0
M  V30 5462 H 508.673 4.18694 0.746662 0
M  V30 5463 N 506.988 0.0434614 1.5754 0
M  V30 5464 C 508.228 -0.636023 1.94253 0
M  V30 5465 C 508.592 -1.68461 0.921132 0
M  V30 5466 O 509.793 -2.41762 1.17494 0
M  V30 5467 C 508.064 -1.22357 3.35803 0
M  V30 5468 S 509.623 -1.92213 3.94461 0
M  V30 5469 H 506.441 -0.209041 0.679575 0
M  V30 5470 H 509.043 0.110556 1.95187 0
M  V30 5471 H 507.747 -0.448162 4.07946 0
M  V30 5472 H 507.278 -2.00713 3.38346 0
M  V30 5473 H 509.293 -3.20199 3.79061 0
M  V30 5474 N 508.466 -1.55915 -0.229846 0
M  V30 5475 C 509.396 -1.94754 -1.28815 0
M  V30 5476 C 510.377 -0.814657 -1.49323 0
M  V30 5477 O 511.562 -1.07631 -1.61645 0
M  V30 5478 C 508.692 -2.25705 -2.63959 0
M  V30 5479 C 507.646 -3.41406 -2.5812 0
M  V30 5480 C 506.972 -3.57941 -3.97218 0
M  V30 5481 C 508.272 -4.76616 -2.13623 0
M  V30 5482 H 509.966 -2.83404 -0.965547 0
M  V30 5483 H 507.512 -1.36353 -0.463028 0
M  V30 5484 H 509.465 -2.51467 -3.38146 0
M  V30 5485 H 508.189 -1.339 -2.9789 0
M  V30 5486 H 506.848 -3.1568 -1.86391 0
M  V30 5487 H 506.496 -2.63526 -4.28443 0
M  V30 5488 H 506.196 -4.35757 -3.94195 0
M  V30 5489 H 507.72 -3.86042 -4.73079 0
M  V30 5490 H 509.134 -5.01637 -2.77549 0
M  V30 5491 H 507.531 -5.57655 -2.21677 0
M  V30 5492 H 508.601 -4.7253 -1.08829 0
M  V30 5493 N 509.944 0.496216 -1.49584 0
M  V30 5494 C 510.876 1.61404 -1.62731 0
M  V30 5495 C 511.889 1.54613 -0.50978 0
M  V30 5496 O 513.078 1.60458 -0.782017 0
M  V30 5497 C 510.178 3.00212 -1.57245 0
M  V30 5498 C 509.351 3.32138 -2.84611 0
M  V30 5499 C 508.41 4.5038 -2.72112 0
M  V30 5500 O 507.436 4.51926 -3.46051 0
M  V30 5501 N 508.638 5.50575 -1.83977 0
M  V30 5502 H 511.403 1.50552 -2.59141 0
M  V30 5503 H 508.964 0.684182 -1.46733 0
M  V30 5504 H 510.956 3.77241 -1.4653 0
M  V30 5505 H 509.526 3.04964 -0.686729 0
M  V30 5506 H 508.746 2.4396 -3.09641 0
M  V30 5507 H 510.034 3.50268 -3.69039 0
M  V30 5508 H 509.432 5.52128 -1.23171 0
M  V30 5509 H 507.989 6.26687 -1.79182 0
M  V30 5510 N 511.423 1.38739 0.74761 0
M  V30 5511 C 512.671 1.35007 1.50391 0
M  V30 5512 C 512.992 -0.0574274 1.94915 0
M  V30 5513 O 512.262 -1.00628 1.6808 0
M  V30 5514 H 510.842 0.496784 0.557866 0
M  V30 5515 H 513.504 1.73479 0.888319 0
M  V30 5516 H 512.6 2.00474 2.392 0
M  V30 5517 N 512.901 -0.976442 1.23707 0
M  V30 5518 C 514.148 -1.71827 1.07153 0
M  V30 5519 C 514.476 -1.9053 -0.390982 0
M  V30 5520 O 513.731 -1.45779 -1.30564 0
M  V30 5521 C 514.03 -3.11814 1.74662 0
M  V30 5522 C 513.696 -3.12978 3.24585 0
M  V30 5523 C 512.358 -3.13003 3.6549 0
M  V30 5524 C 514.71 -3.07986 4.20469 0
M  V30 5525 C 512.038 -3.05757 5.00729 0
M  V30 5526 C 514.39 -3.02282 5.55705 0
M  V30 5527 C 513.054 -3.00631 5.95968 0
M  V30 5528 H 512.324 -0.628758 0.392102 0
M  V30 5529 H 514.971 -1.14239 1.53693 0
M  V30 5530 H 513.276 -3.72812 1.20492 0
M  V30 5531 H 514.973 -3.67989 1.59328 0
M  V30 5532 H 511.563 -3.13718 2.92026 0
M  V30 5533 H 515.747 -3.07103 3.89874 0
M  V30 5534 H 511.003 -3.02834 5.31132 0
M  V30 5535 H 515.177 -2.97376 6.29714 0
M  V30 5536 H 512.804 -2.94771 7.00724 0
M  V30 5537 N 514.379 -1.04941 -1.1758 0
M  V30 5538 C 515.627 -0.756492 -1.87408 0
M  V30 5539 C 515.948 0.718478 -1.81281 0
M  V30 5540 O 515.218 1.519 -1.23706 0
M  V30 5541 H 513.798 -0.276841 -0.693807 0
M  V30 5542 H 516.46 -1.32803 -1.42652 0
M  V30 5543 H 515.556 -1.06918 -2.93215 0
M  V30 5544 N 515.857 1.33968 -0.830081 0
M  V30 5545 C 517.268 1.80439 -0.479455 0
M  V30 5546 C 517.619 1.68756 1.00079 0
M  V30 5547 O 516.744 1.23171 1.77927 0
M  V30 5548 C 517.339 3.27611 -0.863505 0
M  V30 5549 C 515.898 3.72133 -0.565145 0
M  V30 5550 C 515.045 2.55549 -1.07657 0
M  V30 5551 H 517.996 1.21614 -1.0196 0
M  V30 5552 H 518.017 3.8012 -0.170083 0
M  V30 5553 H 517.529 3.36082 -1.94089 0
M  V30 5554 H 515.63 3.69196 0.502536 0
M  V30 5555 H 515.743 4.65963 -1.11422 0
M  V30 5556 H 514.107 2.49788 -0.497807 0
M  V30 5557 H 514.89 2.66786 -2.16055 0
M  V30 5558 N 517.335 0.585699 1.46312 0
M  V30 5559 C 518.283 -0.158577 2.32059 0
M  V30 5560 C 519.277 -0.881427 1.44662 0
M  V30 5561 O 520.483 -0.799476 1.61271 0
M  V30 5562 H 516.858 -0.0700066 0.748734 0
M  V30 5563 H 518.829 0.583383 2.92642 0
M  V30 5564 C 517.578 -1.15701 3.27885 0
M  V30 5565 H 516.901 -0.610215 3.95116 0
M  V30 5566 H 518.341 -1.64812 3.90657 0
M  V30 5567 C 516.8 -2.21951 2.53455 0
M  V30 5568 O 517.33 -3.29352 2.29978 0
M  V30 5569 N 515.536 -1.9664 2.13965 0
M  V30 5570 H 515.083 -1.09309 2.33258 0
M  V30 5571 H 515.041 -2.6794 1.64485 0
M  V30 5572 N 518.813 -1.54241 0.323641 0
M  V30 5573 C 520.224 -1.85975 -0.164405 0
M  V30 5574 C 520.575 -1.24529 -1.51615 0
M  V30 5575 O 519.7 -0.551351 -2.09258 0
M  V30 5576 C 520.295 -3.37424 -0.305091 0
M  V30 5577 C 518.854 -3.69107 -0.737358 0
M  V30 5578 C 518.001 -2.76942 0.140884 0
M  V30 5579 H 520.952 -1.49088 0.543922 0
M  V30 5580 H 520.973 -3.63147 -1.13598 0
M  V30 5581 H 520.485 -3.82116 0.678876 0
M  V30 5582 H 518.586 -3.29947 -1.73107 0
M  V30 5583 H 518.699 -4.76035 -0.541053 0
M  V30 5584 H 517.063 -2.51795 -0.383572 0
M  V30 5585 H 517.846 -3.24461 1.12162 0
M  V30 5586 N 520.291 -0.0518155 -1.57515 0
M  V30 5587 C 521.568 0.661727 -1.84067 0
M  V30 5588 C 521.948 1.88999 -0.940351 0
M  V30 5589 O 521.296 2.285 -0.00155404 0
M  V30 5590 C 521.506 1.01841 -3.3381 0
M  V30 5591 C 522.854 1.40043 -4.00841 0
M  V30 5592 O 523.878 1.11073 -3.38439 0
M  V30 5593 O 522.737 1.94111 -5.10865 0
M  V30 5594 H 519.831 0.326702 -0.759733 0
M  V30 5595 H 522.377 -0.0812277 -1.69505 0
M  V30 5596 H 521.149 0.145202 -3.91031 0
M  V30 5597 H 520.772 1.81879 -3.53562 0
M  V30 5598 N 521.769 1.56035 0.221574 0
M  V30 5599 C 522.999 1.82864 0.961468 0
M  V30 5600 C 523.407 0.628703 1.78449 0
M  V30 5601 O 522.75 -0.412109 1.79018 0
M  V30 5602 C 522.812 3.03425 1.92804 0
M  V30 5603 C 522.476 4.38429 1.28954 0
M  V30 5604 C 523.473 5.15441 0.679431 0
M  V30 5605 C 521.158 4.85151 1.30131 0
M  V30 5606 C 523.152 6.37337 0.0896148 0
M  V30 5607 C 520.839 6.06989 0.707651 0
M  V30 5608 C 521.837 6.82923 0.102855 0
M  V30 5609 O 521.525 8.02456 -0.48157 0
M  V30 5610 H 521.257 0.611883 0.28736 0
M  V30 5611 H 523.811 2.0397 0.241932 0
M  V30 5612 H 522.041 2.78138 2.68656 0
M  V30 5613 H 523.73 3.17127 2.53348 0
M  V30 5614 H 524.496 4.80452 0.662661 0
M  V30 5615 H 520.375 4.26021 1.76145 0
M  V30 5616 H 523.919 6.96547 -0.383069 0
M  V30 5617 H 519.816 6.41451 0.721834 0
M  V30 5618 H 520.584 8.17636 -0.375887 0
M  V30 5619 N 523.247 -0.488276 1.49845 0
M  V30 5620 C 524.495 -1.23911 1.59657 0
M  V30 5621 C 524.816 -1.92816 0.291005 0
M  V30 5622 O 524.086 -1.83328 -0.690485 0
M  V30 5623 H 522.666 -0.460357 0.588286 0
M  V30 5624 H 525.328 -0.564794 1.86537 0
M  V30 5625 H 524.424 -1.99625 2.39909 0
M  V30 5626 N 524.725 -1.39134 -0.740242 0
M  V30 5627 C 525.955 -1.39132 -1.52728 0
M  V30 5628 C 526.363 0.0173133 -1.89192 0
M  V30 5629 O 525.706 0.997715 -1.54244 0
M  V30 5630 C 525.768 -2.1952 -2.84695 0
M  V30 5631 C 525.432 -3.68203 -2.70695 0
M  V30 5632 C 526.429 -4.61401 -2.39593 0
M  V30 5633 C 524.114 -4.11724 -2.8773 0
M  V30 5634 C 526.108 -5.96102 -2.25701 0
M  V30 5635 C 523.795 -5.46503 -2.73456 0
M  V30 5636 C 524.793 -6.38506 -2.42486 0
M  V30 5637 O 524.481 -7.70803 -2.28295 0
M  V30 5638 H 524.213 -0.477263 -0.478744 0
M  V30 5639 H 526.767 -1.83504 -0.922799 0
M  V30 5640 H 524.997 -1.69888 -3.47383 0
M  V30 5641 H 526.686 -2.1176 -3.46284 0
M  V30 5642 H 527.452 -4.29079 -2.26088 0
M  V30 5643 H 523.331 -3.4045 -3.10829 0
M  V30 5644 H 526.875 -6.6788 -2.0145 0
M  V30 5645 H 522.772 -5.78417 -2.86538 0
M  V30 5646 H 523.54 -7.8147 -2.43405 0
M  V30 5647 N 526.204 0.969867 -1.24223 0
M  V30 5648 C 527.432 1.74756 -1.10761 0
M  V30 5649 C 527.847 1.85713 0.340041 0
M  V30 5650 O 527.204 1.34389 1.23474 0
M  V30 5651 C 527.255 3.16915 -1.73917 0
M  V30 5652 O 526.976 3.06511 -3.13021 0
M  V30 5653 C 528.477 4.11032 -1.66036 0
M  V30 5654 H 525.697 0.548092 -0.387087 0
M  V30 5655 H 528.241 1.2178 -1.64286 0
M  V30 5656 H 526.396 3.66884 -1.244 0
M  V30 5657 H 526.81 3.96079 -3.43834 0
M  V30 5658 H 528.284 5.08446 -2.14911 0
M  V30 5659 H 528.761 4.34785 -0.621159 0
M  V30 5660 H 529.367 3.66972 -2.14969 0
M  V30 5661 N 527.682 1.05563 1.17022 0
M  V30 5662 C 528.907 0.788437 1.91829 0
M  V30 5663 C 529.332 -0.650356 1.76499 0
M  V30 5664 O 528.69 -1.45229 1.08527 0
M  V30 5665 C 528.738 1.1786 3.40795 0
M  V30 5666 O 527.842 0.312965 4.11211 0
M  V30 5667 H 527.183 0.288794 0.597908 0
M  V30 5668 H 529.713 1.40948 1.48307 0
M  V30 5669 H 529.723 1.14697 3.91546 0
M  V30 5670 H 528.398 2.22666 3.51273 0
M  V30 5671 H 526.975 0.405515 3.70689 0
M  V30 5672 N 529.16 -1.33526 0.837174 0
M  V30 5673 C 530.407 -1.97837 0.432064 0
M  V30 5674 C 530.735 -1.66324 -1.00829 0
M  V30 5675 O 529.99 -0.93448 -1.71948 0
M  V30 5676 C 530.289 -3.52367 0.597675 0
M  V30 5677 C 529.955 -4.03826 2.00587 0
M  V30 5678 C 528.617 -4.1759 2.39106 0
M  V30 5679 C 530.969 -4.31333 2.92576 0
M  V30 5680 C 528.297 -4.56195 3.68921 0
M  V30 5681 C 530.649 -4.7139 4.2187 0
M  V30 5682 C 529.313 -4.8336 4.60347 0
M  V30 5683 H 528.583 -0.723937 0.158104 0
M  V30 5684 H 531.23 -1.5923 1.06387 0
M  V30 5685 H 529.535 -3.91624 -0.117452 0
M  V30 5686 H 531.232 -4.00126 0.26454 0
M  V30 5687 H 527.822 -3.93586 1.69671 0
M  V30 5688 H 532.006 -4.20224 2.64056 0
M  V30 5689 H 527.262 -4.63655 3.9854 0
M  V30 5690 H 531.436 -4.91631 4.93226 0
M  V30 5691 H 529.063 -5.1303 5.60985 0
M  V30 5692 N 530.638 -0.59345 -1.46 0
M  V30 5693 C 531.915 -0.0157933 -1.95594 0
M  V30 5694 C 532.295 1.44807 -1.53604 0
M  V30 5695 O 531.643 2.14342 -0.791824 0
M  V30 5696 C 531.853 -0.199081 -3.48432 0
M  V30 5697 C 533.201 -0.0724943 -4.24538 0
M  V30 5698 O 534.225 -0.128469 -3.55968 0
M  V30 5699 O 533.084 0.0542426 -5.46473 0
M  V30 5700 H 530.178 0.043749 -0.825842 0
M  V30 5701 H 532.724 -0.662522 -1.56233 0
M  V30 5702 H 531.496 -1.21631 -3.71916 0
M  V30 5703 H 531.119 0.483576 -3.94648 0
M  V30 5704 N 532.116 1.54067 -0.331816 0
M  V30 5705 C 533.341 2.05599 0.272705 0
M  V30 5706 C 533.766 1.2059 1.44359 0
M  V30 5707 O 533.124 0.216907 1.79998 0
M  V30 5708 C 533.172 3.54188 0.677021 0
M  V30 5709 O 532.276 3.72082 1.77844 0
M  V30 5710 H 531.617 0.662286 0.0476801 0
M  V30 5711 H 534.147 1.98826 -0.482624 0
M  V30 5712 H 534.157 3.96608 0.957415 0
M  V30 5713 H 532.832 4.15513 -0.179325 0
M  V30 5714 H 531.409 3.41566 1.49622 0
M  V30 5715 N 533.594 0.0601682 1.57485 0
M  V30 5716 C 534.841 -0.611594 1.93043 0
M  V30 5717 C 535.169 -1.70317 0.939274 0
M  V30 5718 O 534.424 -1.95644 -0.046996 0
M  V30 5719 C 534.723 -1.23831 3.35262 0
M  V30 5720 C 534.389 -0.274037 4.50066 0
M  V30 5721 C 533.051 -0.00872394 4.81199 0
M  V30 5722 C 535.403 0.386308 5.19766 0
M  V30 5723 C 532.731 0.924218 5.79375 0
M  V30 5724 C 535.083 1.3075 6.1894 0
M  V30 5725 C 533.747 1.58139 6.48497 0
M  V30 5726 H 533.017 -0.223798 0.706396 0
M  V30 5727 H 535.664 0.128566 1.91068 0
M  V30 5728 H 533.969 -2.05394 3.33647 0
M  V30 5729 H 535.666 -1.76517 3.60059 0
M  V30 5730 H 532.256 -0.491008 4.25778 0
M  V30 5731 H 536.44 0.194436 4.95919 0
M  V30 5732 H 531.696 1.1438 6.00606 0
M  V30 5733 H 535.87 1.82519 6.72056 0
M  V30 5734 H 533.497 2.30593 7.24383 0
M  V30 5735 N 535.072 -1.5615 -0.213296 0
M  V30 5736 C 536.32 -1.79191 -0.934612 0
M  V30 5737 C 536.641 -0.630112 -1.84539 0
M  V30 5738 O 535.911 0.35257 -1.92701 0
M  V30 5739 H 534.491 -0.660937 -0.348097 0
M  V30 5740 H 537.153 -1.93618 -0.22317 0
M  V30 5741 H 536.249 -2.71656 -1.53654 0
M  V30 5742 N 536.55 0.480323 -1.50102 0
M  V30 5743 C 537.796 1.23208 -1.61837 0
M  V30 5744 C 538.151 1.89878 -0.310509 0
M  V30 5745 O 537.444 1.7871 0.690897 0
M  V30 5746 C 537.638 2.30708 -2.72963 0
M  V30 5747 C 537.467 1.74583 -4.14428 0
M  V30 5748 C 536.237 1.54964 -4.80951 0
M  V30 5749 C 538.435 1.24597 -4.98979 0
M  V30 5750 N 536.417 0.939855 -6.06663 0
M  V30 5751 C 537.788 0.758834 -6.15339 0
M  V30 5752 C 539.843 1.13365 -4.84822 0
M  V30 5753 C 538.546 0.17046 -7.19098 0
M  V30 5754 C 540.572 0.559221 -5.8875 0
M  V30 5755 C 539.934 0.082415 -7.04352 0
M  V30 5756 H 536.033 0.440065 -0.646426 0
M  V30 5757 H 538.617 0.535632 -1.87187 0
M  V30 5758 H 536.788 2.9779 -2.4935 0
M  V30 5759 H 538.52 2.97738 -2.74106 0
M  V30 5760 H 535.275 1.79926 -4.38091 0
M  V30 5761 H 535.699 0.653641 -6.73837 0
M  V30 5762 H 540.341 1.48823 -3.95742 0
M  V30 5763 H 538.059 -0.196347 -8.07861 0
M  V30 5764 H 541.645 0.474804 -5.79859 0
M  V30 5765 H 540.525 -0.355119 -7.83396 0
M  V30 5766 N 538.028 1.39524 0.732853 0
M  V30 5767 C 538.991 1.38189 1.82857 0
M  V30 5768 C 539.991 0.278624 1.58368 0
M  V30 5769 O 541.181 0.536639 1.65728 0
M  V30 5770 C 538.313 1.15661 3.2068 0
M  V30 5771 H 539.506 2.35692 1.85444 0
M  V30 5772 H 537.059 1.2512 0.936728 0
M  V30 5773 H 537.794 0.188482 3.23752 0
M  V30 5774 H 537.579 1.95559 3.39852 0
M  V30 5775 H 539.069 1.17472 4.00737 0
M  V30 5776 N 539.506 -0.963266 1.24736 0
M  V30 5777 C 540.753 -1.7068 1.0897 0
M  V30 5778 C 541.081 -1.90934 -0.370751 0
M  V30 5779 O 540.336 -1.47155 -1.29011 0
M  V30 5780 C 540.635 -3.09944 1.7796 0
M  V30 5781 C 540.301 -3.09518 3.27887 0
M  V30 5782 C 538.963 -3.09109 3.68789 0
M  V30 5783 C 541.315 -3.03509 4.23712 0
M  V30 5784 C 538.643 -3.00429 5.03944 0
M  V30 5785 C 540.995 -2.96371 5.5888 0
M  V30 5786 C 539.659 -2.94293 5.99123 0
M  V30 5787 H 538.929 -0.624564 0.398749 0
M  V30 5788 H 541.576 -1.12603 1.54896 0
M  V30 5789 H 539.881 -3.71513 1.2444 0
M  V30 5790 H 541.578 -3.66278 1.63222 0
M  V30 5791 H 538.168 -3.10603 2.95337 0
M  V30 5792 H 542.352 -3.0295 3.93109 0
M  V30 5793 H 537.608 -2.97183 5.34314 0
M  V30 5794 H 541.782 -2.90681 6.32833 0
M  V30 5795 H 539.409 -2.87322 7.03811 0
M  V30 5796 N 540.985 -1.06182 -1.16461 0
M  V30 5797 C 541.915 -0.692861 -2.22984 0
M  V30 5798 C 542.896 0.314122 -1.67174 0
M  V30 5799 O 544.081 0.189499 -1.93273 0
M  V30 5800 C 541.211 -0.07732 -3.47214 0
M  V30 5801 C 540.165 -1.01015 -4.15909 0
M  V30 5802 C 539.491 -0.257973 -5.34077 0
M  V30 5803 C 540.791 -2.33868 -4.67015 0
M  V30 5804 H 542.485 -1.58343 -2.54102 0
M  V30 5805 H 540.031 -0.76279 -1.22137 0
M  V30 5806 H 541.984 0.19266 -4.20959 0
M  V30 5807 H 540.708 0.848254 -3.15392 0
M  V30 5808 H 539.367 -1.26486 -3.44088 0
M  V30 5809 H 539.015 0.670684 -4.98509 0
M  V30 5810 H 538.715 -0.879638 -5.80979 0
M  V30 5811 H 540.239 0.00448788 -6.106 0
M  V30 5812 H 541.653 -2.1279 -5.32347 0
M  V30 5813 H 540.05 -2.91522 -5.24533 0
M  V30 5814 H 541.12 -2.97019 -3.83286 0
M  V30 5815 N 542.463 1.3308 -0.844243 0
M  V30 5816 C 543.688 2.02341 -0.455282 0
M  V30 5817 C 544.113 1.6308 0.93737 0
M  V30 5818 O 543.471 0.826118 1.61385 0
M  V30 5819 C 543.519 3.55743 -0.58988 0
M  V30 5820 O 542.623 4.1063 0.38166 0
M  V30 5821 H 541.964 0.637898 -0.184343 0
M  V30 5822 H 544.494 1.6986 -1.14056 0
M  V30 5823 H 544.504 4.05243 -0.473522 0
M  V30 5824 H 543.179 3.83662 -1.60549 0
M  V30 5825 H 541.756 3.72236 0.22241 0
M  V30 5826 N 543.941 0.601185 1.45683 0
M  V30 5827 C 545.166 0.0982245 2.07167 0
M  V30 5828 C 545.591 -1.20546 1.44396 0
M  V30 5829 O 544.949 -1.73247 0.534347 0
M  V30 5830 C 544.997 -0.0346976 3.60583 0
M  V30 5831 O 544.101 -1.08657 3.97828 0
M  V30 5832 H 543.442 0.0711618 0.660176 0
M  V30 5833 H 545.972 0.829376 1.87036 0
M  V30 5834 H 545.982 -0.234969 4.07323 0
M  V30 5835 H 544.657 0.917265 4.05659 0
M  V30 5836 H 543.234 -0.863275 3.6277 0
M  V30 5837 N 545.419 -1.53889 0.339982 0
M  V30 5838 C 546.666 -2.00855 -0.257621 0
M  V30 5839 C 546.994 -1.22788 -1.50842 0
M  V30 5840 O 546.249 -0.302567 -1.93347 0
M  V30 5841 C 546.548 -3.51968 -0.620735 0
M  V30 5842 C 546.214 -4.47741 0.532771 0
M  V30 5843 C 544.876 -4.73645 0.849339 0
M  V30 5844 C 547.228 -5.04551 1.3068 0
M  V30 5845 C 544.556 -5.53614 1.94237 0
M  V30 5846 C 546.908 -5.85713 2.39005 0
M  V30 5847 C 545.572 -6.09912 2.71225 0
M  V30 5848 H 544.842 -0.734979 -0.0942703 0
M  V30 5849 H 547.489 -1.85714 0.467159 0
M  V30 5850 H 545.794 -3.64921 -1.42618 0
M  V30 5851 H 547.491 -3.85762 -1.09495 0
M  V30 5852 H 544.081 -4.27711 0.275973 0
M  V30 5853 H 548.265 -4.84507 1.07549 0
M  V30 5854 H 543.521 -5.7059 2.19628 0
M  V30 5855 H 547.695 -6.28748 2.99415 0
M  V30 5856 H 545.322 -6.71665 3.56047 0
M  V30 5857 N 546.897 -0.0685191 -1.57451 0
M  V30 5858 C 548.313 0.288101 -1.56978 0
M  V30 5859 C 548.513 1.70262 -1.07765 0
M  V30 5860 O 547.569 2.4135 -0.742054 0
M  V30 5861 C 548.882 0.100745 -3.00531 0
M  V30 5862 C 550.43 0.170531 -3.12535 0
M  V30 5863 C 550.905 0.0114944 -4.57999 0
M  V30 5864 N 552.396 0.0672065 -4.63151 0
M  V30 5865 C 553.131 -0.0314813 -5.73391 0
M  V30 5866 N 552.627 -0.183503 -6.92557 0
M  V30 5867 N 554.42 0.0253489 -5.62094 0
M  V30 5868 H 546.571 -0.993026 -1.87757 0
M  V30 5869 H 548.834 -0.386981 -0.865419 0
M  V30 5870 H 548.54 -0.875197 -3.40636 0
M  V30 5871 H 548.414 0.854457 -3.67395 0
M  V30 5872 H 550.801 1.13696 -2.72318 0
M  V30 5873 H 550.882 -0.614229 -2.48316 0
M  V30 5874 H 550.526 -0.951684 -4.98904 0
M  V30 5875 H 550.456 0.815617 -5.20245 0
M  V30 5876 H 552.947 0.183246 -3.77455 0
M  V30 5877 H 553.26 -0.251041 -7.72392 0
M  V30 5878 H 551.605 -0.218822 -6.94655 0
M  V30 5879 H 554.796 0.142794 -4.67882 0
M  V30 5880 H 554.969 -0.0550166 -6.47977 0
M  V30 5881 N 548.375 1.56261 0.205012 0
M  V30 5882 C 549.305 1.96779 1.257 0
M  V30 5883 C 550.286 0.838309 1.48008 0
M  V30 5884 O 551.471 1.10189 1.59913 0
M  V30 5885 C 548.601 2.29876 2.60335 0
M  V30 5886 C 547.555 3.45469 2.52656 0
M  V30 5887 C 546.881 3.64215 3.91473 0
M  V30 5888 C 548.181 4.79954 2.06014 0
M  V30 5889 H 549.875 2.84904 0.920338 0
M  V30 5890 H 547.421 1.37072 0.441277 0
M  V30 5891 H 549.374 2.56814 3.34102 0
M  V30 5892 H 548.098 1.38622 2.95722 0
M  V30 5893 H 546.757 3.18605 1.81345 0
M  V30 5894 H 546.405 2.70309 4.24196 0
M  V30 5895 H 546.105 4.41973 3.87213 0
M  V30 5896 H 547.629 3.93519 4.66878 0
M  V30 5897 H 549.043 5.05989 2.69533 0
M  V30 5898 H 547.44 5.61111 2.12777 0
M  V30 5899 H 548.51 4.74201 1.01297 0
M  V30 5900 N 549.853 -0.472356 1.50355 0
M  V30 5901 C 550.786 -1.58923 1.63764 0
M  V30 5902 C 551.764 -1.55173 0.485793 0
M  V30 5903 O 552.948 -1.74815 0.705132 0
M  V30 5904 C 550.075 -2.97497 1.61905 0
M  V30 5905 C 549.121 -3.19405 2.82635 0
M  V30 5906 S 549.954 -2.99441 4.43954 0
M  V30 5907 C 551.11 -4.40359 4.44786 0
M  V30 5908 H 551.343 -1.47309 2.58239 0
M  V30 5909 H 548.876 -0.659601 1.39602 0
M  V30 5910 H 550.834 -3.77389 1.61518 0
M  V30 5911 H 549.495 -3.06502 0.686683 0
M  V30 5912 H 548.688 -4.20636 2.77636 0
M  V30 5913 H 548.29 -2.47283 2.80583 0
M  V30 5914 H 550.582 -5.32969 4.1827 0
M  V30 5915 H 551.525 -4.50403 5.46391 0
M  V30 5916 H 551.933 -4.22378 3.74509 0
M  V30 5917 N 551.331 -1.39911 -0.725443 0
M  V30 5918 C 552.559 -1.40949 -1.51463 0
M  V30 5919 C 552.974 -0.0065242 -1.88799 0
M  V30 5920 O 552.331 0.967163 -1.54765 0
M  V30 5921 C 552.382 -2.29119 -2.79619 0
M  V30 5922 O 552.103 -3.63952 -2.43866 0
M  V30 5923 C 553.604 -2.38642 -3.73584 0
M  V30 5924 H 550.824 -0.481091 -0.467752 0
M  V30 5925 H 553.368 -1.83843 -0.895651 0
M  V30 5926 H 551.523 -1.89612 -3.37826 0
M  V30 5927 H 551.937 -4.10677 -3.26258 0
M  V30 5928 H 553.411 -3.04563 -4.60375 0
M  V30 5929 H 553.888 -1.40846 -4.16004 0
M  V30 5930 H 554.494 -2.78659 -3.21293 0
M  V30 5931 N 552.809 0.956637 -1.25245 0
M  V30 5932 C 553.741 2.05628 -1.01242 0
M  V30 5933 C 554.754 1.62785 0.0219579 0
M  V30 5934 O 555.943 1.77184 -0.216365 0
M  V30 5935 C 553.043 3.35069 -0.508161 0
M  V30 5936 C 552.216 4.06761 -1.60823 0
M  V30 5937 C 551.275 5.14473 -1.1047 0
M  V30 5938 O 550.301 5.40033 -1.79868 0
M  V30 5939 N 551.503 5.80474 0.0550773 0
M  V30 5940 H 554.268 2.2679 -1.95925 0
M  V30 5941 H 551.829 1.12505 -1.16423 0
M  V30 5942 H 553.821 4.044 -0.155819 0
M  V30 5943 H 552.391 3.10694 0.344683 0
M  V30 5944 H 551.611 3.31555 -2.13224 0
M  V30 5945 H 552.899 4.51418 -2.34733 0
M  V30 5946 H 552.297 5.62125 0.635004 0
M  V30 5947 H 550.854 6.50868 0.348469 0
M  V30 5948 N 554.287 1.06798 1.15896 0
M  V30 5949 C 555.564 0.701057 1.82605 0
M  V30 5950 C 555.944 -0.817066 1.94646 0
M  V30 5951 O 555.292 -1.72933 1.49353 0
M  V30 5952 C 555.502 1.40895 3.19296 0
M  V30 5953 C 556.85 1.55744 3.95005 0
M  V30 5954 O 557.874 1.36927 3.28831 0
M  V30 5955 O 556.733 1.86658 5.13635 0
M  V30 5956 H 553.827 0.248791 0.78869 0
M  V30 5957 H 556.373 1.16857 1.23055 0
M  V30 5958 H 555.145 2.4439 3.05596 0
M  V30 5959 H 554.768 0.931847 3.86526 0
M  V30 5960 N 555.766 -1.3263 0.851289 0
M  V30 5961 C 557.013 -1.97368 0.453023 0
M  V30 5962 C 557.341 -1.67384 -0.990596 0
M  V30 5963 O 556.596 -0.952665 -1.70947 0
M  V30 5964 C 556.895 -3.51713 0.635015 0
M  V30 5965 C 556.561 -4.01676 2.04859 0
M  V30 5966 C 555.223 -4.15031 2.43522 0
M  V30 5967 C 557.575 -4.28206 2.97135 0
M  V30 5968 C 554.903 -4.52257 3.73739 0
M  V30 5969 C 557.255 -4.66889 4.26846 0
M  V30 5970 C 555.919 -4.7845 4.65448 0
M  V30 5971 H 555.189 -0.722219 0.165773 0
M  V30 5972 H 557.836 -1.58092 1.0807 0
M  V30 5973 H 556.141 -3.91726 -0.0759081 0
M  V30 5974 H 557.838 -3.99823 0.306964 0
M  V30 5975 H 554.428 -3.91764 1.73836 0
M  V30 5976 H 558.612 -4.174 2.68498 0
M  V30 5977 H 553.868 -4.59402 4.03435 0
M  V30 5978 H 558.042 -4.86372 4.98413 0
M  V30 5979 H 555.669 -5.07052 5.66395 0
M  V30 5980 N 557.244 -0.608902 -1.45362 0
M  V30 5981 C 558.49 -0.113196 -2.03085 0
M  V30 5982 C 558.845 1.24288 -1.46868 0
M  V30 5983 O 558.138 1.80792 -0.634402 0
M  V30 5984 C 558.332 -0.0167296 -3.57396 0
M  V30 5985 C 558.161 -1.36191 -4.28581 0
M  V30 5986 C 556.931 -1.94295 -4.66452 0
M  V30 5987 C 559.129 -2.29097 -4.60455 0
M  V30 5988 N 557.111 -3.2228 -5.22503 0
M  V30 5989 C 558.482 -3.41681 -5.17353 0
M  V30 5990 C 560.537 -2.28453 -4.42395 0
M  V30 5991 C 559.24 -4.53789 -5.58093 0
M  V30 5992 C 561.266 -3.39608 -4.8417 0
M  V30 5993 C 560.628 -4.50915 -5.41161 0
M  V30 5994 H 556.727 -0.0848213 -0.777386 0
M  V30 5995 H 559.311 -0.807541 -1.77163 0
M  V30 5996 H 557.482 0.646839 -3.82976 0
M  V30 5997 H 559.214 0.485757 -4.01774 0
M  V30 5998 H 555.969 -1.47486 -4.5005 0
M  V30 5999 H 556.393 -3.87654 -5.55025 0
M  V30 6000 H 561.035 -1.43658 -3.97646 0
M  V30 6001 H 558.753 -5.39307 -6.01808 0
M  V30 6002 H 562.339 -3.40259 -4.71927 0
M  V30 6003 H 561.219 -5.35505 -5.72891 0
M  V30 6004 N 558.722 1.53707 -0.348139 0
M  V30 6005 C 559.632 2.28881 0.514857 0
M  V30 6006 C 560.648 1.34168 1.10793 0
M  V30 6007 O 561.824 1.6721 1.12262 0
M  V30 6008 C 558.889 3.05042 1.64774 0
M  V30 6009 C 557.95 4.15389 1.08398 0
M  V30 6010 C 557.183 4.87909 2.16287 0
M  V30 6011 O 557.406 4.60137 3.3709 0
M  V30 6012 O 556.34 5.74254 1.80323 0
M  V30 6013 H 560.166 3.03547 -0.0963699 0
M  V30 6014 H 557.751 1.48972 -0.113043 0
M  V30 6015 H 559.633 3.52656 2.30677 0
M  V30 6016 H 558.308 2.33228 2.24469 0
M  V30 6017 H 557.215 3.72068 0.389341 0
M  V30 6018 H 558.548 4.89318 0.531829 0
M  V30 6019 N 560.2 0.0768682 1.57412 0
M  V30 6020 C 561.148 -0.906229 2.1422 0
M  V30 6021 C 562.142 -1.30477 1.08037 0
M  V30 6022 O 563.348 -1.28143 1.2641 0
M  V30 6023 H 559.723 -0.310207 0.685037 0
M  V30 6024 H 561.694 -0.402228 2.95677 0
M  V30 6025 C 560.443 -2.16245 2.72274 0
M  V30 6026 H 559.766 -1.86463 3.53655 0
M  V30 6027 H 561.206 -2.83134 3.15613 0
M  V30 6028 C 559.665 -2.92437 1.67279 0
M  V30 6029 O 560.195 -3.86322 1.10081 0
M  V30 6030 N 558.401 -2.55637 1.38195 0
M  V30 6031 H 557.948 -1.79363 1.84897 0
M  V30 6032 H 557.906 -3.06919 0.681787 0
M  V30 6033 N 561.678 -1.56367 -0.196722 0
M  V30 6034 C 562.608 -1.97442 -1.24655 0
M  V30 6035 C 563.589 -0.846147 -1.47561 0
M  V30 6036 O 564.774 -1.11035 -1.59326 0
M  V30 6037 C 561.904 -2.31253 -2.59112 0
M  V30 6038 C 560.858 -3.46804 -2.50821 0
M  V30 6039 C 560.184 -3.66286 -3.89536 0
M  V30 6040 C 561.484 -4.8104 -2.03465 0
M  V30 6041 H 563.178 -2.85388 -0.905216 0
M  V30 6042 H 560.724 -1.37304 -0.434002 0
M  V30 6043 H 562.677 -2.58583 -3.32736 0
M  V30 6044 H 561.401 -1.40188 -2.94983 0
M  V30 6045 H 560.06 -3.19563 -1.79653 0
M  V30 6046 H 559.708 -2.72555 -4.22756 0
M  V30 6047 H 559.408 -4.4402 -3.84864 0
M  V30 6048 H 560.932 -3.9599 -4.64784 0
M  V30 6049 H 562.346 -5.07411 -2.66846 0
M  V30 6050 H 560.743 -5.62232 -2.09798 0
M  V30 6051 H 561.813 -4.74732 -0.98781 0
M  V30 6052 N 563.156 0.464375 -1.50603 0
M  V30 6053 C 564.386 1.23727 -1.65454 0
M  V30 6054 C 564.794 1.86119 -0.340032 0
M  V30 6055 O 564.137 1.70301 0.688706 0
M  V30 6056 C 564.199 2.38153 -2.69301 0
M  V30 6057 C 563.863 1.96345 -4.12671 0
M  V30 6058 C 564.86 1.48215 -4.98326 0
M  V30 6059 C 562.545 2.04861 -4.58625 0
M  V30 6060 C 564.539 1.09152 -6.27985 0
M  V30 6061 C 562.226 1.65409 -5.88288 0
M  V30 6062 C 563.224 1.17634 -6.72794 0
M  V30 6063 O 562.912 0.787312 -8.00035 0
M  V30 6064 H 562.644 0.380075 -0.559034 0
M  V30 6065 H 565.198 0.559919 -1.97621 0
M  V30 6066 H 563.428 3.09081 -2.32392 0
M  V30 6067 H 565.117 3.00099 -2.73304 0
M  V30 6068 H 565.883 1.41052 -4.64036 0
M  V30 6069 H 561.762 2.40996 -3.92991 0
M  V30 6070 H 565.306 0.717909 -6.93896 0
M  V30 6071 H 561.203 1.72233 -6.22098 0
M  V30 6072 H 561.971 0.915567 -8.13363 0
M  V30 6073 N 564.634 1.40294 0.718013 0
M  V30 6074 C 565.566 1.36281 1.84283 0
M  V30 6075 C 566.579 0.268621 1.60569 0
M  V30 6076 O 567.768 0.528798 1.70487 0
M  V30 6077 C 564.868 1.09741 3.2064 0
M  V30 6078 C 564.041 2.30767 3.71571 0
M  V30 6079 C 563.1 2.00424 4.86535 0
M  V30 6080 O 562.126 2.73268 4.99313 0
M  V30 6081 N 563.328 0.980724 5.72156 0
M  V30 6082 H 566.093 2.3322 1.88225 0
M  V30 6083 H 563.654 1.34616 0.899453 0
M  V30 6084 H 565.646 0.874322 3.95143 0
M  V30 6085 H 564.216 0.214771 3.11861 0
M  V30 6086 H 563.436 2.68921 2.88228 0
M  V30 6087 H 564.724 3.11455 4.02335 0
M  V30 6088 H 564.122 0.377375 5.6444 0
M  V30 6089 H 562.679 0.817538 6.46653 0
M  V30 6090 N 566.112 -0.949982 1.2575 0
M  V30 6091 C 567.044 -2.05088 1.02331 0
M  V30 6092 C 568.057 -1.62795 -0.0133247 0
M  V30 6093 O 569.246 -1.77067 0.225759 0
M  V30 6094 C 566.346 -3.34794 0.525924 0
M  V30 6095 C 565.519 -4.05903 1.62978 0
M  V30 6096 C 564.578 -5.1388 1.13196 0
M  V30 6097 O 563.604 -5.39072 1.82729 0
M  V30 6098 N 564.806 -5.80495 -0.0242926 0
M  V30 6099 H 567.571 -2.25747 1.97125 0
M  V30 6100 H 565.132 -1.11886 1.17018 0
M  V30 6101 H 567.124 -4.04312 0.177263 0
M  V30 6102 H 565.694 -3.10872 -0.328202 0
M  V30 6103 H 564.914 -3.3042 2.1498 0
M  V30 6104 H 566.202 -4.50166 2.37124 0
M  V30 6105 H 565.6 -5.62454 -0.605184 0
M  V30 6106 H 564.157 -6.51043 -0.313947 0
M  V30 6107 N 567.59 -1.07411 -1.15328 0
M  V30 6108 C 568.836 -0.798831 -1.86404 0
M  V30 6109 C 569.169 0.673433 -1.8215 0
M  V30 6110 O 568.444 1.49428 -1.24505 0
M  V30 6111 C 568.727 -1.30846 -3.35487 0
M  V30 6112 C 568.58 -2.84532 -3.4837 0
M  V30 6113 C 569.899 -0.925486 -4.30259 0
M  V30 6114 H 567.018 -0.291659 -0.676834 0
M  V30 6115 H 569.66 -1.332 -1.35491 0
M  V30 6116 H 567.81 -0.854916 -3.78977 0
M  V30 6117 H 569.482 -3.3818 -3.13739 0
M  V30 6118 H 567.725 -3.22699 -2.8991 0
M  V30 6119 H 568.396 -3.15259 -4.53118 0
M  V30 6120 H 570.872 -1.3163 -3.94731 0
M  V30 6121 H 569.748 -1.3094 -5.33053 0
M  V30 6122 H 570.009 0.168525 -4.41779 0
M  V30 6123 N 569.068 1.32177 -0.85831 0
M  V30 6124 C 569.998 2.31282 -0.321041 0
M  V30 6125 C 570.979 1.59841 0.581786 0
M  V30 6126 O 572.164 1.87619 0.501262 0
M  V30 6127 C 569.294 3.4385 0.48832 0
M  V30 6128 C 568.248 4.26799 -0.320391 0
M  V30 6129 C 567.574 5.31164 0.613934 0
M  V30 6130 C 568.874 4.98829 -1.54813 0
M  V30 6131 H 570.568 2.76469 -1.14915 0
M  V30 6132 H 568.114 1.32916 -0.554028 0
M  V30 6133 H 570.067 4.12224 0.874626 0
M  V30 6134 H 568.791 2.97401 1.34983 0
M  V30 6135 H 567.45 3.60077 -0.688497 0
M  V30 6136 H 567.098 4.80967 1.47239 0
M  V30 6137 H 566.798 5.8755 0.0768097 0
M  V30 6138 H 568.322 6.024 0.997336 0
M  V30 6139 H 569.736 5.59864 -1.23392 0
M  V30 6140 H 568.133 5.64957 -2.02346 0
M  V30 6141 H 569.203 4.26483 -2.30739 0
M  V30 6142 N 570.547 0.616602 1.45037 0
M  V30 6143 C 571.963 0.280994 1.57107 0
M  V30 6144 C 572.163 -1.21627 1.60653 0
M  V30 6145 O 571.219 -1.9997 1.54169 0
M  V30 6146 C 572.532 0.960116 2.8496 0
M  V30 6147 C 574.08 0.936884 2.98649 0
M  V30 6148 C 574.555 1.59619 4.29285 0
M  V30 6149 N 576.046 1.5621 4.36065 0
M  V30 6150 C 576.781 2.04131 5.35834 0
M  V30 6151 N 576.277 2.60177 6.4209 0
M  V30 6152 N 578.07 1.94845 5.27249 0
M  V30 6153 H 570.221 1.58867 1.40979 0
M  V30 6154 H 572.484 0.666024 0.674623 0
M  V30 6155 H 572.19 2.01473 2.88273 0
M  V30 6156 H 572.064 0.488921 3.74018 0
M  V30 6157 H 574.451 -0.109209 2.94898 0
M  V30 6158 H 574.532 1.44643 2.10979 0
M  V30 6159 H 574.176 2.64166 4.33796 0
M  V30 6160 H 574.106 1.06159 5.15789 0
M  V30 6161 H 576.597 1.15276 3.59889 0
M  V30 6162 H 576.91 2.94513 7.1448 0
M  V30 6163 H 575.255 2.64221 6.42816 0
M  V30 6164 H 578.446 1.50792 4.43147 0
M  V30 6165 H 578.619 2.32504 6.04852 0
M  V30 6166 N 572.025 -1.5352 0.356285 0
M  V30 6167 C 573.25 -2.06007 -0.239961 0
M  V30 6168 C 573.675 -1.22872 -1.42422 0
M  V30 6169 O 573.033 -0.245516 -1.7963 0
M  V30 6170 C 573.081 -3.5522 -0.620587 0
M  V30 6171 O 572.185 -3.74864 -1.71902 0
M  V30 6172 H 571.526 -0.662961 -0.0371377 0
M  V30 6173 H 574.056 -1.98033 0.514194 0
M  V30 6174 H 574.066 -3.98081 -0.894197 0
M  V30 6175 H 572.741 -4.15175 0.245407 0
M  V30 6176 H 571.318 -3.43904 -1.44169 0
M  V30 6177 N 573.503 -0.0852151 -1.57369 0
M  V30 6178 C 574.466 0.8627 -2.12344 0
M  V30 6179 C 575.466 1.21746 -1.05046 0
M  V30 6180 O 576.656 1.14852 -1.30976 0
M  V30 6181 C 573.788 2.1618 -2.63589 0
M  V30 6182 H 574.981 0.385511 -2.97412 0
M  V30 6183 H 572.534 0.163663 -1.55441 0
M  V30 6184 H 573.269 2.68406 -1.82013 0
M  V30 6185 H 573.054 1.91723 -3.4203 0
M  V30 6186 H 574.544 2.84011 -3.06149 0
M  V30 6187 N 574.981 1.5647 0.188427 0
M  V30 6188 C 576.229 1.80655 0.905986 0
M  V30 6189 C 576.55 0.659391 1.83513 0
M  V30 6190 O 575.82 -0.321868 1.93238 0
M  V30 6191 H 574.4 0.666391 0.337538 0
M  V30 6192 H 577.062 1.93949 0.192339 0
M  V30 6193 H 576.158 2.74066 1.49313 0
M  V30 6194 N 576.459 -0.456382 1.50847 0
M  V30 6195 C 577.87 -1.03685 1.55262 0
M  V30 6196 C 578.221 -1.92779 0.364771 0
M  V30 6197 O 577.346 -2.10043 -0.52068 0
M  V30 6198 C 577.941 -1.88718 2.81374 0
M  V30 6199 C 576.5 -2.41847 2.88422 0
M  V30 6200 C 575.647 -1.20564 2.49719 0
M  V30 6201 H 578.598 -0.238399 1.56899 0
M  V30 6202 H 578.619 -2.73957 2.6406 0
M  V30 6203 H 578.131 -1.23847 3.67809 0
M  V30 6204 H 576.232 -3.10228 2.06372 0
M  V30 6205 H 576.345 -2.75947 3.9165 0
M  V30 6206 H 574.709 -1.54504 2.02486 0
M  V30 6207 H 575.492 -0.573326 3.38479 0
M  V30 6208 N 577.937 -1.40673 -0.710563 0
M  V30 6209 C 579.183 -1.4043 -1.47142 0
M  V30 6210 C 579.538 -0.00781557 -1.92398 0
M  V30 6211 O 578.831 0.963535 -1.6561 0
M  V30 6212 C 579.025 -2.33253 -2.70791 0
M  V30 6213 C 578.854 -3.81789 -2.37629 0
M  V30 6214 C 577.624 -4.5057 -2.28724 0
M  V30 6215 C 579.822 -4.73152 -2.01572 0
M  V30 6216 N 577.804 -5.84312 -1.88289 0
M  V30 6217 C 579.175 -5.95728 -1.71778 0
M  V30 6218 C 581.23 -4.6094 -1.88252 0
M  V30 6219 C 579.933 -7.07454 -1.30003 0
M  V30 6220 C 581.959 -5.72613 -1.47881 0
M  V30 6221 C 581.321 -6.94278 -1.18987 0
M  V30 6222 H 577.42 -0.569115 -0.536314 0
M  V30 6223 H 580.004 -1.76425 -0.823547 0
M  V30 6224 H 578.175 -1.99378 -3.33321 0
M  V30 6225 H 579.907 -2.23833 -3.37166 0
M  V30 6226 H 576.662 -4.04315 -2.46629 0
M  V30 6227 H 577.086 -6.55153 -1.70596 0
M  V30 6228 H 581.728 -3.67389 -2.09249 0
M  V30 6229 H 579.446 -8.00884 -1.07749 0
M  V30 6230 H 583.032 -5.65161 -1.38145 0
M  V30 6231 H 581.912 -7.79222 -0.88219 0
M  V30 6232 N 579.415 0.9433 -1.26252 0
M  V30 6233 C 580.365 2.02746 -1.04297 0
M  V30 6234 C 581.349 1.60882 0.0239435 0
M  V30 6235 O 582.541 1.75947 -0.192757 0
M  V30 6236 C 579.67 3.36585 -0.6757 0
M  V30 6237 C 578.756 3.84939 -1.77996 0
M  V30 6238 N 579.147 4.05966 -3.01704 0
M  V30 6239 C 577.445 4.13833 -1.66308 0
M  V30 6240 C 578.146 4.45987 -3.73458 0
M  V30 6241 N 577.122 4.52569 -3.01135 0
M  V30 6242 H 580.924 2.17012 -1.98199 0
M  V30 6243 H 578.438 1.12898 -1.16738 0
M  V30 6244 H 580.435 4.13896 -0.499571 0
M  V30 6245 H 579.095 3.2369 0.255863 0
M  V30 6246 H 580.106 3.92716 -3.37631 0
M  V30 6247 H 576.783 4.09739 -0.801267 0
M  V30 6248 H 578.173 4.70465 -4.79701 0
M  V30 6249 N 580.893 1.08022 1.14757 0
M  V30 6250 C 581.826 0.650738 2.18725 0
M  V30 6251 C 582.804 -0.335496 1.59101 0
M  V30 6252 O 583.988 -0.240295 1.86962 0
M  V30 6253 C 581.115 -0.0434377 3.38672 0
M  V30 6254 C 580.161 0.90232 4.16846 0
M  V30 6255 S 580.994 2.40693 4.78359 0
M  V30 6256 C 582.15 1.72475 6.01667 0
M  V30 6257 H 582.383 1.53152 2.54817 0
M  V30 6258 H 579.916 0.894823 1.25826 0
M  V30 6259 H 581.874 -0.437684 4.0816 0
M  V30 6260 H 580.535 -0.900659 3.0091 0
M  V30 6261 H 579.728 0.363445 5.02688 0
M  V30 6262 H 579.33 1.23728 3.52941 0
M  V30 6263 H 581.622 1.0404 6.69464 0
M  V30 6264 H 582.565 2.56175 6.60136 0
M  V30 6265 H 582.973 1.19979 5.51602 0
M  V30 6266 N 582.371 -1.3172 0.865308 0
M  V30 6267 C 583.301 -2.31109 0.333302 0
M  V30 6268 C 584.282 -1.60148 -0.573301 0
M  V30 6269 O 585.467 -1.87882 -0.491305 0
M  V30 6270 C 582.597 -3.44104 -0.470078 0
M  V30 6271 C 581.551 -4.26623 0.343021 0
M  V30 6272 C 580.877 -5.31482 -0.585756 0
M  V30 6273 C 582.177 -4.98001 1.57456 0
M  V30 6274 H 583.871 -2.75855 1.1638 0
M  V30 6275 H 581.417 -1.3262 0.561069 0
M  V30 6276 H 583.37 -4.12682 -0.852752 0
M  V30 6277 H 582.094 -2.98112 -1.33404 0
M  V30 6278 H 580.753 -3.59707 0.707583 0
M  V30 6279 H 580.401 -4.81741 -1.44686 0
M  V30 6280 H 580.101 -5.87582 -0.0456494 0
M  V30 6281 H 581.625 -6.0292 -0.965375 0
M  V30 6282 H 583.039 -5.59201 1.26359 0
M  V30 6283 H 581.436 -5.63876 2.05339 0
M  V30 6284 H 582.506 -4.25253 2.32997 0
M  V30 6285 N 583.85 -0.624285 -1.44708 0
M  V30 6286 C 585.096 -0.126051 -2.02107 0
M  V30 6287 C 585.425 1.2496 -1.49048 0
M  V30 6288 O 584.68 1.84163 -0.662005 0
M  V30 6289 C 584.979 -0.0546353 -3.57358 0
M  V30 6290 C 584.644 -1.36815 -4.29642 0
M  V30 6291 C 583.307 -1.72792 -4.49106 0
M  V30 6292 C 585.659 -2.23549 -4.70824 0
M  V30 6293 C 582.986 -2.95222 -5.07012 0
M  V30 6294 C 585.339 -3.45243 -5.30085 0
M  V30 6295 C 584.003 -3.81452 -5.47769 0
M  V30 6296 H 583.273 -0.0461252 -0.739563 0
M  V30 6297 H 585.92 -0.809236 -1.73562 0
M  V30 6298 H 584.225 0.711891 -3.85278 0
M  V30 6299 H 585.922 0.347282 -3.99493 0
M  V30 6300 H 582.512 -1.07817 -4.14817 0
M  V30 6301 H 586.696 -1.9705 -4.55505 0
M  V30 6302 H 581.952 -3.23361 -5.18891 0
M  V30 6303 H 586.125 -4.12689 -5.60946 0
M  V30 6304 H 583.753 -4.76403 -5.92405 0
M  V30 6305 N 585.328 1.53329 -0.364422 0
M  V30 6306 C 586.575 2.01239 0.225634 0
M  V30 6307 C 586.903 1.25172 1.48869 0
M  V30 6308 O 586.158 0.333289 1.92841 0
M  V30 6309 C 586.457 3.52911 0.564661 0
M  V30 6310 C 586.123 4.46837 -0.603936 0
M  V30 6311 C 584.785 4.72234 -0.924585 0
M  V30 6312 C 587.137 5.02409 -1.38691 0
M  V30 6313 C 584.465 5.50454 -2.0302 0
M  V30 6314 C 586.817 5.81836 -2.48293 0
M  V30 6315 C 585.481 6.0552 -2.80894 0
M  V30 6316 H 584.751 0.736386 0.0825654 0
M  V30 6317 H 587.398 1.84948 -0.496645 0
M  V30 6318 H 585.703 3.67144 1.36794 0
M  V30 6319 H 587.4 3.87455 1.03344 0
M  V30 6320 H 583.99 4.27217 -0.343983 0
M  V30 6321 H 588.174 4.82735 -1.15243 0
M  V30 6322 H 583.43 5.67024 -2.28678 0
M  V30 6323 H 587.604 6.23905 -3.0938 0
M  V30 6324 H 585.231 6.65916 -3.66688 0
M  V30 6325 N 586.806 0.0935595 1.57322 0
M  V30 6326 C 588.055 -0.570191 1.93473 0
M  V30 6327 C 588.368 -1.69434 0.977318 0
M  V30 6328 O 589.574 -2.41914 1.23248 0
M  V30 6329 C 588.03 -1.06564 3.43762 0
M  V30 6330 C 587.638 0.0286723 4.47991 0
M  V30 6331 C 589.382 -1.70221 3.88877 0
M  V30 6332 C 587.289 -0.482046 5.89432 0
M  V30 6333 H 586.219 -0.216764 0.72217 0
M  V30 6334 H 588.87 0.169313 1.82717 0
M  V30 6335 H 587.252 -1.85878 3.49664 0
M  V30 6336 H 588.426 0.804106 4.5373 0
M  V30 6337 H 586.741 0.570336 4.12476 0
M  V30 6338 H 589.338 -2.09502 4.91948 0
M  V30 6339 H 589.681 -2.57078 3.27439 0
M  V30 6340 H 590.214 -0.974919 3.85668 0
M  V30 6341 H 586.953 0.349871 6.54566 0
M  V30 6342 H 586.473 -1.22452 5.87167 0
M  V30 6343 H 588.152 -0.951508 6.39965 0
M  V30 6344 N 588.284 -1.56567 -0.180126 0
M  V30 6345 C 589.53 -1.81761 -0.899497 0
M  V30 6346 C 589.863 -0.670015 -1.82276 0
M  V30 6347 O 589.138 0.328575 -1.91705 0
M  V30 6348 C 589.421 -3.17296 -1.7028 0
M  V30 6349 C 589.274 -4.4257 -0.803255 0
M  V30 6350 C 590.593 -3.49678 -2.67233 0
M  V30 6351 H 587.712 -0.661192 -0.325567 0
M  V30 6352 H 590.354 -1.89272 -0.16612 0
M  V30 6353 H 588.504 -3.11023 -2.32802 0
M  V30 6354 H 590.176 -4.60902 -0.191585 0
M  V30 6355 H 588.419 -4.33658 -0.110796 0
M  V30 6356 H 589.09 -5.33935 -1.40064 0
M  V30 6357 H 591.566 -3.56347 -2.14839 0
M  V30 6358 H 590.442 -4.45605 -3.20511 0
M  V30 6359 H 590.703 -2.73932 -3.47007 0
M  V30 6360 N 589.762 0.448376 -1.51087 0
M  V30 6361 C 591.011 1.19561 -1.62444 0
M  V30 6362 C 591.324 1.92602 -0.341151 0
M  V30 6363 O 592.53 2.69439 -0.333936 0
M  V30 6364 C 590.986 2.17373 -2.8684 0
M  V30 6365 C 590.594 1.5003 -4.22131 0
M  V30 6366 C 592.338 2.92597 -3.0755 0
M  V30 6367 C 590.245 2.46262 -5.37689 0
M  V30 6368 H 589.175 0.449975 -0.605011 0
M  V30 6369 H 591.826 0.463735 -1.77544 0
M  V30 6370 H 590.208 2.93948 -2.65349 0
M  V30 6371 H 591.382 0.790886 -4.53962 0
M  V30 6372 H 589.697 0.870011 -4.0721 0
M  V30 6373 H 592.294 3.64663 -3.91056 0
M  V30 6374 H 592.637 3.53306 -2.20183 0
M  V30 6375 H 593.17 2.23131 -3.29329 0
M  V30 6376 H 589.909 1.90258 -6.27281 0
M  V30 6377 H 589.429 3.15289 -5.10248 0
M  V30 6378 H 591.108 3.07623 -5.6919 0
M  V30 6379 N 591.24 1.41047 0.703093 0
M  V30 6380 C 592.489 1.39301 1.4587 0
M  V30 6381 C 592.802 0.00267077 1.956 0
M  V30 6382 O 594.008 -0.137414 2.71152 0
M  V30 6383 C 592.464 2.44891 2.63735 0
M  V30 6384 C 592.072 3.89796 2.20824 0
M  V30 6385 C 593.816 2.5227 3.41409 0
M  V30 6386 C 591.723 4.86955 3.35602 0
M  V30 6387 H 590.653 0.518005 0.547893 0
M  V30 6388 H 593.304 1.66839 0.764009 0
M  V30 6389 H 591.686 2.10472 3.35436 0
M  V30 6390 H 592.86 4.33424 1.56461 0
M  V30 6391 H 591.175 3.86008 1.56163 0
M  V30 6392 H 593.772 3.22044 4.26839 0
M  V30 6393 H 594.115 1.55714 3.86081 0
M  V30 6394 H 594.648 2.85742 2.7676 0
M  V30 6395 H 591.387 5.84888 2.9595 0
M  V30 6396 H 590.907 4.47982 3.98839 0
M  V30 6397 H 592.586 5.07361 4.01489 0
M  V30 6398 N 592.718 -0.936591 1.26751 0
M  V30 6399 C 593.965 -1.68331 1.12566 0
M  V30 6400 C 594.293 -1.91677 -0.330168 0
M  V30 6401 O 593.548 -1.49859 -1.2586 0
M  V30 6402 C 593.847 -3.06099 1.84494 0
M  V30 6403 C 593.513 -3.02493 3.34378 0
M  V30 6404 C 592.175 -3.01217 3.75262 0
M  V30 6405 C 594.527 -2.94453 4.30055 0
M  V30 6406 C 591.855 -2.89672 5.10203 0
M  V30 6407 C 594.207 -2.84449 5.65041 0
M  V30 6408 C 592.871 -2.81518 6.0523 0
M  V30 6409 H 592.141 -0.615965 0.411907 0
M  V30 6410 H 594.788 -1.09292 1.5725 0
M  V30 6411 H 593.093 -3.6879 1.32292 0
M  V30 6412 H 594.79 -3.62733 1.70955 0
M  V30 6413 H 591.38 -3.04269 3.01858 0
M  V30 6414 H 595.564 -2.94544 3.99447 0
M  V30 6415 H 590.82 -2.85783 5.40498 0
M  V30 6416 H 594.994 -2.77192 6.38856 0
M  V30 6417 H 592.621 -2.72329 7.09747 0
M  V30 6418 N 594.196 -1.08629 -1.14182 0
M  V30 6419 C 595.126 -0.740003 -2.21464 0
M  V30 6420 C 596.107 0.278591 -1.67803 0
M  V30 6421 O 597.292 0.148461 -1.93632 0
M  V30 6422 C 594.422 -0.150952 -3.46972 0
M  V30 6423 C 593.376 -1.09815 -4.13672 0
M  V30 6424 C 592.702 -0.3712 -5.3341 0
M  V30 6425 C 594.002 -2.43722 -4.61949 0
M  V30 6426 H 595.696 -1.63697 -2.50686 0
M  V30 6427 H 593.242 -0.788526 -1.20492 0
M  V30 6428 H 595.195 0.103325 -4.21273 0
M  V30 6429 H 593.919 0.781164 -3.1712 0
M  V30 6430 H 592.578 -1.33756 -3.41328 0
M  V30 6431 H 592.226 0.564792 -4.99819 0
M  V30 6432 H 591.926 -1.00267 -5.78982 0
M  V30 6433 H 593.45 -0.12503 -6.10472 0
M  V30 6434 H 594.864 -2.24034 -5.27714 0
M  V30 6435 H 593.261 -3.02582 -5.18232 0
M  V30 6436 H 594.331 -3.05082 -3.76899 0
M  V30 6437 N 595.674 1.31259 -0.872281 0
M  V30 6438 C 596.922 1.96233 -0.483409 0
M  V30 6439 C 597.243 1.69276 0.968012 0
M  V30 6440 O 596.513 1.00943 1.67891 0
M  V30 6441 H 595.093 0.726025 -0.175774 0
M  V30 6442 H 597.755 1.60024 -1.11258 0
M  V30 6443 H 596.851 3.05403 -0.643075 0
M  V30 6444 N 597.152 0.631951 1.44375 0
M  V30 6445 C 598.377 0.142146 2.06912 0
M  V30 6446 C 598.802 -1.17456 1.4692 0
M  V30 6447 O 598.16 -1.72074 0.570975 0
M  V30 6448 C 598.208 0.0417952 3.60576 0
M  V30 6449 O 597.312 -1.00194 4.00044 0
M  V30 6450 H 596.653 0.0851491 0.658518 0
M  V30 6451 H 599.183 0.868863 1.85235 0
M  V30 6452 H 599.193 -0.148517 4.0773 0
M  V30 6453 H 597.868 1.0031 4.03622 0
M  V30 6454 H 596.445 -0.786131 3.64519 0
M  V30 6455 N 598.631 -1.53133 0.372548 0
M  V30 6456 C 599.878 -2.01356 -0.214959 0
M  V30 6457 C 600.206 -1.2596 -1.48204 0
M  V30 6458 O 599.461 -0.343511 -1.92662 0
M  V30 6459 C 599.76 -3.53206 -0.545938 0
M  V30 6460 C 599.426 -4.46511 0.627624 0
M  V30 6461 C 598.088 -4.71737 0.949615 0
M  V30 6462 C 600.44 -5.01666 1.41353 0
M  V30 6463 C 597.768 -5.4937 2.05936 0
M  V30 6464 C 600.12 -5.80511 2.51375 0
M  V30 6465 C 598.784 -6.04022 2.84101 0
M  V30 6466 H 598.054 -0.736813 -0.078659 0
M  V30 6467 H 600.701 -1.84682 0.506447 0
M  V30 6468 H 599.006 -3.67864 -1.34845 0
M  V30 6469 H 600.703 -3.87997 -1.01287 0
M  V30 6470 H 597.293 -4.27029 0.366635 0
M  V30 6471 H 601.477 -4.82117 1.17802 0
M  V30 6472 H 596.733 -5.65803 2.31682 0
M  V30 6473 H 600.907 -6.22255 3.12684 0
M  V30 6474 H 598.534 -6.63962 3.70214 0
M  V30 6475 N 600.109 -0.101901 -1.5727 0
M  V30 6476 C 601.339 0.567568 -1.98651 0
M  V30 6477 C 601.747 1.61839 -0.980037 0
M  V30 6478 O 601.09 1.83661 0.0376564 0
M  V30 6479 C 601.152 1.26742 -3.36417 0
M  V30 6480 C 600.816 0.366561 -4.55528 0
M  V30 6481 C 601.813 -0.388022 -5.1845 0
M  V30 6482 C 599.498 0.282629 -5.01504 0
M  V30 6483 C 601.492 -1.21445 -6.25724 0
M  V30 6484 C 599.179 -0.547443 -6.08643 0
M  V30 6485 C 600.177 -1.29462 -6.70618 0
M  V30 6486 O 599.865 -2.11095 -7.7569 0
M  V30 6487 H 599.597 0.156282 -0.657687 0
M  V30 6488 H 602.151 -0.179912 -2.04611 0
M  V30 6489 H 600.381 2.06162 -3.27161 0
M  V30 6490 H 602.07 1.8321 -3.622 0
M  V30 6491 H 602.836 -0.332949 -4.83856 0
M  V30 6492 H 598.715 0.853868 -4.53023 0
M  V30 6493 H 602.259 -1.79814 -6.74027 0
M  V30 6494 H 598.156 -0.603971 -6.42668 0
M  V30 6495 H 598.924 -2.03851 -7.92709 0
M  V30 6496 N 601.587 1.56661 0.17182 0
M  V30 6497 C 602.517 1.99401 1.21498 0
M  V30 6498 C 603.498 0.869516 1.46197 0
M  V30 6499 O 604.683 1.13556 1.57539 0
M  V30 6500 C 601.813 2.35346 2.55401 0
M  V30 6501 C 600.767 3.5075 2.45272 0
M  V30 6502 C 600.093 3.72437 3.8366 0
M  V30 6503 C 601.393 4.84216 1.95787 0
M  V30 6504 H 603.087 2.86792 0.859699 0
M  V30 6505 H 600.633 1.37977 0.412103 0
M  V30 6506 H 602.586 2.63843 3.2858 0
M  V30 6507 H 601.31 1.44864 2.92715 0
M  V30 6508 H 599.969 3.2238 1.74547 0
M  V30 6509 H 599.617 2.79246 4.18367 0
M  V30 6510 H 599.317 4.50087 3.77751 0
M  V30 6511 H 600.841 4.03334 4.58426 0
M  V30 6512 H 602.255 5.11592 2.5874 0
M  V30 6513 H 600.652 5.65498 2.00827 0
M  V30 6514 H 601.722 4.76243 0.912159 0
M  V30 6515 N 603.065 -0.440357 1.51323 0
M  V30 6516 C 604.311 -1.19181 1.64085 0
M  V30 6517 C 604.644 -1.90936 0.354575 0
M  V30 6518 O 603.919 -1.8347 -0.645675 0
M  V30 6519 C 604.202 -2.2112 2.84215 0
M  V30 6520 C 604.055 -1.53468 4.22809 0
M  V30 6521 C 605.374 -3.22133 2.99864 0
M  V30 6522 H 602.493 -0.431924 0.597169 0
M  V30 6523 H 605.135 -0.481443 1.83799 0
M  V30 6524 H 603.285 -2.81703 2.67537 0
M  V30 6525 H 604.957 -0.962455 4.51148 0
M  V30 6526 H 603.2 -0.837086 4.25647 0
M  V30 6527 H 603.871 -2.27694 5.02852 0
M  V30 6528 H 606.347 -2.71601 3.15233 0
M  V30 6529 H 605.223 -3.90756 3.85488 0
M  V30 6530 H 605.484 -3.88061 2.11804 0
M  V30 6531 N 604.543 -1.41418 -0.695603 0
M  V30 6532 C 605.491 -1.43467 -1.83084 0
M  V30 6533 C 606.485 -0.312719 -1.66489 0
M  V30 6534 O 607.691 -0.484744 -1.7335 0
M  V30 6535 H 604.066 -0.448891 -0.603325 0
M  V30 6536 H 606.037 -2.39144 -1.78473 0
M  V30 6537 C 604.786 -1.3337 -3.21104 0
M  V30 6538 H 604.109 -2.18989 -3.3449 0
M  V30 6539 H 605.549 -1.38865 -4.00615 0
M  V30 6540 C 604.008 -0.0460484 -3.36869 0
M  V30 6541 O 604.538 0.909258 -3.91274 0
M  V30 6542 N 602.744 0.0300222 -2.90584 0
M  V30 6543 H 602.291 -0.748129 -2.46497 0
M  V30 6544 H 602.249 0.890991 -3.01511 0
M  V30 6545 N 606.021 0.929856 -1.27246 0
M  V30 6546 C 606.951 2.04722 -1.12299 0
M  V30 6547 C 607.932 1.70082 -0.0250464 0
M  V30 6548 O 609.117 1.93176 -0.199141 0
M  V30 6549 C 606.247 3.38721 -0.767145 0
M  V30 6550 C 605.201 3.87466 -1.81808 0
M  V30 6551 C 604.527 5.18246 -1.31626 0
M  V30 6552 C 605.827 4.11095 -3.22177 0
M  V30 6553 H 607.521 2.17485 -2.05769 0
M  V30 6554 H 605.067 1.04503 -0.990715 0
M  V30 6555 H 607.02 4.16366 -0.649413 0
M  V30 6556 H 605.744 3.25967 0.203259 0
M  V30 6557 H 604.403 3.12012 -1.92468 0
M  V30 6558 H 604.051 5.01881 -0.335378 0
M  V30 6559 H 603.751 5.51829 -2.01887 0
M  V30 6560 H 605.275 5.98462 -1.21143 0
M  V30 6561 H 606.689 4.79316 -3.1453 0
M  V30 6562 H 605.086 4.55982 -3.90129 0
M  V30 6563 H 606.156 3.16468 -3.67391 0
M  V30 6564 N 607.499 1.09233 1.13605 0
M  V30 6565 C 608.748 0.82205 1.84188 0
M  V30 6566 C 609.061 -0.654548 1.84323 0
M  V30 6567 O 610.267 -1.04029 2.50779 0
M  V30 6568 C 608.723 1.42066 3.30674 0
M  V30 6569 C 608.331 2.92965 3.38933 0
M  V30 6570 C 610.075 1.22924 4.06313 0
M  V30 6571 C 607.982 3.45922 4.79679 0
M  V30 6572 H 606.912 0.303854 0.690064 0
M  V30 6573 H 609.563 1.31479 1.28006 0
M  V30 6574 H 607.945 0.855613 3.86646 0
M  V30 6575 H 609.119 3.55679 2.92966 0
M  V30 6576 H 607.434 3.11118 2.76757 0
M  V30 6577 H 610.031 1.59945 5.10217 0
M  V30 6578 H 610.374 0.169726 4.15954 0
M  V30 6579 H 610.907 1.76168 3.56665 0
M  V30 6580 H 607.646 4.51484 4.75229 0
M  V30 6581 H 607.166 2.87971 5.26149 0
M  V30 6582 H 608.845 3.43009 5.48592 0
M  V30 6583 N 608.977 -1.30795 0.87923 0
M  V30 6584 C 609.907 -2.30742 0.357796 0
M  V30 6585 C 610.888 -1.60747 -0.556283 0
M  V30 6586 O 612.073 -1.88393 -0.47135 0
M  V30 6587 C 609.203 -3.44583 -0.433555 0
M  V30 6588 C 608.157 -4.26235 0.388251 0
M  V30 6589 C 607.483 -5.32073 -0.529352 0
M  V30 6590 C 608.783 -4.96303 1.62729 0
M  V30 6591 H 610.477 -2.74605 1.19299 0
M  V30 6592 H 608.023 -1.32017 0.575104 0
M  V30 6593 H 609.976 -4.13563 -0.808934 0
M  V30 6594 H 608.7 -2.99511 -1.30234 0
M  V30 6595 H 607.359 -3.58936 0.745695 0
M  V30 6596 H 607.007 -4.83249 -1.39569 0
M  V30 6597 H 606.707 -5.87598 0.0166741 0
M  V30 6598 H 608.231 -6.0391 -0.901373 0
M  V30 6599 H 609.645 -5.5783 1.32283 0
M  V30 6600 H 608.042 -5.61666 2.11309 0
M  V30 6601 H 609.112 -4.22758 2.37494 0
M  V30 6602 N 610.455 -0.639598 -1.44038 0
M  V30 6603 C 611.418 0.0506628 -2.29144 0
M  V30 6604 C 612.418 0.764001 -1.41491 0
M  V30 6605 O 613.608 0.607309 -1.63271 0
M  V30 6606 C 610.74 1.0824 -3.2326 0
M  V30 6607 H 611.933 -0.697987 -2.91664 0
M  V30 6608 H 609.486 -0.400146 -1.51091 0
M  V30 6609 H 610.221 1.86075 -2.65606 0
M  V30 6610 H 610.006 0.574725 -3.87865 0
M  V30 6611 H 611.496 1.56487 -3.87171 0
M  V30 6612 N 611.933 1.52934 -0.380664 0
M  V30 6613 C 613.182 2.00651 0.205477 0
M  V30 6614 C 613.495 1.27164 1.48623 0
M  V30 6615 O 614.701 1.65547 2.15189 0
M  V30 6616 C 613.157 3.57479 0.416726 0
M  V30 6617 C 612.765 4.39857 -0.850268 0
M  V30 6618 C 614.509 4.13509 0.959702 0
M  V30 6619 C 612.416 5.88269 -0.607773 0
M  V30 6620 H 611.346 0.749684 0.0805614 0
M  V30 6621 H 613.997 1.76508 -0.501732 0
M  V30 6622 H 612.379 3.77836 1.18557 0
M  V30 6623 H 613.553 4.31269 -1.62307 0
M  V30 6624 H 611.868 3.95005 -1.31756 0
M  V30 6625 H 614.465 5.22039 1.15669 0
M  V30 6626 H 614.808 3.69054 1.92626 0
M  V30 6627 H 615.341 3.9701 0.250645 0
M  V30 6628 H 612.08 6.3703 -1.54509 0
M  V30 6629 H 611.6 5.99667 0.126247 0
M  V30 6630 H 613.279 6.46558 -0.239014 0
M  V30 6631 N 613.412 0.11024 1.57214 0
M  V30 6632 C 614.658 -0.550684 1.9518 0
M  V30 6633 C 614.991 -1.66885 0.993122 0
M  V30 6634 O 614.266 -1.94479 0.0287907 0
M  V30 6635 C 614.549 -1.09163 3.43155 0
M  V30 6636 C 614.402 0.0225198 4.49794 0
M  V30 6637 C 615.721 -1.98527 3.92778 0
M  V30 6638 H 612.84 -0.198706 0.709708 0
M  V30 6639 H 615.482 0.184024 1.89107 0
M  V30 6640 H 613.632 -1.71775 3.48462 0
M  V30 6641 H 615.304 0.657443 4.56591 0
M  V30 6642 H 613.547 0.686868 4.28328 0
M  V30 6643 H 614.218 -0.39706 5.5057 0
M  V30 6644 H 616.694 -1.458 3.8972 0
M  V30 6645 H 615.57 -2.33298 4.96853 0
M  V30 6646 H 615.831 -2.90846 3.32958 0
M  V30 6647 N 614.89 -1.56749 -0.16351 0
M  V30 6648 C 615.853 -1.96121 -1.18613 0
M  V30 6649 C 616.853 -0.845765 -1.36761 0
M  V30 6650 O 618.043 -1.11268 -1.34033 0
M  V30 6651 C 615.175 -2.26282 -2.54969 0
M  V30 6652 H 616.368 -2.87639 -0.848764 0
M  V30 6653 H 613.921 -1.50928 -0.406251 0
M  V30 6654 H 614.656 -1.37504 -2.93706 0
M  V30 6655 H 614.441 -3.07595 -2.43162 0
M  V30 6656 H 615.931 -2.57638 -3.28653 0
M  V30 6657 N 616.368 0.432326 -1.51554 0
M  V30 6658 C 617.301 1.54525 -1.6792 0
M  V30 6659 C 618.279 1.53831 -0.526764 0
M  V30 6660 O 619.463 1.72884 -0.751233 0
M  V30 6661 C 616.59 2.931 -1.69736 0
M  V30 6662 C 615.636 3.11799 -2.91005 0
M  V30 6663 S 616.469 2.87565 -4.51737 0
M  V30 6664 C 617.625 4.28412 -4.56305 0
M  V30 6665 H 617.858 1.4041 -2.62054 0
M  V30 6666 H 615.391 0.622357 -1.41301 0
M  V30 6667 H 617.349 3.72974 -1.71467 0
M  V30 6668 H 616.01 3.04574 -0.767705 0
M  V30 6669 H 615.203 4.13127 -2.8869 0
M  V30 6670 H 614.805 2.39757 -2.87041 0
M  V30 6671 H 617.097 5.21692 -4.32254 0
M  V30 6672 H 618.04 4.35758 -5.58141 0
M  V30 6673 H 618.448 4.12301 -3.85576 0
M  V30 6674 N 617.846 1.41785 0.688094 0
M  V30 6675 C 619.071 1.45117 1.48175 0
M  V30 6676 C 619.496 0.060129 1.88004 0
M  V30 6677 O 618.854 -0.938385 1.55126 0
M  V30 6678 C 618.902 2.37224 2.71583 0
M  V30 6679 O 618.006 1.83443 3.69354 0
M  V30 6680 H 617.347 0.492208 0.445676 0
M  V30 6681 H 619.877 1.86329 0.845145 0
M  V30 6682 H 619.887 2.53353 3.19806 0
M  V30 6683 H 618.562 3.38293 2.41931 0
M  V30 6684 H 617.139 1.76802 3.28322 0
M  V30 6685 N 619.324 -0.923095 1.27737 0
M  V30 6686 C 620.554 -1.70277 1.17001 0
M  V30 6687 C 620.962 -1.87188 -0.275199 0
M  V30 6688 O 620.305 -1.39195 -1.19877 0
M  V30 6689 C 620.367 -3.11976 1.78637 0
M  V30 6690 C 620.031 -3.18386 3.27841 0
M  V30 6691 C 621.028 -3.00287 4.2441 0
M  V30 6692 C 618.713 -3.41198 3.68632 0
M  V30 6693 C 620.707 -3.04896 5.59747 0
M  V30 6694 C 618.394 -3.4544 5.04097 0
M  V30 6695 C 619.392 -3.27309 5.99465 0
M  V30 6696 O 619.08 -3.31295 7.32461 0
M  V30 6697 H 618.812 -0.539366 0.407505 0
M  V30 6698 H 621.366 -1.16446 1.69202 0
M  V30 6699 H 619.596 -3.67308 1.20919 0
M  V30 6700 H 621.285 -3.7193 1.6255 0
M  V30 6701 H 622.051 -2.825 3.94232 0
M  V30 6702 H 617.93 -3.54359 2.94873 0
M  V30 6703 H 621.474 -2.90662 6.34162 0
M  V30 6704 H 617.371 -3.62753 5.33929 0
M  V30 6705 H 618.139 -3.47719 7.40968 0
M  V30 6706 N 620.802 -1.09834 -1.13024 0
M  V30 6707 C 622.079 -0.749225 -1.80682 0
M  V30 6708 C 622.459 0.765171 -1.96744 0
M  V30 6709 O 621.807 1.68912 -1.53886 0
M  V30 6710 C 622.017 -1.49311 -3.15448 0
M  V30 6711 C 623.365 -1.66162 -3.90737 0
M  V30 6712 O 624.389 -1.45597 -3.25085 0
M  V30 6713 O 623.248 -2.00211 -5.08505 0
M  V30 6714 H 620.342 -0.269614 -0.781817 0
M  V30 6715 H 622.888 -1.20078 -1.19914 0
M  V30 6716 H 621.66 -2.52407 -2.99009 0
M  V30 6717 H 621.283 -1.034 -3.8392 0
M  V30 6718 N 622.28 1.30327 -0.886154 0
M  V30 6719 C 623.19 2.31854 -0.357866 0
M  V30 6720 C 624.206 1.65392 0.540502 0
M  V30 6721 O 625.382 1.96683 0.433339 0
M  V30 6722 C 622.447 3.44171 0.417999 0
M  V30 6723 C 621.508 4.26257 -0.510263 0
M  V30 6724 C 620.741 5.3321 0.228669 0
M  V30 6725 O 620.964 5.51542 1.45458 0
M  V30 6726 O 619.898 6.0042 -0.421832 0
M  V30 6727 H 623.724 2.78995 -1.19982 0
M  V30 6728 H 621.309 1.34518 -0.650028 0
M  V30 6729 H 623.191 4.12588 0.857251 0
M  V30 6730 H 621.866 2.99164 1.23623 0
M  V30 6731 H 620.773 3.60533 -0.99835 0
M  V30 6732 H 622.106 4.74871 -1.29454 0
M  V30 6733 N 623.758 0.647228 1.43697 0
M  V30 6734 C 624.688 -0.0345631 2.33474 0
M  V30 6735 C 625.669 -0.818193 1.4913 0
M  V30 6736 O 626.854 -0.780867 1.77809 0
M  V30 6737 C 623.984 -1.00576 3.32418 0
M  V30 6738 C 622.938 -0.33266 4.26705 0
M  V30 6739 C 622.264 -1.41489 5.1564 0
M  V30 6740 C 623.564 0.771204 5.16575 0
M  V30 6741 H 625.258 0.715163 2.90733 0
M  V30 6742 H 622.804 0.345364 1.39797 0
M  V30 6743 H 624.757 -1.49159 3.94119 0
M  V30 6744 H 623.481 -1.78657 2.73403 0
M  V30 6745 H 622.14 0.13267 3.6636 0
M  V30 6746 H 621.788 -2.18698 4.52968 0
M  V30 6747 H 621.488 -0.969799 5.79542 0
M  V30 6748 H 623.012 -1.9022 5.80214 0
M  V30 6749 H 624.426 0.36779 5.72119 0
M  V30 6750 H 622.823 1.1404 5.89165 0
M  V30 6751 H 623.893 1.63169 4.56622 0
M  V30 6752 N 625.236 -1.5273 0.388769 0
M  V30 6753 C 626.168 -2.24081 -0.481704 0
M  V30 6754 C 627.181 -1.26307 -1.02715 0
M  V30 6755 O 628.37 -1.52386 -0.929565 0
M  V30 6756 C 625.47 -2.94315 -1.68024 0
M  V30 6757 C 624.643 -4.18791 -1.26226 0
M  V30 6758 C 623.702 -4.72028 -2.32542 0
M  V30 6759 O 622.728 -5.35129 -1.93972 0
M  V30 6760 N 623.93 -4.51838 -3.64448 0
M  V30 6761 H 626.695 -2.9942 0.129591 0
M  V30 6762 H 624.256 -1.60465 0.2151 0
M  V30 6763 H 626.248 -3.26831 -2.38671 0
M  V30 6764 H 624.818 -2.22287 -2.19789 0
M  V30 6765 H 624.038 -3.92318 -0.384703 0
M  V30 6766 H 625.326 -4.99668 -0.959647 0
M  V30 6767 H 624.724 -4.01468 -3.98547 0
M  V30 6768 H 623.281 -4.88845 -4.31131 0
M  V30 6769 N 626.714 -0.118576 -1.57153 0
M  V30 6770 C 627.661 0.831789 -2.1529 0
M  V30 6771 C 628.631 1.26385 -1.07778 0
M  V30 6772 O 629.816 1.34144 -1.35684 0
M  V30 6773 C 626.956 2.07664 -2.75626 0
M  V30 6774 C 626.069 1.69298 -3.97444 0
M  V30 6775 C 625.204 2.88747 -4.45868 0
M  V30 6776 C 624.243 2.46619 -5.60219 0
M  V30 6777 N 623.38 3.5898 -6.03389 0
M  V30 6778 H 628.22 0.329183 -2.96176 0
M  V30 6779 H 625.757 0.150792 -1.46325 0
M  V30 6780 H 627.715 2.80601 -3.08738 0
M  V30 6781 H 626.345 2.55384 -1.97431 0
M  V30 6782 H 625.397 0.862374 -3.70496 0
M  V30 6783 H 626.709 1.34338 -4.80369 0
M  V30 6784 H 625.863 3.69909 -4.80887 0
M  V30 6785 H 624.602 3.26933 -3.61892 0
M  V30 6786 H 623.607 1.63889 -5.24805 0
M  V30 6787 H 624.832 2.0955 -6.45961 0
M  V30 6788 H 622.778 3.9684 -5.22354 0
M  V30 6789 H 622.695 3.27942 -6.81168 0
M  V30 6790 H 623.963 4.40583 -6.43045 0
M  V30 6791 N 628.193 1.56834 0.155195 0
M  V30 6792 C 629.14 1.97646 1.19184 0
M  V30 6793 C 630.11 0.842788 1.4313 0
M  V30 6794 O 631.295 1.1042 1.55602 0
M  V30 6795 C 628.435 2.35527 2.52232 0
M  V30 6796 C 627.548 3.62147 2.35529 0
M  V30 6797 C 626.683 3.89167 3.61555 0
M  V30 6798 C 625.722 5.09084 3.39853 0
M  V30 6799 N 624.859 5.32156 4.5799 0
M  V30 6800 H 629.699 2.8601 0.836802 0
M  V30 6801 H 627.236 1.41507 0.401758 0
M  V30 6802 H 629.194 2.55516 3.29799 0
M  V30 6803 H 627.824 1.50253 2.85699 0
M  V30 6804 H 626.876 3.4998 1.49057 0
M  V30 6805 H 628.188 4.49871 2.15448 0
M  V30 6806 H 627.342 4.09611 4.47553 0
M  V30 6807 H 626.081 2.9985 3.84632 0
M  V30 6808 H 625.086 4.88522 2.52243 0
M  V30 6809 H 626.311 5.99947 3.18183 0
M  V30 6810 H 624.257 4.45791 4.81255 0
M  V30 6811 H 624.174 6.14133 4.40882 0
M  V30 6812 H 625.442 5.57091 5.45225 0
M  V30 6813 N 629.671 -0.424282 1.51781 0
M  V30 6814 C 630.634 -1.49848 1.73431 0
M  V30 6815 C 631.634 -1.49016 0.604225 0
M  V30 6816 O 632.824 -1.50808 0.871935 0
M  V30 6817 C 629.956 -2.89332 1.80277 0
M  V30 6818 H 631.149 -1.3195 2.69312 0
M  V30 6819 H 628.702 -0.653809 1.41968 0
M  V30 6820 H 629.437 -3.12618 0.862568 0
M  V30 6821 H 629.222 -2.9134 2.62419 0
M  V30 6822 H 630.712 -3.67233 1.98821 0
M  V30 6823 N 631.149 -1.42148 -0.680565 0
M  V30 6824 C 632.059 -1.47565 -1.82378 0
M  V30 6825 C 633.075 -0.36489 -1.70131 0
M  V30 6826 O 634.251 -0.614916 -1.91783 0
M  V30 6827 C 631.316 -1.37013 -3.18478 0
M  V30 6828 C 630.377 -2.58532 -3.42724 0
M  V30 6829 C 629.61 -2.48473 -4.72331 0
M  V30 6830 O 629.833 -1.51745 -5.49845 0
M  V30 6831 O 628.767 -3.38503 -4.97694 0
M  V30 6832 H 632.593 -2.44045 -1.80764 0
M  V30 6833 H 630.178 -1.23849 -0.835569 0
M  V30 6834 H 632.06 -1.33468 -3.99705 0
M  V30 6835 H 630.735 -0.436552 -3.20743 0
M  V30 6836 H 629.642 -2.67652 -2.61368 0
M  V30 6837 H 630.975 -3.50769 -3.45286 0
M  V30 6838 N 632.627 0.916307 -1.28225 0
M  V30 6839 C 633.537 2.05165 -1.13775 0
M  V30 6840 C 634.553 1.73879 -0.0649418 0
M  V30 6841 O 635.729 1.99531 -0.273722 0
M  V30 6842 C 632.794 3.37385 -0.798267 0
M  V30 6843 C 631.855 3.82296 -1.95316 0
M  V30 6844 C 631.088 5.08206 -1.62978 0
M  V30 6845 O 631.311 5.6781 -0.542948 0
M  V30 6846 O 630.245 5.48768 -2.47261 0
M  V30 6847 H 634.071 2.20273 -2.09078 0
M  V30 6848 H 631.656 1.0373 -1.07519 0
M  V30 6849 H 633.538 4.16773 -0.62278 0
M  V30 6850 H 632.213 3.23458 0.125139 0
M  V30 6851 H 631.12 3.03746 -2.18378 0
M  V30 6852 H 632.453 4.00782 -2.85718 0
M  V30 6853 N 634.105 1.10431 1.1244 0
M  V30 6854 C 635.015 0.765502 2.21759 0
M  V30 6855 C 636.031 -0.236966 1.72379 0
M  V30 6856 O 637.207 -0.0757329 2.01258 0
M  V30 6857 C 634.272 0.202316 3.46109 0
M  V30 6858 C 633.333 1.26205 4.1033 0
M  V30 6859 C 632.566 0.725648 5.28744 0
M  V30 6860 O 632.789 -0.447942 5.68638 0
M  V30 6861 O 631.723 1.48555 5.83279 0
M  V30 6862 H 635.549 1.67801 2.53133 0
M  V30 6863 H 633.134 0.879443 1.20773 0
M  V30 6864 H 635.016 -0.107918 4.21262 0
M  V30 6865 H 633.691 -0.683052 3.16411 0
M  V30 6866 H 632.598 1.62514 3.36957 0
M  V30 6867 H 633.931 2.12044 4.44183 0
M  V30 6868 N 635.583 -1.29855 0.893053 0
M  V30 6869 C 636.493 -2.31661 0.370157 0
M  V30 6870 C 637.509 -1.65677 -0.531723 0
M  V30 6871 O 638.685 -1.9691 -0.422902 0
M  V30 6872 C 635.75 -3.44388 -0.399741 0
M  V30 6873 C 634.811 -4.2598 0.532861 0
M  V30 6874 C 634.044 -5.33324 -0.200388 0
M  V30 6875 O 634.267 -5.52305 -1.42531 0
M  V30 6876 O 633.201 -6.00188 0.453668 0
M  V30 6877 H 637.027 -2.78354 1.2146 0
M  V30 6878 H 634.612 -1.34171 0.657153 0
M  V30 6879 H 636.494 -4.13037 -0.835358 0
M  V30 6880 H 635.169 -2.99815 -1.22035 0
M  V30 6881 H 634.076 -3.59998 1.01746 0
M  V30 6882 H 635.409 -4.74178 1.3197 0
M  V30 6883 N 637.061 -0.65484 -1.43351 0
M  V30 6884 C 638.024 0.0263562 -2.29185 0
M  V30 6885 C 639.024 0.748951 -1.42293 0
M  V30 6886 O 640.214 0.589957 -1.63906 0
M  V30 6887 C 637.346 1.04806 -3.2439 0
M  V30 6888 H 638.539 -0.728883 -2.90908 0
M  V30 6889 H 636.092 -0.416149 -1.50658 0
M  V30 6890 H 636.827 1.83247 -2.67565 0
M  V30 6891 H 636.612 0.533554 -3.88453 0
M  V30 6892 H 638.102 1.52372 -3.88809 0
M  V30 6893 N 638.539 1.52521 -0.396863 0
M  V30 6894 C 639.502 2.2527 0.422604 0
M  V30 6895 C 640.502 1.27184 0.983913 0
M  V30 6896 O 641.692 1.51222 0.864723 0
M  V30 6897 C 638.824 3.01356 1.59365 0
M  V30 6898 H 640.017 2.99133 -0.214416 0
M  V30 6899 H 637.57 1.55587 -0.149128 0
M  V30 6900 H 638.305 2.31813 2.26789 0
M  V30 6901 H 638.09 3.73357 1.19779 0
M  V30 6902 H 639.58 3.56571 2.17363 0
M  V30 6903 N 640.017 0.126909 1.57088 0
M  V30 6904 C 640.927 -0.833867 2.1928 0
M  V30 6905 C 641.943 -1.2868 1.17122 0
M  V30 6906 O 643.119 -1.34815 1.49622 0
M  V30 6907 C 640.184 -2.0632 2.78627 0
M  V30 6908 C 639.245 -1.66143 3.95847 0
M  V30 6909 C 638.478 -2.83217 4.52354 0
M  V30 6910 O 638.701 -3.98868 4.0775 0
M  V30 6911 O 637.635 -2.59846 5.42922 0
M  V30 6912 H 641.461 -0.334564 3.01852 0
M  V30 6913 H 639.046 -0.0991091 1.49071 0
M  V30 6914 H 640.928 -2.78304 3.16425 0
M  V30 6915 H 639.603 -2.55242 1.99082 0
M  V30 6916 H 638.51 -0.912435 3.62802 0
M  V30 6917 H 639.843 -1.21957 4.76852 0
M  V30 6918 N 641.495 -1.56914 -0.146875 0
M  V30 6919 C 642.405 -2.0154 -1.20079 0
M  V30 6920 C 643.421 -0.930838 -1.47008 0
M  V30 6921 O 644.597 -1.24032 -1.58676 0
M  V30 6922 C 641.662 -2.38715 -2.51428 0
M  V30 6923 C 640.723 -3.6112 -2.32145 0
M  V30 6924 C 639.956 -3.96512 -3.57231 0
M  V30 6925 O 640.179 -3.32566 -4.63418 0
M  V30 6926 O 639.113 -4.89758 -3.49887 0
M  V30 6927 H 642.939 -2.91506 -0.851924 0
M  V30 6928 H 640.524 -1.45106 -0.355607 0
M  V30 6929 H 642.406 -2.63485 -3.28867 0
M  V30 6930 H 641.081 -1.51903 -2.85845 0
M  V30 6931 H 639.988 -3.41536 -1.52656 0
M  V30 6932 H 641.321 -4.48549 -2.02644 0
M  V30 6933 N 642.974 0.416227 -1.52004 0
M  V30 6934 C 643.884 1.53147 -1.77717 0
M  V30 6935 C 644.9 1.609 -0.662368 0
M  V30 6936 O 646.076 1.77747 -0.946991 0
M  V30 6937 C 643.141 2.88948 -1.91598 0
M  V30 6938 C 642.202 2.9114 -3.15493 0
M  V30 6939 C 641.435 4.20464 -3.28703 0
M  V30 6940 O 641.658 5.13981 -2.47345 0
M  V30 6941 O 640.592 4.29368 -4.21813 0
M  V30 6942 H 644.418 1.34357 -2.72363 0
M  V30 6943 H 642.003 0.601373 -1.36762 0
M  V30 6944 H 643.885 3.69505 -2.02593 0
M  V30 6945 H 642.56 3.07821 -1.00141 0
M  V30 6946 H 641.467 2.09461 -3.09962 0
M  V30 6947 H 642.8 2.77216 -4.06709 0
M  V30 6948 N 644.452 1.42507 0.673017 0
M  V30 6949 C 645.415 1.4582 1.76831 0
M  V30 6950 C 646.415 0.345542 1.57043 0
M  V30 6951 O 647.605 0.606447 1.63303 0
M  V30 6952 C 644.737 1.29158 3.15485 0
M  V30 6953 H 645.93 2.43345 1.7528 0
M  V30 6954 H 643.483 1.28981 0.882817 0
M  V30 6955 H 644.218 0.325626 3.22661 0
M  V30 6956 H 644.003 2.09797 3.31252 0
M  V30 6957 H 645.493 1.34363 3.95394 0
M  V30 6958 N 645.93 -0.909495 1.28709 0
M  V30 6959 C 646.863 -2.01388 1.07323 0
M  V30 6960 C 647.841 -1.62596 -0.0119757 0
M  V30 6961 O 649.025 -1.88003 0.136796 0
M  V30 6962 C 646.152 -3.32755 0.631797 0
M  V30 6963 C 645.198 -3.90532 1.71428 0
M  V30 6964 S 646.031 -4.20853 3.31124 0
M  V30 6965 C 647.187 -5.55276 2.88825 0
M  V30 6966 H 647.42 -2.19219 2.00824 0
M  V30 6967 H 644.953 -1.05489 1.12745 0
M  V30 6968 H 646.911 -4.08702 0.38381 0
M  V30 6969 H 645.572 -3.12818 -0.283451 0
M  V30 6970 H 644.765 -4.85385 1.35712 0
M  V30 6971 H 644.367 -3.21237 1.91528 0
M  V30 6972 H 646.659 -6.35341 2.3526 0
M  V30 6973 H 647.602 -5.95907 3.82492 0
M  V30 6974 H 648.01 -5.16666 2.27412 0
M  V30 6975 N 647.408 -1.11026 -1.11852 0
M  V30 6976 C 648.824 -0.843294 -1.35502 0
M  V30 6977 C 649.024 0.534179 -1.9429 0
M  V30 6978 O 648.08 1.28585 -2.17307 0
M  V30 6979 C 649.393 -1.94793 -2.29077 0
M  V30 6980 C 650.941 -1.97709 -2.42652 0
M  V30 6981 C 651.416 -3.07364 -3.39546 0
M  V30 6982 N 652.907 -3.0671 -3.47107 0
M  V30 6983 C 653.642 -3.88197 -4.22008 0
M  V30 6984 N 653.138 -4.79635 -4.99922 0
M  V30 6985 N 654.931 -3.76391 -4.17476 0
M  V30 6986 H 647.082 -1.99805 -0.720538 0
M  V30 6987 H 649.345 -0.868633 -0.379711 0
M  V30 6988 H 649.051 -2.93971 -1.93065 0
M  V30 6989 H 648.925 -1.84039 -3.29256 0
M  V30 6990 H 651.312 -0.991604 -2.77941 0
M  V30 6991 H 651.393 -2.1254 -1.4234 0
M  V30 6992 H 651.037 -4.06136 -3.04985 0
M  V30 6993 H 650.967 -2.89774 -4.39703 0
M  V30 6994 H 653.458 -2.40457 -2.91528 0
M  V30 6995 H 653.771 -5.38357 -5.54429 0
M  V30 6996 H 652.116 -4.8366 -4.99097 0
M  V30 6997 H 655.307 -3.04303 -3.55693 0
M  V30 6998 H 655.48 -4.40131 -4.75593 0
M  V30 6999 N 648.886 1.2938 -0.899927 0
M  V30 7000 C 649.796 2.31462 -0.382437 0
M  V30 7001 C 650.812 1.65956 0.522929 0
M  V30 7002 O 651.988 1.97131 0.412454 0
M  V30 7003 C 649.053 3.44595 0.381472 0
M  V30 7004 C 648.114 4.25692 -0.555444 0
M  V30 7005 C 647.347 5.33422 0.172102 0
M  V30 7006 O 647.57 5.53053 1.396 0
M  V30 7007 O 646.504 5.99939 -0.485491 0
M  V30 7008 H 650.33 2.77706 -1.22934 0
M  V30 7009 H 647.915 1.33821 -0.664259 0
M  V30 7010 H 649.797 4.13474 0.813442 0
M  V30 7011 H 648.472 3.00458 1.20443 0
M  V30 7012 H 647.379 3.59453 -1.03653 0
M  V30 7013 H 648.712 4.73471 -1.34483 0
M  V30 7014 N 650.364 0.662433 1.43002 0
M  V30 7015 C 651.327 -0.0142016 2.29196 0
M  V30 7016 C 652.327 -0.741394 1.42688 0
M  V30 7017 O 653.517 -0.581257 1.64216 0
M  V30 7018 C 650.649 -1.03084 3.24941 0
M  V30 7019 H 651.842 0.7443 2.90517 0
M  V30 7020 H 649.395 0.424133 1.50435 0
M  V30 7021 H 650.13 -1.81826 2.68533 0
M  V30 7022 H 649.915 -0.512946 3.8873 0
M  V30 7023 H 651.405 -1.50308 3.89612 0
M  V30 7024 N 651.842 -1.52309 0.404946 0
M  V30 7025 C 652.752 -2.30634 -0.429555 0
M  V30 7026 C 653.768 -1.38187 -1.05737 0
M  V30 7027 O 654.944 -1.71261 -1.05979 0
M  V30 7028 C 652.009 -3.10947 -1.53339 0
M  V30 7029 C 651.07 -4.19126 -0.929065 0
M  V30 7030 C 650.303 -4.95601 -1.9803 0
M  V30 7031 O 650.526 -4.72331 -3.1978 0
M  V30 7032 O 649.46 -5.80551 -1.58886 0
M  V30 7033 H 653.286 -3.0298 0.208963 0
M  V30 7034 H 650.871 -1.4845 0.168255 0
M  V30 7035 H 652.753 -3.60974 -2.1743 0
M  V30 7036 H 651.428 -2.41399 -2.15658 0
M  V30 7037 H 650.335 -3.73257 -0.250982 0
M  V30 7038 H 651.668 -4.90955 -0.349855 0
M  V30 7039 N 653.32 -0.135238 -1.57019 0
M  V30 7040 C 654.283 0.794707 -2.14981 0
M  V30 7041 C 655.283 1.18342 -1.08866 0
M  V30 7042 O 656.473 1.10627 -1.34563 0
M  V30 7043 C 653.605 2.07685 -2.70333 0
M  V30 7044 H 654.798 0.290696 -2.98488 0
M  V30 7045 H 652.351 0.114128 -1.55883 0
M  V30 7046 H 653.086 2.6248 -1.9046 0
M  V30 7047 H 652.871 1.80745 -3.47957 0
M  V30 7048 H 654.361 2.74127 -3.1503 0
M  V30 7049 N 654.798 1.5699 0.138552 0
M  V30 7050 C 655.761 1.97984 1.15478 0
M  V30 7051 C 656.761 0.867416 1.35398 0
M  V30 7052 O 657.951 1.13387 1.32246 0
M  V30 7053 C 655.083 2.3031 2.51337 0
M  V30 7054 H 656.276 2.88953 0.802896 0
M  V30 7055 H 653.829 1.51555 0.382189 0
M  V30 7056 H 654.564 1.42159 2.91481 0
M  V30 7057 H 654.349 3.11425 2.38237 0
M  V30 7058 H 655.839 2.62834 3.24512 0
M  V30 7059 N 656.276 -0.40816 1.52223 0
M  V30 7060 C 657.239 -1.48 1.7501 0
M  V30 7061 C 658.239 -1.48367 0.619996 0
M  V30 7062 O 659.429 -1.49874 0.887881 0
M  V30 7063 C 656.561 -2.87403 1.83336 0
M  V30 7064 H 657.754 -1.29086 2.70697 0
M  V30 7065 H 655.307 -0.638715 1.42654 0
M  V30 7066 H 656.042 -3.11686 0.895677 0
M  V30 7067 H 655.827 -2.8854 2.65494 0
M  V30 7068 H 657.317 -3.65103 2.02705 0
M  V30 7069 N 657.755 -1.42862 -0.66545 0
M  V30 7070 C 658.665 -1.49491 -1.80803 0
M  V30 7071 C 659.681 -0.382914 -1.69734 0
M  V30 7072 O 660.857 -0.635223 -1.9112 0
M  V30 7073 C 657.922 -1.40383 -3.17007 0
M  V30 7074 C 656.983 -2.62152 -3.39963 0
M  V30 7075 C 656.216 -2.53469 -4.69669 0
M  V30 7076 O 656.439 -1.57568 -5.48205 0
M  V30 7077 O 655.373 -3.43763 -4.94075 0
M  V30 7078 H 659.199 -2.45949 -1.78165 0
M  V30 7079 H 656.784 -1.24728 -0.822387 0
M  V30 7080 H 658.666 -1.377 -3.98267 0
M  V30 7081 H 657.341 -0.470546 -3.20262 0
M  V30 7082 H 656.248 -2.70409 -2.58515 0
M  V30 7083 H 657.581 -3.54411 -3.41546 0
M  V30 7084 N 659.233 0.902656 -1.29189 0
M  V30 7085 C 660.196 1.98797 -1.14071 0
M  V30 7086 C 661.196 1.60615 -0.0770549 0
M  V30 7087 O 662.386 1.71165 -0.323753 0
M  V30 7088 C 659.518 3.32688 -0.743739 0
M  V30 7089 H 660.711 2.13637 -2.10473 0
M  V30 7090 H 658.264 1.08678 -1.12334 0
M  V30 7091 H 658.999 3.23549 0.220554 0
M  V30 7092 H 658.784 3.61765 -1.51223 0
M  V30 7093 H 660.274 4.12337 -0.660935 0
M  V30 7094 N 660.711 1.11618 1.11262 0
M  V30 7095 C 661.658 0.7762 2.17356 0
M  V30 7096 C 662.628 -0.253152 1.6416 0
M  V30 7097 O 663.813 -0.129655 1.90359 0
M  V30 7098 C 660.953 0.227581 3.44349 0
M  V30 7099 C 660.066 1.31372 4.1154 0
M  V30 7100 C 659.201 0.72544 5.26223 0
M  V30 7101 C 658.24 1.7913 5.85302 0
M  V30 7102 N 657.377 1.22237 6.91377 0
M  V30 7103 H 662.217 1.68508 2.45783 0
M  V30 7104 H 659.754 0.841475 1.20655 0
M  V30 7105 H 661.712 -0.108483 4.17059 0
M  V30 7106 H 660.342 -0.644486 3.16301 0
M  V30 7107 H 659.394 1.7667 3.36885 0
M  V30 7108 H 660.706 2.12005 4.51504 0
M  V30 7109 H 659.86 0.339541 6.05749 0
M  V30 7110 H 658.599 -0.112188 4.87571 0
M  V30 7111 H 657.604 2.18648 5.04453 0
M  V30 7112 H 658.829 2.63199 6.26022 0
M  V30 7113 H 656.775 0.406423 6.5474 0
M  V30 7114 H 656.692 1.9654 7.30006 0
M  V30 7115 H 657.96 0.863426 7.74703 0
M  V30 7116 N 662.189 -1.289 0.906776 0
M  V30 7117 C 663.099 -2.31256 0.394707 0
M  V30 7118 C 664.115 -1.66231 -0.514121 0
M  V30 7119 O 665.291 -1.97347 -0.401994 0
M  V30 7120 C 662.356 -3.44792 -0.363191 0
M  V30 7121 C 661.417 -4.25391 0.578012 0
M  V30 7122 C 660.65 -5.33506 -0.143811 0
M  V30 7123 O 660.873 -5.53786 -1.36665 0
M  V30 7124 O 659.807 -5.99673 0.5173 0
M  V30 7125 H 663.633 -2.77051 1.24405 0
M  V30 7126 H 661.218 -1.33466 0.671346 0
M  V30 7127 H 663.1 -4.139 -0.791503 0
M  V30 7128 H 661.775 -3.01093 -1.18848 0
M  V30 7129 H 660.682 -3.58899 1.05558 0
M  V30 7130 H 662.015 -4.72752 1.36992 0
M  V30 7131 N 663.667 -0.670007 -1.42649 0
M  V30 7132 C 664.615 0.0230106 -2.32589 0
M  V30 7133 C 665.609 0.795585 -1.49555 0
M  V30 7134 O 666.815 0.70409 -1.65658 0
M  V30 7135 H 663.19 0.0262342 -0.751542 0
M  V30 7136 H 665.161 -0.753009 -2.88743 0
M  V30 7137 C 663.91 0.963872 -3.34073 0
M  V30 7138 H 663.233 0.378813 -3.98001 0
M  V30 7139 H 664.673 1.41755 -3.99602 0
M  V30 7140 C 663.132 2.06797 -2.65964 0
M  V30 7141 O 663.662 3.15383 -2.48789 0
M  V30 7142 N 661.868 1.83831 -2.25066 0
M  V30 7143 H 661.415 0.955235 -2.39234 0
M  V30 7144 H 661.373 2.57895 -1.79827 0
M  V30 7145 N 665.145 1.52092 -0.413018 0
M  V30 7146 C 666.561 1.59471 -0.0640836 0
M  V30 7147 C 666.761 1.42562 1.42402 0
M  V30 7148 O 665.817 1.25453 2.19129 0
M  V30 7149 C 667.13 2.95392 -0.562474 0
M  V30 7150 C 668.678 3.08637 -0.520788 0
M  V30 7151 C 669.153 4.47044 -0.995752 0
M  V30 7152 N 670.644 4.53296 -0.952732 0
M  V30 7153 C 671.379 5.58669 -1.29138 0
M  V30 7154 N 670.875 6.71576 -1.70168 0
M  V30 7155 N 672.668 5.48898 -1.2111 0
M  V30 7156 H 664.819 1.6133 -1.38153 0
M  V30 7157 H 667.082 0.75916 -0.567785 0
M  V30 7158 H 666.788 3.13059 -1.60271 0
M  V30 7159 H 666.662 3.77191 0.0257875 0
M  V30 7160 H 669.049 2.90652 0.510412 0
M  V30 7161 H 669.13 2.28735 -1.14515 0
M  V30 7162 H 668.774 4.65773 -2.0253 0
M  V30 7163 H 668.704 5.25448 -0.348162 0
M  V30 7164 H 671.195 3.72248 -0.651119 0
M  V30 7165 H 671.508 7.47973 -1.9431 0
M  V30 7166 H 669.853 6.72847 -1.74075 0
M  V30 7167 H 673.044 4.59573 -0.889396 0
M  V30 7168 H 673.217 6.30912 -1.47833 0
M  V30 7169 N 666.623 0.143563 1.56945 0
M  V30 7170 C 667.586 -0.783295 2.154 0
M  V30 7171 C 668.586 -1.17763 1.09492 0
M  V30 7172 O 669.776 -1.09912 1.35148 0
M  V30 7173 C 666.908 -2.06248 2.7143 0
M  V30 7174 H 668.101 -0.274863 2.98638 0
M  V30 7175 H 665.654 -0.105859 1.55941 0
M  V30 7176 H 666.389 -2.61466 1.91849 0
M  V30 7177 H 666.174 -1.78897 3.4891 0
M  V30 7178 H 667.664 -2.72453 3.16479 0
M  V30 7179 N 668.101 -1.57061 -0.130224 0
M  V30 7180 C 669.064 -1.98593 -1.14426 0
M  V30 7181 C 670.064 -0.874584 -1.34936 0
M  V30 7182 O 671.254 -1.14086 -1.31643 0
M  V30 7183 C 668.386 -2.31639 -2.50112 0
M  V30 7184 H 669.579 -2.89374 -0.787561 0
M  V30 7185 H 667.132 -1.51756 -0.374146 0
M  V30 7186 H 667.867 -1.43703 -2.90723 0
M  V30 7187 H 667.652 -3.12684 -2.36583 0
M  V30 7188 H 669.142 -2.64551 -3.23114 0
M  V30 7189 N 669.579 0.400081 -1.52437 0
M  V30 7190 C 670.542 1.4707 -1.75793 0
M  V30 7191 C 671.542 1.48036 -0.627856 0
M  V30 7192 O 672.732 1.49401 -0.895817 0
M  V30 7193 C 669.864 2.86427 -1.84858 0
M  V30 7194 H 671.057 1.27649 -2.71377 0
M  V30 7195 H 668.61 0.631141 -1.42991 0
M  V30 7196 H 669.345 3.11207 -0.912194 0
M  V30 7197 H 669.13 2.87128 -2.6702 0
M  V30 7198 H 670.62 3.64023 -2.04638 0
M  V30 7199 N 671.057 1.43213 0.657864 0
M  V30 7200 C 672.473 1.26511 0.972992 0
M  V30 7201 C 672.673 0.181477 2.00681 0
M  V30 7202 O 671.729 -0.441649 2.48608 0
M  V30 7203 C 673.042 2.62784 1.46168 0
M  V30 7204 C 674.59 2.70278 1.57857 0
M  V30 7205 C 675.065 4.06958 2.10117 0
M  V30 7206 N 676.556 4.08999 2.17426 0
M  V30 7207 C 677.291 5.11585 2.58975 0
M  V30 7208 N 676.787 6.24548 2.99853 0
M  V30 7209 N 678.58 4.9894 2.58873 0
M  V30 7210 H 670.731 2.12384 -0.0263129 0
M  V30 7211 H 672.994 0.946638 0.0507992 0
M  V30 7212 H 672.7 3.43022 0.776474 0
M  V30 7213 H 672.574 2.87863 2.43751 0
M  V30 7214 H 674.961 1.90376 2.25479 0
M  V30 7215 H 675.042 2.4897 0.587179 0
M  V30 7216 H 674.686 4.87325 1.43098 0
M  V30 7217 H 674.616 4.25628 3.10078 0
M  V30 7218 H 677.107 3.27457 1.88627 0
M  V30 7219 H 677.42 6.98661 3.30292 0
M  V30 7220 H 675.765 6.28027 2.97669 0
M  V30 7221 H 678.956 4.09757 2.26311 0
M  V30 7222 H 679.129 5.79019 2.90932 0
M  V30 7223 N 672.536 -0.895792 1.29666 0
M  V30 7224 C 673.499 -1.98189 1.15124 0
M  V30 7225 C 674.499 -1.60572 0.0855717 0
M  V30 7226 O 675.689 -1.70991 0.332826 0
M  V30 7227 C 672.821 -3.32289 0.761372 0
M  V30 7228 H 674.014 -2.12518 2.11603 0
M  V30 7229 H 671.567 -1.0808 1.12908 0
M  V30 7230 H 672.302 -3.23662 -0.203393 0
M  V30 7231 H 672.087 -3.60958 1.53139 0
M  V30 7232 H 673.577 -4.1198 0.682792 0
M  V30 7233 N 674.014 -1.12206 -1.10668 0
M  V30 7234 C 674.977 -0.790867 -2.15123 0
M  V30 7235 C 675.977 0.193618 -1.5963 0
M  V30 7236 O 677.167 -0.0318728 -1.74171 0
M  V30 7237 C 674.299 -0.174797 -3.40452 0
M  V30 7238 H 675.492 -1.7163 -2.45933 0
M  V30 7239 H 673.045 -0.924993 -1.2599 0
M  V30 7240 H 673.78 0.760478 -3.15257 0
M  V30 7241 H 673.565 -0.88358 -3.82015 0
M  V30 7242 H 675.055 0.0405162 -4.1758 0
M  V30 7243 N 675.492 1.28418 -0.913599 0
M  V30 7244 C 676.455 2.25564 -0.406624 0
M  V30 7245 C 677.455 1.5387 0.466965 0
M  V30 7246 O 678.645 1.72094 0.270042 0
M  V30 7247 C 675.777 3.38339 0.417053 0
M  V30 7248 H 676.97 2.71926 -1.26477 0
M  V30 7249 H 674.523 1.40098 -0.692986 0
M  V30 7250 H 675.258 2.97339 1.29461 0
M  V30 7251 H 675.043 3.91542 -0.209102 0
M  V30 7252 H 676.533 4.10578 0.762602 0
M  V30 7253 N 676.97 0.677563 1.42291 0
M  V30 7254 C 677.933 0.0101085 2.29198 0
M  V30 7255 C 678.933 -0.726219 1.43467 0
M  V30 7256 O 680.123 -0.563807 1.64824 0
M  V30 7257 C 677.255 -0.996316 3.26016 0
M  V30 7258 H 678.448 0.775071 2.89711 0
M  V30 7259 H 676.001 0.440065 1.49977 0
M  V30 7260 H 676.736 -1.78967 2.70446 0
M  V30 7261 H 676.521 -0.471687 3.89253 0
M  V30 7262 H 678.011 -1.46167 3.91184 0
M  V30 7263 N 678.448 -1.51871 0.421078 0
M  V30 7264 C 679.411 -2.25914 -0.386712 0
M  V30 7265 C 680.411 -1.28733 -0.963555 0
M  V30 7266 O 681.601 -1.52579 -0.840556 0
M  V30 7267 C 678.733 -3.03853 -1.54551 0
M  V30 7268 H 679.926 -2.98754 0.261978 0
M  V30 7269 H 677.479 -1.5533 0.173862 0
M  V30 7270 H 678.214 -2.35392 -2.23072 0
M  V30 7271 H 677.999 -3.75215 -1.13824 0
M  V30 7272 H 679.489 -3.59984 -2.11663 0
M  V30 7273 N 679.926 -0.151884 -1.56866 0
M  V30 7274 C 681.174 0.497021 -1.95893 0
M  V30 7275 C 681.495 1.65078 -1.03799 0
M  V30 7276 O 680.765 1.95642 -0.10049 0
M  V30 7277 H 679.345 0.186603 -0.723318 0
M  V30 7278 H 682.007 -0.228525 -1.93556 0
M  V30 7279 H 681.103 0.869933 -2.99731 0
M  V30 7280 N 681.404 1.57128 0.121893 0
M  V30 7281 C 682.82 1.52357 0.47534 0
M  V30 7282 C 683.02 0.864417 1.82017 0
M  V30 7283 O 682.076 0.445529 2.48538 0
M  V30 7284 C 683.389 2.97122 0.4625 0
M  V30 7285 C 684.937 3.08196 0.546255 0
M  V30 7286 C 685.412 4.54516 0.563833 0
M  V30 7287 N 686.903 4.58959 0.625353 0
M  V30 7288 C 687.638 5.69585 0.660354 0
M  V30 7289 N 687.134 6.89714 0.653175 0
M  V30 7290 N 688.927 5.57685 0.703143 0
M  V30 7291 H 681.078 1.98364 -0.75931 0
M  V30 7292 H 683.341 0.905777 -0.279772 0
M  V30 7293 H 683.047 3.48706 -0.457943 0
M  V30 7294 H 682.921 3.54406 1.29136 0
M  V30 7295 H 685.308 2.56617 1.45712 0
M  V30 7296 H 685.389 2.53912 -0.310234 0
M  V30 7297 H 685.033 5.06741 -0.342974 0
M  V30 7298 H 684.963 5.06609 1.43716 0
M  V30 7299 H 687.454 3.72489 0.637182 0
M  V30 7300 H 687.767 7.69781 0.682425 0
M  V30 7301 H 686.112 6.92223 0.620646 0
M  V30 7302 H 689.303 4.62744 0.706095 0
M  V30 7303 H 689.476 6.43909 0.726952 0
M  V30 7304 N 682.882 -0.391992 1.52647 0
M  V30 7305 C 683.845 -1.46135 1.7657 0
M  V30 7306 C 684.845 -1.47701 0.635698 0
M  V30 7307 O 686.035 -1.48924 0.903728 0
M  V30 7308 C 683.167 -2.85443 1.86374 0
M  V30 7309 H 684.36 -1.26208 2.72051 0
M  V30 7310 H 681.913 -0.623549 1.43323 0
M  V30 7311 H 682.648 -3.10718 0.928685 0
M  V30 7312 H 682.433 -2.85708 2.68539 0
M  V30 7313 H 683.923 -3.62933 2.06566 0
M  V30 7314 N 684.36 -1.4356 -0.65026 0
M  V30 7315 C 685.27 -1.514 -1.79207 0
M  V30 7316 C 686.286 -0.400895 -1.69319 0
M  V30 7317 O 687.462 -0.655458 -1.90436 0
M  V30 7318 C 684.527 -1.43737 -3.155 0
M  V30 7319 C 683.588 -2.65743 -3.37163 0
M  V30 7320 C 682.821 -2.58436 -4.66954 0
M  V30 7321 O 683.044 -1.63374 -5.46503 0
M  V30 7322 O 681.978 -3.48984 -4.90402 0
M  V30 7323 H 685.804 -2.47825 -1.75547 0
M  V30 7324 H 683.389 -1.25594 -0.809111 0
M  V30 7325 H 685.271 -1.41916 -3.96784 0
M  V30 7326 H 683.946 -0.504488 -3.19745 0
M  V30 7327 H 682.853 -2.73136 -2.55632 0
M  V30 7328 H 684.186 -3.58014 -3.37768 0
M  V30 7329 N 685.838 0.888903 -1.30139 0
M  V30 7330 C 686.801 1.97576 -1.16174 0
M  V30 7331 C 687.801 1.60525 -0.094086 0
M  V30 7332 O 688.991 1.70812 -0.341889 0
M  V30 7333 C 686.123 3.3188 -0.778983 0
M  V30 7334 H 687.316 2.11393 -2.12728 0
M  V30 7335 H 684.869 1.0748 -1.1348 0
M  V30 7336 H 685.604 3.23765 0.186225 0
M  V30 7337 H 685.389 3.60141 -1.55051 0
M  V30 7338 H 686.879 4.11612 -0.704631 0
M  V30 7339 N 687.317 1.12792 1.10072 0
M  V30 7340 C 688.28 0.802264 2.14701 0
M  V30 7341 C 689.28 -0.18515 1.59731 0
M  V30 7342 O 690.47 0.041109 1.74151 0
M  V30 7343 C 687.602 0.19285 3.40354 0
M  V30 7344 H 688.795 1.72932 2.45019 0
M  V30 7345 H 686.348 0.931662 1.25498 0
M  V30 7346 H 687.083 -0.743748 3.15656 0
M  V30 7347 H 686.868 0.903827 3.81541 0
M  V30 7348 H 688.358 -0.0183704 4.17596 0
M  V30 7349 N 688.795 -1.27931 0.920396 0
M  V30 7350 C 689.758 -2.25345 0.41858 0
M  V30 7351 C 690.758 -1.54116 -0.458798 0
M  V30 7352 O 691.948 -1.72235 -0.260912 0
M  V30 7353 C 689.08 -3.38556 -0.399104 0
M  V30 7354 H 690.273 -2.71251 1.27918 0
M  V30 7355 H 687.826 -1.39728 0.700406 0
M  V30 7356 H 688.561 -2.98021 -1.27882 0
M  V30 7357 H 688.346 -3.91426 0.229863 0
M  V30 7358 H 689.836 -4.10976 -0.740817 0
M  V30 7359 N 690.273 -0.685099 -1.4193 0
M  V30 7360 C 691.236 -0.0222632 -2.29189 0
M  V30 7361 C 692.236 0.7186 -1.4385 0
M  V30 7362 O 693.426 0.555058 -1.6512 0
M  V30 7363 C 690.558 0.979013 -3.2654 0
M  V30 7364 H 691.751 -0.790424 -2.89296 0
M  V30 7365 H 689.304 -0.448012 -1.49742 0
M  V30 7366 H 690.039 1.77531 -2.71392 0
M  V30 7367 H 689.824 0.451037 -3.89497 0
M  V30 7368 H 691.314 1.44091 -3.91954 0
M  V30 7369 N 691.751 1.51645 -0.429126 0
M  V30 7370 C 692.714 2.26116 0.374726 0
M  V30 7371 C 693.714 1.29242 0.956714 0
M  V30 7372 O 694.904 1.53022 0.832452 0
M  V30 7373 C 692.036 3.04669 1.52937 0
M  V30 7374 H 693.229 2.9861 -0.277818 0
M  V30 7375 H 690.782 1.55236 -0.182097 0
M  V30 7376 H 691.517 2.36571 2.21821 0
M  V30 7377 H 691.302 3.75814 1.11833 0
M  V30 7378 H 692.792 3.61102 2.09751 0
M  V30 7379 N 693.229 0.160201 1.56784 0
M  V30 7380 C 694.506 -0.533355 1.88188 0
M  V30 7381 C 694.886 -1.82072 1.06831 0
M  V30 7382 O 694.234 -2.27946 0.158959 0
M  V30 7383 C 694.444 -0.786034 3.40033 0
M  V30 7384 C 695.792 -1.12097 4.09536 0
M  V30 7385 O 696.816 -0.874949 3.45287 0
M  V30 7386 O 695.675 -1.58457 5.23023 0
M  V30 7387 H 692.769 -0.273589 0.780434 0
M  V30 7388 H 695.315 0.197803 1.68543 0
M  V30 7389 H 694.087 0.124515 3.91102 0
M  V30 7390 H 693.71 -1.57091 3.65251 0
M  V30 7391 N 694.707 -1.5719 -0.113559 0
M  V30 7392 C 696.123 -1.52607 -0.467253 0
M  V30 7393 C 696.323 -0.874058 -1.81556 0
M  V30 7394 O 695.379 -0.458703 -2.48299 0
M  V30 7395 C 696.692 -2.97363 -0.446736 0
M  V30 7396 C 698.24 -3.08482 -0.529903 0
M  V30 7397 C 698.715 -4.54809 -0.539721 0
M  V30 7398 N 700.206 -4.59284 -0.601005 0
M  V30 7399 C 700.941 -5.69927 -0.630138 0
M  V30 7400 N 700.437 -6.90051 -0.616589 0
M  V30 7401 N 702.23 -5.5805 -0.673558 0
M  V30 7402 H 694.381 -1.97958 0.769819 0
M  V30 7403 H 696.644 -0.90428 0.284572 0
M  V30 7404 H 696.35 -3.48458 0.47643 0
M  V30 7405 H 696.224 -3.55086 -1.27254 0
M  V30 7406 H 698.611 -2.57386 -1.44349 0
M  V30 7407 H 698.692 -2.53744 0.323695 0
M  V30 7408 H 698.336 -5.06552 0.369843 0
M  V30 7409 H 698.266 -5.07364 -1.41028 0
M  V30 7410 H 700.757 -3.72822 -0.617419 0
M  V30 7411 H 701.07 -7.70132 -0.641592 0
M  V30 7412 H 699.415 -6.92543 -0.583927 0
M  V30 7413 H 702.606 -4.63112 -0.681544 0
M  V30 7414 H 702.779 -6.44286 -0.692794 0
M  V30 7415 N 696.185 0.383891 -1.52853 0
M  V30 7416 C 697.433 1.12619 -1.67814 0
M  V30 7417 C 697.754 1.90354 -0.423141 0
M  V30 7418 O 697.024 1.87649 0.562554 0
M  V30 7419 H 695.604 0.418738 -0.618601 0
M  V30 7420 H 698.266 0.43495 -1.89985 0
M  V30 7421 H 697.362 1.82624 -2.5309 0
M  V30 7422 N 697.663 1.43903 0.642637 0
M  V30 7423 C 698.573 1.52349 1.78401 0
M  V30 7424 C 699.589 0.409869 1.69104 0
M  V30 7425 O 700.765 0.665548 1.90085 0
M  V30 7426 C 697.83 1.45408 3.14734 0
M  V30 7427 C 696.891 2.67528 3.35749 0
M  V30 7428 C 696.124 2.60909 4.65577 0
M  V30 7429 O 696.347 1.6627 5.45628 0
M  V30 7430 O 695.281 3.5158 4.88544 0
M  V30 7431 H 699.107 2.48752 1.7423 0
M  V30 7432 H 696.692 1.26021 0.802439 0
M  V30 7433 H 698.574 1.44019 3.96026 0
M  V30 7434 H 697.249 0.521437 3.19473 0
M  V30 7435 H 696.156 2.74487 2.5418 0
M  V30 7436 H 697.489 3.598 3.35864 0
M  V30 7437 N 699.141 -0.881989 1.30609 0
M  V30 7438 C 700.388 -1.63405 1.19604 0
M  V30 7439 C 700.716 -1.92905 -0.248574 0
M  V30 7440 O 699.971 -1.55062 -1.19391 0
M  V30 7441 C 700.27 -2.97999 1.97311 0
M  V30 7442 C 699.936 -2.88039 3.46907 0
M  V30 7443 C 698.598 -2.85029 3.877 0
M  V30 7444 C 700.95 -2.75948 4.42156 0
M  V30 7445 C 698.278 -2.67772 5.2203 0
M  V30 7446 C 700.63 -2.60228 5.76597 0
M  V30 7447 C 699.294 -2.55595 6.16626 0
M  V30 7448 H 698.564 -0.597941 0.437662 0
M  V30 7449 H 701.211 -1.02524 1.61744 0
M  V30 7450 H 699.516 -3.62847 1.47815 0
M  V30 7451 H 701.213 -3.55156 1.86186 0
M  V30 7452 H 697.803 -2.91192 3.14492 0
M  V30 7453 H 701.987 -2.77337 4.1158 0
M  V30 7454 H 697.243 -2.62601 5.52133 0
M  V30 7455 H 701.417 -2.49847 6.50038 0
M  V30 7456 H 699.044 -2.41981 7.20659 0
M  V30 7457 N 700.619 -1.13374 -1.09472 0
M  V30 7458 C 701.865 -0.896516 -1.81908 0
M  V30 7459 C 702.198 0.575933 -1.85463 0
M  V30 7460 O 701.473 1.42618 -1.32251 0
M  V30 7461 C 701.756 -1.48445 -3.28079 0
M  V30 7462 C 701.609 -3.02598 -3.32798 0
M  V30 7463 C 702.928 -1.15226 -4.24748 0
M  V30 7464 H 700.047 -0.327127 -0.660422 0
M  V30 7465 H 702.689 -1.40195 -1.2824 0
M  V30 7466 H 700.839 -1.0546 -3.73912 0
M  V30 7467 H 702.511 -3.54335 -2.95372 0
M  V30 7468 H 700.754 -3.37613 -2.72397 0
M  V30 7469 H 701.425 -3.38835 -4.3577 0
M  V30 7470 H 703.901 -1.52369 -3.87199 0
M  V30 7471 H 702.777 -1.59012 -5.25363 0
M  V30 7472 H 703.038 -0.0658891 -4.42051 0
M  V30 7473 N 702.098 1.27442 -0.927168 0
M  V30 7474 C 703.045 2.26863 -0.424459 0
M  V30 7475 C 704.015 1.5813 0.508346 0
M  V30 7476 O 705.2 1.85946 0.42762 0
M  V30 7477 C 702.34 3.43639 0.31718 0
M  V30 7478 C 701.453 4.27087 -0.649675 0
M  V30 7479 C 700.588 5.31082 0.111753 0
M  V30 7480 C 699.627 6.062 -0.847843 0
M  V30 7481 N 698.764 7.01999 -0.119074 0
M  V30 7482 H 703.604 2.69239 -1.27728 0
M  V30 7483 H 701.141 1.32394 -0.641106 0
M  V30 7484 H 703.099 4.10155 0.763486 0
M  V30 7485 H 701.729 3.02217 1.13424 0
M  V30 7486 H 700.781 3.60491 -1.21451 0
M  V30 7487 H 702.093 4.79242 -1.38307 0
M  V30 7488 H 701.247 6.03544 0.618 0
M  V30 7489 H 699.986 4.7973 0.878114 0
M  V30 7490 H 698.991 5.32577 -1.36534 0
M  V30 7491 H 700.216 6.59642 -1.61398 0
M  V30 7492 H 698.162 6.52977 0.629051 0
M  V30 7493 H 698.079 7.5184 -0.792046 0
M  V30 7494 H 699.347 7.78638 0.366537 0
M  V30 7495 N 703.576 0.692616 1.41565 0
M  V30 7496 C 704.801 0.229776 2.06123 0
M  V30 7497 C 705.226 -1.11119 1.5177 0
M  V30 7498 O 704.584 -1.69498 0.643444 0
M  V30 7499 C 704.632 0.19469 3.60074 0
M  V30 7500 O 703.736 -0.831366 4.03933 0
M  V30 7501 H 703.077 0.113002 0.654314 0
M  V30 7502 H 705.607 0.946645 1.81383 0
M  V30 7503 H 705.617 0.0245487 4.07993 0
M  V30 7504 H 704.292 1.17339 3.99004 0
M  V30 7505 H 702.869 -0.630819 3.67526 0
M  V30 7506 N 705.054 -1.51416 0.437162 0
M  V30 7507 C 706.465 -1.86682 -0.0260005 0
M  V30 7508 C 706.816 -1.35432 -1.4196 0
M  V30 7509 O 705.941 -0.705055 -2.04592 0
M  V30 7510 C 706.536 -3.38757 -0.0539577 0
M  V30 7511 C 705.095 -3.7356 -0.461532 0
M  V30 7512 C 704.242 -2.75134 0.345924 0
M  V30 7513 H 707.193 -1.44642 0.653013 0
M  V30 7514 H 707.214 -3.70573 -0.863478 0
M  V30 7515 H 706.726 -3.76028 0.96045 0
M  V30 7516 H 704.827 -3.41878 -1.48155 0
M  V30 7517 H 704.94 -4.78737 -0.186451 0
M  V30 7518 H 703.304 -2.53947 -0.195739 0
M  V30 7519 H 704.087 -3.15247 1.35921 0
M  V30 7520 N 706.532 -0.168513 -1.56696 0
M  V30 7521 C 707.757 0.486688 -2.01609 0
M  V30 7522 C 708.182 1.56203 -1.04796 0
M  V30 7523 O 707.54 1.8128 -0.0270596 0
M  V30 7524 C 707.588 1.04451 -3.45141 0
M  V30 7525 O 706.692 2.15862 -3.51393 0
M  V30 7526 H 706.033 0.116831 -0.653641 0
M  V30 7527 H 708.563 -0.271579 -2.0279 0
M  V30 7528 H 708.573 1.36782 -3.84389 0
M  V30 7529 H 707.248 0.257155 -4.15104 0
M  V30 7530 H 705.825 1.84597 -3.24004 0
M  V30 7531 N 708.01 1.57248 0.105221 0
M  V30 7532 C 708.958 2.02337 1.14728 0
M  V30 7533 C 709.952 0.922652 1.42069 0
M  V30 7534 O 711.158 1.10785 1.41869 0
M  V30 7535 H 707.533 0.644682 0.387155 0
M  V30 7536 H 709.504 2.89063 0.740607 0
M  V30 7537 C 708.253 2.45513 2.46209 0
M  V30 7538 H 707.576 3.29785 2.26013 0
M  V30 7539 H 709.016 2.80846 3.1765 0
M  V30 7540 C 707.475 1.3243 3.09781 0
M  V30 7541 O 708.005 0.647841 3.96442 0
M  V30 7542 N 706.211 1.07785 2.69872 0
M  V30 7543 H 705.758 1.62973 1.99493 0
M  V30 7544 H 705.716 0.323204 3.12734 0
M  V30 7545 N 709.488 -0.375779 1.53054 0
M  V30 7546 C 710.713 -1.14484 1.7294 0
M  V30 7547 C 711.138 -1.82572 0.452668 0
M  V30 7548 O 710.496 -1.71343 -0.592567 0
M  V30 7549 C 710.544 -2.15857 2.88857 0
M  V30 7550 O 709.648 -3.22725 2.56753 0
M  V30 7551 H 708.989 -0.332666 0.574656 0
M  V30 7552 H 711.519 -0.436025 1.999 0
M  V30 7553 H 711.529 -2.59631 3.14731 0
M  V30 7554 H 710.204 -1.65689 3.81471 0
M  V30 7555 H 708.781 -2.83996 2.41663 0
M  V30 7556 N 710.966 -1.44241 -0.634997 0
M  V30 7557 C 712.191 -1.50516 -1.42687 0
M  V30 7558 C 712.616 -0.129864 -1.87651 0
M  V30 7559 O 711.974 0.880164 -1.58502 0
M  V30 7560 C 712.022 -2.4714 -2.62591 0
M  V30 7561 O 711.126 -1.97025 -3.62291 0
M  V30 7562 H 710.467 -0.50841 -0.427101 0
M  V30 7563 H 712.997 -1.89337 -0.775408 0
M  V30 7564 H 713.007 -2.65048 -3.10183 0
M  V30 7565 H 711.682 -3.47039 -2.29209 0
M  V30 7566 H 710.259 -1.88866 -3.21534 0
M  V30 7567 N 712.444 0.87505 -1.31075 0
M  V30 7568 C 713.69 1.63006 -1.21657 0
M  V30 7569 C 714.045 1.91088 0.224306 0
M  V30 7570 O 713.338 1.52779 1.15625 0
M  V30 7571 C 713.532 2.96948 -1.98888 0
M  V30 7572 C 713.361 2.81944 -3.50339 0
M  V30 7573 C 712.131 2.814 -4.19693 0
M  V30 7574 C 714.329 2.57171 -4.45385 0
M  V30 7575 N 712.311 2.57392 -5.57335 0
M  V30 7576 C 713.682 2.42379 -5.7066 0
M  V30 7577 C 715.737 2.42474 -4.34868 0
M  V30 7578 C 714.44 2.14385 -6.86609 0
M  V30 7579 C 716.466 2.15868 -5.50595 0
M  V30 7580 C 715.828 2.0186 -6.74857 0
M  V30 7581 H 711.927 0.601043 -0.500271 0
M  V30 7582 H 714.511 1.03033 -1.65204 0
M  V30 7583 H 712.682 3.54936 -1.57718 0
M  V30 7584 H 714.414 3.61702 -1.81531 0
M  V30 7585 H 711.169 2.93596 -3.71616 0
M  V30 7586 H 711.593 2.48373 -6.29794 0
M  V30 7587 H 716.235 2.52035 -3.39468 0
M  V30 7588 H 713.953 2.03562 -7.82041 0
M  V30 7589 H 717.539 2.05304 -5.44372 0
M  V30 7590 H 716.419 1.81562 -7.62892 0
M  V30 7591 N 713.922 1.13953 1.08869 0
M  V30 7592 C 714.854 0.779906 2.15523 0
M  V30 7593 C 715.867 -0.20102 1.61554 0
M  V30 7594 O 717.056 0.0200049 1.78489 0
M  V30 7595 C 714.156 0.136226 3.38626 0
M  V30 7596 C 713.329 1.15069 4.21993 0
M  V30 7597 C 712.388 0.531645 5.23507 0
M  V30 7598 O 711.414 1.19327 5.56552 0
M  V30 7599 N 712.616 -0.693734 5.7634 0
M  V30 7600 H 715.381 1.69769 2.46979 0
M  V30 7601 H 712.942 1.03331 1.24637 0
M  V30 7602 H 714.934 -0.290295 4.03658 0
M  V30 7603 H 713.504 -0.684603 3.05011 0
M  V30 7604 H 712.724 1.75431 3.53012 0
M  V30 7605 H 714.012 1.83614 4.74514 0
M  V30 7606 H 713.41 -1.24994 5.51718 0
M  V30 7607 H 711.967 -1.06283 6.43076 0
M  V30 7608 N 715.4 -1.26948 0.933913 0
M  V30 7609 C 716.625 -1.98724 0.593589 0
M  V30 7610 C 717.05 -1.6915 -0.822801 0
M  V30 7611 O 716.408 -0.93533 -1.5531 0
M  V30 7612 C 716.456 -3.50834 0.833542 0
M  V30 7613 O 715.56 -4.12284 -0.0978788 0
M  V30 7614 H 714.901 -0.623683 0.227849 0
M  V30 7615 H 717.431 -1.61599 1.25486 0
M  V30 7616 H 717.441 -4.01018 0.75156 0
M  V30 7617 H 716.116 -3.71691 1.86597 0
M  V30 7618 H 714.693 -3.72884 0.0345443 0
M  V30 7619 N 716.879 -0.700114 -1.41195 0
M  V30 7620 C 718.109 -0.241828 -2.0518 0
M  V30 7621 C 718.517 1.1157 -1.52803 0
M  V30 7622 O 717.86 1.70926 -0.673042 0
M  V30 7623 C 717.922 -0.12695 -3.59276 0
M  V30 7624 C 717.586 -1.41725 -4.34469 0
M  V30 7625 C 718.583 -2.35604 -4.63451 0
M  V30 7626 C 716.268 -1.67189 -4.73659 0
M  V30 7627 C 718.262 -3.53204 -5.3059 0
M  V30 7628 C 715.949 -2.85073 -5.40534 0
M  V30 7629 C 716.947 -3.77904 -5.68927 0
M  V30 7630 O 716.635 -4.93723 -6.34424 0
M  V30 7631 H 716.367 -0.109247 -0.667114 0
M  V30 7632 H 718.921 -0.954538 -1.81873 0
M  V30 7633 H 717.151 0.641571 -3.81341 0
M  V30 7634 H 718.84 0.294748 -4.04828 0
M  V30 7635 H 719.606 -2.1719 -4.33651 0
M  V30 7636 H 715.485 -0.957935 -4.50937 0
M  V30 7637 H 719.029 -4.25679 -5.52669 0
M  V30 7638 H 714.926 -3.03402 -5.69752 0
M  V30 7639 H 715.694 -4.93597 -6.5292 0
M  V30 7640 N 718.357 1.51182 -0.445186 0
M  V30 7641 C 719.267 2.31692 0.368255 0
M  V30 7642 C 720.283 1.40942 1.02036 0
M  V30 7643 O 721.459 1.74011 1.01401 0
M  V30 7644 C 718.524 3.14903 1.45041 0
M  V30 7645 C 717.585 4.21442 0.817615 0
M  V30 7646 C 716.818 5.00677 1.8482 0
M  V30 7647 O 717.041 4.80644 3.07145 0
M  V30 7648 O 715.975 5.84559 1.43438 0
M  V30 7649 H 719.801 3.0232 -0.289219 0
M  V30 7650 H 717.386 1.47951 -0.207555 0
M  V30 7651 H 719.268 3.66612 2.07783 0
M  V30 7652 H 717.943 2.47031 2.09182 0
M  V30 7653 H 716.85 3.73791 0.151931 0
M  V30 7654 H 718.183 4.9171 0.219564 0
M  V30 7655 N 719.835 0.176821 1.56605 0
M  V30 7656 C 720.765 -0.746841 2.21234 0
M  V30 7657 C 721.746 -1.23502 1.16967 0
M  V30 7658 O 722.931 -1.28718 1.45414 0
M  V30 7659 C 720.061 -1.97407 2.8574 0
M  V30 7660 C 719.015 -1.62153 3.96094 0
M  V30 7661 C 718.341 -2.92387 4.47676 0
M  V30 7662 C 719.641 -0.845353 5.15413 0
M  V30 7663 H 721.335 -0.208116 2.98676 0
M  V30 7664 H 718.881 -0.0986594 1.43662 0
M  V30 7665 H 720.834 -2.62531 3.2963 0
M  V30 7666 H 719.558 -2.53703 2.05676 0
M  V30 7667 H 718.217 -0.993964 3.52868 0
M  V30 7668 H 717.865 -3.46734 3.64396 0
M  V30 7669 H 717.565 -2.69551 5.22127 0
M  V30 7670 H 719.089 -3.5853 4.94255 0
M  V30 7671 H 720.503 -1.39929 5.55961 0
M  V30 7672 H 718.9 -0.715814 5.95815 0
M  V30 7673 H 719.97 0.157239 4.84645 0
M  V30 7674 N 721.313 -1.57302 -0.09688 0
M  V30 7675 C 722.56 -1.85997 -0.800699 0
M  V30 7676 C 722.888 -0.765089 -1.7882 0
M  V30 7677 O 722.143 0.241492 -1.94204 0
M  V30 7678 C 722.442 -3.21272 -1.56586 0
M  V30 7679 C 722.108 -4.45104 -0.72064 0
M  V30 7680 C 720.77 -4.78723 -0.487632 0
M  V30 7681 C 723.122 -5.2103 -0.132948 0
M  V30 7682 C 720.45 -5.85697 0.34296 0
M  V30 7683 C 722.802 -6.28881 0.684957 0
M  V30 7684 C 721.466 -6.61017 0.928073 0
M  V30 7685 H 720.736 -0.680613 -0.292997 0
M  V30 7686 H 723.383 -1.91399 -0.0622474 0
M  V30 7687 H 721.688 -3.11547 -2.37583 0
M  V30 7688 H 723.385 -3.40702 -2.11478 0
M  V30 7689 H 719.975 -4.18777 -0.912359 0
M  V30 7690 H 724.159 -4.95392 -0.300132 0
M  V30 7691 H 719.415 -6.09008 0.540317 0
M  V30 7692 H 723.589 -6.86886 1.14721 0
M  V30 7693 H 721.216 -7.43738 1.57348 0
M  V30 7694 N 722.791 0.367657 -1.53252 0
M  V30 7695 C 724.037 1.11216 -1.69584 0
M  V30 7696 C 724.37 1.89026 -0.445269 0
M  V30 7697 O 723.645 1.86342 0.557404 0
M  V30 7698 C 723.928 2.07308 -2.94441 0
M  V30 7699 C 723.781 1.3312 -4.2965 0
M  V30 7700 C 725.1 3.07459 -3.14892 0
M  V30 7701 H 722.219 0.40294 -0.617096 0
M  V30 7702 H 724.861 0.393201 -1.85887 0
M  V30 7703 H 723.011 2.68617 -2.80673 0
M  V30 7704 H 724.683 0.746111 -4.55226 0
M  V30 7705 H 722.926 0.633051 -4.29156 0
M  V30 7706 H 723.597 2.03443 -5.13142 0
M  V30 7707 H 726.073 2.56252 -3.27832 0
M  V30 7708 H 724.949 3.71919 -4.03693 0
M  V30 7709 H 725.21 3.77514 -2.30077 0
M  V30 7710 N 724.269 1.44576 0.627338 0
M  V30 7711 C 725.517 1.47267 1.38408 0
M  V30 7712 C 725.838 0.107971 1.94701 0
M  V30 7713 O 725.108 -0.860206 1.76004 0
M  V30 7714 H 723.688 0.542276 0.513756 0
M  V30 7715 H 726.35 1.80383 0.738099 0
M  V30 7716 H 725.446 2.20025 2.21349 0
M  V30 7717 N 725.747 -0.868086 1.31537 0
M  V30 7718 C 726.679 -1.98165 1.15166 0
M  V30 7719 C 727.692 -1.6255 0.0902335 0
M  V30 7720 O 728.881 -1.75272 0.33791 0
M  V30 7721 C 725.981 -3.30772 0.737776 0
M  V30 7722 C 725.154 -3.94716 1.88462 0
M  V30 7723 C 724.213 -5.05641 1.45648 0
M  V30 7724 O 723.239 -5.2636 2.16642 0
M  V30 7725 N 724.441 -5.79474 0.34493 0
M  V30 7726 H 727.206 -2.12754 2.11083 0
M  V30 7727 H 724.767 -1.04217 1.23897 0
M  V30 7728 H 726.759 -4.02366 0.434032 0
M  V30 7729 H 725.329 -3.1233 -0.129834 0
M  V30 7730 H 724.549 -3.16079 2.35558 0
M  V30 7731 H 725.837 -4.34175 2.65273 0
M  V30 7732 H 725.235 -5.65164 -0.246259 0
M  V30 7733 H 723.792 -6.51722 0.100728 0
M  V30 7734 N 727.225 -1.14528 -1.08264 0
M  V30 7735 C 728.135 -0.84728 -2.18765 0
M  V30 7736 C 729.151 0.172826 -1.7314 0
M  V30 7737 O 730.327 0.000985336 -2.014 0
M  V30 7738 C 727.392 -0.330633 -3.4512 0
M  V30 7739 C 726.453 -1.41348 -4.05363 0
M  V30 7740 C 725.686 -0.921387 -5.25686 0
M  V30 7741 O 725.909 0.236587 -5.69909 0
M  V30 7742 O 724.843 -1.70101 -5.77364 0
M  V30 7743 H 728.669 -1.7708 -2.46731 0
M  V30 7744 H 726.254 -0.923661 -1.17426 0
M  V30 7745 H 728.136 -0.0485053 -4.21372 0
M  V30 7746 H 726.811 0.565147 -3.18728 0
M  V30 7747 H 725.718 -1.74908 -3.30693 0
M  V30 7748 H 727.051 -2.28383 -4.36007 0
M  V30 7749 N 728.703 1.26451 -0.940633 0
M  V30 7750 C 729.65 2.264 -0.448497 0
M  V30 7751 C 730.62 1.5866 0.491546 0
M  V30 7752 O 731.805 1.86389 0.407874 0
M  V30 7753 C 728.945 3.43956 0.280715 0
M  V30 7754 C 728.058 4.26374 -0.694937 0
M  V30 7755 C 727.193 5.31171 0.0554186 0
M  V30 7756 C 726.232 6.05266 -0.912091 0
M  V30 7757 N 725.369 7.01833 -0.193524 0
M  V30 7758 H 730.209 2.67869 -1.30576 0
M  V30 7759 H 727.746 1.31707 -0.655112 0
M  V30 7760 H 729.704 4.10941 0.71994 0
M  V30 7761 H 728.334 3.03403 1.10212 0
M  V30 7762 H 727.386 3.59183 -1.25267 0
M  V30 7763 H 728.698 4.77748 -1.43382 0
M  V30 7764 H 727.852 6.04166 0.553951 0
M  V30 7765 H 726.591 4.80634 0.827183 0
M  V30 7766 H 725.596 5.31099 -1.42175 0
M  V30 7767 H 726.821 6.57893 -1.68385 0
M  V30 7768 H 724.767 6.53607 0.559758 0
M  V30 7769 H 724.684 7.50957 -0.871744 0
M  V30 7770 H 725.952 7.78983 0.283932 0
M  V30 7771 N 730.181 0.707592 1.40822 0
M  V30 7772 C 731.429 0.243189 2.00632 0
M  V30 7773 C 731.75 -1.16512 1.56365 0
M  V30 7774 O 731.02 -1.78841 0.799553 0
M  V30 7775 H 729.6 0.0869203 0.741926 0
M  V30 7776 H 732.262 0.911438 1.72275 0
M  V30 7777 H 731.358 0.270014 3.1093 0
M  V30 7778 N 731.66 -1.50943 0.453197 0
M  V30 7779 C 732.608 -2.29728 -0.364419 0
M  V30 7780 C 733.602 -1.36246 -1.00664 0
M  V30 7781 O 734.808 -1.53518 -0.939794 0
M  V30 7782 H 731.183 -0.739536 -0.136347 0
M  V30 7783 H 733.154 -2.96672 0.320696 0
M  V30 7784 C 731.903 -3.1629 -1.44415 0
M  V30 7785 H 731.226 -3.88119 -0.959343 0
M  V30 7786 H 732.666 -3.74444 -1.98917 0
M  V30 7787 C 731.125 -2.32702 -2.43622 0
M  V30 7788 O 731.655 -1.99763 -3.48508 0
M  V30 7789 N 729.861 -1.95621 -2.14897 0
M  V30 7790 H 729.408 -2.22607 -1.29629 0
M  V30 7791 H 729.366 -1.39993 -2.81513 0
M  V30 7792 N 733.138 -0.185124 -1.56509 0
M  V30 7793 C 734.415 0.503348 -1.89013 0
M  V30 7794 C 734.795 1.80349 -1.09715 0
M  V30 7795 O 734.143 2.27665 -0.195203 0
M  V30 7796 C 734.353 0.731839 -3.41241 0
M  V30 7797 C 735.701 1.05568 -4.11267 0
M  V30 7798 O 736.725 0.819906 -3.46635 0
M  V30 7799 O 735.584 1.50116 -5.25478 0
M  V30 7800 H 732.678 0.261139 -0.784688 0
M  V30 7801 H 735.224 -0.224592 -1.68207 0
M  V30 7802 H 733.996 -0.18672 -3.90854 0
M  V30 7803 H 733.619 1.5126 -3.67704 0
M  V30 7804 N 734.616 1.57351 0.0885366 0
M  V30 7805 C 735.893 1.77449 0.822873 0
M  V30 7806 C 736.273 0.768463 1.96616 0
M  V30 7807 O 735.621 -0.201757 2.27608 0
M  V30 7808 C 735.831 3.23425 1.31137 0
M  V30 7809 C 737.179 3.86791 1.75152 0
M  V30 7810 O 738.203 3.27215 1.40745 0
M  V30 7811 O 737.062 4.91568 2.38794 0
M  V30 7812 H 734.156 0.727653 0.393002 0
M  V30 7813 H 736.702 1.69556 0.0699095 0
M  V30 7814 H 735.474 3.88188 0.49254 0
M  V30 7815 H 735.097 3.35977 2.12615 0
M  V30 7816 N 736.094 -0.359525 1.53444 0
M  V30 7817 C 737.042 -1.46104 1.80987 0
M  V30 7818 C 738.036 -1.55181 0.679351 0
M  V30 7819 O 739.242 -1.57995 0.862405 0
M  V30 7820 H 735.617 -0.486835 0.573145 0
M  V30 7821 H 737.588 -1.2008 2.73173 0
M  V30 7822 C 736.337 -2.82855 2.02208 0
M  V30 7823 H 735.66 -2.76631 2.88644 0
M  V30 7824 H 737.1 -3.59091 2.25455 0
M  V30 7825 C 735.559 -3.27192 0.802931 0
M  V30 7826 O 736.089 -4.017 -0.00544286 0
M  V30 7827 N 734.295 -2.83807 0.624657 0
M  V30 7828 H 733.842 -2.23339 1.28364 0
M  V30 7829 H 733.8 -3.13828 -0.189641 0
M  V30 7830 N 737.572 -1.44907 -0.619662 0
M  V30 7831 C 738.52 -1.52971 -1.75222 0
M  V30 7832 C 739.514 -0.400531 -1.64597 0
M  V30 7833 O 740.72 -0.575952 -1.70537 0
M  V30 7834 H 737.095 -0.480241 -0.578682 0
M  V30 7835 H 739.066 -2.48269 -1.65545 0
M  V30 7836 C 737.815 -1.50204 -3.13583 0
M  V30 7837 H 737.138 -2.36412 -3.22412 0
M  V30 7838 H 738.578 -1.59905 -3.92691 0
M  V30 7839 C 737.037 -0.22455 -3.36151 0
M  V30 7840 O 737.567 0.700574 -3.95544 0
M  V30 7841 N 735.773 -0.124052 -2.90335 0
M  V30 7842 H 735.32 -0.87774 -2.42185 0
M  V30 7843 H 735.278 0.729914 -3.0581 0
M  V30 7844 N 739.05 0.861098 -1.31996 0
M  V30 7845 C 739.997 1.96912 -1.20392 0
M  V30 7846 C 740.967 1.65869 -0.0875899 0
M  V30 7847 O 742.152 1.88992 -0.262011 0
M  V30 7848 C 739.292 3.32435 -0.926335 0
M  V30 7849 C 738.405 3.76018 -2.12684 0
M  V30 7850 C 737.54 5.00301 -1.78529 0
M  V30 7851 C 736.579 5.36357 -2.94937 0
M  V30 7852 N 735.716 6.51818 -2.60917 0
M  V30 7853 H 740.556 2.06169 -2.1517 0
M  V30 7854 H 738.093 1.00917 -1.07024 0
M  V30 7855 H 740.051 4.10478 -0.745917 0
M  V30 7856 H 738.681 3.22796 -0.0153578 0
M  V30 7857 H 737.733 2.93683 -2.41774 0
M  V30 7858 H 739.045 3.98664 -2.99781 0
M  V30 7859 H 738.199 5.86034 -1.57001 0
M  V30 7860 H 736.938 4.79578 -0.886356 0
M  V30 7861 H 735.943 4.49139 -3.17103 0
M  V30 7862 H 737.168 5.59041 -3.85552 0
M  V30 7863 H 735.114 6.32624 -1.73558 0
M  V30 7864 H 735.031 6.7445 -3.41544 0
M  V30 7865 H 736.299 7.4072 -2.42804 0
M  V30 7866 N 740.528 1.15101 1.07655 0
M  V30 7867 C 741.438 0.858869 2.18313 0
M  V30 7868 C 742.454 -0.163641 1.73229 0
M  V30 7869 O 743.63 0.00969541 2.01398 0
M  V30 7870 C 740.695 0.34893 3.4494 0
M  V30 7871 C 739.756 1.43495 4.04608 0
M  V30 7872 C 738.989 0.949253 5.2519 0
M  V30 7873 O 739.212 -0.20636 5.70027 0
M  V30 7874 O 738.146 1.73161 5.76454 0
M  V30 7875 H 741.972 1.78386 2.45788 0
M  V30 7876 H 739.557 0.929876 1.16934 0
M  V30 7877 H 741.439 0.070851 4.2134 0
M  V30 7878 H 740.114 -0.548237 3.19024 0
M  V30 7879 H 739.021 1.7666 3.29761 0
M  V30 7880 H 740.354 2.30692 4.3479 0
M  V30 7881 N 742.006 -1.2595 0.947325 0
M  V30 7882 C 743.422 -1.45737 0.650597 0
M  V30 7883 C 743.622 -1.85189 -0.794188 0
M  V30 7884 O 742.678 -1.97738 -1.57022 0
M  V30 7885 C 743.991 -2.53505 1.61728 0
M  V30 7886 C 745.539 -2.67351 1.62765 0
M  V30 7887 C 746.014 -3.78296 2.58179 0
M  V30 7888 N 747.505 -3.85696 2.56501 0
M  V30 7889 C 748.24 -4.71012 3.2701 0
M  V30 7890 N 747.736 -5.60669 4.06966 0
M  V30 7891 N 749.529 -4.64912 3.15932 0
M  V30 7892 H 741.68 -0.986327 1.8811 0
M  V30 7893 H 743.943 -0.494639 0.808725 0
M  V30 7894 H 743.649 -2.31357 2.6489 0
M  V30 7895 H 743.523 -3.51281 1.3741 0
M  V30 7896 H 745.91 -2.88869 0.603241 0
M  V30 7897 H 745.991 -1.69998 1.91139 0
M  V30 7898 H 745.635 -3.5753 3.60742 0
M  V30 7899 H 745.565 -4.75117 2.27093 0
M  V30 7900 H 748.056 -3.21601 1.98447 0
M  V30 7901 H 748.369 -6.22677 4.57704 0
M  V30 7902 H 746.714 -5.60402 4.11066 0
M  V30 7903 H 749.905 -3.93874 2.52945 0
M  V30 7904 H 750.078 -5.3118 3.71149 0
M  V30 7905 N 743.484 -0.715051 -1.40445 0
M  V30 7906 C 744.733 -0.251322 -2.00128 0
M  V30 7907 C 745.046 1.16194 -1.57347 0
M  V30 7908 O 746.252 1.72416 -2.09726 0
M  V30 7909 C 744.708 -0.398407 -3.57688 0
M  V30 7910 C 744.316 -1.81828 -4.09442 0
M  V30 7911 C 746.06 0.00455625 -4.245 0
M  V30 7912 C 743.967 -1.91598 -5.59503 0
M  V30 7913 H 742.897 -0.0902081 -0.748584 0
M  V30 7914 H 745.548 -0.886062 -1.6069 0
M  V30 7915 H 743.93 0.304908 -3.94824 0
M  V30 7916 H 745.104 -2.55193 -3.83684 0
M  V30 7917 H 743.419 -2.17266 -3.55225 0
M  V30 7918 H 746.016 -0.0477303 -5.34679 0
M  V30 7919 H 746.359 1.04636 -4.02935 0
M  V30 7920 H 746.892 -0.649184 -3.92467 0
M  V30 7921 H 743.631 -2.93898 -5.85922 0
M  V30 7922 H 743.151 -1.22644 -5.87127 0
M  V30 7923 H 744.83 -1.68785 -6.24596 0
M  V30 7924 N 744.962 1.50701 -0.461195 0
M  V30 7925 C 746.187 2.07171 0.0974773 0
M  V30 7926 C 746.612 1.32391 1.3362 0
M  V30 7927 O 745.97 0.368676 1.77512 0
M  V30 7928 C 746.018 3.58651 0.374409 0
M  V30 7929 O 745.122 3.85816 1.4567 0
M  V30 7930 H 744.463 0.663944 -0.00862047 0
M  V30 7931 H 746.993 1.94021 -0.649394 0
M  V30 7932 H 747.003 4.03295 0.617843 0
M  V30 7933 H 745.678 4.12498 -0.530829 0
M  V30 7934 H 744.255 3.53018 1.20136 0
M  V30 7935 N 746.441 0.193421 1.56409 0
M  V30 7936 C 747.69 -0.445995 1.96707 0
M  V30 7937 C 748.003 -1.62876 1.08309 0
M  V30 7938 O 749.209 -2.33586 1.38383 0
M  V30 7939 C 747.665 -0.844863 3.49843 0
M  V30 7940 C 747.273 0.31352 4.46902 0
M  V30 7941 C 749.017 -1.45146 3.98915 0
M  V30 7942 C 746.924 -0.106214 5.91305 0
M  V30 7943 H 745.854 -0.170398 0.734493 0
M  V30 7944 H 748.505 0.285172 1.81271 0
M  V30 7945 H 746.887 -1.63265 3.60778 0
M  V30 7946 H 748.061 1.09103 4.47698 0
M  V30 7947 H 746.376 0.8315 4.08014 0
M  V30 7948 H 748.973 -1.77792 5.04276 0
M  V30 7949 H 749.316 -2.35734 3.43126 0
M  V30 7950 H 749.849 -0.727675 3.91088 0
M  V30 7951 H 746.588 0.765442 6.51016 0
M  V30 7952 H 746.108 -0.848623 5.93766 0
M  V30 7953 H 747.787 -0.542588 6.44721 0
M  V30 7954 N 747.919 -1.57396 -0.0801906 0
M  V30 7955 C 748.851 -1.9982 -1.12271 0
M  V30 7956 C 749.864 -0.902902 -1.35468 0
M  V30 7957 O 751.053 -1.18088 -1.33856 0
M  V30 7958 C 748.153 -2.31476 -2.47532 0
M  V30 7959 C 747.326 -3.62745 -2.44407 0
M  V30 7960 C 746.385 -3.82168 -3.6171 0
M  V30 7961 O 745.411 -4.53852 -3.43522 0
M  V30 7962 N 746.613 -3.2388 -4.81749 0
M  V30 7963 H 749.378 -2.89864 -0.761501 0
M  V30 7964 H 746.939 -1.5965 -0.268965 0
M  V30 7965 H 748.931 -2.4165 -3.24634 0
M  V30 7966 H 747.501 -1.47364 -2.75686 0
M  V30 7967 H 746.721 -3.63403 -1.52747 0
M  V30 7968 H 748.009 -4.48954 -2.39412 0
M  V30 7969 H 747.407 -2.6568 -4.9943 0
M  V30 7970 H 745.964 -3.39515 -5.56392 0
M  V30 7971 N 749.397 0.351382 -1.53633 0
M  V30 7972 C 750.622 1.11718 -1.74739 0
M  V30 7973 C 751.047 1.81829 -0.481657 0
M  V30 7974 O 750.405 1.72264 0.565233 0
M  V30 7975 C 750.453 2.11234 -2.92254 0
M  V30 7976 O 749.557 3.186 -2.61855 0
M  V30 7977 H 748.898 0.323482 -0.579875 0
M  V30 7978 H 751.428 0.404167 -2.00568 0
M  V30 7979 H 751.438 2.54591 -3.18822 0
M  V30 7980 H 750.113 1.59599 -3.84058 0
M  V30 7981 H 748.69 2.80115 -2.4615 0
M  V30 7982 N 750.875 1.45233 0.611969 0
M  V30 7983 C 751.785 1.56098 1.7513 0
M  V30 7984 C 752.801 0.445646 1.68196 0
M  V30 7985 O 753.977 0.705718 1.88631 0
M  V30 7986 C 751.042 1.52052 3.11579 0
M  V30 7987 C 750.103 2.74589 3.29999 0
M  V30 7988 C 749.336 2.70726 4.59938 0
M  V30 7989 O 749.559 1.77806 5.41979 0
M  V30 7990 O 748.493 3.61864 4.80976 0
M  V30 7991 H 752.319 2.52392 1.68914 0
M  V30 7992 H 749.904 1.27695 0.775528 0
M  V30 7993 H 751.786 1.52387 3.92882 0
M  V30 7994 H 750.461 0.589085 3.18295 0
M  V30 7995 H 749.368 2.79817 2.48301 0
M  V30 7996 H 750.701 3.66843 3.28157 0
M  V30 7997 N 752.353 -0.854086 1.3245 0
M  V30 7998 C 753.601 -1.60513 1.228 0
M  V30 7999 C 753.922 -1.93865 -0.210073 0
M  V30 8000 O 753.192 -1.59673 -1.13496 0
M  V30 8001 H 751.772 -0.595099 0.451516 0
M  V30 8002 H 754.434 -1.0216 1.6598 0
M  V30 8003 H 753.53 -2.54182 1.81102 0
M  V30 8004 N 753.831 -1.1567 -1.07043 0
M  V30 8005 C 755.079 -0.931673 -1.79344 0
M  V30 8006 C 755.4 0.542421 -1.87304 0
M  V30 8007 O 754.67 1.39418 -1.37621 0
M  V30 8008 H 753.25 -0.34171 -0.664262 0
M  V30 8009 H 755.912 -1.45795 -1.29344 0
M  V30 8010 H 755.008 -1.34379 -2.81689 0
M  V30 8011 N 755.309 1.25446 -0.953992 0
M  V30 8012 C 756.586 1.884 -0.525823 0
M  V30 8013 C 756.966 1.86079 0.996891 0
M  V30 8014 O 756.314 1.32389 1.8624 0
M  V30 8015 C 756.524 3.31154 -1.10172 0
M  V30 8016 C 757.872 4.07926 -1.17819 0
M  V30 8017 O 758.896 3.40273 -1.05323 0
M  V30 8018 O 757.755 5.28942 -1.37415 0
M  V30 8019 H 754.849 0.808629 -0.173345 0
M  V30 8020 H 757.395 1.33522 -1.04738 0
M  V30 8021 H 756.167 3.27271 -2.14499 0
M  V30 8022 H 755.79 3.93588 -0.56338 0
M  V30 8023 N 756.787 0.722489 1.40064 0
M  V30 8024 C 758.012 0.273446 2.05589 0
M  V30 8025 C 758.437 -1.07875 1.54093 0
M  V30 8026 O 757.795 -1.68095 0.679252 0
M  V30 8027 C 757.843 0.271023 3.5958 0
M  V30 8028 O 756.947 -0.745499 4.05606 0
M  V30 8029 H 756.288 0.126856 0.65177 0
M  V30 8030 H 758.818 0.984906 1.79334 0
M  V30 8031 H 758.828 0.111084 4.07849 0
M  V30 8032 H 757.503 1.25776 3.96425 0
M  V30 8033 H 756.08 -0.552719 3.68781 0
M  V30 8034 N 758.265 -1.50454 0.469181 0
M  V30 8035 C 759.514 -2.01507 -0.0881425 0
M  V30 8036 C 759.827 -1.35613 -1.40956 0
M  V30 8037 O 761.033 -1.77812 -2.05171 0
M  V30 8038 C 759.489 -3.59301 -0.207596 0
M  V30 8039 C 759.097 -4.34152 1.10527 0
M  V30 8040 C 760.841 -4.18401 -0.716981 0
M  V30 8041 C 758.748 -5.83725 0.949717 0
M  V30 8042 H 757.678 -0.753106 -0.0367156 0
M  V30 8043 H 760.329 -1.73282 0.603788 0
M  V30 8044 H 758.711 -3.84106 -0.963265 0
M  V30 8045 H 759.885 -4.21073 1.87175 0
M  V30 8046 H 758.2 -3.86652 1.54562 0
M  V30 8047 H 760.797 -5.27895 -0.850363 0
M  V30 8048 H 761.14 -3.79657 -1.70782 0
M  V30 8049 H 761.673 -3.97796 -0.0187511 0
M  V30 8050 H 758.412 -6.26938 1.91387 0
M  V30 8051 H 757.932 -5.99383 0.223591 0
M  V30 8052 H 759.611 -6.44065 0.61557 0
M  V30 8053 N 759.743 -0.201713 -1.56304 0
M  V30 8054 C 760.968 0.443815 -2.02596 0
M  V30 8055 C 761.393 1.53945 -1.08086 0
M  V30 8056 O 760.751 1.81182 -0.0655056 0
M  V30 8057 C 760.799 0.971066 -3.47279 0
M  V30 8058 O 759.903 2.0836 -3.55893 0
M  V30 8059 H 759.244 0.10294 -0.655972 0
M  V30 8060 H 761.774 -0.314533 -2.02168 0
M  V30 8061 H 761.784 1.28598 -3.87204 0
M  V30 8062 H 760.459 0.169048 -4.15556 0
M  V30 8063 H 759.036 1.77683 -3.27846 0
M  V30 8064 N 761.222 1.57436 0.0718424 0
M  V30 8065 C 762.132 2.07039 1.10326 0
M  V30 8066 C 763.148 0.999918 1.424 0
M  V30 8067 O 764.324 1.31462 1.52577 0
M  V30 8068 C 761.389 2.50439 2.39752 0
M  V30 8069 C 760.45 3.71784 2.14651 0
M  V30 8070 C 759.683 4.13104 3.37906 0
M  V30 8071 O 759.906 3.54298 4.47023 0
M  V30 8072 O 758.84 5.05894 3.26121 0
M  V30 8073 H 762.666 2.95239 0.711872 0
M  V30 8074 H 760.251 1.46638 0.28597 0
M  V30 8075 H 762.133 2.78876 3.15921 0
M  V30 8076 H 760.808 1.65368 2.78271 0
M  V30 8077 H 759.715 3.48431 1.36187 0
M  V30 8078 H 761.048 4.57707 1.81012 0
M  V30 8079 N 762.7 -0.34323 1.53817 0
M  V30 8080 C 763.632 -1.44216 1.78141 0
M  V30 8081 C 764.645 -1.48701 0.662721 0
M  V30 8082 O 765.834 -1.51778 0.939458 0
M  V30 8083 C 762.934 -2.82872 1.86646 0
M  V30 8084 C 762.107 -3.01824 3.16577 0
M  V30 8085 C 761.166 -4.20723 3.16036 0
M  V30 8086 O 760.192 -4.14824 3.89756 0
M  V30 8087 N 761.394 -5.29276 2.38427 0
M  V30 8088 H 764.159 -1.23721 2.72971 0
M  V30 8089 H 761.72 -0.53311 1.52871 0
M  V30 8090 H 763.712 -3.60588 1.83735 0
M  V30 8091 H 762.282 -2.96509 0.990014 0
M  V30 8092 H 761.502 -2.11575 3.3261 0
M  V30 8093 H 762.79 -3.11369 4.02402 0
M  V30 8094 H 762.188 -5.36938 1.78085 0
M  V30 8095 H 760.745 -6.05484 2.41313 0
M  V30 8096 N 764.178 -1.45556 -0.604258 0
M  V30 8097 C 765.594 -1.30035 -0.925368 0
M  V30 8098 C 765.794 -0.255833 -1.99869 0
M  V30 8099 O 764.85 0.349076 -2.50075 0
M  V30 8100 C 766.163 -2.68028 -1.36314 0
M  V30 8101 C 767.711 -2.75951 -1.47717 0
M  V30 8102 C 768.186 -4.14476 -1.94868 0
M  V30 8103 N 769.677 -4.16787 -2.02097 0
M  V30 8104 C 770.412 -5.20845 -2.39809 0
M  V30 8105 N 769.908 -6.35246 -2.76467 0
M  V30 8106 N 771.701 -5.08204 -2.40177 0
M  V30 8107 H 763.852 -2.1214 0.10512 0
M  V30 8108 H 766.115 -0.947871 -0.0156303 0
M  V30 8109 H 765.821 -3.45667 -0.648628 0
M  V30 8110 H 765.695 -2.96711 -2.329 0
M  V30 8111 H 768.082 -1.98613 -2.18258 0
M  V30 8112 H 768.163 -2.50977 -0.494371 0
M  V30 8113 H 767.807 -4.923 -1.24912 0
M  V30 8114 H 767.737 -4.36843 -2.94068 0
M  V30 8115 H 770.228 -3.34233 -1.76343 0
M  V30 8116 H 770.541 -7.10438 -3.04134 0
M  V30 8117 H 768.886 -6.38642 -2.74155 0
M  V30 8118 H 772.077 -4.17874 -2.10947 0
M  V30 8119 H 772.25 -5.89417 -2.69242 0
M  V30 8120 N 765.656 0.84705 -1.32902 0
M  V30 8121 C 766.881 1.63925 -1.27056 0
M  V30 8122 C 767.306 1.87443 0.157136 0
M  V30 8123 O 766.664 1.43266 1.11106 0
M  V30 8124 C 766.712 2.97134 -2.04313 0
M  V30 8125 O 765.816 3.88049 -1.39614 0
M  V30 8126 H 765.157 0.499477 -0.437514 0
M  V30 8127 H 767.687 1.05443 -1.75336 0
M  V30 8128 H 767.697 3.46896 -2.14772 0
M  V30 8129 H 766.372 2.79339 -3.08128 0
M  V30 8130 H 764.949 3.46525 -1.3775 0
M  V30 8131 N 767.134 1.16236 1.06428 0
M  V30 8132 C 768.55 0.906983 1.31324 0
M  V30 8133 C 768.75 -0.440872 1.96618 0
M  V30 8134 O 767.806 -1.1807 2.23194 0
M  V30 8135 C 769.119 2.05501 2.19522 0
M  V30 8136 C 770.667 2.09061 2.32943 0
M  V30 8137 C 771.142 3.23214 3.24495 0
M  V30 8138 N 772.633 3.22922 3.32078 0
M  V30 8139 C 773.368 4.07889 4.03006 0
M  V30 8140 N 772.864 5.02941 4.76469 0
M  V30 8141 N 774.657 3.95881 3.99043 0
M  V30 8142 H 766.808 2.03015 0.624388 0
M  V30 8143 H 769.071 0.88576 0.337835 0
M  V30 8144 H 768.777 3.02847 1.78819 0
M  V30 8145 H 768.651 1.99538 3.201 0
M  V30 8146 H 771.038 1.12308 2.72893 0
M  V30 8147 H 771.119 2.19089 1.32037 0
M  V30 8148 H 770.763 4.20225 2.85261 0
M  V30 8149 H 770.693 3.10423 4.25377 0
M  V30 8150 H 773.184 2.54093 2.79724 0
M  V30 8151 H 773.497 5.64196 5.28112 0
M  V30 8152 H 771.842 5.06922 4.75453 0
M  V30 8153 H 775.033 3.20927 3.40769 0
M  V30 8154 H 775.206 4.62321 4.54052 0
M  V30 8155 N 768.612 -1.24939 0.960631 0
M  V30 8156 C 769.542 -2.28 0.503815 0
M  V30 8157 C 770.523 -1.63959 -0.452928 0
M  V30 8158 O 771.708 -1.91009 -0.350585 0
M  V30 8159 C 768.838 -3.46643 -0.213535 0
M  V30 8160 C 767.792 -4.22903 0.658535 0
M  V30 8161 C 767.118 -5.34363 -0.189902 0
M  V30 8162 C 768.418 -4.84949 1.93963 0
M  V30 8163 H 770.112 -2.66462 1.36521 0
M  V30 8164 H 767.658 -1.28093 0.657897 0
M  V30 8165 H 769.611 -4.1787 -0.544286 0
M  V30 8166 H 768.335 -3.07187 -1.10923 0
M  V30 8167 H 766.994 -3.53467 0.972455 0
M  V30 8168 H 766.642 -4.91147 -1.08553 0
M  V30 8169 H 766.342 -5.86302 0.390331 0
M  V30 8170 H 767.866 -6.0842 -0.515484 0
M  V30 8171 H 769.28 -5.48288 1.67491 0
M  V30 8172 H 767.677 -5.47091 2.46601 0
M  V30 8173 H 768.747 -4.06799 2.639 0
M  V30 8174 N 770.09 -0.729906 -1.39679 0
M  V30 8175 C 771.038 -0.0756589 -2.32477 0
M  V30 8176 C 772.032 0.731438 -1.52795 0
M  V30 8177 O 773.238 0.633195 -1.68495 0
M  V30 8178 H 769.613 -0.00566492 -0.751979 0
M  V30 8179 H 771.584 -0.874797 -2.85289 0
M  V30 8180 C 770.333 0.821313 -3.37861 0
M  V30 8181 H 769.656 0.209666 -3.9925 0
M  V30 8182 H 771.096 1.24679 -4.05254 0
M  V30 8183 C 769.555 1.9533 -2.74495 0
M  V30 8184 O 770.085 3.04548 -2.61942 0
M  V30 8185 N 768.291 1.74119 -2.3266 0
M  V30 8186 H 767.838 0.852908 -2.4307 0
M  V30 8187 H 767.796 2.50036 -1.90603 0
M  V30 8188 N 771.568 1.50203 -0.477153 0
M  V30 8189 C 772.531 2.27194 0.302599 0
M  V30 8190 C 773.531 1.32221 0.915112 0
M  V30 8191 O 774.721 1.55593 0.783348 0
M  V30 8192 C 771.853 3.0938 1.43167 0
M  V30 8193 H 773.046 2.97575 -0.372678 0
M  V30 8194 H 770.599 1.54578 -0.231392 0
M  V30 8195 H 771.334 2.43509 2.14182 0
M  V30 8196 H 771.119 3.79181 0.998197 0
M  V30 8197 H 772.609 3.67592 1.98157 0
M  V30 8198 N 773.046 0.209999 1.56195 0
M  V30 8199 C 774.274 -0.429996 2.02382 0
M  V30 8200 C 774.689 -1.54159 1.08998 0
M  V30 8201 O 774.046 -1.82239 0.0974856 0
M  V30 8202 C 774.097 -0.972433 3.48175 0
M  V30 8203 O 773.818 0.0948231 4.37997 0
M  V30 8204 C 775.319 -1.68683 4.09952 0
M  V30 8205 H 772.539 -0.106475 0.662498 0
M  V30 8206 H 775.083 0.323072 2.01932 0
M  V30 8207 H 773.238 -1.67582 3.49278 0
M  V30 8208 H 773.652 -0.31113 5.23576 0
M  V30 8209 H 775.126 -2.01851 5.13771 0
M  V30 8210 H 775.603 -2.59587 3.54276 0
M  V30 8211 H 776.209 -1.02893 4.12666 0
M  V30 8212 N 774.524 -1.57472 -0.0634922 0
M  V30 8213 C 775.471 -2.04258 -1.07457 0
M  V30 8214 C 776.441 -0.924804 -1.37973 0
M  V30 8215 O 777.626 -1.19305 -1.48899 0
M  V30 8216 C 774.766 -2.49832 -2.38071 0
M  V30 8217 C 773.879 -3.75263 -2.14014 0
M  V30 8218 C 773.014 -4.09585 -3.38251 0
M  V30 8219 C 772.053 -5.28032 -3.09594 0
M  V30 8220 N 771.19 -5.57953 -4.26185 0
M  V30 8221 H 776.03 -2.90402 -0.668626 0
M  V30 8222 H 773.567 -1.43609 -0.318572 0
M  V30 8223 H 775.525 -2.7431 -3.14341 0
M  V30 8224 H 774.155 -1.66654 -2.76453 0
M  V30 8225 H 773.207 -3.58075 -1.28399 0
M  V30 8226 H 774.519 -4.61667 -1.88852 0
M  V30 8227 H 773.673 -4.35008 -4.2291 0
M  V30 8228 H 772.412 -3.21765 -3.66495 0
M  V30 8229 H 771.417 -5.02397 -2.23332 0
M  V30 8230 H 772.642 -6.17477 -2.82663 0
M  V30 8231 H 770.588 -4.73092 -4.54445 0
M  V30 8232 H 770.505 -6.38793 -4.04326 0
M  V30 8233 H 771.773 -5.87931 -5.11817 0
M  V30 8234 N 776.003 0.335068 -1.53997 0
M  V30 8235 C 777.25 1.07435 -1.71651 0
M  V30 8236 C 777.578 1.88378 -0.48413 0
M  V30 8237 O 776.833 1.8827 0.534139 0
M  V30 8238 C 777.132 2.0364 -2.9371 0
M  V30 8239 C 776.798 1.38942 -4.28959 0
M  V30 8240 C 775.46 1.21027 -4.65732 0
M  V30 8241 C 777.812 0.924083 -5.12943 0
M  V30 8242 C 775.14 0.552097 -5.84097 0
M  V30 8243 C 777.492 0.27978 -6.31981 0
M  V30 8244 C 776.156 0.0883843 -6.67441 0
M  V30 8245 H 775.426 0.393133 -0.628114 0
M  V30 8246 H 778.073 0.352712 -1.88224 0
M  V30 8247 H 776.378 2.82215 -2.71775 0
M  V30 8248 H 778.075 2.6085 -3.04562 0
M  V30 8249 H 774.665 1.53885 -4.00022 0
M  V30 8250 H 778.849 1.05032 -4.85059 0
M  V30 8251 H 774.105 0.392502 -6.10139 0
M  V30 8252 H 778.279 -0.0888479 -6.96343 0
M  V30 8253 H 775.906 -0.423657 -7.59019 0
M  V30 8254 N 777.481 1.45874 0.596531 0
M  V30 8255 C 778.897 1.30524 0.918459 0
M  V30 8256 C 779.097 0.266429 1.99731 0
M  V30 8257 O 778.153 -0.335809 2.50257 0
M  V30 8258 C 779.466 2.68747 1.3489 0
M  V30 8259 C 781.014 2.7673 1.46251 0
M  V30 8260 C 781.489 4.15504 1.92667 0
M  V30 8261 N 782.98 4.17853 1.99883 0
M  V30 8262 C 783.715 5.22109 2.37044 0
M  V30 8263 N 783.211 6.36704 2.73094 0
M  V30 8264 N 785.004 5.09471 2.37479 0
M  V30 8265 H 777.155 2.12081 -0.116368 0
M  V30 8266 H 779.418 0.947941 0.0106033 0
M  V30 8267 H 779.124 3.46006 0.630288 0
M  V30 8268 H 778.998 2.97942 2.31323 0
M  V30 8269 H 781.385 1.99768 2.17202 0
M  V30 8270 H 781.466 2.51236 0.481054 0
M  V30 8271 H 781.11 4.92956 1.223 0
M  V30 8272 H 781.04 4.38396 2.91747 0
M  V30 8273 H 783.531 3.35163 1.74568 0
M  V30 8274 H 783.844 7.12041 3.00362 0
M  V30 8275 H 782.189 6.40087 2.70764 0
M  V30 8276 H 785.38 4.18987 2.08728 0
M  V30 8277 H 785.553 5.90837 2.66112 0
M  V30 8278 N 778.959 -0.83999 1.33349 0
M  V30 8279 C 779.906 -1.94972 1.23509 0
M  V30 8280 C 780.876 -1.65709 0.113967 0
M  V30 8281 O 782.061 -1.88552 0.292045 0
M  V30 8282 C 779.201 -3.30919 0.979105 0
M  V30 8283 C 778.314 -3.72587 2.18639 0
M  V30 8284 C 777.449 -4.97397 1.86465 0
M  V30 8285 C 776.488 -5.31597 3.03432 0
M  V30 8286 N 775.625 -6.47584 2.71254 0
M  V30 8287 H 780.465 -2.0272 2.18423 0
M  V30 8288 H 778.002 -0.992017 1.08616 0
M  V30 8289 H 779.96 -4.09239 0.811126 0
M  V30 8290 H 778.59 -3.22731 0.0667099 0
M  V30 8291 H 777.642 -2.89799 2.46416 0
M  V30 8292 H 778.954 -3.93844 3.06086 0
M  V30 8293 H 778.108 -5.83462 1.66305 0
M  V30 8294 H 776.847 -4.78107 0.96254 0
M  V30 8295 H 775.852 -4.44037 3.24208 0
M  V30 8296 H 777.077 -5.52836 3.94397 0
M  V30 8297 H 775.023 -6.29783 1.836 0
M  V30 8298 H 774.94 -6.68931 3.52231 0
M  V30 8299 H 776.208 -7.36764 2.54558 0
M  V30 8300 N 780.437 -1.16799 -1.0581 0
M  V30 8301 C 781.683 -0.953935 -1.78963 0
M  V30 8302 C 782.016 0.516638 -1.87202 0
M  V30 8303 O 781.291 1.38338 -1.36721 0
M  V30 8304 C 781.574 -1.58808 -3.23191 0
M  V30 8305 C 781.427 -3.13032 -3.23003 0
M  V30 8306 C 782.746 -1.2868 -4.20867 0
M  V30 8307 H 779.865 -0.347972 -0.64968 0
M  V30 8308 H 782.507 -1.44204 -1.23715 0
M  V30 8309 H 780.657 -1.17303 -3.70368 0
M  V30 8310 H 782.329 -3.63553 -2.83949 0
M  V30 8311 H 780.572 -3.46108 -2.61518 0
M  V30 8312 H 781.243 -3.52527 -4.24769 0
M  V30 8313 H 783.719 -1.6461 -3.82155 0
M  V30 8314 H 782.595 -1.75645 -5.20038 0
M  V30 8315 H 782.856 -0.206491 -4.41618 0
M  V30 8316 N 781.915 1.24427 -0.967243 0
M  V30 8317 C 783.14 1.9708 -0.646069 0
M  V30 8318 C 783.565 1.71272 0.777665 0
M  V30 8319 O 782.923 0.976179 1.52776 0
M  V30 8320 C 782.971 3.48501 -0.926266 0
M  V30 8321 O 782.075 4.12398 -0.0114653 0
M  V30 8322 H 781.416 0.617423 -0.244304 0
M  V30 8323 H 783.946 1.58215 -1.29727 0
M  V30 8324 H 783.956 3.98885 -0.857619 0
M  V30 8325 H 782.631 3.66613 -1.96386 0
M  V30 8326 H 781.208 3.72661 -0.133396 0
M  V30 8327 N 783.393 0.737304 1.3929 0
M  V30 8328 C 784.356 0.10731 2.28949 0
M  V30 8329 C 785.356 -0.664716 1.46418 0
M  V30 8330 O 786.546 -0.493392 1.67067 0
M  V30 8331 C 783.678 -0.857145 3.29948 0
M  V30 8332 H 784.871 0.89725 2.86163 0
M  V30 8333 H 782.424 0.503279 1.47976 0
M  V30 8334 H 783.159 -1.67336 2.77794 0
M  V30 8335 H 782.944 -0.306167 3.90903 0
M  V30 8336 H 784.434 -1.29444 3.97031 0
M  V30 8337 N 784.871 -1.49948 0.485112 0
M  V30 8338 C 786.099 -2.06806 -0.0622824 0
M  V30 8339 C 786.514 -1.34736 -1.32256 0
M  V30 8340 O 785.871 -0.420836 -1.77582 0
M  V30 8341 C 785.922 -3.59934 -0.336096 0
M  V30 8342 O 785.643 -4.29289 0.874203 0
M  V30 8343 C 787.144 -4.33459 -0.928903 0
M  V30 8344 H 784.364 -0.670867 0.0133472 0
M  V30 8345 H 786.908 -1.92937 0.677917 0
M  V30 8346 H 785.063 -3.7356 -1.02625 0
M  V30 8347 H 785.477 -5.20735 0.627332 0
M  V30 8348 H 786.951 -5.41527 -1.07017 0
M  V30 8349 H 787.428 -3.94881 -1.92265 0
M  V30 8350 H 788.034 -4.24399 -0.276705 0
M  V30 8351 N 786.349 -0.21828 -1.56081 0
M  V30 8352 C 787.574 0.422302 -2.03055 0
M  V30 8353 C 787.999 1.5279 -1.09713 0
M  V30 8354 O 787.357 1.81102 -0.0847187 0
M  V30 8355 C 787.405 0.934177 -3.48289 0
M  V30 8356 O 786.509 2.04574 -3.58083 0
M  V30 8357 H 785.85 0.0959764 -0.657027 0
M  V30 8358 H 788.38 -0.335958 -2.01823 0
M  V30 8359 H 788.39 1.24484 -3.88546 0
M  V30 8360 H 787.065 0.124963 -4.15712 0
M  V30 8361 H 785.642 1.74196 -3.29712 0
M  V30 8362 N 787.827 1.57504 0.0551401 0
M  V30 8363 C 788.757 2.07864 1.06372 0
M  V30 8364 C 789.738 0.975565 1.39344 0
M  V30 8365 O 790.923 1.24929 1.48682 0
M  V30 8366 C 788.053 2.53643 2.3724 0
M  V30 8367 C 787.007 3.67978 2.18578 0
M  V30 8368 C 786.333 3.9987 3.54976 0
M  V30 8369 C 787.633 4.97405 1.59329 0
M  V30 8370 H 789.327 2.92379 0.644595 0
M  V30 8371 H 786.873 1.40654 0.308619 0
M  V30 8372 H 788.826 2.8749 3.08103 0
M  V30 8373 H 787.55 1.66177 2.81163 0
M  V30 8374 H 786.209 3.3444 1.50152 0
M  V30 8375 H 785.857 3.0951 3.965 0
M  V30 8376 H 785.557 4.76867 3.43324 0
M  V30 8377 H 787.081 4.36228 4.27244 0
M  V30 8378 H 788.495 5.29375 2.20078 0
M  V30 8379 H 786.892 5.78837 1.58327 0
M  V30 8380 H 787.962 4.81697 0.55638 0
M  V30 8381 N 789.305 -0.326896 1.54172 0
M  V30 8382 C 790.53 -1.08924 1.76494 0
M  V30 8383 C 790.955 -1.81039 0.510523 0
M  V30 8384 O 790.313 -1.73141 -0.537756 0
M  V30 8385 C 790.361 -2.06558 2.95578 0
M  V30 8386 O 789.465 -3.14394 2.6689 0
M  V30 8387 H 788.806 -0.314216 0.584948 0
M  V30 8388 H 791.336 -0.372207 2.01186 0
M  V30 8389 H 791.346 -2.49487 3.22832 0
M  V30 8390 H 790.021 -1.53469 3.86549 0
M  V30 8391 H 788.598 -2.76164 2.50576 0
M  V30 8392 N 790.784 -1.46188 -0.588786 0
M  V30 8393 C 791.714 -1.59148 -1.70863 0
M  V30 8394 C 792.695 -0.442083 -1.64255 0
M  V30 8395 O 793.88 -0.667575 -1.82365 0
M  V30 8396 C 791.01 -1.5757 -3.09498 0
M  V30 8397 C 789.964 -2.71418 -3.30932 0
M  V30 8398 C 789.29 -2.549 -4.70032 0
M  V30 8399 C 790.59 -4.1329 -3.19356 0
M  V30 8400 H 792.284 -2.52889 -1.60274 0
M  V30 8401 H 789.83 -1.21707 -0.769638 0
M  V30 8402 H 791.783 -1.65231 -3.87655 0
M  V30 8403 H 790.507 -0.603705 -3.20972 0
M  V30 8404 H 789.166 -2.63216 -2.55172 0
M  V30 8405 H 788.814 -1.55797 -4.78264 0
M  V30 8406 H 788.514 -3.31257 -4.85327 0
M  V30 8407 H 790.038 -2.64443 -5.50366 0
M  V30 8408 H 791.452 -4.22636 -3.87365 0
M  V30 8409 H 789.849 -4.90187 -3.46175 0
M  V30 8410 H 790.919 -4.33874 -2.16522 0
M  V30 8411 N 792.262 0.832906 -1.33792 0
M  V30 8412 C 793.673 1.40489 -1.22963 0
M  V30 8413 C 794.024 1.95633 0.149026 0
M  V30 8414 O 793.149 1.8928 1.04891 0
M  V30 8415 C 793.744 2.55387 -2.22627 0
M  V30 8416 C 792.303 3.08522 -2.15618 0
M  V30 8417 C 791.45 1.81347 -2.09782 0
M  V30 8418 H 794.401 0.638156 -1.45304 0
M  V30 8419 H 794.422 3.33193 -1.83746 0
M  V30 8420 H 793.934 2.15222 -3.22957 0
M  V30 8421 H 792.035 3.53217 -1.18611 0
M  V30 8422 H 792.148 3.6829 -3.0643 0
M  V30 8423 H 790.512 2.01839 -1.55349 0
M  V30 8424 H 791.295 1.43369 -3.1193 0
M  V30 8425 N 793.74 1.17359 1.05189 0
M  V30 8426 C 794.988 0.960087 1.77839 0
M  V30 8427 C 795.309 -0.512554 1.88143 0
M  V30 8428 O 794.579 -1.3721 1.39822 0
M  V30 8429 H 793.159 0.352234 0.658741 0
M  V30 8430 H 795.821 1.47834 1.27008 0
M  V30 8431 H 794.917 1.38843 2.79516 0
M  V30 8432 N 795.218 -1.23913 0.973828 0
M  V30 8433 C 796.443 -1.96735 0.656511 0
M  V30 8434 C 796.868 -1.71682 -0.768571 0
M  V30 8435 O 796.226 -0.984267 -1.52256 0
M  V30 8436 C 796.274 -3.48004 0.944735 0
M  V30 8437 O 795.378 -4.12387 0.0333357 0
M  V30 8438 H 794.719 -0.616119 0.247575 0
M  V30 8439 H 797.249 -1.57525 1.30564 0
M  V30 8440 H 797.259 -3.98424 0.87876 0
M  V30 8441 H 795.934 -3.65567 1.98328 0
M  V30 8442 H 794.511 -3.72585 0.153157 0
M  V30 8443 N 796.696 -0.74468 -1.38897 0
M  V30 8444 C 798.107 -0.36568 -1.83084 0
M  V30 8445 C 798.458 1.10436 -1.62168 0
M  V30 8446 O 797.583 1.85281 -1.11804 0
M  V30 8447 C 798.178 -0.656946 -3.3237 0
M  V30 8448 C 796.737 -0.331329 -3.74939 0
M  V30 8449 C 795.884 -0.914661 -2.61781 0
M  V30 8450 H 798.835 -0.941551 -1.27752 0
M  V30 8451 H 798.856 0.0679546 -3.80439 0
M  V30 8452 H 798.368 -1.72693 -3.47561 0
M  V30 8453 H 796.469 0.732426 -3.6533 0
M  V30 8454 H 796.582 -0.820655 -4.72019 0
M  V30 8455 H 794.946 -0.34063 -2.52412 0
M  V30 8456 H 795.729 -1.98949 -2.79775 0
M  V30 8457 N 798.174 1.49689 -0.493057 0
M  V30 8458 C 799.421 2.02427 0.0542714 0
M  V30 8459 C 799.749 1.37339 1.37725 0
M  V30 8460 O 799.004 0.495523 1.89323 0
M  V30 8461 C 799.303 3.56427 0.263536 0
M  V30 8462 C 798.969 4.40111 -0.98046 0
M  V30 8463 C 797.631 4.62699 -1.32148 0
M  V30 8464 C 799.983 4.88847 -1.80771 0
M  V30 8465 C 797.311 5.31268 -2.48941 0
M  V30 8466 C 799.663 5.587 -2.96711 0
M  V30 8467 C 798.327 5.79536 -3.31202 0
M  V30 8468 H 797.597 0.740734 0.0198593 0
M  V30 8469 H 800.244 1.80073 -0.651603 0
M  V30 8470 H 798.549 3.77416 1.05186 0
M  V30 8471 H 800.246 3.94819 0.701348 0
M  V30 8472 H 796.836 4.22765 -0.704814 0
M  V30 8473 H 801.02 4.71231 -1.55741 0
M  V30 8474 H 796.276 5.45603 -2.75911 0
M  V30 8475 H 800.45 5.9544 -3.61143 0
M  V30 8476 H 798.077 6.32443 -4.21805 0
M  V30 8477 N 799.652 0.226554 1.55963 0
M  V30 8478 C 800.6 -0.697922 2.21882 0
M  V30 8479 C 801.594 -1.19586 1.19981 0
M  V30 8480 O 802.8 -1.15511 1.38048 0
M  V30 8481 H 799.175 -0.243501 0.711485 0
M  V30 8482 H 801.146 -0.118576 2.98164 0
M  V30 8483 C 799.895 -1.89309 2.91646 0
M  V30 8484 H 799.218 -1.51906 3.69817 0
M  V30 8485 H 800.658 -2.51762 3.41162 0
M  V30 8486 C 799.117 -2.75162 1.94391 0
M  V30 8487 O 799.647 -3.74071 1.46402 0
M  V30 8488 N 797.853 -2.41302 1.61932 0
M  V30 8489 H 797.4 -1.60923 2.01151 0
M  V30 8490 H 797.358 -2.99023 0.971219 0
M  V30 8491 N 801.13 -1.57531 -0.0467866 0
M  V30 8492 C 802.376 -1.8873 -0.742218 0
M  V30 8493 C 802.709 -0.822084 -1.75941 0
M  V30 8494 O 801.984 0.164922 -1.938 0
M  V30 8495 C 802.267 -3.30586 -1.42776 0
M  V30 8496 C 802.12 -4.47785 -0.425285 0
M  V30 8497 C 803.439 -3.71068 -2.36636 0
M  V30 8498 H 800.558 -0.686406 -0.268359 0
M  V30 8499 H 803.2 -1.89999 -0.00511341 0
M  V30 8500 H 801.35 -3.29634 -2.05605 0
M  V30 8501 H 803.022 -4.60867 0.199721 0
M  V30 8502 H 801.265 -4.33037 0.25713 0
M  V30 8503 H 801.936 -5.43884 -0.943086 0
M  V30 8504 H 804.412 -3.73273 -1.83866 0
M  V30 8505 H 803.288 -4.71165 -2.81593 0
M  V30 8506 H 803.549 -3.02355 -3.22542 0
M  V30 8507 N 802.608 0.318715 -1.54344 0
M  V30 8508 C 804.024 0.663345 -1.45162 0
M  V30 8509 C 804.224 1.9145 -0.62842 0
M  V30 8510 O 803.28 2.5217 -0.129126 0
M  V30 8511 C 804.593 0.832836 -2.88937 0
M  V30 8512 C 806.141 0.929866 -2.98869 0
M  V30 8513 C 806.616 1.13149 -4.43803 0
M  V30 8514 N 808.107 1.19811 -4.47437 0
M  V30 8515 C 808.842 1.37209 -5.56742 0
M  V30 8516 N 808.338 1.51619 -6.76006 0
M  V30 8517 N 810.131 1.39956 -5.44398 0
M  V30 8518 H 802.282 -0.50357 -2.06344 0
M  V30 8519 H 804.545 -0.163528 -0.933789 0
M  V30 8520 H 804.251 -0.0153519 -3.51697 0
M  V30 8521 H 804.125 1.72721 -3.35332 0
M  V30 8522 H 806.512 1.76855 -2.36233 0
M  V30 8523 H 806.593 0.0118561 -2.55797 0
M  V30 8524 H 806.237 0.297636 -5.07027 0
M  V30 8525 H 806.167 2.06345 -4.84489 0
M  V30 8526 H 808.658 1.101 -3.61506 0
M  V30 8527 H 808.971 1.64599 -7.55067 0
M  V30 8528 H 807.316 1.48708 -6.78904 0
M  V30 8529 H 810.507 1.28298 -4.50175 0
M  V30 8530 H 810.68 1.53172 -6.29637 0
M  V30 8531 N 804.086 1.46499 0.581025 0
M  V30 8532 C 805.502 1.31491 0.904563 0
M  V30 8533 C 805.702 0.287598 1.99437 0
M  V30 8534 O 804.758 -0.309247 2.50599 0
M  V30 8535 C 806.071 2.70163 1.32032 0
M  V30 8536 C 807.619 2.78266 1.43308 0
M  V30 8537 C 808.094 4.17524 1.8825 0
M  V30 8538 N 809.585 4.19949 1.9544 0
M  V30 8539 C 810.32 5.24594 2.31493 0
M  V30 8540 N 809.816 6.39564 2.66326 0
M  V30 8541 N 811.609 5.11961 2.32062 0
M  V30 8542 H 803.76 2.11946 -0.138856 0
M  V30 8543 H 806.023 0.948 0.000548528 0
M  V30 8544 H 805.729 3.46655 0.593554 0
M  V30 8545 H 805.603 3.00379 2.2815 0
M  V30 8546 H 807.99 2.02061 2.15071 0
M  V30 8547 H 808.071 2.51732 0.45438 0
M  V30 8548 H 807.715 4.94225 1.17065 0
M  V30 8549 H 807.645 4.41466 2.87081 0
M  V30 8550 H 810.136 3.36996 1.71004 0
M  V30 8551 H 810.449 7.15187 2.92793 0
M  V30 8552 H 808.794 6.42923 2.6396 0
M  V30 8553 H 811.985 4.21177 2.04272 0
M  V30 8554 H 812.158 5.93626 2.5983 0
M  V30 8555 N 805.565 -0.825799 1.34232 0
M  V30 8556 C 806.79 -1.61883 1.29648 0
M  V30 8557 C 807.215 -1.87669 -0.127295 0
M  V30 8558 O 806.573 -1.45016 -1.08813 0
M  V30 8559 C 806.621 -2.93846 2.09014 0
M  V30 8560 O 805.725 -3.85778 1.4577 0
M  V30 8561 H 805.066 -0.492454 0.445405 0
M  V30 8562 H 807.596 -1.02641 1.76992 0
M  V30 8563 H 807.606 -3.43435 2.20264 0
M  V30 8564 H 806.281 -2.74401 3.12533 0
M  V30 8565 H 804.858 -3.4429 1.43245 0
M  V30 8566 N 807.043 -1.17915 -1.04565 0
M  V30 8567 C 808.268 -0.996749 -1.81878 0
M  V30 8568 C 808.693 0.450169 -1.82634 0
M  V30 8569 O 808.051 1.32268 -1.23995 0
M  V30 8570 C 808.099 -1.55005 -3.25585 0
M  V30 8571 O 807.203 -0.76804 -4.05185 0
M  V30 8572 H 806.544 -0.353456 -0.562108 0
M  V30 8573 H 809.074 -1.56557 -1.31723 0
M  V30 8574 H 809.084 -1.57503 -3.76373 0
M  V30 8575 H 807.759 -2.60327 -3.2435 0
M  V30 8576 H 806.336 -0.81498 -3.63885 0
M  V30 8577 N 808.521 1.23394 -0.980386 0
M  V30 8578 C 809.937 1.43961 -0.689008 0
M  V30 8579 C 810.137 1.87229 0.744809 0
M  V30 8580 O 809.193 2.01831 1.51725 0
M  V30 8581 C 810.506 2.49128 -1.68392 0
M  V30 8582 C 812.054 2.62941 -1.69796 0
M  V30 8583 C 812.529 3.71317 -2.68118 0
M  V30 8584 N 814.02 3.7876 -2.66636 0
M  V30 8585 C 814.755 4.62176 -3.39383 0
M  V30 8586 N 814.251 5.49682 -4.21688 0
M  V30 8587 N 816.044 4.56372 -3.28147 0
M  V30 8588 H 808.195 0.936106 -1.90659 0
M  V30 8589 H 810.458 0.473023 -0.821555 0
M  V30 8590 H 810.164 2.24252 -2.70931 0
M  V30 8591 H 810.038 3.47514 -1.46675 0
M  V30 8592 H 812.425 2.87168 -0.679617 0
M  V30 8593 H 812.506 1.64871 -1.95579 0
M  V30 8594 H 812.15 3.4784 -3.70095 0
M  V30 8595 H 812.08 4.68929 -2.3961 0
M  V30 8596 H 814.571 3.16226 -2.06904 0
M  V30 8597 H 814.884 6.10323 -4.74053 0
M  V30 8598 H 813.229 5.49306 -4.25779 0
M  V30 8599 H 816.42 3.87029 -2.63299 0
M  V30 8600 H 816.593 5.21153 -3.85102 0
M  V30 8601 N 809.999 0.752036 1.385 0
M  V30 8602 C 811.247 0.306895 1.99756 0
M  V30 8603 C 811.568 -1.11478 1.59992 0
M  V30 8604 O 810.838 -1.76206 0.856045 0
M  V30 8605 H 809.418 0.11048 0.738785 0
M  V30 8606 H 812.08 0.965785 1.69289 0
M  V30 8607 H 811.176 0.368797 3.09913 0
M  V30 8608 N 811.477 -1.49425 0.500989 0
M  V30 8609 C 812.702 -2.07356 -0.0425154 0
M  V30 8610 C 813.127 -1.35887 -1.30063 0
M  V30 8611 O 812.485 -0.41561 -1.76472 0
M  V30 8612 C 812.533 -3.59518 -0.279188 0
M  V30 8613 O 811.637 -3.89542 -1.3539 0
M  V30 8614 H 810.978 -0.663482 0.0262207 0
M  V30 8615 H 813.508 -1.92231 0.700607 0
M  V30 8616 H 813.518 -4.04791 -0.5107 0
M  V30 8617 H 812.193 -4.10946 0.640009 0
M  V30 8618 H 810.77 -3.56079 -1.10734 0
M  V30 8619 N 812.955 -0.234822 -1.55841 0
M  V30 8620 C 813.905 0.68346 -2.17515 0
M  V30 8621 C 814.889 1.14798 -1.1274 0
M  V30 8622 O 816.081 1.09976 -1.38688 0
M  V30 8623 C 813.21 1.88551 -2.86886 0
M  V30 8624 C 812.296 1.44006 -3.98903 0
M  V30 8625 N 812.687 0.708034 -5.0082 0
M  V30 8626 C 810.985 1.7263 -4.11236 0
M  V30 8627 C 811.686 0.479036 -5.79724 0
M  V30 8628 N 810.662 1.03968 -5.33565 0
M  V30 8629 H 814.464 0.115897 -2.93671 0
M  V30 8630 H 811.978 -0.0366273 -1.62359 0
M  V30 8631 H 813.975 2.55425 -3.2949 0
M  V30 8632 H 812.635 2.45742 -2.12229 0
M  V30 8633 H 813.646 0.359363 -5.16652 0
M  V30 8634 H 810.323 2.31046 -3.47741 0
M  V30 8635 H 811.713 -0.104514 -6.71819 0
M  V30 8636 N 814.433 1.57553 0.0384317 0
M  V30 8637 C 815.365 2.02726 1.06934 0
M  V30 8638 C 816.378 0.938502 1.33026 0
M  V30 8639 O 817.567 1.21595 1.30678 0
M  V30 8640 C 814.667 2.37958 2.41308 0
M  V30 8641 C 813.84 3.69098 2.34703 0
M  V30 8642 C 812.899 3.91623 3.51451 0
M  V30 8643 O 811.925 4.628 3.31368 0
M  V30 8644 N 813.127 3.36538 4.72993 0
M  V30 8645 H 815.892 2.91781 0.684381 0
M  V30 8646 H 813.453 1.60307 0.226542 0
M  V30 8647 H 815.445 2.50172 3.18113 0
M  V30 8648 H 814.015 1.54621 2.71682 0
M  V30 8649 H 813.235 3.67325 1.43059 0
M  V30 8650 H 814.523 4.55144 2.27424 0
M  V30 8651 H 813.921 2.78828 4.92211 0
M  V30 8652 H 812.478 3.54148 5.47195 0
M  V30 8653 N 815.911 -0.310526 1.54511 0
M  V30 8654 C 817.158 -1.04691 1.73338 0
M  V30 8655 C 817.486 -1.87584 0.514038 0
M  V30 8656 O 816.741 -1.89096 -0.504119 0
M  V30 8657 C 817.04 -1.98942 2.96912 0
M  V30 8658 C 816.706 -1.321 4.31115 0
M  V30 8659 C 815.368 -1.13603 4.67598 0
M  V30 8660 C 817.72 -0.842362 5.14348 0
M  V30 8661 C 815.048 -0.459102 5.84901 0
M  V30 8662 C 817.4 -0.179202 6.32346 0
M  V30 8663 C 816.064 0.0178111 6.67498 0
M  V30 8664 H 815.334 -0.38309 0.634289 0
M  V30 8665 H 817.981 -0.322723 1.88761 0
M  V30 8666 H 816.286 -2.77856 2.76231 0
M  V30 8667 H 817.983 -2.55972 3.08674 0
M  V30 8668 H 814.573 -1.47502 4.02419 0
M  V30 8669 H 818.757 -0.973013 4.86668 0
M  V30 8670 H 814.013 -0.295385 6.10686 0
M  V30 8671 H 818.187 0.199619 6.96114 0
M  V30 8672 H 815.814 0.544356 7.58249 0
M  V30 8673 N 817.389 -1.46805 -0.573248 0
M  V30 8674 C 818.617 -1.56191 -1.3569 0
M  V30 8675 C 819.032 -0.206362 -1.87669 0
M  V30 8676 O 818.389 0.797883 -1.64134 0
M  V30 8677 C 818.44 -2.57433 -2.53792 0
M  V30 8678 O 818.161 -3.87724 -2.03965 0
M  V30 8679 C 819.662 -2.76851 -3.4622 0
M  V30 8680 H 816.882 -0.527907 -0.414192 0
M  V30 8681 H 819.426 -1.92292 -0.695989 0
M  V30 8682 H 817.581 -2.24311 -3.15854 0
M  V30 8683 H 817.995 -4.42909 -2.80948 0
M  V30 8684 H 819.469 -3.5159 -4.25545 0
M  V30 8685 H 819.946 -1.84095 -3.98755 0
M  V30 8686 H 820.552 -3.11107 -2.89987 0
M  V30 8687 N 818.867 0.818669 -1.34668 0
M  V30 8688 C 820.113 1.57746 -1.27453 0
M  V30 8689 C 820.446 1.93588 0.154077 0
M  V30 8690 O 819.721 1.60371 1.10051 0
M  V30 8691 C 820.004 2.87414 -2.16945 0
M  V30 8692 C 819.857 2.58125 -3.68363 0
M  V30 8693 C 821.176 3.89021 -2.05792 0
M  V30 8694 H 818.295 0.572339 -0.464324 0
M  V30 8695 H 820.937 0.942784 -1.64959 0
M  V30 8696 H 819.087 3.41576 -1.85089 0
M  V30 8697 H 820.759 2.10239 -4.10606 0
M  V30 8698 H 819.002 1.91503 -3.89242 0
M  V30 8699 H 819.673 3.5061 -4.26353 0
M  V30 8700 H 822.149 3.44224 -2.33771 0
M  V30 8701 H 821.025 4.77548 -2.70628 0
M  V30 8702 H 821.286 4.29786 -1.03618 0
M  V30 8703 N 820.346 1.18468 1.03938 0
M  V30 8704 C 821.762 0.934635 1.29371 0
M  V30 8705 C 821.962 -0.399067 1.97509 0
M  V30 8706 O 821.018 -1.13309 2.25648 0
M  V30 8707 C 822.331 2.10111 2.15114 0
M  V30 8708 C 823.879 2.13955 2.28456 0
M  V30 8709 C 824.354 3.30024 3.17566 0
M  V30 8710 N 825.845 3.29893 3.25153 0
M  V30 8711 C 826.58 4.16346 3.94263 0
M  V30 8712 N 826.076 5.12934 4.65693 0
M  V30 8713 N 827.869 4.04256 3.90556 0
M  V30 8714 H 820.02 2.04294 0.581185 0
M  V30 8715 H 822.283 0.892727 0.318971 0
M  V30 8716 H 821.989 3.06572 1.72355 0
M  V30 8717 H 821.863 2.06283 3.15796 0
M  V30 8718 H 824.25 1.18072 2.7045 0
M  V30 8719 H 824.331 2.2184 1.2736 0
M  V30 8720 H 823.975 4.26181 2.76283 0
M  V30 8721 H 823.905 3.19376 4.18697 0
M  V30 8722 H 826.396 2.59969 2.74271 0
M  V30 8723 H 826.709 5.75271 5.16026 0
M  V30 8724 H 825.054 5.16893 4.64593 0
M  V30 8725 H 828.245 3.28083 3.33885 0
M  V30 8726 H 828.418 4.71848 4.44144 0
M  V30 8727 N 821.824 -1.22873 0.986916 0
M  V30 8728 C 822.772 -2.26597 0.525043 0
M  V30 8729 C 823.766 -1.64079 -0.421252 0
M  V30 8730 O 824.972 -1.77576 -0.294429 0
M  V30 8731 H 821.347 -0.736606 0.151381 0
M  V30 8732 H 823.318 -2.62909 1.41142 0
M  V30 8733 C 822.067 -3.47374 -0.150542 0
M  V30 8734 H 821.39 -3.95737 0.568541 0
M  V30 8735 H 822.83 -4.21739 -0.437256 0
M  V30 8736 C 821.289 -3.07163 -1.38392 0
M  V30 8737 O 821.819 -3.16028 -2.47971 0
M  V30 8738 N 820.025 -2.62009 -1.25697 0
M  V30 8739 H 819.572 -2.54996 -0.365355 0
M  V30 8740 H 819.53 -2.35472 -2.08327 0
M  V30 8741 N 823.302 -0.75937 -1.38099 0
M  V30 8742 C 824.55 -0.317485 -1.99591 0
M  V30 8743 C 824.871 1.10628 -1.60581 0
M  V30 8744 O 824.141 1.7575 -0.865378 0
M  V30 8745 H 822.721 -0.114397 -0.738189 0
M  V30 8746 H 825.383 -0.974749 -1.68774 0
M  V30 8747 H 824.479 -0.385227 -3.09713 0
M  V30 8748 N 824.78 1.49157 -0.508906 0
M  V30 8749 C 826.008 2.06879 0.0293734 0
M  V30 8750 C 826.423 1.36823 1.30095 0
M  V30 8751 O 825.78 0.449034 1.7689 0
M  V30 8752 C 825.831 3.60423 0.278791 0
M  V30 8753 O 825.552 4.27844 -0.942389 0
M  V30 8754 C 827.053 4.34881 0.859825 0
M  V30 8755 H 824.273 0.67057 -0.0240184 0
M  V30 8756 H 826.817 1.91834 -0.708526 0
M  V30 8757 H 824.972 3.75145 0.966689 0
M  V30 8758 H 825.386 5.19671 -0.710097 0
M  V30 8759 H 826.86 5.43161 0.983884 0
M  V30 8760 H 827.337 3.9789 1.85958 0
M  V30 8761 H 827.943 4.24785 0.209152 0
M  V30 8762 N 826.258 0.243083 1.55714 0
M  V30 8763 C 827.506 -0.381964 1.98458 0
M  V30 8764 C 827.827 -1.58745 1.13247 0
M  V30 8765 O 827.097 -1.94723 0.214384 0
M  V30 8766 H 825.677 -0.144114 0.732967 0
M  V30 8767 H 828.339 0.340985 1.91894 0
M  V30 8768 H 827.435 -0.693702 3.04293 0
M  V30 8769 N 827.736 -1.57571 -0.0300757 0
M  V30 8770 C 829.152 -1.54869 -0.385703 0
M  V30 8771 C 829.352 -0.969068 -1.76667 0
M  V30 8772 O 828.408 -0.589676 -2.45518 0
M  V30 8773 C 829.721 -2.99313 -0.288482 0
M  V30 8774 C 831.269 -3.10857 -0.365638 0
M  V30 8775 C 831.744 -4.5703 -0.297878 0
M  V30 8776 N 833.235 -4.61825 -0.356703 0
M  V30 8777 C 833.97 -5.72466 -0.327146 0
M  V30 8778 N 833.466 -6.92349 -0.249941 0
M  V30 8779 N 835.259 -5.60836 -0.376801 0
M  V30 8780 H 827.41 -1.936 0.87367 0
M  V30 8781 H 829.673 -0.887924 0.332106 0
M  V30 8782 H 829.379 -3.45443 0.66047 0
M  V30 8783 H 829.253 -3.61332 -1.08253 0
M  V30 8784 H 831.64 -2.64676 -1.30502 0
M  V30 8785 H 831.721 -2.51671 0.457744 0
M  V30 8786 H 831.365 -5.03879 0.637835 0
M  V30 8787 H 831.295 -5.14127 -1.13935 0
M  V30 8788 H 833.786 -3.75571 -0.418926 0
M  V30 8789 H 834.099 -7.7245 -0.23246 0
M  V30 8790 H 832.444 -6.94664 -0.216004 0
M  V30 8791 H 835.635 -4.66073 -0.435101 0
M  V30 8792 H 835.808 -6.47052 -0.350298 0
M  V30 8793 N 829.214 0.302327 -1.54673 0
M  V30 8794 C 830.462 1.03565 -1.73547 0
M  V30 8795 C 830.783 1.87843 -0.523448 0
M  V30 8796 O 830.053 1.90367 0.462295 0
M  V30 8797 H 828.633 0.385358 -0.639928 0
M  V30 8798 H 831.295 0.333632 -1.92023 0
M  V30 8799 H 830.391 1.68952 -2.62415 0
M  V30 8800 N 830.692 1.47107 0.565454 0
M  V30 8801 C 832.108 1.32443 0.890566 0
M  V30 8802 C 832.308 0.308735 1.99121 0
M  V30 8803 O 831.364 -0.28265 2.50913 0
M  V30 8804 C 832.677 2.71548 1.2916 0
M  V30 8805 C 834.225 2.7977 1.40349 0
M  V30 8806 C 834.7 4.19497 1.83811 0
M  V30 8807 N 836.191 4.21998 1.90975 0
M  V30 8808 C 836.926 5.2702 2.25916 0
M  V30 8809 N 836.422 6.42353 2.59527 0
M  V30 8810 N 838.215 5.14393 2.26619 0
M  V30 8811 H 830.366 2.11786 -0.161328 0
M  V30 8812 H 832.629 0.947952 -0.00950631 0
M  V30 8813 H 832.335 3.47265 0.556753 0
M  V30 8814 H 832.209 3.02782 2.24951 0
M  V30 8815 H 834.596 2.0433 2.12916 0
M  V30 8816 H 834.677 2.522 0.427655 0
M  V30 8817 H 834.321 4.95439 1.11816 0
M  V30 8818 H 834.251 4.44486 2.82382 0
M  V30 8819 H 836.742 3.38791 1.6742 0
M  V30 8820 H 837.055 7.18252 2.85191 0
M  V30 8821 H 835.4 6.45687 2.57126 0
M  V30 8822 H 838.591 4.2332 1.99794 0
M  V30 8823 H 838.764 5.96349 2.5352 0
M  V30 8824 N 832.17 -0.811516 1.35101 0
M  V30 8825 C 833.417 -1.56835 1.28098 0
M  V30 8826 C 833.745 -1.93951 -0.14597 0
M  V30 8827 O 833 -1.61173 -1.11004 0
M  V30 8828 C 833.299 -2.87121 2.1283 0
M  V30 8829 C 832.965 -2.69245 3.61688 0
M  V30 8830 C 831.627 -2.64078 4.02264 0
M  V30 8831 C 833.979 -2.52122 4.56162 0
M  V30 8832 C 831.307 -2.39724 5.3549 0
M  V30 8833 C 833.659 -2.29298 5.89581 0
M  V30 8834 C 832.323 -2.2255 6.29307 0
M  V30 8835 H 831.593 -0.5739 0.468742 0
M  V30 8836 H 834.24 -0.93806 1.66951 0
M  V30 8837 H 832.545 -3.54502 1.66841 0
M  V30 8838 H 834.242 -3.44788 2.0475 0
M  V30 8839 H 830.832 -2.74112 3.29485 0
M  V30 8840 H 835.016 -2.5513 4.25702 0
M  V30 8841 H 830.272 -2.32965 5.65276 0
M  V30 8842 H 834.446 -2.15038 6.62368 0
M  V30 8843 H 832.073 -2.0344 7.32473 0
M  V30 8844 N 833.648 -1.19017 -1.03309 0
M  V30 8845 C 834.894 -0.991681 -1.769 0
M  V30 8846 C 835.227 0.476813 -1.88255 0
M  V30 8847 O 834.502 1.35407 -1.39625 0
M  V30 8848 C 834.785 -1.65627 -3.19749 0
M  V30 8849 C 834.638 -3.19813 -3.1629 0
M  V30 8850 C 835.957 -1.37579 -4.18043 0
M  V30 8851 H 833.076 -0.361674 -0.642153 0
M  V30 8852 H 835.718 -1.46795 -1.20628 0
M  V30 8853 H 833.868 -1.25132 -3.67796 0
M  V30 8854 H 835.54 -3.69494 -2.76174 0
M  V30 8855 H 833.783 -3.51578 -2.54117 0
M  V30 8856 H 834.454 -3.61457 -4.17196 0
M  V30 8857 H 836.93 -1.72679 -3.78578 0
M  V30 8858 H 835.806 -1.86636 -5.16196 0
M  V30 8859 H 836.067 -0.300118 -4.4108 0
M  V30 8860 N 835.127 1.22348 -0.993418 0
M  V30 8861 C 836.375 1.90733 -0.668246 0
M  V30 8862 C 836.696 1.77732 0.802261 0
M  V30 8863 O 835.966 1.16486 1.57505 0
M  V30 8864 H 834.546 0.705966 -0.244174 0
M  V30 8865 H 837.208 1.48691 -1.26004 0
M  V30 8866 H 836.304 2.97883 -0.931239 0
M  V30 8867 N 836.605 0.766683 1.37694 0
M  V30 8868 C 838.016 0.394761 1.82479 0
M  V30 8869 C 838.367 -1.07842 1.63904 0
M  V30 8870 O 837.492 -1.83479 1.14737 0
M  V30 8871 C 838.087 0.70974 3.31283 0
M  V30 8872 C 836.646 0.390936 3.74364 0
M  V30 8873 C 835.793 0.956192 2.60293 0
M  V30 8874 H 838.744 0.961756 1.26238 0
M  V30 8875 H 838.765 -0.00742144 3.80499 0
M  V30 8876 H 838.277 1.782 3.4477 0
M  V30 8877 H 836.378 -0.674213 3.66449 0
M  V30 8878 H 836.491 0.895645 4.70654 0
M  V30 8879 H 834.855 0.380744 2.51838 0
M  V30 8880 H 835.638 2.03375 2.76575 0
M  V30 8881 N 838.083 -1.48885 0.516809 0
M  V30 8882 C 839.494 -1.86557 0.0729921 0
M  V30 8883 C 839.845 -1.42767 -1.34581 0
M  V30 8884 O 838.97 -0.812514 -2.00567 0
M  V30 8885 C 839.565 -3.38567 0.125686 0
M  V30 8886 C 838.124 -3.75481 -0.262867 0
M  V30 8887 C 837.271 -2.72913 0.491281 0
M  V30 8888 H 840.222 -1.40978 0.728767 0
M  V30 8889 H 840.243 -3.74629 -0.665831 0
M  V30 8890 H 839.755 -3.70408 1.15842 0
M  V30 8891 H 837.856 -3.49251 -1.29824 0
M  V30 8892 H 837.969 -4.79052 0.067579 0
M  V30 8893 H 836.333 -2.54627 -0.0608525 0
M  V30 8894 H 837.116 -3.07599 1.5244 0
M  V30 8895 N 839.561 -0.251338 -1.55583 0
M  V30 8896 C 840.789 0.376187 -2.03451 0
M  V30 8897 C 841.204 1.51215 -1.13047 0
M  V30 8898 O 840.561 1.81917 -0.145769 0
M  V30 8899 C 840.612 0.879779 -3.50631 0
M  V30 8900 O 840.333 -0.210917 -4.37592 0
M  V30 8901 C 841.834 1.57754 -4.14281 0
M  V30 8902 H 839.054 0.0888722 -0.665089 0
M  V30 8903 H 841.598 -0.376497 -2.01004 0
M  V30 8904 H 839.753 1.58263 -3.53598 0
M  V30 8905 H 840.167 0.172203 -5.24217 0
M  V30 8906 H 841.641 1.88158 -5.18942 0
M  V30 8907 H 842.118 2.50103 -3.61034 0
M  V30 8908 H 842.724 0.919154 -4.15249 0
M  V30 8909 N 841.039 1.57585 0.0217189 0
M  V30 8910 C 842.287 1.89231 0.709641 0
M  V30 8911 C 842.608 0.849964 1.75501 0
M  V30 8912 O 841.878 -0.115485 1.95559 0
M  V30 8913 H 840.458 0.69838 0.265092 0
M  V30 8914 H 843.12 1.94895 -0.0140688 0
M  V30 8915 H 842.216 2.88333 1.19459 0
M  V30 8916 N 842.517 -0.29412 1.54831 0
M  V30 8917 C 843.794 -1.04847 1.65126 0
M  V30 8918 C 844.174 -2.04996 0.503986 0
M  V30 8919 O 843.522 -2.22996 -0.498496 0
M  V30 8920 C 843.732 -1.72418 3.03435 0
M  V30 8921 C 845.08 -2.24362 3.60481 0
M  V30 8922 O 846.104 -1.8244 3.05932 0
M  V30 8923 O 844.963 -3.01196 4.56008 0
M  V30 8924 H 842.057 -0.485032 0.669831 0
M  V30 8925 H 844.603 -0.291659 1.67175 0
M  V30 8926 H 843.375 -0.997351 3.78376 0
M  V30 8927 H 842.998 -2.54839 3.05193 0
M  V30 8928 N 843.995 -1.47404 -0.557645 0
M  V30 8929 C 845.411 -1.32913 -0.88353 0
M  V30 8930 C 845.611 -0.31929 -1.98954 0
M  V30 8931 O 844.667 0.26934 -2.51059 0
M  V30 8932 C 845.98 -2.72229 -1.27718 0
M  V30 8933 C 847.528 -2.8051 -1.38863 0
M  V30 8934 C 848.003 -4.20466 -1.81583 0
M  V30 8935 N 849.494 -4.23005 -1.88735 0
M  V30 8936 C 850.229 -5.2821 -2.23118 0
M  V30 8937 N 849.725 -6.4372 -2.56117 0
M  V30 8938 N 851.518 -5.15588 -2.23888 0
M  V30 8939 H 843.669 -2.11698 0.172557 0
M  V30 8940 H 845.932 -0.947889 0.0145334 0
M  V30 8941 H 845.638 -3.47556 -0.538329 0
M  V30 8942 H 845.512 -3.03971 -2.23342 0
M  V30 8943 H 847.899 -2.05457 -2.11829 0
M  V30 8944 H 847.98 -2.52423 -0.414274 0
M  V30 8945 H 847.624 -4.96025 -1.09187 0
M  V30 8946 H 847.554 -4.45977 -2.80021 0
M  V30 8947 H 850.045 -3.39674 -1.65621 0
M  V30 8948 H 850.358 -7.19754 -2.81378 0
M  V30 8949 H 848.703 -6.47041 -2.53698 0
M  V30 8950 H 851.894 -4.24374 -1.97546 0
M  V30 8951 H 852.067 -5.97685 -2.50353 0
M  V30 8952 N 845.473 0.80434 -1.35529 0
M  V30 8953 C 846.42 1.91629 -1.28635 0
M  V30 8954 C 847.39 1.65348 -0.157862 0
M  V30 8955 O 848.575 1.87711 -0.341934 0
M  V30 8956 C 845.715 3.28207 -1.0665 0
M  V30 8957 C 844.828 3.66659 -2.28441 0
M  V30 8958 C 843.963 4.92279 -1.99588 0
M  V30 8959 C 843.002 5.23365 -3.1742 0
M  V30 8960 N 842.139 6.40165 -2.88328 0
M  V30 8961 H 846.979 1.96858 -2.23721 0
M  V30 8962 H 844.516 0.962871 -1.11208 0
M  V30 8963 H 846.474 4.06945 -0.919343 0
M  V30 8964 H 845.104 3.22441 -0.152253 0
M  V30 8965 H 844.156 2.83164 -2.54013 0
M  V30 8966 H 845.468 3.8559 -3.1642 0
M  V30 8967 H 844.622 5.78847 -1.81715 0
M  V30 8968 H 843.361 4.75387 -1.08896 0
M  V30 8969 H 842.366 4.35285 -3.35867 0
M  V30 8970 H 843.591 5.42185 -4.08916 0
M  V30 8971 H 841.537 6.24694 -2.00233 0
M  V30 8972 H 841.454 6.59357 -3.69843 0
M  V30 8973 H 842.722 7.29755 -2.74002 0
M  V30 8974 N 846.951 1.19563 1.02676 0
M  V30 8975 C 848.362 1.00158 1.57561 0
M  V30 8976 C 848.713 -0.444922 1.91089 0
M  V30 8977 O 847.838 -1.32466 1.71119 0
M  V30 8978 C 848.433 1.81181 2.86284 0
M  V30 8979 C 846.992 1.66171 3.37734 0
M  V30 8980 C 846.139 1.7975 2.11152 0
M  V30 8981 H 849.09 1.33904 0.85179 0
M  V30 8982 H 849.111 1.30916 3.57269 0
M  V30 8983 H 848.623 2.86454 2.6185 0
M  V30 8984 H 846.724 0.634927 3.6715 0
M  V30 8985 H 846.837 2.46832 4.10622 0
M  V30 8986 H 845.201 1.22833 2.23123 0
M  V30 8987 H 845.984 2.86487 1.89157 0
M  V30 8988 N 848.429 -1.21819 0.999893 0
M  V30 8989 C 849.359 -2.26282 0.576096 0
M  V30 8990 C 850.34 -1.65317 -0.400537 0
M  V30 8991 O 851.525 -1.92028 -0.28964 0
M  V30 8992 C 848.655 -3.47147 -0.103145 0
M  V30 8993 C 847.609 -4.20594 0.792745 0
M  V30 8994 C 846.935 -5.34696 -0.0198026 0
M  V30 8995 C 848.235 -4.78533 2.09293 0
M  V30 8996 H 849.929 -2.61984 1.4493 0
M  V30 8997 H 847.475 -1.25935 0.698316 0
M  V30 8998 H 849.428 -4.1939 -0.411068 0
M  V30 8999 H 848.152 -3.1056 -1.01094 0
M  V30 9000 H 846.811 -3.50194 1.08442 0
M  V30 9001 H 846.459 -4.94352 -0.928729 0
M  V30 9002 H 846.159 -5.84764 0.576661 0
M  V30 9003 H 847.683 -6.09752 -0.321659 0
M  V30 9004 H 849.097 -5.42682 1.8485 0
M  V30 9005 H 847.494 -5.38968 2.63881 0
M  V30 9006 H 848.564 -3.98197 2.76708 0
M  V30 9007 N 849.908 -0.773975 -1.37286 0
M  V30 9008 C 851.154 -0.339809 -1.99933 0
M  V30 9009 C 851.487 1.0815 -1.61299 0
M  V30 9010 O 850.762 1.74442 -0.860252 0
M  V30 9011 C 851.045 -0.485919 -3.56806 0
M  V30 9012 C 850.898 -1.9498 -4.05343 0
M  V30 9013 C 852.217 0.108461 -4.39966 0
M  V30 9014 H 849.336 -0.124944 -0.726332 0
M  V30 9015 H 851.978 -0.977433 -1.6293 0
M  V30 9016 H 850.128 0.0569023 -3.88458 0
M  V30 9017 H 851.8 -2.5525 -3.84246 0
M  V30 9018 H 850.043 -2.45784 -3.57453 0
M  V30 9019 H 850.714 -2.00308 -5.14374 0
M  V30 9020 H 853.19 -0.354722 -4.14585 0
M  V30 9021 H 852.066 -0.0238926 -5.48895 0
M  V30 9022 H 852.327 1.19901 -4.25531 0
M  V30 9023 N 851.386 1.48609 -0.524698 0
M  V30 9024 C 852.316 2.32366 0.229837 0
M  V30 9025 C 853.297 1.41759 0.940129 0
M  V30 9026 O 854.482 1.7065 0.926936 0
M  V30 9027 C 851.612 3.22835 1.28043 0
M  V30 9028 C 850.566 4.22424 0.688603 0
M  V30 9029 C 849.892 5.0199 1.84146 0
M  V30 9030 C 851.192 5.21217 -0.336176 0
M  V30 9031 H 852.886 2.95698 -0.469339 0
M  V30 9032 H 850.432 1.42197 -0.227156 0
M  V30 9033 H 852.385 3.80253 1.8162 0
M  V30 9034 H 851.109 2.57492 2.00912 0
M  V30 9035 H 849.768 3.66185 0.174402 0
M  V30 9036 H 849.416 4.33076 2.5584 0
M  V30 9037 H 849.116 5.69392 1.45142 0
M  V30 9038 H 850.64 5.62259 2.38111 0
M  V30 9039 H 852.054 5.7319 0.112307 0
M  V30 9040 H 850.451 5.96642 -0.643324 0
M  V30 9041 H 851.521 4.68676 -1.24381 0
M  V30 9042 N 852.864 0.259585 1.55447 0
M  V30 9043 C 854.089 -0.368317 2.04103 0
M  V30 9044 C 854.514 -1.49827 1.13725 0
M  V30 9045 O 853.872 -1.80814 0.132705 0
M  V30 9046 C 853.92 -0.841506 3.50644 0
M  V30 9047 O 853.024 -1.95008 3.63381 0
M  V30 9048 H 852.365 -0.0785227 0.659341 0
M  V30 9049 H 854.895 0.389349 2.00861 0
M  V30 9050 H 854.905 -1.14138 3.9171 0
M  V30 9051 H 853.58 -0.0147001 4.15897 0
M  V30 9052 H 852.157 -1.65393 3.34215 0
M  V30 9053 N 854.342 -1.57594 -0.0133615 0
M  V30 9054 C 855.57 -1.94251 -0.712328 0
M  V30 9055 C 855.985 -0.86063 -1.68043 0
M  V30 9056 O 855.342 0.161632 -1.81783 0
M  V30 9057 C 855.393 -3.30891 -1.45581 0
M  V30 9058 O 855.114 -4.34924 -0.526539 0
M  V30 9059 C 856.615 -3.81926 -2.2505 0
M  V30 9060 H 853.835 -0.640737 -0.199241 0
M  V30 9061 H 856.379 -2.04472 0.0337855 0
M  V30 9062 H 854.534 -3.22019 -2.15366 0
M  V30 9063 H 854.948 -5.1389 -1.04962 0
M  V30 9064 H 856.422 -4.79999 -2.72589 0
M  V30 9065 H 856.899 -3.13934 -3.07152 0
M  V30 9066 H 857.505 -3.93931 -1.60308 0
M  V30 9067 N 855.82 0.285905 -1.54985 0
M  V30 9068 C 857.05 1.03626 -1.78732 0
M  V30 9069 C 857.458 1.80896 -0.554377 0
M  V30 9070 O 856.801 1.77161 0.48578 0
M  V30 9071 C 856.863 2.05185 -2.95193 0
M  V30 9072 C 856.527 1.46973 -4.32722 0
M  V30 9073 C 857.524 0.891986 -5.12191 0
M  V30 9074 C 855.209 1.50081 -4.79355 0
M  V30 9075 C 857.203 0.353078 -6.36421 0
M  V30 9076 C 854.89 0.958037 -6.03544 0
M  V30 9077 C 855.888 0.385157 -6.81913 0
M  V30 9078 O 855.576 -0.149341 -8.03761 0
M  V30 9079 H 855.308 0.312416 -0.599477 0
M  V30 9080 H 857.862 0.326067 -2.02795 0
M  V30 9081 H 856.092 2.79928 -2.66791 0
M  V30 9082 H 857.781 2.66244 -3.0638 0
M  V30 9083 H 858.547 0.860762 -4.77301 0
M  V30 9084 H 854.426 1.9361 -4.18373 0
M  V30 9085 H 857.97 -0.0947181 -6.97536 0
M  V30 9086 H 853.867 0.986458 -6.37918 0
M  V30 9087 H 854.635 -0.0374719 -8.18491 0
M  V30 9088 N 857.298 1.47698 0.54982 0
M  V30 9089 C 858.228 1.63622 1.66583 0
M  V30 9090 C 859.209 0.485477 1.63025 0
M  V30 9091 O 860.394 0.715692 1.80531 0
M  V30 9092 C 857.524 1.65721 3.05211 0
M  V30 9093 C 856.478 2.80097 3.2362 0
M  V30 9094 C 855.804 2.67272 4.63109 0
M  V30 9095 C 857.104 4.21612 3.08286 0
M  V30 9096 H 858.798 2.57049 1.53512 0
M  V30 9097 H 856.344 1.23705 0.737099 0
M  V30 9098 H 858.297 1.75451 3.83138 0
M  V30 9099 H 857.021 0.688593 3.19258 0
M  V30 9100 H 855.68 2.69889 2.48104 0
M  V30 9101 H 855.328 1.68422 4.73965 0
M  V30 9102 H 855.028 3.44008 4.76374 0
M  V30 9103 H 856.552 2.78942 5.43161 0
M  V30 9104 H 857.966 4.32758 3.76024 0
M  V30 9105 H 856.363 4.99193 3.33057 0
M  V30 9106 H 857.433 4.39462 2.04942 0
M  V30 9107 N 858.776 -0.797141 1.35954 0
M  V30 9108 C 860.053 -1.54224 1.2031 0
M  V30 9109 C 860.433 -2.10013 -0.213926 0
M  V30 9110 O 859.781 -1.93292 -1.21862 0
M  V30 9111 C 859.991 -2.6433 2.27883 0
M  V30 9112 C 861.339 -3.32418 2.64165 0
M  V30 9113 O 862.363 -2.74607 2.26868 0
M  V30 9114 O 861.222 -4.36876 3.28331 0
M  V30 9115 H 858.316 -0.681857 0.467974 0
M  V30 9116 H 860.862 -0.836288 1.47663 0
M  V30 9117 H 859.634 -2.21044 3.22885 0
M  V30 9118 H 859.257 -3.42551 2.01853 0
M  V30 9119 N 860.254 -1.20106 -1.0204 0
M  V30 9120 C 861.217 -0.948261 -2.08664 0
M  V30 9121 C 862.217 0.0746753 -1.60627 0
M  V30 9122 O 863.407 -0.160981 -1.73455 0
M  V30 9123 C 860.539 -0.426854 -3.38217 0
M  V30 9124 H 861.732 -1.894 -2.32524 0
M  V30 9125 H 859.285 -1.0159 -1.18782 0
M  V30 9126 H 860.02 0.524532 -3.2003 0
M  V30 9127 H 859.805 -1.16451 -3.74408 0
M  V30 9128 H 861.295 -0.269346 -4.1673 0
M  V30 9129 N 861.732 1.21287 -1.00634 0
M  V30 9130 C 862.664 2.2308 -0.526094 0
M  V30 9131 C 863.677 1.58157 0.386031 0
M  V30 9132 O 864.866 1.77528 0.186016 0
M  V30 9133 C 861.966 3.37937 0.255289 0
M  V30 9134 C 861.139 4.32449 -0.656236 0
M  V30 9135 C 860.198 5.26145 0.0757714 0
M  V30 9136 O 859.224 5.66601 -0.543325 0
M  V30 9137 N 860.426 5.6449 1.35391 0
M  V30 9138 H 863.191 2.64913 -1.40147 0
M  V30 9139 H 860.752 1.35724 -0.882641 0
M  V30 9140 H 862.744 3.97614 0.753977 0
M  V30 9141 H 861.314 2.95078 1.03187 0
M  V30 9142 H 860.534 3.70892 -1.3354 0
M  V30 9143 H 861.822 4.92526 -1.27653 0
M  V30 9144 H 861.22 5.33617 1.878 0
M  V30 9145 H 859.777 6.26524 1.79753 0
M  V30 9146 N 863.21 0.781244 1.36873 0
M  V30 9147 C 864.12 0.174981 2.33947 0
M  V30 9148 C 865.136 -0.668512 1.60645 0
M  V30 9149 O 866.312 -0.586213 1.9268 0
M  V30 9150 C 863.377 -0.686557 3.39834 0
M  V30 9151 C 862.438 0.174489 4.28945 0
M  V30 9152 C 861.671 -0.646024 5.29776 0
M  V30 9153 O 861.894 -1.88254 5.38439 0
M  V30 9154 O 860.828 -0.0502214 6.01879 0
M  V30 9155 H 864.654 0.977382 2.87543 0
M  V30 9156 H 862.239 0.542559 1.392 0
M  V30 9157 H 864.121 -1.1781 4.04597 0
M  V30 9158 H 862.796 -1.46699 2.8855 0
M  V30 9159 H 861.703 0.712604 3.6725 0
M  V30 9160 H 863.036 0.918232 4.83559 0
M  V30 9161 N 864.689 -1.48329 0.532571 0
M  V30 9162 C 865.639 -2.2664 -0.24868 0
M  V30 9163 C 866.623 -1.32861 -0.907563 0
M  V30 9164 O 867.815 -1.57382 -0.809942 0
M  V30 9165 C 864.944 -3.18004 -1.29339 0
M  V30 9166 C 864.03 -4.19256 -0.639166 0
M  V30 9167 N 864.421 -5.05043 0.276597 0
M  V30 9168 C 862.719 -4.36906 -0.896062 0
M  V30 9169 C 863.42 -5.78009 0.654261 0
M  V30 9170 N 862.396 -5.43598 0.0147447 0
M  V30 9171 H 866.198 -2.90344 0.455792 0
M  V30 9172 H 863.712 -1.58566 0.350778 0
M  V30 9173 H 865.709 -3.72767 -1.86682 0
M  V30 9174 H 864.369 -2.55855 -1.99921 0
M  V30 9175 H 865.38 -5.13813 0.649351 0
M  V30 9176 H 862.057 -3.85945 -1.59226 0
M  V30 9177 H 863.447 -6.57039 1.40532 0
M  V30 9178 N 866.167 -0.267825 -1.55308 0
M  V30 9179 C 867.097 0.616585 -2.25212 0
M  V30 9180 C 868.078 1.16472 -1.23969 0
M  V30 9181 O 869.263 1.20021 -1.52672 0
M  V30 9182 C 866.393 1.80412 -2.96764 0
M  V30 9183 C 865.347 1.38784 -4.04874 0
M  V30 9184 C 864.673 2.65789 -4.63961 0
M  V30 9185 C 865.973 0.543415 -5.19465 0
M  V30 9186 H 867.667 0.0336257 -2.99381 0
M  V30 9187 H 865.213 0.0147328 -1.43992 0
M  V30 9188 H 867.166 2.42866 -3.44375 0
M  V30 9189 H 865.89 2.4128 -2.20118 0
M  V30 9190 H 864.549 0.786541 -3.58063 0
M  V30 9191 H 864.197 3.24899 -3.83992 0
M  V30 9192 H 863.897 2.38651 -5.36954 0
M  V30 9193 H 865.421 3.29104 -5.14318 0
M  V30 9194 H 866.835 1.07277 -5.63174 0
M  V30 9195 H 865.232 0.367219 -5.98975 0
M  V30 9196 H 866.302 -0.439534 -4.82904 0
M  V30 9197 N 867.645 1.57599 0.00500368 0
M  V30 9198 C 869.056 1.78462 0.54848 0
M  V30 9199 C 869.407 0.901869 1.74243 0
M  V30 9200 O 868.532 0.103014 2.16155 0
M  V30 9201 C 869.127 3.2365 1.00179 0
M  V30 9202 C 867.686 3.45627 1.49061 0
M  V30 9203 C 866.833 2.73794 0.439531 0
M  V30 9204 H 869.784 1.57151 -0.22118 0
M  V30 9205 H 869.805 3.31488 1.86805 0
M  V30 9206 H 869.317 3.87873 0.132607 0
M  V30 9207 H 867.418 2.86612 2.38085 0
M  V30 9208 H 867.531 4.54298 1.52152 0
M  V30 9209 H 865.895 2.38267 0.900043 0
M  V30 9210 H 866.678 3.40714 -0.420599 0
M  V30 9211 N 869.123 -0.277682 1.55134 0
M  V30 9212 C 870.353 -1.02677 1.79279 0
M  V30 9213 C 870.761 -1.80599 0.563962 0
M  V30 9214 O 870.104 -1.77416 -0.476378 0
M  V30 9215 C 870.166 -2.03617 2.96277 0
M  V30 9216 C 869.83 -1.44676 4.33495 0
M  V30 9217 C 870.827 -0.864811 5.12657 0
M  V30 9218 C 868.512 -1.47537 4.80144 0
M  V30 9219 C 870.506 -0.319322 6.366 0
M  V30 9220 C 868.193 -0.926016 6.04043 0
M  V30 9221 C 869.191 -0.348988 6.82108 0
M  V30 9222 O 868.879 0.191964 8.03671 0
M  V30 9223 H 868.611 -0.309232 0.601125 0
M  V30 9224 H 871.165 -0.315308 2.02965 0
M  V30 9225 H 869.395 -2.78509 2.68272 0
M  V30 9226 H 871.084 -2.64616 3.07788 0
M  V30 9227 H 871.85 -0.835438 4.7775 0
M  V30 9228 H 867.729 -1.91389 4.19394 0
M  V30 9229 H 871.273 0.131709 6.97476 0
M  V30 9230 H 867.17 -0.952613 6.38432 0
M  V30 9231 H 867.938 0.0808779 8.1846 0
M  V30 9232 N 870.601 -1.47988 -0.541979 0
M  V30 9233 C 871.564 -1.61148 -1.62984 0
M  V30 9234 C 872.564 -0.48553 -1.53295 0
M  V30 9235 O 873.754 -0.751012 -1.5718 0
M  V30 9236 C 870.886 -1.57038 -3.02576 0
M  V30 9237 H 872.079 -2.58138 -1.52659 0
M  V30 9238 H 869.632 -1.36405 -0.763106 0
M  V30 9239 H 870.367 -0.614807 -3.18419 0
M  V30 9240 H 870.152 -2.38769 -3.11018 0
M  V30 9241 H 871.642 -1.69416 -3.81691 0
M  V30 9242 N 872.079 0.78992 -1.36375 0
M  V30 9243 C 873.356 1.53584 -1.21126 0
M  V30 9244 C 873.736 2.10124 0.202785 0
M  V30 9245 O 873.084 1.93936 1.20835 0
M  V30 9246 C 873.294 2.63117 -2.29282 0
M  V30 9247 C 874.642 3.31013 -2.65924 0
M  V30 9248 O 875.666 2.734 -2.28321 0
M  V30 9249 O 874.525 4.35129 -3.30643 0
M  V30 9250 H 871.619 0.679366 -0.471583 0
M  V30 9251 H 874.165 0.828446 -1.48104 0
M  V30 9252 H 872.937 2.19329 -3.24053 0
M  V30 9253 H 872.56 3.41476 -2.03666 0
M  V30 9254 N 873.557 1.20646 1.01402 0
M  V30 9255 C 874.834 0.927176 1.72229 0
M  V30 9256 C 875.214 -0.563382 2.03443 0
M  V30 9257 O 874.562 -1.52576 1.70096 0
M  V30 9258 C 874.772 1.80285 2.98828 0
M  V30 9259 C 876.12 2.04624 3.72041 0
M  V30 9260 O 877.144 1.77559 3.0879 0
M  V30 9261 O 876.003 2.50347 4.85787 0
M  V30 9262 H 873.097 0.346891 0.75073 0
M  V30 9263 H 875.643 1.31532 1.07227 0
M  V30 9264 H 874.415 2.81204 2.72102 0
M  V30 9265 H 874.038 1.41495 3.71571 0
M  V30 9266 N 875.035 -1.20752 1.01276 0
M  V30 9267 C 876.26 -1.94547 0.718769 0
M  V30 9268 C 876.685 -1.7404 -0.713563 0
M  V30 9269 O 876.043 -1.03221 -1.49047 0
M  V30 9270 C 876.091 -3.44823 1.05497 0
M  V30 9271 O 875.195 -4.12072 0.164516 0
M  V30 9272 H 874.536 -0.607931 0.267051 0
M  V30 9273 H 877.066 -1.53292 1.35509 0
M  V30 9274 H 877.076 -3.95427 1.00507 0
M  V30 9275 H 875.751 -3.59072 2.09858 0
M  V30 9276 H 874.328 -3.71909 0.271615 0
M  V30 9277 N 876.513 -0.788492 -1.36457 0
M  V30 9278 C 877.461 -0.174192 -2.31947 0
M  V30 9279 C 878.455 0.665974 -1.5576 0
M  V30 9280 O 879.661 0.561161 -1.71029 0
M  V30 9281 H 876.036 -0.0375538 -0.751062 0
M  V30 9282 H 878.007 -0.995011 -2.81322 0
M  V30 9283 C 876.756 0.677276 -3.4104 0
M  V30 9284 H 876.079 0.0401418 -3.9978 0
M  V30 9285 H 877.519 1.07379 -4.10178 0
M  V30 9286 C 875.978 1.83512 -2.82533 0
M  V30 9287 O 876.508 2.93164 -2.74623 0
M  V30 9288 N 874.714 1.64095 -2.39836 0
M  V30 9289 H 874.261 0.749046 -2.46469 0
M  V30 9290 H 874.219 2.41726 -2.01037 0
M  V30 9291 N 877.991 1.48044 -0.54043 0
M  V30 9292 C 878.954 2.28273 0.205966 0
M  V30 9293 C 879.954 1.35983 0.858209 0
M  V30 9294 O 881.144 1.58776 0.716651 0
M  V30 9295 C 878.276 3.15174 1.29917 0
M  V30 9296 H 879.469 2.95727 -0.498555 0
M  V30 9297 H 877.022 1.53457 -0.296745 0
M  V30 9298 H 877.757 2.52374 2.03661 0
M  V30 9299 H 877.542 3.83074 0.836475 0
M  V30 9300 H 879.032 3.75666 1.82387 0
M  V30 9301 N 879.47 0.276058 1.55163 0
M  V30 9302 C 880.716 -0.340959 1.99913 0
M  V30 9303 C 881.049 -1.55434 1.16422 0
M  V30 9304 O 880.324 -1.93081 0.234517 0
M  V30 9305 C 880.607 -0.722211 3.52783 0
M  V30 9306 C 880.46 0.498575 4.47028 0
M  V30 9307 C 881.779 -1.5583 4.11589 0
M  V30 9308 H 878.898 -0.122455 0.726756 0
M  V30 9309 H 881.54 0.38319 1.86096 0
M  V30 9310 H 879.69 -1.33919 3.64689 0
M  V30 9311 H 881.362 1.13713 4.47065 0
M  V30 9312 H 879.605 1.13646 4.18649 0
M  V30 9313 H 880.276 0.188041 5.5168 0
M  V30 9314 H 882.752 -1.03722 4.02965 0
M  V30 9315 H 881.628 -1.79387 5.1876 0
M  V30 9316 H 881.889 -2.53963 3.61877 0
M  V30 9317 N 880.948 -1.576 0.00335426 0
M  V30 9318 C 882.176 -1.94996 -0.691685 0
M  V30 9319 C 882.591 -0.878405 -1.67121 0
M  V30 9320 O 881.948 0.142343 -1.81944 0
M  V30 9321 C 881.999 -3.32416 -1.42063 0
M  V30 9322 O 881.72 -4.35458 -0.48038 0
M  V30 9323 C 883.221 -3.84291 -2.20987 0
M  V30 9324 H 880.441 -0.642814 -0.192434 0
M  V30 9325 H 882.985 -2.04425 0.0554706 0
M  V30 9326 H 881.14 -3.24285 -2.11939 0
M  V30 9327 H 881.554 -5.14975 -0.995054 0
M  V30 9328 H 883.028 -4.82863 -2.67483 0
M  V30 9329 H 883.505 -3.17174 -3.03805 0
M  V30 9330 H 884.111 -3.95609 -1.56121 0
M  V30 9331 N 882.426 0.269451 -1.5528 0
M  V30 9332 C 883.837 0.840233 -1.66724 0
M  V30 9333 C 884.188 1.86909 -0.596621 0
M  V30 9334 O 883.313 2.14817 0.261246 0
M  V30 9335 C 883.908 1.5308 -3.02245 0
M  V30 9336 C 882.467 2.04957 -3.15705 0
M  V30 9337 C 881.614 0.892838 -2.62533 0
M  V30 9338 H 884.565 0.0457236 -1.58634 0
M  V30 9339 H 884.586 2.39792 -2.95432 0
M  V30 9340 H 884.098 0.781741 -3.80145 0
M  V30 9341 H 882.199 2.82813 -2.42585 0
M  V30 9342 H 882.312 2.26244 -4.22316 0
M  V30 9343 H 880.676 1.28719 -2.19781 0
M  V30 9344 H 881.459 0.157229 -3.4294 0
M  V30 9345 N 883.904 1.48273 0.534124 0
M  V30 9346 C 884.837 1.57053 1.65559 0
M  V30 9347 C 885.815 0.421213 1.5705 0
M  V30 9348 O 886.999 0.632242 1.77581 0
M  V30 9349 C 884.126 1.49465 3.03937 0
M  V30 9350 C 883.172 2.69186 3.30819 0
M  V30 9351 S 884.005 4.31192 3.17543 0
M  V30 9352 C 885.161 4.26197 4.58375 0
M  V30 9353 H 885.394 2.51927 1.57861 0
M  V30 9354 H 882.927 1.36755 0.716763 0
M  V30 9355 H 884.885 1.45775 3.83745 0
M  V30 9356 H 883.546 0.559357 3.09079 0
M  V30 9357 H 882.739 2.60005 4.31756 0
M  V30 9358 H 882.341 2.70118 2.58674 0
M  V30 9359 H 884.633 3.95874 5.49809 0
M  V30 9360 H 885.576 5.27299 4.72611 0
M  V30 9361 H 885.984 3.56723 4.37503 0
M  V30 9362 N 885.382 -0.782676 1.36792 0
M  V30 9363 C 886.607 -1.57676 1.34733 0
M  V30 9364 C 887.032 -1.87979 -0.0675253 0
M  V30 9365 O 886.39 -1.48404 -1.04144 0
M  V30 9366 C 886.438 -2.87047 2.18257 0
M  V30 9367 O 885.542 -3.80946 1.57969 0
M  V30 9368 H 884.883 -0.478034 0.460846 0
M  V30 9369 H 887.413 -0.969578 1.80168 0
M  V30 9370 H 887.423 -3.36254 2.31079 0
M  V30 9371 H 886.098 -2.64319 3.21104 0
M  V30 9372 H 884.675 -3.39558 1.54126 0
M  V30 9373 N 886.86 -1.21182 -1.00761 0
M  V30 9374 C 887.77 -0.984691 -2.12934 0
M  V30 9375 C 888.786 0.0623657 -1.73888 0
M  V30 9376 O 889.962 -0.1271 -2.00999 0
M  V30 9377 C 887.027 -0.549447 -3.42319 0
M  V30 9378 C 886.088 -1.66841 -3.95553 0
M  V30 9379 C 885.321 -1.25384 -5.18763 0
M  V30 9380 O 885.544 -0.126333 -5.7026 0
M  V30 9381 O 884.478 -2.06475 -5.65377 0
M  V30 9382 H 888.304 -1.92413 -2.3497 0
M  V30 9383 H 885.889 -0.99647 -1.11314 0
M  V30 9384 H 887.771 -0.316384 -4.20211 0
M  V30 9385 H 886.446 0.361304 -3.21677 0
M  V30 9386 H 885.353 -1.95585 -3.189 0
M  V30 9387 H 886.686 -2.55649 -4.206 0
M  V30 9388 N 888.338 1.20213 -1.01915 0
M  V30 9389 C 889.248 2.26763 -0.601311 0
M  V30 9390 C 890.264 1.70185 0.362369 0
M  V30 9391 O 891.44 2.00165 0.222682 0
M  V30 9392 C 888.505 3.46662 0.0512879 0
M  V30 9393 C 887.566 4.18459 -0.958659 0
M  V30 9394 C 886.799 5.32634 -0.337107 0
M  V30 9395 O 887.022 5.63841 0.86251 0
M  V30 9396 O 885.956 5.9258 -1.05511 0
M  V30 9397 H 889.782 2.64725 -1.48844 0
M  V30 9398 H 887.367 1.2688 -0.788784 0
M  V30 9399 H 889.249 4.19345 0.41564 0
M  V30 9400 H 887.924 3.1057 0.912572 0
M  V30 9401 H 886.831 3.47937 -1.37442 0
M  V30 9402 H 888.164 4.58498 -1.78999 0
M  V30 9403 N 889.816 0.795718 1.36037 0
M  V30 9404 C 890.764 0.18649 2.31851 0
M  V30 9405 C 891.758 -0.657704 1.56111 0
M  V30 9406 O 892.964 -0.552083 1.71324 0
M  V30 9407 H 889.339 0.0415363 0.750852 0
M  V30 9408 H 891.31 1.00992 2.8079 0
M  V30 9409 C 890.059 -0.65918 3.41394 0
M  V30 9410 H 889.382 -0.01894 3.99796 0
M  V30 9411 H 890.822 -1.05202 4.10741 0
M  V30 9412 C 889.281 -1.82011 2.83502 0
M  V30 9413 O 889.811 -2.91703 2.76174 0
M  V30 9414 N 888.017 -1.62821 2.40703 0
M  V30 9415 H 887.564 -0.735965 2.46863 0
M  V30 9416 H 887.522 -2.40657 2.02316 0
M  V30 9417 N 891.294 -1.47756 0.548274 0
M  V30 9418 C 892.542 -2.02089 0.0208542 0
M  V30 9419 C 892.863 -1.42589 -1.33017 0
M  V30 9420 O 892.133 -0.597825 -1.86555 0
M  V30 9421 H 890.713 -0.746985 0.00472023 0
M  V30 9422 H 893.375 -1.81262 0.716257 0
M  V30 9423 H 892.471 -3.12012 -0.0739016 0
M  V30 9424 N 892.772 -0.284283 -1.55015 0
M  V30 9425 C 893.735 0.586182 -2.21577 0
M  V30 9426 C 894.735 1.07427 -1.1965 0
M  V30 9427 O 895.925 0.972977 -1.44495 0
M  V30 9428 C 893.057 1.80973 -2.88897 0
M  V30 9429 H 894.25 0.00487253 -2.999 0
M  V30 9430 H 891.803 -0.0349696 -1.56261 0
M  V30 9431 H 892.538 2.43131 -2.14611 0
M  V30 9432 H 892.323 1.46757 -3.636 0
M  V30 9433 H 893.813 2.42853 -3.39724 0
M  V30 9434 N 894.251 1.57596 -0.0117121 0
M  V30 9435 C 895.184 2.04624 1.01016 0
M  V30 9436 C 896.162 0.938437 1.32786 0
M  V30 9437 O 897.346 1.20746 1.44751 0
M  V30 9438 C 894.473 2.45369 2.33477 0
M  V30 9439 C 893.519 3.66998 2.17289 0
M  V30 9440 S 894.352 5.14412 1.48795 0
M  V30 9441 C 895.508 5.58438 2.82662 0
M  V30 9442 H 895.741 2.9098 0.60977 0
M  V30 9443 H 893.274 1.53106 0.199494 0
M  V30 9444 H 895.232 2.69511 3.09635 0
M  V30 9445 H 893.893 1.59391 2.70653 0
M  V30 9446 H 893.086 3.93297 3.15172 0
M  V30 9447 H 892.688 3.42918 1.49275 0
M  V30 9448 H 894.98 5.61614 3.78941 0
M  V30 9449 H 895.923 6.58224 2.61049 0
M  V30 9450 H 896.331 4.86033 2.8711 0
M  V30 9451 N 895.729 -0.261212 1.5542 0
M  V30 9452 C 896.975 -0.992699 1.76843 0
M  V30 9453 C 897.308 -1.8551 0.574428 0
M  V30 9454 O 896.583 -1.89739 -0.427713 0
M  V30 9455 C 896.866 -1.86532 3.08022 0
M  V30 9456 C 896.719 -1.03206 4.378 0
M  V30 9457 C 898.038 -2.85036 3.35324 0
M  V30 9458 H 895.157 -0.359473 0.643388 0
M  V30 9459 H 897.799 -0.264214 1.88154 0
M  V30 9460 H 895.949 -2.48644 2.9851 0
M  V30 9461 H 897.621 -0.430743 4.59285 0
M  V30 9462 H 895.864 -0.335911 4.32497 0
M  V30 9463 H 896.535 -1.6761 5.25938 0
M  V30 9464 H 899.011 -2.3306 3.44706 0
M  V30 9465 H 897.887 -3.43226 4.28354 0
M  V30 9466 H 898.148 -3.60768 2.55537 0
M  V30 9467 N 897.207 -1.48554 -0.526253 0
M  V30 9468 C 898.453 -1.56994 -1.28378 0
M  V30 9469 C 898.786 -0.244701 -1.92652 0
M  V30 9470 O 898.061 0.749636 -1.79473 0
M  V30 9471 C 898.344 -2.71092 -2.37026 0
M  V30 9472 C 898.197 -4.13331 -1.77418 0
M  V30 9473 C 899.516 -2.80934 -3.38769 0
M  V30 9474 H 896.635 -0.571466 -0.465398 0
M  V30 9475 H 899.277 -1.80742 -0.585861 0
M  V30 9476 H 897.427 -2.50973 -2.96555 0
M  V30 9477 H 899.099 -4.44899 -1.21912 0
M  V30 9478 H 897.342 -4.20158 -1.07936 0
M  V30 9479 H 898.013 -4.88994 -2.56104 0
M  V30 9480 H 900.489 -2.9917 -2.892 0
M  V30 9481 H 899.365 -3.62489 -4.12181 0
M  V30 9482 H 899.626 -1.89244 -3.99549 0
M  V30 9483 N 898.685 0.775411 -1.37205 0
M  V30 9484 C 900.096 1.35147 -1.28811 0
M  V30 9485 C 900.447 1.96089 0.0659168 0
M  V30 9486 O 899.572 1.93558 0.967684 0
M  V30 9487 C 900.167 2.45715 -2.33258 0
M  V30 9488 C 898.726 2.99099 -2.2851 0
M  V30 9489 C 897.873 1.72286 -2.17285 0
M  V30 9490 H 900.824 0.575954 -1.4788 0
M  V30 9491 H 900.845 3.251 -1.97712 0
M  V30 9492 H 900.357 2.01331 -3.31795 0
M  V30 9493 H 898.458 3.47868 -1.33485 0
M  V30 9494 H 898.571 3.54962 -3.21774 0
M  V30 9495 H 896.935 1.95068 -1.6377 0
M  V30 9496 H 897.718 1.3001 -3.1773 0
M  V30 9497 N 900.163 1.21714 1.00117 0
M  V30 9498 C 901.096 0.923113 2.08696 0
M  V30 9499 C 902.074 -0.130827 1.62073 0
M  V30 9500 O 903.258 -0.00103064 1.885 0
M  V30 9501 C 900.385 0.386807 3.36484 0
M  V30 9502 C 899.431 1.42414 4.0202 0
M  V30 9503 S 900.264 2.99466 4.43937 0
M  V30 9504 C 901.42 2.47452 5.74907 0
M  V30 9505 H 901.653 1.84258 2.33315 0
M  V30 9506 H 899.186 1.0473 1.1345 0
M  V30 9507 H 901.144 0.0839547 4.10414 0
M  V30 9508 H 899.805 -0.511413 3.09909 0
M  V30 9509 H 898.998 0.998593 4.94008 0
M  V30 9510 H 898.6 1.67527 3.34381 0
M  V30 9511 H 900.892 1.88177 6.50842 0
M  V30 9512 H 901.835 3.37898 6.22279 0
M  V30 9513 H 902.243 1.89027 5.31911 0
M  V30 9514 N 901.641 -1.19671 1.02551 0
M  V30 9515 C 902.888 -1.89268 0.720002 0
M  V30 9516 C 903.216 -1.79411 -0.751127 0
M  V30 9517 O 902.471 -1.17859 -1.5623 0
M  V30 9518 C 902.77 -3.39647 1.11241 0
M  V30 9519 C 902.436 -3.69706 2.58125 0
M  V30 9520 C 901.098 -3.7762 2.98256 0
M  V30 9521 C 903.45 -3.83301 3.53171 0
M  V30 9522 C 900.778 -3.96594 4.32354 0
M  V30 9523 C 903.13 -4.03788 4.86968 0
M  V30 9524 C 901.794 -4.09934 5.26793 0
M  V30 9525 H 901.064 -0.692579 0.263467 0
M  V30 9526 H 903.711 -1.41738 1.28774 0
M  V30 9527 H 902.016 -3.89052 0.463234 0
M  V30 9528 H 903.713 -3.91809 0.853602 0
M  V30 9529 H 900.303 -3.64152 2.26033 0
M  V30 9530 H 904.487 -3.76534 3.2332 0
M  V30 9531 H 899.743 -3.9959 4.6275 0
M  V30 9532 H 903.917 -4.1325 5.60533 0
M  V30 9533 H 901.544 -4.24389 6.30712 0
M  V30 9534 N 903.119 -0.802921 -1.35613 0
M  V30 9535 C 904.349 -0.393359 -2.02821 0
M  V30 9536 C 904.757 0.999282 -1.60658 0
M  V30 9537 O 904.1 1.65463 -0.797977 0
M  V30 9538 C 904.162 -0.393102 -3.57344 0
M  V30 9539 C 903.826 -1.73563 -4.22759 0
M  V30 9540 C 904.823 -2.69333 -4.44698 0
M  V30 9541 C 902.508 -2.01863 -4.59953 0
M  V30 9542 C 904.502 -3.91589 -5.02928 0
M  V30 9543 C 902.189 -3.24383 -5.17898 0
M  V30 9544 C 903.187 -4.19064 -5.39328 0
M  V30 9545 O 902.875 -5.39422 -5.96053 0
M  V30 9546 H 902.607 -0.158431 -0.657172 0
M  V30 9547 H 905.161 -1.08682 -1.74291 0
M  V30 9548 H 903.391 0.356934 -3.85049 0
M  V30 9549 H 905.08 -0.00635596 -4.059 0
M  V30 9550 H 905.846 -2.48759 -4.16346 0
M  V30 9551 H 901.725 -1.28979 -4.42589 0
M  V30 9552 H 905.269 -4.65502 -5.1957 0
M  V30 9553 H 901.166 -3.44829 -5.45677 0
M  V30 9554 H 901.934 -5.40669 -6.14507 0
M  V30 9555 N 904.597 1.47463 -0.556102 0
M  V30 9556 C 905.56 2.28478 0.181743 0
M  V30 9557 C 906.56 1.36886 0.843738 0
M  V30 9558 O 907.75 1.59527 0.69977 0
M  V30 9559 C 904.882 3.16534 1.26566 0
M  V30 9560 H 906.075 2.95182 -0.529892 0
M  V30 9561 H 903.628 1.53134 -0.313005 0
M  V30 9562 H 904.363 2.5452 2.00973 0
M  V30 9563 H 904.148 3.83939 0.795798 0
M  V30 9564 H 905.638 3.77579 1.78393 0
M  V30 9565 N 906.075 0.2925 1.54862 0
M  V30 9566 C 907.023 -0.603186 2.24643 0
M  V30 9567 C 908.017 -1.1439 1.24946 0
M  V30 9568 O 909.223 -1.09552 1.42823 0
M  V30 9569 H 905.598 -0.213105 0.721173 0
M  V30 9570 H 907.569 0.00799278 2.98399 0
M  V30 9571 C 906.318 -1.76769 2.99413 0
M  V30 9572 H 905.641 -1.36084 3.75927 0
M  V30 9573 H 907.081 -2.37066 3.51533 0
M  V30 9574 C 905.54 -2.66669 2.05886 0
M  V30 9575 O 906.07 -3.67525 1.62136 0
M  V30 9576 N 904.276 -2.34216 1.7202 0
M  V30 9577 H 903.823 -1.52246 2.07795 0
M  V30 9578 H 903.781 -2.94635 1.09717 0
M  V30 9579 N 907.553 -1.57587 0.0200696 0
M  V30 9580 C 908.483 -2.12702 -0.963333 0
M  V30 9581 C 909.464 -1.04094 -1.34531 0
M  V30 9582 O 910.649 -1.31881 -1.42552 0
M  V30 9583 C 907.779 -2.64673 -2.24868 0
M  V30 9584 C 906.733 -3.77987 -2.00772 0
M  V30 9585 C 906.059 -4.16351 -3.35494 0
M  V30 9586 C 907.359 -5.0444 -1.35416 0
M  V30 9587 H 909.053 -2.95121 -0.504363 0
M  V30 9588 H 906.599 -1.41966 -0.24116 0
M  V30 9589 H 908.552 -3.01862 -2.94036 0
M  V30 9590 H 907.276 -1.79403 -2.72914 0
M  V30 9591 H 905.935 -3.41223 -1.34025 0
M  V30 9592 H 905.583 -3.28075 -3.81282 0
M  V30 9593 H 905.283 -4.92705 -3.20181 0
M  V30 9594 H 906.807 -4.56115 -4.05945 0
M  V30 9595 H 908.221 -5.39273 -1.94571 0
M  V30 9596 H 906.618 -5.85732 -1.30529 0
M  V30 9597 H 907.688 -4.83803 -0.325923 0
M  V30 9598 N 909.032 0.252966 -1.55557 0
M  V30 9599 C 910.28 0.979912 -1.76754 0
M  V30 9600 C 910.601 1.86083 -0.582944 0
M  V30 9601 O 909.871 1.91742 0.401497 0
M  V30 9602 H 908.451 0.364805 -0.651864 0
M  V30 9603 H 911.113 0.272372 -1.92987 0
M  V30 9604 H 910.209 1.60518 -2.67657 0
M  V30 9605 N 910.51 1.48831 0.518367 0
M  V30 9606 C 911.735 1.61379 1.30275 0
M  V30 9607 C 912.16 0.278571 1.86026 0
M  V30 9608 O 911.518 -0.751427 1.64995 0
M  V30 9609 C 911.566 2.67225 2.42122 0
M  V30 9610 O 910.67 2.25192 3.45489 0
M  V30 9611 H 910.011 0.540742 0.385349 0
M  V30 9612 H 912.541 1.949 0.622498 0
M  V30 9613 H 912.551 2.88859 2.8814 0
M  V30 9614 H 911.226 3.64155 2.00907 0
M  V30 9615 H 909.803 2.13819 3.05509 0
M  V30 9616 N 911.988 -0.768124 1.37614 0
M  V30 9617 C 913.404 -1.06919 1.18493 0
M  V30 9618 C 913.604 -2.01486 0.0235753 0
M  V30 9619 O 912.66 -2.4438 -0.635209 0
M  V30 9620 C 913.973 -1.66321 2.50515 0
M  V30 9621 C 915.521 -1.78562 2.57069 0
M  V30 9622 C 915.996 -2.41377 3.89231 0
M  V30 9623 N 917.487 -2.48824 3.90693 0
M  V30 9624 C 918.222 -2.98288 4.89706 0
M  V30 9625 N 917.718 -3.47897 5.99115 0
M  V30 9626 N 919.511 -2.97196 4.77107 0
M  V30 9627 H 911.662 -0.140286 2.11936 0
M  V30 9628 H 913.925 -0.124863 0.939741 0
M  V30 9629 H 913.631 -1.04303 3.35878 0
M  V30 9630 H 913.505 -2.65571 2.67866 0
M  V30 9631 H 915.892 -2.39712 1.72111 0
M  V30 9632 H 915.973 -0.780574 2.43599 0
M  V30 9633 H 915.617 -1.80866 4.74605 0
M  V30 9634 H 915.547 -3.42495 4.00006 0
M  V30 9635 H 918.038 -2.1372 3.1166 0
M  V30 9636 H 918.351 -3.84053 6.70614 0
M  V30 9637 H 916.696 -3.45993 6.02755 0
M  V30 9638 H 919.887 -2.57741 3.90752 0
M  V30 9639 H 920.06 -3.35434 5.54426 0
M  V30 9640 N 913.466 -1.22244 -0.994698 0
M  V30 9641 C 914.416 -0.958244 -2.06886 0
M  V30 9642 C 915.4 0.0904481 -1.60646 0
M  V30 9643 O 916.592 -0.119837 -1.76594 0
M  V30 9644 C 913.721 -0.535944 -3.39091 0
M  V30 9645 C 912.807 -1.61927 -3.9197 0
M  V30 9646 N 913.198 -2.84659 -4.18094 0
M  V30 9647 C 911.496 -1.49053 -4.20356 0
M  V30 9648 C 912.197 -3.54697 -4.61048 0
M  V30 9649 N 911.173 -2.82164 -4.64634 0
M  V30 9650 H 914.975 -1.89056 -2.25022 0
M  V30 9651 H 912.489 -1.1197 -1.17629 0
M  V30 9652 H 914.486 -0.327997 -4.15608 0
M  V30 9653 H 913.146 0.38949 -3.22355 0
M  V30 9654 H 914.157 -3.21104 -4.06341 0
M  V30 9655 H 910.834 -0.631154 -4.12702 0
M  V30 9656 H 912.224 -4.59837 -4.89898 0
M  V30 9657 N 914.944 1.19125 -1.03184 0
M  V30 9658 C 916.169 1.93379 -0.749628 0
M  V30 9659 C 916.594 1.75153 0.685785 0
M  V30 9660 O 915.952 1.05579 1.47386 0
M  V30 9661 C 916 3.43101 -1.1097 0
M  V30 9662 O 915.104 4.11758 -0.230053 0
M  V30 9663 H 914.445 0.603605 -0.276689 0
M  V30 9664 H 916.975 1.51116 -1.37931 0
M  V30 9665 H 916.985 3.93778 -1.06785 0
M  V30 9666 H 915.66 3.55688 -2.15544 0
M  V30 9667 H 914.237 3.7143 -0.330748 0
M  V30 9668 N 916.422 0.810101 1.35185 0
M  V30 9669 C 917.647 0.40364 2.03434 0
M  V30 9670 C 918.072 -0.97857 1.60641 0
M  V30 9671 O 917.43 -1.63435 0.784779 0
M  V30 9672 C 917.478 0.499154 3.57129 0
M  V30 9673 O 916.582 -0.486039 4.09526 0
M  V30 9674 H 915.923 0.168049 0.642383 0
M  V30 9675 H 918.453 1.09696 1.72708 0
M  V30 9676 H 918.463 0.370236 4.06317 0
M  V30 9677 H 917.138 1.50733 3.87624 0
M  V30 9678 H 915.715 -0.31707 3.7155 0
M  V30 9679 N 917.9 -1.47166 0.563914 0
M  V30 9680 C 919.13 -2.06546 0.0473599 0
M  V30 9681 C 919.538 -1.41607 -1.25476 0
M  V30 9682 O 918.881 -0.50894 -1.76509 0
M  V30 9683 C 918.943 -3.58873 -0.212249 0
M  V30 9684 C 918.607 -4.45893 1.00144 0
M  V30 9685 C 919.604 -4.83594 1.90873 0
M  V30 9686 C 917.289 -4.87309 1.218 0
M  V30 9687 C 919.283 -5.61519 3.01621 0
M  V30 9688 C 916.97 -5.64997 2.32856 0
M  V30 9689 C 917.968 -6.02013 3.22597 0
M  V30 9690 O 917.656 -6.78135 4.31727 0
M  V30 9691 H 917.388 -0.674441 0.0458823 0
M  V30 9692 H 919.942 -1.9006 0.778865 0
M  V30 9693 H 918.172 -3.73596 -0.998145 0
M  V30 9694 H 919.861 -4.00248 -0.675005 0
M  V30 9695 H 920.627 -4.52192 1.7535 0
M  V30 9696 H 916.506 -4.57959 0.528641 0
M  V30 9697 H 920.05 -5.90331 3.71693 0
M  V30 9698 H 915.947 -5.95813 2.48349 0
M  V30 9699 H 916.715 -6.96537 4.29859 0
M  V30 9700 N 919.378 -0.300708 -1.54705 0
M  V30 9701 C 920.606 0.31127 -2.04545 0
M  V30 9702 C 921.021 1.47542 -1.178 0
M  V30 9703 O 920.378 1.81361 -0.203571 0
M  V30 9704 C 920.429 0.767783 -3.53253 0
M  V30 9705 O 920.15 -0.350027 -4.36699 0
M  V30 9706 C 921.651 1.44494 -4.1909 0
M  V30 9707 H 918.871 0.067668 -0.667579 0
M  V30 9708 H 921.415 -0.440254 -1.99705 0
M  V30 9709 H 919.57 1.46933 -3.58454 0
M  V30 9710 H 919.984 0.00534038 -5.245 0
M  V30 9711 H 921.458 1.71553 -5.24665 0
M  V30 9712 H 921.935 2.3849 -3.68808 0
M  V30 9713 H 922.541 0.786581 -4.17963 0
M  V30 9714 N 920.856 1.57574 -0.0284266 0
M  V30 9715 C 922.081 1.96479 0.664137 0
M  V30 9716 C 922.506 0.904826 1.64908 0
M  V30 9717 O 921.864 -0.134339 1.80802 0
M  V30 9718 C 921.912 3.34479 1.34745 0
M  V30 9719 O 921.016 3.30794 2.46271 0
M  V30 9720 H 920.357 0.640654 0.174524 0
M  V30 9721 H 922.887 2.04402 -0.0900729 0
M  V30 9722 H 922.897 3.70694 1.7044 0
M  V30 9723 H 921.572 4.1117 0.625468 0
M  V30 9724 H 920.149 3.06294 2.12693 0
M  V30 9725 N 922.334 -0.244713 1.55689 0
M  V30 9726 C 923.284 -1.30596 1.86892 0
M  V30 9727 C 924.268 -1.43388 0.729972 0
M  V30 9728 O 925.46 -1.46593 0.99194 0
M  V30 9729 C 922.589 -2.66099 2.16902 0
M  V30 9730 C 921.675 -2.57302 3.37129 0
M  V30 9731 N 922.066 -2.18139 4.56343 0
M  V30 9732 C 920.364 -2.88311 3.40283 0
M  V30 9733 C 921.065 -2.20028 5.38482 0
M  V30 9734 N 920.041 -2.59616 4.77599 0
M  V30 9735 H 923.843 -0.993699 2.76591 0
M  V30 9736 H 921.357 -0.453334 1.55944 0
M  V30 9737 H 923.354 -3.4269 2.37422 0
M  V30 9738 H 922.014 -2.9819 1.28502 0
M  V30 9739 H 923.025 -1.89647 4.81928 0
M  V30 9740 H 919.702 -3.24928 2.62161 0
M  V30 9741 H 921.092 -1.9207 6.43862 0
M  V30 9742 N 923.813 -1.49104 -0.510467 0
M  V30 9743 C 924.776 -1.64569 -1.59529 0
M  V30 9744 C 925.776 -0.517937 -1.5223 0
M  V30 9745 O 926.966 -0.784183 -1.55551 0
M  V30 9746 C 924.098 -1.6342 -2.99177 0
M  V30 9747 H 925.291 -2.61318 -1.4715 0
M  V30 9748 H 922.844 -1.37993 -0.734001 0
M  V30 9749 H 923.579 -0.68221 -3.17043 0
M  V30 9750 H 923.364 -2.45312 -3.05883 0
M  V30 9751 H 924.854 -1.77474 -3.78011 0
M  V30 9752 N 925.291 0.760815 -1.38019 0
M  V30 9753 C 926.516 1.55513 -1.37224 0
M  V30 9754 C 926.941 1.88062 0.037611 0
M  V30 9755 O 926.299 1.50042 1.0177 0
M  V30 9756 C 926.347 2.83539 -2.22796 0
M  V30 9757 O 925.451 3.78384 -1.64009 0
M  V30 9758 H 924.792 0.470642 -0.468393 0
M  V30 9759 H 927.322 0.940792 -1.81687 0
M  V30 9760 H 927.332 3.32535 -2.36399 0
M  V30 9761 H 926.007 2.59178 -3.25269 0
M  V30 9762 H 924.584 3.37063 -1.59508 0
M  V30 9763 N 926.769 1.22769 0.988202 0
M  V30 9764 C 928.185 0.988665 1.2529 0
M  V30 9765 C 928.385 -0.314938 1.99024 0
M  V30 9766 O 927.441 -1.03637 2.30251 0
M  V30 9767 C 928.754 2.19046 2.06009 0
M  V30 9768 C 930.302 2.23452 2.19176 0
M  V30 9769 C 930.777 3.43196 3.03283 0
M  V30 9770 N 932.268 3.43387 3.10869 0
M  V30 9771 C 933.003 4.32693 3.7625 0
M  V30 9772 N 932.499 5.32224 4.43519 0
M  V30 9773 N 934.292 4.20457 3.73058 0
M  V30 9774 H 926.443 2.06575 0.494014 0
M  V30 9775 H 928.706 0.905452 0.28082 0
M  V30 9776 H 928.412 3.13607 1.59197 0
M  V30 9777 H 928.286 2.19492 3.06763 0
M  V30 9778 H 930.673 1.29436 2.65199 0
M  V30 9779 H 930.754 2.27042 1.17836 0
M  V30 9780 H 930.398 4.37515 2.57959 0
M  V30 9781 H 930.328 3.36847 4.04774 0
M  V30 9782 H 932.819 2.71368 2.62998 0
M  V30 9783 H 933.132 5.9664 4.91163 0
M  V30 9784 H 931.477 5.36133 4.42252 0
M  V30 9785 H 934.668 3.41949 3.19669 0
M  V30 9786 H 934.841 4.90261 4.23731 0
M  V30 9787 N 928.247 -1.18576 1.03814 0
M  V30 9788 C 929.18 -2.20929 0.571463 0
M  V30 9789 C 930.158 -1.57788 -0.392636 0
M  V30 9790 O 931.342 -1.85974 -0.30754 0
M  V30 9791 C 928.469 -3.38295 -0.165504 0
M  V30 9792 C 927.515 -4.19828 0.751457 0
M  V30 9793 S 928.348 -4.86725 2.23291 0
M  V30 9794 C 929.504 -6.07494 1.50672 0
M  V30 9795 H 929.737 -2.60173 1.43866 0
M  V30 9796 H 927.27 -1.2897 0.84888 0
M  V30 9797 H 929.228 -4.06317 -0.584545 0
M  V30 9798 H 927.889 -2.97468 -1.00855 0
M  V30 9799 H 927.082 -5.03671 0.181986 0
M  V30 9800 H 926.684 -3.57172 1.10923 0
M  V30 9801 H 928.976 -6.72779 0.798377 0
M  V30 9802 H 929.919 -6.68942 2.3221 0
M  V30 9803 H 930.327 -5.55569 1.00016 0
M  V30 9804 N 929.725 -0.817259 -1.34754 0
M  V30 9805 C 930.95 -0.414423 -2.03217 0
M  V30 9806 C 931.375 0.970037 -1.61158 0
M  V30 9807 O 930.733 1.63016 -0.793436 0
M  V30 9808 C 930.781 -0.518087 -3.56859 0
M  V30 9809 O 929.885 0.464314 -4.09778 0
M  V30 9810 H 929.226 -0.171454 -0.641482 0
M  V30 9811 H 931.756 -1.10611 -1.72123 0
M  V30 9812 H 931.766 -0.391779 -4.06115 0
M  V30 9813 H 930.441 -1.52786 -3.86819 0
M  V30 9814 H 929.018 0.297361 -3.71712 0
M  V30 9815 N 931.203 1.46865 -0.571711 0
M  V30 9816 C 932.433 2.06518 -0.0583129 0
M  V30 9817 C 932.841 1.4227 1.24723 0
M  V30 9818 O 932.184 0.518293 1.76237 0
M  V30 9819 C 932.246 3.5898 0.193214 0
M  V30 9820 C 931.91 4.45355 -1.02507 0
M  V30 9821 C 932.907 4.82575 -1.93435 0
M  V30 9822 C 930.592 4.86656 -1.24382 0
M  V30 9823 C 932.586 5.59912 -3.04595 0
M  V30 9824 C 930.273 5.63754 -2.35849 0
M  V30 9825 C 931.271 6.00294 -3.25785 0
M  V30 9826 O 930.959 6.75836 -4.35318 0
M  V30 9827 H 930.691 0.674188 -0.0494584 0
M  V30 9828 H 933.245 1.89644 -0.788934 0
M  V30 9829 H 931.475 3.7412 0.978319 0
M  V30 9830 H 933.164 4.006 0.653769 0
M  V30 9831 H 933.93 4.51256 -1.77745 0
M  V30 9832 H 929.809 4.57672 -0.55292 0
M  V30 9833 H 933.353 5.88351 -3.74818 0
M  V30 9834 H 929.25 5.94487 -2.51506 0
M  V30 9835 H 930.018 6.94247 -4.33547 0
M  V30 9836 N 932.681 0.308908 1.54543 0
M  V30 9837 C 933.909 -0.300418 2.04707 0
M  V30 9838 C 934.324 -1.46915 1.18581 0
M  V30 9839 O 933.681 -1.81251 0.213186 0
M  V30 9840 C 933.732 -0.749038 3.53655 0
M  V30 9841 O 933.453 0.373181 4.36508 0
M  V30 9842 C 934.954 -1.4227 4.1985 0
M  V30 9843 H 932.174 -0.0641267 0.667929 0
M  V30 9844 H 934.718 0.450839 1.99469 0
M  V30 9845 H 932.873 -1.4503 3.59228 0
M  V30 9846 H 933.287 0.0224752 5.24495 0
M  V30 9847 H 934.761 -1.68768 5.25568 0
M  V30 9848 H 935.238 -2.36531 3.70067 0
M  V30 9849 H 935.844 -0.764404 4.18374 0
M  V30 9850 N 934.159 -1.57557 0.0367827 0
M  V30 9851 C 935.384 -1.96828 -0.653707 0
M  V30 9852 C 935.809 -0.913559 -1.64425 0
M  V30 9853 O 935.167 0.124749 -1.8087 0
M  V30 9854 C 935.215 -3.35189 -1.32969 0
M  V30 9855 O 934.319 -3.32095 -2.44513 0
M  V30 9856 H 933.66 -0.64157 -0.171124 0
M  V30 9857 H 936.19 -2.04351 0.100912 0
M  V30 9858 H 936.2 -3.71593 -1.68472 0
M  V30 9859 H 934.875 -4.11496 -0.603654 0
M  V30 9860 H 933.452 -3.07418 -2.11065 0
M  V30 9861 N 935.637 0.236453 -1.55816 0
M  V30 9862 C 936.587 1.29603 -1.87582 0
M  V30 9863 C 937.571 1.42999 -0.737566 0
M  V30 9864 O 938.763 1.46065 -0.999701 0
M  V30 9865 C 935.892 2.64945 -2.1831 0
M  V30 9866 C 934.978 2.55511 -3.38489 0
M  V30 9867 N 935.369 2.15716 -4.57494 0
M  V30 9868 C 933.667 2.86502 -3.41808 0
M  V30 9869 C 934.368 2.17169 -5.39641 0
M  V30 9870 N 933.344 2.5708 -4.78969 0
M  V30 9871 H 937.146 0.979016 -2.77115 0
M  V30 9872 H 934.66 0.445058 -1.56183 0
M  V30 9873 H 936.657 3.41426 -2.39236 0
M  V30 9874 H 935.317 2.97504 -1.30082 0
M  V30 9875 H 936.328 1.87089 -4.82927 0
M  V30 9876 H 933.005 3.23533 -2.6388 0
M  V30 9877 H 934.395 1.88653 -6.44872 0
M  V30 9878 N 937.115 1.49373 0.502552 0
M  V30 9879 C 938.363 1.58467 1.25429 0
M  V30 9880 C 938.684 0.272593 1.93085 0
M  V30 9881 O 937.954 -0.707947 1.82661 0
M  V30 9882 H 936.534 0.583866 0.46595 0
M  V30 9883 H 939.196 1.8599 0.582568 0
M  V30 9884 H 938.292 2.37993 2.01906 0
M  V30 9885 N 938.594 -0.753485 1.38421 0
M  V30 9886 C 939.871 -1.50318 1.25155 0
M  V30 9887 C 940.251 -2.10588 -0.147003 0
M  V30 9888 O 939.599 -1.97071 -1.15651 0
M  V30 9889 C 939.809 -2.56946 2.36177 0
M  V30 9890 C 941.157 -3.23846 2.74607 0
M  V30 9891 O 942.181 -2.67251 2.3549 0
M  V30 9892 O 941.04 -4.2621 3.42064 0
M  V30 9893 H 938.134 -0.666624 0.48943 0
M  V30 9894 H 940.68 -0.788887 1.50249 0
M  V30 9895 H 939.452 -2.1066 3.29754 0
M  V30 9896 H 939.075 -3.35956 2.12648 0
M  V30 9897 N 940.072 -1.23292 -0.981677 0
M  V30 9898 C 941.002 -1.03738 -2.09191 0
M  V30 9899 C 941.983 0.0453041 -1.7004 0
M  V30 9900 O 943.168 -0.119092 -1.93834 0
M  V30 9901 C 940.298 -0.626426 -3.41604 0
M  V30 9902 C 939.252 -1.65631 -3.94652 0
M  V30 9903 C 938.578 -1.10084 -5.23245 0
M  V30 9904 C 939.878 -3.04903 -4.24066 0
M  V30 9905 H 941.572 -1.966 -2.25807 0
M  V30 9906 H 939.118 -0.946656 -1.0851 0
M  V30 9907 H 941.071 -0.476689 -4.18695 0
M  V30 9908 H 939.795 0.337873 -3.24848 0
M  V30 9909 H 938.454 -1.79402 -3.19704 0
M  V30 9910 H 938.102 -0.127562 -5.02838 0
M  V30 9911 H 937.802 -1.78896 -5.59705 0
M  V30 9912 H 939.326 -0.962928 -6.02959 0
M  V30 9913 H 940.74 -2.94441 -4.91912 0
M  V30 9914 H 939.137 -3.70941 -4.71724 0
M  V30 9915 H 940.207 -3.53991 -3.31389 0
M  V30 9916 N 941.55 1.18024 -1.04442 0
M  V30 9917 C 942.48 2.23988 -0.659683 0
M  V30 9918 C 943.461 1.6669 0.338904 0
M  V30 9919 O 944.646 1.92971 0.21817 0
M  V30 9920 C 941.776 3.4729 -0.0257672 0
M  V30 9921 C 940.73 4.17362 -0.948299 0
M  V30 9922 C 940.056 5.34401 -0.17866 0
M  V30 9923 C 941.356 4.70435 -2.26909 0
M  V30 9924 H 943.05 2.56425 -1.54553 0
M  V30 9925 H 940.596 1.23256 -0.744575 0
M  V30 9926 H 942.549 4.20627 0.255131 0
M  V30 9927 H 941.273 3.14098 0.894981 0
M  V30 9928 H 939.932 3.45928 -1.21364 0
M  V30 9929 H 939.58 4.97458 0.744614 0
M  V30 9930 H 939.28 5.8222 -0.793294 0
M  V30 9931 H 940.804 6.10526 0.0951315 0
M  V30 9932 H 942.218 5.35447 -2.04864 0
M  V30 9933 H 940.615 5.28803 -2.83703 0
M  V30 9934 H 941.685 3.87653 -2.91296 0
M  V30 9935 N 943.028 0.824394 1.34319 0
M  V30 9936 C 944.276 0.41235 1.97849 0
M  V30 9937 C 944.597 -1.02841 1.65677 0
M  V30 9938 O 943.867 -1.71421 0.948245 0
M  V30 9939 H 942.447 0.149486 0.73189 0
M  V30 9940 H 945.109 1.05416 1.63931 0
M  V30 9941 H 944.205 0.532557 3.07523 0
M  V30 9942 N 944.506 -1.46559 0.579492 0
M  V30 9943 C 945.731 -2.0729 0.0674595 0
M  V30 9944 C 946.156 -1.4259 -1.22677 0
M  V30 9945 O 945.514 -0.50857 -1.74021 0
M  V30 9946 C 945.562 -3.60492 -0.0882227 0
M  V30 9947 O 944.666 -3.96172 -1.14551 0
M  V30 9948 H 944.007 -0.661159 0.0613536 0
M  V30 9949 H 946.537 -1.88247 0.801519 0
M  V30 9950 H 946.547 -4.06929 -0.295411 0
M  V30 9951 H 945.222 -4.06976 0.856943 0
M  V30 9952 H 943.799 -3.61448 -0.917033 0
M  V30 9953 N 945.984 -0.3171 -1.54377 0
M  V30 9954 C 947.231 0.28741 -2.0045 0
M  V30 9955 C 947.559 1.52648 -1.20535 0
M  V30 9956 O 946.814 1.93775 -0.273831 0
M  V30 9957 C 947.113 0.672917 -3.51008 0
M  V30 9958 C 946.779 -0.466245 -4.48483 0
M  V30 9959 C 945.441 -0.778933 -4.74854 0
M  V30 9960 C 947.793 -1.23176 -5.06436 0
M  V30 9961 C 945.121 -1.85997 -5.56437 0
M  V30 9962 C 947.473 -2.30284 -5.89196 0
M  V30 9963 C 946.137 -2.62141 -6.13872 0
M  V30 9964 H 945.407 0.105171 -0.733499 0
M  V30 9965 H 948.054 -0.439538 -1.86388 0
M  V30 9966 H 946.359 1.48019 -3.62764 0
M  V30 9967 H 948.056 1.15209 -3.84094 0
M  V30 9968 H 944.646 -0.212449 -4.28073 0
M  V30 9969 H 948.83 -1.00344 -4.8605 0
M  V30 9970 H 944.086 -2.11134 -5.73788 0
M  V30 9971 H 948.26 -2.90048 -6.33123 0
M  V30 9972 H 945.887 -3.46037 -6.76877 0
M  V30 9973 N 947.462 1.57535 -0.0451378 0
M  V30 9974 C 948.71 1.92071 0.628743 0
M  V30 9975 C 949.031 0.923635 1.71738 0
M  V30 9976 O 948.301 -0.0324376 1.95873 0
M  V30 9977 H 946.881 0.708995 0.235233 0
M  V30 9978 H 949.543 1.9466 -0.0967177 0
M  V30 9979 H 948.639 2.9314 1.07123 0
M  V30 9980 N 948.94 -0.228186 1.55939 0
M  V30 9981 C 950.188 -0.951668 1.78291 0
M  V30 9982 C 950.509 -1.85132 0.612474 0
M  V30 9983 O 949.779 -1.92356 -0.370942 0
M  V30 9984 H 948.359 -0.354388 0.657585 0
M  V30 9985 H 951.021 -0.241635 1.93396 0
M  V30 9986 H 950.117 -1.56239 2.70177 0
M  V30 9987 N 950.418 -1.49637 -0.494624 0
M  V30 9988 C 951.366 -1.6727 -1.61627 0
M  V30 9989 C 952.36 -0.538587 -1.6061 0
M  V30 9990 O 953.566 -0.718411 -1.65042 0
M  V30 9991 H 949.941 -0.527557 -0.535899 0
M  V30 9992 H 951.912 -2.61405 -1.43909 0
M  V30 9993 C 950.661 -1.7624 -2.99725 0
M  V30 9994 H 949.984 -2.62886 -3.01216 0
M  V30 9995 H 951.424 -1.92611 -3.77726 0
M  V30 9996 C 949.883 -0.508632 -3.33038 0
M  V30 9997 O 950.413 0.362828 -4.00058 0
M  V30 9998 N 948.619 -0.369667 -2.88239 0
M  V30 9999 H 948.166 -1.07984 -2.33875 0
M  V30 10000 H 948.124 0.468112 -3.10896 0
M  V30 10001 N 951.896 0.746133 -1.38819 0
M  V30 10002 C 953.144 1.50247 -1.35167 0
M  V30 10003 C 953.465 1.94921 0.0553531 0
M  V30 10004 O 952.735 1.68187 1.00449 0
M  V30 10005 H 951.315 0.557337 -0.497377 0
M  V30 10006 H 953.977 0.886472 -1.73573 0
M  V30 10007 H 953.073 2.38986 -2.00728 0
M  V30 10008 N 953.375 1.23811 0.975125 0
M  V30 10009 C 954.322 1.02394 2.06843 0
M  V30 10010 C 955.292 -0.060337 1.6599 0
M  V30 10011 O 956.477 0.0928187 1.90574 0
M  V30 10012 C 953.617 0.626882 3.39359 0
M  V30 10013 C 952.73 1.78385 3.9345 0
M  V30 10014 C 951.865 1.33307 5.14201 0
M  V30 10015 C 950.904 2.46045 5.60471 0
M  V30 10016 N 950.041 2.01888 6.72448 0
M  V30 10017 H 954.881 1.95973 2.24496 0
M  V30 10018 H 952.418 0.976206 1.10039 0
M  V30 10019 H 954.376 0.377742 4.15486 0
M  V30 10020 H 953.006 -0.271907 3.21653 0
M  V30 10021 H 952.058 2.14685 3.14029 0
M  V30 10022 H 953.37 2.63122 4.23755 0
M  V30 10023 H 952.524 1.04237 5.97678 0
M  V30 10024 H 951.263 0.456143 4.85562 0
M  V30 10025 H 950.268 2.75884 4.75571 0
M  V30 10026 H 951.493 3.34283 5.91127 0
M  V30 10027 H 949.439 1.16583 6.45558 0
M  V30 10028 H 949.356 2.80182 7.02164 0
M  V30 10029 H 950.624 1.75937 7.59386 0
M  V30 10030 N 954.853 -1.17469 1.05066 0
M  V30 10031 C 956.101 -1.87327 0.758485 0
M  V30 10032 C 956.422 -1.81358 -0.716549 0
M  V30 10033 O 955.692 -1.23868 -1.51768 0
M  V30 10034 H 954.272 -0.693512 0.277579 0
M  V30 10035 H 956.934 -1.4251 1.32954 0
M  V30 10036 H 956.03 -2.93101 1.0723 0
M  V30 10037 N 956.331 -0.831506 -1.3388 0
M  V30 10038 C 957.747 -0.518349 -1.50948 0
M  V30 10039 C 957.947 0.955807 -1.77388 0
M  V30 10040 O 957.003 1.73993 -1.82983 0
M  V30 10041 C 958.316 -1.38531 -2.66889 0
M  V30 10042 C 959.864 -1.38332 -2.80772 0
M  V30 10043 C 960.339 -2.23497 -3.99766 0
M  V30 10044 N 961.83 -2.21167 -4.06988 0
M  V30 10045 C 962.565 -2.83805 -4.98239 0
M  V30 10046 N 962.061 -3.55468 -5.94655 0
M  V30 10047 N 963.854 -2.73314 -4.91178 0
M  V30 10048 H 956.005 -1.78588 -1.14978 0
M  V30 10049 H 958.268 -0.761508 -0.564633 0
M  V30 10050 H 957.974 -2.43255 -2.54007 0
M  V30 10051 H 957.848 -1.05611 -3.62114 0
M  V30 10052 H 960.235 -0.343832 -2.9309 0
M  V30 10053 H 960.316 -1.75256 -1.86331 0
M  V30 10054 H 959.96 -3.27501 -3.88208 0
M  V30 10055 H 959.89 -1.83919 -4.93438 0
M  V30 10056 H 962.381 -1.69046 -3.37982 0
M  V30 10057 H 962.694 -4.00487 -6.60931 0
M  V30 10058 H 961.039 -3.59575 -5.94753 0
M  V30 10059 H 964.23 -2.16897 -4.14817 0
M  V30 10060 H 964.403 -3.22416 -5.62096 0
M  V30 10061 N 957.809 1.4625 -0.587256 0
M  V30 10062 C 959.037 2.06744 -0.08033 0
M  V30 10063 C 959.452 1.43527 1.2266 0
M  V30 10064 O 958.809 0.542168 1.74261 0
M  V30 10065 C 958.86 3.61394 0.0873469 0
M  V30 10066 O 958.581 4.22247 -1.16785 0
M  V30 10067 C 960.082 4.38828 0.628095 0
M  V30 10068 H 957.302 0.668354 -0.0595301 0
M  V30 10069 H 959.846 1.87808 -0.809217 0
M  V30 10070 H 958.001 3.79742 0.766473 0
M  V30 10071 H 958.415 5.15176 -0.984565 0
M  V30 10072 H 959.889 5.47613 0.694583 0
M  V30 10073 H 960.366 4.07188 1.64606 0
M  V30 10074 H 960.972 4.25297 -0.0163115 0
M  V30 10075 N 959.287 0.325282 1.54207 0
M  V30 10076 C 960.234 -0.539889 2.24397 0
M  V30 10077 C 961.204 -1.11028 1.2354 0
M  V30 10078 O 962.389 -1.1503 1.52226 0
M  V30 10079 C 959.529 -1.69405 3.00659 0
M  V30 10080 C 958.642 -1.15273 4.16337 0
M  V30 10081 C 957.777 -2.27272 4.80126 0
M  V30 10082 C 956.816 -1.70397 5.87904 0
M  V30 10083 N 955.953 -2.76065 6.45548 0
M  V30 10084 H 960.793 0.0652318 2.97929 0
M  V30 10085 H 958.33 0.043964 1.47034 0
M  V30 10086 H 960.288 -2.37325 3.43122 0
M  V30 10087 H 958.918 -2.27043 2.29458 0
M  V30 10088 H 957.97 -0.365034 3.78645 0
M  V30 10089 H 959.282 -0.696576 4.93912 0
M  V30 10090 H 958.436 -3.03092 5.25566 0
M  V30 10091 H 957.175 -2.76224 4.01935 0
M  V30 10092 H 956.18 -0.930752 5.41864 0
M  V30 10093 H 957.405 -1.22319 6.67993 0
M  V30 10094 H 955.351 -3.24306 5.7023 0
M  V30 10095 H 955.268 -2.35018 7.18542 0
M  V30 10096 H 956.536 -3.5171 6.95644 0
M  V30 10097 N 960.765 -1.57509 0.0534917 0
M  V30 10098 C 961.675 -2.15152 -0.935249 0
M  V30 10099 C 962.691 -1.10991 -1.34003 0
M  V30 10100 O 963.867 -1.43171 -1.41648 0
M  V30 10101 C 960.932 -2.68699 -2.19093 0
M  V30 10102 C 959.993 -3.87666 -1.84428 0
M  V30 10103 C 959.226 -4.3865 -3.0401 0
M  V30 10104 O 959.449 -3.887 -4.17455 0
M  V30 10105 O 958.383 -5.30209 -2.84889 0
M  V30 10106 H 962.209 -2.99962 -0.475009 0
M  V30 10107 H 959.794 -1.48446 -0.16854 0
M  V30 10108 H 961.676 -3.03098 -2.92762 0
M  V30 10109 H 960.351 -1.86958 -2.6425 0
M  V30 10110 H 959.258 -3.58151 -1.08068 0
M  V30 10111 H 960.591 -4.70643 -1.44068 0
M  V30 10112 N 962.243 0.219913 -1.56058 0
M  V30 10113 C 963.468 0.965073 -1.83579 0
M  V30 10114 C 963.893 1.77092 -0.634024 0
M  V30 10115 O 963.251 1.76434 0.417205 0
M  V30 10116 C 963.299 1.85705 -3.09105 0
M  V30 10117 O 962.403 2.95261 -2.87914 0
M  V30 10118 H 961.744 0.273173 -0.605204 0
M  V30 10119 H 964.274 0.23273 -2.03272 0
M  V30 10120 H 964.284 2.26655 -3.39252 0
M  V30 10121 H 962.959 1.26476 -3.96203 0
M  V30 10122 H 961.536 2.58246 -2.69005 0
M  V30 10123 N 963.721 1.49897 0.486681 0
M  V30 10124 C 964.653 1.63755 1.60365 0
M  V30 10125 C 965.666 0.519614 1.54285 0
M  V30 10126 O 966.855 0.792219 1.59957 0
M  V30 10127 C 963.955 1.59153 2.99205 0
M  V30 10128 C 963.128 2.8672 3.30319 0
M  V30 10129 C 962.187 2.74974 4.48638 0
M  V30 10130 O 961.213 3.48922 4.49714 0
M  V30 10131 N 962.415 1.87479 5.49392 0
M  V30 10132 H 965.18 2.60094 1.48899 0
M  V30 10133 H 962.741 1.47166 0.674825 0
M  V30 10134 H 964.733 1.4893 3.76301 0
M  V30 10135 H 963.303 0.706133 3.0452 0
M  V30 10136 H 962.523 3.11188 2.41983 0
M  V30 10137 H 963.811 3.71262 3.47911 0
M  V30 10138 H 963.209 1.26684 5.51333 0
M  V30 10139 H 961.766 1.83169 6.25534 0
M  V30 10140 N 965.199 -0.738761 1.39212 0
M  V30 10141 C 966.129 -1.86602 1.40364 0
M  V30 10142 C 967.11 -1.67984 0.267495 0
M  V30 10143 O 968.295 -1.88358 0.472765 0
M  V30 10144 C 965.425 -3.24308 1.24265 0
M  V30 10145 C 964.379 -3.57557 2.35239 0
M  V30 10146 C 963.705 -4.94159 2.04233 0
M  V30 10147 C 965.005 -3.60914 3.77543 0
M  V30 10148 H 966.699 -1.85896 2.34698 0
M  V30 10149 H 964.245 -0.892959 1.1297 0
M  V30 10150 H 966.198 -4.02838 1.23692 0
M  V30 10151 H 964.922 -3.25531 0.263974 0
M  V30 10152 H 963.581 -2.81354 2.35022 0
M  V30 10153 H 963.229 -4.91959 1.04813 0
M  V30 10154 H 962.929 -5.17373 2.78567 0
M  V30 10155 H 964.453 -5.7505 2.05303 0
M  V30 10156 H 965.867 -4.29528 3.79709 0
M  V30 10157 H 964.264 -3.95644 4.51205 0
M  V30 10158 H 965.334 -2.60803 4.08791 0
M  V30 10159 N 966.677 -1.24326 -0.968545 0
M  V30 10160 C 968.093 -1.00847 -1.23701 0
M  V30 10161 C 968.293 0.283235 -1.99499 0
M  V30 10162 O 967.349 0.999607 -2.31871 0
M  V30 10163 C 968.662 -2.22295 -2.02498 0
M  V30 10164 C 970.21 -2.26911 -2.15593 0
M  V30 10165 C 970.685 -3.47978 -2.97784 0
M  V30 10166 N 972.176 -3.48289 -3.05367 0
M  V30 10167 C 972.911 -4.38625 -3.69318 0
M  V30 10168 N 972.407 -5.39213 -4.34995 0
M  V30 10169 N 974.2 -4.26339 -3.66322 0
M  V30 10170 H 966.351 -2.07335 -0.461087 0
M  V30 10171 H 968.614 -0.909805 -0.26638 0
M  V30 10172 H 968.32 -3.161 -1.54188 0
M  V30 10173 H 968.194 -2.24344 -3.03232 0
M  V30 10174 H 970.581 -1.33639 -2.63106 0
M  V30 10175 H 970.662 -2.28888 -1.14209 0
M  V30 10176 H 970.306 -4.41564 -2.50965 0
M  V30 10177 H 970.236 -3.43244 -3.99364 0
M  V30 10178 H 972.727 -2.75517 -2.58648 0
M  V30 10179 H 973.04 -6.04378 -4.81608 0
M  V30 10180 H 971.385 -5.43101 -4.33667 0
M  V30 10181 H 974.576 -3.46991 -3.14189 0
M  V30 10182 H 974.749 -4.9694 -4.15878 0
M  V30 10183 N 968.156 1.1691 -1.05688 0
M  V30 10184 C 969.433 1.83266 -0.683601 0
M  V30 10185 C 969.813 1.93858 0.835602 0
M  V30 10186 O 969.161 1.47696 1.7435 0
M  V30 10187 C 969.371 3.20625 -1.37842 0
M  V30 10188 C 970.719 3.96473 -1.51967 0
M  V30 10189 O 971.743 3.30122 -1.33783 0
M  V30 10190 O 970.602 5.15393 -1.81749 0
M  V30 10191 H 967.696 0.791028 -0.241254 0
M  V30 10192 H 970.242 1.24165 -1.15677 0
M  V30 10193 H 969.014 3.07914 -2.41463 0
M  V30 10194 H 968.637 3.87398 -0.894921 0
M  V30 10195 N 969.634 0.838594 1.33437 0
M  V30 10196 C 971.05 0.526347 1.50671 0
M  V30 10197 C 971.25 -0.946387 1.77893 0
M  V30 10198 O 970.306 -1.7302 1.83903 0
M  V30 10199 C 971.619 1.39945 2.6615 0
M  V30 10200 C 973.167 1.3982 2.80035 0
M  V30 10201 C 973.642 2.25614 3.98576 0
M  V30 10202 N 975.133 2.23322 4.0581 0
M  V30 10203 C 975.868 2.86443 4.96727 0
M  V30 10204 N 975.364 3.58616 5.92762 0
M  V30 10205 N 977.157 2.75915 4.89722 0
M  V30 10206 H 969.308 1.79195 1.1403 0
M  V30 10207 H 971.571 0.764491 0.560586 0
M  V30 10208 H 971.277 2.44599 2.52714 0
M  V30 10209 H 971.151 1.07529 3.61548 0
M  V30 10210 H 973.538 0.35937 2.92904 0
M  V30 10211 H 973.619 1.76241 1.85399 0
M  V30 10212 H 973.263 3.29555 3.86466 0
M  V30 10213 H 973.193 1.86533 4.92456 0
M  V30 10214 H 975.684 1.70836 3.37081 0
M  V30 10215 H 975.997 4.03987 6.58798 0
M  V30 10216 H 974.342 3.62724 5.92838 0
M  V30 10217 H 977.533 2.19094 4.13661 0
M  V30 10218 H 977.706 3.25393 5.60378 0
M  V30 10219 N 971.112 -1.45937 0.595003 0
M  V30 10220 C 972.06 -2.32155 -0.143798 0
M  V30 10221 C 973.054 -1.45221 -0.872198 0
M  V30 10222 O 974.26 -1.61777 -0.789191 0
M  V30 10223 H 970.635 -0.749165 -0.0652377 0
M  V30 10224 H 972.606 -2.92264 0.602005 0
M  V30 10225 C 971.355 -3.28615 -1.13611 0
M  V30 10226 H 970.678 -3.95496 -0.585044 0
M  V30 10227 H 972.118 -3.91699 -1.62321 0
M  V30 10228 C 970.577 -2.54863 -2.20333 0
M  V30 10229 O 971.107 -2.32071 -3.27881 0
M  V30 10230 N 969.313 -2.15213 -1.95274 0
M  V30 10231 H 968.86 -2.33949 -1.07822 0
M  V30 10232 H 968.818 -1.66188 -2.66888 0
M  V30 10233 N 972.59 -0.333456 -1.54032 0
M  V30 10234 C 974.006 0.0188405 -1.59589 0
M  V30 10235 C 974.206 1.49615 -1.34972 0
M  V30 10236 O 973.262 2.2535 -1.13901 0
M  V30 10237 C 974.575 -0.408273 -2.97915 0
M  V30 10238 C 976.123 -0.359763 -3.10926 0
M  V30 10239 C 976.598 -0.76219 -4.51613 0
M  V30 10240 N 978.089 -0.715981 -4.57633 0
M  V30 10241 C 978.824 -0.999436 -5.64623 0
M  V30 10242 N 978.32 -1.35053 -6.79509 0
M  V30 10243 N 980.113 -0.924343 -5.54448 0
M  V30 10244 H 972.264 -1.29587 -1.68289 0
M  V30 10245 H 974.527 -0.527584 -0.787629 0
M  V30 10246 H 974.233 -1.43793 -3.20962 0
M  V30 10247 H 974.107 0.221685 -3.76548 0
M  V30 10248 H 976.494 0.660703 -2.87609 0
M  V30 10249 H 976.575 -1.02479 -2.34375 0
M  V30 10250 H 976.219 -1.78062 -4.75664 0
M  V30 10251 H 976.149 -0.0747478 -5.26547 0
M  V30 10252 H 978.64 -0.456875 -3.75128 0
M  V30 10253 H 978.953 -1.55194 -7.57057 0
M  V30 10254 H 977.298 -1.38889 -6.80981 0
M  V30 10255 H 980.489 -0.649469 -4.63573 0
M  V30 10256 H 980.662 -1.1486 -6.37739 0
M  V30 10257 N 974.068 1.57479 -0.061844 0
M  V30 10258 C 975.031 2.1104 0.894127 0
M  V30 10259 C 976.031 1.03227 1.23292 0
M  V30 10260 O 977.221 1.29256 1.16784 0
M  V30 10261 C 974.353 2.6035 2.20069 0
M  V30 10262 H 975.546 2.96807 0.429619 0
M  V30 10263 H 973.099 1.55181 0.18672 0
M  V30 10264 H 973.834 1.78008 2.71079 0
M  V30 10265 H 973.619 3.39146 1.9678 0
M  V30 10266 H 975.109 3.019 2.88525 0
M  V30 10267 N 975.546 -0.211634 1.56173 0
M  V30 10268 C 976.476 -1.26533 1.96244 0
M  V30 10269 C 977.457 -1.48362 0.832028 0
M  V30 10270 O 978.642 -1.60378 1.0951 0
M  V30 10271 C 975.772 -2.61307 2.2877 0
M  V30 10272 C 974.726 -2.54119 3.44395 0
M  V30 10273 C 974.052 -3.93014 3.62552 0
M  V30 10274 C 975.352 -2.08046 4.79076 0
M  V30 10275 H 977.046 -0.932407 2.84511 0
M  V30 10276 H 974.592 -0.447084 1.36884 0
M  V30 10277 H 976.545 -3.35188 2.55396 0
M  V30 10278 H 975.269 -2.96307 1.37367 0
M  V30 10279 H 973.928 -1.82694 3.17834 0
M  V30 10280 H 973.576 -4.25338 2.68508 0
M  V30 10281 H 973.276 -3.89083 4.40327 0
M  V30 10282 H 974.8 -4.68542 3.91537 0
M  V30 10283 H 976.214 -2.71676 5.04842 0
M  V30 10284 H 974.611 -2.15154 5.60204 0
M  V30 10285 H 975.681 -1.03306 4.73768 0
M  V30 10286 N 977.024 -1.50153 -0.478725 0
M  V30 10287 C 978.44 -1.3741 -0.811833 0
M  V30 10288 C 978.64 -0.424303 -1.96982 0
M  V30 10289 O 977.696 0.13588 -2.52134 0
M  V30 10290 C 979.009 -2.78616 -1.13108 0
M  V30 10291 C 980.557 -2.87477 -1.23798 0
M  V30 10292 C 981.032 -4.295 -1.5904 0
M  V30 10293 N 982.523 -4.32415 -1.66047 0
M  V30 10294 C 983.258 -5.39295 -1.94805 0
M  V30 10295 N 982.754 -6.56392 -2.21635 0
M  V30 10296 N 984.547 -5.26731 -1.96243 0
M  V30 10297 H 976.698 -2.10486 0.284531 0
M  V30 10298 H 978.961 -0.945786 0.0647585 0
M  V30 10299 H 978.667 -3.49921 -0.35334 0
M  V30 10300 H 978.541 -3.15382 -2.06915 0
M  V30 10301 H 980.928 -2.16396 -2.00641 0
M  V30 10302 H 981.009 -2.54264 -0.279888 0
M  V30 10303 H 980.653 -5.01115 -0.827404 0
M  V30 10304 H 980.583 -4.60194 -2.55987 0
M  V30 10305 H 983.074 -3.47975 -1.47383 0
M  V30 10306 H 983.387 -7.33658 -2.4283 0
M  V30 10307 H 981.732 -6.59579 -2.19043 0
M  V30 10308 H 984.923 -4.34249 -1.74773 0
M  V30 10309 H 985.096 -6.10115 -2.1832 0
M  V30 10310 N 978.502 0.731368 -1.39602 0
M  V30 10311 C 979.742 1.5036 -1.3846 0
M  V30 10312 C 980.106 1.91991 0.018784 0
M  V30 10313 O 981.307 2.68351 0.155236 0
M  V30 10314 C 979.578 2.70755 -2.33295 0
M  V30 10315 S 981.137 3.6036 -2.50372 0
M  V30 10316 H 977.955 0.514271 -0.490964 0
M  V30 10317 H 980.557 0.856654 -1.75732 0
M  V30 10318 H 979.261 2.38316 -3.34116 0
M  V30 10319 H 978.792 3.40376 -1.97251 0
M  V30 10320 H 980.807 4.64529 -1.74435 0
M  V30 10321 N 979.98 1.24838 0.961938 0
M  V30 10322 C 981.205 1.11967 1.7458 0
M  V30 10323 C 981.63 -0.323287 1.85301 0
M  V30 10324 O 980.988 -1.23412 1.32812 0
M  V30 10325 C 981.036 1.77066 3.14134 0
M  V30 10326 O 980.14 1.04534 3.98932 0
M  V30 10327 H 979.481 0.391338 0.536424 0
M  V30 10328 H 982.011 1.65259 1.20626 0
M  V30 10329 H 982.021 1.83056 3.64629 0
M  V30 10330 H 980.696 2.82052 3.05646 0
M  V30 10331 H 979.273 1.06372 3.57407 0
M  V30 10332 N 981.458 -1.16348 1.06306 0
M  V30 10333 C 982.39 -2.20316 0.631929 0
M  V30 10334 C 983.403 -1.59819 -0.310133 0
M  V30 10335 O 984.592 -1.78213 -0.101103 0
M  V30 10336 C 981.692 -3.3877 -0.0937645 0
M  V30 10337 C 980.865 -4.28826 0.861816 0
M  V30 10338 C 979.924 -5.25908 0.175346 0
M  V30 10339 O 978.95 -5.63363 0.813039 0
M  V30 10340 N 980.152 -5.70307 -1.08305 0
M  V30 10341 H 982.917 -2.57925 1.52626 0
M  V30 10342 H 980.478 -1.31358 0.946392 0
M  V30 10343 H 982.47 -4.00759 -0.563412 0
M  V30 10344 H 981.04 -2.99666 -0.889904 0
M  V30 10345 H 980.26 -3.64098 1.51083 0
M  V30 10346 H 981.548 -4.85875 1.51007 0
M  V30 10347 H 980.946 -5.4197 -1.62127 0
M  V30 10348 H 979.503 -6.34387 -1.49656 0
M  V30 10349 N 982.937 -0.845659 -1.3299 0
M  V30 10350 C 984.353 -0.53433 -1.5039 0
M  V30 10351 C 984.553 0.936939 -1.78392 0
M  V30 10352 O 983.609 1.72043 -1.84818 0
M  V30 10353 C 984.922 -1.41354 -2.65404 0
M  V30 10354 C 986.47 -1.41303 -2.79289 0
M  V30 10355 C 986.945 -2.27724 -3.97373 0
M  V30 10356 N 988.436 -2.25471 -4.0462 0
M  V30 10357 C 989.171 -2.89074 -4.95201 0
M  V30 10358 N 988.667 -3.61755 -5.90851 0
M  V30 10359 N 990.46 -2.78508 -4.88251 0
M  V30 10360 H 982.611 -1.79798 -1.13078 0
M  V30 10361 H 984.874 -0.767454 -0.556524 0
M  V30 10362 H 984.58 -2.45936 -2.51413 0
M  V30 10363 H 984.454 -1.09445 -3.60973 0
M  V30 10364 H 986.841 -0.374899 -2.92709 0
M  V30 10365 H 986.922 -1.77222 -1.84461 0
M  V30 10366 H 986.566 -3.316 -3.84713 0
M  V30 10367 H 986.496 -1.89142 -4.9146 0
M  V30 10368 H 988.987 -1.72622 -3.3617 0
M  V30 10369 H 989.3 -4.07475 -6.56646 0
M  V30 10370 H 987.645 -3.65863 -5.90906 0
M  V30 10371 H 990.836 -2.21285 -4.12493 0
M  V30 10372 H 991.009 -3.2836 -5.58645 0
M  V30 10373 N 984.415 1.45619 -0.602734 0
M  V30 10374 C 985.663 2.01873 -0.095844 0
M  V30 10375 C 985.984 1.47427 1.27633 0
M  V30 10376 O 985.254 0.666652 1.84208 0
M  V30 10377 H 983.834 0.746295 -0.0324408 0
M  V30 10378 H 986.496 1.78478 -0.783037 0
M  V30 10379 H 985.592 3.12072 -0.0419507 0
M  V30 10380 N 985.893 0.34162 1.53853 0
M  V30 10381 C 986.823 -0.508431 2.27897 0
M  V30 10382 C 987.804 -1.10425 1.29384 0
M  V30 10383 O 988.989 -1.126 1.58224 0
M  V30 10384 C 986.119 -1.66048 3.05034 0
M  V30 10385 C 985.073 -1.19309 4.11035 0
M  V30 10386 C 984.399 -2.4335 4.76114 0
M  V30 10387 C 985.699 -0.294952 5.21467 0
M  V30 10388 H 987.393 0.109251 2.99201 0
M  V30 10389 H 984.939 0.0539847 1.43899 0
M  V30 10390 H 986.892 -2.26158 3.5557 0
M  V30 10391 H 985.616 -2.30503 2.31379 0
M  V30 10392 H 984.275 -0.614809 3.61408 0
M  V30 10393 H 983.923 -3.06208 3.99056 0
M  V30 10394 H 983.623 -2.1276 5.47729 0
M  V30 10395 H 985.147 -3.0419 5.29434 0
M  V30 10396 H 986.561 -0.80285 5.67651 0
M  V30 10397 H 984.958 -0.0810221 6.00045 0
M  V30 10398 H 986.028 0.669433 4.80257 0
M  V30 10399 N 987.371 -1.57444 0.0701946 0
M  V30 10400 C 988.782 -1.80875 -0.462709 0
M  V30 10401 C 989.133 -0.983975 -1.69742 0
M  V30 10402 O 988.258 -0.206027 -2.15417 0
M  V30 10403 C 988.853 -3.28062 -0.84623 0
M  V30 10404 C 987.412 -3.52345 -1.32401 0
M  V30 10405 C 986.559 -2.7558 -0.308399 0
M  V30 10406 H 989.51 -1.55917 0.295907 0
M  V30 10407 H 989.531 -3.40023 -1.70776 0
M  V30 10408 H 989.043 -3.88064 0.0526033 0
M  V30 10409 H 987.144 -2.97645 -2.24139 0
M  V30 10410 H 987.257 -4.6104 -1.30304 0
M  V30 10411 H 985.621 -2.4229 -0.785337 0
M  V30 10412 H 986.404 -3.38319 0.582679 0
M  V30 10413 N 988.849 0.203349 -1.56283 0
M  V30 10414 C 990.098 0.92315 -1.79334 0
M  V30 10415 C 990.411 1.84765 -0.641977 0
M  V30 10416 O 991.617 2.60745 -0.756584 0
M  V30 10417 C 990.073 1.69184 -3.17655 0
M  V30 10418 C 989.681 0.812581 -4.40569 0
M  V30 10419 C 991.425 2.40177 -3.50022 0
M  V30 10420 C 989.332 1.57967 -5.69913 0
M  V30 10421 H 988.262 0.348442 -0.668659 0
M  V30 10422 H 990.913 0.1766 -1.82648 0
M  V30 10423 H 989.295 2.48197 -3.08568 0
M  V30 10424 H 990.469 0.0616956 -4.60759 0
M  V30 10425 H 988.784 0.21389 -4.1585 0
M  V30 10426 H 991.381 2.98103 -4.4389 0
M  V30 10427 H 991.724 3.13961 -2.73376 0
M  V30 10428 H 992.257 1.68138 -3.6052 0
M  V30 10429 H 988.996 0.884767 -6.49501 0
M  V30 10430 H 988.516 2.3047 -5.53754 0
M  V30 10431 H 990.195 2.13562 -6.10737 0
M  V30 10432 N 990.327 1.50405 0.470755 0
M  V30 10433 C 991.555 1.65168 1.24608 0
M  V30 10434 C 991.97 0.335153 1.85801 0
M  V30 10435 O 991.327 -0.682919 1.69241 0
M  V30 10436 C 991.378 2.74305 2.35455 0
M  V30 10437 O 991.099 4.00854 1.76771 0
M  V30 10438 C 992.6 3.00044 3.26326 0
M  V30 10439 H 989.82 0.555186 0.376842 0
M  V30 10440 H 992.364 1.9663 0.56187 0
M  V30 10441 H 990.519 2.45536 2.99651 0
M  V30 10442 H 990.933 4.61211 2.49769 0
M  V30 10443 H 992.407 3.8007 4.00313 0
M  V30 10444 H 992.884 2.11128 3.85126 0
M  V30 10445 H 993.49 3.30345 2.67866 0
M  V30 10446 N 991.805 -0.723954 1.39988 0
M  V30 10447 C 992.715 -1.86829 1.41887 0
M  V30 10448 C 993.731 -1.71173 0.312401 0
M  V30 10449 O 994.907 -1.93583 0.555651 0
M  V30 10450 C 991.972 -3.22541 1.27154 0
M  V30 10451 C 991.033 -3.50512 2.47871 0
M  V30 10452 C 990.266 -4.79749 2.33831 0
M  V30 10453 O 990.489 -5.54251 1.34765 0
M  V30 10454 O 989.423 -5.07868 3.23039 0
M  V30 10455 H 993.249 -1.88183 2.38371 0
M  V30 10456 H 990.834 -0.873259 1.21221 0
M  V30 10457 H 992.716 -4.0362 1.21114 0
M  V30 10458 H 991.391 -3.21933 0.337715 0
M  V30 10459 H 990.298 -2.69475 2.59488 0
M  V30 10460 H 991.631 -3.55909 3.39985 0
M  V30 10461 N 993.283 -1.25346 -0.955304 0
M  V30 10462 C 994.215 -1.0146 -2.0552 0
M  V30 10463 C 995.228 0.0202256 -1.62787 0
M  V30 10464 O 996.417 -0.218251 -1.77161 0
M  V30 10465 C 993.517 -0.511727 -3.35014 0
M  V30 10466 C 992.69 -1.61256 -4.0659 0
M  V30 10467 C 991.749 -1.11017 -5.14356 0
M  V30 10468 O 990.775 -1.80443 -5.39842 0
M  V30 10469 N 991.977 0.0489001 -5.80479 0
M  V30 10470 H 994.742 -1.96166 -2.26581 0
M  V30 10471 H 992.303 -1.16543 -1.12381 0
M  V30 10472 H 994.295 -0.160123 -4.04383 0
M  V30 10473 H 992.865 0.341377 -3.1073 0
M  V30 10474 H 992.085 -2.13577 -3.31328 0
M  V30 10475 H 993.373 -2.35213 -4.51168 0
M  V30 10476 H 992.771 0.629021 -5.62192 0
M  V30 10477 H 991.328 0.341542 -6.50905 0
M  V30 10478 N 994.761 1.15782 -1.06922 0
M  V30 10479 C 996.172 1.68062 -0.813144 0
M  V30 10480 C 996.523 1.84681 0.662374 0
M  V30 10481 O 995.648 1.54696 1.51321 0
M  V30 10482 C 996.243 3.05273 -1.46949 0
M  V30 10483 C 994.802 3.54647 -1.26104 0
M  V30 10484 C 993.949 2.30477 -1.54194 0
M  V30 10485 H 996.9 1.00056 -1.23185 0
M  V30 10486 H 996.921 3.69986 -0.888308 0
M  V30 10487 H 996.433 2.93145 -2.54337 0
M  V30 10488 H 994.534 3.72024 -0.20718 0
M  V30 10489 H 994.647 4.36354 -1.97819 0
M  V30 10490 H 993.011 2.35803 -0.96276 0
M  V30 10491 H 993.794 2.2094 -2.62755 0
M  V30 10492 N 996.239 0.8527 1.3254 0
M  V30 10493 C 997.467 0.469044 2.01513 0
M  V30 10494 C 997.882 -0.933701 1.64096 0
M  V30 10495 O 997.239 -1.60898 0.861283 0
M  V30 10496 C 997.29 0.596228 3.56549 0
M  V30 10497 O 997.011 1.94371 3.92621 0
M  V30 10498 C 998.512 0.211324 4.42796 0
M  V30 10499 H 995.732 0.184589 0.645111 0
M  V30 10500 H 998.276 1.1491 1.69163 0
M  V30 10501 H 996.431 -0.0360712 3.87383 0
M  V30 10502 H 996.845 1.93909 4.87339 0
M  V30 10503 H 998.319 0.351324 5.50881 0
M  V30 10504 H 998.796 -0.848055 4.30935 0
M  V30 10505 H 999.402 0.818617 4.17347 0
M  V30 10506 N 997.718 -1.45297 0.610449 0
M  V30 10507 C 998.943 -2.07101 0.111414 0
M  V30 10508 C 999.368 -1.45161 -1.19625 0
M  V30 10509 O 998.726 -0.545368 -1.72903 0
M  V30 10510 C 998.774 -3.60598 -0.0117372 0
M  V30 10511 O 997.878 -3.98512 -1.06122 0
M  V30 10512 H 997.219 -0.659709 0.075364 0
M  V30 10513 H 999.749 -1.86504 0.841269 0
M  V30 10514 H 999.759 -4.07464 -0.209028 0
M  V30 10515 H 998.434 -4.05067 0.943076 0
M  V30 10516 H 997.011 -3.63312 -0.840158 0
M  V30 10517 N 999.196 -0.349774 -1.5367 0
M  V30 10518 C 1000.14 0.504121 -2.25227 0
M  V30 10519 C 1001.11 1.09048 -1.2529 0
M  V30 10520 O 1002.3 1.12594 -1.54037 0
M  V30 10521 C 999.438 1.64601 -3.03316 0
M  V30 10522 C 998.551 1.08635 -4.18118 0
M  V30 10523 C 997.686 2.19605 -4.83681 0
M  V30 10524 C 996.725 1.61023 -5.90541 0
M  V30 10525 N 995.862 2.6576 -6.49858 0
M  V30 10526 H 1000.7 -0.112621 -2.97787 0
M  V30 10527 H 998.239 -0.0673503 -1.46946 0
M  V30 10528 H 1000.2 2.31836 -3.46854 0
M  V30 10529 H 998.827 2.23364 -2.33041 0
M  V30 10530 H 997.879 0.304748 -3.79177 0
M  V30 10531 H 999.191 0.617911 -4.94958 0
M  V30 10532 H 998.345 2.94693 -5.30322 0
M  V30 10533 H 997.084 2.69795 -4.06278 0
M  V30 10534 H 996.089 0.844428 -5.43277 0
M  V30 10535 H 997.314 1.11677 -6.69855 0
M  V30 10536 H 995.26 3.15193 -5.75317 0
M  V30 10537 H 995.177 2.23557 -7.2219 0
M  V30 10538 H 996.445 3.40598 -7.01151 0
M  V30 10539 N 1000.67 1.57404 -0.0785433 0
M  V30 10540 C 1001.92 1.93744 0.589024 0
M  V30 10541 C 1002.25 0.959087 1.69209 0
M  V30 10542 O 1001.5 -0.0241604 1.95685 0
M  V30 10543 C 1001.8 3.36684 1.1991 0
M  V30 10544 C 1001.47 4.50356 0.221493 0
M  V30 10545 C 1000.13 4.81177 -0.0474347 0
M  V30 10546 C 1002.48 5.1928 -0.446941 0
M  V30 10547 C 999.811 5.78257 -0.99177 0
M  V30 10548 C 1002.16 6.17372 -1.37964 0
M  V30 10549 C 1000.83 6.46607 -1.65697 0
M  V30 10550 H 1000.1 0.70896 0.215539 0
M  V30 10551 H 1002.74 1.90905 -0.150856 0
M  V30 10552 H 1001.05 3.36022 2.01486 0
M  V30 10553 H 1002.75 3.62095 1.72303 0
M  V30 10554 H 999.336 4.26322 0.441284 0
M  V30 10555 H 1003.52 4.95658 -0.252298 0
M  V30 10556 H 998.776 5.9923 -1.21381 0
M  V30 10557 H 1002.95 6.6988 -1.9035 0
M  V30 10558 H 1000.58 7.21643 -2.39031 0
M  V30 10559 N 1002.15 -0.195058 1.56388 0
M  V30 10560 C 1003.57 -0.545894 1.49974 0
M  V30 10561 C 1003.77 -1.85851 0.778568 0
M  V30 10562 O 1002.82 -2.50346 0.329105 0
M  V30 10563 C 1004.14 -0.600599 2.94641 0
M  V30 10564 C 1005.68 -0.689429 3.05313 0
M  V30 10565 C 1006.16 -0.775243 4.51391 0
M  V30 10566 N 1007.65 -0.838769 4.55542 0
M  V30 10567 C 1008.39 -0.925337 5.65884 0
M  V30 10568 N 1007.88 -0.974204 6.85916 0
M  V30 10569 N 1009.67 -0.962528 5.53798 0
M  V30 10570 H 1001.83 0.66595 2.0169 0
M  V30 10571 H 1004.09 0.237215 0.917842 0
M  V30 10572 H 1003.79 0.29478 3.50462 0
M  V30 10573 H 1003.67 -1.45528 3.47996 0
M  V30 10574 H 1006.06 -1.57524 2.4954 0
M  V30 10575 H 1006.14 0.191451 2.55083 0
M  V30 10576 H 1005.78 0.106215 5.07789 0
M  V30 10577 H 1005.71 -1.67193 4.99354 0
M  V30 10578 H 1008.2 -0.810249 3.69112 0
M  V30 10579 H 1008.51 -1.04077 7.6576 0
M  V30 10580 H 1006.86 -0.942881 6.88574 0
M  V30 10581 H 1010.05 -0.921188 4.58946 0
M  V30 10582 H 1010.22 -1.02653 6.39817 0
M  V30 10583 N 1003.63 -1.50653 -0.462772 0
M  V30 10584 C 1004.54 -1.72923 -1.58539 0
M  V30 10585 C 1005.56 -0.612577 -1.6286 0
M  V30 10586 O 1006.73 -0.891885 -1.80575 0
M  V30 10587 C 1003.8 -1.82623 -2.94703 0
M  V30 10588 C 1002.86 -3.06392 -3.00704 0
M  V30 10589 C 1002.09 -3.15618 -4.30373 0
M  V30 10590 O 1002.31 -2.31423 -5.21344 0
M  V30 10591 O 1001.25 -4.0841 -4.42136 0
M  V30 10592 H 1005.07 -2.68103 -1.42669 0
M  V30 10593 H 1002.66 -1.34848 -0.643144 0
M  V30 10594 H 1004.54 -1.91134 -3.7556 0
M  V30 10595 H 1003.22 -0.906275 -3.10754 0
M  V30 10596 H 1002.12 -3.03375 -2.18894 0
M  V30 10597 H 1003.46 -3.97992 -2.89591 0
M  V30 10598 N 1005.11 0.71652 -1.4037 0
M  V30 10599 C 1006.36 1.47193 -1.37903 0
M  V30 10600 C 1006.67 1.95593 0.0159939 0
M  V30 10601 O 1007.88 2.71009 0.163282 0
M  V30 10602 C 1006.33 2.6606 -2.42363 0
M  V30 10603 C 1005.94 2.24533 -3.87671 0
M  V30 10604 C 1007.68 3.438 -2.49001 0
M  V30 10605 C 1005.59 3.40234 -4.8373 0
M  V30 10606 H 1004.52 0.552811 -0.512753 0
M  V30 10607 H 1007.17 0.779894 -1.66102 0
M  V30 10608 H 1005.55 3.37429 -2.07262 0
M  V30 10609 H 1006.73 1.6059 -4.31911 0
M  V30 10610 H 1005.04 1.59839 -3.845 0
M  V30 10611 H 1007.64 4.29893 -3.17956 0
M  V30 10612 H 1007.98 3.8755 -1.52023 0
M  V30 10613 H 1008.52 2.79474 -2.83088 0
M  V30 10614 H 1005.26 3.01517 -5.82037 0
M  V30 10615 H 1004.78 4.03095 -4.44156 0
M  V30 10616 H 1006.45 4.06312 -5.03507 0
M  V30 10617 N 1006.59 1.25851 0.948643 0
M  V30 10618 C 1007.5 1.08516 2.07994 0
M  V30 10619 C 1008.51 0.0206696 1.73988 0
M  V30 10620 O 1009.69 0.222854 2.00163 0
M  V30 10621 C 1006.75 0.712145 3.39307 0
M  V30 10622 C 1005.81 1.85523 3.87143 0
M  V30 10623 C 1005.05 1.49992 5.1219 0
M  V30 10624 O 1005.27 0.398268 5.69008 0
M  V30 10625 O 1004.2 2.33215 5.54882 0
M  V30 10626 H 1008.03 2.03405 2.25522 0
M  V30 10627 H 1005.62 1.04844 1.06433 0
M  V30 10628 H 1007.5 0.516512 4.18223 0
M  V30 10629 H 1006.17 -0.207416 3.23035 0
M  V30 10630 H 1005.08 2.10578 3.09205 0
M  V30 10631 H 1006.41 2.75425 4.07924 0
M  V30 10632 N 1008.06 -1.15214 1.07534 0
M  V30 10633 C 1008.97 -2.23636 0.708818 0
M  V30 10634 C 1009.99 -1.7172 -0.280759 0
M  V30 10635 O 1011.17 -2.01 -0.126927 0
M  V30 10636 C 1008.23 -3.46512 0.114167 0
M  V30 10637 C 1007.29 -4.13409 1.15722 0
M  V30 10638 C 1006.53 -5.30419 0.59085 0
M  V30 10639 O 1006.75 -5.67314 -0.592512 0
M  V30 10640 O 1005.68 -5.86871 1.33663 0
M  V30 10641 H 1009.51 -2.57322 1.61305 0
M  V30 10642 H 1007.09 -1.22972 0.848422 0
M  V30 10643 H 1008.98 -4.20851 -0.215091 0
M  V30 10644 H 1007.65 -3.1457 -0.763356 0
M  V30 10645 H 1006.56 -3.40984 1.53886 0
M  V30 10646 H 1007.89 -4.49435 2.00671 0
M  V30 10647 N 1009.54 -0.859717 -1.32086 0
M  V30 10648 C 1010.49 -0.296897 -2.30697 0
M  V30 10649 C 1011.48 0.582473 -1.59071 0
M  V30 10650 O 1012.69 0.469713 -1.73763 0
M  V30 10651 H 1009.07 -0.0773132 -0.748015 0
M  V30 10652 H 1011.04 -1.14273 -2.75652 0
M  V30 10653 C 1009.79 0.495546 -3.44151 0
M  V30 10654 H 1009.11 -0.171829 -3.99431 0
M  V30 10655 H 1010.55 0.854854 -4.15293 0
M  V30 10656 C 1009.01 1.68278 -2.91863 0
M  V30 10657 O 1009.54 2.78194 -2.89777 0
M  V30 10658 N 1007.74 1.51151 -2.48197 0
M  V30 10659 H 1007.29 0.617345 -2.50093 0
M  V30 10660 H 1007.25 2.3073 -2.13567 0
M  V30 10661 N 1011.02 1.44971 -0.618145 0
M  V30 10662 C 1011.93 2.34403 0.0960457 0
M  V30 10663 C 1012.95 1.51862 0.849355 0
M  V30 10664 O 1014.12 1.84632 0.804557 0
M  V30 10665 C 1011.19 3.29646 1.07397 0
M  V30 10666 C 1010.25 4.28095 0.321466 0
M  V30 10667 C 1009.48 5.18787 1.25281 0
M  V30 10668 O 1009.7 5.1313 2.49106 0
M  V30 10669 O 1008.64 5.97282 0.744156 0
M  V30 10670 H 1012.46 2.96898 -0.639176 0
M  V30 10671 H 1010.05 1.44529 -0.37837 0
M  V30 10672 H 1011.93 3.88307 1.63694 0
M  V30 10673 H 1010.61 2.69702 1.79004 0
M  V30 10674 H 1009.51 3.73019 -0.284223 0
M  V30 10675 H 1010.85 4.90923 -0.354315 0
M  V30 10676 N 1012.5 0.357919 1.53482 0
M  V30 10677 C 1013.78 -0.290164 1.93436 0
M  V30 10678 C 1014.16 -1.67039 1.29079 0
M  V30 10679 O 1013.5 -2.24085 0.447017 0
M  V30 10680 C 1013.71 -0.348055 3.4726 0
M  V30 10681 C 1015.06 -0.59206 4.20452 0
M  V30 10682 O 1016.09 -0.429581 3.536 0
M  V30 10683 O 1014.94 -0.907855 5.38907 0
M  V30 10684 H 1012.04 -0.172312 0.80885 0
M  V30 10685 H 1014.58 0.410144 1.64669 0
M  V30 10686 H 1013.36 0.619953 3.86358 0
M  V30 10687 H 1012.98 -1.09457 3.82237 0
M  V30 10688 N 1013.98 -1.5736 0.0868897 0
M  V30 10689 C 1015.22 -1.9367 -0.577598 0
M  V30 10690 C 1015.55 -0.968844 -1.69229 0
M  V30 10691 O 1014.82 -0.0195061 -1.9589 0
M  V30 10692 H 1013.4 -0.714983 -0.216353 0
M  V30 10693 H 1016.06 -1.94335 0.148294 0
M  V30 10694 H 1015.15 -2.95877 -0.993128 0
M  V30 10695 N 1015.45 0.186762 -1.56489 0
M  V30 10696 C 1016.4 1.25084 -1.96104 0
M  V30 10697 C 1017.4 1.4667 -0.847609 0
M  V30 10698 O 1018.6 1.47432 -1.03266 0
M  V30 10699 H 1014.98 0.420121 -0.623701 0
M  V30 10700 H 1016.95 0.889761 -2.84826 0
M  V30 10701 C 1015.7 2.5863 -2.32392 0
M  V30 10702 H 1015.02 2.42838 -3.176 0
M  V30 10703 H 1016.46 3.3181 -2.63967 0
M  V30 10704 C 1014.92 3.16241 -1.16159 0
M  V30 10705 O 1015.45 3.99272 -0.441034 0
M  V30 10706 N 1013.66 2.75106 -0.936206 0
M  V30 10707 H 1013.2 2.0769 -1.5239 0
M  V30 10708 H 1013.16 3.13991 -0.160317 0
M  V30 10709 N 1016.93 1.50896 0.454776 0
M  V30 10710 C 1018.17 1.64347 1.21529 0
M  V30 10711 C 1018.54 0.343869 1.88896 0
M  V30 10712 O 1019.74 0.353973 2.66459 0
M  V30 10713 C 1018.01 2.80199 2.21864 0
M  V30 10714 S 1019.57 3.13879 3.06636 0
M  V30 10715 H 1016.39 0.579193 0.412379 0
M  V30 10716 H 1018.99 1.88741 0.509629 0
M  V30 10717 H 1017.69 3.73086 1.70982 0
M  V30 10718 H 1017.22 2.57941 2.97036 0
M  V30 10719 H 1019.24 2.58964 4.23264 0
M  V30 10720 N 1018.41 -0.709066 1.40748 0
M  V30 10721 C 1019.36 -1.82312 1.4153 0
M  V30 10722 C 1020.33 -1.63868 0.271392 0
M  V30 10723 O 1021.51 -1.8491 0.470431 0
M  V30 10724 C 1018.65 -3.2008 1.29006 0
M  V30 10725 C 1017.77 -3.50051 2.53156 0
M  V30 10726 C 1016.9 -4.7736 2.33025 0
M  V30 10727 C 1015.94 -5.00255 3.52719 0
M  V30 10728 N 1015.08 -6.18782 3.31743 0
M  V30 10729 H 1019.92 -1.80978 2.36751 0
M  V30 10730 H 1017.45 -0.883975 1.17577 0
M  V30 10731 H 1019.41 -3.99645 1.19749 0
M  V30 10732 H 1018.04 -3.20626 0.374014 0
M  V30 10733 H 1017.09 -2.64993 2.72916 0
M  V30 10734 H 1018.41 -3.62877 3.42231 0
M  V30 10735 H 1017.56 -5.64954 2.21159 0
M  V30 10736 H 1016.3 -4.66756 1.41386 0
M  V30 10737 H 1015.3 -4.11114 3.65055 0
M  V30 10738 H 1016.53 -5.12728 4.45295 0
M  V30 10739 H 1014.47 -6.09416 2.42791 0
M  V30 10740 H 1014.39 -6.32313 4.14386 0
M  V30 10741 H 1015.66 -7.09146 3.23623 0
M  V30 10742 N 1019.89 -1.26353 -0.941956 0
M  V30 10743 C 1020.8 -1.09618 -2.07415 0
M  V30 10744 C 1021.82 -0.0298963 -1.73974 0
M  V30 10745 O 1022.99 -0.233466 -2.00042 0
M  V30 10746 C 1020.06 -0.73013 -3.38925 0
M  V30 10747 C 1019.12 -1.87574 -3.86153 0
M  V30 10748 C 1018.35 -1.52706 -5.11387 0
M  V30 10749 O 1018.57 -0.428438 -5.68789 0
M  V30 10750 O 1017.51 -2.36154 -5.53638 0
M  V30 10751 H 1021.33 -2.04598 -2.2444 0
M  V30 10752 H 1018.92 -1.05407 -1.05876 0
M  V30 10753 H 1020.8 -0.538684 -4.17943 0
M  V30 10754 H 1019.48 0.190282 -3.2314 0
M  V30 10755 H 1018.38 -2.12214 -3.08084 0
M  V30 10756 H 1019.72 -2.77585 -4.06457 0
M  V30 10757 N 1021.37 1.14642 -1.08144 0
M  V30 10758 C 1022.31 2.1964 -0.708995 0
M  V30 10759 C 1023.28 1.63303 0.303512 0
M  V30 10760 O 1024.47 1.8987 0.18813 0
M  V30 10761 C 1021.61 3.44886 -0.121585 0
M  V30 10762 C 1020.72 4.15386 -1.18654 0
M  V30 10763 C 1019.86 5.28205 -0.56328 0
M  V30 10764 C 1018.9 5.90534 -1.61046 0
M  V30 10765 N 1018.03 6.94809 -1.00919 0
M  V30 10766 H 1022.87 2.50848 -1.6087 0
M  V30 10767 H 1020.41 1.23185 -0.803975 0
M  V30 10768 H 1022.37 4.16528 0.23668 0
M  V30 10769 H 1021 3.14169 0.741445 0
M  V30 10770 H 1020.05 3.42159 -1.66227 0
M  V30 10771 H 1021.36 4.57809 -1.9802 0
M  V30 10772 H 1020.52 6.06507 -0.153109 0
M  V30 10773 H 1019.26 4.86995 0.262066 0
M  V30 10774 H 1018.26 5.10938 -2.03033 0
M  V30 10775 H 1019.49 6.33819 -2.43824 0
M  V30 10776 H 1017.43 6.5568 -0.204894 0
M  V30 10777 H 1017.35 7.35704 -1.73999 0
M  V30 10778 H 1018.62 7.76992 -0.624792 0
M  V30 10779 N 1022.85 0.866709 1.31628 0
M  V30 10780 C 1024.08 0.489679 2.00713 0
M  V30 10781 C 1024.48 -0.921492 1.65243 0
M  V30 10782 O 1023.83 -1.61467 0.876012 0
M  V30 10783 C 1023.89 0.563148 3.55062 0
M  V30 10784 C 1023.55 1.93535 4.13996 0
M  V30 10785 C 1024.55 2.90243 4.31341 0
M  V30 10786 C 1022.23 2.23578 4.49798 0
M  V30 10787 C 1024.23 4.15138 4.83673 0
M  V30 10788 C 1021.92 3.48723 5.01832 0
M  V30 10789 C 1022.91 4.44319 5.18719 0
M  V30 10790 O 1022.6 5.67247 5.69637 0
M  V30 10791 H 1022.33 0.189605 0.648865 0
M  V30 10792 H 1024.89 1.16874 1.68907 0
M  V30 10793 H 1023.12 -0.172815 3.86314 0
M  V30 10794 H 1024.81 0.200009 4.05407 0
M  V30 10795 H 1025.57 2.6834 4.04003 0
M  V30 10796 H 1021.45 1.49949 4.35932 0
M  V30 10797 H 1025 4.89762 4.96769 0
M  V30 10798 H 1020.89 3.70471 5.28603 0
M  V30 10799 H 1021.66 5.69372 5.88011 0
M  V30 10800 N 1024.32 -1.44642 0.625825 0
M  V30 10801 C 1025.74 -1.56925 0.290992 0
M  V30 10802 C 1025.94 -1.61424 -1.20601 0
M  V30 10803 O 1025 -1.55439 -1.98985 0
M  V30 10804 C 1026.31 -2.84343 0.978242 0
M  V30 10805 C 1027.86 -2.98047 0.955882 0
M  V30 10806 C 1028.33 -4.2826 1.62349 0
M  V30 10807 N 1029.82 -4.35062 1.58983 0
M  V30 10808 C 1030.56 -5.34524 2.07538 0
M  V30 10809 N 1030.05 -6.4042 2.6426 0
M  V30 10810 N 1031.85 -5.25998 1.98198 0
M  V30 10811 H 1024 -1.39965 1.59761 0
M  V30 10812 H 1026.26 -0.670368 0.670306 0
M  V30 10813 H 1025.97 -2.86985 2.03304 0
M  V30 10814 H 1025.84 -3.73699 0.512726 0
M  V30 10815 H 1028.23 -2.94961 -0.0904292 0
M  V30 10816 H 1028.31 -2.10053 1.45984 0
M  V30 10817 H 1027.95 -4.32105 2.66923 0
M  V30 10818 H 1027.88 -5.15102 1.09441 0
M  V30 10819 H 1030.37 -3.59147 1.17565 0
M  V30 10820 H 1030.69 -7.1259 2.99056 0
M  V30 10821 H 1029.03 -6.41121 2.68308 0
M  V30 10822 H 1032.22 -4.42178 1.5361 0
M  V30 10823 H 1032.4 -6.03359 2.3635 0
M  V30 10824 N 1025.8 -0.366053 -1.5329 0
M  V30 10825 C 1027.22 -0.0150149 -1.59593 0
M  V30 10826 C 1027.42 1.46719 -1.38116 0
M  V30 10827 O 1026.47 2.22884 -1.18656 0
M  V30 10828 C 1027.79 -0.471374 -2.96982 0
M  V30 10829 C 1029.33 -0.425634 -3.10092 0
M  V30 10830 C 1029.81 -0.857812 -4.49895 0
M  V30 10831 N 1031.3 -0.81289 -4.56011 0
M  V30 10832 C 1032.04 -1.11898 -5.62376 0
M  V30 10833 N 1031.53 -1.49436 -6.76491 0
M  V30 10834 N 1033.32 -1.04174 -5.52362 0
M  V30 10835 H 1025.48 -1.33127 -1.65502 0
M  V30 10836 H 1027.74 -0.544172 -0.776261 0
M  V30 10837 H 1027.44 -1.50569 -3.1784 0
M  V30 10838 H 1027.32 0.141764 -3.76934 0
M  V30 10839 H 1029.71 0.599548 -2.88945 0
M  V30 10840 H 1029.79 -1.07427 -2.32149 0
M  V30 10841 H 1029.43 -1.88111 -4.7178 0
M  V30 10842 H 1029.36 -0.186419 -5.2627 0
M  V30 10843 H 1031.85 -0.536343 -3.74075 0
M  V30 10844 H 1032.16 -1.71217 -7.53594 0
M  V30 10845 H 1030.51 -1.53302 -6.77882 0
M  V30 10846 H 1033.7 -0.747654 -4.62091 0
M  V30 10847 H 1033.87 -1.28362 -6.35159 0
M  V30 10848 N 1027.28 1.57312 -0.0952337 0
M  V30 10849 C 1028.21 2.11059 0.893678 0
M  V30 10850 C 1029.22 1.04787 1.24594 0
M  V30 10851 O 1030.41 1.32233 1.19903 0
M  V30 10852 C 1027.51 2.57552 2.20272 0
M  V30 10853 C 1026.69 3.87661 2.02578 0
M  V30 10854 C 1025.75 4.2 3.16996 0
M  V30 10855 O 1024.77 4.89219 2.90953 0
M  V30 10856 N 1025.97 3.75414 4.42769 0
M  V30 10857 H 1028.74 2.96532 0.434632 0
M  V30 10858 H 1026.3 1.6165 0.0898661 0
M  V30 10859 H 1028.29 2.76232 2.95766 0
M  V30 10860 H 1026.86 1.7709 2.576 0
M  V30 10861 H 1026.08 3.78128 1.11413 0
M  V30 10862 H 1027.37 4.7278 1.88032 0
M  V30 10863 H 1026.77 3.1954 4.66809 0
M  V30 10864 H 1025.32 3.99249 5.15212 0
M  V30 10865 N 1028.76 -0.17846 1.56586 0
M  V30 10866 C 1029.98 -0.916061 1.86073 0
M  V30 10867 C 1030.41 -1.75349 0.680754 0
M  V30 10868 O 1029.77 -1.77479 -0.37028 0
M  V30 10869 C 1029.81 -1.77445 3.1392 0
M  V30 10870 O 1028.92 -2.87524 2.95641 0
M  V30 10871 H 1028.26 -0.257031 0.612234 0
M  V30 10872 H 1030.79 -0.178755 2.03818 0
M  V30 10873 H 1030.8 -2.1758 3.45142 0
M  V30 10874 H 1029.47 -1.15927 3.99417 0
M  V30 10875 H 1028.05 -2.51023 2.75757 0
M  V30 10876 N 1030.24 -1.51135 -0.446768 0
M  V30 10877 C 1031.51 -1.5387 -1.20762 0
M  V30 10878 C 1031.89 -0.297446 -2.08994 0
M  V30 10879 O 1031.24 0.717975 -2.16927 0
M  V30 10880 C 1031.45 -2.84767 -2.01764 0
M  V30 10881 C 1032.8 -3.3636 -2.59128 0
M  V30 10882 O 1033.82 -2.86254 -2.11984 0
M  V30 10883 O 1032.68 -4.23765 -3.45088 0
M  V30 10884 H 1029.78 -0.618228 -0.549293 0
M  V30 10885 H 1032.32 -1.63442 -0.456605 0
M  V30 10886 H 1031.09 -3.6657 -1.36901 0
M  V30 10887 H 1030.72 -2.78313 -2.8395 0
M  V30 10888 N 1031.71 0.701592 -1.41122 0
M  V30 10889 C 1032.66 1.83691 -1.4269 0
M  V30 10890 C 1033.66 1.6662 -0.305658 0
M  V30 10891 O 1034.86 1.73554 -0.477392 0
M  V30 10892 H 1031.24 0.605222 -0.44633 0
M  V30 10893 H 1033.21 1.79485 -2.38386 0
M  V30 10894 C 1031.96 3.21666 -1.32008 0
M  V30 10895 H 1031.28 3.35416 -2.17569 0
M  V30 10896 H 1032.72 4.012 -1.37165 0
M  V30 10897 C 1031.18 3.36885 -0.0317678 0
M  V30 10898 O 1031.71 3.90885 0.925836 0
M  V30 10899 N 1029.91 2.90569 0.0423401 0
M  V30 10900 H 1029.46 2.46812 -0.737673 0
M  V30 10901 H 1029.42 3.0113 0.903764 0
M  V30 10902 N 1033.19 1.2685 0.935242 0
M  V30 10903 C 1034.6 1.11569 1.49697 0
M  V30 10904 C 1034.95 -0.301952 1.93863 0
M  V30 10905 O 1034.08 -1.19408 1.80473 0
M  V30 10906 C 1034.67 2.01918 2.72056 0
M  V30 10907 C 1033.23 1.90765 3.24477 0
M  V30 10908 C 1032.38 1.94918 1.97237 0
M  V30 10909 H 1035.33 1.39853 0.750116 0
M  V30 10910 H 1035.35 1.57056 3.46574 0
M  V30 10911 H 1034.86 3.05088 2.39881 0
M  V30 10912 H 1032.96 0.905521 3.61429 0
M  V30 10913 H 1033.08 2.76611 3.91182 0
M  V30 10914 H 1031.44 1.39046 2.13397 0
M  V30 10915 H 1032.22 2.99729 1.67385 0
M  V30 10916 N 1034.67 -1.14067 1.0875 0
M  V30 10917 C 1035.92 -1.85185 0.819317 0
M  V30 10918 C 1036.25 -1.8314 -0.654969 0
M  V30 10919 O 1035.5 -1.25974 -1.49763 0
M  V30 10920 C 1035.8 -3.33273 1.29089 0
M  V30 10921 C 1035.47 -3.55504 2.77359 0
M  V30 10922 C 1034.13 -3.61279 3.17853 0
M  V30 10923 C 1036.48 -3.64041 3.72992 0
M  V30 10924 C 1033.81 -3.73119 4.52768 0
M  V30 10925 C 1036.16 -3.77407 5.07687 0
M  V30 10926 C 1034.82 -3.81433 5.47782 0
M  V30 10927 H 1034.09 -0.67764 0.299809 0
M  V30 10928 H 1036.74 -1.34713 1.36106 0
M  V30 10929 H 1035.05 -3.86049 0.668811 0
M  V30 10930 H 1036.74 -3.86734 1.06009 0
M  V30 10931 H 1033.33 -3.51659 2.45019 0
M  V30 10932 H 1037.52 -3.58866 3.42825 0
M  V30 10933 H 1032.77 -3.74499 4.83281 0
M  V30 10934 H 1036.95 -3.82956 5.81651 0
M  V30 10935 H 1034.57 -3.9036 6.52321 0
M  V30 10936 N 1036.15 -0.873678 -1.31166 0
M  V30 10937 C 1037.4 -0.482577 -1.95842 0
M  V30 10938 C 1037.71 0.970881 -1.69804 0
M  V30 10939 O 1038.92 1.4683 -2.28371 0
M  V30 10940 C 1037.37 -0.812074 -3.50619 0
M  V30 10941 C 1036.98 -2.28254 -3.85492 0
M  V30 10942 C 1038.72 -0.489624 -4.21667 0
M  V30 10943 C 1036.63 -2.55426 -5.33396 0
M  V30 10944 H 1035.56 -0.176736 -0.732994 0
M  V30 10945 H 1038.21 -1.06709 -1.49283 0
M  V30 10946 H 1036.59 -0.156769 -3.9569 0
M  V30 10947 H 1037.77 -2.98122 -3.51369 0
M  V30 10948 H 1036.08 -2.5714 -3.27518 0
M  V30 10949 H 1038.68 -0.669811 -5.30488 0
M  V30 10950 H 1039.02 0.570204 -4.12376 0
M  V30 10951 H 1039.56 -1.10163 -3.82242 0
M  V30 10952 H 1036.3 -3.60106 -5.47726 0
M  V30 10953 H 1035.82 -1.90156 -5.68859 0
M  V30 10954 H 1037.49 -2.40345 -6.00702 0
M  V30 10955 N 1037.63 1.44308 -0.633487 0
M  V30 10956 C 1038.54 2.34492 0.0711787 0
M  V30 10957 C 1039.55 1.52754 0.8332 0
M  V30 10958 O 1040.73 1.85475 0.784929 0
M  V30 10959 C 1037.79 3.30767 1.03895 0
M  V30 10960 C 1036.85 4.28412 0.276043 0
M  V30 10961 C 1036.09 5.20087 1.19772 0
M  V30 10962 O 1036.31 5.15743 2.4365 0
M  V30 10963 O 1035.24 5.98038 0.680764 0
M  V30 10964 H 1039.07 2.96203 -0.67063 0
M  V30 10965 H 1036.66 1.4412 -0.393678 0
M  V30 10966 H 1038.54 3.90021 1.59566 0
M  V30 10967 H 1037.21 2.71586 1.76133 0
M  V30 10968 H 1036.12 3.72696 -0.32377 0
M  V30 10969 H 1037.45 4.9052 -0.406364 0
M  V30 10970 N 1039.1 0.374177 1.53094 0
M  V30 10971 C 1040.52 -0.103172 1.86415 0
M  V30 10972 C 1040.87 -1.47439 1.29446 0
M  V30 10973 O 1039.99 -2.07333 0.619853 0
M  V30 10974 C 1040.59 -0.193988 3.38244 0
M  V30 10975 C 1039.15 -0.615605 3.71332 0
M  V30 10976 C 1038.29 0.23186 2.76329 0
M  V30 10977 H 1041.24 0.592644 1.47219 0
M  V30 10978 H 1041.26 -1.01597 3.66686 0
M  V30 10979 H 1040.78 0.80414 3.79678 0
M  V30 10980 H 1038.88 -1.62165 3.3546 0
M  V30 10981 H 1038.99 -0.38425 4.77557 0
M  V30 10982 H 1037.35 -0.300579 2.5292 0
M  V30 10983 H 1038.14 1.22769 3.20597 0
M  V30 10984 N 1040.58 -1.57259 0.103575 0
M  V30 10985 C 1041.52 -2.10165 -0.889141 0
M  V30 10986 C 1042.49 -1.01426 -1.27089 0
M  V30 10987 O 1043.68 -1.2898 -1.37465 0
M  V30 10988 C 1040.8 -2.58564 -2.18774 0
M  V30 10989 C 1039.85 -3.79043 -1.95522 0
M  V30 10990 S 1040.68 -5.22213 -1.18551 0
M  V30 10991 C 1041.84 -5.73968 -2.49623 0
M  V30 10992 H 1042.07 -2.9404 -0.439083 0
M  V30 10993 H 1039.61 -1.54008 -0.10989 0
M  V30 10994 H 1041.56 -2.87106 -2.93395 0
M  V30 10995 H 1040.22 -1.749 -2.609 0
M  V30 10996 H 1039.42 -4.11004 -2.91705 0
M  V30 10997 H 1039.02 -3.51038 -1.29028 0
M  V30 10998 H 1041.31 -5.82752 -3.45553 0
M  V30 10999 H 1042.25 -6.72324 -2.22229 0
M  V30 11000 H 1042.66 -5.01946 -2.58284 0
M  V30 11001 N 1042.06 0.170153 -1.56679 0
M  V30 11002 C 1043.01 1.21531 -1.9291 0
M  V30 11003 C 1043.99 1.39742 -0.797553 0
M  V30 11004 O 1045.19 1.41693 -1.06075 0
M  V30 11005 C 1042.32 2.55447 -2.29351 0
M  V30 11006 C 1041.4 2.40925 -3.49022 0
M  V30 11007 N 1041.79 1.96118 -4.66231 0
M  V30 11008 C 1040.09 2.71747 -3.53652 0
M  V30 11009 C 1040.79 1.94086 -5.48366 0
M  V30 11010 N 1039.77 2.36533 -4.89441 0
M  V30 11011 H 1043.57 0.860602 -2.81018 0
M  V30 11012 H 1041.08 0.378415 -1.5793 0
M  V30 11013 H 1043.08 3.30972 -2.53502 0
M  V30 11014 H 1041.74 2.9172 -1.42583 0
M  V30 11015 H 1042.75 1.66438 -4.90427 0
M  V30 11016 H 1039.43 3.1205 -2.77365 0
M  V30 11017 H 1040.82 1.61132 -6.52293 0
M  V30 11018 N 1043.54 1.5137 0.438746 0
M  V30 11019 C 1044.49 1.73154 1.55308 0
M  V30 11020 C 1045.48 0.597825 1.58501 0
M  V30 11021 O 1046.69 0.77917 1.62262 0
M  V30 11022 H 1043.06 0.547083 0.51595 0
M  V30 11023 H 1045.03 2.66566 1.34108 0
M  V30 11024 C 1043.78 1.87242 2.92977 0
M  V30 11025 H 1043.1 2.73884 2.91252 0
M  V30 11026 H 1044.54 2.06497 3.70317 0
M  V30 11027 C 1043 0.631887 3.30921 0
M  V30 11028 O 1043.53 -0.214099 4.01129 0
M  V30 11029 N 1041.74 0.47639 2.86669 0
M  V30 11030 H 1041.29 1.16589 2.29706 0
M  V30 11031 H 1041.24 -0.352403 3.12419 0
M  V30 11032 N 1045.02 -0.694098 1.41492 0
M  V30 11033 C 1045.95 -1.81943 1.39389 0
M  V30 11034 C 1046.96 -1.6009 0.295836 0
M  V30 11035 O 1048.15 -1.69565 0.557658 0
M  V30 11036 C 1045.25 -3.18731 1.15167 0
M  V30 11037 C 1044.42 -3.67601 2.37041 0
M  V30 11038 C 1043.48 -4.83063 2.08654 0
M  V30 11039 O 1042.51 -4.94603 2.81704 0
M  V30 11040 N 1043.71 -5.70409 1.0777 0
M  V30 11041 H 1046.48 -1.84239 2.36381 0
M  V30 11042 H 1044.04 -0.876475 1.36123 0
M  V30 11043 H 1046.03 -3.93602 0.941264 0
M  V30 11044 H 1044.6 -3.11452 0.267673 0
M  V30 11045 H 1043.82 -2.83622 2.73774 0
M  V30 11046 H 1045.11 -3.96991 3.18239 0
M  V30 11047 H 1044.5 -5.63718 0.473123 0
M  V30 11048 H 1043.06 -6.45172 0.927177 0
M  V30 11049 N 1046.49 -1.27344 -0.928501 0
M  V30 11050 C 1047.91 -1.12361 -1.49103 0
M  V30 11051 C 1048.26 0.291667 -1.9402 0
M  V30 11052 O 1047.38 1.18449 -1.81104 0
M  V30 11053 C 1047.98 -2.03358 -2.70981 0
M  V30 11054 C 1046.54 -1.92483 -3.23461 0
M  V30 11055 C 1045.68 -1.95961 -1.962 0
M  V30 11056 H 1048.63 -1.40249 -0.742689 0
M  V30 11057 H 1048.65 -1.58892 -3.45736 0
M  V30 11058 H 1048.17 -3.06356 -2.38259 0
M  V30 11059 H 1046.27 -0.924676 -3.60944 0
M  V30 11060 H 1046.38 -2.78682 -3.89709 0
M  V30 11061 H 1044.74 -1.40175 -2.12657 0
M  V30 11062 H 1045.53 -3.00612 -1.65793 0
M  V30 11063 N 1047.97 1.13488 -1.09353 0
M  V30 11064 C 1049.2 1.88592 -0.850915 0
M  V30 11065 C 1049.62 1.79087 0.597761 0
M  V30 11066 O 1048.97 1.15695 1.41142 0
M  V30 11067 C 1049.02 3.38219 -1.27633 0
M  V30 11068 O 1048.74 3.47476 -2.66819 0
M  V30 11069 C 1050.25 4.30293 -1.06598 0
M  V30 11070 H 1047.47 0.597069 -0.306185 0
M  V30 11071 H 1050.01 1.43668 -1.45533 0
M  V30 11072 H 1048.16 3.80729 -0.715828 0
M  V30 11073 H 1048.58 4.40485 -2.84733 0
M  V30 11074 H 1050.05 5.33611 -1.41293 0
M  V30 11075 H 1050.53 4.392 -0.0037135 0
M  V30 11076 H 1051.14 3.9355 -1.6124 0
M  V30 11077 N 1049.45 0.880621 1.30701 0
M  V30 11078 C 1050.7 0.497611 1.966 0
M  V30 11079 C 1051.03 -0.949901 1.69383 0
M  V30 11080 O 1050.31 -1.67054 0.996152 0
M  V30 11081 C 1050.59 0.767919 3.51817 0
M  V30 11082 C 1050.44 2.26574 3.88567 0
M  V30 11083 C 1051.76 0.241502 4.39437 0
M  V30 11084 H 1048.88 0.182267 0.714106 0
M  V30 11085 H 1051.52 1.10382 1.54648 0
M  V30 11086 H 1049.67 0.251967 3.87682 0
M  V30 11087 H 1051.34 2.84977 3.62748 0
M  V30 11088 H 1049.59 2.73411 3.36792 0
M  V30 11089 H 1050.26 2.40549 4.9683 0
M  V30 11090 H 1052.73 0.683051 4.10455 0
M  V30 11091 H 1051.61 0.459997 5.46969 0
M  V30 11092 H 1051.87 -0.857068 4.33713 0
M  V30 11093 N 1050.93 -1.4397 0.641131 0
M  V30 11094 C 1052.21 -1.95436 0.0800918 0
M  V30 11095 C 1052.59 -1.58282 -1.39678 0
M  V30 11096 O 1051.93 -0.861867 -2.11623 0
M  V30 11097 C 1052.14 -3.47589 0.313531 0
M  V30 11098 C 1053.49 -4.2407 0.212034 0
M  V30 11099 O 1054.52 -3.55353 0.245434 0
M  V30 11100 O 1053.38 -5.46356 0.125455 0
M  V30 11101 H 1050.47 -0.826834 -0.0165735 0
M  V30 11102 H 1053.02 -1.5397 0.71353 0
M  V30 11103 H 1051.79 -3.67716 1.33793 0
M  V30 11104 H 1051.41 -3.96025 -0.353563 0
M  V30 11105 N 1052.41 -0.382291 -1.52893 0
M  V30 11106 C 1053.34 0.500194 -2.22651 0
M  V30 11107 C 1054.32 1.06969 -1.22459 0
M  V30 11108 O 1055.5 1.12267 -1.51422 0
M  V30 11109 C 1052.63 1.6917 -2.93427 0
M  V30 11110 C 1051.68 1.24811 -4.07829 0
M  V30 11111 S 1052.51 0.235466 -5.34982 0
M  V30 11112 C 1053.66 1.43292 -6.09277 0
M  V30 11113 H 1053.9 -0.0921913 -2.97157 0
M  V30 11114 H 1051.43 -0.16645 -1.535 0
M  V30 11115 H 1053.39 2.37507 -3.34815 0
M  V30 11116 H 1052.05 2.25537 -2.18613 0
M  V30 11117 H 1051.24 2.13754 -4.56426 0
M  V30 11118 H 1050.84 0.643744 -3.68418 0
M  V30 11119 H 1053.14 2.36118 -6.35023 0
M  V30 11120 H 1054.08 0.988003 -7.01173 0
M  V30 11121 H 1054.49 1.64655 -5.39953 0
M  V30 11122 N 1053.89 1.57202 -0.111913 0
M  V30 11123 C 1054.83 2.16186 0.858286 0
M  V30 11124 C 1055.83 1.10917 1.28039 0
M  V30 11125 O 1057.03 1.29233 1.25295 0
M  V30 11126 H 1053.41 0.691777 0.29487 0
M  V30 11127 H 1055.38 2.96499 0.336265 0
M  V30 11128 C 1054.13 2.77024 2.10127 0
M  V30 11129 H 1053.45 3.5772 1.78539 0
M  V30 11130 H 1054.89 3.21841 2.76033 0
M  V30 11131 C 1053.35 1.73752 2.88638 0
M  V30 11132 O 1053.88 1.18659 3.83774 0
M  V30 11133 N 1052.09 1.43855 2.52496 0
M  V30 11134 H 1051.63 1.88846 1.75199 0
M  V30 11135 H 1051.59 0.749985 3.05324 0
M  V30 11136 N 1055.36 -0.161842 1.56767 0
M  V30 11137 C 1056.64 -0.904754 1.73417 0
M  V30 11138 C 1057.02 -1.99987 0.675908 0
M  V30 11139 O 1056.37 -2.26419 -0.307712 0
M  V30 11140 C 1056.58 -1.46082 3.16956 0
M  V30 11141 C 1057.93 -1.93004 3.78199 0
M  V30 11142 O 1058.95 -1.55856 3.20293 0
M  V30 11143 O 1057.81 -2.61465 4.79894 0
M  V30 11144 H 1054.9 -0.426518 0.708528 0
M  V30 11145 H 1057.45 -0.148928 1.69045 0
M  V30 11146 H 1056.22 -0.673087 3.85468 0
M  V30 11147 H 1055.84 -2.28056 3.25693 0
M  V30 11148 N 1056.84 -1.516 -0.430713 0
M  V30 11149 C 1058.09 -1.6484 -1.18134 0
M  V30 11150 C 1058.42 -0.366725 -1.90706 0
M  V30 11151 O 1057.7 0.63398 -1.83878 0
M  V30 11152 C 1057.98 -2.85617 -2.19306 0
M  V30 11153 C 1057.83 -4.23778 -1.50773 0
M  V30 11154 C 1059.15 -3.01909 -3.20217 0
M  V30 11155 H 1056.27 -0.599907 -0.428113 0
M  V30 11156 H 1058.91 -1.84102 -0.46973 0
M  V30 11157 H 1057.06 -2.69325 -2.79993 0
M  V30 11158 H 1058.73 -4.51752 -0.93371 0
M  V30 11159 H 1056.98 -4.26171 -0.809966 0
M  V30 11160 H 1057.65 -5.04291 -2.24487 0
M  V30 11161 H 1060.12 -3.16956 -2.69589 0
M  V30 11162 H 1059 -3.87968 -3.88293 0
M  V30 11163 H 1059.26 -2.1427 -3.86705 0
M  V30 11164 N 1058.32 0.686584 -1.41858 0
M  V30 11165 C 1059.25 1.81107 -1.38836 0
M  V30 11166 C 1060.23 1.60599 -0.254293 0
M  V30 11167 O 1061.41 1.83229 -0.442641 0
M  V30 11168 C 1058.54 3.17928 -1.16787 0
M  V30 11169 C 1057.59 3.5721 -2.33031 0
M  V30 11170 S 1058.42 3.60986 -3.95536 0
M  V30 11171 C 1059.58 5.00519 -3.75808 0
M  V30 11172 H 1059.81 1.83396 -2.33994 0
M  V30 11173 H 1057.34 0.856146 -1.28489 0
M  V30 11174 H 1059.3 3.9691 -1.04752 0
M  V30 11175 H 1057.96 3.1324 -0.232335 0
M  V30 11176 H 1057.15 4.56629 -2.13321 0
M  V30 11177 H 1056.76 2.8556 -2.41519 0
M  V30 11178 H 1059.05 5.88272 -3.36069 0
M  V30 11179 H 1059.99 5.25273 -4.74862 0
M  V30 11180 H 1060.4 4.72481 -3.08904 0
M  V30 11181 N 1059.8 1.27835 0.921735 0
M  V30 11182 C 1061.04 1.14692 1.67253 0
M  V30 11183 C 1061.38 -0.305384 1.91784 0
M  V30 11184 O 1060.65 -1.22286 1.51249 0
M  V30 11185 C 1060.93 1.93743 3.03539 0
M  V30 11186 C 1060.79 3.46991 2.86212 0
M  V30 11187 C 1062.11 1.74658 4.03959 0
M  V30 11188 H 1059.23 0.418021 0.606983 0
M  V30 11189 H 1061.87 1.5706 1.06922 0
M  V30 11190 H 1060.02 1.57738 3.55037 0
M  V30 11191 H 1061.69 3.92858 2.41785 0
M  V30 11192 H 1059.93 3.73029 2.21432 0
M  V30 11193 H 1060.6 3.97551 3.82958 0
M  V30 11194 H 1063.08 2.06063 3.61493 0
M  V30 11195 H 1061.96 2.32353 4.97296 0
M  V30 11196 H 1062.22 0.696019 4.36587 0
M  V30 11197 N 1061.28 -1.12907 1.09954 0
M  V30 11198 C 1062.21 -2.20585 0.765799 0
M  V30 11199 C 1063.19 -1.68117 -0.258989 0
M  V30 11200 O 1064.37 -1.93792 -0.125853 0
M  V30 11201 C 1061.5 -3.46772 0.191435 0
M  V30 11202 C 1060.46 -4.12363 1.14635 0
M  V30 11203 C 1059.78 -5.3294 0.433426 0
M  V30 11204 C 1061.08 -4.59073 2.49096 0
M  V30 11205 H 1062.78 -2.48759 1.66612 0
M  V30 11206 H 1060.32 -1.19563 0.802534 0
M  V30 11207 H 1062.27 -4.21365 -0.0541535 0
M  V30 11208 H 1061 -3.18011 -0.744101 0
M  V30 11209 H 1059.66 -3.39744 1.37731 0
M  V30 11210 H 1059.31 -5.00444 -0.506422 0
M  V30 11211 H 1059.01 -5.77772 1.07018 0
M  V30 11212 H 1060.53 -6.10284 0.196267 0
M  V30 11213 H 1061.94 -5.25063 2.30177 0
M  V30 11214 H 1060.34 -5.14665 3.0861 0
M  V30 11215 H 1061.41 -3.73313 3.0946 0
M  V30 11216 N 1062.75 -0.88754 -1.30232 0
M  V30 11217 C 1063.7 -0.345765 -2.30016 0
M  V30 11218 C 1064.7 0.5486 -1.60271 0
M  V30 11219 O 1065.9 0.43275 -1.74721 0
M  V30 11220 H 1062.28 -0.0931623 -0.746207 0
M  V30 11221 H 1064.25 -1.20095 -2.73166 0
M  V30 11222 C 1063 0.422435 -3.45124 0
M  V30 11223 H 1062.32 -0.256516 -3.98976 0
M  V30 11224 H 1063.76 0.766572 -4.17013 0
M  V30 11225 C 1062.22 1.62049 -2.95367 0
M  V30 11226 O 1062.75 2.71985 -2.95613 0
M  V30 11227 N 1060.95 1.45852 -2.51347 0
M  V30 11228 H 1060.5 0.564158 -2.51346 0
M  V30 11229 H 1060.46 2.26148 -2.18413 0
M  V30 11230 N 1064.23 1.43628 -0.648757 0
M  V30 11231 C 1065.51 1.95391 -0.0904551 0
M  V30 11232 C 1065.89 1.59021 1.38837 0
M  V30 11233 O 1065.24 0.873078 2.11163 0
M  V30 11234 C 1065.45 3.47418 -0.33196 0
M  V30 11235 C 1066.8 4.23952 -0.234521 0
M  V30 11236 O 1067.82 3.55218 -0.264276 0
M  V30 11237 O 1066.68 5.46282 -0.154428 0
M  V30 11238 H 1063.77 0.82691 0.0121884 0
M  V30 11239 H 1066.32 1.5359 -0.721685 0
M  V30 11240 H 1065.09 3.67001 -1.35741 0
M  V30 11241 H 1064.71 3.96207 0.332556 0
M  V30 11242 N 1065.71 0.390394 1.52688 0
M  V30 11243 C 1066.96 -0.192697 2.00777 0
M  V30 11244 C 1067.27 -1.4781 1.28108 0
M  V30 11245 O 1068.48 -2.1413 1.66914 0
M  V30 11246 C 1066.93 -0.393955 3.57737 0
M  V30 11247 C 1066.54 0.878259 4.39307 0
M  V30 11248 C 1068.29 -0.933352 4.14112 0
M  V30 11249 C 1066.19 0.645218 5.8787 0
M  V30 11250 H 1065.12 -0.0757862 0.750182 0
M  V30 11251 H 1067.77 0.512961 1.76184 0
M  V30 11252 H 1066.16 -1.16149 3.78583 0
M  V30 11253 H 1067.33 1.65049 4.30227 0
M  V30 11254 H 1065.65 1.34269 3.94158 0
M  V30 11255 H 1068.24 -1.12343 5.22765 0
M  V30 11256 H 1068.59 -1.90272 3.70273 0
M  V30 11257 H 1069.12 -0.225361 3.97161 0
M  V30 11258 H 1065.86 1.58562 6.36033 0
M  V30 11259 H 1065.38 -0.0880609 5.99735 0
M  V30 11260 H 1067.06 0.280178 6.46393 0
M  V30 11261 N 1067.19 -1.57141 0.120249 0
M  V30 11262 C 1068.44 -1.94413 -0.53727 0
M  V30 11263 C 1068.75 -1.00594 -1.67751 0
M  V30 11264 O 1069.96 -1.27336 -2.39787 0
M  V30 11265 C 1068.41 -3.45521 -1.00714 0
M  V30 11266 C 1068.02 -4.47878 0.104706 0
M  V30 11267 C 1069.76 -3.9171 -1.63596 0
M  V30 11268 C 1067.67 -5.90165 -0.381932 0
M  V30 11269 H 1066.6 -0.725745 -0.204475 0
M  V30 11270 H 1069.25 -1.82404 0.200302 0
M  V30 11271 H 1067.63 -3.52769 -1.79917 0
M  V30 11272 H 1068.81 -4.523 0.881002 0
M  V30 11273 H 1067.12 -4.11448 0.640264 0
M  V30 11274 H 1069.72 -4.95433 -2.01122 0
M  V30 11275 H 1070.06 -3.31756 -2.51483 0
M  V30 11276 H 1070.6 -3.87268 -0.909319 0
M  V30 11277 H 1067.34 -6.53877 0.460921 0
M  V30 11278 H 1066.86 -5.89161 -1.12468 0
M  V30 11279 H 1068.53 -6.41488 -0.842748 0
M  V30 11280 N 1068.67 0.153526 -1.5685 0
M  V30 11281 C 1069.58 1.20932 -2.01029 0
M  V30 11282 C 1070.59 1.47401 -0.924598 0
M  V30 11283 O 1071.77 1.592 -1.23359 0
M  V30 11284 C 1068.83 2.52438 -2.37647 0
M  V30 11285 C 1067.89 2.33673 -3.60132 0
M  V30 11286 C 1067.13 3.58909 -3.94994 0
M  V30 11287 O 1067.35 4.64823 -3.30599 0
M  V30 11288 O 1066.28 3.5196 -4.8827 0
M  V30 11289 H 1070.11 0.864273 -2.91143 0
M  V30 11290 H 1067.7 0.361755 -1.44954 0
M  V30 11291 H 1069.58 3.29981 -2.62088 0
M  V30 11292 H 1068.25 2.86486 -1.5069 0
M  V30 11293 H 1067.16 1.54102 -3.40886 0
M  V30 11294 H 1068.49 2.04544 -4.47686 0
M  V30 11295 N 1070.14 1.51827 0.422667 0
M  V30 11296 C 1071.08 1.70409 1.53275 0
M  V30 11297 C 1072.09 0.584584 1.51942 0
M  V30 11298 O 1073.28 0.859349 1.56453 0
M  V30 11299 C 1070.38 1.717 2.92185 0
M  V30 11300 C 1069.55 3.00472 3.17861 0
M  V30 11301 C 1068.61 2.93755 4.36571 0
M  V30 11302 O 1067.64 3.67682 4.3451 0
M  V30 11303 N 1068.84 2.10612 5.40946 0
M  V30 11304 H 1071.6 2.66176 1.37734 0
M  V30 11305 H 1069.16 1.49895 0.611799 0
M  V30 11306 H 1071.16 1.64756 3.69645 0
M  V30 11307 H 1069.73 0.834655 3.01251 0
M  V30 11308 H 1068.95 3.21171 2.28567 0
M  V30 11309 H 1070.23 3.85684 3.31851 0
M  V30 11310 H 1069.63 1.49954 5.45463 0
M  V30 11311 H 1068.19 2.09535 6.17202 0
M  V30 11312 N 1071.62 -0.679052 1.4222 0
M  V30 11313 C 1072.59 -1.77448 1.45069 0
M  V30 11314 C 1073.59 -1.57189 0.338882 0
M  V30 11315 O 1074.78 -1.63559 0.599519 0
M  V30 11316 C 1071.91 -3.1603 1.27819 0
M  V30 11317 H 1073.1 -1.7631 2.426 0
M  V30 11318 H 1070.65 -0.888277 1.28605 0
M  V30 11319 H 1071.39 -3.22796 0.311946 0
M  V30 11320 H 1071.17 -3.32138 2.08391 0
M  V30 11321 H 1072.66 -3.9596 1.32686 0
M  V30 11322 N 1073.1 -1.28322 -0.914942 0
M  V30 11323 C 1074.35 -1.15179 -1.66067 0
M  V30 11324 C 1074.67 0.300279 -1.92674 0
M  V30 11325 O 1073.94 1.20821 -1.54205 0
M  V30 11326 H 1072.52 -0.423264 -0.615513 0
M  V30 11327 H 1075.18 -1.61034 -1.09791 0
M  V30 11328 H 1074.28 -1.69048 -2.62353 0
M  V30 11329 N 1074.58 1.12322 -1.10551 0
M  V30 11330 C 1075.99 1.35858 -0.837543 0
M  V30 11331 C 1076.19 1.94062 0.54241 0
M  V30 11332 O 1075.25 2.1676 1.29505 0
M  V30 11333 C 1076.56 2.299 -1.9382 0
M  V30 11334 C 1078.11 2.43488 -1.96679 0
M  V30 11335 C 1078.59 3.40846 -3.05922 0
M  V30 11336 N 1080.08 3.48404 -3.05236 0
M  V30 11337 C 1080.81 4.2365 -3.86405 0
M  V30 11338 N 1080.31 5.01951 -4.77512 0
M  V30 11339 N 1082.1 4.19068 -3.74618 0
M  V30 11340 H 1074.25 0.729002 -1.99498 0
M  V30 11341 H 1076.52 0.38339 -0.867016 0
M  V30 11342 H 1076.22 1.94309 -2.9315 0
M  V30 11343 H 1076.1 3.30033 -1.82641 0
M  V30 11344 H 1078.48 2.78359 -0.979813 0
M  V30 11345 H 1078.56 1.43239 -2.11934 0
M  V30 11346 H 1078.21 3.06704 -4.04839 0
M  V30 11347 H 1078.14 4.40927 -2.87907 0
M  V30 11348 H 1080.63 2.92545 -2.39219 0
M  V30 11349 H 1080.94 5.56707 -5.36002 0
M  V30 11350 H 1079.29 5.01143 -4.8154 0
M  V30 11351 H 1082.48 3.5698 -3.02792 0
M  V30 11352 H 1082.65 4.77455 -4.38111 0
M  V30 11353 N 1076.06 0.894434 1.2976 0
M  V30 11354 C 1076.99 0.325525 2.26877 0
M  V30 11355 C 1078 -0.525218 1.54095 0
M  V30 11356 O 1079.19 -0.343231 1.75169 0
M  V30 11357 C 1076.29 -0.554952 3.34325 0
M  V30 11358 C 1075.46 0.268868 4.36573 0
M  V30 11359 C 1074.52 -0.543601 5.23385 0
M  V30 11360 O 1073.55 0.0370454 5.69188 0
M  V30 11361 N 1074.75 -1.85079 5.50205 0
M  V30 11362 H 1077.52 1.16021 2.76332 0
M  V30 11363 H 1075.08 0.758382 1.43039 0
M  V30 11364 H 1077.07 -1.10476 3.89329 0
M  V30 11365 H 1075.64 -1.29031 2.84727 0
M  V30 11366 H 1074.86 1.0001 3.81302 0
M  V30 11367 H 1076.15 0.833248 5.01931 0
M  V30 11368 H 1075.54 -2.34533 5.14792 0
M  V30 11369 H 1074.1 -2.34784 6.08046 0
M  V30 11370 N 1077.53 -1.43282 0.656365 0
M  V30 11371 C 1078.76 -2.06641 0.177245 0
M  V30 11372 C 1079.18 -1.48893 -1.14946 0
M  V30 11373 O 1078.54 -0.600099 -1.7108 0
M  V30 11374 C 1078.59 -3.60453 0.10299 0
M  V30 11375 O 1077.69 -4.01687 -0.933895 0
M  V30 11376 H 1077.04 -0.656978 0.096314 0
M  V30 11377 H 1079.57 -1.83733 0.900178 0
M  V30 11378 H 1079.58 -4.07923 -0.079291 0
M  V30 11379 H 1078.25 -4.01861 1.07147 0
M  V30 11380 H 1076.83 -3.65801 -0.724148 0
M  V30 11381 N 1079.01 -0.398486 -1.52479 0
M  V30 11382 C 1080.24 0.180557 -2.06111 0
M  V30 11383 C 1080.66 1.39751 -1.26945 0
M  V30 11384 O 1080.01 1.79699 -0.318497 0
M  V30 11385 C 1080.06 0.541573 -3.5742 0
M  V30 11386 O 1079.79 -0.627043 -4.33589 0
M  V30 11387 C 1081.29 1.17549 -4.27431 0
M  V30 11388 H 1078.51 0.0250754 -0.670531 0
M  V30 11389 H 1081.05 -0.566368 -1.96501 0
M  V30 11390 H 1079.21 1.23839 -3.67073 0
M  V30 11391 H 1079.62 -0.328233 -5.23472 0
M  V30 11392 H 1081.09 1.37839 -5.34513 0
M  V30 11393 H 1081.57 2.14553 -3.83228 0
M  V30 11394 H 1082.18 0.51918 -4.22119 0
M  V30 11395 N 1080.49 1.57075 -0.12858 0
M  V30 11396 C 1081.74 1.9581 0.527868 0
M  V30 11397 C 1082.07 1.01253 1.65715 0
M  V30 11398 O 1081.35 0.0514853 1.94432 0
M  V30 11399 C 1081.63 3.44406 1.05151 0
M  V30 11400 C 1081.48 4.49737 -0.0750113 0
M  V30 11401 C 1082.8 3.95069 1.9393 0
M  V30 11402 H 1079.92 0.711978 0.19041 0
M  V30 11403 H 1082.56 1.88879 -0.206081 0
M  V30 11404 H 1080.71 3.50443 1.67697 0
M  V30 11405 H 1082.38 4.55793 -0.710685 0
M  V30 11406 H 1080.63 4.27497 -0.736809 0
M  V30 11407 H 1081.3 5.50996 0.332779 0
M  V30 11408 H 1083.77 3.91395 1.41241 0
M  V30 11409 H 1082.65 4.99542 2.27484 0
M  V30 11410 H 1082.91 3.36329 2.86941 0
M  V30 11411 N 1081.97 -0.145205 1.5693 0
M  V30 11412 C 1083.19 -0.876386 1.87974 0
M  V30 11413 C 1083.62 -1.73866 0.717795 0
M  V30 11414 O 1082.98 -1.78224 -0.332551 0
M  V30 11415 C 1083.03 -1.70746 3.17613 0
M  V30 11416 O 1082.13 -2.81188 3.01674 0
M  V30 11417 H 1081.47 -0.243987 0.617549 0
M  V30 11418 H 1084 -0.135482 2.04151 0
M  V30 11419 H 1084.01 -2.1021 3.49679 0
M  V30 11420 H 1082.69 -1.07429 4.01786 0
M  V30 11421 H 1081.26 -2.45117 2.81019 0
M  V30 11422 N 1083.45 -1.52049 -0.414609 0
M  V30 11423 C 1084.72 -1.56397 -1.17471 0
M  V30 11424 C 1085.1 -0.34171 -2.08316 0
M  V30 11425 O 1084.45 0.6718 -2.18401 0
M  V30 11426 C 1084.66 -2.88983 -1.95678 0
M  V30 11427 C 1086.01 -3.41781 -2.51935 0
M  V30 11428 O 1087.03 -2.90686 -2.05865 0
M  V30 11429 O 1085.89 -4.30989 -3.36022 0
M  V30 11430 H 1082.99 -0.62974 -0.536056 0
M  V30 11431 H 1085.53 -1.64374 -0.421834 0
M  V30 11432 H 1084.31 -3.69392 -1.29094 0
M  V30 11433 H 1083.93 -2.84274 -2.77983 0
M  V30 11434 N 1084.93 0.6715 -1.42579 0
M  V30 11435 C 1085.88 1.77767 -1.42769 0
M  V30 11436 C 1086.86 1.58106 -0.298568 0
M  V30 11437 O 1088.05 1.68528 -0.541037 0
M  V30 11438 C 1085.18 3.16248 -1.33574 0
M  V30 11439 C 1084.27 3.41521 -2.51445 0
M  V30 11440 N 1084.66 3.37361 -3.76857 0
M  V30 11441 C 1082.96 3.7217 -2.45776 0
M  V30 11442 C 1083.66 3.62209 -4.5517 0
M  V30 11443 N 1082.63 3.83134 -3.85628 0
M  V30 11444 H 1086.43 1.72949 -2.37626 0
M  V30 11445 H 1083.95 0.872467 -1.36974 0
M  V30 11446 H 1085.95 3.9552 -1.31793 0
M  V30 11447 H 1084.61 3.22261 -0.397223 0
M  V30 11448 H 1085.62 3.17187 -4.09406 0
M  V30 11449 H 1082.29 3.85408 -1.6052 0
M  V30 11450 H 1083.68 3.64925 -5.64162 0
M  V30 11451 N 1086.4 1.28806 0.908124 0
M  V30 11452 C 1087.65 1.16058 1.65454 0
M  V30 11453 C 1087.97 -0.290057 1.92831 0
M  V30 11454 O 1087.24 -1.20001 1.54843 0
M  V30 11455 H 1085.82 0.426522 0.61326 0
M  V30 11456 H 1088.48 1.61614 1.08936 0
M  V30 11457 H 1087.58 1.70437 2.61453 0
M  V30 11458 N 1087.88 -1.11734 1.11145 0
M  V30 11459 C 1089.13 -1.83677 0.859684 0
M  V30 11460 C 1089.46 -1.84265 -0.613182 0
M  V30 11461 O 1088.74 -1.29351 -1.45254 0
M  V30 11462 C 1089.02 -3.31003 1.41805 0
M  V30 11463 C 1088.87 -3.38827 2.95831 0
M  V30 11464 C 1090.19 -4.26984 1.06645 0
M  V30 11465 H 1087.31 -0.666879 0.313754 0
M  V30 11466 H 1089.95 -1.31038 1.37583 0
M  V30 11467 H 1088.1 -3.75961 0.979054 0
M  V30 11468 H 1089.77 -3.02451 3.48312 0
M  V30 11469 H 1088.02 -2.79143 3.32056 0
M  V30 11470 H 1088.69 -4.42508 3.29986 0
M  V30 11471 H 1091.16 -3.9019 1.44537 0
M  V30 11472 H 1090.04 -5.2846 1.48394 0
M  V30 11473 H 1090.3 -4.42094 -0.0231866 0
M  V30 11474 N 1089.36 -0.901303 -1.29284 0
M  V30 11475 C 1090.32 -0.385081 -2.25942 0
M  V30 11476 C 1091.32 0.481626 -1.53418 0
M  V30 11477 O 1092.51 0.286451 -1.71829 0
M  V30 11478 C 1089.64 0.449319 -3.37926 0
M  V30 11479 H 1090.84 -1.23877 -2.7312 0
M  V30 11480 H 1088.39 -0.679586 -1.40753 0
M  V30 11481 H 1089.13 1.32292 -2.9609 0
M  V30 11482 H 1088.91 -0.171731 -3.91724 0
M  V30 11483 H 1090.4 0.801746 -4.09831 0
M  V30 11484 N 1090.84 1.42931 -0.663954 0
M  V30 11485 C 1092.07 2.06028 -0.189808 0
M  V30 11486 C 1092.48 1.49827 1.14879 0
M  V30 11487 O 1091.84 0.633778 1.71142 0
M  V30 11488 C 1091.89 3.61349 -0.104343 0
M  V30 11489 O 1091.61 4.15463 -1.39004 0
M  V30 11490 C 1093.11 4.4154 0.394599 0
M  V30 11491 H 1090.33 0.664259 -0.0948744 0
M  V30 11492 H 1092.87 1.83255 -0.907632 0
M  V30 11493 H 1091.03 3.83271 0.564103 0
M  V30 11494 H 1091.44 5.09233 -1.25626 0
M  V30 11495 H 1092.92 5.50525 0.403329 0
M  V30 11496 H 1093.39 4.1534 1.4279 0
M  V30 11497 H 1094 4.24612 -0.241729 0
M  V30 11498 N 1092.32 0.406567 1.52266 0
M  V30 11499 C 1093.55 -0.169378 2.05905 0
M  V30 11500 C 1093.95 -1.39626 1.27676 0
M  V30 11501 O 1093.3 -1.80871 0.32114 0
M  V30 11502 C 1093.36 -0.587209 3.54672 0
M  V30 11503 C 1093.02 0.528588 4.53933 0
M  V30 11504 C 1094.02 1.39137 5.00936 0
M  V30 11505 C 1091.7 0.700549 4.97391 0
M  V30 11506 C 1093.7 2.41108 5.90039 0
M  V30 11507 C 1091.39 1.72357 5.8629 0
M  V30 11508 C 1092.38 2.57725 6.32509 0
M  V30 11509 O 1092.07 3.58275 7.19649 0
M  V30 11510 H 1091.8 -0.0250574 0.675535 0
M  V30 11511 H 1094.36 0.575377 1.97177 0
M  V30 11512 H 1092.59 -1.38421 3.61077 0
M  V30 11513 H 1094.28 -1.09078 3.90969 0
M  V30 11514 H 1095.04 1.26991 4.68079 0
M  V30 11515 H 1090.92 0.0457503 4.60977 0
M  V30 11516 H 1094.47 3.07774 6.26036 0
M  V30 11517 H 1090.36 1.84535 6.1856 0
M  V30 11518 H 1091.13 3.54489 7.37753 0
M  V30 11519 N 1093.79 -1.57004 0.136909 0
M  V30 11520 C 1095.02 -1.99866 -0.523177 0
M  V30 11521 C 1095.43 -1.01584 -1.59616 0
M  V30 11522 O 1094.78 -0.00326426 -1.837 0
M  V30 11523 C 1094.84 -3.39157 -1.19217 0
M  V30 11524 C 1094.5 -4.56231 -0.265 0
M  V30 11525 C 1095.5 -5.17457 0.503412 0
M  V30 11526 C 1093.18 -5.02009 -0.170846 0
M  V30 11527 C 1095.18 -6.22863 1.35353 0
M  V30 11528 C 1092.86 -6.07273 0.682884 0
M  V30 11529 C 1093.86 -6.67568 1.44369 0
M  V30 11530 O 1093.55 -7.70795 2.28321 0
M  V30 11531 H 1093.28 -0.661005 -0.141593 0
M  V30 11532 H 1095.84 -2.04159 0.225445 0
M  V30 11533 H 1094.07 -3.31672 -1.98823 0
M  V30 11534 H 1095.76 -3.66191 -1.75096 0
M  V30 11535 H 1096.52 -4.82994 0.440648 0
M  V30 11536 H 1092.4 -4.54813 -0.752744 0
M  V30 11537 H 1095.94 -6.69855 1.94783 0
M  V30 11538 H 1091.84 -6.41163 0.746978 0
M  V30 11539 H 1092.61 -7.87971 2.21458 0
M  V30 11540 N 1095.27 0.136881 -1.57004 0
M  V30 11541 C 1096.52 0.847775 -1.83899 0
M  V30 11542 C 1096.85 1.80709 -0.719332 0
M  V30 11543 O 1096.1 1.93527 0.290838 0
M  V30 11544 C 1096.4 1.64711 -3.17183 0
M  V30 11545 C 1096.07 0.833683 -4.43126 0
M  V30 11546 C 1094.73 0.609306 -4.77327 0
M  V30 11547 C 1097.08 0.265504 -5.20523 0
M  V30 11548 C 1094.41 -0.193793 -5.8638 0
M  V30 11549 C 1096.76 -0.524688 -6.3042 0
M  V30 11550 C 1095.43 -0.759548 -6.63164 0
M  V30 11551 H 1094.7 0.310223 -0.672936 0
M  V30 11552 H 1097.34 0.110937 -1.91178 0
M  V30 11553 H 1095.65 2.45435 -3.054 0
M  V30 11554 H 1097.34 2.20081 -3.3521 0
M  V30 11555 H 1093.93 1.01864 -4.16319 0
M  V30 11556 H 1098.12 0.426109 -4.94467 0
M  V30 11557 H 1093.37 -0.385153 -6.10186 0
M  V30 11558 H 1097.55 -0.972033 -6.89583 0
M  V30 11559 H 1095.18 -1.38369 -7.47501 0
M  V30 11560 N 1096.75 1.52266 0.40654 0
M  V30 11561 C 1098.16 1.58587 0.985241 0
M  V30 11562 C 1098.51 0.427955 1.91476 0
M  V30 11563 O 1097.64 -0.451341 2.11641 0
M  V30 11564 C 1098.23 2.87426 1.79365 0
M  V30 11565 C 1096.79 2.96217 2.32233 0
M  V30 11566 C 1095.94 2.53548 1.12288 0
M  V30 11567 H 1098.89 1.57598 0.186685 0
M  V30 11568 H 1098.91 2.72925 2.65127 0
M  V30 11569 H 1098.42 3.71682 1.11687 0
M  V30 11570 H 1096.52 2.1646 3.03275 0
M  V30 11571 H 1096.64 4.00511 2.62922 0
M  V30 11572 H 1095 2.07457 1.47763 0
M  V30 11573 H 1095.78 3.40181 0.461731 0
M  V30 11574 N 1098.23 -0.663929 1.42933 0
M  V30 11575 C 1099.47 -1.42603 1.44195 0
M  V30 11576 C 1099.81 -1.94101 0.0620284 0
M  V30 11577 O 1099.08 -1.71609 -0.91546 0
M  V30 11578 C 1099.37 -2.61522 2.47544 0
M  V30 11579 C 1099.22 -2.15587 3.94769 0
M  V30 11580 C 1100.54 -3.6374 2.47753 0
M  V30 11581 H 1097.66 -0.517189 0.525056 0
M  V30 11582 H 1100.3 -0.75361 1.74415 0
M  V30 11583 H 1098.45 -3.1889 2.21904 0
M  V30 11584 H 1100.12 -1.63303 4.31428 0
M  V30 11585 H 1098.36 -1.47057 4.08114 0
M  V30 11586 H 1099.03 -3.01053 4.62678 0
M  V30 11587 H 1101.51 -3.16111 2.70579 0
M  V30 11588 H 1100.39 -4.44512 3.22025 0
M  V30 11589 H 1100.65 -4.15607 1.50742 0
M  V30 11590 N 1099.71 -1.29285 -0.901281 0
M  V30 11591 C 1100.98 -1.07847 -1.63182 0
M  V30 11592 C 1101.36 0.377927 -2.07689 0
M  V30 11593 O 1100.71 1.36642 -1.83143 0
M  V30 11594 C 1100.92 -2.06457 -2.81383 0
M  V30 11595 C 1102.27 -2.37289 -3.52107 0
M  V30 11596 O 1103.29 -2.0464 -2.91549 0
M  V30 11597 O 1102.15 -2.93067 -4.61274 0
M  V30 11598 H 1099.25 -0.413073 -0.71645 0
M  V30 11599 H 1101.79 -1.40651 -0.949488 0
M  V30 11600 H 1100.56 -3.04561 -2.4568 0
M  V30 11601 H 1100.19 -1.74374 -3.57323 0
M  V30 11602 N 1101.18 1.11143 -1.11736 0
M  V30 11603 C 1102.09 2.20851 -0.791331 0
M  V30 11604 C 1103.11 1.72644 0.216833 0
M  V30 11605 O 1104.29 2.01332 0.0522401 0
M  V30 11606 C 1101.35 3.4585 -0.242694 0
M  V30 11607 C 1100.41 4.08829 -1.30986 0
M  V30 11608 C 1099.65 5.27861 -0.787305 0
M  V30 11609 O 1099.87 5.69122 0.381549 0
M  V30 11610 O 1098.8 5.81506 -1.55352 0
M  V30 11611 H 1102.63 2.51158 -1.70744 0
M  V30 11612 H 1100.21 1.19739 -0.893478 0
M  V30 11613 H 1102.1 4.21359 0.0587472 0
M  V30 11614 H 1100.77 3.17187 0.646079 0
M  V30 11615 H 1099.68 3.35037 -1.66436 0
M  V30 11616 H 1101.01 4.41678 -2.17213 0
M  V30 11617 N 1102.66 0.908147 1.28804 0
M  V30 11618 C 1103.94 0.457561 1.90173 0
M  V30 11619 C 1104.32 -1.06333 1.82364 0
M  V30 11620 O 1103.67 -1.90892 1.25589 0
M  V30 11621 C 1103.88 0.981624 3.34911 0
M  V30 11622 C 1105.23 1.03037 4.11908 0
M  V30 11623 O 1106.25 0.929878 3.43848 0
M  V30 11624 O 1105.11 1.18257 5.33552 0
M  V30 11625 H 1102.2 0.144081 0.814352 0
M  V30 11626 H 1104.75 0.998565 1.37211 0
M  V30 11627 H 1103.52 2.02561 3.34791 0
M  V30 11628 H 1103.14 0.421122 3.95364 0
M  V30 11629 N 1104.14 -1.42577 0.671525 0
M  V30 11630 C 1105.05 -2.34598 -0.00898225 0
M  V30 11631 C 1106.07 -1.54909 -0.792407 0
M  V30 11632 O 1107.24 -1.87491 -0.735477 0
M  V30 11633 C 1104.31 -3.33405 -0.950888 0
M  V30 11634 C 1103.37 -4.28993 -0.16236 0
M  V30 11635 C 1102.6 -5.2308 -1.0594 0
M  V30 11636 O 1102.82 -5.22022 -2.2989 0
M  V30 11637 O 1101.76 -5.99632 -0.521966 0
M  V30 11638 H 1105.58 -2.94321 0.748927 0
M  V30 11639 H 1103.17 -1.43025 0.43175 0
M  V30 11640 H 1105.05 -3.94115 -1.49169 0
M  V30 11641 H 1103.73 -2.7616 -1.68871 0
M  V30 11642 H 1102.63 -3.71707 0.42247 0
M  V30 11643 H 1103.97 -4.8927 0.536274 0
M  V30 11644 N 1105.62 -0.414636 -1.52048 0
M  V30 11645 C 1106.53 0.414861 -2.30903 0
M  V30 11646 C 1107.54 1.04855 -1.38858 0
M  V30 11647 O 1108.72 1.04886 -1.71933 0
M  V30 11648 C 1105.79 1.51356 -3.11917 0
M  V30 11649 C 1104.85 0.902359 -4.19709 0
M  V30 11650 C 1104.08 1.9487 -4.96852 0
M  V30 11651 O 1104.3 3.16766 -4.74358 0
M  V30 11652 O 1103.24 1.55186 -5.8155 0
M  V30 11653 H 1107.06 -0.228251 -3.02841 0
M  V30 11654 H 1104.65 -0.177704 -1.48339 0
M  V30 11655 H 1106.53 2.15127 -3.62351 0
M  V30 11656 H 1105.2 2.14117 -2.42767 0
M  V30 11657 H 1104.11 0.22721 -3.73409 0
M  V30 11658 H 1105.44 0.318587 -4.91168 0
M  V30 11659 N 1107.1 1.56929 -0.145233 0
M  V30 11660 C 1108.34 1.95681 0.50532 0
M  V30 11661 C 1108.67 1.03098 1.65516 0
M  V30 11662 O 1107.94 0.0921961 1.95683 0
M  V30 11663 H 1106.52 0.72252 0.189668 0
M  V30 11664 H 1109.18 1.93651 -0.220318 0
M  V30 11665 H 1108.27 2.99359 0.882631 0
M  V30 11666 N 1108.58 -0.128553 1.57075 0
M  V30 11667 C 1109.99 -0.686713 1.73612 0
M  V30 11668 C 1110.34 -1.80778 0.762478 0
M  V30 11669 O 1109.46 -2.16297 -0.0667779 0
M  V30 11670 C 1110.06 -1.25246 3.148 0
M  V30 11671 C 1108.62 -1.757 3.32876 0
M  V30 11672 C 1107.76 -0.652844 2.69506 0
M  V30 11673 H 1110.71 0.0972859 1.58402 0
M  V30 11674 H 1110.74 -2.1222 3.15821 0
M  V30 11675 H 1110.25 -0.436308 3.8564 0
M  V30 11676 H 1108.35 -2.59824 2.67063 0
M  V30 11677 H 1108.46 -1.87302 4.4097 0
M  V30 11678 H 1106.83 -1.08408 2.30477 0
M  V30 11679 H 1107.61 0.15217 3.42963 0
M  V30 11680 N 1110.05 -1.5248 -0.398459 0
M  V30 11681 C 1111.28 -1.71221 -1.17039 0
M  V30 11682 C 1111.7 -0.425515 -1.83224 0
M  V30 11683 O 1111.06 0.617938 -1.70444 0
M  V30 11684 C 1111.11 -2.8562 -2.20121 0
M  V30 11685 O 1110.21 -2.51934 -3.26501 0
M  V30 11686 H 1109.55 -0.569654 -0.34116 0
M  V30 11687 H 1112.08 -1.99231 -0.465652 0
M  V30 11688 H 1112.09 -3.10842 -2.64275 0
M  V30 11689 H 1110.77 -3.78969 -1.71334 0
M  V30 11690 H 1109.35 -2.3742 -2.87552 0
M  V30 11691 N 1111.53 0.65634 -1.43283 0
M  V30 11692 C 1112.76 1.44906 -1.48382 0
M  V30 11693 C 1113.18 1.87823 -0.101993 0
M  V30 11694 O 1112.54 1.57178 0.903597 0
M  V30 11695 C 1112.59 2.66231 -2.43215 0
M  V30 11696 O 1111.69 3.65176 -1.91625 0
M  V30 11697 H 1111.03 0.434601 -0.502014 0
M  V30 11698 H 1113.56 0.803429 -1.88165 0
M  V30 11699 H 1113.57 3.14083 -2.60414 0
M  V30 11700 H 1112.25 2.34336 -3.43598 0
M  V30 11701 H 1110.82 3.24302 -1.84072 0
M  V30 11702 N 1113.01 1.29761 0.894412 0
M  V30 11703 C 1114.43 1.07888 1.17611 0
M  V30 11704 C 1114.63 -0.16644 2.00811 0
M  V30 11705 O 1113.68 -0.86272 2.37304 0
M  V30 11706 C 1114.99 2.33723 1.89193 0
M  V30 11707 C 1116.54 2.39095 2.01997 0
M  V30 11708 C 1117.02 3.64747 2.7699 0
M  V30 11709 N 1118.51 3.65501 2.84541 0
M  V30 11710 C 1119.24 4.59411 3.43117 0
M  V30 11711 N 1118.74 5.63657 4.02818 0
M  V30 11712 N 1120.53 4.46971 3.40842 0
M  V30 11713 H 1112.68 2.0967 0.339421 0
M  V30 11714 H 1114.95 0.923788 0.212882 0
M  V30 11715 H 1114.65 3.24551 1.35496 0
M  V30 11716 H 1114.53 2.41642 2.89636 0
M  V30 11717 H 1116.91 1.48751 2.54867 0
M  V30 11718 H 1116.99 2.35158 1.0067 0
M  V30 11719 H 1116.64 4.55445 2.24794 0
M  V30 11720 H 1116.57 3.65944 3.78672 0
M  V30 11721 H 1119.06 2.90129 2.42144 0
M  V30 11722 H 1119.37 6.31429 4.45552 0
M  V30 11723 H 1117.72 5.67461 4.01265 0
M  V30 11724 H 1120.91 3.64719 2.93424 0
M  V30 11725 H 1121.08 5.20341 3.86198 0
M  V30 11726 N 1114.49 -1.10549 1.12324 0
M  V30 11727 C 1115.76 -1.78968 0.789287 0
M  V30 11728 C 1116.14 -1.984 -0.721156 0
M  V30 11729 O 1115.49 -1.5761 -1.65443 0
M  V30 11730 C 1115.7 -3.12044 1.563 0
M  V30 11731 C 1117.05 -3.86939 1.74825 0
M  V30 11732 O 1118.07 -3.21761 1.52802 0
M  V30 11733 O 1116.93 -5.0392 2.11488 0
M  V30 11734 H 1114.03 -0.775617 0.286962 0
M  V30 11735 H 1116.57 -1.17209 1.2272 0
M  V30 11736 H 1115.35 -2.93313 2.59005 0
M  V30 11737 H 1114.97 -3.81521 1.11926 0
M  V30 11738 N 1115.97 -0.914965 -1.28321 0
M  V30 11739 C 1117.38 -0.613297 -1.47346 0
M  V30 11740 C 1117.58 0.84106 -1.83108 0
M  V30 11741 O 1116.64 1.62004 -1.93678 0
M  V30 11742 C 1117.95 -1.55224 -2.57538 0
M  V30 11743 C 1119.5 -1.55909 -2.71407 0
M  V30 11744 C 1119.97 -2.48468 -3.84744 0
M  V30 11745 N 1121.46 -2.46602 -3.92099 0
M  V30 11746 C 1122.2 -3.14917 -4.79182 0
M  V30 11747 N 1121.7 -3.92566 -5.70845 0
M  V30 11748 N 1123.49 -3.03998 -4.72802 0
M  V30 11749 H 1115.64 -1.85539 -1.03388 0
M  V30 11750 H 1117.9 -0.795875 -0.515061 0
M  V30 11751 H 1117.61 -2.58917 -2.38023 0
M  V30 11752 H 1117.48 -1.28426 -3.54664 0
M  V30 11753 H 1119.87 -0.52953 -2.9031 0
M  V30 11754 H 1119.95 -1.86751 -1.74808 0
M  V30 11755 H 1119.59 -3.51526 -3.66595 0
M  V30 11756 H 1119.52 -2.14928 -4.80743 0
M  V30 11757 H 1122.02 -1.90199 -3.26547 0
M  V30 11758 H 1122.33 -4.41709 -6.34123 0
M  V30 11759 H 1120.67 -3.96671 -5.70681 0
M  V30 11760 H 1123.86 -2.42839 -4.00184 0
M  V30 11761 H 1124.04 -3.57511 -5.40454 0
M  V30 11762 N 1117.44 1.42219 -0.679077 0
M  V30 11763 C 1118.41 2.29197 -0.0125475 0
M  V30 11764 C 1119.41 1.43544 0.724691 0
M  V30 11765 O 1120.6 1.64884 0.562052 0
M  V30 11766 C 1117.73 3.26122 0.992846 0
M  V30 11767 H 1118.92 2.89629 -0.778154 0
M  V30 11768 H 1116.47 1.4993 -0.44166 0
M  V30 11769 H 1117.21 2.70637 1.78679 0
M  V30 11770 H 1116.99 3.89302 0.467544 0
M  V30 11771 H 1118.48 3.91339 1.45751 0
M  V30 11772 N 1118.92 0.422693 1.51826 0
M  V30 11773 C 1119.85 -0.386913 2.30272 0
M  V30 11774 C 1120.83 -1.03411 1.35056 0
M  V30 11775 O 1122.02 -1.04055 1.6397 0
M  V30 11776 C 1119.15 -1.49645 3.13407 0
M  V30 11777 C 1118.1 -0.973532 4.16781 0
M  V30 11778 C 1117.43 -2.1777 4.88344 0
M  V30 11779 C 1118.73 -0.0181194 5.22297 0
M  V30 11780 H 1120.42 0.267697 2.98201 0
M  V30 11781 H 1117.97 0.130186 1.4341 0
M  V30 11782 H 1119.92 -2.06993 3.67059 0
M  V30 11783 H 1118.64 -2.17914 2.43272 0
M  V30 11784 H 1117.3 -0.42237 3.64159 0
M  V30 11785 H 1116.95 -2.84625 4.14726 0
M  V30 11786 H 1116.65 -1.83427 5.58237 0
M  V30 11787 H 1118.18 -2.75699 5.44814 0
M  V30 11788 H 1119.59 -0.500822 5.71108 0
M  V30 11789 H 1117.99 0.237163 5.99631 0
M  V30 11790 H 1119.06 0.923065 4.76033 0
M  V30 11791 N 1120.4 -1.5685 0.153553 0
M  V30 11792 C 1121.36 -2.15894 -0.769564 0
M  V30 11793 C 1122.36 -1.10239 -1.17064 0
M  V30 11794 O 1123.55 -1.35845 -1.09049 0
M  V30 11795 C 1120.68 -2.72738 -2.04516 0
M  V30 11796 H 1121.88 -2.98807 -0.255842 0
M  V30 11797 H 1119.43 -1.56005 -0.0959279 0
M  V30 11798 H 1120.17 -1.9351 -2.60239 0
M  V30 11799 H 1119.95 -3.50042 -1.76672 0
M  V30 11800 H 1121.44 -3.18208 -2.70432 0
M  V30 11801 N 1121.88 0.120221 -1.57141 0
M  V30 11802 C 1122.81 1.14876 -2.03287 0
M  V30 11803 C 1123.79 1.43259 -0.917112 0
M  V30 11804 O 1124.97 1.53721 -1.18674 0
M  V30 11805 C 1122.1 2.47525 -2.43616 0
M  V30 11806 C 1121.06 2.33607 -3.58625 0
M  V30 11807 C 1120.38 3.71207 -3.84849 0
M  V30 11808 C 1121.68 1.79761 -4.90391 0
M  V30 11809 H 1123.38 0.764943 -2.89463 0
M  V30 11810 H 1120.92 0.366516 -1.39258 0
M  V30 11811 H 1122.88 3.19728 -2.74504 0
M  V30 11812 H 1121.6 2.87794 -1.54409 0
M  V30 11813 H 1120.26 1.63853 -3.27945 0
M  V30 11814 H 1119.91 4.0896 -2.9285 0
M  V30 11815 H 1119.61 3.62749 -4.62263 0
M  V30 11816 H 1121.13 4.44917 -4.18188 0
M  V30 11817 H 1122.55 2.4178 -5.19822 0
M  V30 11818 H 1120.94 1.82126 -5.71795 0
M  V30 11819 H 1122.01 0.755087 -4.78985 0
M  V30 11820 N 1123.36 1.52689 0.390367 0
M  V30 11821 C 1124.6 1.69354 1.1445 0
M  V30 11822 C 1124.96 0.423677 1.87267 0
M  V30 11823 O 1126.16 0.466669 2.64718 0
M  V30 11824 C 1124.43 2.89356 2.0978 0
M  V30 11825 S 1125.99 3.26602 2.93047 0
M  V30 11826 H 1122.81 0.596162 0.387442 0
M  V30 11827 H 1125.41 1.90732 0.429119 0
M  V30 11828 H 1124.12 3.80003 1.55004 0
M  V30 11829 H 1123.65 2.70307 2.85828 0
M  V30 11830 H 1125.66 2.76683 4.11899 0
M  V30 11831 N 1124.83 -0.648732 1.43629 0
M  V30 11832 C 1125.77 -1.77363 1.43589 0
M  V30 11833 C 1126.75 -1.59869 0.296783 0
M  V30 11834 O 1127.93 -1.81991 0.491065 0
M  V30 11835 C 1125.06 -3.1472 1.25175 0
M  V30 11836 C 1124.1 -3.50906 2.4242 0
M  V30 11837 S 1124.94 -3.50372 4.04968 0
M  V30 11838 C 1126.09 -4.90379 3.88946 0
M  V30 11839 H 1126.32 -1.77127 2.38774 0
M  V30 11840 H 1123.86 -0.821778 1.30714 0
M  V30 11841 H 1125.82 -3.93993 1.15239 0
M  V30 11842 H 1124.48 -3.12513 0.315303 0
M  V30 11843 H 1123.67 -4.50813 2.25353 0
M  V30 11844 H 1123.27 -2.79056 2.49006 0
M  V30 11845 H 1125.56 -5.79155 3.51548 0
M  V30 11846 H 1126.51 -5.12498 4.88622 0
M  V30 11847 H 1126.91 -4.64125 3.21323 0
M  V30 11848 N 1126.31 -1.30234 -0.887518 0
M  V30 11849 C 1127.26 -1.164 -1.99298 0
M  V30 11850 C 1128.23 -0.0541536 -1.66012 0
M  V30 11851 O 1129.41 -0.223881 -1.89482 0
M  V30 11852 C 1126.55 -0.859169 -3.34234 0
M  V30 11853 C 1125.67 -2.05065 -3.80227 0
M  V30 11854 C 1124.8 -1.68413 -5.03796 0
M  V30 11855 C 1123.84 -2.8407 -5.4219 0
M  V30 11856 N 1122.98 -2.47732 -6.56942 0
M  V30 11857 H 1127.82 -2.10973 -2.10463 0
M  V30 11858 H 1125.36 -1.04969 -1.03053 0
M  V30 11859 H 1127.31 -0.663064 -4.11897 0
M  V30 11860 H 1125.94 0.0496808 -3.22762 0
M  V30 11861 H 1125 -2.35808 -2.98494 0
M  V30 11862 H 1126.31 -2.91688 -4.04623 0
M  V30 11863 H 1125.46 -1.45162 -5.89078 0
M  V30 11864 H 1124.2 -0.789553 -4.81266 0
M  V30 11865 H 1123.21 -3.0799 -4.55437 0
M  V30 11866 H 1124.43 -3.74211 -5.66695 0
M  V30 11867 H 1122.38 -1.60777 -6.35993 0
M  V30 11868 H 1122.29 -3.27887 -6.81195 0
M  V30 11869 H 1123.56 -2.27831 -7.45462 0
M  V30 11870 N 1127.79 1.09952 -1.12909 0
M  V30 11871 C 1129.03 1.83635 -0.897646 0
M  V30 11872 C 1129.39 1.83462 0.566179 0
M  V30 11873 O 1130.6 2.52748 0.914977 0
M  V30 11874 C 1128.87 3.26095 -1.46277 0
M  V30 11875 S 1130.43 4.16846 -1.37059 0
M  V30 11876 H 1127.24 0.633045 -0.32369 0
M  V30 11877 H 1129.85 1.32275 -1.43957 0
M  V30 11878 H 1128.55 3.23793 -2.52163 0
M  V30 11879 H 1128.08 3.82526 -0.918549 0
M  V30 11880 H 1130.1 4.94996 -0.345399 0
M  V30 11881 N 1129.27 0.921757 1.27833 0
M  V30 11882 C 1130.52 0.55493 1.93916 0
M  V30 11883 C 1130.83 -0.907191 1.7329 0
M  V30 11884 O 1132.04 -1.38253 2.33663 0
M  V30 11885 C 1130.49 0.941644 3.47363 0
M  V30 11886 C 1130.1 2.42404 3.76755 0
M  V30 11887 C 1131.84 0.645785 4.19559 0
M  V30 11888 C 1129.75 2.75046 5.23549 0
M  V30 11889 H 1128.68 0.203818 0.72593 0
M  V30 11890 H 1131.33 1.12176 1.4522 0
M  V30 11891 H 1129.71 0.303519 3.94835 0
M  V30 11892 H 1130.89 3.10957 3.40062 0
M  V30 11893 H 1129.2 2.69118 3.17749 0
M  V30 11894 H 1131.8 0.866237 5.27637 0
M  V30 11895 H 1132.14 -0.41676 4.14209 0
M  V30 11896 H 1132.68 1.24274 3.7789 0
M  V30 11897 H 1129.42 3.80186 5.33984 0
M  V30 11898 H 1128.94 2.11138 5.6141 0
M  V30 11899 H 1130.61 2.62474 5.91368 0
M  V30 11900 N 1130.75 -1.41857 0.686609 0
M  V30 11901 C 1132.02 -1.95082 0.142228 0
M  V30 11902 C 1132.4 -1.62646 -1.34572 0
M  V30 11903 O 1131.75 -0.928757 -2.08773 0
M  V30 11904 C 1131.96 -3.46415 0.423955 0
M  V30 11905 C 1133.31 -4.23181 0.346842 0
M  V30 11906 O 1134.33 -3.54393 0.358363 0
M  V30 11907 O 1133.19 -5.4568 0.299211 0
M  V30 11908 H 1130.29 -0.826943 0.00974 0
M  V30 11909 H 1132.83 -1.51622 0.762153 0
M  V30 11910 H 1131.6 -3.63273 1.45424 0
M  V30 11911 H 1131.23 -3.96949 -0.227391 0
M  V30 11912 N 1132.22 -0.430739 -1.51599 0
M  V30 11913 C 1133.47 0.139396 -2.01218 0
M  V30 11914 C 1133.79 1.44361 -1.31982 0
M  V30 11915 O 1134.99 2.0963 -1.72533 0
M  V30 11916 C 1133.45 0.298969 -3.58656 0
M  V30 11917 C 1133.06 -0.994424 -4.36824 0
M  V30 11918 C 1134.8 0.82323 -4.16441 0
M  V30 11919 C 1132.71 -0.800855 -5.85952 0
M  V30 11920 H 1131.64 0.0558698 -0.751927 0
M  V30 11921 H 1134.29 -0.559493 -1.74762 0
M  V30 11922 H 1132.67 1.06071 -3.8153 0
M  V30 11923 H 1133.84 -1.76398 -4.257 0
M  V30 11924 H 1132.16 -1.44672 -3.9046 0
M  V30 11925 H 1134.76 0.984434 -5.2556 0
M  V30 11926 H 1135.1 1.80388 -3.75188 0
M  V30 11927 H 1135.63 0.119982 -3.97619 0
M  V30 11928 H 1132.37 -1.75369 -6.31606 0
M  V30 11929 H 1131.89 -0.0709793 -5.99758 0
M  V30 11930 H 1133.57 -0.451459 -6.45423 0
M  V30 11931 N 1133.7 1.56767 -0.161869 0
M  V30 11932 C 1134.95 1.96594 0.485496 0
M  V30 11933 C 1135.28 1.04743 1.63887 0
M  V30 11934 O 1134.53 0.079602 1.95538 0
M  V30 11935 C 1134.83 3.42567 1.01894 0
M  V30 11936 C 1134.5 4.50897 -0.0175419 0
M  V30 11937 C 1133.16 4.80249 -0.302429 0
M  V30 11938 C 1135.51 5.16181 -0.721572 0
M  V30 11939 C 1132.84 5.72187 -1.2969 0
M  V30 11940 C 1135.19 6.09191 -1.70496 0
M  V30 11941 C 1133.86 6.36915 -1.99739 0
M  V30 11942 H 1133.13 0.719388 0.177656 0
M  V30 11943 H 1135.77 1.89837 -0.251839 0
M  V30 11944 H 1134.08 3.4623 1.83391 0
M  V30 11945 H 1135.77 3.70719 1.52867 0
M  V30 11946 H 1132.36 4.28062 0.21468 0
M  V30 11947 H 1136.55 4.93624 -0.514681 0
M  V30 11948 H 1131.8 5.91953 -1.52974 0
M  V30 11949 H 1135.98 6.58849 -2.25591 0
M  V30 11950 H 1133.61 7.07958 -2.76948 0
M  V30 11951 N 1135.18 -0.111886 1.57202 0
M  V30 11952 C 1136.42 -0.82422 1.87045 0
M  V30 11953 C 1136.78 -1.76713 0.750765 0
M  V30 11954 O 1137.99 -2.52157 0.931154 0
M  V30 11955 C 1136.26 -1.5483 3.22122 0
M  V30 11956 S 1137.82 -2.30123 3.73616 0
M  V30 11957 H 1134.63 -0.274945 0.655687 0
M  V30 11958 H 1137.24 -0.0821899 1.95327 0
M  V30 11959 H 1135.94 -0.847704 4.0155 0
M  V30 11960 H 1135.47 -2.33056 3.16936 0
M  V30 11961 H 1137.49 -3.5597 3.45687 0
M  V30 11962 N 1136.66 -1.52894 -0.382264 0
M  V30 11963 C 1137.9 -1.68515 -1.12829 0
M  V30 11964 C 1138.24 -0.427211 -1.89443 0
M  V30 11965 O 1137.51 0.57516 -1.85801 0
M  V30 11966 C 1137.8 -2.92449 -2.10108 0
M  V30 11967 C 1137.65 -4.2836 -1.37214 0
M  V30 11968 C 1138.97 -3.11944 -3.1045 0
M  V30 11969 H 1136.09 -0.613223 -0.408811 0
M  V30 11970 H 1138.73 -1.85503 -0.410921 0
M  V30 11971 H 1136.88 -2.78097 -2.71283 0
M  V30 11972 H 1138.55 -4.54493 -0.789516 0
M  V30 11973 H 1136.79 -4.28532 -0.673973 0
M  V30 11974 H 1137.46 -5.11178 -2.0833 0
M  V30 11975 H 1139.94 -3.25372 -2.59369 0
M  V30 11976 H 1138.82 -4.00125 -3.75754 0
M  V30 11977 H 1139.08 -2.26465 -3.79692 0
M  V30 11978 N 1138.14 0.641106 -1.43971 0
M  V30 11979 C 1139.38 1.40118 -1.4744 0
M  V30 11980 C 1139.74 1.92131 -0.101647 0
M  V30 11981 O 1139.03 1.70112 0.881614 0
M  V30 11982 C 1139.23 2.59092 -2.46183 0
M  V30 11983 C 1139.05 2.18725 -3.92924 0
M  V30 11984 C 1137.82 2.06475 -4.6119 0
M  V30 11985 C 1140.02 1.78255 -4.82421 0
M  V30 11986 N 1138 1.59566 -5.928 0
M  V30 11987 C 1139.38 1.42517 -6.03398 0
M  V30 11988 C 1141.43 1.65546 -4.69573 0
M  V30 11989 C 1140.13 0.953428 -7.12953 0
M  V30 11990 C 1142.16 1.19776 -5.79144 0
M  V30 11991 C 1141.52 0.84983 -6.99255 0
M  V30 11992 H 1137.62 0.507917 -0.594596 0
M  V30 11993 H 1140.2 0.736517 -1.80232 0
M  V30 11994 H 1138.38 3.232 -2.15398 0
M  V30 11995 H 1140.11 3.25847 -2.40012 0
M  V30 11996 H 1136.86 2.26615 -4.15863 0
M  V30 11997 H 1137.29 1.38438 -6.62694 0
M  V30 11998 H 1141.93 1.91081 -3.77158 0
M  V30 11999 H 1139.65 0.68558 -8.05187 0
M  V30 12000 H 1143.23 1.10415 -5.71226 0
M  V30 12001 H 1142.11 0.501081 -7.82597 0
M  V30 12002 N 1139.62 1.30703 0.880598 0
M  V30 12003 C 1140.89 1.1043 1.61445 0
M  V30 12004 C 1141.27 -0.344837 2.08264 0
M  V30 12005 O 1140.62 -1.33711 1.85293 0
M  V30 12006 C 1140.83 2.10908 2.78063 0
M  V30 12007 C 1142.18 2.42861 3.48287 0
M  V30 12008 O 1143.2 2.09252 2.88257 0
M  V30 12009 O 1142.06 3.00369 4.56553 0
M  V30 12010 H 1139.16 0.424419 0.709787 0
M  V30 12011 H 1141.7 1.42144 0.926991 0
M  V30 12012 H 1140.47 3.08431 2.40803 0
M  V30 12013 H 1140.1 1.80036 3.54503 0
M  V30 12014 N 1141.09 -1.09351 1.1349 0
M  V30 12015 C 1142.33 -1.83156 0.907372 0
M  V30 12016 C 1142.7 -1.8376 -0.556441 0
M  V30 12017 O 1143.9 -2.5323 -0.90156 0
M  V30 12018 C 1142.17 -3.25315 1.48004 0
M  V30 12019 S 1143.73 -4.16113 1.39268 0
M  V30 12020 H 1140.55 -0.631319 0.327043 0
M  V30 12021 H 1143.15 -1.31509 1.44657 0
M  V30 12022 H 1141.85 -3.22452 2.53876 0
M  V30 12023 H 1141.38 -3.82034 0.938822 0
M  V30 12024 H 1143.4 -4.94806 0.371645 0
M  V30 12025 N 1142.57 -0.928524 -1.27343 0
M  V30 12026 C 1143.81 -0.576696 -1.96096 0
M  V30 12027 C 1144.18 0.866074 -1.71357 0
M  V30 12028 O 1145.38 1.32621 -2.33805 0
M  V30 12029 C 1143.65 -0.894692 -3.4602 0
M  V30 12030 S 1145.21 -0.651503 -4.33936 0
M  V30 12031 H 1142.02 -0.212847 -0.678393 0
M  V30 12032 H 1144.63 -1.19714 -1.5456 0
M  V30 12033 H 1143.33 -1.94239 -3.61524 0
M  V30 12034 H 1142.86 -0.263478 -3.92517 0
M  V30 12035 H 1144.88 0.490314 -4.93772 0
M  V30 12036 N 1144.05 1.41491 -0.694123 0
M  V30 12037 C 1145.3 2.02055 -0.233559 0
M  V30 12038 C 1145.65 1.53987 1.1535 0
M  V30 12039 O 1144.94 0.740611 1.76707 0
M  V30 12040 C 1145.14 3.56666 -0.228869 0
M  V30 12041 C 1144.97 4.1974 -1.61394 0
M  V30 12042 C 1143.74 4.54095 -2.21643 0
M  V30 12043 C 1145.93 4.46043 -2.56028 0
M  V30 12044 N 1143.92 5.02449 -3.5273 0
M  V30 12045 C 1145.29 4.96156 -3.71792 0
M  V30 12046 C 1147.34 4.28053 -2.54313 0
M  V30 12047 C 1146.05 5.3017 -4.8612 0
M  V30 12048 C 1148.07 4.63155 -3.67752 0
M  V30 12049 C 1147.43 5.13438 -4.82246 0
M  V30 12050 H 1143.53 0.77098 -0.130821 0
M  V30 12051 H 1146.12 1.72057 -0.91129 0
M  V30 12052 H 1144.29 3.8614 0.418344 0
M  V30 12053 H 1146.02 4.03949 0.246387 0
M  V30 12054 H 1142.77 4.40501 -1.73943 0
M  V30 12055 H 1143.2 5.31033 -4.1992 0
M  V30 12056 H 1147.84 3.88416 -1.67011 0
M  V30 12057 H 1145.56 5.68731 -5.74083 0
M  V30 12058 H 1149.14 4.50895 -3.67675 0
M  V30 12059 H 1148.02 5.4009 -5.6857 0
M  V30 12060 N 1145.53 0.438773 1.51369 0
M  V30 12061 C 1146.49 -0.36032 2.2635 0
M  V30 12062 C 1147.49 -0.948465 1.29849 0
M  V30 12063 O 1148.68 -0.822692 1.53549 0
M  V30 12064 C 1145.81 -1.50994 3.05636 0
M  V30 12065 H 1147.01 0.296826 2.98427 0
M  V30 12066 H 1144.56 0.191978 1.55117 0
M  V30 12067 H 1145.29 -2.2031 2.37979 0
M  V30 12068 H 1145.08 -1.09437 3.76518 0
M  V30 12069 H 1146.57 -2.07447 3.6243 0
M  V30 12070 N 1147.01 -1.56678 0.170181 0
M  V30 12071 C 1148.25 -1.97913 -0.469262 0
M  V30 12072 C 1148.61 -1.05438 -1.60936 0
M  V30 12073 O 1147.9 -0.0938273 -1.9137 0
M  V30 12074 C 1148.09 -3.43103 -1.00076 0
M  V30 12075 C 1147.92 -4.49617 0.0863088 0
M  V30 12076 C 1146.69 -5.02454 0.535589 0
M  V30 12077 C 1148.89 -5.06606 0.886289 0
M  V30 12078 N 1146.87 -5.926 1.60308 0
M  V30 12079 C 1148.24 -5.93182 1.80374 0
M  V30 12080 C 1150.3 -4.89109 0.931495 0
M  V30 12081 C 1149 -6.64134 2.76257 0
M  V30 12082 C 1151.03 -5.60781 1.87827 0
M  V30 12083 C 1150.39 -6.47084 2.78319 0
M  V30 12084 H 1146.49 -0.769393 -0.139852 0
M  V30 12085 H 1149.07 -1.92817 0.270136 0
M  V30 12086 H 1147.24 -3.48747 -1.70968 0
M  V30 12087 H 1148.98 -3.71351 -1.60874 0
M  V30 12088 H 1145.73 -4.73412 0.133508 0
M  V30 12089 H 1146.15 -6.42378 2.13729 0
M  V30 12090 H 1150.8 -4.22084 0.245904 0
M  V30 12091 H 1148.51 -7.30373 3.45805 0
M  V30 12092 H 1152.1 -5.49229 1.91934 0
M  V30 12093 H 1150.98 -7.01569 3.50386 0
M  V30 12094 N 1148.48 0.103547 -1.57259 0
M  V30 12095 C 1149.41 1.12714 -2.04494 0
M  V30 12096 C 1150.39 1.42278 -0.932255 0
M  V30 12097 O 1151.58 1.52453 -1.20298 0
M  V30 12098 C 1148.71 2.44927 -2.46228 0
M  V30 12099 C 1147.66 2.2979 -3.61082 0
M  V30 12100 C 1146.99 3.67105 -3.88765 0
M  V30 12101 C 1148.29 1.7455 -4.9227 0
M  V30 12102 H 1149.98 0.734198 -2.90258 0
M  V30 12103 H 1147.53 0.351725 -1.39638 0
M  V30 12104 H 1149.48 3.16798 -2.77879 0
M  V30 12105 H 1148.21 2.8614 -1.57453 0
M  V30 12106 H 1146.87 1.60366 -3.29664 0
M  V30 12107 H 1146.51 4.05831 -2.97171 0
M  V30 12108 H 1146.21 3.57825 -4.66084 0
M  V30 12109 H 1147.74 4.40456 -4.22884 0
M  V30 12110 H 1149.15 2.36253 -5.22358 0
M  V30 12111 H 1147.55 1.76051 -5.73695 0
M  V30 12112 H 1148.62 0.704242 -4.79759 0
M  V30 12113 N 1149.96 1.53094 0.37415 0
M  V30 12114 C 1150.91 1.78927 1.45787 0
M  V30 12115 C 1151.88 0.633187 1.53558 0
M  V30 12116 O 1153.06 0.874472 1.69581 0
M  V30 12117 C 1150.2 1.97726 2.8284 0
M  V30 12118 C 1149.32 3.25436 2.84104 0
M  V30 12119 C 1148.45 3.3447 4.12678 0
M  V30 12120 C 1147.49 4.56246 4.08051 0
M  V30 12121 N 1146.63 4.6248 5.28258 0
M  V30 12122 H 1151.47 2.71404 1.2306 0
M  V30 12123 H 1149 1.34453 0.596716 0
M  V30 12124 H 1150.96 2.06611 3.62447 0
M  V30 12125 H 1149.59 1.08593 3.03986 0
M  V30 12126 H 1148.64 3.25548 1.96781 0
M  V30 12127 H 1149.96 4.15112 2.76556 0
M  V30 12128 H 1149.11 3.4262 5.00696 0
M  V30 12129 H 1147.85 2.42795 4.22968 0
M  V30 12130 H 1146.85 4.48206 3.1842 0
M  V30 12131 H 1148.08 5.49254 3.99371 0
M  V30 12132 H 1146.03 3.73703 5.3915 0
M  V30 12133 H 1145.94 5.46049 5.22845 0
M  V30 12134 H 1147.21 4.74903 6.18132 0
M  V30 12135 N 1151.44 -0.633461 1.44309 0
M  V30 12136 C 1152.69 -1.39306 1.46969 0
M  V30 12137 C 1153.01 -1.94235 0.101403 0
M  V30 12138 O 1152.27 -1.73959 -0.896475 0
M  V30 12139 C 1152.57 -2.57783 2.47554 0
M  V30 12140 C 1152.23 -2.21156 3.92939 0
M  V30 12141 C 1150.9 -2.1088 4.32531 0
M  V30 12142 C 1153.25 -1.9218 4.84475 0
M  V30 12143 C 1150.58 -1.69812 5.61588 0
M  V30 12144 C 1152.93 -1.52605 6.13917 0
M  V30 12145 C 1151.59 -1.40868 6.52466 0
M  V30 12146 H 1150.86 -0.509758 0.537799 0
M  V30 12147 H 1153.51 -0.718552 1.77508 0
M  V30 12148 H 1151.81 -3.30456 2.1049 0
M  V30 12149 H 1153.51 -3.16009 2.46859 0
M  V30 12150 H 1150.1 -2.30072 3.61614 0
M  V30 12151 H 1154.29 -1.9903 4.54644 0
M  V30 12152 H 1149.54 -1.59327 5.90275 0
M  V30 12153 H 1153.72 -1.29221 6.84306 0
M  V30 12154 H 1151.34 -1.08818 7.52371 0
M  V30 12155 N 1152.92 -1.31168 -0.873655 0
M  V30 12156 C 1153.85 -1.14325 -1.98651 0
M  V30 12157 C 1154.86 -0.0833421 -1.62587 0
M  V30 12158 O 1156.05 -0.330477 -1.75414 0
M  V30 12159 C 1153.15 -0.723747 -3.31082 0
M  V30 12160 C 1152.33 -1.86787 -3.95512 0
M  V30 12161 C 1151.38 -1.43503 -5.06254 0
M  V30 12162 O 1150.41 -2.14409 -5.27273 0
M  V30 12163 N 1151.61 -0.320362 -5.79615 0
M  V30 12164 H 1154.38 -2.10179 -2.13647 0
M  V30 12165 H 1151.94 -1.23454 -1.04742 0
M  V30 12166 H 1153.93 -0.416971 -4.02546 0
M  V30 12167 H 1152.5 0.143073 -3.12272 0
M  V30 12168 H 1151.72 -2.34216 -3.17075 0
M  V30 12169 H 1153.01 -2.6343 -4.35296 0
M  V30 12170 H 1152.41 0.270215 -5.65054 0
M  V30 12171 H 1150.96 -0.0731 -6.51759 0
M  V30 12172 N 1154.4 1.08748 -1.14068 0
M  V30 12173 C 1155.31 2.19123 -0.837998 0
M  V30 12174 C 1156.32 1.73065 0.180164 0
M  V30 12175 O 1157.5 2.01398 0.00952285 0
M  V30 12176 C 1154.56 3.45257 -0.316 0
M  V30 12177 C 1153.62 4.05959 -1.39628 0
M  V30 12178 C 1152.86 5.26072 -0.899095 0
M  V30 12179 O 1153.08 5.69804 0.260744 0
M  V30 12180 O 1152.01 5.7808 -1.67652 0
M  V30 12181 H 1155.84 2.4748 -1.76033 0
M  V30 12182 H 1153.43 1.17816 -0.918675 0
M  V30 12183 H 1155.31 4.21389 -0.0306425 0
M  V30 12184 H 1153.98 3.18486 0.578654 0
M  V30 12185 H 1152.89 3.31432 -1.73505 0
M  V30 12186 H 1154.22 4.36971 -2.26533 0
M  V30 12187 N 1155.87 0.935264 1.26849 0
M  V30 12188 C 1157.12 0.57969 1.94025 0
M  V30 12189 C 1157.45 -0.880295 1.73439 0
M  V30 12190 O 1156.7 -1.64429 1.0612 0
M  V30 12191 C 1157 0.861098 3.46872 0
M  V30 12192 C 1156.67 2.30402 3.87589 0
M  V30 12193 C 1155.33 2.69848 3.98417 0
M  V30 12194 C 1157.68 3.242 4.08098 0
M  V30 12195 C 1155.01 4.02199 4.27145 0
M  V30 12196 C 1157.36 4.56141 4.38313 0
M  V30 12197 C 1156.03 4.9541 4.47354 0
M  V30 12198 H 1155.3 0.212123 0.709989 0
M  V30 12199 H 1157.94 1.18066 1.50774 0
M  V30 12200 H 1156.25 0.177534 3.91398 0
M  V30 12201 H 1157.95 0.564841 3.97002 0
M  V30 12202 H 1154.54 1.98803 3.79704 0
M  V30 12203 H 1158.72 2.94924 3.99166 0
M  V30 12204 H 1153.98 4.32295 4.32355 0
M  V30 12205 H 1158.15 5.28818 4.53128 0
M  V30 12206 H 1155.78 5.97994 4.69368 0
M  V30 12207 N 1157.35 -1.41121 0.701616 0
M  V30 12208 C 1158.6 -2.01428 0.235495 0
M  V30 12209 C 1158.93 -1.55463 -1.16382 0
M  V30 12210 O 1158.21 -0.768477 -1.78675 0
M  V30 12211 C 1158.49 -3.58849 0.299919 0
M  V30 12212 C 1158.34 -4.14924 1.73661 0
M  V30 12213 C 1159.66 -4.38809 -0.336856 0
M  V30 12214 H 1156.78 -0.731842 0.0870456 0
M  V30 12215 H 1159.42 -1.67787 0.891479 0
M  V30 12216 H 1157.57 -3.87638 -0.258611 0
M  V30 12217 H 1159.24 -3.96987 2.34945 0
M  V30 12218 H 1157.49 -3.69738 2.26884 0
M  V30 12219 H 1158.16 -5.24085 1.73318 0
M  V30 12220 H 1160.63 -4.15868 0.138886 0
M  V30 12221 H 1159.51 -5.48278 -0.261264 0
M  V30 12222 H 1159.77 -4.18728 -1.41843 0
M  V30 12223 N 1158.83 -0.446794 -1.51134 0
M  V30 12224 C 1159.79 0.348311 -2.26538 0
M  V30 12225 C 1160.79 0.941566 -1.3035 0
M  V30 12226 O 1161.98 0.814537 -1.53984 0
M  V30 12227 C 1159.12 1.49371 -3.06433 0
M  V30 12228 H 1160.31 -0.312648 -2.98266 0
M  V30 12229 H 1157.86 -0.200201 -1.55013 0
M  V30 12230 H 1158.6 2.19045 -2.39144 0
M  V30 12231 H 1158.38 1.07439 -3.77093 0
M  V30 12232 H 1159.87 2.05522 -3.63525 0
M  V30 12233 N 1160.31 1.56586 -0.178487 0
M  V30 12234 C 1161.24 2.21313 0.744486 0
M  V30 12235 C 1162.22 1.17098 1.23377 0
M  V30 12236 O 1163.4 1.45551 1.28563 0
M  V30 12237 C 1160.53 2.8595 1.97103 0
M  V30 12238 C 1159.49 3.96266 1.61732 0
M  V30 12239 C 1158.81 4.47987 2.91911 0
M  V30 12240 C 1160.11 5.15503 0.839868 0
M  V30 12241 H 1161.81 2.98698 0.204938 0
M  V30 12242 H 1159.35 1.43672 0.0971306 0
M  V30 12243 H 1161.31 3.29909 2.6218 0
M  V30 12244 H 1160.03 2.05946 2.53484 0
M  V30 12245 H 1158.69 3.52974 0.990208 0
M  V30 12246 H 1158.34 3.64765 3.46346 0
M  V30 12247 H 1158.04 5.22413 2.68995 0
M  V30 12248 H 1159.56 4.94637 3.58004 0
M  V30 12249 H 1160.98 5.5611 1.39337 0
M  V30 12250 H 1159.37 5.95891 0.709473 0
M  V30 12251 H 1160.44 4.84628 -0.162396 0
M  V30 12252 N 1161.79 -0.095206 1.57312 0
M  V30 12253 C 1162.72 -1.11627 2.05089 0
M  V30 12254 C 1163.7 -1.41782 0.939787 0
M  V30 12255 O 1164.88 -1.51813 1.21105 0
M  V30 12256 C 1162.01 -2.43618 2.47523 0
M  V30 12257 C 1160.97 -2.27872 3.62296 0
M  V30 12258 C 1160.29 -3.65038 3.90706 0
M  V30 12259 C 1161.59 -1.71936 4.93189 0
M  V30 12260 H 1163.29 -0.718795 2.90644 0
M  V30 12261 H 1160.83 -0.344315 1.39823 0
M  V30 12262 H 1162.79 -3.1532 2.79556 0
M  V30 12263 H 1161.51 -2.85301 1.58968 0
M  V30 12264 H 1160.17 -1.58615 3.3051 0
M  V30 12265 H 1159.82 -4.04249 2.99319 0
M  V30 12266 H 1159.52 -3.55349 4.67976 0
M  V30 12267 H 1161.04 -4.38208 4.25213 0
M  V30 12268 H 1162.45 -2.33479 5.23603 0
M  V30 12269 H 1160.85 -1.73006 5.74621 0
M  V30 12270 H 1161.92 -0.678789 4.80125 0
M  V30 12271 N 1163.26 -1.53291 -0.366026 0
M  V30 12272 C 1164.51 -1.69702 -1.11036 0
M  V30 12273 C 1164.84 -0.44728 -1.88979 0
M  V30 12274 O 1164.12 0.55542 -1.86401 0
M  V30 12275 C 1164.4 -2.94661 -2.06995 0
M  V30 12276 C 1164.25 -4.29791 -1.32663 0
M  V30 12277 C 1165.57 -3.15219 -3.07123 0
M  V30 12278 H 1162.69 -0.617525 -0.402284 0
M  V30 12279 H 1165.33 -1.85929 -0.391223 0
M  V30 12280 H 1163.48 -2.80958 -2.68318 0
M  V30 12281 H 1165.16 -4.55305 -0.741266 0
M  V30 12282 H 1163.4 -4.29223 -0.628484 0
M  V30 12283 H 1164.07 -5.13359 -2.02896 0
M  V30 12284 H 1166.55 -3.28105 -2.55903 0
M  V30 12285 H 1165.42 -4.04088 -3.71489 0
M  V30 12286 H 1165.68 -2.30479 -3.77269 0
M  V30 12287 N 1164.74 0.6258 -1.44643 0
M  V30 12288 C 1165.99 1.38525 -1.47706 0
M  V30 12289 C 1166.32 1.94179 -0.111703 0
M  V30 12290 O 1165.57 1.74432 0.887237 0
M  V30 12291 C 1165.87 2.56466 -2.48917 0
M  V30 12292 C 1165.54 2.19069 -3.94106 0
M  V30 12293 C 1164.2 2.08583 -4.33643 0
M  V30 12294 C 1166.55 1.89608 -4.85488 0
M  V30 12295 C 1163.88 1.66831 -5.6248 0
M  V30 12296 C 1166.23 1.49347 -6.14718 0
M  V30 12297 C 1164.9 1.37406 -6.53204 0
M  V30 12298 H 1164.17 0.506899 -0.540494 0
M  V30 12299 H 1166.81 0.709128 -1.77887 0
M  V30 12300 H 1165.12 3.29335 -2.12239 0
M  V30 12301 H 1166.81 3.14695 -2.48532 0
M  V30 12302 H 1163.4 2.28151 -3.62829 0
M  V30 12303 H 1167.59 1.96616 -4.55693 0
M  V30 12304 H 1162.84 1.56195 -5.91112 0
M  V30 12305 H 1167.02 1.2559 -6.84982 0
M  V30 12306 H 1164.65 1.04826 -7.52938 0
M  V30 12307 N 1166.22 1.31629 0.866686 0
M  V30 12308 C 1167.5 1.12136 1.60265 0
M  V30 12309 C 1167.88 -0.322729 2.08618 0
M  V30 12310 O 1167.23 -1.31738 1.86701 0
M  V30 12311 C 1167.44 2.13845 2.7581 0
M  V30 12312 C 1168.78 2.46541 3.45692 0
M  V30 12313 O 1169.81 2.12298 2.86021 0
M  V30 12314 O 1168.67 3.05194 4.53342 0
M  V30 12315 H 1165.76 0.431923 0.705246 0
M  V30 12316 H 1168.31 1.43119 0.911863 0
M  V30 12317 H 1167.08 3.10967 2.37518 0
M  V30 12318 H 1166.7 1.83786 3.52574 0
M  V30 12319 N 1167.7 -1.08142 1.14644 0
M  V30 12320 C 1169.11 -1.62061 0.926986 0
M  V30 12321 C 1169.46 -1.88805 -0.533578 0
M  V30 12322 O 1168.59 -1.64753 -1.40305 0
M  V30 12323 C 1169.18 -2.94425 1.67629 0
M  V30 12324 C 1167.74 -3.45118 1.50235 0
M  V30 12325 C 1166.89 -2.19307 1.69705 0
M  V30 12326 H 1169.84 -0.913326 1.29785 0
M  V30 12327 H 1169.86 -3.62987 1.14107 0
M  V30 12328 H 1169.37 -2.74928 2.73927 0
M  V30 12329 H 1167.47 -3.69713 0.462967 0
M  V30 12330 H 1167.59 -4.2169 2.27408 0
M  V30 12331 H 1165.95 -2.28611 1.12291 0
M  V30 12332 H 1166.73 -2.02315 2.77351 0
M  V30 12333 N 1169.18 -0.941978 -1.26351 0
M  V30 12334 C 1170.42 -0.589971 -1.93715 0
M  V30 12335 C 1170.75 0.871085 -1.73903 0
M  V30 12336 O 1170.01 1.63864 -1.06991 0
M  V30 12337 C 1170.31 -0.879481 -3.4641 0
M  V30 12338 C 1169.97 -2.32454 -3.86362 0
M  V30 12339 C 1168.63 -2.71957 -3.9698 0
M  V30 12340 C 1170.99 -3.2636 -4.06373 0
M  V30 12341 C 1168.31 -4.04459 -4.25006 0
M  V30 12342 C 1170.67 -4.58459 -4.35887 0
M  V30 12343 C 1169.33 -4.97775 -4.4472 0
M  V30 12344 H 1168.6 -0.215886 -0.708854 0
M  V30 12345 H 1171.25 -1.18863 -1.50146 0
M  V30 12346 H 1169.55 -0.198289 -3.91298 0
M  V30 12347 H 1171.25 -0.585887 -3.96697 0
M  V30 12348 H 1167.84 -2.00814 -3.78645 0
M  V30 12349 H 1172.02 -2.97037 -3.97596 0
M  V30 12350 H 1167.28 -4.34582 -4.30057 0
M  V30 12351 H 1171.45 -5.31213 -4.50317 0
M  V30 12352 H 1169.08 -6.00475 -4.66191 0
M  V30 12353 N 1170.66 1.40747 -0.709091 0
M  V30 12354 C 1171.9 2.013 -0.246174 0
M  V30 12355 C 1172.23 1.56078 1.15556 0
M  V30 12356 O 1171.51 0.777941 1.78265 0
M  V30 12357 C 1171.79 3.58685 -0.318945 0
M  V30 12358 C 1171.65 4.13997 -1.75859 0
M  V30 12359 C 1172.96 4.38981 0.31358 0
M  V30 12360 H 1170.08 0.73137 -0.0909255 0
M  V30 12361 H 1172.73 1.67312 -0.900365 0
M  V30 12362 H 1170.88 3.8777 0.23805 0
M  V30 12363 H 1172.55 3.95735 -2.37047 0
M  V30 12364 H 1170.79 3.6853 -2.28841 0
M  V30 12365 H 1171.46 5.23158 -1.76095 0
M  V30 12366 H 1173.94 4.15789 -0.160939 0
M  V30 12367 H 1172.81 5.48409 0.232184 0
M  V30 12368 H 1173.07 4.19474 1.39621 0
M  V30 12369 N 1172.13 0.454803 1.50895 0
M  V30 12370 C 1173.04 -0.353495 2.31921 0
M  V30 12371 C 1174.06 -1.01136 1.41589 0
M  V30 12372 O 1175.24 -1.00291 1.74653 0
M  V30 12373 C 1172.3 -1.43032 3.15821 0
M  V30 12374 C 1171.36 -0.790763 4.21954 0
M  V30 12375 C 1170.59 -1.81628 5.01843 0
M  V30 12376 O 1170.82 -3.04078 4.8259 0
M  V30 12377 O 1169.75 -1.39713 5.8546 0
M  V30 12378 H 1173.58 0.308463 3.02129 0
M  V30 12379 H 1171.16 0.216971 1.47816 0
M  V30 12380 H 1173.04 -2.05444 3.67927 0
M  V30 12381 H 1171.72 -2.07605 2.48358 0
M  V30 12382 H 1170.63 -0.128127 3.73881 0
M  V30 12383 H 1171.96 -0.188251 4.9184 0
M  V30 12384 N 1173.61 -1.56489 0.186789 0
M  V30 12385 C 1174.54 -2.21705 -0.732739 0
M  V30 12386 C 1175.52 -1.17751 -1.22755 0
M  V30 12387 O 1176.71 -1.46231 -1.27789 0
M  V30 12388 C 1173.84 -2.86992 -1.95584 0
M  V30 12389 C 1172.79 -3.97118 -1.59628 0
M  V30 12390 C 1172.12 -4.49529 -2.89531 0
M  V30 12391 C 1173.42 -5.15941 -0.812518 0
M  V30 12392 H 1175.11 -2.98802 -0.189094 0
M  V30 12393 H 1172.66 -1.43722 -0.0895099 0
M  V30 12394 H 1174.61 -3.31295 -2.60426 0
M  V30 12395 H 1173.33 -2.07287 -2.52388 0
M  V30 12396 H 1171.99 -3.53494 -0.971475 0
M  V30 12397 H 1171.64 -3.66596 -3.44407 0
M  V30 12398 H 1171.34 -5.23832 -2.66221 0
M  V30 12399 H 1172.87 -4.96528 -3.55376 0
M  V30 12400 H 1174.28 -5.56841 -1.36386 0
M  V30 12401 H 1172.68 -5.96259 -0.677862 0
M  V30 12402 H 1173.75 -4.84535 0.188095 0
M  V30 12403 N 1175.09 0.086862 -1.5736 0
M  V30 12404 C 1176.34 0.78884 -1.86504 0
M  V30 12405 C 1176.66 1.78329 -0.77646 0
M  V30 12406 O 1175.92 1.94354 0.229122 0
M  V30 12407 C 1176.22 1.54537 -3.22263 0
M  V30 12408 C 1175.88 0.692284 -4.45554 0
M  V30 12409 C 1174.55 0.45714 -4.79024 0
M  V30 12410 C 1176.9 0.0997695 -5.21105 0
M  V30 12411 C 1174.23 -0.380247 -5.85466 0
M  V30 12412 C 1176.58 -0.724986 -6.28432 0
M  V30 12413 C 1175.24 -0.970144 -6.60412 0
M  V30 12414 H 1174.51 0.288657 -0.682465 0
M  V30 12415 H 1177.16 0.050059 -1.91435 0
M  V30 12416 H 1175.46 2.35594 -3.13053 0
M  V30 12417 H 1177.16 2.09305 -3.42042 0
M  V30 12418 H 1173.75 0.885675 -4.19349 0
M  V30 12419 H 1177.94 0.268583 -4.95573 0
M  V30 12420 H 1173.19 -0.579084 -6.08651 0
M  V30 12421 H 1177.37 -1.19093 -6.86141 0
M  V30 12422 H 1174.99 -1.6208 -7.42721 0
M  V30 12423 N 1176.57 1.53483 0.357892 0
M  V30 12424 C 1177.82 1.69256 1.09706 0
M  V30 12425 C 1178.13 0.454888 1.90237 0
M  V30 12426 O 1179.34 0.4933 2.66981 0
M  V30 12427 C 1177.79 2.99238 1.99961 0
M  V30 12428 C 1177.4 4.30293 1.24706 0
M  V30 12429 C 1179.14 3.24378 2.73823 0
M  V30 12430 C 1177.05 5.5136 2.13907 0
M  V30 12431 H 1175.98 0.630657 0.413265 0
M  V30 12432 H 1178.63 1.79983 0.357518 0
M  V30 12433 H 1177.01 2.82332 2.77677 0
M  V30 12434 H 1178.19 4.57857 0.519995 0
M  V30 12435 H 1176.5 4.11656 0.626736 0
M  V30 12436 H 1179.1 4.12015 3.40805 0
M  V30 12437 H 1179.44 2.40769 3.39612 0
M  V30 12438 H 1179.98 3.41994 2.03187 0
M  V30 12439 H 1176.71 6.3747 1.52684 0
M  V30 12440 H 1176.23 5.28065 2.84442 0
M  V30 12441 H 1177.91 5.86448 2.7329 0
M  V30 12442 N 1178.05 -0.61812 1.44973 0
M  V30 12443 C 1179.27 -1.40429 1.51945 0
M  V30 12444 C 1179.69 -1.88215 0.148556 0
M  V30 12445 O 1179.05 -1.61603 -0.847978 0
M  V30 12446 C 1179.1 -2.61588 2.49507 0
M  V30 12447 O 1178.82 -2.15791 3.81269 0
M  V30 12448 C 1180.32 -3.5457 2.66074 0
M  V30 12449 H 1177.54 -0.43023 0.514921 0
M  V30 12450 H 1180.08 -0.754791 1.90061 0
M  V30 12451 H 1178.24 -3.22602 2.14492 0
M  V30 12452 H 1178.65 -2.94434 4.34061 0
M  V30 12453 H 1180.13 -4.36155 3.38338 0
M  V30 12454 H 1180.6 -4.04227 1.71746 0
M  V30 12455 H 1181.21 -2.99416 3.02043 0
M  V30 12456 N 1179.52 -1.32087 -0.859693 0
M  V30 12457 C 1180.45 -1.23204 -1.98351 0
M  V30 12458 C 1181.43 -0.116974 -1.69697 0
M  V30 12459 O 1182.62 -0.303301 -1.91817 0
M  V30 12460 C 1179.75 -0.949171 -3.34078 0
M  V30 12461 C 1178.7 -2.02493 -3.77069 0
M  V30 12462 C 1178.03 -1.59455 -5.1037 0
M  V30 12463 C 1179.33 -3.43934 -3.93074 0
M  V30 12464 H 1181.02 -2.17227 -2.0604 0
M  V30 12465 H 1178.57 -1.04577 -0.989931 0
M  V30 12466 H 1180.52 -0.873594 -4.12245 0
M  V30 12467 H 1179.25 0.0267095 -3.26589 0
M  V30 12468 H 1177.91 -2.09057 -3.01149 0
M  V30 12469 H 1177.55 -0.606256 -4.99333 0
M  V30 12470 H 1177.25 -2.31429 -5.40106 0
M  V30 12471 H 1178.78 -1.53325 -5.91036 0
M  V30 12472 H 1180.19 -3.39986 -4.61608 0
M  V30 12473 H 1178.59 -4.14214 -4.3422 0
M  V30 12474 H 1179.66 -3.83965 -2.9614 0
M  V30 12475 N 1181 1.07532 -1.15215 0
M  V30 12476 C 1182.24 1.81689 -0.936396 0
M  V30 12477 C 1182.61 1.84622 0.527136 0
M  V30 12478 O 1183.81 2.54632 0.861159 0
M  V30 12479 C 1182.08 3.22919 -1.53161 0
M  V30 12480 S 1183.64 4.13845 -1.4587 0
M  V30 12481 H 1180.45 0.626036 -0.337045 0
M  V30 12482 H 1183.06 1.29191 -1.4673 0
M  V30 12483 H 1181.76 3.18372 -2.58974 0
M  V30 12484 H 1181.29 3.80492 -0.999482 0
M  V30 12485 H 1183.31 4.94152 -0.450317 0
M  V30 12486 N 1182.48 0.948665 1.2585 0
M  V30 12487 C 1183.73 0.595938 1.92695 0
M  V30 12488 C 1184.04 -0.870229 1.75175 0
M  V30 12489 O 1185.25 -1.33266 2.36543 0
M  V30 12490 C 1183.7 1.01511 3.45288 0
M  V30 12491 C 1183.31 2.50341 3.71528 0
M  V30 12492 C 1185.06 0.734635 4.18095 0
M  V30 12493 C 1182.96 2.8609 5.17597 0
M  V30 12494 H 1181.89 0.219171 0.721443 0
M  V30 12495 H 1184.54 1.15231 1.42807 0
M  V30 12496 H 1182.93 0.387201 3.94102 0
M  V30 12497 H 1184.1 3.18101 3.3339 0
M  V30 12498 H 1182.42 2.75797 3.11969 0
M  V30 12499 H 1185.01 0.977962 5.25681 0
M  V30 12500 H 1185.36 -0.328807 4.14999 0
M  V30 12501 H 1185.89 1.32262 3.75169 0
M  V30 12502 H 1182.63 3.91427 5.25799 0
M  V30 12503 H 1182.15 2.22999 5.56805 0
M  V30 12504 H 1183.83 2.74959 5.85668 0
M  V30 12505 N 1183.96 -1.40369 0.716545 0
M  V30 12506 C 1185.2 -2.01167 0.256846 0
M  V30 12507 C 1185.54 -1.56689 -1.14727 0
M  V30 12508 O 1184.81 -0.787384 -1.7785 0
M  V30 12509 C 1185.1 -3.58511 0.337963 0
M  V30 12510 C 1184.95 -4.13059 1.78052 0
M  V30 12511 C 1186.27 -4.39142 -0.290295 0
M  V30 12512 H 1183.39 -0.730877 0.0948028 0
M  V30 12513 H 1186.03 -1.66833 0.909225 0
M  V30 12514 H 1184.18 -3.87891 -0.217482 0
M  V30 12515 H 1185.85 -3.94472 2.39143 0
M  V30 12516 H 1184.09 -3.67311 2.30793 0
M  V30 12517 H 1184.76 -5.22217 1.78867 0
M  V30 12518 H 1187.24 -4.15697 0.182987 0
M  V30 12519 H 1186.12 -5.48524 -0.203097 0
M  V30 12520 H 1186.38 -4.20209 -1.37394 0
M  V30 12521 N 1185.44 -0.462799 -1.50652 0
M  V30 12522 C 1186.68 0.0951853 -2.02576 0
M  V30 12523 C 1187.02 1.40113 -1.34469 0
M  V30 12524 O 1186.29 1.88793 -0.467702 0
M  V30 12525 C 1186.57 0.287603 -3.5895 0
M  V30 12526 C 1186.43 -1.03878 -4.37641 0
M  V30 12527 C 1187.75 1.04593 -4.27491 0
M  V30 12528 H 1184.86 0.0331191 -0.736255 0
M  V30 12529 H 1187.51 -0.606772 -1.80051 0
M  V30 12530 H 1185.66 0.885514 -3.78274 0
M  V30 12531 H 1187.33 -1.67263 -4.29908 0
M  V30 12532 H 1185.57 -1.6374 -4.01711 0
M  V30 12533 H 1186.24 -0.857889 -5.45293 0
M  V30 12534 H 1188.72 0.539213 -4.12591 0
M  V30 12535 H 1187.59 1.14935 -5.36732 0
M  V30 12536 H 1187.86 2.08045 -3.90089 0
M  V30 12537 N 1186.91 1.56388 -0.195085 0
M  V30 12538 C 1187.86 2.20431 0.742484 0
M  V30 12539 C 1188.86 1.17548 1.21979 0
M  V30 12540 O 1190.06 1.35693 1.18269 0
M  V30 12541 H 1186.44 0.706435 0.257786 0
M  V30 12542 H 1188.41 2.97865 0.178624 0
M  V30 12543 C 1187.16 2.87772 1.95147 0
M  V30 12544 H 1186.48 3.66681 1.59326 0
M  V30 12545 H 1187.92 3.36021 2.58585 0
M  V30 12546 C 1186.38 1.88807 2.79022 0
M  V30 12547 O 1186.91 1.38836 3.76945 0
M  V30 12548 N 1185.12 1.57037 2.44515 0
M  V30 12549 H 1184.66 1.97868 1.64943 0
M  V30 12550 H 1184.62 0.910776 3.00919 0
M  V30 12551 N 1188.39 -0.0785156 1.57404 0
M  V30 12552 C 1189.62 -0.792042 1.9114 0
M  V30 12553 C 1190.04 -1.71458 0.790408 0
M  V30 12554 O 1189.39 -1.80959 -0.236662 0
M  V30 12555 C 1189.44 -1.59138 3.24588 0
M  V30 12556 O 1189.16 -0.705931 4.32375 0
M  V30 12557 C 1190.67 -2.4065 3.72293 0
M  V30 12558 H 1187.89 -0.225566 0.63195 0
M  V30 12559 H 1190.43 -0.0507929 2.04437 0
M  V30 12560 H 1188.58 -2.28498 3.12838 0
M  V30 12561 H 1189 -1.26121 5.09111 0
M  V30 12562 H 1190.47 -2.92204 4.68317 0
M  V30 12563 H 1190.95 -3.1987 3.00965 0
M  V30 12564 H 1191.56 -1.7646 3.86965 0
M  V30 12565 N 1189.87 -1.5367 -0.349747 0
M  V30 12566 C 1190.8 -1.84208 -1.43492 0
M  V30 12567 C 1191.78 -0.696725 -1.55177 0
M  V30 12568 O 1192.97 -0.948061 -1.69486 0
M  V30 12569 C 1190.1 -2.04613 -2.80625 0
M  V30 12570 C 1189.05 -3.20419 -2.83753 0
M  V30 12571 C 1188.38 -3.26147 -4.23713 0
M  V30 12572 C 1189.68 -4.58666 -2.49846 0
M  V30 12573 H 1191.37 -2.75087 -1.18185 0
M  V30 12574 H 1188.92 -1.32363 -0.567101 0
M  V30 12575 H 1190.87 -2.2456 -3.56582 0
M  V30 12576 H 1189.59 -1.10459 -3.07354 0
M  V30 12577 H 1188.25 -3.00318 -2.10249 0
M  V30 12578 H 1187.9 -2.29599 -4.47541 0
M  V30 12579 H 1187.6 -4.03963 -4.26717 0
M  V30 12580 H 1189.12 -3.48296 -5.0152 0
M  V30 12581 H 1190.54 -4.78668 -3.15516 0
M  V30 12582 H 1188.94 -5.3884 -2.64144 0
M  V30 12583 H 1190.01 -4.62697 -1.4505 0
M  V30 12584 N 1191.35 0.610423 -1.45298 0
M  V30 12585 C 1192.6 1.36951 -1.49167 0
M  V30 12586 C 1192.92 1.9405 -0.132292 0
M  V30 12587 O 1192.18 1.75363 0.868686 0
M  V30 12588 C 1192.48 2.53812 -2.51623 0
M  V30 12589 C 1192.14 2.14877 -3.96407 0
M  V30 12590 C 1190.81 2.03972 -4.35831 0
M  V30 12591 C 1193.16 1.84448 -4.87472 0
M  V30 12592 C 1190.49 1.60856 -5.64218 0
M  V30 12593 C 1192.84 1.42818 -6.16268 0
M  V30 12594 C 1191.5 1.3047 -6.54625 0
M  V30 12595 H 1190.77 0.501138 -0.54584 0
M  V30 12596 H 1193.42 0.690221 -1.78629 0
M  V30 12597 H 1191.72 3.27066 -2.1572 0
M  V30 12598 H 1193.42 3.12041 -2.51856 0
M  V30 12599 H 1190.01 2.2429 -3.65229 0
M  V30 12600 H 1194.19 1.91771 -4.57753 0
M  V30 12601 H 1189.45 1.49916 -5.92735 0
M  V30 12602 H 1193.62 1.18318 -6.86275 0
M  V30 12603 H 1191.25 0.968347 -7.54007 0
M  V30 12604 N 1192.83 1.32541 0.852676 0
M  V30 12605 C 1193.76 1.15977 1.96531 0
M  V30 12606 C 1194.74 0.0587267 1.62494 0
M  V30 12607 O 1195.92 0.218404 1.8723 0
M  V30 12608 C 1193.05 0.77587 3.29694 0
M  V30 12609 C 1192.09 1.88244 3.82709 0
M  V30 12610 S 1192.93 3.49108 4.06059 0
M  V30 12611 C 1194.08 3.12693 5.42193 0
M  V30 12612 H 1194.32 2.10165 2.1028 0
M  V30 12613 H 1191.85 1.17225 1.00487 0
M  V30 12614 H 1193.81 0.561136 4.06647 0
M  V30 12615 H 1192.47 -0.14718 3.13755 0
M  V30 12616 H 1191.66 1.56687 4.79025 0
M  V30 12617 H 1191.26 2.05313 3.12606 0
M  V30 12618 H 1193.56 2.62661 6.24512 0
M  V30 12619 H 1194.5 4.08038 5.78714 0
M  V30 12620 H 1194.91 2.4966 5.06291 0
M  V30 12621 N 1194.3 -1.0692 1.15784 0
M  V30 12622 C 1195.27 -2.12407 0.861167 0
M  V30 12623 C 1196.27 -1.6018 -0.141031 0
M  V30 12624 O 1197.46 -1.73972 0.0891192 0
M  V30 12625 C 1194.59 -3.39693 0.286636 0
M  V30 12626 H 1195.78 -2.40157 1.79623 0
M  V30 12627 H 1193.34 -1.22881 0.965916 0
M  V30 12628 H 1194.07 -3.17587 -0.656417 0
M  V30 12629 H 1193.86 -3.78903 1.0087 0
M  V30 12630 H 1195.35 -4.17488 0.0967971 0
M  V30 12631 N 1195.78 -0.955326 -1.25345 0
M  V30 12632 C 1196.71 -0.494145 -2.28211 0
M  V30 12633 C 1197.69 0.459875 -1.63766 0
M  V30 12634 O 1198.88 0.358679 -1.90859 0
M  V30 12635 C 1196.01 0.228228 -3.46549 0
M  V30 12636 C 1194.96 -0.640601 -4.23179 0
M  V30 12637 C 1194.29 0.212553 -5.34277 0
M  V30 12638 C 1195.59 -1.91906 -4.85767 0
M  V30 12639 H 1197.28 -1.35391 -2.67039 0
M  V30 12640 H 1194.83 -0.652462 -1.2837 0
M  V30 12641 H 1196.78 0.561995 -4.17636 0
M  V30 12642 H 1195.51 1.12224 -3.06714 0
M  V30 12643 H 1194.16 -0.957462 -3.53876 0
M  V30 12644 H 1193.81 1.10634 -4.90682 0
M  V30 12645 H 1193.51 -0.365473 -5.86462 0
M  V30 12646 H 1195.04 0.541271 -6.08196 0
M  V30 12647 H 1196.45 -1.65165 -5.48993 0
M  V30 12648 H 1194.85 -2.44279 -5.48131 0
M  V30 12649 H 1195.92 -2.62173 -4.07914 0
M  V30 12650 N 1197.26 1.39987 -0.723979 0
M  V30 12651 C 1198.54 1.94637 -0.1939 0
M  V30 12652 C 1198.92 1.66156 1.30212 0
M  V30 12653 O 1198.27 0.983783 2.06238 0
M  V30 12654 C 1198.48 3.4517 -0.515652 0
M  V30 12655 C 1199.82 4.22113 -0.458919 0
M  V30 12656 O 1200.85 3.53318 -0.452198 0
M  V30 12657 O 1199.71 5.44695 -0.443783 0
M  V30 12658 H 1196.8 0.826394 -0.0316615 0
M  V30 12659 H 1199.35 1.49548 -0.802085 0
M  V30 12660 H 1198.12 3.5929 -1.55004 0
M  V30 12661 H 1197.74 3.97413 0.122067 0
M  V30 12662 N 1198.74 0.470782 1.50404 0
M  V30 12663 C 1199.69 -0.342183 2.25418 0
M  V30 12664 C 1200.67 -0.961726 1.28995 0
M  V30 12665 O 1201.87 -0.874327 1.53898 0
M  V30 12666 C 1198.99 -1.42378 3.12383 0
M  V30 12667 C 1198.08 -0.811982 4.16254 0
M  V30 12668 N 1198.47 0.0675245 5.05755 0
M  V30 12669 C 1196.77 -1.07596 4.32827 0
M  V30 12670 C 1197.47 0.414693 5.8022 0
M  V30 12671 N 1196.45 -0.210047 5.43194 0
M  V30 12672 H 1200.25 0.335344 2.91981 0
M  V30 12673 H 1197.76 0.284911 1.59881 0
M  V30 12674 H 1199.76 -2.01936 3.64729 0
M  V30 12675 H 1198.42 -2.1033 2.47369 0
M  V30 12676 H 1199.43 0.436333 5.16059 0
M  V30 12677 H 1196.11 -1.75048 3.79031 0
M  V30 12678 H 1197.5 1.13243 6.62288 0
M  V30 12679 N 1200.22 -1.56282 0.203376 0
M  V30 12680 C 1201.17 -2.16094 -0.727145 0
M  V30 12681 C 1202.15 -1.10404 -1.17046 0
M  V30 12682 O 1203.34 -1.36444 -1.12748 0
M  V30 12683 C 1200.47 -2.83029 -1.94293 0
M  V30 12684 C 1199.56 -3.9592 -1.52013 0
M  V30 12685 N 1199.95 -4.99292 -0.808794 0
M  V30 12686 C 1198.25 -4.07674 -1.80881 0
M  V30 12687 C 1198.95 -5.78641 -0.595738 0
M  V30 12688 N 1197.92 -5.31362 -1.14697 0
M  V30 12689 H 1201.73 -2.93378 -0.175041 0
M  V30 12690 H 1199.24 -1.624 0.00390859 0
M  V30 12691 H 1201.24 -3.24277 -2.62012 0
M  V30 12692 H 1199.9 -2.07235 -2.49968 0
M  V30 12693 H 1200.91 -5.15823 -0.463383 0
M  V30 12694 H 1197.59 -3.43016 -2.38005 0
M  V30 12695 H 1198.98 -6.71893 -0.0308618 0
M  V30 12696 N 1201.7 0.070167 -1.57444 0
M  V30 12697 C 1202.97 0.802108 -1.78397 0
M  V30 12698 C 1203.35 1.95706 -0.791356 0
M  V30 12699 O 1202.7 2.27827 0.17518 0
M  V30 12700 C 1202.91 1.27354 -3.24934 0
M  V30 12701 C 1204.26 1.70626 -3.88808 0
M  V30 12702 O 1205.28 1.36916 -3.28835 0
M  V30 12703 O 1204.14 2.33041 -4.94322 0
M  V30 12704 H 1201.24 0.384483 -0.73219 0
M  V30 12705 H 1203.78 0.0501168 -1.69626 0
M  V30 12706 H 1202.55 0.447204 -3.88736 0
M  V30 12707 H 1202.18 2.0868 -3.38435 0
M  V30 12708 N 1203.17 1.53854 0.341593 0
M  V30 12709 C 1204.11 1.76797 1.44284 0
M  V30 12710 C 1205.08 0.617157 1.50432 0
M  V30 12711 O 1206.27 0.85254 1.68119 0
M  V30 12712 C 1203.4 1.86837 2.82506 0
M  V30 12713 C 1202.44 3.09001 2.93974 0
M  V30 12714 S 1203.27 4.68012 2.60241 0
M  V30 12715 C 1204.43 4.80933 4.00567 0
M  V30 12716 H 1204.66 2.69927 1.24606 0
M  V30 12717 H 1202.2 1.44747 0.537375 0
M  V30 12718 H 1204.15 1.93306 3.62137 0
M  V30 12719 H 1202.82 0.947162 2.99479 0
M  V30 12720 H 1202.01 3.12707 3.9526 0
M  V30 12721 H 1201.61 3.00768 2.22294 0
M  V30 12722 H 1203.9 4.62462 4.95111 0
M  V30 12723 H 1204.85 5.83025 4.01855 0
M  V30 12724 H 1205.25 4.09372 3.88684 0
M  V30 12725 N 1204.65 -0.602709 1.4562 0
M  V30 12726 C 1205.93 -1.36224 1.40366 0
M  V30 12727 C 1206.31 -2.1096 0.0767645 0
M  V30 12728 O 1205.66 -2.08207 -0.941378 0
M  V30 12729 C 1205.87 -2.30499 2.62052 0
M  V30 12730 C 1207.21 -2.92954 3.07348 0
M  V30 12731 O 1208.24 -2.40818 2.62459 0
M  V30 12732 O 1207.1 -3.87601 3.85263 0
M  V30 12733 H 1204.19 -0.611064 0.557253 0
M  V30 12734 H 1206.74 -0.625391 1.57756 0
M  V30 12735 H 1205.51 -1.74566 3.50203 0
M  V30 12736 H 1205.13 -3.11556 2.4702 0
M  V30 12737 N 1206.13 -1.32992 -0.845635 0
M  V30 12738 C 1207.08 -1.22682 -1.95494 0
M  V30 12739 C 1208.05 -0.106942 -1.65755 0
M  V30 12740 O 1209.23 -0.28405 -1.88674 0
M  V30 12741 C 1206.37 -0.965068 -3.31331 0
M  V30 12742 C 1205.48 -2.17058 -3.7351 0
M  V30 12743 C 1204.62 -1.84355 -4.98183 0
M  V30 12744 C 1203.66 -3.01176 -5.32878 0
M  V30 12745 N 1202.8 -2.68506 -6.48729 0
M  V30 12746 H 1207.64 -2.17562 -2.03644 0
M  V30 12747 H 1205.17 -1.08194 -0.996613 0
M  V30 12748 H 1207.13 -0.793771 -4.09579 0
M  V30 12749 H 1205.76 -0.0530285 -3.22756 0
M  V30 12750 H 1204.81 -2.45185 -2.90841 0
M  V30 12751 H 1206.12 -3.04413 -3.95138 0
M  V30 12752 H 1205.28 -1.6383 -5.84162 0
M  V30 12753 H 1204.02 -0.942264 -4.78511 0
M  V30 12754 H 1203.02 -3.22323 -4.45408 0
M  V30 12755 H 1204.25 -3.9205 -5.54503 0
M  V30 12756 H 1202.19 -1.80929 -6.30556 0
M  V30 12757 H 1202.11 -3.49392 -6.70419 0
M  V30 12758 H 1203.38 -2.51432 -7.37836 0
M  V30 12759 N 1207.61 1.06304 -1.1635 0
M  V30 12760 C 1208.88 1.75916 -0.855166 0
M  V30 12761 C 1209.26 2.0094 0.647024 0
M  V30 12762 O 1208.61 1.63642 1.59479 0
M  V30 12763 C 1208.82 3.06028 -1.67774 0
M  V30 12764 C 1210.17 3.80184 -1.89065 0
M  V30 12765 O 1211.19 3.15868 -1.64639 0
M  V30 12766 O 1210.05 4.95723 -2.30045 0
M  V30 12767 H 1207.15 0.764432 -0.315551 0
M  V30 12768 H 1209.69 1.12574 -1.26985 0
M  V30 12769 H 1208.47 2.83498 -2.69712 0
M  V30 12770 H 1208.09 3.77104 -1.26009 0
M  V30 12771 N 1209.09 0.96196 1.24836 0
M  V30 12772 C 1210.02 0.432188 2.2407 0
M  V30 12773 C 1211 -0.490539 1.55024 0
M  V30 12774 O 1212.18 -0.423236 1.83687 0
M  V30 12775 C 1209.31 -0.37673 3.36598 0
M  V30 12776 C 1208.35 0.48745 4.23705 0
M  V30 12777 S 1209.19 1.92417 4.99736 0
M  V30 12778 C 1210.34 1.12388 6.15727 0
M  V30 12779 H 1210.58 1.27315 2.6866 0
M  V30 12780 H 1208.11 0.766568 1.34026 0
M  V30 12781 H 1210.07 -0.837488 4.01866 0
M  V30 12782 H 1208.73 -1.1926 2.90579 0
M  V30 12783 H 1207.92 -0.133338 5.03824 0
M  V30 12784 H 1207.52 0.883707 3.6341 0
M  V30 12785 H 1209.81 0.376097 6.76455 0
M  V30 12786 H 1210.76 1.89924 6.82154 0
M  V30 12787 H 1211.17 0.650779 5.60736 0
M  V30 12788 N 1210.56 -1.39601 0.731392 0
M  V30 12789 C 1211.84 -1.94531 0.20422 0
M  V30 12790 C 1212.22 -1.66845 -1.29329 0
M  V30 12791 O 1211.57 -0.994706 -2.05713 0
M  V30 12792 C 1211.78 -3.44891 0.53395 0
M  V30 12793 C 1213.13 -4.21863 0.481298 0
M  V30 12794 O 1214.15 -3.53073 0.470929 0
M  V30 12795 O 1213.01 -5.44452 0.472663 0
M  V30 12796 H 1210.1 -0.826214 0.0360436 0
M  V30 12797 H 1212.65 -1.49121 0.810005 0
M  V30 12798 H 1211.42 -3.58463 1.56907 0
M  V30 12799 H 1211.04 -3.97472 -0.10099 0
M  V30 12800 N 1212.04 -0.478751 -1.50152 0
M  V30 12801 C 1213.46 -0.133356 -1.59042 0
M  V30 12802 C 1213.66 1.36069 -1.48618 0
M  V30 12803 O 1212.71 2.13468 -1.34862 0
M  V30 12804 C 1214.03 -0.690369 -2.92668 0
M  V30 12805 C 1215.58 -0.654481 -3.06081 0
M  V30 12806 C 1216.05 -1.18917 -4.42293 0
M  V30 12807 N 1217.54 -1.14891 -4.48725 0
M  V30 12808 C 1218.28 -1.53305 -5.52526 0
M  V30 12809 N 1217.77 -1.99205 -6.63543 0
M  V30 12810 N 1219.57 -1.4486 -5.43113 0
M  V30 12811 H 1211.72 -1.45037 -1.55171 0
M  V30 12812 H 1213.98 -0.600254 -0.733757 0
M  V30 12813 H 1213.69 -1.7373 -3.05795 0
M  V30 12814 H 1213.56 -0.138227 -3.76947 0
M  V30 12815 H 1215.95 0.383564 -2.92597 0
M  V30 12816 H 1216.03 -1.24352 -2.2354 0
M  V30 12817 H 1215.67 -2.22588 -4.56527 0
M  V30 12818 H 1215.6 -0.57628 -5.23437 0
M  V30 12819 H 1218.09 -0.812344 -3.69066 0
M  V30 12820 H 1218.41 -2.26645 -7.38818 0
M  V30 12821 H 1216.75 -2.03164 -6.64642 0
M  V30 12822 H 1219.94 -1.08836 -4.55272 0
M  V30 12823 H 1220.11 -1.75123 -6.23888 0
M  V30 12824 N 1213.52 1.56172 -0.211661 0
M  V30 12825 C 1214.48 2.18602 0.688906 0
M  V30 12826 C 1215.48 1.14508 1.12892 0
M  V30 12827 O 1216.67 1.39799 1.03932 0
M  V30 12828 C 1213.81 2.80141 1.94253 0
M  V30 12829 H 1215 2.9955 0.144765 0
M  V30 12830 H 1212.55 1.56254 0.0379615 0
M  V30 12831 H 1213.29 2.03035 2.52878 0
M  V30 12832 H 1213.07 3.56358 1.63558 0
M  V30 12833 H 1214.56 3.28026 2.58436 0
M  V30 12834 N 1215 -0.0618163 1.57479 0
M  V30 12835 C 1215.93 -1.07252 2.07411 0
M  V30 12836 C 1216.91 -1.39756 0.969649 0
M  V30 12837 O 1218.09 -1.4921 1.24298 0
M  V30 12838 C 1215.22 -2.38313 2.52635 0
M  V30 12839 C 1214.18 -2.20136 3.67048 0
M  V30 12840 C 1213.5 -3.56668 3.98361 0
M  V30 12841 C 1214.8 -1.61437 4.96725 0
M  V30 12842 H 1216.5 -0.656983 2.92103 0
M  V30 12843 H 1214.04 -0.314579 1.40522 0
M  V30 12844 H 1216 -3.09319 2.86181 0
M  V30 12845 H 1214.72 -2.81865 1.64984 0
M  V30 12846 H 1213.38 -1.51569 3.338 0
M  V30 12847 H 1213.03 -3.97809 3.07826 0
M  V30 12848 H 1212.73 -3.45342 4.75408 0
M  V30 12849 H 1214.25 -4.2909 4.34413 0
M  V30 12850 H 1215.67 -2.2232 5.28438 0
M  V30 12851 H 1214.06 -1.60779 5.78161 0
M  V30 12852 H 1215.13 -0.576795 4.81457 0
M  V30 12853 N 1216.48 -1.54033 -0.333429 0
M  V30 12854 C 1217.42 -1.82729 -1.40992 0
M  V30 12855 C 1218.39 -0.673677 -1.51825 0
M  V30 12856 O 1219.58 -0.919126 -1.67203 0
M  V30 12857 C 1216.72 -2.05155 -2.77498 0
M  V30 12858 C 1215.83 -3.32854 -2.75376 0
M  V30 12859 C 1214.97 -3.45294 -4.03665 0
M  V30 12860 C 1214.01 -4.66905 -3.95811 0
M  V30 12861 N 1213.14 -4.76323 -5.1581 0
M  V30 12862 H 1217.98 -2.74572 -1.15821 0
M  V30 12863 H 1215.52 -1.35988 -0.560859 0
M  V30 12864 H 1217.48 -2.16148 -3.56841 0
M  V30 12865 H 1216.11 -1.16615 -3.01 0
M  V30 12866 H 1215.16 -3.30651 -1.88081 0
M  V30 12867 H 1216.47 -4.22299 -2.65453 0
M  V30 12868 H 1215.63 -3.55775 -4.91436 0
M  V30 12869 H 1214.36 -2.53924 -4.16382 0
M  V30 12870 H 1213.37 -4.56491 -3.06425 0
M  V30 12871 H 1214.59 -5.59649 -3.84668 0
M  V30 12872 H 1212.54 -3.87866 -5.29052 0
M  V30 12873 H 1212.46 -5.59719 -5.08184 0
M  V30 12874 H 1213.73 -4.91125 -6.05324 0
M  V30 12875 N 1217.95 0.594978 -1.45938 0
M  V30 12876 C 1219.18 1.38482 -1.54394 0
M  V30 12877 C 1219.6 1.87222 -0.181563 0
M  V30 12878 O 1218.96 1.60869 0.836119 0
M  V30 12879 C 1219.01 2.55676 -2.54287 0
M  V30 12880 O 1218.11 3.5672 -2.06941 0
M  V30 12881 H 1217.46 0.412918 -0.519995 0
M  V30 12882 H 1219.99 0.722899 -1.91404 0
M  V30 12883 H 1220 3.02756 -2.73501 0
M  V30 12884 H 1218.67 2.19552 -3.53228 0
M  V30 12885 H 1217.25 3.16204 -1.97661 0
M  V30 12886 N 1219.43 1.33438 0.838571 0
M  V30 12887 C 1220.68 1.24665 1.59069 0
M  V30 12888 C 1221 -0.187433 1.94097 0
M  V30 12889 O 1220.27 -1.11625 1.60987 0
M  V30 12890 H 1218.85 0.45843 0.589789 0
M  V30 12891 H 1221.51 1.67161 1.00216 0
M  V30 12892 H 1220.61 1.84057 2.52051 0
M  V30 12893 N 1220.91 -1.05686 1.16912 0
M  V30 12894 C 1221.86 -2.15417 0.877404 0
M  V30 12895 C 1222.85 -1.6868 -0.155986 0
M  V30 12896 O 1224.06 -1.79998 -0.00938156 0
M  V30 12897 H 1220.43 -0.70332 0.266168 0
M  V30 12898 H 1222.4 -2.37228 1.81012 0
M  V30 12899 C 1221.15 -3.45372 0.401696 0
M  V30 12900 H 1220.48 -3.81732 1.18832 0
M  V30 12901 H 1221.92 -4.2334 0.236418 0
M  V30 12902 C 1220.38 -3.25209 -0.87981 0
M  V30 12903 O 1220.91 -3.51322 -1.94771 0
M  V30 12904 N 1219.11 -2.78614 -0.825997 0
M  V30 12905 H 1218.66 -2.57564 0.0432439 0
M  V30 12906 H 1218.62 -2.65503 -1.68391 0
M  V30 12907 N 1222.39 -0.968567 -1.24324 0
M  V30 12908 C 1223.62 -0.647628 -1.96187 0
M  V30 12909 C 1224.03 0.787267 -1.72043 0
M  V30 12910 O 1223.37 1.53996 -1.00155 0
M  V30 12911 C 1223.43 -0.843517 -3.49464 0
M  V30 12912 C 1223.1 -2.25822 -3.97308 0
M  V30 12913 C 1224.09 -3.23602 -4.06913 0
M  V30 12914 C 1221.78 -2.58614 -4.30609 0
M  V30 12915 C 1223.77 -4.5226 -4.49154 0
M  V30 12916 C 1221.46 -3.87499 -4.72534 0
M  V30 12917 C 1222.46 -4.84134 -4.81771 0
M  V30 12918 O 1222.14 -6.10719 -5.2276 0
M  V30 12919 H 1221.88 -0.240568 -0.631746 0
M  V30 12920 H 1224.43 -1.29926 -1.59086 0
M  V30 12921 H 1222.66 -0.134716 -3.86465 0
M  V30 12922 H 1224.35 -0.521533 -4.02536 0
M  V30 12923 H 1225.12 -2.99596 -3.81402 0
M  V30 12924 H 1220.99 -1.84116 -4.22637 0
M  V30 12925 H 1224.54 -5.27689 -4.56279 0
M  V30 12926 H 1220.44 -4.11305 -4.97492 0
M  V30 12927 H 1221.2 -6.14298 -5.40906 0
M  V30 12928 N 1223.87 1.39211 -0.738786 0
M  V30 12929 C 1225.11 2.00436 -0.28839 0
M  V30 12930 C 1225.44 1.58626 1.12552 0
M  V30 12931 O 1224.7 0.808154 1.78234 0
M  V30 12932 C 1225 3.55758 -0.342224 0
M  V30 12933 C 1224.66 4.1723 -1.70968 0
M  V30 12934 C 1223.32 4.33734 -2.08395 0
M  V30 12935 C 1225.68 4.51294 -2.60736 0
M  V30 12936 C 1223 4.81592 -3.35091 0
M  V30 12937 C 1225.36 5.00562 -3.86808 0
M  V30 12938 C 1224.02 5.15274 -4.24322 0
M  V30 12939 H 1223.29 0.733447 -0.105529 0
M  V30 12940 H 1225.94 1.66481 -0.94637 0
M  V30 12941 H 1224.24 3.8976 0.399331 0
M  V30 12942 H 1225.94 4.00993 0.0244582 0
M  V30 12943 H 1222.53 4.04788 -1.4087 0
M  V30 12944 H 1226.71 4.38158 -2.3309 0
M  V30 12945 H 1221.97 4.91167 -3.64095 0
M  V30 12946 H 1226.14 5.25892 -4.5652 0
M  V30 12947 H 1223.77 5.52119 -5.2256 0
M  V30 12948 N 1225.34 0.486708 1.49896 0
M  V30 12949 C 1226.59 -0.062852 2.02402 0
M  V30 12950 C 1226.92 -1.38306 1.36754 0
M  V30 12951 O 1226.17 -1.89531 0.487493 0
M  V30 12952 C 1226.47 -0.278643 3.56312 0
M  V30 12953 C 1226.14 0.961794 4.40523 0
M  V30 12954 C 1224.8 1.30185 4.63255 0
M  V30 12955 C 1227.15 1.78697 4.89609 0
M  V30 12956 C 1224.48 2.46686 5.32318 0
M  V30 12957 C 1226.83 2.9434 5.59953 0
M  V30 12958 C 1225.5 3.28742 5.80935 0
M  V30 12959 H 1224.77 -0.0229992 0.740643 0
M  V30 12960 H 1227.41 0.643963 1.80348 0
M  V30 12961 H 1225.72 -1.06785 3.76967 0
M  V30 12962 H 1227.42 -0.718078 3.94518 0
M  V30 12963 H 1224.01 0.686887 4.2306 0
M  V30 12964 H 1228.19 1.53742 4.71887 0
M  V30 12965 H 1223.45 2.73596 5.46768 0
M  V30 12966 H 1227.62 3.58616 5.96965 0
M  V30 12967 H 1225.25 4.19121 6.34225 0
M  V30 12968 N 1226.82 -1.56058 0.219941 0
M  V30 12969 C 1228.05 -2.02652 -0.417101 0
M  V30 12970 C 1228.47 -1.09977 -1.53461 0
M  V30 12971 O 1227.82 -0.109088 -1.82174 0
M  V30 12972 C 1227.87 -3.48787 -0.950244 0
M  V30 12973 O 1227.6 -4.37928 0.12271 0
M  V30 12974 C 1229.1 -4.11018 -1.66069 0
M  V30 12975 H 1226.32 -0.663163 -0.102254 0
M  V30 12976 H 1228.86 -2.01722 0.335923 0
M  V30 12977 H 1227.02 -3.50338 -1.65355 0
M  V30 12978 H 1227.43 -5.23764 -0.277785 0
M  V30 12979 H 1228.9 -5.15046 -1.98575 0
M  V30 12980 H 1229.38 -3.55921 -2.57326 0
M  V30 12981 H 1229.99 -4.13313 -1.00263 0
M  V30 12982 N 1228.3 0.053464 -1.57509 0
M  V30 12983 C 1229.26 1.04604 -2.03938 0
M  V30 12984 C 1230.26 1.30509 -0.939357 0
M  V30 12985 O 1231.45 1.25922 -1.20371 0
M  V30 12986 C 1228.59 2.38516 -2.43563 0
M  V30 12987 H 1229.78 0.645484 -2.92871 0
M  V30 12988 H 1227.33 0.299683 -1.534 0
M  V30 12989 H 1228.07 2.83368 -1.57712 0
M  V30 12990 H 1227.85 2.2105 -3.23851 0
M  V30 12991 H 1229.34 3.09826 -2.79996 0
M  V30 12992 N 1229.78 1.54207 0.325255 0
M  V30 12993 C 1231.01 1.76293 1.08298 0
M  V30 12994 C 1231.42 0.510722 1.81761 0
M  V30 12995 O 1230.78 -0.5185 1.7498 0
M  V30 12996 C 1230.83 2.95498 2.08238 0
M  V30 12997 O 1230.55 4.15877 1.37759 0
M  V30 12998 C 1232.05 3.29781 2.96242 0
M  V30 12999 H 1229.27 0.588576 0.322209 0
M  V30 13000 H 1231.82 2.0109 0.371896 0
M  V30 13001 H 1229.97 2.72979 2.74884 0
M  V30 13002 H 1230.39 4.82918 2.04672 0
M  V30 13003 H 1231.86 4.16495 3.62265 0
M  V30 13004 H 1232.34 2.46874 3.63249 0
M  V30 13005 H 1232.94 3.54372 2.3516 0
M  V30 13006 N 1231.26 -0.58723 1.46251 0
M  V30 13007 C 1232.5 -1.3456 1.51327 0
M  V30 13008 C 1232.83 -1.93815 0.163146 0
M  V30 13009 O 1232.09 -1.76723 -0.840677 0
M  V30 13010 C 1232.39 -2.49776 2.5563 0
M  V30 13011 C 1232.05 -2.08543 3.99776 0
M  V30 13012 C 1230.71 -1.97013 4.39021 0
M  V30 13013 C 1233.07 -1.76669 4.90344 0
M  V30 13014 C 1230.39 -1.5186 5.66706 0
M  V30 13015 C 1232.75 -1.32996 6.18462 0
M  V30 13016 C 1231.41 -1.20039 6.56618 0
M  V30 13017 H 1230.68 -0.492391 0.553744 0
M  V30 13018 H 1233.33 -0.661715 1.79704 0
M  V30 13019 H 1231.63 -3.23592 2.20897 0
M  V30 13020 H 1233.33 -3.07995 2.56788 0
M  V30 13021 H 1229.92 -2.18451 3.68751 0
M  V30 13022 H 1234.1 -1.84465 4.60746 0
M  V30 13023 H 1229.36 -1.40467 5.95045 0
M  V30 13024 H 1233.53 -1.07385 6.88071 0
M  V30 13025 H 1231.16 -0.848268 7.55452 0
M  V30 13026 N 1232.74 -1.33881 -0.831482 0
M  V30 13027 C 1233.7 -1.24654 -1.92339 0
M  V30 13028 C 1234.7 -0.163788 -1.59964 0
M  V30 13029 O 1235.89 -0.415829 -1.69164 0
M  V30 13030 C 1233.02 -0.922537 -3.2818 0
M  V30 13031 H 1234.21 -2.21717 -2.01944 0
M  V30 13032 H 1231.77 -1.18046 -1.02445 0
M  V30 13033 H 1232.5 0.0452872 -3.24268 0
M  V30 13034 H 1232.29 -1.70562 -3.53059 0
M  V30 13035 H 1233.78 -0.88292 -4.0816 0
M  V30 13036 N 1234.21 1.05064 -1.1747 0
M  V30 13037 C 1235.46 1.77481 -0.958301 0
M  V30 13038 C 1235.78 1.88725 0.51401 0
M  V30 13039 O 1236.98 2.57895 0.848657 0
M  V30 13040 C 1235.44 3.19048 -1.66543 0
M  V30 13041 C 1235.05 3.1593 -3.17636 0
M  V30 13042 C 1236.79 3.95912 -1.53146 0
M  V30 13043 C 1234.7 4.52293 -3.81032 0
M  V30 13044 H 1233.63 0.665247 -0.354913 0
M  V30 13045 H 1236.28 1.17751 -1.40737 0
M  V30 13046 H 1234.66 3.79113 -1.1441 0
M  V30 13047 H 1235.83 2.65375 -3.76713 0
M  V30 13048 H 1234.15 2.52564 -3.31059 0
M  V30 13049 H 1236.75 4.96737 -1.9788 0
M  V30 13050 H 1237.09 4.13498 -0.482203 0
M  V30 13051 H 1237.62 3.42399 -2.02504 0
M  V30 13052 H 1234.36 4.39913 -4.8596 0
M  V30 13053 H 1233.88 5.02991 -3.26741 0
M  V30 13054 H 1235.56 5.2123 -3.83312 0
M  V30 13055 N 1235.69 0.975146 1.23809 0
M  V30 13056 C 1236.6 0.51917 2.28783 0
M  V30 13057 C 1237.62 -0.423487 1.68768 0
M  V30 13058 O 1238.79 -0.294699 1.99232 0
M  V30 13059 C 1235.86 -0.176229 3.46252 0
M  V30 13060 C 1234.92 0.807177 4.21643 0
M  V30 13061 C 1234.15 0.144869 5.33503 0
M  V30 13062 O 1234.38 -1.06522 5.60365 0
M  V30 13063 O 1233.31 0.84079 5.95999 0
M  V30 13064 H 1237.14 1.39204 2.69919 0
M  V30 13065 H 1234.72 0.74253 1.29641 0
M  V30 13066 H 1236.6 -0.566547 4.17574 0
M  V30 13067 H 1235.28 -1.02394 3.07078 0
M  V30 13068 H 1234.18 1.2481 3.52666 0
M  V30 13069 H 1235.52 1.62354 4.64653 0
M  V30 13070 N 1237.17 -1.38817 0.746158 0
M  V30 13071 C 1238.13 -2.28876 0.121886 0
M  V30 13072 C 1239.13 -1.46838 -0.655379 0
M  V30 13073 O 1240.32 -1.67377 -0.482744 0
M  V30 13074 C 1237.45 -3.30487 -0.836118 0
M  V30 13075 H 1238.65 -2.85586 0.915453 0
M  V30 13076 H 1236.2 -1.47652 0.512691 0
M  V30 13077 H 1236.94 -2.78853 -1.65563 0
M  V30 13078 H 1236.72 -3.9109 -0.281271 0
M  V30 13079 H 1238.21 -3.97848 -1.26914 0
M  V30 13080 N 1238.65 -0.49465 -1.49636 0
M  V30 13081 C 1239.88 0.0491129 -2.06842 0
M  V30 13082 C 1240.29 1.31395 -1.35576 0
M  V30 13083 O 1239.65 1.7731 -0.432135 0
M  V30 13084 C 1239.7 0.313171 -3.60141 0
M  V30 13085 O 1239.42 -0.90152 -4.28724 0
M  V30 13086 C 1240.92 0.901284 -4.34041 0
M  V30 13087 H 1238.14 -0.0176186 -0.670769 0
M  V30 13088 H 1240.68 -0.690188 -1.92501 0
M  V30 13089 H 1238.84 1.00244 -3.74206 0
M  V30 13090 H 1239.25 -0.660477 -5.20325 0
M  V30 13091 H 1240.73 1.03567 -5.42197 0
M  V30 13092 H 1241.2 1.89746 -3.96097 0
M  V30 13093 H 1241.81 0.249677 -4.24566 0
M  V30 13094 N 1240.13 1.55939 -0.228214 0
M  V30 13095 C 1241.06 2.2357 0.6737 0
M  V30 13096 C 1242.04 1.20964 1.1959 0
M  V30 13097 O 1243.22 1.49568 1.23867 0
M  V30 13098 C 1240.35 2.92076 1.87906 0
M  V30 13099 C 1239.31 4.01211 1.49043 0
M  V30 13100 C 1238.63 4.57047 2.77511 0
M  V30 13101 C 1239.93 5.17914 0.67544 0
M  V30 13102 H 1241.63 2.99199 0.109806 0
M  V30 13103 H 1239.17 1.43908 0.0513732 0
M  V30 13104 H 1241.12 3.38083 2.51551 0
M  V30 13105 H 1239.85 2.13906 2.46803 0
M  V30 13106 H 1238.51 3.55945 0.877411 0
M  V30 13107 H 1238.16 3.75599 3.34566 0
M  V30 13108 H 1237.86 5.30707 2.52239 0
M  V30 13109 H 1239.38 5.05776 3.42087 0
M  V30 13110 H 1240.79 5.60261 1.21575 0
M  V30 13111 H 1239.19 5.97847 0.519536 0
M  V30 13112 H 1240.26 4.83866 -0.316495 0
M  V30 13113 N 1241.6 -0.0451101 1.57535 0
M  V30 13114 C 1242.55 -1.05066 2.05499 0
M  V30 13115 C 1243.52 -1.36884 0.940843 0
M  V30 13116 O 1244.71 -1.47497 1.21034 0
M  V30 13117 C 1241.85 -2.35139 2.52594 0
M  V30 13118 C 1240.96 -2.0962 3.77735 0
M  V30 13119 C 1240.09 -3.33447 4.13505 0
M  V30 13120 C 1239.13 -3.03411 5.31609 0
M  V30 13121 N 1238.27 -4.19644 5.62888 0
M  V30 13122 H 1243.11 -0.63469 2.91163 0
M  V30 13123 H 1240.65 -0.30179 1.43971 0
M  V30 13124 H 1242.61 -3.11118 2.7796 0
M  V30 13125 H 1241.24 -2.74489 1.69869 0
M  V30 13126 H 1240.29 -1.24211 3.59549 0
M  V30 13127 H 1241.6 -1.83452 4.63839 0
M  V30 13128 H 1240.75 -4.17805 4.39914 0
M  V30 13129 H 1239.49 -3.62715 3.2602 0
M  V30 13130 H 1238.5 -2.17453 5.04969 0
M  V30 13131 H 1239.72 -2.75438 6.20734 0
M  V30 13132 H 1237.67 -4.48893 4.78363 0
M  V30 13133 H 1237.59 -3.96843 6.43468 0
M  V30 13134 H 1238.85 -5.04921 5.93865 0
M  V30 13135 N 1243.08 -1.54377 -0.317073 0
M  V30 13136 C 1244.01 -1.8721 -1.39552 0
M  V30 13137 C 1244.99 -0.729483 -1.53664 0
M  V30 13138 O 1246.18 -0.983799 -1.67437 0
M  V30 13139 C 1243.31 -2.1052 -2.76222 0
M  V30 13140 C 1242.26 -3.26366 -2.76892 0
M  V30 13141 C 1241.59 -3.35061 -4.16699 0
M  V30 13142 C 1242.89 -4.63862 -2.40061 0
M  V30 13143 H 1244.58 -2.77532 -1.12323 0
M  V30 13144 H 1242.13 -1.33536 -0.538897 0
M  V30 13145 H 1244.08 -2.32073 -3.51739 0
M  V30 13146 H 1242.81 -1.16953 -3.04942 0
M  V30 13147 H 1241.46 -3.0471 -2.03831 0
M  V30 13148 H 1241.11 -2.39041 -4.4257 0
M  V30 13149 H 1240.81 -4.12923 -4.18053 0
M  V30 13150 H 1242.34 -3.58856 -4.94019 0
M  V30 13151 H 1243.75 -4.85252 -3.05292 0
M  V30 13152 H 1242.15 -5.44321 -2.52655 0
M  V30 13153 H 1243.22 -4.6567 -1.35202 0
M  V30 13154 N 1244.56 0.579466 -1.4656 0
M  V30 13155 C 1245.81 1.33379 -1.51304 0
M  V30 13156 C 1246.12 1.94855 -0.170507 0
M  V30 13157 O 1247.33 2.71331 -0.0957704 0
M  V30 13158 C 1245.78 2.41748 -2.66619 0
M  V30 13159 C 1245.39 1.8656 -4.07307 0
M  V30 13160 C 1247.14 3.18502 -2.80636 0
M  V30 13161 C 1245.04 2.92578 -5.13957 0
M  V30 13162 H 1243.97 0.501422 -0.56311 0
M  V30 13163 H 1246.62 0.618025 -1.72779 0
M  V30 13164 H 1245.01 3.16138 -2.3848 0
M  V30 13165 H 1246.18 1.18692 -4.45252 0
M  V30 13166 H 1244.5 1.22464 -3.97984 0
M  V30 13167 H 1247.09 3.9763 -3.57483 0
M  V30 13168 H 1247.44 3.71295 -1.8827 0
M  V30 13169 H 1247.97 2.51219 -3.08437 0
M  V30 13170 H 1244.71 2.44668 -6.08126 0
M  V30 13171 H 1244.23 3.58926 -4.80554 0
M  V30 13172 H 1245.91 3.56471 -5.39942 0
M  V30 13173 N 1246.04 1.3432 0.824371 0
M  V30 13174 C 1247 1.25672 1.91675 0
M  V30 13175 C 1248 0.172269 1.59875 0
M  V30 13176 O 1249.19 0.424794 1.68941 0
M  V30 13177 C 1246.32 0.939928 3.27686 0
M  V30 13178 H 1247.52 2.22785 2.00766 0
M  V30 13179 H 1245.07 1.18587 1.01817 0
M  V30 13180 H 1245.8 -0.0280898 3.24288 0
M  V30 13181 H 1245.59 1.72432 3.5215 0
M  V30 13182 H 1247.08 0.904553 4.07686 0
M  V30 13183 N 1247.52 -1.0444 1.18026 0
M  V30 13184 C 1248.45 -2.11888 0.847277 0
M  V30 13185 C 1249.43 -1.61496 -0.189171 0
M  V30 13186 O 1250.61 -1.88374 -0.0689859 0
M  V30 13187 C 1247.74 -3.3766 0.26525 0
M  V30 13188 C 1246.78 -4.06893 1.27829 0
M  V30 13189 S 1247.62 -4.54445 2.83267 0
M  V30 13190 C 1248.77 -5.83454 2.26565 0
M  V30 13191 H 1249.01 -2.39806 1.75727 0
M  V30 13192 H 1246.54 -1.17152 1.00572 0
M  V30 13193 H 1248.5 -4.1045 -0.0640578 0
M  V30 13194 H 1247.16 -3.07864 -0.622806 0
M  V30 13195 H 1246.35 -4.97287 0.819849 0
M  V30 13196 H 1245.95 -3.40203 1.55364 0
M  V30 13197 H 1248.25 -6.57203 1.64591 0
M  V30 13198 H 1249.19 -6.34056 3.15244 0
M  V30 13199 H 1249.6 -5.3838 1.69728 0
M  V30 13200 N 1248.99 -0.981699 -1.2329 0
M  V30 13201 C 1250.22 -0.669025 -1.96313 0
M  V30 13202 C 1250.64 0.757624 -1.72168 0
M  V30 13203 O 1250 1.51626 -0.993942 0
M  V30 13204 C 1250.05 -0.966875 -3.47396 0
M  V30 13205 O 1249.15 -0.0595933 -4.12357 0
M  V30 13206 H 1248.5 -0.251493 -0.61453 0
M  V30 13207 H 1251.03 -1.31564 -1.56691 0
M  V30 13208 H 1251.04 -0.904112 -3.97857 0
M  V30 13209 H 1249.71 -2.00651 -3.64296 0
M  V30 13210 H 1248.29 -0.176878 -3.7248 0
M  V30 13211 N 1250.47 1.3842 -0.753509 0
M  V30 13212 C 1251.88 1.82847 -0.377331 0
M  V30 13213 C 1252.23 1.62867 1.09401 0
M  V30 13214 O 1251.36 1.12981 1.84565 0
M  V30 13215 C 1251.95 3.31945 -0.678095 0
M  V30 13216 C 1250.51 3.7472 -0.355196 0
M  V30 13217 C 1249.66 2.61193 -0.931311 0
M  V30 13218 H 1252.61 1.2715 -0.949667 0
M  V30 13219 H 1252.63 3.80475 0.0437292 0
M  V30 13220 H 1252.14 3.46455 -1.74902 0
M  V30 13221 H 1250.25 3.65789 0.70915 0
M  V30 13222 H 1250.36 4.71487 -0.850693 0
M  V30 13223 H 1248.72 2.5219 -0.356695 0
M  V30 13224 H 1249.51 2.78503 -2.00727 0
M  V30 13225 N 1251.95 0.502579 1.49372 0
M  V30 13226 C 1252.9 -0.275004 2.29156 0
M  V30 13227 C 1253.87 -0.95892 1.35624 0
M  V30 13228 O 1255.05 -0.965276 1.64581 0
M  V30 13229 C 1252.19 -1.33255 3.18335 0
M  V30 13230 C 1251.31 -0.660248 4.26925 0
M  V30 13231 C 1250.44 -1.69837 5.03318 0
M  V30 13232 C 1249.48 -1.00802 6.03743 0
M  V30 13233 N 1248.62 -1.99042 6.73295 0
M  V30 13234 H 1253.46 0.411599 2.95144 0
M  V30 13235 H 1250.99 0.214824 1.45523 0
M  V30 13236 H 1252.95 -1.95769 3.68416 0
M  V30 13237 H 1251.58 -1.98789 2.54328 0
M  V30 13238 H 1250.63 0.0782181 3.8032 0
M  V30 13239 H 1251.95 -0.11689 4.98663 0
M  V30 13240 H 1251.1 -2.39852 5.57275 0
M  V30 13241 H 1249.84 -2.27558 4.31357 0
M  V30 13242 H 1248.84 -0.293654 5.49015 0
M  V30 13243 H 1250.07 -0.437285 6.77691 0
M  V30 13244 H 1248.01 -2.55722 6.04104 0
M  V30 13245 H 1247.93 -1.49776 7.41015 0
M  V30 13246 H 1249.2 -2.6834 7.31856 0
M  V30 13247 N 1253.43 -1.55816 0.23648 0
M  V30 13248 C 1254.68 -1.98686 -0.391146 0
M  V30 13249 C 1255 -1.12443 -1.58703 0
M  V30 13250 O 1254.26 -0.172805 -1.94936 0
M  V30 13251 C 1254.56 -3.47039 -0.85434 0
M  V30 13252 C 1254.22 -4.50299 0.232651 0
M  V30 13253 C 1252.89 -4.78259 0.531218 0
M  V30 13254 C 1255.24 -5.1215 0.967027 0
M  V30 13255 C 1252.57 -5.65347 1.56842 0
M  V30 13256 C 1254.92 -6.00363 1.99367 0
M  V30 13257 C 1253.58 -6.2666 2.299 0
M  V30 13258 H 1252.85 -0.727045 -0.14313 0
M  V30 13259 H 1255.5 -1.88419 0.342125 0
M  V30 13260 H 1253.8 -3.54585 -1.66663 0
M  V30 13261 H 1255.5 -3.7759 -1.35005 0
M  V30 13262 H 1252.09 -4.28599 -0.0102014 0
M  V30 13263 H 1256.27 -4.90606 0.749609 0
M  V30 13264 H 1251.53 -5.83981 1.81043 0
M  V30 13265 H 1255.7 -6.47335 2.56769 0
M  V30 13266 H 1253.33 -6.93938 3.1041 0
M  V30 13267 N 1254.91 0.036755 -1.57557 0
M  V30 13268 C 1256.14 0.740011 -1.92892 0
M  V30 13269 C 1256.54 1.69828 -0.833964 0
M  V30 13270 O 1255.89 1.82619 0.198974 0
M  V30 13271 C 1255.95 1.55827 -3.23972 0
M  V30 13272 C 1255.61 0.765613 -4.50541 0
M  V30 13273 C 1256.61 0.0692686 -5.19854 0
M  V30 13274 C 1254.3 0.722425 -4.97078 0
M  V30 13275 C 1256.29 -0.659649 -6.33977 0
M  V30 13276 C 1253.98 -0.0102431 -6.11099 0
M  V30 13277 C 1254.97 -0.700047 -6.79403 0
M  V30 13278 O 1254.66 -1.42084 -7.91244 0
M  V30 13279 H 1254.39 0.213496 -0.641401 0
M  V30 13280 H 1256.95 0.000665152 -2.054 0
M  V30 13281 H 1255.18 2.34125 -3.0777 0
M  V30 13282 H 1256.87 2.14343 -3.44691 0
M  V30 13283 H 1257.63 0.0937148 -4.84909 0
M  V30 13284 H 1253.51 1.24883 -4.43763 0
M  V30 13285 H 1257.06 -1.19861 -6.87226 0
M  V30 13286 H 1252.95 -0.0366395 -6.4549 0
M  V30 13287 H 1253.72 -1.33372 -8.07561 0
M  V30 13288 N 1256.39 1.54543 0.308881 0
M  V30 13289 C 1257.63 1.73449 1.04506 0
M  V30 13290 C 1257.96 0.516034 1.8753 0
M  V30 13291 O 1257.22 -0.502106 1.89149 0
M  V30 13292 C 1257.51 2.97124 1.98626 0
M  V30 13293 C 1257.18 4.31256 1.31641 0
M  V30 13294 C 1255.84 4.67719 1.13105 0
M  V30 13295 C 1258.19 5.14437 0.836888 0
M  V30 13296 C 1255.52 5.84949 0.452878 0
M  V30 13297 C 1257.87 6.32365 0.172473 0
M  V30 13298 C 1256.54 6.67495 -0.0249143 0
M  V30 13299 H 1255.81 0.634697 0.382415 0
M  V30 13300 H 1258.46 1.88795 0.320714 0
M  V30 13301 H 1256.76 2.76526 2.77562 0
M  V30 13302 H 1258.46 3.08946 2.55643 0
M  V30 13303 H 1255.05 4.02576 1.47074 0
M  V30 13304 H 1259.23 4.86772 0.967834 0
M  V30 13305 H 1254.49 6.10717 0.288886 0
M  V30 13306 H 1258.66 6.96092 -0.207027 0
M  V30 13307 H 1256.29 7.5819 -0.552425 0
M  V30 13308 N 1257.86 -0.571685 1.46866 0
M  V30 13309 C 1258.8 -1.69475 1.54307 0
M  V30 13310 C 1259.81 -1.57006 0.430449 0
M  V30 13311 O 1261 -1.64229 0.69936 0
M  V30 13312 C 1258.1 -3.07824 1.41766 0
M  V30 13313 C 1257.27 -3.46189 2.67342 0
M  V30 13314 C 1256.33 -4.63642 2.48843 0
M  V30 13315 O 1255.36 -4.68949 3.22608 0
M  V30 13316 N 1256.56 -5.59223 1.55724 0
M  V30 13317 H 1259.32 -1.63543 2.51145 0
M  V30 13318 H 1256.88 -0.757957 1.43062 0
M  V30 13319 H 1258.88 -3.84208 1.27146 0
M  V30 13320 H 1257.45 -3.08063 0.530667 0
M  V30 13321 H 1256.67 -2.59399 2.96826 0
M  V30 13322 H 1257.95 -3.68591 3.50739 0
M  V30 13323 H 1257.35 -5.5768 0.949175 0
M  V30 13324 H 1255.91 -6.34993 1.47063 0
M  V30 13325 N 1259.34 -1.34755 -0.817236 0
M  V30 13326 C 1260.25 -1.28888 -1.96023 0
M  V30 13327 C 1261.27 -0.195582 -1.72897 0
M  V30 13328 O 1262.44 -0.423071 -1.96906 0
M  V30 13329 C 1259.51 -1.04985 -3.30423 0
M  V30 13330 C 1258.57 -2.23526 -3.66517 0
M  V30 13331 C 1257.8 -2.00753 -4.94504 0
M  V30 13332 O 1258.03 -0.968622 -5.62116 0
M  V30 13333 O 1256.96 -2.87848 -5.28608 0
M  V30 13334 H 1260.79 -2.25059 -2.03917 0
M  V30 13335 H 1258.37 -1.15019 -0.953467 0
M  V30 13336 H 1260.25 -0.934589 -4.10906 0
M  V30 13337 H 1258.93 -0.118582 -3.23483 0
M  V30 13338 H 1257.83 -2.40613 -2.86455 0
M  V30 13339 H 1259.17 -3.15062 -3.78149 0
M  V30 13340 N 1260.82 1.03812 -1.18578 0
M  V30 13341 C 1262.07 1.76706 -0.980776 0
M  V30 13342 C 1262.39 1.88729 0.490562 0
M  V30 13343 O 1261.66 1.41413 1.35569 0
M  V30 13344 H 1260.24 0.654586 -0.359898 0
M  V30 13345 H 1262.9 1.25274 -1.49306 0
M  V30 13346 H 1262 2.77876 -1.42096 0
M  V30 13347 N 1262.3 0.988223 1.22768 0
M  V30 13348 C 1263.54 0.672085 1.91975 0
M  V30 13349 C 1263.9 -0.786719 1.7558 0
M  V30 13350 O 1263.19 -1.561 1.111 0
M  V30 13351 C 1263.39 1.00744 3.42907 0
M  V30 13352 C 1263.21 2.4973 3.73985 0
M  V30 13353 C 1261.98 3.16058 3.94253 0
M  V30 13354 C 1264.18 3.47831 3.78838 0
M  V30 13355 N 1262.16 4.54568 4.12603 0
M  V30 13356 C 1263.54 4.7178 4.02273 0
M  V30 13357 C 1265.59 3.42203 3.61665 0
M  V30 13358 C 1264.29 5.90789 4.10318 0
M  V30 13359 C 1266.32 4.60584 3.70967 0
M  V30 13360 C 1265.68 5.83331 3.94847 0
M  V30 13361 H 1261.78 0.297129 0.723352 0
M  V30 13362 H 1264.36 1.26728 1.47811 0
M  V30 13363 H 1262.54 0.440869 3.8589 0
M  V30 13364 H 1264.27 0.647774 3.99482 0
M  V30 13365 H 1261.02 2.66536 3.91479 0
M  V30 13366 H 1261.45 5.26399 4.25715 0
M  V30 13367 H 1266.09 2.48323 3.42193 0
M  V30 13368 H 1263.81 6.85078 4.28596 0
M  V30 13369 H 1267.39 4.57813 3.59024 0
M  V30 13370 H 1266.27 6.73403 4.01868 0
M  V30 13371 N 1263.78 -1.38018 0.760839 0
M  V30 13372 C 1264.72 -2.32251 0.127425 0
M  V30 13373 C 1265.72 -1.54387 -0.69722 0
M  V30 13374 O 1266.92 -1.69864 -0.595505 0
M  V30 13375 H 1263.3 -0.751666 0.0224141 0
M  V30 13376 H 1265.27 -2.8327 0.93813 0
M  V30 13377 C 1264.02 -3.39606 -0.745849 0
M  V30 13378 H 1263.34 -3.99618 -0.120679 0
M  V30 13379 H 1264.78 -4.07931 -1.15621 0
M  V30 13380 C 1263.24 -2.78778 -1.89167 0
M  V30 13381 O 1263.77 -2.68661 -2.98637 0
M  V30 13382 N 1261.98 -2.36481 -1.68894 0
M  V30 13383 H 1261.52 -2.4491 -0.798551 0
M  V30 13384 H 1261.48 -1.96126 -2.45728 0
M  V30 13385 N 1265.25 -0.510493 -1.49103 0
M  V30 13386 C 1266.5 0.0325393 -2.01674 0
M  V30 13387 C 1266.82 1.37162 -1.39448 0
M  V30 13388 O 1268.02 2.00189 -1.83402 0
M  V30 13389 C 1266.48 0.108433 -3.59737 0
M  V30 13390 C 1266.09 -1.22458 -4.30939 0
M  V30 13391 C 1267.83 0.601326 -4.20219 0
M  V30 13392 C 1265.74 -1.11033 -5.80884 0
M  V30 13393 H 1264.67 0.0159333 -0.753832 0
M  V30 13394 H 1267.32 -0.651344 -1.71551 0
M  V30 13395 H 1265.7 0.856974 -3.86616 0
M  V30 13396 H 1266.87 -1.98715 -4.15751 0
M  V30 13397 H 1265.19 -1.65166 -3.82242 0
M  V30 13398 H 1267.79 0.704462 -5.30039 0
M  V30 13399 H 1268.13 1.60247 -3.84222 0
M  V30 13400 H 1268.66 -0.0909561 -3.97696 0
M  V30 13401 H 1265.4 -2.08603 -6.21422 0
M  V30 13402 H 1264.92 -0.388798 -5.98539 0
M  V30 13403 H 1266.6 -0.792949 -6.42123 0
M  V30 13404 N 1266.73 1.55688 -0.24474 0
M  V30 13405 C 1267.98 1.98891 0.380603 0
M  V30 13406 C 1268.31 1.13283 1.58105 0
M  V30 13407 O 1267.56 0.183141 1.94841 0
M  V30 13408 C 1267.86 3.47487 0.835923 0
M  V30 13409 C 1267.53 4.5017 -0.256528 0
M  V30 13410 C 1266.19 4.7797 -0.556573 0
M  V30 13411 C 1268.54 5.1163 -0.994174 0
M  V30 13412 C 1265.87 5.64508 -1.59838 0
M  V30 13413 C 1268.22 5.99297 -2.02548 0
M  V30 13414 C 1266.88 6.25432 -2.3322 0
M  V30 13415 H 1266.15 0.727794 0.139273 0
M  V30 13416 H 1268.8 1.88235 -0.352113 0
M  V30 13417 H 1267.11 3.55464 1.64781 0
M  V30 13418 H 1268.8 3.78301 1.33001 0
M  V30 13419 H 1265.39 4.28598 -0.0125284 0
M  V30 13420 H 1269.58 4.90202 -0.775617 0
M  V30 13421 H 1264.83 5.83012 -1.84138 0
M  V30 13422 H 1269.01 6.45964 -2.60198 0
M  V30 13423 H 1266.63 6.92282 -3.14085 0
M  V30 13424 N 1268.21 -0.0283989 1.57574 0
M  V30 13425 C 1269.49 -0.754527 1.80461 0
M  V30 13426 C 1269.87 -1.93539 0.842966 0
M  V30 13427 O 1269.21 -2.28212 -0.114714 0
M  V30 13428 C 1269.42 -1.18694 3.28196 0
M  V30 13429 C 1270.77 -1.60257 3.93196 0
M  V30 13430 O 1271.8 -1.2815 3.32349 0
M  V30 13431 O 1270.66 -2.19853 5.00327 0
M  V30 13432 H 1267.75 -0.364936 0.742126 0
M  V30 13433 H 1270.3 -0.00512589 1.69699 0
M  V30 13434 H 1269.07 -0.34398 3.89785 0
M  V30 13435 H 1268.69 -1.99633 3.43849 0
M  V30 13436 N 1269.69 -1.54705 -0.300681 0
M  V30 13437 C 1270.93 -1.74001 -1.03585 0
M  V30 13438 C 1271.26 -0.525972 -1.87253 0
M  V30 13439 O 1270.52 0.492068 -1.89413 0
M  V30 13440 C 1270.82 -2.98173 -1.97047 0
M  V30 13441 C 1270.48 -4.31948 -1.29352 0
M  V30 13442 C 1269.14 -4.68312 -1.10623 0
M  V30 13443 C 1271.5 -5.14874 -0.809594 0
M  V30 13444 C 1268.82 -5.85181 -0.42185 0
M  V30 13445 C 1271.18 -6.32447 -0.138935 0
M  V30 13446 C 1269.84 -6.67473 0.0603129 0
M  V30 13447 H 1269.11 -0.636716 -0.379044 0
M  V30 13448 H 1271.76 -1.88963 -0.310697 0
M  V30 13449 H 1270.06 -2.77994 -2.76091 0
M  V30 13450 H 1271.76 -3.10297 -2.54001 0
M  V30 13451 H 1268.35 -4.0335 -1.44937 0
M  V30 13452 H 1272.53 -4.87278 -0.942006 0
M  V30 13453 H 1267.79 -6.10862 -0.256494 0
M  V30 13454 H 1271.96 -6.95973 0.243939 0
M  V30 13455 H 1269.59 -7.57887 0.592626 0
M  V30 13456 N 1271.17 0.563888 -1.47167 0
M  V30 13457 C 1272.42 1.31766 -1.5271 0
M  V30 13458 C 1272.73 1.94664 -0.191164 0
M  V30 13459 O 1273.93 2.71214 -0.124543 0
M  V30 13460 C 1272.39 2.38907 -2.69168 0
M  V30 13461 C 1272 1.8223 -4.09263 0
M  V30 13462 C 1273.74 3.15508 -2.83999 0
M  V30 13463 C 1271.65 2.87111 -5.17031 0
M  V30 13464 H 1270.58 0.495421 -0.568396 0
M  V30 13465 H 1273.23 0.599665 -1.73425 0
M  V30 13466 H 1271.61 3.13591 -2.4182 0
M  V30 13467 H 1272.79 1.13963 -4.46485 0
M  V30 13468 H 1271.1 1.18235 -3.99261 0
M  V30 13469 H 1273.7 3.93816 -3.61681 0
M  V30 13470 H 1274.04 3.69277 -1.92197 0
M  V30 13471 H 1274.57 2.47934 -3.11085 0
M  V30 13472 H 1271.31 2.38204 -6.10687 0
M  V30 13473 H 1270.83 3.53809 -4.84334 0
M  V30 13474 H 1272.51 3.50724 -5.43692 0
M  V30 13475 N 1272.64 1.35187 0.810078 0
M  V30 13476 C 1273.89 1.27602 1.56207 0
M  V30 13477 C 1274.21 -0.148621 1.95035 0
M  V30 13478 O 1275.41 -0.346721 2.69277 0
M  V30 13479 C 1273.87 2.23759 2.81886 0
M  V30 13480 C 1273.48 3.71549 2.5031 0
M  V30 13481 C 1275.22 2.25109 3.59898 0
M  V30 13482 C 1273.13 4.5954 3.7226 0
M  V30 13483 H 1272.06 0.474078 0.586316 0
M  V30 13484 H 1274.71 1.6043 0.890759 0
M  V30 13485 H 1273.09 1.83898 3.5071 0
M  V30 13486 H 1274.26 4.20025 1.89515 0
M  V30 13487 H 1272.58 3.72773 1.85551 0
M  V30 13488 H 1275.18 2.88066 4.50469 0
M  V30 13489 H 1275.52 1.25387 3.96968 0
M  V30 13490 H 1276.05 2.63481 2.98031 0
M  V30 13491 H 1272.79 5.60246 3.403 0
M  V30 13492 H 1272.31 4.15792 4.32293 0
M  V30 13493 H 1273.99 4.74789 4.39528 0
M  V30 13494 N 1274.12 -1.03182 1.19127 0
M  V30 13495 C 1275.37 -1.76794 0.993563 0
M  V30 13496 C 1275.7 -1.88306 -0.474809 0
M  V30 13497 O 1274.98 -1.39769 -1.35258 0
M  V30 13498 C 1275.26 -3.19573 1.65968 0
M  V30 13499 C 1275.11 -3.1595 3.2015 0
M  V30 13500 C 1276.43 -4.17897 1.38023 0
M  V30 13501 H 1273.55 -0.641768 0.362357 0
M  V30 13502 H 1276.19 -1.20472 1.46924 0
M  V30 13503 H 1274.34 -3.67663 1.25524 0
M  V30 13504 H 1276.01 -2.7578 3.69788 0
M  V30 13505 H 1274.26 -2.53743 3.51848 0
M  V30 13506 H 1274.93 -4.16811 3.61901 0
M  V30 13507 H 1277.4 -3.78394 1.73082 0
M  V30 13508 H 1276.28 -5.15997 1.87186 0
M  V30 13509 H 1276.54 -4.41048 0.304812 0
M  V30 13510 N 1275.6 -0.99472 -1.22242 0
M  V30 13511 C 1276.56 -0.551619 -2.22463 0
M  V30 13512 C 1277.56 0.366498 -1.56568 0
M  V30 13513 O 1278.75 0.158204 -1.7348 0
M  V30 13514 C 1275.89 0.197416 -3.40328 0
M  V30 13515 H 1277.08 -1.43795 -2.63179 0
M  V30 13516 H 1274.63 -0.782121 -1.35324 0
M  V30 13517 H 1275.37 1.09965 -3.05087 0
M  V30 13518 H 1275.15 -0.461829 -3.89371 0
M  V30 13519 H 1276.64 0.495534 -4.1465 0
M  V30 13520 N 1277.08 1.37613 -0.768148 0
M  V30 13521 C 1278.01 2.3291 -0.165911 0
M  V30 13522 C 1278.99 1.556 0.687205 0
M  V30 13523 O 1280.17 1.83854 0.625407 0
M  V30 13524 C 1277.3 3.39822 0.7168 0
M  V30 13525 C 1276.26 4.27986 -0.0347264 0
M  V30 13526 C 1275.58 5.2588 0.967192 0
M  V30 13527 C 1276.88 5.08052 -1.21164 0
M  V30 13528 H 1278.58 2.83524 -0.962006 0
M  V30 13529 H 1276.12 1.36318 -0.464051 0
M  V30 13530 H 1278.08 4.05464 1.14789 0
M  V30 13531 H 1276.8 2.87725 1.54538 0
M  V30 13532 H 1275.46 3.6387 -0.446557 0
M  V30 13533 H 1275.11 4.70064 1.79022 0
M  V30 13534 H 1274.81 5.85726 0.468913 0
M  V30 13535 H 1276.33 5.94397 1.3973 0
M  V30 13536 H 1277.75 5.66853 -0.857373 0
M  V30 13537 H 1276.14 5.77206 -1.64176 0
M  V30 13538 H 1277.21 4.40936 -2.0175 0
M  V30 13539 N 1278.56 0.518393 1.4883 0
M  V30 13540 C 1279.78 -0.0183131 2.07392 0
M  V30 13541 C 1280.21 -1.28468 1.37396 0
M  V30 13542 O 1279.56 -1.75975 0.436177 0
M  V30 13543 C 1279.61 -0.237211 3.59819 0
M  V30 13544 O 1278.72 -1.30835 3.91096 0
M  V30 13545 H 1278.06 0.0339621 0.663131 0
M  V30 13546 H 1280.59 0.722993 1.914 0
M  V30 13547 H 1280.6 -0.463424 4.0536 0
M  V30 13548 H 1279.27 0.687925 4.10171 0
M  V30 13549 H 1277.85 -1.06571 3.57347 0
M  V30 13550 N 1280.03 -1.55556 0.252993 0
M  V30 13551 C 1280.96 -2.24613 -0.638047 0
M  V30 13552 C 1281.95 -1.22852 -1.1765 0
M  V30 13553 O 1283.13 -1.51519 -1.21472 0
M  V30 13554 C 1280.26 -2.95029 -1.83236 0
M  V30 13555 C 1279.21 -4.03531 -1.42641 0
M  V30 13556 C 1278.54 -4.61404 -2.70204 0
M  V30 13557 C 1279.84 -5.18923 -0.592958 0
M  V30 13558 H 1281.53 -2.99335 -0.0621918 0
M  V30 13559 H 1279.08 -1.43972 -0.0284722 0
M  V30 13560 H 1281.03 -3.42042 -2.46141 0
M  V30 13561 H 1279.76 -2.17805 -2.43369 0
M  V30 13562 H 1278.42 -3.57296 -0.820672 0
M  V30 13563 H 1278.06 -3.80874 -3.28548 0
M  V30 13564 H 1277.76 -5.34652 -2.43764 0
M  V30 13565 H 1279.29 -5.11154 -3.33997 0
M  V30 13566 H 1280.7 -5.62124 -1.12646 0
M  V30 13567 H 1279.1 -5.98598 -0.424358 0
M  V30 13568 H 1280.17 -4.83301 0.393434 0
M  V30 13569 N 1281.51 0.0200419 -1.57587 0
M  V30 13570 C 1282.44 1.01715 -2.10181 0
M  V30 13571 C 1283.42 1.37136 -1.00636 0
M  V30 13572 O 1284.61 1.45862 -1.2821 0
M  V30 13573 C 1281.74 2.31531 -2.58865 0
M  V30 13574 C 1280.69 2.10327 -3.72755 0
M  V30 13575 C 1280.02 3.45981 -4.07678 0
M  V30 13576 C 1281.32 1.4821 -5.0083 0
M  V30 13577 H 1283.01 0.579307 -2.93742 0
M  V30 13578 H 1280.56 0.277211 -1.41307 0
M  V30 13579 H 1282.51 3.01623 -2.94281 0
M  V30 13580 H 1281.24 2.77392 -1.72399 0
M  V30 13581 H 1279.89 1.42665 -3.37701 0
M  V30 13582 H 1279.54 3.89508 -3.18265 0
M  V30 13583 H 1279.24 3.32616 -4.84397 0
M  V30 13584 H 1280.77 4.17421 -4.45637 0
M  V30 13585 H 1282.18 2.08232 -5.34146 0
M  V30 13586 H 1280.58 1.45393 -5.82221 0
M  V30 13587 H 1281.65 0.448942 -4.82817 0
M  V30 13588 N 1282.99 1.54862 0.292472 0
M  V30 13589 C 1283.9 1.89472 1.38339 0
M  V30 13590 C 1284.92 0.789783 1.55043 0
M  V30 13591 O 1286.09 1.08705 1.69544 0
M  V30 13592 C 1283.16 2.14244 2.72581 0
M  V30 13593 C 1282.22 3.37913 2.64789 0
M  V30 13594 C 1281.45 3.61494 3.92629 0
M  V30 13595 O 1281.67 2.87931 4.92394 0
M  V30 13596 O 1280.61 4.55019 3.94007 0
M  V30 13597 H 1284.43 2.82298 1.11989 0
M  V30 13598 H 1282.02 1.41161 0.489291 0
M  V30 13599 H 1283.9 2.31689 3.51991 0
M  V30 13600 H 1282.58 1.24603 2.98757 0
M  V30 13601 H 1281.48 3.25823 1.83821 0
M  V30 13602 H 1282.82 4.27711 2.43565 0
M  V30 13603 N 1284.47 -0.556076 1.47464 0
M  V30 13604 C 1285.4 -1.67275 1.62915 0
M  V30 13605 C 1286.38 -1.63229 0.478562 0
M  V30 13606 O 1287.56 -1.80833 0.708032 0
M  V30 13607 C 1284.69 -3.05911 1.64426 0
M  V30 13608 C 1283.65 -3.24804 2.78722 0
M  V30 13609 C 1282.97 -4.64238 2.65307 0
M  V30 13610 C 1284.27 -3.10071 4.20302 0
M  V30 13611 H 1285.97 -1.54601 2.56396 0
M  V30 13612 H 1283.51 -0.742337 1.23391 0
M  V30 13613 H 1285.47 -3.83878 1.73826 0
M  V30 13614 H 1284.19 -3.19547 0.675053 0
M  V30 13615 H 1282.85 -2.49246 2.68835 0
M  V30 13616 H 1282.5 -4.74675 1.66412 0
M  V30 13617 H 1282.2 -4.77828 3.41986 0
M  V30 13618 H 1283.72 -5.44339 2.76637 0
M  V30 13619 H 1285.14 -3.77855 4.3116 0
M  V30 13620 H 1283.53 -3.3517 4.97776 0
M  V30 13621 H 1284.6 -2.06803 4.38589 0
M  V30 13622 N 1285.95 -1.35615 -0.802897 0
M  V30 13623 C 1287.2 -1.28839 -1.55708 0
M  V30 13624 C 1287.52 0.135906 -1.94526 0
M  V30 13625 O 1286.79 1.07317 -1.6389 0
M  V30 13626 H 1285.37 -0.473906 -0.577427 0
M  V30 13627 H 1288.03 -1.69759 -0.957487 0
M  V30 13628 H 1287.12 -1.90675 -2.47082 0
M  V30 13629 N 1287.43 1.02549 -1.19673 0
M  V30 13630 C 1288.36 2.12794 -0.961289 0
M  V30 13631 C 1289.34 1.69766 0.106575 0
M  V30 13632 O 1290.52 1.94138 -0.0491358 0
M  V30 13633 C 1287.65 3.4364 -0.502868 0
M  V30 13634 C 1286.61 4.00367 -1.51296 0
M  V30 13635 C 1285.93 5.26874 -0.911491 0
M  V30 13636 C 1287.23 4.34782 -2.89416 0
M  V30 13637 H 1288.93 2.32748 -1.88331 0
M  V30 13638 H 1286.47 1.11852 -0.906922 0
M  V30 13639 H 1288.42 4.20141 -0.325436 0
M  V30 13640 H 1287.15 3.23418 0.454764 0
M  V30 13641 H 1285.81 3.25964 -1.67759 0
M  V30 13642 H 1285.46 5.02971 0.0537982 0
M  V30 13643 H 1285.16 5.65791 -1.58602 0
M  V30 13644 H 1286.68 6.06039 -0.74493 0
M  V30 13645 H 1288.09 5.02207 -2.76516 0
M  V30 13646 H 1286.49 4.8479 -3.53693 0
M  V30 13647 H 1287.56 3.43935 -3.41814 0
M  V30 13648 N 1288.9 1.00119 1.21713 0
M  V30 13649 C 1289.81 0.567582 2.27631 0
M  V30 13650 C 1290.83 -0.387593 1.69628 0
M  V30 13651 O 1292.01 -0.252372 1.99813 0
M  V30 13652 C 1289.07 -0.102745 3.46548 0
M  V30 13653 C 1288.13 0.896433 4.19836 0
M  V30 13654 C 1287.36 0.258 5.33076 0
M  V30 13655 O 1287.59 -0.946118 5.62499 0
M  V30 13656 O 1286.52 0.967021 5.94081 0
M  V30 13657 H 1290.35 1.44898 2.66905 0
M  V30 13658 H 1287.93 0.769862 1.28037 0
M  V30 13659 H 1289.81 -0.477846 4.18682 0
M  V30 13660 H 1288.49 -0.958576 3.09181 0
M  V30 13661 H 1287.4 1.32262 3.49939 0
M  V30 13662 H 1288.73 1.72173 4.61104 0
M  V30 13663 N 1290.38 -1.37203 0.775435 0
M  V30 13664 C 1291.33 -2.32102 0.152051 0
M  V30 13665 C 1292.32 -1.55117 -0.680806 0
M  V30 13666 O 1293.53 -1.70486 -0.577455 0
M  V30 13667 H 1289.9 -0.751386 0.0303853 0
M  V30 13668 H 1291.88 -2.82259 0.968121 0
M  V30 13669 C 1290.62 -3.40378 -0.709788 0
M  V30 13670 H 1289.95 -3.99723 -0.0782879 0
M  V30 13671 H 1291.39 -4.09134 -1.11288 0
M  V30 13672 C 1289.85 -2.80769 -1.862 0
M  V30 13673 O 1290.38 -2.71813 -2.95771 0
M  V30 13674 N 1288.58 -2.38259 -1.66376 0
M  V30 13675 H 1288.13 -2.45743 -0.772531 0
M  V30 13676 H 1288.09 -1.98721 -2.43634 0
M  V30 13677 N 1291.86 -0.526279 -1.48553 0
M  V30 13678 C 1293.11 0.00918008 -2.02798 0
M  V30 13679 C 1293.44 1.34284 -1.4029 0
M  V30 13680 O 1292.71 1.86639 -0.547355 0
M  V30 13681 C 1293 0.135102 -3.59846 0
M  V30 13682 C 1292.85 -1.22347 -4.32841 0
M  V30 13683 C 1294.17 0.863673 -4.31542 0
M  V30 13684 H 1291.29 0.00186216 -0.736998 0
M  V30 13685 H 1293.93 -0.682591 -1.77315 0
M  V30 13686 H 1292.08 0.724279 -3.81689 0
M  V30 13687 H 1293.75 -1.85347 -4.22427 0
M  V30 13688 H 1291.99 -1.80631 -3.94405 0
M  V30 13689 H 1292.67 -1.08839 -5.41164 0
M  V30 13690 H 1295.14 0.363734 -4.14507 0
M  V30 13691 H 1294.02 0.92067 -5.41124 0
M  V30 13692 H 1294.28 1.91313 -3.98562 0
M  V30 13693 N 1293.34 1.5542 -0.261239 0
M  V30 13694 C 1294.27 2.19334 0.665214 0
M  V30 13695 C 1295.28 1.17388 1.128 0
M  V30 13696 O 1296.47 1.44183 1.0523 0
M  V30 13697 C 1293.57 2.79425 1.91768 0
M  V30 13698 C 1292.74 4.06929 1.60399 0
M  V30 13699 C 1291.8 4.51199 2.70751 0
M  V30 13700 O 1290.83 5.17272 2.37526 0
M  V30 13701 N 1292.03 4.20179 4.00537 0
M  V30 13702 H 1294.8 2.99467 0.118262 0
M  V30 13703 H 1292.36 1.61693 -0.0817727 0
M  V30 13704 H 1294.35 3.05992 2.64861 0
M  V30 13705 H 1292.92 2.03366 2.37405 0
M  V30 13706 H 1292.14 3.87798 0.707559 0
M  V30 13707 H 1293.43 4.9003 1.36924 0
M  V30 13708 H 1292.83 3.67164 4.30357 0
M  V30 13709 H 1291.38 4.51549 4.7005 0
M  V30 13710 N 1294.82 -0.0116844 1.57596 0
M  V30 13711 C 1296.06 -0.697577 1.89679 0
M  V30 13712 C 1296.38 -1.74956 0.861122 0
M  V30 13713 O 1295.65 -1.95629 -0.103031 0
M  V30 13714 H 1294.23 -0.26064 0.700054 0
M  V30 13715 H 1296.9 0.0264782 1.94882 0
M  V30 13716 H 1295.99 -1.17621 2.89088 0
M  V30 13717 N 1296.29 -1.55015 -0.284256 0
M  V30 13718 C 1297.22 -1.90128 -1.3555 0
M  V30 13719 C 1298.2 -0.761914 -1.52082 0
M  V30 13720 O 1299.39 -1.01909 -1.65312 0
M  V30 13721 C 1296.52 -2.16332 -2.71695 0
M  V30 13722 C 1295.47 -3.32166 -2.69907 0
M  V30 13723 C 1294.8 -3.43824 -4.09498 0
M  V30 13724 C 1296.1 -4.6885 -2.30168 0
M  V30 13725 H 1297.79 -2.79852 -1.06411 0
M  V30 13726 H 1295.34 -1.34649 -0.510451 0
M  V30 13727 H 1297.29 -2.39482 -3.46737 0
M  V30 13728 H 1296.02 -1.23395 -3.02392 0
M  V30 13729 H 1294.68 -3.08965 -1.97322 0
M  V30 13730 H 1294.32 -2.48375 -4.374 0
M  V30 13731 H 1294.02 -4.21698 -4.092 0
M  V30 13732 H 1295.55 -3.69254 -4.86296 0
M  V30 13733 H 1296.96 -4.91619 -2.9493 0
M  V30 13734 H 1295.36 -5.49558 -2.41052 0
M  V30 13735 H 1296.43 -4.68433 -1.25294 0
M  V30 13736 N 1297.77 0.548248 -1.47757 0
M  V30 13737 C 1299 1.335 -1.58722 0
M  V30 13738 C 1299.42 1.86549 -0.241034 0
M  V30 13739 O 1298.78 1.63447 0.784517 0
M  V30 13740 C 1298.83 2.47457 -2.62293 0
M  V30 13741 O 1297.93 3.49956 -2.18185 0
M  V30 13742 H 1297.27 0.396166 -0.532868 0
M  V30 13743 H 1299.8 0.66164 -1.93607 0
M  V30 13744 H 1299.81 2.93901 -2.82995 0
M  V30 13745 H 1298.49 2.08203 -3.60034 0
M  V30 13746 H 1297.06 3.09755 -2.0762 0
M  V30 13747 N 1299.25 1.36039 0.795694 0
M  V30 13748 C 1300.5 1.30112 1.5556 0
M  V30 13749 C 1300.83 -0.121197 1.93821 0
M  V30 13750 O 1300.1 -1.07313 1.62216 0
M  V30 13751 C 1300.39 2.21792 2.8369 0
M  V30 13752 C 1300.24 3.72691 2.51836 0
M  V30 13753 C 1301.56 2.12365 3.85472 0
M  V30 13754 H 1298.68 0.473971 0.564376 0
M  V30 13755 H 1301.32 1.66536 0.91465 0
M  V30 13756 H 1299.47 1.9086 3.38386 0
M  V30 13757 H 1301.14 4.14115 2.0324 0
M  V30 13758 H 1299.38 3.92436 1.84869 0
M  V30 13759 H 1300.06 4.32242 3.43323 0
M  V30 13760 H 1302.53 2.3958 3.40207 0
M  V30 13761 H 1301.41 2.78695 4.72885 0
M  V30 13762 H 1301.67 1.10898 4.27965 0
M  V30 13763 N 1300.73 -1.01913 1.20215 0
M  V30 13764 C 1301.66 -2.12282 0.97256 0
M  V30 13765 C 1302.64 -1.6982 -0.0975709 0
M  V30 13766 O 1303.82 -1.94109 0.0594307 0
M  V30 13767 C 1300.95 -3.43369 0.521085 0
M  V30 13768 C 1299.91 -3.99559 1.53417 0
M  V30 13769 C 1299.23 -5.26383 0.93942 0
M  V30 13770 C 1300.53 -4.33241 2.91718 0
M  V30 13771 H 1302.23 -2.31746 1.89563 0
M  V30 13772 H 1299.77 -1.1137 0.912841 0
M  V30 13773 H 1301.73 -4.19963 0.347713 0
M  V30 13774 H 1300.45 -3.23655 -0.437605 0
M  V30 13775 H 1299.11 -3.25069 1.69486 0
M  V30 13776 H 1298.76 -5.02993 -0.0271236 0
M  V30 13777 H 1298.46 -5.64942 1.616 0
M  V30 13778 H 1299.98 -6.05635 0.777059 0
M  V30 13779 H 1301.4 -5.00734 2.79175 0
M  V30 13780 H 1299.79 -4.82907 3.56259 0
M  V30 13781 H 1300.86 -3.42118 3.43633 0
M  V30 13782 N 1302.21 -1.00763 -1.2118 0
M  V30 13783 C 1303.62 -0.720905 -1.42391 0
M  V30 13784 C 1303.82 0.702918 -1.88842 0
M  V30 13785 O 1302.88 1.47191 -2.05161 0
M  V30 13786 C 1304.19 -1.739 -2.45315 0
M  V30 13787 C 1305.74 -1.75611 -2.59094 0
M  V30 13788 C 1306.21 -2.76323 -3.65253 0
M  V30 13789 N 1307.71 -2.75007 -3.72727 0
M  V30 13790 C 1308.44 -3.49594 -4.54502 0
M  V30 13791 N 1307.94 -4.33828 -5.40153 0
M  V30 13792 N 1309.73 -3.38232 -4.4895 0
M  V30 13793 H 1301.88 -1.92697 -0.893404 0
M  V30 13794 H 1304.14 -0.831888 -0.454606 0
M  V30 13795 H 1303.85 -2.75859 -2.18162 0
M  V30 13796 H 1303.72 -1.5438 -3.44161 0
M  V30 13797 H 1306.11 -0.743416 -2.85582 0
M  V30 13798 H 1306.19 -1.99203 -1.60474 0
M  V30 13799 H 1305.84 -3.77751 -3.39509 0
M  V30 13800 H 1305.77 -2.49996 -4.63476 0
M  V30 13801 H 1308.26 -2.13897 -3.11539 0
M  V30 13802 H 1308.57 -4.8753 -5.99612 0
M  V30 13803 H 1306.91 -4.3791 -5.39685 0
M  V30 13804 H 1310.11 -2.71855 -3.81068 0
M  V30 13805 H 1310.28 -3.96615 -5.12445 0
M  V30 13806 N 1303.68 1.3679 -0.7827 0
M  V30 13807 C 1304.91 2.04206 -0.362571 0
M  V30 13808 C 1305.33 1.58637 1.01074 0
M  V30 13809 O 1304.69 0.751692 1.64983 0
M  V30 13810 C 1304.74 3.58062 -0.4271 0
M  V30 13811 O 1303.84 4.08463 0.56845 0
M  V30 13812 H 1303.19 0.645638 -0.155073 0
M  V30 13813 H 1305.72 1.74883 -1.06194 0
M  V30 13814 H 1305.73 4.0698 -0.288298 0
M  V30 13815 H 1304.4 3.90582 -1.42893 0
M  V30 13816 H 1302.98 3.70835 0.391863 0
M  V30 13817 N 1305.16 0.53415 1.48272 0
M  V30 13818 C 1306.41 0.00157259 2.025 0
M  V30 13819 C 1306.74 -1.33886 1.41085 0
M  V30 13820 O 1305.99 -1.87884 0.547544 0
M  V30 13821 C 1306.29 -0.165144 3.57018 0
M  V30 13822 C 1305.96 1.10146 4.3724 0
M  V30 13823 C 1304.62 1.44857 4.58879 0
M  V30 13824 C 1306.97 1.94183 4.83676 0
M  V30 13825 C 1304.3 2.63497 5.24201 0
M  V30 13826 C 1306.65 3.12005 5.50305 0
M  V30 13827 C 1305.32 3.47058 5.70182 0
M  V30 13828 H 1304.59 0.00057545 0.741 0
M  V30 13829 H 1307.23 0.701014 1.78208 0
M  V30 13830 H 1305.54 -0.947384 3.80173 0
M  V30 13831 H 1307.23 -0.592202 3.96603 0
M  V30 13832 H 1303.82 0.821132 4.20661 0
M  V30 13833 H 1308.01 1.68677 4.66757 0
M  V30 13834 H 1303.26 2.90852 5.37787 0
M  V30 13835 H 1307.44 3.77426 5.85254 0
M  V30 13836 H 1305.07 4.39086 6.2057 0
M  V30 13837 N 1306.64 -1.55279 0.269478 0
M  V30 13838 C 1308.06 -1.59374 -0.0848147 0
M  V30 13839 C 1308.26 -1.2867 -1.55068 0
M  V30 13840 O 1307.31 -1.04486 -2.29867 0
M  V30 13841 C 1308.63 -2.99349 0.284735 0
M  V30 13842 C 1310.17 -3.12147 0.230887 0
M  V30 13843 C 1310.65 -4.54379 0.574795 0
M  V30 13844 N 1312.14 -4.60202 0.526136 0
M  V30 13845 C 1312.87 -5.68273 0.765109 0
M  V30 13846 N 1312.37 -6.84512 1.0684 0
M  V30 13847 N 1314.16 -5.57796 0.694287 0
M  V30 13848 H 1306.31 -1.73503 1.22517 0
M  V30 13849 H 1308.58 -0.808771 0.494564 0
M  V30 13850 H 1308.28 -3.26633 1.30398 0
M  V30 13851 H 1308.16 -3.75309 -0.377199 0
M  V30 13852 H 1310.54 -2.84631 -0.779064 0
M  V30 13853 H 1310.63 -2.38412 0.926998 0
M  V30 13854 H 1310.27 -4.8262 1.58241 0
M  V30 13855 H 1310.2 -5.26406 -0.143044 0
M  V30 13856 H 1312.69 -3.76696 0.301368 0
M  V30 13857 H 1313 -7.62826 1.23757 0
M  V30 13858 H 1311.35 -6.86141 1.10612 0
M  V30 13859 H 1314.54 -4.65862 0.457226 0
M  V30 13860 H 1314.71 -6.41943 0.883913 0
M  V30 13861 N 1308.12 0.00332656 -1.576 0
M  V30 13862 C 1309.05 0.994803 -2.11248 0
M  V30 13863 C 1310.03 1.36061 -1.02085 0
M  V30 13864 O 1311.21 1.44494 -1.2975 0
M  V30 13865 C 1308.34 2.28772 -2.61306 0
M  V30 13866 C 1307.3 2.06362 -3.74965 0
M  V30 13867 C 1306.62 3.41638 -4.11324 0
M  V30 13868 C 1307.92 1.4289 -5.02374 0
M  V30 13869 H 1309.62 0.548119 -2.9434 0
M  V30 13870 H 1307.16 0.262208 -1.41593 0
M  V30 13871 H 1309.12 2.98485 -2.97464 0
M  V30 13872 H 1307.84 2.75547 -1.75332 0
M  V30 13873 H 1306.5 1.39076 -3.39195 0
M  V30 13874 H 1306.15 3.8611 -3.22379 0
M  V30 13875 H 1305.85 3.2746 -4.87897 0
M  V30 13876 H 1307.37 4.12671 -4.50039 0
M  V30 13877 H 1308.79 2.02555 -5.36325 0
M  V30 13878 H 1307.18 1.3921 -5.8373 0
M  V30 13879 H 1308.25 0.397708 -4.83266 0
M  V30 13880 N 1309.6 1.55164 0.276031 0
M  V30 13881 C 1310.53 1.90844 1.34539 0
M  V30 13882 C 1311.51 0.769968 1.51676 0
M  V30 13883 O 1312.69 1.02785 1.64769 0
M  V30 13884 C 1309.82 2.17769 2.70543 0
M  V30 13885 C 1308.78 3.33592 2.68142 0
M  V30 13886 C 1308.1 3.45991 4.07669 0
M  V30 13887 C 1309.4 4.70064 2.27678 0
M  V30 13888 H 1311.1 2.80412 1.04926 0
M  V30 13889 H 1308.64 1.34918 0.503303 0
M  V30 13890 H 1310.6 2.41317 3.45462 0
M  V30 13891 H 1309.32 1.24997 3.01734 0
M  V30 13892 H 1307.98 3.10007 1.95681 0
M  V30 13893 H 1307.63 2.50691 4.36077 0
M  V30 13894 H 1307.33 4.23862 4.06958 0
M  V30 13895 H 1308.85 3.71828 4.84331 0
M  V30 13896 H 1310.26 4.93176 2.92319 0
M  V30 13897 H 1308.66 5.50829 2.38134 0
M  V30 13898 H 1309.73 4.69091 1.22808 0
M  V30 13899 N 1311.07 -0.540404 1.48045 0
M  V30 13900 C 1312.49 -0.867958 1.33935 0
M  V30 13901 C 1312.69 -1.98568 0.342488 0
M  V30 13902 O 1311.75 -2.51357 -0.240022 0
M  V30 13903 C 1313.06 -1.24532 2.73701 0
M  V30 13904 C 1314.61 -1.3558 2.82112 0
M  V30 13905 C 1315.08 -1.76664 4.22556 0
M  V30 13906 N 1316.57 -1.83785 4.25179 0
M  V30 13907 C 1317.31 -2.16938 5.30778 0
M  V30 13908 N 1316.8 -2.48587 6.46666 0
M  V30 13909 N 1318.6 -2.17855 5.18166 0
M  V30 13910 H 1310.75 0.197251 2.11482 0
M  V30 13911 H 1313.01 0.0255947 0.947654 0
M  V30 13912 H 1312.72 -0.497731 3.4816 0
M  V30 13913 H 1312.59 -2.19779 3.06556 0
M  V30 13914 H 1314.98 -2.09417 2.07915 0
M  V30 13915 H 1315.06 -0.384787 2.52889 0
M  V30 13916 H 1314.7 -1.03391 4.97265 0
M  V30 13917 H 1314.63 -2.74797 4.49215 0
M  V30 13918 H 1317.12 -1.61645 3.41583 0
M  V30 13919 H 1317.44 -2.72959 7.22989 0
M  V30 13920 H 1315.78 -2.4613 6.49958 0
M  V30 13921 H 1318.97 -1.9258 4.2665 0
M  V30 13922 H 1319.15 -2.43361 6.00566 0
M  V30 13923 N 1312.55 -1.36459 -0.788468 0
M  V30 13924 C 1313.8 -1.30935 -1.54867 0
M  V30 13925 C 1314.13 0.110916 -1.93883 0
M  V30 13926 O 1313.41 1.06452 -1.62783 0
M  V30 13927 C 1313.69 -2.23294 -2.8251 0
M  V30 13928 C 1313.54 -3.74022 -2.49856 0
M  V30 13929 C 1314.86 -2.14407 -3.84341 0
M  V30 13930 H 1311.98 -0.476958 -0.561854 0
M  V30 13931 H 1314.62 -1.67018 -0.905805 0
M  V30 13932 H 1312.77 -1.92652 -3.37369 0
M  V30 13933 H 1314.44 -4.15187 -2.01041 0
M  V30 13934 H 1312.69 -3.93411 -1.82785 0
M  V30 13935 H 1313.36 -4.34057 -3.41026 0
M  V30 13936 H 1315.83 -2.41381 -3.38932 0
M  V30 13937 H 1314.71 -2.81199 -4.71401 0
M  V30 13938 H 1314.97 -1.13166 -4.27371 0
M  V30 13939 N 1314.03 1.01274 -1.20754 0
M  V30 13940 C 1315.28 1.74932 -1.02005 0
M  V30 13941 C 1315.61 1.89285 0.447372 0
M  V30 13942 O 1314.86 1.41838 1.34835 0
M  V30 13943 C 1315.16 3.16862 -1.65329 0
M  V30 13944 C 1314.83 3.22476 -3.15151 0
M  V30 13945 C 1313.49 3.23715 -3.56036 0
M  V30 13946 C 1315.84 3.20332 -4.11141 0
M  V30 13947 C 1313.17 3.20487 -4.91431 0
M  V30 13948 C 1315.52 3.18646 -5.46487 0
M  V30 13949 C 1314.18 3.18191 -5.8678 0
M  V30 13950 H 1313.45 0.640121 -0.373264 0
M  V30 13951 H 1316.1 1.18751 -1.50234 0
M  V30 13952 H 1314.41 3.76225 -1.09372 0
M  V30 13953 H 1316.1 3.72556 -1.48333 0
M  V30 13954 H 1312.69 3.22249 -2.82584 0
M  V30 13955 H 1316.88 3.18541 -3.80585 0
M  V30 13956 H 1312.13 3.18468 -5.21908 0
M  V30 13957 H 1316.31 3.1594 -6.20609 0
M  V30 13958 H 1313.93 3.15443 -6.91664 0
M  V30 13959 N 1315.51 1.01404 1.20644 0
M  V30 13960 C 1316.46 0.582109 2.23339 0
M  V30 13961 C 1317.43 -0.39649 1.61298 0
M  V30 13962 O 1318.61 -0.296504 1.88482 0
M  V30 13963 C 1315.75 -0.076029 3.45016 0
M  V30 13964 C 1314.86 0.946829 4.21496 0
M  V30 13965 C 1314 0.26001 5.30563 0
M  V30 13966 C 1313.04 1.2698 5.98784 0
M  V30 13967 N 1312.18 0.609827 6.99447 0
M  V30 13968 H 1317.02 1.46248 2.59645 0
M  V30 13969 H 1314.55 0.732145 1.27585 0
M  V30 13970 H 1316.51 -0.474714 4.1449 0
M  V30 13971 H 1315.14 -0.920062 3.0941 0
M  V30 13972 H 1314.19 1.4637 3.51113 0
M  V30 13973 H 1315.5 1.71491 4.68393 0
M  V30 13974 H 1314.66 -0.19431 6.06389 0
M  V30 13975 H 1313.4 -0.540395 4.84697 0
M  V30 13976 H 1312.4 1.73453 5.21722 0
M  V30 13977 H 1313.63 2.07144 6.46737 0
M  V30 13978 H 1311.57 -0.170756 6.55778 0
M  V30 13979 H 1311.49 1.31601 7.44458 0
M  V30 13980 H 1312.76 0.179014 7.79294 0
M  V30 13981 N 1316.99 -1.36373 0.789944 0
M  V30 13982 C 1317.92 -2.32616 0.202944 0
M  V30 13983 C 1318.9 -1.56674 -0.662364 0
M  V30 13984 O 1320.08 -1.84826 -0.596078 0
M  V30 13985 C 1317.21 -3.4092 -0.662646 0
M  V30 13986 C 1316.17 -4.27877 0.102811 0
M  V30 13987 C 1315.49 -5.27352 -0.883407 0
M  V30 13988 C 1316.79 -5.0606 1.29231 0
M  V30 13989 H 1318.49 -2.81958 1.00699 0
M  V30 13990 H 1316.03 -1.35562 0.48568 0
M  V30 13991 H 1317.99 -4.07239 -1.08324 0
M  V30 13992 H 1316.71 -2.90147 -1.4994 0
M  V30 13993 H 1315.37 -3.63114 0.504389 0
M  V30 13994 H 1315.02 -4.72853 -1.71521 0
M  V30 13995 H 1314.72 -5.86398 -0.375669 0
M  V30 13996 H 1316.24 -5.96545 -1.30256 0
M  V30 13997 H 1317.66 -5.65417 0.947446 0
M  V30 13998 H 1316.05 -5.74521 1.73338 0
M  V30 13999 H 1317.12 -4.37671 2.08739 0
M  V30 14000 N 1318.47 -0.542005 -1.47987 0
M  V30 14001 C 1319.43 0.203537 -2.28294 0
M  V30 14002 C 1320.43 0.856762 -1.36074 0
M  V30 14003 O 1321.62 0.71496 -1.58852 0
M  V30 14004 C 1318.75 1.29581 -3.15312 0
M  V30 14005 H 1319.94 -0.501701 -2.95674 0
M  V30 14006 H 1317.5 -0.298378 -1.53426 0
M  V30 14007 H 1318.23 2.03393 -2.5259 0
M  V30 14008 H 1318.02 0.832398 -3.83163 0
M  V30 14009 H 1319.51 1.81988 -3.75859 0
M  V30 14010 N 1319.94 1.55134 -0.277709 0
M  V30 14011 C 1320.89 2.2263 0.608637 0
M  V30 14012 C 1321.86 1.20067 1.14774 0
M  V30 14013 O 1323.05 1.48617 1.19657 0
M  V30 14014 C 1320.19 2.95308 1.78571 0
M  V30 14015 C 1319.3 4.12595 1.28021 0
M  V30 14016 C 1318.43 4.7291 2.41929 0
M  V30 14017 C 1317.47 5.82386 1.88395 0
M  V30 14018 N 1316.61 6.36754 2.95786 0
M  V30 14019 H 1321.45 2.97988 0.0264138 0
M  V30 14020 H 1318.99 1.471 0.00127068 0
M  V30 14021 H 1320.94 3.35662 2.47764 0
M  V30 14022 H 1319.57 2.22368 2.33992 0
M  V30 14023 H 1318.63 3.77343 0.481297 0
M  V30 14024 H 1319.94 4.91537 0.848128 0
M  V30 14025 H 1319.09 5.15997 3.1911 0
M  V30 14026 H 1317.83 3.93251 2.88453 0
M  V30 14027 H 1316.84 5.38746 1.09694 0
M  V30 14028 H 1318.06 6.63916 1.42803 0
M  V30 14029 H 1316.01 5.59987 3.41687 0
M  V30 14030 H 1315.92 7.10975 2.57002 0
M  V30 14031 H 1317.19 6.845 3.72935 0
M  V30 14032 N 1321.42 0.00503138 1.57599 0
M  V30 14033 C 1322.65 -0.693231 1.95471 0
M  V30 14034 C 1323.07 -1.66233 0.880246 0
M  V30 14035 O 1322.43 -1.80582 -0.161164 0
M  V30 14036 C 1322.48 -1.39696 3.32442 0
M  V30 14037 O 1321.58 -2.51154 3.27101 0
M  V30 14038 H 1320.92 -0.184015 0.637992 0
M  V30 14039 H 1323.45 0.0597194 2.04513 0
M  V30 14040 H 1323.46 -1.75924 3.68123 0
M  V30 14041 H 1322.14 -0.686438 4.10196 0
M  V30 14042 H 1320.71 -2.17216 3.03103 0
M  V30 14043 N 1322.9 -1.55308 -0.267798 0
M  V30 14044 C 1324.15 -1.77342 -0.99606 0
M  V30 14045 C 1324.5 -0.570502 -1.83747 0
M  V30 14046 O 1323.79 0.436721 -1.86556 0
M  V30 14047 C 1323.99 -3.02286 -1.90678 0
M  V30 14048 C 1323.82 -4.34614 -1.15501 0
M  V30 14049 C 1322.59 -4.97779 -0.868576 0
M  V30 14050 C 1324.78 -5.11427 -0.542865 0
M  V30 14051 N 1322.77 -6.13833 -0.0905541 0
M  V30 14052 C 1324.14 -6.19918 0.100738 0
M  V30 14053 C 1326.19 -4.95851 -0.45123 0
M  V30 14054 C 1324.9 -7.14528 0.827151 0
M  V30 14055 C 1326.92 -5.90821 0.261602 0
M  V30 14056 C 1326.28 -6.98705 0.893924 0
M  V30 14057 H 1322.38 -0.701146 -0.346292 0
M  V30 14058 H 1324.97 -1.92802 -0.271211 0
M  V30 14059 H 1323.14 -2.88192 -2.60384 0
M  V30 14060 H 1324.87 -3.12702 -2.56904 0
M  V30 14061 H 1321.62 -4.58789 -1.17515 0
M  V30 14062 H 1322.05 -6.76396 0.28594 0
M  V30 14063 H 1326.69 -4.1254 -0.925774 0
M  V30 14064 H 1324.41 -7.97356 1.31336 0
M  V30 14065 H 1327.99 -5.80847 0.332892 0
M  V30 14066 H 1326.87 -7.70927 1.43672 0
M  V30 14067 N 1324.38 0.532545 -1.4833 0
M  V30 14068 C 1325.79 1.11451 -1.49785 0
M  V30 14069 C 1326.14 1.94386 -0.266207 0
M  V30 14070 O 1325.26 2.07121 0.62688 0
M  V30 14071 C 1325.86 2.0279 -2.71407 0
M  V30 14072 C 1324.42 2.56209 -2.75742 0
M  V30 14073 C 1323.57 1.33114 -2.43261 0
M  V30 14074 H 1326.52 0.317924 -1.55483 0
M  V30 14075 H 1326.54 2.87038 -2.49779 0
M  V30 14076 H 1326.05 1.42401 -3.61031 0
M  V30 14077 H 1324.15 3.20327 -1.9032 0
M  V30 14078 H 1324.26 2.95518 -3.77102 0
M  V30 14079 H 1322.63 1.64607 -1.94362 0
M  V30 14080 H 1323.41 0.744809 -3.35123 0
M  V30 14081 N 1325.86 1.36875 0.78122 0
M  V30 14082 C 1327.08 1.34732 1.57019 0
M  V30 14083 C 1327.5 -0.0695423 1.88672 0
M  V30 14084 O 1326.86 -1.02873 1.50743 0
M  V30 14085 C 1326.91 2.17668 2.88623 0
M  V30 14086 O 1326.63 3.53832 2.5833 0
M  V30 14087 C 1328.13 2.23398 3.82895 0
M  V30 14088 H 1325.35 0.461857 0.486754 0
M  V30 14089 H 1327.89 1.80086 0.968989 0
M  V30 14090 H 1326.05 1.75848 3.4519 0
M  V30 14091 H 1326.46 3.972 3.42538 0
M  V30 14092 H 1327.94 2.85769 4.72271 0
M  V30 14093 H 1328.41 1.23972 4.2134 0
M  V30 14094 H 1329.02 2.65489 3.32258 0
M  V30 14095 N 1327.33 -1.00632 1.21289 0
M  V30 14096 C 1328.26 -2.11238 0.995021 0
M  V30 14097 C 1329.24 -1.69914 -0.0795537 0
M  V30 14098 O 1330.43 -1.94035 0.0800152 0
M  V30 14099 C 1327.56 -3.42797 0.557475 0
M  V30 14100 C 1326.51 -3.97909 1.57646 0
M  V30 14101 C 1325.84 -5.25357 0.995197 0
M  V30 14102 C 1327.14 -4.30123 2.96297 0
M  V30 14103 H 1328.83 -2.29722 1.9201 0
M  V30 14104 H 1326.38 -1.10395 0.924602 0
M  V30 14105 H 1328.33 -4.19571 0.392236 0
M  V30 14106 H 1327.06 -3.24101 -0.403253 0
M  V30 14107 H 1325.72 -3.23254 1.72924 0
M  V30 14108 H 1325.36 -5.02993 0.026227 0
M  V30 14109 H 1325.06 -5.63196 1.67583 0
M  V30 14110 H 1326.59 -6.04777 0.841251 0
M  V30 14111 H 1328 -4.97744 2.8447 0
M  V30 14112 H 1326.4 -4.79101 3.61361 0
M  V30 14113 H 1327.47 -3.38454 3.47242 0
M  V30 14114 N 1328.81 -1.02043 -1.20104 0
M  V30 14115 C 1329.76 -0.587332 -2.25063 0
M  V30 14116 C 1330.75 0.375844 -1.65178 0
M  V30 14117 O 1331.96 0.245347 -1.7832 0
M  V30 14118 H 1328.33 -0.171637 -0.732151 0
M  V30 14119 H 1330.31 -1.48339 -2.58917 0
M  V30 14120 C 1329.05 0.0546893 -3.47657 0
M  V30 14121 H 1328.38 -0.677457 -3.94018 0
M  V30 14122 H 1329.82 0.320786 -4.22785 0
M  V30 14123 C 1328.28 1.29869 -3.10863 0
M  V30 14124 O 1328.81 2.39161 -3.22746 0
M  V30 14125 N 1327.01 1.18423 -2.65376 0
M  V30 14126 H 1326.56 0.294895 -2.55906 0
M  V30 14127 H 1326.52 2.01755 -2.41128 0
M  V30 14128 N 1330.29 1.35952 -0.797165 0
M  V30 14129 C 1331.22 2.32506 -0.215277 0
M  V30 14130 C 1332.2 1.57023 0.654046 0
M  V30 14131 O 1333.39 1.85139 0.586268 0
M  V30 14132 C 1330.52 3.41266 0.644557 0
M  V30 14133 C 1329.47 4.27816 -0.125501 0
M  V30 14134 C 1328.8 5.27813 0.855428 0
M  V30 14135 C 1330.1 5.05367 -1.31913 0
M  V30 14136 H 1331.79 2.8142 -1.02193 0
M  V30 14137 H 1329.34 1.35303 -0.492862 0
M  V30 14138 H 1331.29 4.07808 1.06163 0
M  V30 14139 H 1330.01 2.90938 1.484 0
M  V30 14140 H 1328.67 3.62841 -0.523639 0
M  V30 14141 H 1328.32 4.73755 1.69011 0
M  V30 14142 H 1328.02 5.86589 0.344566 0
M  V30 14143 H 1329.54 5.97227 1.2709 0
M  V30 14144 H 1330.96 5.64907 -0.977418 0
M  V30 14145 H 1329.36 5.73593 -1.76382 0
M  V30 14146 H 1330.43 4.36558 -2.11057 0
M  V30 14147 N 1331.77 0.549846 1.47697 0
M  V30 14148 C 1332.7 -0.190364 2.32723 0
M  V30 14149 C 1333.68 -0.915933 1.43334 0
M  V30 14150 O 1334.86 -0.897838 1.72199 0
M  V30 14151 C 1331.99 -1.22545 3.24961 0
M  V30 14152 C 1330.95 -0.616805 4.23532 0
M  V30 14153 C 1330.27 -1.75599 5.05044 0
M  V30 14154 C 1331.57 0.424595 5.20571 0
M  V30 14155 H 1333.27 0.519461 2.94859 0
M  V30 14156 H 1330.81 0.251259 1.41791 0
M  V30 14157 H 1332.77 -1.75139 3.83281 0
M  V30 14158 H 1331.49 -1.96512 2.60865 0
M  V30 14159 H 1330.15 -0.112224 3.66428 0
M  V30 14160 H 1329.8 -2.48453 4.37356 0
M  V30 14161 H 1329.5 -1.35456 5.71774 0
M  V30 14162 H 1331.02 -2.28533 5.6622 0
M  V30 14163 H 1332.44 -0.0150025 5.73298 0
M  V30 14164 H 1330.83 0.7445 5.95464 0
M  V30 14165 H 1331.9 1.32318 4.66497 0
M  V30 14166 N 1333.25 -1.54984 0.285932 0
M  V30 14167 C 1334.5 -1.99008 -0.328433 0
M  V30 14168 C 1334.81 -1.17787 -1.56158 0
M  V30 14169 O 1336.01 -1.52006 -2.24959 0
M  V30 14170 C 1334.47 -3.54241 -0.635688 0
M  V30 14171 C 1334.08 -4.44252 0.578271 0
M  V30 14172 C 1335.82 -4.06828 -1.21208 0
M  V30 14173 C 1333.73 -5.90892 0.245003 0
M  V30 14174 H 1332.66 -0.743314 -0.126494 0
M  V30 14175 H 1335.31 -1.79258 0.39228 0
M  V30 14176 H 1333.69 -3.69834 -1.41559 0
M  V30 14177 H 1334.87 -4.40431 1.35489 0
M  V30 14178 H 1333.18 -4.02358 1.07225 0
M  V30 14179 H 1335.78 -5.13941 -1.47542 0
M  V30 14180 H 1336.12 -3.56515 -2.14948 0
M  V30 14181 H 1336.65 -3.94718 -0.494222 0
M  V30 14182 H 1333.39 -6.45323 1.15057 0
M  V30 14183 H 1332.91 -5.97757 -0.494636 0
M  V30 14184 H 1334.59 -6.46805 -0.158891 0
M  V30 14185 N 1334.72 -0.0133892 -1.57594 0
M  V30 14186 C 1335.95 0.682855 -1.95836 0
M  V30 14187 C 1336.37 1.65763 -0.889049 0
M  V30 14188 O 1335.73 1.80665 0.151585 0
M  V30 14189 C 1335.78 1.37931 -3.33178 0
M  V30 14190 O 1334.88 2.49416 -3.28429 0
M  V30 14191 H 1334.23 0.180629 -0.638959 0
M  V30 14192 H 1336.76 -0.0705644 -2.04478 0
M  V30 14193 H 1336.77 1.73969 -3.69051 0
M  V30 14194 H 1335.44 0.664675 -4.10554 0
M  V30 14195 H 1334.02 2.15606 -3.04251 0
M  V30 14196 N 1336.2 1.55448 0.259558 0
M  V30 14197 C 1337.45 1.7589 0.987201 0
M  V30 14198 C 1337.76 0.574951 1.86959 0
M  V30 14199 O 1338.97 0.662091 2.63303 0
M  V30 14200 C 1337.43 3.11349 1.80526 0
M  V30 14201 C 1337.03 4.37353 0.970882 0
M  V30 14202 C 1338.78 3.41136 2.5264 0
M  V30 14203 C 1336.69 5.63847 1.7841 0
M  V30 14204 H 1335.62 0.655662 0.372321 0
M  V30 14205 H 1338.27 1.81893 0.242332 0
M  V30 14206 H 1336.65 2.9942 2.5916 0
M  V30 14207 H 1337.82 4.60237 0.227763 0
M  V30 14208 H 1336.14 4.14809 0.363669 0
M  V30 14209 H 1338.73 4.32855 3.13912 0
M  V30 14210 H 1339.08 2.61879 3.23612 0
M  V30 14211 H 1339.61 3.54224 1.81026 0
M  V30 14212 H 1336.35 6.4589 1.11834 0
M  V30 14213 H 1335.87 5.45086 2.50283 0
M  V30 14214 H 1337.55 6.02641 2.35441 0
M  V30 14215 N 1337.68 -0.524672 1.4861 0
M  V30 14216 C 1338.61 -1.64555 1.58104 0
M  V30 14217 C 1339.59 -1.56778 0.431205 0
M  V30 14218 O 1340.78 -1.77175 0.643537 0
M  V30 14219 C 1337.9 -3.02979 1.51398 0
M  V30 14220 C 1336.95 -3.29098 2.71287 0
M  V30 14221 S 1337.78 -3.14791 4.33206 0
M  V30 14222 C 1338.94 -4.55652 4.29107 0
M  V30 14223 H 1339.17 -1.56254 2.52927 0
M  V30 14224 H 1336.7 -0.708041 1.37208 0
M  V30 14225 H 1338.66 -3.82809 1.48215 0
M  V30 14226 H 1337.32 -3.08717 0.579026 0
M  V30 14227 H 1336.52 -4.30092 2.62749 0
M  V30 14228 H 1336.12 -2.56949 2.7176 0
M  V30 14229 H 1338.41 -5.47277 3.99367 0
M  V30 14230 H 1339.35 -4.69244 5.30298 0
M  V30 14231 H 1339.76 -4.35223 3.59501 0
M  V30 14232 N 1339.16 -1.37287 -0.77395 0
M  V30 14233 C 1340.41 -1.32112 -1.5294 0
M  V30 14234 C 1340.73 0.0946137 -1.9477 0
M  V30 14235 O 1340 1.03817 -1.66129 0
M  V30 14236 H 1338.58 -0.486047 -0.567245 0
M  V30 14237 H 1341.24 -1.71752 -0.921263 0
M  V30 14238 H 1340.34 -1.95873 -2.42982 0
M  V30 14239 N 1340.64 0.999871 -1.21821 0
M  V30 14240 C 1342.05 1.26228 -0.976664 0
M  V30 14241 C 1342.25 1.98714 0.333915 0
M  V30 14242 O 1341.31 2.29252 1.05829 0
M  V30 14243 C 1342.62 2.08089 -2.1707 0
M  V30 14244 C 1344.17 2.21298 -2.21351 0
M  V30 14245 C 1344.64 3.06544 -3.40287 0
M  V30 14246 N 1346.14 3.14131 -3.40405 0
M  V30 14247 C 1346.87 3.80362 -4.29083 0
M  V30 14248 N 1346.37 4.48577 -5.27968 0
M  V30 14249 N 1348.16 3.77053 -4.16878 0
M  V30 14250 H 1340.31 0.513704 -2.06094 0
M  V30 14251 H 1342.57 0.289447 -0.902732 0
M  V30 14252 H 1342.28 1.62183 -3.12073 0
M  V30 14253 H 1342.15 3.08843 -2.16554 0
M  V30 14254 H 1344.54 2.66422 -1.269 0
M  V30 14255 H 1344.62 1.19997 -2.25908 0
M  V30 14256 H 1344.27 2.62122 -4.35034 0
M  V30 14257 H 1344.2 4.0797 -3.32969 0
M  V30 14258 H 1346.69 2.65576 -2.68846 0
M  V30 14259 H 1347 4.96833 -5.91926 0
M  V30 14260 H 1345.34 4.47348 -5.31888 0
M  V30 14261 H 1348.54 3.22918 -3.38883 0
M  V30 14262 H 1348.71 4.2839 -4.86195 0
M  V30 14263 N 1342.11 1.02678 1.19562 0
M  V30 14264 C 1343.34 0.741569 1.93154 0
M  V30 14265 C 1343.76 -0.699292 1.75372 0
M  V30 14266 O 1343.11 -1.47533 1.07426 0
M  V30 14267 C 1343.17 1.08064 3.4497 0
M  V30 14268 O 1342.89 2.46492 3.62179 0
M  V30 14269 C 1344.39 0.817935 4.35689 0
M  V30 14270 H 1341.61 0.271506 0.613617 0
M  V30 14271 H 1344.15 1.3707 1.51763 0
M  V30 14272 H 1342.31 0.496723 3.84202 0
M  V30 14273 H 1342.72 2.59053 4.56061 0
M  V30 14274 H 1344.19 1.10517 5.40823 0
M  V30 14275 H 1344.67 -0.247693 4.38501 0
M  V30 14276 H 1345.28 1.38449 4.02134 0
M  V30 14277 N 1343.59 -1.35528 0.804364 0
M  V30 14278 C 1344.84 -1.99126 0.384261 0
M  V30 14279 C 1345.17 -1.63668 -1.0453 0
M  V30 14280 O 1344.45 -0.898896 -1.72482 0
M  V30 14281 C 1344.73 -3.55636 0.565278 0
M  V30 14282 C 1344.58 -4.00899 2.03961 0
M  V30 14283 C 1345.9 -4.40099 -0.0104301 0
M  V30 14284 H 1343.02 -0.723369 0.141092 0
M  V30 14285 H 1345.66 -1.60712 1.01348 0
M  V30 14286 H 1343.81 -3.88489 0.0296425 0
M  V30 14287 H 1345.48 -3.78465 2.63746 0
M  V30 14288 H 1343.73 -3.5189 2.53685 0
M  V30 14289 H 1344.4 -5.09785 2.11716 0
M  V30 14290 H 1346.87 -4.13692 0.446985 0
M  V30 14291 H 1345.75 -5.48705 0.146155 0
M  V30 14292 H 1346.01 -4.28096 -1.10392 0
M  V30 14293 N 1345.07 -0.557671 -1.47404 0
M  V30 14294 C 1346.32 -0.0337216 -2.02072 0
M  V30 14295 C 1346.64 1.32106 -1.43433 0
M  V30 14296 O 1345.91 1.86171 -0.609692 0
M  V30 14297 H 1344.49 -0.00947648 -0.74694 0
M  V30 14298 H 1347.15 -0.727784 -1.80802 0
M  V30 14299 H 1346.25 0.0540331 -3.12053 0
M  V30 14300 N 1346.55 1.54831 -0.294147 0
M  V30 14301 C 1347.51 2.21946 0.572061 0
M  V30 14302 C 1348.51 1.20331 1.06663 0
M  V30 14303 O 1349.7 1.45112 0.963757 0
M  V30 14304 C 1346.83 2.90044 1.7913 0
M  V30 14305 H 1348.03 2.99897 -0.0142234 0
M  V30 14306 H 1345.58 1.56235 -0.0449187 0
M  V30 14307 H 1346.32 2.16154 2.4176 0
M  V30 14308 H 1346.1 3.64527 1.44439 0
M  V30 14309 H 1347.59 3.41263 2.40684 0
M  V30 14310 N 1348.03 0.0217466 1.57585 0
M  V30 14311 C 1348.96 -0.961069 2.12804 0
M  V30 14312 C 1349.94 -1.3442 1.04237 0
M  V30 14313 O 1351.12 -1.42412 1.32032 0
M  V30 14314 C 1348.25 -2.24586 2.64912 0
M  V30 14315 C 1347.21 -2.0037 3.78201 0
M  V30 14316 C 1346.53 -3.35051 4.16708 0
M  V30 14317 C 1347.83 -1.34879 5.04584 0
M  V30 14318 H 1349.53 -0.501222 2.95175 0
M  V30 14319 H 1347.07 -0.239649 1.41992 0
M  V30 14320 H 1349.03 -2.93715 3.02175 0
M  V30 14321 H 1347.75 -2.72723 1.79693 0
M  V30 14322 H 1346.41 -1.33662 3.41365 0
M  V30 14323 H 1346.06 -3.80932 3.28481 0
M  V30 14324 H 1345.76 -3.19656 4.93045 0
M  V30 14325 H 1347.28 -4.05459 4.56547 0
M  V30 14326 H 1348.7 -1.93997 5.3948 0
M  V30 14327 H 1347.09 -1.29906 5.85871 0
M  V30 14328 H 1348.16 -0.320774 4.83838 0
M  V30 14329 N 1349.51 -1.55583 -0.251311 0
M  V30 14330 C 1350.75 -1.76859 -0.978031 0
M  V30 14331 C 1351.07 -0.584924 -1.86021 0
M  V30 14332 O 1350.34 0.399456 -1.91784 0
M  V30 14333 H 1348.92 -0.652252 -0.364111 0
M  V30 14334 H 1351.59 -1.93016 -0.270319 0
M  V30 14335 H 1350.68 -2.67828 -1.60233 0
M  V30 14336 N 1350.98 0.516783 -1.48886 0
M  V30 14337 C 1351.93 1.64093 -1.64853 0
M  V30 14338 C 1352.93 1.61392 -0.514685 0
M  V30 14339 O 1354.13 1.6609 -0.693831 0
M  V30 14340 H 1350.51 0.543672 -0.519543 0
M  V30 14341 H 1352.48 1.47774 -2.5924 0
M  V30 14342 C 1351.23 3.02308 -1.71771 0
M  V30 14343 H 1350.55 3.05085 -2.58385 0
M  V30 14344 H 1351.99 3.80544 -1.86982 0
M  V30 14345 C 1350.45 3.33757 -0.459136 0
M  V30 14346 O 1350.98 3.99475 0.422177 0
M  V30 14347 N 1349.18 2.88756 -0.326837 0
M  V30 14348 H 1348.73 2.35452 -1.045 0
M  V30 14349 H 1348.69 3.10166 0.514213 0
M  V30 14350 N 1352.46 1.37696 0.766659 0
M  V30 14351 C 1353.39 1.36576 1.89392 0
M  V30 14352 C 1354.37 0.233597 1.68488 0
M  V30 14353 O 1355.56 0.434719 1.89272 0
M  V30 14354 C 1352.69 1.17705 3.26746 0
M  V30 14355 C 1351.64 2.27987 3.62224 0
M  V30 14356 C 1350.97 1.94235 4.98174 0
M  V30 14357 C 1352.27 3.70195 3.68447 0
M  V30 14358 H 1353.96 2.30905 1.90587 0
M  V30 14359 H 1351.51 1.11148 0.915538 0
M  V30 14360 H 1353.46 1.15551 4.05248 0
M  V30 14361 H 1352.18 0.198334 3.25997 0
M  V30 14362 H 1350.84 2.29306 2.86032 0
M  V30 14363 H 1350.49 0.948796 4.93971 0
M  V30 14364 H 1350.19 2.68086 5.2288 0
M  V30 14365 H 1351.72 1.93676 5.7907 0
M  V30 14366 H 1353.13 3.70978 4.37091 0
M  V30 14367 H 1351.53 4.43142 4.04654 0
M  V30 14368 H 1352.6 4.03453 2.68986 0
M  V30 14369 N 1353.94 -0.993397 1.22349 0
M  V30 14370 C 1355.17 -1.76838 1.07406 0
M  V30 14371 C 1355.58 -1.8503 -0.37542 0
M  V30 14372 O 1354.94 -1.32008 -1.26016 0
M  V30 14373 C 1354.99 -3.20177 1.67837 0
M  V30 14374 O 1354.71 -3.12429 3.07115 0
M  V30 14375 C 1356.21 -4.14125 1.58161 0
M  V30 14376 H 1353.43 -0.555379 0.376557 0
M  V30 14377 H 1355.98 -1.24893 1.61932 0
M  V30 14378 H 1354.13 -3.69191 1.17375 0
M  V30 14379 H 1354.55 -4.02568 3.36213 0
M  V30 14380 H 1356.02 -5.12455 2.05169 0
M  V30 14381 H 1356.5 -4.35892 0.538073 0
M  V30 14382 H 1357.1 -3.71008 2.07926 0
M  V30 14383 N 1355.42 -1.03311 -1.19015 0
M  V30 14384 C 1356.66 -0.732039 -1.88805 0
M  V30 14385 C 1356.99 0.739688 -1.79886 0
M  V30 14386 O 1356.25 1.55476 -1.18851 0
M  V30 14387 C 1356.55 -1.13402 -3.38932 0
M  V30 14388 C 1356.21 -2.60473 -3.68055 0
M  V30 14389 C 1354.87 -3.00654 -3.75713 0
M  V30 14390 C 1357.23 -3.55604 -3.81045 0
M  V30 14391 C 1354.55 -4.3487 -3.93833 0
M  V30 14392 C 1356.91 -4.89529 -4.00679 0
M  V30 14393 C 1355.57 -5.29392 -4.06571 0
M  V30 14394 H 1354.84 -0.267872 -0.690888 0
M  V30 14395 H 1357.49 -1.29673 -1.40915 0
M  V30 14396 H 1355.79 -0.487997 -3.88749 0
M  V30 14397 H 1357.49 -0.878532 -3.91258 0
M  V30 14398 H 1354.08 -2.28348 -3.62706 0
M  V30 14399 H 1358.26 -3.25711 -3.74467 0
M  V30 14400 H 1353.52 -4.65285 -3.96636 0
M  V30 14401 H 1357.69 -5.63153 -4.09672 0
M  V30 14402 H 1355.32 -6.33402 -4.20364 0
M  V30 14403 N 1356.9 1.35099 -0.81154 0
M  V30 14404 C 1358.14 1.9892 -0.394815 0
M  V30 14405 C 1358.47 1.6422 1.0366 0
M  V30 14406 O 1357.75 0.908031 1.72003 0
M  V30 14407 C 1358.03 3.55331 -0.58413 0
M  V30 14408 C 1357.89 3.99812 -2.06084 0
M  V30 14409 C 1359.2 4.40098 -0.0129096 0
M  V30 14410 H 1356.32 0.72261 -0.144926 0
M  V30 14411 H 1358.97 1.60173 -1.02199 0
M  V30 14412 H 1357.12 3.88468 -0.0502446 0
M  V30 14413 H 1358.79 3.77061 -2.65749 0
M  V30 14414 H 1357.03 3.50539 -2.55548 0
M  V30 14415 H 1357.7 5.08655 -2.14416 0
M  V30 14416 H 1360.18 4.13449 -0.468917 0
M  V30 14417 H 1359.05 5.4862 -0.175252 0
M  V30 14418 H 1359.31 4.28675 1.0812 0
M  V30 14419 N 1358.37 0.56548 1.47106 0
M  V30 14420 C 1359.3 -0.16567 2.32912 0
M  V30 14421 C 1360.28 -0.900678 1.44298 0
M  V30 14422 O 1361.47 -0.879523 1.73142 0
M  V30 14423 C 1358.6 -1.19092 3.26243 0
M  V30 14424 C 1357.55 -0.571849 4.24163 0
M  V30 14425 C 1356.88 -1.70233 5.06878 0
M  V30 14426 C 1358.18 0.479785 5.20092 0
M  V30 14427 H 1359.87 0.550705 2.94292 0
M  V30 14428 H 1357.42 0.266284 1.41517 0
M  V30 14429 H 1359.37 -1.71064 3.85117 0
M  V30 14430 H 1358.1 -1.93734 2.62934 0
M  V30 14431 H 1356.76 -0.073353 3.66527 0
M  V30 14432 H 1356.4 -2.438 4.39967 0
M  V30 14433 H 1356.1 -1.29384 5.73178 0
M  V30 14434 H 1357.63 -2.22515 5.68612 0
M  V30 14435 H 1359.04 0.0458042 5.73282 0
M  V30 14436 H 1357.44 0.807615 5.94641 0
M  V30 14437 H 1358.51 1.37259 4.65068 0
M  V30 14438 N 1359.85 -1.54672 0.302354 0
M  V30 14439 C 1361.09 -2.02076 -0.30738 0
M  V30 14440 C 1361.46 -1.18603 -1.50988 0
M  V30 14441 O 1362.66 -1.5571 -2.19107 0
M  V30 14442 C 1360.93 -3.5137 -0.65375 0
M  V30 14443 S 1362.49 -4.20733 -1.24615 0
M  V30 14444 H 1359.31 -0.704725 -0.0942521 0
M  V30 14445 H 1361.91 -1.907 0.430542 0
M  V30 14446 H 1360.61 -4.09756 0.229892 0
M  V30 14447 H 1360.14 -3.66784 -1.42243 0
M  V30 14448 H 1362.16 -4.26624 -2.5339 0
M  V30 14449 N 1361.33 -0.0301034 -1.57571 0
M  V30 14450 C 1362.58 0.647672 -1.91019 0
M  V30 14451 C 1362.89 1.73234 -0.908265 0
M  V30 14452 O 1364.1 2.46682 -1.13402 0
M  V30 14453 C 1362.55 1.20327 -3.3919 0
M  V30 14454 C 1362.16 0.151833 -4.47743 0
M  V30 14455 C 1363.91 1.8575 -3.81703 0
M  V30 14456 C 1361.81 0.719119 -5.87012 0
M  V30 14457 H 1360.74 0.245682 -0.712851 0
M  V30 14458 H 1363.39 -0.0955645 -1.83251 0
M  V30 14459 H 1361.78 1.99814 -3.41892 0
M  V30 14460 H 1362.95 -0.620659 -4.56601 0
M  V30 14461 H 1361.27 -0.403699 -4.14438 0
M  V30 14462 H 1363.86 2.29151 -4.83109 0
M  V30 14463 H 1364.21 2.70061 -3.16817 0
M  V30 14464 H 1364.74 1.1295 -3.81428 0
M  V30 14465 H 1361.48 -0.0858832 -6.55444 0
M  V30 14466 H 1361 1.46008 -5.81758 0
M  V30 14467 H 1362.68 1.20856 -6.35612 0
M  V30 14468 N 1362.81 1.55714 0.243056 0
M  V30 14469 C 1364.06 1.76927 0.96849 0
M  V30 14470 C 1364.37 0.594748 1.86339 0
M  V30 14471 O 1365.58 0.689981 2.62586 0
M  V30 14472 C 1364.03 3.13246 1.77214 0
M  V30 14473 C 1363.64 4.38358 0.92444 0
M  V30 14474 C 1365.38 3.43796 2.49007 0
M  V30 14475 C 1363.29 5.65708 1.7242 0
M  V30 14476 H 1362.22 0.659574 0.365346 0
M  V30 14477 H 1364.87 1.8214 0.223026 0
M  V30 14478 H 1363.25 3.02151 2.5597 0
M  V30 14479 H 1364.43 4.60452 0.178936 0
M  V30 14480 H 1362.74 4.15171 0.319653 0
M  V30 14481 H 1365.34 4.3616 3.09303 0
M  V30 14482 H 1365.68 2.65297 3.20817 0
M  V30 14483 H 1366.22 3.56124 1.77259 0
M  V30 14484 H 1362.96 6.47039 1.04978 0
M  V30 14485 H 1362.48 5.4771 2.44488 0
M  V30 14486 H 1364.15 6.05105 2.29036 0
M  V30 14487 N 1364.29 -0.50888 1.49158 0
M  V30 14488 C 1365.54 -1.26008 1.57496 0
M  V30 14489 C 1365.85 -1.9382 0.263281 0
M  V30 14490 O 1367.05 -2.70565 0.225117 0
M  V30 14491 C 1365.51 -2.28752 2.7785 0
M  V30 14492 C 1365.12 -1.66915 4.15744 0
M  V30 14493 C 1366.86 -3.0475 2.95513 0
M  V30 14494 C 1364.77 -2.67724 5.27331 0
M  V30 14495 H 1363.7 -0.473984 0.586392 0
M  V30 14496 H 1366.35 -0.534886 1.75531 0
M  V30 14497 H 1364.73 -3.044 2.53292 0
M  V30 14498 H 1365.91 -0.973131 4.50407 0
M  V30 14499 H 1364.22 -1.03336 4.03374 0
M  V30 14500 H 1366.82 -3.80121 3.76048 0
M  V30 14501 H 1367.16 -3.6189 2.05771 0
M  V30 14502 H 1367.69 -2.36217 3.20072 0
M  V30 14503 H 1364.43 -2.15375 6.19107 0
M  V30 14504 H 1363.95 -3.35589 4.97132 0
M  V30 14505 H 1365.63 -3.30304 5.56335 0
M  V30 14506 N 1365.76 -1.381 -0.759346 0
M  V30 14507 C 1367.01 -1.33992 -1.5183 0
M  V30 14508 C 1367.34 0.0718172 -1.94367 0
M  V30 14509 O 1366.59 1.0477 -1.65293 0
M  V30 14510 C 1366.89 -2.23636 -2.78786 0
M  V30 14511 C 1366.56 -3.71703 -2.5524 0
M  V30 14512 C 1365.22 -4.12053 -2.48528 0
M  V30 14513 C 1367.57 -4.65455 -2.34523 0
M  V30 14514 C 1364.9 -5.44252 -2.19105 0
M  V30 14515 C 1367.25 -5.97905 -2.06622 0
M  V30 14516 C 1365.92 -6.37345 -1.98362 0
M  V30 14517 H 1365.19 -0.490311 -0.555587 0
M  V30 14518 H 1367.83 -1.70411 -0.873637 0
M  V30 14519 H 1366.14 -1.80253 -3.47874 0
M  V30 14520 H 1367.84 -2.17764 -3.36719 0
M  V30 14521 H 1364.43 -3.3971 -2.61333 0
M  V30 14522 H 1368.61 -4.35132 -2.38691 0
M  V30 14523 H 1363.87 -5.73758 -2.11214 0
M  V30 14524 H 1368.04 -6.70095 -1.89594 0
M  V30 14525 H 1365.67 -7.39706 -1.75328 0
M  V30 14526 N 1367.24 0.986894 -1.22875 0
M  V30 14527 C 1368.49 1.72152 -1.05103 0
M  V30 14528 C 1368.8 1.91185 0.413248 0
M  V30 14529 O 1370.01 2.62031 0.710759 0
M  V30 14530 C 1368.47 3.09771 -1.8322 0
M  V30 14531 C 1368.07 2.98648 -3.33936 0
M  V30 14532 C 1369.82 3.87238 -1.73917 0
M  V30 14533 C 1367.73 4.31459 -4.04471 0
M  V30 14534 H 1366.66 0.645498 -0.389677 0
M  V30 14535 H 1369.31 1.10125 -1.46781 0
M  V30 14536 H 1367.69 3.72515 -1.34345 0
M  V30 14537 H 1368.86 2.45033 -3.9025 0
M  V30 14538 H 1367.18 2.34661 -3.43982 0
M  V30 14539 H 1369.77 4.85549 -2.23933 0
M  V30 14540 H 1370.12 4.1036 -0.700711 0
M  V30 14541 H 1370.65 3.31183 -2.20369 0
M  V30 14542 H 1367.39 4.13534 -5.08596 0
M  V30 14543 H 1366.91 4.84964 -3.52944 0
M  V30 14544 H 1368.59 5.00179 -4.10403 0
M  V30 14545 N 1368.72 1.0394 1.18466 0
M  V30 14546 C 1369.97 0.742042 1.88414 0
M  V30 14547 C 1370.3 -0.730138 1.80275 0
M  V30 14548 O 1369.55 -1.54844 1.19674 0
M  V30 14549 C 1369.85 1.15198 3.38326 0
M  V30 14550 C 1369.52 2.62422 3.66668 0
M  V30 14551 C 1368.18 3.02643 3.74113 0
M  V30 14552 C 1370.53 3.5762 3.79153 0
M  V30 14553 C 1367.86 4.36953 3.91522 0
M  V30 14554 C 1370.21 4.91647 3.98077 0
M  V30 14555 C 1368.87 5.31541 4.03758 0
M  V30 14556 H 1368.14 0.271532 0.689457 0
M  V30 14557 H 1370.79 1.30419 1.40225 0
M  V30 14558 H 1369.1 0.508607 3.88485 0
M  V30 14559 H 1370.79 0.899269 3.90787 0
M  V30 14560 H 1367.38 2.30268 3.61489 0
M  V30 14561 H 1371.57 3.27693 3.72735 0
M  V30 14562 H 1366.82 4.67382 3.94163 0
M  V30 14563 H 1371 5.65318 4.0668 0
M  V30 14564 H 1368.62 6.35622 4.16999 0
M  V30 14565 N 1370.2 -1.34667 0.818693 0
M  V30 14566 C 1371.16 -2.27908 0.243037 0
M  V30 14567 C 1372.16 -1.50106 -0.576622 0
M  V30 14568 O 1373.35 -1.69701 -0.393342 0
M  V30 14569 C 1370.48 -3.34455 -0.659759 0
M  V30 14570 H 1371.68 -2.80332 1.06555 0
M  V30 14571 H 1369.23 -1.44727 0.590237 0
M  V30 14572 H 1369.96 -2.87238 -1.50549 0
M  V30 14573 H 1369.75 -3.92031 -0.073567 0
M  V30 14574 H 1371.24 -4.04016 -1.05646 0
M  V30 14575 N 1371.68 -0.573274 -1.46804 0
M  V30 14576 C 1372.92 -0.0553432 -2.02724 0
M  V30 14577 C 1373.26 1.29753 -1.44492 0
M  V30 14578 O 1372.53 1.84804 -0.606455 0
M  V30 14579 C 1372.81 0.0205511 -3.60094 0
M  V30 14580 C 1372.67 -1.36055 -4.2873 0
M  V30 14581 C 1373.99 0.725944 -4.34071 0
M  V30 14582 H 1371.1 -0.0215858 -0.736684 0
M  V30 14583 H 1373.75 -0.738657 -1.75054 0
M  V30 14584 H 1371.9 0.602481 -3.838 0
M  V30 14585 H 1373.57 -1.98692 -4.16316 0
M  V30 14586 H 1371.81 -1.93087 -3.88458 0
M  V30 14587 H 1372.48 -1.26001 -5.37427 0
M  V30 14588 H 1374.96 0.231677 -4.15455 0
M  V30 14589 H 1373.83 0.74805 -5.43779 0
M  V30 14590 H 1374.1 1.78536 -4.04447 0
M  V30 14591 N 1373.15 1.5451 -0.310553 0
M  V30 14592 C 1374.09 2.20075 0.603513 0
M  V30 14593 C 1375.07 1.17336 1.12566 0
M  V30 14594 O 1376.25 1.4602 1.19208 0
M  V30 14595 C 1373.38 2.85216 1.82674 0
M  V30 14596 C 1372.42 4.01563 1.43699 0
M  V30 14597 S 1373.26 5.33301 0.48477 0
M  V30 14598 C 1374.41 6.01929 1.71557 0
M  V30 14599 H 1374.64 2.97264 0.0465278 0
M  V30 14600 H 1372.18 1.5411 -0.0946638 0
M  V30 14601 H 1374.14 3.23371 2.52867 0
M  V30 14602 H 1372.8 2.07855 2.3549 0
M  V30 14603 H 1371.99 4.45958 2.34813 0
M  V30 14604 H 1371.59 3.65014 0.814904 0
M  V30 14605 H 1373.88 6.23317 2.65484 0
M  V30 14606 H 1374.83 6.95801 1.31401 0
M  V30 14607 H 1375.23 5.31684 1.89663 0
M  V30 14608 N 1374.63 0.0384594 1.57553 0
M  V30 14609 C 1375.88 -0.636879 1.91803 0
M  V30 14610 C 1376.2 -1.72128 0.916347 0
M  V30 14611 O 1375.47 -1.95858 -0.0407405 0
M  V30 14612 H 1374.05 -0.238237 0.707992 0
M  V30 14613 H 1376.71 0.0884651 1.94699 0
M  V30 14614 H 1375.81 -1.08364 2.92683 0
M  V30 14615 N 1376.11 -1.55841 -0.234795 0
M  V30 14616 C 1377.04 -1.86317 -1.31762 0
M  V30 14617 C 1378.02 -0.719321 -1.45824 0
M  V30 14618 O 1379.21 -0.966329 -1.61847 0
M  V30 14619 C 1376.33 -2.05854 -2.68964 0
M  V30 14620 C 1375.38 -3.28518 -2.71989 0
M  V30 14621 S 1376.21 -4.84827 -2.27382 0
M  V30 14622 C 1377.37 -5.07385 -3.66485 0
M  V30 14623 H 1377.6 -2.7787 -1.05715 0
M  V30 14624 H 1375.13 -1.48105 -0.436386 0
M  V30 14625 H 1377.09 -2.17794 -3.4796 0
M  V30 14626 H 1375.75 -1.15122 -2.92243 0
M  V30 14627 H 1374.95 -3.39192 -3.7278 0
M  V30 14628 H 1374.55 -3.15367 -2.01047 0
M  V30 14629 H 1376.84 -4.95471 -4.62077 0
M  V30 14630 H 1377.78 -6.09323 -3.60737 0
M  V30 14631 H 1378.19 -4.35175 -3.59559 0
M  V30 14632 N 1377.59 0.500963 -1.49426 0
M  V30 14633 C 1378.52 1.6192 -1.62217 0
M  V30 14634 C 1379.53 1.54774 -0.504868 0
M  V30 14635 O 1380.72 1.60705 -0.776919 0
M  V30 14636 C 1377.82 3.0071 -1.56291 0
M  V30 14637 C 1377 3.3304 -2.83555 0
M  V30 14638 C 1376.06 4.51241 -2.7068 0
M  V30 14639 O 1375.08 4.53023 -3.44615 0
M  V30 14640 N 1376.28 5.51156 -1.82228 0
M  V30 14641 H 1379.05 1.51374 -2.58662 0
M  V30 14642 H 1376.61 0.688837 -1.46515 0
M  V30 14643 H 1378.6 3.77705 -1.45332 0
M  V30 14644 H 1377.17 3.0518 -0.677043 0
M  V30 14645 H 1376.39 2.44942 -3.08865 0
M  V30 14646 H 1377.68 3.51437 -3.67926 0
M  V30 14647 H 1377.08 5.52516 -1.21417 0
M  V30 14648 H 1375.63 6.27253 -1.77192 0
M  V30 14649 N 1379.07 1.38501 0.752011 0
M  V30 14650 C 1380 1.38577 1.87933 0
M  V30 14651 C 1380.98 0.251454 1.68231 0
M  V30 14652 O 1382.16 0.45477 1.888 0
M  V30 14653 C 1379.29 1.21164 3.25479 0
M  V30 14654 C 1378.25 2.31816 3.59785 0
M  V30 14655 C 1377.57 1.99508 4.96085 0
M  V30 14656 C 1378.87 3.74082 3.645 0
M  V30 14657 H 1380.57 2.32913 1.88127 0
M  V30 14658 H 1378.11 1.12113 0.903698 0
M  V30 14659 H 1380.07 1.19842 4.04 0
M  V30 14660 H 1378.79 0.232899 3.25769 0
M  V30 14661 H 1377.45 2.32327 2.83584 0
M  V30 14662 H 1377.1 1.00114 4.92936 0
M  V30 14663 H 1376.8 2.73617 5.20007 0
M  V30 14664 H 1378.32 1.99807 5.76983 0
M  V30 14665 H 1379.74 3.75593 4.33131 0
M  V30 14666 H 1378.13 4.47409 3.99931 0
M  V30 14667 H 1379.2 4.06284 2.64692 0
M  V30 14668 N 1380.55 -0.980364 1.23396 0
M  V30 14669 C 1381.79 -1.72166 1.06607 0
M  V30 14670 C 1382.12 -1.90405 -0.397029 0
M  V30 14671 O 1381.38 -1.45363 -1.31027 0
M  V30 14672 C 1381.67 -3.12367 1.73671 0
M  V30 14673 C 1381.34 -3.14007 3.2359 0
M  V30 14674 C 1380 -3.14162 3.64494 0
M  V30 14675 C 1382.35 -3.09319 4.19489 0
M  V30 14676 C 1379.68 -3.07345 4.99756 0
M  V30 14677 C 1382.03 -3.04044 5.54743 0
M  V30 14678 C 1380.7 -3.02521 5.9501 0
M  V30 14679 H 1379.97 -0.63 0.390104 0
M  V30 14680 H 1382.62 -1.14727 1.5333 0
M  V30 14681 H 1380.92 -3.73193 1.19308 0
M  V30 14682 H 1382.62 -3.68493 1.58159 0
M  V30 14683 H 1379.21 -3.14644 2.91028 0
M  V30 14684 H 1383.39 -3.08339 3.88897 0
M  V30 14685 H 1378.65 -3.04519 5.30168 0
M  V30 14686 H 1382.82 -2.99374 6.28767 0
M  V30 14687 H 1380.45 -2.96994 6.99785 0
M  V30 14688 N 1382.02 -1.04567 -1.17913 0
M  V30 14689 C 1383.27 -0.750538 -1.87647 0
M  V30 14690 C 1383.59 0.72423 -1.81052 0
M  V30 14691 O 1382.86 1.52292 -1.23223 0
M  V30 14692 H 1381.44 -0.274636 -0.694683 0
M  V30 14693 H 1384.1 -1.32349 -1.43072 0
M  V30 14694 H 1383.2 -1.05987 -2.93553 0
M  V30 14695 N 1383.5 1.34231 -0.825823 0
M  V30 14696 C 1384.45 2.29467 -0.247724 0
M  V30 14697 C 1385.42 1.53724 0.629127 0
M  V30 14698 O 1386.6 1.82082 0.570156 0
M  V30 14699 C 1383.74 3.40157 0.582012 0
M  V30 14700 C 1382.86 4.30832 -0.317406 0
M  V30 14701 C 1381.99 5.28627 0.522176 0
M  V30 14702 C 1381.03 6.10941 -0.376448 0
M  V30 14703 N 1380.17 7.00817 0.424232 0
M  V30 14704 H 1385.01 2.78311 -1.06521 0
M  V30 14705 H 1382.54 1.36956 -0.536788 0
M  V30 14706 H 1384.5 4.03021 1.07843 0
M  V30 14707 H 1383.13 2.92539 1.36459 0
M  V30 14708 H 1382.18 3.68805 -0.932054 0
M  V30 14709 H 1383.5 4.88503 -1.00826 0
M  V30 14710 H 1382.65 5.96957 1.08295 0
M  V30 14711 H 1381.39 4.71501 1.24652 0
M  V30 14712 H 1380.39 5.41542 -0.94934 0
M  V30 14713 H 1381.62 6.70149 -1.09895 0
M  V30 14714 H 1379.57 6.46156 1.1322 0
M  V30 14715 H 1379.48 7.55713 -0.208175 0
M  V30 14716 H 1380.75 7.7347 0.967664 0
M  V30 14717 N 1384.98 0.581051 1.46498 0
M  V30 14718 C 1385.93 -0.165944 2.32007 0
M  V30 14719 C 1386.92 -0.886015 1.44382 0
M  V30 14720 O 1388.13 -0.804592 1.61017 0
M  V30 14721 H 1384.5 -0.0723834 0.748508 0
M  V30 14722 H 1386.47 0.574089 2.92826 0
M  V30 14723 C 1385.22 -1.16741 3.27516 0
M  V30 14724 H 1384.55 -0.622756 3.9492 0
M  V30 14725 H 1385.99 -1.66052 3.90132 0
M  V30 14726 C 1384.44 -2.22755 2.52749 0
M  V30 14727 O 1384.97 -3.30081 2.28932 0
M  V30 14728 N 1383.18 -1.97318 2.1334 0
M  V30 14729 H 1382.73 -1.10049 2.3291 0
M  V30 14730 H 1382.69 -2.68461 1.63633 0
M  V30 14731 N 1386.46 -1.54343 0.318742 0
M  V30 14732 C 1387.69 -2.04597 -0.286961 0
M  V30 14733 C 1388.1 -1.19474 -1.46706 0
M  V30 14734 O 1387.44 -0.217082 -1.82413 0
M  V30 14735 C 1387.5 -3.50729 -0.789262 0
M  V30 14736 C 1387.16 -4.56214 0.267888 0
M  V30 14737 C 1388.16 -5.08079 1.10235 0
M  V30 14738 C 1385.85 -5.00585 0.414691 0
M  V30 14739 C 1387.84 -6.02872 2.06938 0
M  V30 14740 C 1385.53 -5.95195 1.38515 0
M  V30 14741 C 1386.53 -6.46224 2.21097 0
M  V30 14742 O 1386.21 -7.38976 3.16495 0
M  V30 14743 H 1385.95 -0.672994 -0.0636843 0
M  V30 14744 H 1388.5 -2.00147 0.461569 0
M  V30 14745 H 1386.73 -3.52562 -1.58862 0
M  V30 14746 H 1388.42 -3.84084 -1.31278 0
M  V30 14747 H 1389.18 -4.74581 0.999893 0
M  V30 14748 H 1385.06 -4.60483 -0.21819 0
M  V30 14749 H 1388.61 -6.42627 2.71435 0
M  V30 14750 H 1384.5 -6.28109 1.48826 0
M  V30 14751 H 1385.27 -7.56835 3.11678 0
M  V30 14752 N 1387.94 -0.0468143 -1.5753 0
M  V30 14753 C 1389.16 0.637648 -1.96829 0
M  V30 14754 C 1389.58 1.64635 -0.924158 0
M  V30 14755 O 1388.94 1.82267 0.0921139 0
M  V30 14756 C 1388.99 1.32842 -3.36207 0
M  V30 14757 O 1388.71 0.360111 -4.36617 0
M  V30 14758 C 1390.21 2.10305 -3.90239 0
M  V30 14759 H 1387.43 0.174634 -0.647876 0
M  V30 14760 H 1389.97 -0.111824 -2.04194 0
M  V30 14761 H 1388.13 2.02915 -3.30006 0
M  V30 14762 H 1388.54 0.852661 -5.17523 0
M  V30 14763 H 1390.02 2.54065 -4.90056 0
M  V30 14764 H 1390.49 2.94942 -3.25432 0
M  V30 14765 H 1391.1 1.45152 -3.99764 0
M  V30 14766 N 1389.41 1.55964 0.226527 0
M  V30 14767 C 1390.69 1.69528 0.975689 0
M  V30 14768 C 1391.07 0.592635 2.02611 0
M  V30 14769 O 1390.42 -0.401073 2.24953 0
M  V30 14770 C 1390.63 3.10644 1.59063 0
M  V30 14771 C 1391.98 3.69895 2.08478 0
M  V30 14772 O 1393 3.13574 1.68966 0
M  V30 14773 O 1391.86 4.68672 2.81085 0
M  V30 14774 H 1388.95 0.690285 0.455451 0
M  V30 14775 H 1391.5 1.68285 0.218702 0
M  V30 14776 H 1390.27 3.82355 0.831903 0
M  V30 14777 H 1389.9 3.15984 2.41329 0
M  V30 14778 N 1390.89 -0.493031 1.4969 0
M  V30 14779 C 1391.84 -1.61449 1.67442 0
M  V30 14780 C 1392.83 -1.60553 0.540296 0
M  V30 14781 O 1394.04 -1.64965 0.720167 0
M  V30 14782 H 1390.42 -0.535337 0.528127 0
M  V30 14783 H 1392.39 -1.43631 2.61558 0
M  V30 14784 C 1391.14 -2.99537 1.76559 0
M  V30 14785 H 1390.46 -3.00936 2.63206 0
M  V30 14786 H 1391.9 -3.77521 1.93013 0
M  V30 14787 C 1390.36 -3.32984 0.512176 0
M  V30 14788 O 1390.89 -4.00096 -0.35857 0
M  V30 14789 N 1389.09 -2.882 0.372734 0
M  V30 14790 H 1388.64 -2.3376 1.08232 0
M  V30 14791 H 1388.6 -3.10945 -0.464804 0
M  V30 14792 N 1392.37 -1.38898 -0.744656 0
M  V30 14793 C 1393.62 -1.35795 -1.50623 0
M  V30 14794 C 1393.95 0.0491775 -1.94138 0
M  V30 14795 O 1393.22 1.01219 -1.66087 0
M  V30 14796 C 1393.51 -2.32168 -2.75263 0
M  V30 14797 C 1393.36 -3.81781 -2.3783 0
M  V30 14798 C 1394.68 -2.26526 -3.77325 0
M  V30 14799 H 1391.8 -0.494591 -0.546396 0
M  V30 14800 H 1394.44 -1.69816 -0.852211 0
M  V30 14801 H 1392.59 -2.03287 -3.31069 0
M  V30 14802 H 1394.26 -4.21373 -1.8773 0
M  V30 14803 H 1392.51 -3.99027 -1.70176 0
M  V30 14804 H 1393.18 -4.44687 -3.27044 0
M  V30 14805 H 1395.65 -2.52041 -3.31081 0
M  V30 14806 H 1394.53 -2.96053 -4.62216 0
M  V30 14807 H 1394.79 -1.26705 -4.23554 0
M  V30 14808 N 1393.85 0.973806 -1.23914 0
M  V30 14809 C 1395.13 1.69087 -0.9833 0
M  V30 14810 C 1395.51 2.05186 0.49619 0
M  V30 14811 O 1394.85 1.75021 1.46901 0
M  V30 14812 C 1395.06 2.92739 -1.90012 0
M  V30 14813 C 1396.41 3.65112 -2.16745 0
M  V30 14814 O 1397.44 3.02785 -1.87616 0
M  V30 14815 O 1396.29 4.77293 -2.66183 0
M  V30 14816 H 1393.39 0.738919 -0.371386 0
M  V30 14817 H 1395.93 1.02844 -1.34986 0
M  V30 14818 H 1394.71 2.6271 -2.89999 0
M  V30 14819 H 1394.33 3.66718 -1.53635 0
M  V30 14820 N 1395.33 1.05191 1.17357 0
M  V30 14821 C 1396.74 0.773255 1.39617 0
M  V30 14822 C 1396.94 -0.632346 1.91321 0
M  V30 14823 O 1396 -1.39475 2.10483 0
M  V30 14824 C 1397.31 1.82885 2.38692 0
M  V30 14825 C 1398.86 1.85106 2.52398 0
M  V30 14826 C 1399.33 2.89689 3.54746 0
M  V30 14827 N 1400.83 2.88651 3.62263 0
M  V30 14828 C 1401.56 3.66221 4.41214 0
M  V30 14829 N 1401.06 4.53577 5.23679 0
M  V30 14830 N 1402.85 3.54661 4.36087 0
M  V30 14831 H 1395 1.9588 0.82127 0
M  V30 14832 H 1397.26 0.848187 0.423417 0
M  V30 14833 H 1396.97 2.83766 2.07773 0
M  V30 14834 H 1396.84 1.67047 3.38194 0
M  V30 14835 H 1399.23 0.848896 2.82627 0
M  V30 14836 H 1399.31 2.05022 1.5297 0
M  V30 14837 H 1398.96 3.90091 3.25255 0
M  V30 14838 H 1398.89 2.67025 4.53878 0
M  V30 14839 H 1401.38 2.25312 3.03386 0
M  V30 14840 H 1401.69 5.09449 5.81104 0
M  V30 14841 H 1400.03 4.57638 5.23061 0
M  V30 14842 H 1403.23 2.8581 3.70716 0
M  V30 14843 H 1403.4 4.15361 4.97372 0
M  V30 14844 N 1396.8 -1.33791 0.83293 0
M  V30 14845 C 1398.05 -1.97973 0.425781 0
M  V30 14846 C 1398.38 -1.66003 -1.01357 0
M  V30 14847 O 1397.63 -0.929016 -1.72243 0
M  V30 14848 C 1397.93 -3.52555 0.586485 0
M  V30 14849 C 1397.6 -4.04461 1.99304 0
M  V30 14850 C 1396.26 -4.18347 2.37779 0
M  V30 14851 C 1398.61 -4.3226 2.91206 0
M  V30 14852 C 1395.94 -4.57364 3.67471 0
M  V30 14853 C 1398.29 -4.72727 4.20371 0
M  V30 14854 C 1396.96 -4.84819 4.5881 0
M  V30 14855 H 1396.23 -0.724435 0.155804 0
M  V30 14856 H 1398.87 -1.59567 1.05881 0
M  V30 14857 H 1397.18 -3.91585 -0.129885 0
M  V30 14858 H 1398.88 -4.00208 0.251835 0
M  V30 14859 H 1395.47 -3.94122 1.68421 0
M  V30 14860 H 1399.65 -4.2106 2.6272 0
M  V30 14861 H 1394.91 -4.64918 3.97065 0
M  V30 14862 H 1399.08 -4.93194 4.91663 0
M  V30 14863 H 1396.71 -5.14809 5.59353 0
M  V30 14864 N 1398.28 -0.588812 -1.46187 0
M  V30 14865 C 1399.22 0.189417 -2.27413 0
M  V30 14866 C 1400.19 0.891224 -1.36 0
M  V30 14867 O 1401.38 0.903883 -1.65415 0
M  V30 14868 C 1398.5 1.27233 -3.13894 0
M  V30 14869 C 1397.55 0.675705 -4.21113 0
M  V30 14870 S 1398.38 -0.502093 -5.33141 0
M  V30 14871 C 1399.54 0.581875 -6.23189 0
M  V30 14872 H 1399.77 -0.499754 -2.9307 0
M  V30 14873 H 1397.31 -0.375854 -1.49755 0
M  V30 14874 H 1399.26 1.89233 -3.64282 0
M  V30 14875 H 1397.92 1.93348 -2.47538 0
M  V30 14876 H 1397.12 1.48991 -4.81475 0
M  V30 14877 H 1396.72 0.131249 -3.7377 0
M  V30 14878 H 1399.01 1.46594 -6.6145 0
M  V30 14879 H 1399.95 0.0148739 -7.08098 0
M  V30 14880 H 1400.36 0.888764 -5.5746 0
M  V30 14881 N 1399.76 1.54172 -0.326923 0
M  V30 14882 C 1401.04 1.92812 0.329078 0
M  V30 14883 C 1401.42 1.25687 1.69605 0
M  V30 14884 O 1400.77 0.401779 2.2494 0
M  V30 14885 C 1400.98 3.46488 0.417949 0
M  V30 14886 C 1402.32 4.19174 0.67665 0
M  V30 14887 O 1403.35 3.52663 0.500735 0
M  V30 14888 O 1402.21 5.36968 1.01625 0
M  V30 14889 H 1399.3 0.805214 0.188573 0
M  V30 14890 H 1401.85 1.65462 -0.376884 0
M  V30 14891 H 1400.62 3.87528 -0.541986 0
M  V30 14892 H 1400.24 3.79954 1.17136 0
M  V30 14893 N 1401.24 0.0551678 1.57503 0
M  V30 14894 C 1402.19 -0.917847 2.11764 0
M  V30 14895 C 1403.16 -1.30624 1.02599 0
M  V30 14896 O 1404.34 -1.39501 1.30169 0
M  V30 14897 C 1401.48 -2.18599 2.67036 0
M  V30 14898 C 1400.59 -1.85173 3.90301 0
M  V30 14899 C 1399.73 -3.06475 4.33874 0
M  V30 14900 C 1398.77 -2.68988 5.49829 0
M  V30 14901 N 1397.9 -3.82997 5.88437 0
M  V30 14902 H 1402.74 -0.448236 2.9461 0
M  V30 14903 H 1400.28 -0.209619 1.45599 0
M  V30 14904 H 1402.24 -2.92811 2.97183 0
M  V30 14905 H 1400.87 -2.6313 1.86982 0
M  V30 14906 H 1399.92 -1.01094 3.66721 0
M  V30 14907 H 1401.23 -1.53582 4.74567 0
M  V30 14908 H 1400.39 -3.88982 4.65594 0
M  V30 14909 H 1399.13 -3.41247 3.48427 0
M  V30 14910 H 1398.13 -1.84899 5.17776 0
M  V30 14911 H 1399.36 -2.35404 6.36994 0
M  V30 14912 H 1397.3 -4.17562 5.05942 0
M  V30 14913 H 1397.22 -3.55118 6.67403 0
M  V30 14914 H 1398.49 -4.66131 6.24773 0
M  V30 14915 N 1402.72 -1.56081 -0.218252 0
M  V30 14916 C 1403.63 -1.95856 -1.29141 0
M  V30 14917 C 1404.64 -0.862857 -1.51099 0
M  V30 14918 O 1405.82 -1.1667 -1.64165 0
M  V30 14919 C 1402.88 -2.27005 -2.62049 0
M  V30 14920 C 1401.94 -3.50162 -2.48365 0
M  V30 14921 C 1401.18 -3.79815 -3.74935 0
M  V30 14922 O 1401.4 -3.11095 -4.78096 0
M  V30 14923 O 1400.33 -4.73299 -3.71849 0
M  V30 14924 H 1404.16 -2.8732 -0.983922 0
M  V30 14925 H 1401.75 -1.43334 -0.421385 0
M  V30 14926 H 1403.63 -2.4822 -3.40536 0
M  V30 14927 H 1402.3 -1.38715 -2.92472 0
M  V30 14928 H 1401.21 -3.34222 -1.68066 0
M  V30 14929 H 1402.54 -4.38845 -2.22881 0
M  V30 14930 N 1404.2 0.485086 -1.49949 0
M  V30 14931 C 1405.13 1.59312 -1.7071 0
M  V30 14932 C 1406.11 1.6076 -0.555896 0
M  V30 14933 O 1407.29 1.77249 -0.793504 0
M  V30 14934 C 1404.42 2.97718 -1.78834 0
M  V30 14935 C 1403.38 3.11136 -2.93902 0
M  V30 14936 C 1402.7 4.51051 -2.87154 0
M  V30 14937 C 1404 2.89665 -4.34617 0
M  V30 14938 H 1405.7 1.42192 -2.6348 0
M  V30 14939 H 1403.24 0.68262 -1.26792 0
M  V30 14940 H 1405.19 3.75148 -1.91943 0
M  V30 14941 H 1403.92 3.15963 -0.826744 0
M  V30 14942 H 1402.58 2.36135 -2.80421 0
M  V30 14943 H 1402.23 4.66195 -1.88869 0
M  V30 14944 H 1401.93 4.60967 -3.64394 0
M  V30 14945 H 1403.45 5.3052 -3.02293 0
M  V30 14946 H 1404.86 3.56853 -4.48697 0
M  V30 14947 H 1403.26 3.11039 -5.13201 0
M  V30 14948 H 1404.33 1.85642 -4.47956 0
M  V30 14949 N 1405.67 1.39291 0.737279 0
M  V30 14950 C 1407.08 1.32489 1.31543 0
M  V30 14951 C 1407.44 -0.0118162 1.96196 0
M  V30 14952 O 1406.56 -0.913938 1.96153 0
M  V30 14953 C 1407.16 2.39946 2.39189 0
M  V30 14954 C 1405.71 2.36671 2.92684 0
M  V30 14955 C 1404.86 2.21953 1.66229 0
M  V30 14956 H 1407.81 1.49412 0.534954 0
M  V30 14957 H 1407.83 2.06603 3.19524 0
M  V30 14958 H 1407.35 3.3722 1.92104 0
M  V30 14959 H 1405.45 1.43028 3.44055 0
M  V30 14960 H 1405.56 3.31441 3.45953 0
M  V30 14961 H 1403.92 1.69087 1.90478 0
M  V30 14962 H 1404.71 3.21194 1.21199 0
M  V30 14963 N 1407.15 -0.967221 1.24429 0
M  V30 14964 C 1408.57 -1.23594 1.00979 0
M  V30 14965 C 1408.77 -1.99529 -0.281112 0
M  V30 14966 O 1407.82 -2.31977 -0.997139 0
M  V30 14967 C 1409.14 -2.02261 2.22511 0
M  V30 14968 C 1410.68 -2.15352 2.2714 0
M  V30 14969 C 1411.16 -2.97414 3.48294 0
M  V30 14970 N 1412.65 -3.04996 3.48614 0
M  V30 14971 C 1413.39 -3.68851 4.39017 0
M  V30 14972 N 1412.88 -4.34421 5.39676 0
M  V30 14973 N 1414.67 -3.65868 4.26728 0
M  V30 14974 H 1406.83 -0.458881 2.07384 0
M  V30 14975 H 1409.09 -0.265411 0.910088 0
M  V30 14976 H 1408.79 -1.53852 3.16263 0
M  V30 14977 H 1408.67 -3.02993 2.24667 0
M  V30 14978 H 1411.06 -2.62964 1.33919 0
M  V30 14979 H 1411.14 -1.13966 2.2901 0
M  V30 14980 H 1410.78 -2.50495 4.41831 0
M  V30 14981 H 1410.71 -3.98998 3.43668 0
M  V30 14982 H 1413.2 -2.58354 2.75793 0
M  V30 14983 H 1413.51 -4.80965 6.04891 0
M  V30 14984 H 1411.86 -4.33089 5.43562 0
M  V30 14985 H 1415.05 -3.13819 3.47325 0
M  V30 14986 H 1415.22 -4.15349 4.97382 0
M  V30 14987 N 1408.63 -1.05812 -1.16797 0
M  V30 14988 C 1409.88 -0.782869 -1.8773 0
M  V30 14989 C 1410.23 0.683013 -1.79869 0
M  V30 14990 O 1409.52 1.49357 -1.20012 0
M  V30 14991 C 1409.72 -1.20565 -3.3645 0
M  V30 14992 C 1409.55 -2.71109 -3.58789 0
M  V30 14993 C 1408.32 -3.38506 -3.75155 0
M  V30 14994 C 1410.51 -3.69327 -3.57914 0
M  V30 14995 N 1408.5 -4.77851 -3.85398 0
M  V30 14996 C 1409.87 -4.94431 -3.74082 0
M  V30 14997 C 1411.92 -3.62707 -3.41099 0
M  V30 14998 C 1410.63 -6.13707 -3.75175 0
M  V30 14999 C 1412.65 -4.81429 -3.43483 0
M  V30 15000 C 1412.01 -6.0536 -3.60165 0
M  V30 15001 H 1408.11 -0.338798 -0.704798 0
M  V30 15002 H 1410.7 -1.3513 -1.40171 0
M  V30 15003 H 1408.87 -0.665104 -3.82663 0
M  V30 15004 H 1410.6 -0.879581 -3.95026 0
M  V30 15005 H 1407.35 -2.88907 -3.75273 0
M  V30 15006 H 1407.78 -5.50324 -3.943 0
M  V30 15007 H 1412.42 -2.67851 -3.27133 0
M  V30 15008 H 1410.14 -7.08901 -3.87925 0
M  V30 15009 H 1413.72 -4.77966 -3.31722 0
M  V30 15010 H 1412.6 -6.95688 -3.61923 0
M  V30 15011 N 1410.11 1.33347 -0.840014 0
M  V30 15012 C 1411.06 2.31113 -0.262617 0
M  V30 15013 C 1412.05 1.58189 0.606023 0
M  V30 15014 O 1413.26 1.73047 0.495457 0
M  V30 15015 H 1409.63 0.74908 -0.0662003 0
M  V30 15016 H 1411.6 2.77318 -1.10169 0
M  V30 15017 C 1410.35 3.43377 0.54658 0
M  V30 15018 H 1409.67 3.99642 -0.112514 0
M  V30 15019 H 1411.11 4.13978 0.91641 0
M  V30 15020 C 1409.57 2.89333 1.72592 0
M  V30 15021 O 1410.1 2.85615 2.82466 0
M  V30 15022 N 1408.31 2.45926 1.54819 0
M  V30 15023 H 1407.86 2.49149 0.654404 0
M  V30 15024 H 1407.81 2.10119 2.33875 0
M  V30 15025 N 1411.59 0.596556 1.45873 0
M  V30 15026 C 1412.83 0.0874583 2.02311 0
M  V30 15027 C 1413.16 -1.27781 1.46636 0
M  V30 15028 O 1412.42 -1.85393 0.62674 0
M  V30 15029 C 1412.71 -0.0135714 3.57397 0
M  V30 15030 C 1412.38 1.28591 4.32175 0
M  V30 15031 C 1411.04 1.6419 4.52322 0
M  V30 15032 C 1413.39 2.14523 4.75005 0
M  V30 15033 C 1410.72 2.85493 5.12553 0
M  V30 15034 C 1413.07 3.35065 5.36577 0
M  V30 15035 C 1411.74 3.70929 5.54949 0
M  V30 15036 H 1411.01 0.0320033 0.740309 0
M  V30 15037 H 1413.66 0.775967 1.75074 0
M  V30 15038 H 1411.96 -0.785287 3.8385 0
M  V30 15039 H 1413.66 -0.423456 3.98758 0
M  V30 15040 H 1410.25 0.99881 4.16799 0
M  V30 15041 H 1414.43 1.88321 4.59183 0
M  V30 15042 H 1409.69 3.134 5.24967 0
M  V30 15043 H 1413.86 4.01909 5.6872 0
M  V30 15044 H 1411.49 4.65011 6.01389 0
M  V30 15045 N 1413.06 -1.53996 0.335095 0
M  V30 15046 C 1414.29 -2.05188 -0.26563 0
M  V30 15047 C 1414.71 -1.21058 -1.44881 0
M  V30 15048 O 1414.06 -0.243919 -1.80863 0
M  V30 15049 C 1414.11 -3.54875 -0.688904 0
M  V30 15050 O 1413.84 -4.35811 0.447217 0
M  V30 15051 C 1415.34 -4.22204 -1.35123 0
M  V30 15052 H 1412.56 -0.668921 -0.0527806 0
M  V30 15053 H 1415.1 -1.98675 0.48463 0
M  V30 15054 H 1413.26 -3.61638 -1.38912 0
M  V30 15055 H 1413.67 -5.24381 0.111495 0
M  V30 15056 H 1415.14 -5.28356 -1.59823 0
M  V30 15057 H 1415.62 -3.74029 -2.30216 0
M  V30 15058 H 1416.23 -4.19611 -0.693283 0
M  V30 15059 N 1414.54 -0.0635198 -1.57472 0
M  V30 15060 C 1415.82 0.648029 -1.84553 0
M  V30 15061 C 1416.2 1.88295 -0.954371 0
M  V30 15062 O 1415.55 2.28492 -0.0185351 0
M  V30 15063 C 1415.76 0.993573 -3.34558 0
M  V30 15064 C 1417.1 1.3706 -4.0187 0
M  V30 15065 O 1418.13 1.08555 -3.39255 0
M  V30 15066 O 1416.99 1.90309 -5.12294 0
M  V30 15067 H 1414.08 0.321047 -0.76214 0
M  V30 15068 H 1416.63 -0.0938223 -1.6944 0
M  V30 15069 H 1415.4 0.116139 -3.91128 0
M  V30 15070 H 1415.02 1.79246 -3.54904 0
M  V30 15071 N 1416.02 1.56195 0.209972 0
M  V30 15072 C 1417.27 1.79745 0.932638 0
M  V30 15073 C 1417.59 0.634252 1.83868 0
M  V30 15074 O 1416.85 -0.380798 1.91959 0
M  V30 15075 C 1417.15 3.09154 1.79328 0
M  V30 15076 C 1416.81 4.38754 1.03949 0
M  V30 15077 C 1415.48 4.73965 0.831308 0
M  V30 15078 C 1417.83 5.18718 0.508031 0
M  V30 15079 C 1415.16 5.86646 0.0799547 0
M  V30 15080 C 1417.51 6.32182 -0.230037 0
M  V30 15081 C 1416.17 6.65986 -0.449366 0
M  V30 15082 H 1415.44 0.657732 0.341276 0
M  V30 15083 H 1418.09 1.90453 0.199998 0
M  V30 15084 H 1416.39 2.93618 2.59414 0
M  V30 15085 H 1418.09 3.24578 2.35478 0
M  V30 15086 H 1414.68 4.11114 1.21174 0
M  V30 15087 H 1418.87 4.91941 0.656306 0
M  V30 15088 H 1414.12 6.11318 -0.100092 0
M  V30 15089 H 1418.3 6.93367 -0.649296 0
M  V30 15090 H 1415.92 7.53142 -1.03349 0
M  V30 15091 N 1417.5 -0.477127 1.50204 0
M  V30 15092 C 1418.43 -1.59442 1.63259 0
M  V30 15093 C 1419.41 -1.55327 0.480864 0
M  V30 15094 O 1420.59 -1.75038 0.699578 0
M  V30 15095 C 1417.72 -2.98009 1.6096 0
M  V30 15096 C 1416.77 -3.20301 2.8162 0
M  V30 15097 S 1417.6 -3.00849 4.43001 0
M  V30 15098 C 1418.75 -4.41769 4.43386 0
M  V30 15099 H 1418.99 -1.48128 2.5777 0
M  V30 15100 H 1416.52 -0.66403 1.39392 0
M  V30 15101 H 1418.48 -3.779 1.60319 0
M  V30 15102 H 1417.14 -3.06718 0.676948 0
M  V30 15103 H 1416.33 -4.21515 2.76299 0
M  V30 15104 H 1415.93 -2.48173 2.79797 0
M  V30 15105 H 1418.23 -5.34294 4.16576 0
M  V30 15106 H 1419.17 -4.52135 5.44958 0
M  V30 15107 H 1419.58 -4.23565 3.73166 0
M  V30 15108 N 1418.98 -1.3968 -0.729882 0
M  V30 15109 C 1419.93 -1.35296 -1.83518 0
M  V30 15110 C 1420.91 -0.232935 -1.59205 0
M  V30 15111 O 1422.1 -0.470887 -1.70621 0
M  V30 15112 C 1419.23 -1.20383 -3.21501 0
M  V30 15113 C 1418.32 -2.37108 -3.51626 0
M  V30 15114 N 1418.71 -3.62585 -3.52655 0
M  V30 15115 C 1417.01 -2.30177 -3.82014 0
M  V30 15116 C 1417.71 -4.39803 -3.8072 0
M  V30 15117 N 1416.68 -3.69456 -3.98752 0
M  V30 15118 H 1420.49 -2.30271 -1.82627 0
M  V30 15119 H 1418 -1.33249 -0.92836 0
M  V30 15120 H 1420 -1.15325 -4.00632 0
M  V30 15121 H 1418.66 -0.263628 -3.23628 0
M  V30 15122 H 1419.67 -3.9594 -3.33845 0
M  V30 15123 H 1416.34 -1.44446 -3.91716 0
M  V30 15124 H 1417.73 -5.4859 -3.87941 0
M  V30 15125 N 1420.45 0.960609 -1.2494 0
M  V30 15126 C 1421.68 1.7446 -1.12153 0
M  V30 15127 C 1422.1 1.85335 0.321315 0
M  V30 15128 O 1421.46 1.32944 1.23271 0
M  V30 15129 C 1421.51 3.13945 -1.774 0
M  V30 15130 O 1420.61 3.9882 -1.04958 0
M  V30 15131 H 1419.96 0.536007 -0.391909 0
M  V30 15132 H 1422.49 1.2045 -1.65388 0
M  V30 15133 H 1422.5 3.64434 -1.83444 0
M  V30 15134 H 1421.17 3.05346 -2.82377 0
M  V30 15135 H 1419.75 3.57293 -1.06752 0
M  V30 15136 N 1421.93 1.0643 1.16234 0
M  V30 15137 C 1423.18 0.78184 1.86798 0
M  V30 15138 C 1423.51 -0.691734 1.81784 0
M  V30 15139 O 1422.76 -1.52271 1.22931 0
M  V30 15140 C 1423.06 1.22348 3.35806 0
M  V30 15141 C 1422.73 2.7014 3.61019 0
M  V30 15142 C 1421.39 3.1051 3.6761 0
M  V30 15143 C 1423.74 3.65582 3.71482 0
M  V30 15144 C 1421.07 4.45159 3.82165 0
M  V30 15145 C 1423.42 4.99981 3.87559 0
M  V30 15146 C 1422.09 5.39986 3.92392 0
M  V30 15147 H 1421.36 0.286096 0.683542 0
M  V30 15148 H 1424 1.33364 1.37427 0
M  V30 15149 H 1422.31 0.590896 3.87319 0
M  V30 15150 H 1424 0.981959 3.88791 0
M  V30 15151 H 1420.59 2.37884 3.56524 0
M  V30 15152 H 1424.78 3.35525 3.657 0
M  V30 15153 H 1420.03 4.75637 3.8416 0
M  V30 15154 H 1424.21 5.73817 3.94597 0
M  V30 15155 H 1421.84 6.44324 4.03423 0
M  V30 15156 N 1423.41 -1.329 0.847073 0
M  V30 15157 C 1424.34 -2.27027 0.231111 0
M  V30 15158 C 1425.32 -1.50045 -0.626524 0
M  V30 15159 O 1426.51 -1.79193 -0.58499 0
M  V30 15160 C 1423.63 -3.31911 -0.67472 0
M  V30 15161 C 1422.68 -4.26362 0.108531 0
M  V30 15162 S 1423.51 -5.14874 1.4719 0
M  V30 15163 C 1424.67 -6.23285 0.571586 0
M  V30 15164 H 1424.9 -2.78922 1.02906 0
M  V30 15165 H 1422.43 -1.40315 0.64428 0
M  V30 15166 H 1424.39 -3.92821 -1.19172 0
M  V30 15167 H 1423.05 -2.78815 -1.44641 0
M  V30 15168 H 1422.25 -5.00639 -0.581079 0
M  V30 15169 H 1421.85 -3.69831 0.556863 0
M  V30 15170 H 1424.14 -6.77119 -0.227261 0
M  V30 15171 H 1425.08 -6.96347 1.28477 0
M  V30 15172 H 1425.49 -5.64303 0.149291 0
M  V30 15173 N 1424.89 -0.604284 -1.45555 0
M  V30 15174 C 1426.14 -0.0957836 -2.01472 0
M  V30 15175 C 1426.45 1.28016 -1.47889 0
M  V30 15176 O 1427.66 1.88121 -1.95762 0
M  V30 15177 C 1426.11 -0.120566 -3.59698 0
M  V30 15178 C 1425.72 -1.49616 -4.22278 0
M  V30 15179 C 1427.46 0.332865 -4.23193 0
M  V30 15180 C 1425.37 -1.4775 -5.72646 0
M  V30 15181 H 1424.3 -0.0320399 -0.753319 0
M  V30 15182 H 1426.95 -0.759125 -1.67061 0
M  V30 15183 H 1425.33 0.609365 -3.91283 0
M  V30 15184 H 1426.51 -2.24753 -4.02272 0
M  V30 15185 H 1424.82 -1.89141 -3.70965 0
M  V30 15186 H 1427.42 0.365951 -5.33446 0
M  V30 15187 H 1427.76 1.35487 -3.93635 0
M  V30 15188 H 1428.3 -0.343692 -3.96313 0
M  V30 15189 H 1425.04 -2.47701 -6.06898 0
M  V30 15190 H 1424.56 -0.768659 -5.94854 0
M  V30 15191 H 1426.23 -1.19971 -6.3578 0
M  V30 15192 N 1426.37 1.53816 -0.343257 0
M  V30 15193 C 1427.61 2.01207 0.253721 0
M  V30 15194 C 1427.95 1.23069 1.50225 0
M  V30 15195 O 1427.22 0.31824 1.91879 0
M  V30 15196 C 1427.5 3.5559 0.56815 0
M  V30 15197 C 1427.36 4.44438 -0.692457 0
M  V30 15198 C 1428.68 4.17974 1.37788 0
M  V30 15199 H 1425.79 0.731392 0.0907427 0
M  V30 15200 H 1428.44 1.84254 -0.463736 0
M  V30 15201 H 1426.59 3.70166 1.17937 0
M  V30 15202 H 1428.26 4.41698 -1.33042 0
M  V30 15203 H 1426.5 4.13312 -1.3174 0
M  V30 15204 H 1427.17 5.5034 -0.427715 0
M  V30 15205 H 1429.65 4.07094 0.861043 0
M  V30 15206 H 1428.52 5.26068 1.56663 0
M  V30 15207 H 1428.79 3.72577 2.3799 0
M  V30 15208 N 1427.84 0.0718701 1.57436 0
M  V30 15209 C 1429.09 -0.597231 1.93493 0
M  V30 15210 C 1429.42 -1.69614 0.951906 0
M  V30 15211 O 1428.67 -1.95673 -0.0324554 0
M  V30 15212 C 1428.97 -1.21336 3.36173 0
M  V30 15213 C 1428.64 -0.240582 4.50258 0
M  V30 15214 C 1427.3 0.0270368 4.81192 0
M  V30 15215 C 1429.65 0.424924 5.19465 0
M  V30 15216 C 1426.98 0.967249 5.78672 0
M  V30 15217 C 1429.33 1.35346 6.17952 0
M  V30 15218 C 1428 1.62954 6.47304 0
M  V30 15219 H 1427.27 -0.218542 0.70804 0
M  V30 15220 H 1429.91 0.142762 1.90967 0
M  V30 15221 H 1428.22 -2.02909 3.35164 0
M  V30 15222 H 1429.92 -1.73836 3.61361 0
M  V30 15223 H 1426.51 -0.459352 4.26131 0
M  V30 15224 H 1430.69 0.231285 4.95761 0
M  V30 15225 H 1425.95 1.1884 5.99739 0
M  V30 15226 H 1430.12 1.87509 6.70681 0
M  V30 15227 H 1427.75 2.3597 7.2265 0
M  V30 15228 N 1429.32 -1.56304 -0.201686 0
M  V30 15229 C 1430.74 -1.49741 -0.552247 0
M  V30 15230 C 1430.94 -0.770683 -1.86179 0
M  V30 15231 O 1429.99 -0.318489 -2.50483 0
M  V30 15232 C 1431.31 -2.94384 -0.613083 0
M  V30 15233 C 1432.86 -3.05018 -0.702365 0
M  V30 15234 C 1433.33 -4.51058 -0.794371 0
M  V30 15235 N 1434.82 -4.55183 -0.858072 0
M  V30 15236 C 1435.56 -5.65487 -0.949317 0
M  V30 15237 N 1435.05 -6.85497 -1.00327 0
M  V30 15238 N 1436.85 -5.53385 -0.985995 0
M  V30 15239 H 1429 -2.01971 0.657394 0
M  V30 15240 H 1431.26 -0.918839 0.233322 0
M  V30 15241 H 1430.97 -3.50584 0.279921 0
M  V30 15242 H 1430.84 -3.47376 -1.47002 0
M  V30 15243 H 1433.23 -2.4887 -1.5858 0
M  V30 15244 H 1433.31 -2.55161 0.180636 0
M  V30 15245 H 1432.95 -5.07829 0.0846883 0
M  V30 15246 H 1432.88 -4.98641 -1.69308 0
M  V30 15247 H 1435.37 -3.68765 -0.825888 0
M  V30 15248 H 1435.69 -7.65312 -1.07322 0
M  V30 15249 H 1434.03 -6.88169 -0.972061 0
M  V30 15250 H 1437.22 -4.58552 -0.940635 0
M  V30 15251 H 1437.39 -6.39376 -1.05365 0
M  V30 15252 N 1430.8 0.469154 -1.50455 0
M  V30 15253 C 1432.05 1.2229 -1.6178 0
M  V30 15254 C 1432.38 1.91577 -0.318073 0
M  V30 15255 O 1431.65 1.82205 0.68057 0
M  V30 15256 C 1431.94 2.26504 -2.79943 0
M  V30 15257 C 1431.79 1.61509 -4.19804 0
M  V30 15258 C 1433.11 3.27796 -2.93662 0
M  V30 15259 H 1430.23 0.443241 -0.588817 0
M  V30 15260 H 1432.87 0.516431 -1.82847 0
M  V30 15261 H 1431.02 2.86757 -2.62112 0
M  V30 15262 H 1432.69 1.04838 -4.49229 0
M  V30 15263 H 1430.94 0.918162 -4.23972 0
M  V30 15264 H 1431.61 2.37248 -4.98415 0
M  V30 15265 H 1434.08 2.77568 -3.09992 0
M  V30 15266 H 1432.96 3.98041 -3.77961 0
M  V30 15267 H 1433.22 3.92033 -2.04359 0
M  V30 15268 N 1432.28 1.40065 0.722464 0
M  V30 15269 C 1433.21 1.42532 1.84951 0
M  V30 15270 C 1434.19 0.287082 1.6766 0
M  V30 15271 O 1435.37 0.494715 1.87793 0
M  V30 15272 C 1432.5 1.28041 3.22836 0
M  V30 15273 C 1431.46 2.39396 3.54787 0
M  V30 15274 C 1430.78 2.09986 4.91742 0
M  V30 15275 C 1432.08 3.81729 3.56483 0
M  V30 15276 H 1433.78 2.36851 1.83144 0
M  V30 15277 H 1431.32 1.14005 0.879714 0
M  V30 15278 H 1433.28 1.28385 4.01367 0
M  V30 15279 H 1432 0.301947 3.25201 0
M  V30 15280 H 1430.66 2.3829 2.78592 0
M  V30 15281 H 1430.31 1.10547 4.90702 0
M  V30 15282 H 1430.01 2.84586 5.14086 0
M  V30 15283 H 1431.53 2.12 5.72615 0
M  V30 15284 H 1432.95 3.84696 4.25067 0
M  V30 15285 H 1431.34 4.55791 3.90351 0
M  V30 15286 H 1432.41 4.11807 2.56014 0
M  V30 15287 N 1433.76 -0.95397 1.25448 0
M  V30 15288 C 1435 -1.71348 1.11441 0
M  V30 15289 C 1435.36 -1.88988 -0.338748 0
M  V30 15290 O 1436.56 -2.62003 -0.600652 0
M  V30 15291 C 1434.83 -3.05874 1.84867 0
M  V30 15292 S 1436.39 -3.97072 1.86759 0
M  V30 15293 H 1433.21 -0.588957 0.39831 0
M  V30 15294 H 1435.81 -1.13776 1.58982 0
M  V30 15295 H 1434.52 -2.90706 2.89686 0
M  V30 15296 H 1434.05 -3.68508 1.37715 0
M  V30 15297 H 1436.06 -4.87116 0.945109 0
M  V30 15298 N 1435.24 -1.07045 -1.15668 0
M  V30 15299 C 1436.48 -0.790172 -1.86013 0
M  V30 15300 C 1436.8 0.685663 -1.82548 0
M  V30 15301 O 1436.07 1.49644 -1.26426 0
M  V30 15302 H 1434.65 -0.28931 -0.688701 0
M  V30 15303 H 1437.32 -1.35354 -1.40233 0
M  V30 15304 H 1436.41 -1.1219 -2.91239 0
M  V30 15305 N 1436.71 1.32449 -0.85411 0
M  V30 15306 C 1437.62 2.32658 -0.301221 0
M  V30 15307 C 1438.64 1.64025 0.580673 0
M  V30 15308 O 1439.82 1.95568 0.481172 0
M  V30 15309 C 1436.88 3.43049 0.501803 0
M  V30 15310 C 1435.94 4.27374 -0.406166 0
M  V30 15311 C 1435.17 5.32494 0.358627 0
M  V30 15312 O 1435.4 5.4783 1.58865 0
M  V30 15313 O 1434.33 6.0127 -0.275291 0
M  V30 15314 H 1438.16 2.81838 -1.13143 0
M  V30 15315 H 1435.74 1.36063 -0.617032 0
M  V30 15316 H 1437.62 4.10375 0.957608 0
M  V30 15317 H 1436.3 2.9606 1.30882 0
M  V30 15318 H 1435.21 3.6286 -0.910136 0
M  V30 15319 H 1436.54 4.77887 -1.17835 0
M  V30 15320 N 1438.19 0.611994 1.45232 0
M  V30 15321 C 1439.44 0.117519 2.0306 0
M  V30 15322 C 1439.79 -1.23976 1.47132 0
M  V30 15323 O 1439.09 -1.80657 0.638249 0
M  V30 15324 C 1439.28 0.0243361 3.57392 0
M  V30 15325 C 1439.11 1.37103 4.28291 0
M  V30 15326 C 1437.88 1.95287 4.66038 0
M  V30 15327 C 1440.08 2.30076 4.59967 0
M  V30 15328 N 1438.06 3.23391 5.21816 0
M  V30 15329 C 1439.43 3.42782 5.16624 0
M  V30 15330 C 1441.48 2.29394 4.41908 0
M  V30 15331 C 1440.19 4.54975 5.57126 0
M  V30 15332 C 1442.21 3.40638 4.83446 0
M  V30 15333 C 1441.58 4.52066 5.402 0
M  V30 15334 H 1437.67 0.0864756 0.777204 0
M  V30 15335 H 1440.26 0.81131 1.76991 0
M  V30 15336 H 1438.43 -0.638687 3.83113 0
M  V30 15337 H 1440.16 -0.477205 4.01877 0
M  V30 15338 H 1436.92 1.48443 4.49735 0
M  V30 15339 H 1437.34 3.88835 5.54199 0
M  V30 15340 H 1441.98 1.44504 3.97339 0
M  V30 15341 H 1439.7 5.40587 6.00659 0
M  V30 15342 H 1443.29 3.41263 4.71202 0
M  V30 15343 H 1442.17 5.36723 5.7175 0
M  V30 15344 N 1439.67 -1.53632 0.351409 0
M  V30 15345 C 1440.92 -2.00222 -0.243731 0
M  V30 15346 C 1441.23 -1.24305 -1.51022 0
M  V30 15347 O 1442.44 -1.61411 -2.18309 0
M  V30 15348 C 1440.89 -3.56619 -0.48487 0
M  V30 15349 C 1440.5 -4.414 0.766173 0
M  V30 15350 C 1442.25 -4.11603 -1.03844 0
M  V30 15351 C 1440.15 -5.89321 0.4954 0
M  V30 15352 H 1439.08 -0.74801 -0.0948534 0
M  V30 15353 H 1441.73 -1.77433 0.467957 0
M  V30 15354 H 1440.12 -3.75505 -1.25746 0
M  V30 15355 H 1441.29 -4.34288 1.54047 0
M  V30 15356 H 1439.6 -3.97448 1.24194 0
M  V30 15357 H 1442.2 -5.19736 -1.25611 0
M  V30 15358 H 1442.54 -3.65311 -1.99634 0
M  V30 15359 H 1443.08 -3.96459 -0.326363 0
M  V30 15360 H 1439.82 -6.39863 1.42324 0
M  V30 15361 H 1439.34 -5.99317 -0.240662 0
M  V30 15362 H 1441.02 -6.46897 0.115584 0
M  V30 15363 N 1441.15 -0.0802183 -1.57396 0
M  V30 15364 C 1442.08 0.913777 -2.10197 0
M  V30 15365 C 1443.09 1.25588 -1.03593 0
M  V30 15366 O 1444.28 1.21159 -1.31083 0
M  V30 15367 C 1441.38 2.2272 -2.55439 0
M  V30 15368 C 1440.55 2.06268 -3.8571 0
M  V30 15369 C 1439.61 3.20989 -4.16956 0
M  V30 15370 O 1438.64 2.95608 -4.8642 0
M  V30 15371 N 1439.84 4.46331 -3.71172 0
M  V30 15372 H 1442.61 0.462908 -2.96103 0
M  V30 15373 H 1440.17 0.105287 -1.61557 0
M  V30 15374 H 1442.16 2.98389 -2.73397 0
M  V30 15375 H 1440.73 2.59278 -1.74624 0
M  V30 15376 H 1439.95 1.15016 -3.77048 0
M  V30 15377 H 1441.24 1.92535 -4.70965 0
M  V30 15378 H 1440.64 4.69837 -3.15071 0
M  V30 15379 H 1439.19 5.18999 -3.94314 0
M  V30 15380 N 1442.63 1.56409 0.193394 0
M  V30 15381 C 1443.85 1.8519 0.933775 0
M  V30 15382 C 1444.28 0.663991 1.75991 0
M  V30 15383 O 1443.63 -0.387198 1.77117 0
M  V30 15384 C 1443.68 3.12212 1.80432 0
M  V30 15385 O 1442.79 2.92884 2.90332 0
M  V30 15386 H 1442.13 0.609754 0.262862 0
M  V30 15387 H 1444.66 2.03638 0.198195 0
M  V30 15388 H 1444.67 3.4305 2.20864 0
M  V30 15389 H 1443.34 3.98292 1.19733 0
M  V30 15390 H 1441.92 2.73349 2.53643 0
M  V30 15391 N 1444.1 -0.461169 1.50702 0
M  V30 15392 C 1445.04 -1.57702 1.64941 0
M  V30 15393 C 1446.01 -1.54808 0.497312 0
M  V30 15394 O 1447.2 -1.74286 0.718104 0
M  V30 15395 C 1444.33 -2.96285 1.64112 0
M  V30 15396 C 1443.37 -3.17296 2.85001 0
M  V30 15397 S 1444.2 -2.96134 4.46167 0
M  V30 15398 C 1445.36 -4.37042 4.48046 0
M  V30 15399 H 1445.59 -1.45386 2.59327 0
M  V30 15400 H 1443.13 -0.649209 1.40088 0
M  V30 15401 H 1445.08 -3.76178 1.64318 0
M  V30 15402 H 1443.75 -3.05983 0.709442 0
M  V30 15403 H 1442.94 -4.18561 2.80754 0
M  V30 15404 H 1442.54 -2.45191 2.82413 0
M  V30 15405 H 1444.83 -5.29846 4.2222 0
M  V30 15406 H 1445.78 -4.4633 5.49723 0
M  V30 15407 H 1446.18 -4.19584 3.77637 0
M  V30 15408 N 1445.58 -1.40446 -0.715026 0
M  V30 15409 C 1446.83 -1.39962 -1.47587 0
M  V30 15410 C 1447.18 -0.00170702 -1.924 0
M  V30 15411 O 1446.48 0.968788 -1.65303 0
M  V30 15412 C 1446.67 -2.32392 -2.7153 0
M  V30 15413 C 1446.5 -3.81032 -2.3884 0
M  V30 15414 C 1445.27 -4.49842 -2.30153 0
M  V30 15415 C 1447.47 -4.7251 -2.03073 0
M  V30 15416 N 1445.45 -5.83711 -1.90143 0
M  V30 15417 C 1446.82 -5.9518 -1.73668 0
M  V30 15418 C 1448.87 -4.6034 -1.89714 0
M  V30 15419 C 1447.58 -7.07038 -1.32248 0
M  V30 15420 C 1449.6 -5.7214 -1.49698 0
M  V30 15421 C 1448.97 -6.93896 -1.21191 0
M  V30 15422 H 1445.06 -0.567409 -0.538118 0
M  V30 15423 H 1447.65 -1.76163 -0.829144 0
M  V30 15424 H 1445.82 -1.98319 -3.33953 0
M  V30 15425 H 1447.55 -2.22762 -3.37875 0
M  V30 15426 H 1444.31 -4.0353 -2.47912 0
M  V30 15427 H 1444.73 -6.54608 -1.72675 0
M  V30 15428 H 1449.37 -3.66723 -2.10414 0
M  V30 15429 H 1447.09 -8.00538 -1.10291 0
M  V30 15430 H 1450.68 -5.6472 -1.39939 0
M  V30 15431 H 1449.56 -7.78938 -0.906925 0
M  V30 15432 N 1447.06 0.947303 -1.25952 0
M  V30 15433 C 1448.34 1.66964 -1.01894 0
M  V30 15434 C 1448.72 2.06192 0.452555 0
M  V30 15435 O 1448.06 1.78098 1.43156 0
M  V30 15436 C 1448.27 2.88643 -1.96179 0
M  V30 15437 C 1449.62 3.60432 -2.24441 0
M  V30 15438 O 1450.65 2.98737 -1.93996 0
M  V30 15439 O 1449.51 4.7154 -2.76247 0
M  V30 15440 H 1446.6 0.730875 -0.386976 0
M  V30 15441 H 1449.15 0.999577 -1.37137 0
M  V30 15442 H 1447.92 2.565 -2.95506 0
M  V30 15443 H 1447.54 3.63377 -1.61379 0
M  V30 15444 N 1448.54 1.07657 1.15099 0
M  V30 15445 C 1449.78 0.811006 1.87622 0
M  V30 15446 C 1450.14 -0.651144 1.80621 0
M  V30 15447 O 1451.34 -1.03188 2.48205 0
M  V30 15448 C 1449.61 1.30906 3.32563 0
M  V30 15449 S 1451.17 1.17465 4.22785 0
M  V30 15450 H 1447.99 0.293808 0.647455 0
M  V30 15451 H 1450.59 1.3763 1.38846 0
M  V30 15452 H 1449.3 2.36784 3.35204 0
M  V30 15453 H 1448.83 0.739107 3.86395 0
M  V30 15454 H 1450.84 0.114115 4.96069 0
M  V30 15455 N 1450.02 -1.31994 0.861122 0
M  V30 15456 C 1450.95 -2.26769 0.255177 0
M  V30 15457 C 1451.93 -1.50701 -0.610574 0
M  V30 15458 O 1453.11 -1.79803 -0.565952 0
M  V30 15459 C 1450.24 -3.32608 -0.639478 0
M  V30 15460 C 1449.28 -4.26223 0.153746 0
M  V30 15461 S 1450.12 -5.13284 1.52643 0
M  V30 15462 C 1451.27 -6.22643 0.637662 0
M  V30 15463 H 1451.51 -2.77815 1.05859 0
M  V30 15464 H 1449.04 -1.39624 0.659126 0
M  V30 15465 H 1451 -3.94063 -1.14999 0
M  V30 15466 H 1449.66 -2.80334 -1.41675 0
M  V30 15467 H 1448.85 -5.01227 -0.527946 0
M  V30 15468 H 1448.45 -3.6922 0.596058 0
M  V30 15469 H 1450.75 -6.77322 -0.155431 0
M  V30 15470 H 1451.69 -6.94945 1.35856 0
M  V30 15471 H 1452.1 -5.64112 0.209134 0
M  V30 15472 N 1451.49 -0.619688 -1.44906 0
M  V30 15473 C 1452.42 0.0791121 -2.33366 0
M  V30 15474 C 1453.41 0.846503 -1.47541 0
M  V30 15475 O 1454.59 0.814657 -1.76287 0
M  V30 15476 C 1451.72 1.06901 -3.30438 0
M  V30 15477 C 1450.67 0.41403 -4.25993 0
M  V30 15478 C 1450 1.51303 -5.12846 0
M  V30 15479 C 1451.3 -0.672483 -5.17953 0
M  V30 15480 H 1452.99 -0.659551 -2.92045 0
M  V30 15481 H 1450.54 -0.318623 -1.40431 0
M  V30 15482 H 1452.49 1.56653 -3.912 0
M  V30 15483 H 1451.22 1.83842 -2.69944 0
M  V30 15484 H 1449.88 -0.0627315 -3.66546 0
M  V30 15485 H 1449.52 2.27303 -4.48712 0
M  V30 15486 H 1449.22 1.08022 -5.77586 0
M  V30 15487 H 1450.75 2.01258 -5.76479 0
M  V30 15488 H 1452.16 -0.258542 -5.72717 0
M  V30 15489 H 1450.56 -1.02776 -5.91234 0
M  V30 15490 H 1451.63 -1.54425 -4.59653 0
M  V30 15491 N 1452.97 1.53444 -0.359552 0
M  V30 15492 C 1454.22 2.01464 0.232366 0
M  V30 15493 C 1454.55 1.24656 1.48911 0
M  V30 15494 O 1453.83 0.338574 1.9153 0
M  V30 15495 C 1454.11 3.56172 0.530403 0
M  V30 15496 C 1453.96 4.43678 -0.739556 0
M  V30 15497 C 1455.28 4.19412 1.33347 0
M  V30 15498 H 1452.4 0.732314 0.0829802 0
M  V30 15499 H 1455.04 1.83752 -0.483253 0
M  V30 15500 H 1453.19 3.71396 1.14004 0
M  V30 15501 H 1454.86 4.40263 -1.37719 0
M  V30 15502 H 1453.11 4.11892 -1.36117 0
M  V30 15503 H 1453.78 5.49856 -0.486062 0
M  V30 15504 H 1456.25 4.07984 0.817816 0
M  V30 15505 H 1455.13 5.277 1.51075 0
M  V30 15506 H 1455.39 3.7508 2.34024 0
M  V30 15507 N 1454.45 0.0885642 1.57351 0
M  V30 15508 C 1455.7 -0.575536 1.93732 0
M  V30 15509 C 1456.02 -1.69126 0.970644 0
M  V30 15510 O 1455.29 -1.95888 0.0215907 0
M  V30 15511 H 1453.87 -0.215592 0.715213 0
M  V30 15512 H 1456.53 0.150362 1.94319 0
M  V30 15513 H 1455.63 -0.989979 2.95983 0
M  V30 15514 N 1455.93 -1.56509 -0.185096 0
M  V30 15515 C 1457.21 -1.72055 -0.930398 0
M  V30 15516 C 1457.59 -0.646145 -2.00968 0
M  V30 15517 O 1456.93 0.34129 -2.25937 0
M  V30 15518 C 1457.14 -3.14752 -1.50771 0
M  V30 15519 C 1458.49 -3.75292 -1.98597 0
M  V30 15520 O 1459.52 -3.17944 -1.60593 0
M  V30 15521 O 1458.37 -4.7596 -2.68561 0
M  V30 15522 H 1455.47 -0.702118 -0.436989 0
M  V30 15523 H 1458.01 -1.68806 -0.174007 0
M  V30 15524 H 1456.79 -3.84426 -0.730236 0
M  V30 15525 H 1456.41 -3.22272 -2.32866 0
M  V30 15526 N 1457.41 0.45317 -1.50944 0
M  V30 15527 C 1458.64 1.22494 -1.66369 0
M  V30 15528 C 1459.04 1.85862 -0.353854 0
M  V30 15529 O 1458.39 1.70808 0.676031 0
M  V30 15530 C 1458.45 2.36145 -2.71064 0
M  V30 15531 C 1458.11 1.93273 -4.14119 0
M  V30 15532 C 1459.11 1.44508 -4.99413 0
M  V30 15533 C 1456.8 2.01447 -4.60135 0
M  V30 15534 C 1458.79 1.04482 -6.28778 0
M  V30 15535 C 1456.48 1.61033 -5.89501 0
M  V30 15536 C 1457.47 1.1263 -6.73649 0
M  V30 15537 O 1457.16 0.727835 -8.00598 0
M  V30 15538 H 1456.89 0.37591 -0.561843 0
M  V30 15539 H 1459.45 0.545218 -1.98032 0
M  V30 15540 H 1457.68 3.07345 -2.34682 0
M  V30 15541 H 1459.37 2.9806 -2.75527 0
M  V30 15542 H 1460.13 1.376 -4.65071 0
M  V30 15543 H 1456.01 2.38068 -3.94771 0
M  V30 15544 H 1459.56 0.666322 -6.9441 0
M  V30 15545 H 1455.45 1.67606 -6.23361 0
M  V30 15546 H 1456.22 0.855097 -8.14021 0
M  V30 15547 N 1458.88 1.40823 0.707568 0
M  V30 15548 C 1460.11 1.43061 1.50161 0
M  V30 15549 C 1460.53 0.0342144 1.88069 0
M  V30 15550 O 1459.89 -0.959674 1.53818 0
M  V30 15551 C 1459.94 2.33459 2.74826 0
M  V30 15552 O 1459.04 1.78336 3.71847 0
M  V30 15553 H 1458.39 0.48602 0.452417 0
M  V30 15554 H 1460.92 1.85147 0.870742 0
M  V30 15555 H 1460.93 2.48922 3.23267 0
M  V30 15556 H 1459.6 3.34927 2.46571 0
M  V30 15557 H 1458.18 1.7226 3.30728 0
M  V30 15558 N 1460.36 -0.94061 1.26453 0
M  V30 15559 C 1461.6 -1.70157 1.13252 0
M  V30 15560 C 1461.97 -1.89337 -0.318684 0
M  V30 15561 O 1463.17 -2.62625 -0.57283 0
M  V30 15562 C 1461.44 -3.03896 1.88101 0
M  V30 15563 S 1463 -3.95069 1.9096 0
M  V30 15564 H 1459.82 -0.584699 0.404534 0
M  V30 15565 H 1462.42 -1.12084 1.6018 0
M  V30 15566 H 1461.12 -2.87617 2.92753 0
M  V30 15567 H 1460.65 -3.67026 1.41616 0
M  V30 15568 H 1462.67 -4.86086 0.996721 0
M  V30 15569 N 1461.84 -1.08266 -1.14527 0
M  V30 15570 C 1463.09 -0.806405 -1.84878 0
M  V30 15571 C 1463.4 0.670151 -1.83762 0
M  V30 15572 O 1464.61 1.06151 -2.49888 0
M  V30 15573 C 1463.06 -1.39257 -3.31867 0
M  V30 15574 C 1462.67 -2.90081 -3.41404 0
M  V30 15575 C 1464.42 -1.19475 -4.0734 0
M  V30 15576 C 1462.32 -3.41842 -4.82595 0
M  V30 15577 H 1461.25 -0.297993 -0.692615 0
M  V30 15578 H 1463.9 -1.30389 -1.29116 0
M  V30 15579 H 1462.29 -0.822802 -3.87358 0
M  V30 15580 H 1463.46 -3.53182 -2.95971 0
M  V30 15581 H 1461.78 -3.08761 -2.79385 0
M  V30 15582 H 1464.37 -1.55614 -5.11555 0
M  V30 15583 H 1464.72 -0.134455 -4.16083 0
M  V30 15584 H 1465.25 -1.73138 -3.58145 0
M  V30 15585 H 1461.99 -4.47439 -4.79039 0
M  V30 15586 H 1461.51 -2.835 -5.28572 0
M  V30 15587 H 1463.19 -3.38346 -5.51481 0
M  V30 15588 N 1463.32 1.31536 -0.86811 0
M  V30 15589 C 1464.73 1.78991 -0.530937 0
M  V30 15590 C 1465.08 1.71553 0.952046 0
M  V30 15591 O 1464.21 1.28216 1.74326 0
M  V30 15592 C 1464.8 3.25004 -0.956981 0
M  V30 15593 C 1463.36 3.70362 -0.671495 0
M  V30 15594 C 1462.51 2.52361 -1.14932 0
M  V30 15595 H 1465.46 1.18644 -1.05401 0
M  V30 15596 H 1465.48 3.79477 -0.278883 0
M  V30 15597 H 1464.99 3.30385 -2.03635 0
M  V30 15598 H 1463.09 3.70483 0.39659 0
M  V30 15599 H 1463.21 4.62581 -1.24722 0
M  V30 15600 H 1461.57 2.4826 -0.569144 0
M  V30 15601 H 1462.35 2.60489 -2.23608 0
M  V30 15602 N 1464.8 0.627364 1.44575 0
M  V30 15603 C 1466.04 0.130352 2.0208 0
M  V30 15604 C 1466.37 -1.24642 1.49314 0
M  V30 15605 O 1465.63 -1.84022 0.665923 0
M  V30 15606 C 1465.93 0.0622409 3.57346 0
M  V30 15607 C 1465.59 1.37729 4.2935 0
M  V30 15608 C 1464.25 1.73747 4.48737 0
M  V30 15609 C 1466.61 2.2455 4.70347 0
M  V30 15610 C 1463.93 2.96301 5.06382 0
M  V30 15611 C 1466.29 3.46371 5.29349 0
M  V30 15612 C 1464.95 3.82616 5.46956 0
M  V30 15613 H 1464.22 0.0476991 0.739463 0
M  V30 15614 H 1466.87 0.812928 1.73389 0
M  V30 15615 H 1465.17 -0.70369 3.85429 0
M  V30 15616 H 1466.87 -0.338778 3.99566 0
M  V30 15617 H 1463.46 1.08699 4.14587 0
M  V30 15618 H 1467.64 1.98019 4.55085 0
M  V30 15619 H 1462.9 3.24465 5.18201 0
M  V30 15620 H 1467.07 4.13882 5.60067 0
M  V30 15621 H 1464.7 4.77663 5.9139 0
M  V30 15622 N 1466.28 -1.53251 0.367684 0
M  V30 15623 C 1467.52 -2.01287 -0.221351 0
M  V30 15624 C 1467.85 -1.25489 -1.48603 0
M  V30 15625 O 1467.11 -0.337392 -1.9277 0
M  V30 15626 C 1467.4 -3.53031 -0.557149 0
M  V30 15627 C 1467.07 -4.46708 0.613444 0
M  V30 15628 C 1465.73 -4.72036 0.934633 0
M  V30 15629 C 1468.08 -5.02112 1.3976 0
M  V30 15630 C 1465.41 -5.50021 2.04191 0
M  V30 15631 C 1467.76 -5.81306 2.49531 0
M  V30 15632 C 1466.43 -6.04921 2.82182 0
M  V30 15633 H 1465.7 -0.73656 -0.080998 0
M  V30 15634 H 1468.35 -1.84842 0.500581 0
M  V30 15635 H 1466.65 -3.67434 -1.36012 0
M  V30 15636 H 1468.35 -3.87674 -1.02519 0
M  V30 15637 H 1464.94 -4.27143 0.353075 0
M  V30 15638 H 1469.12 -4.82488 1.1627 0
M  V30 15639 H 1464.38 -5.66536 2.29884 0
M  V30 15640 H 1468.55 -6.23245 3.10707 0
M  V30 15641 H 1466.18 -6.65134 3.68104 0
M  V30 15642 N 1467.75 -0.0969077 -1.57302 0
M  V30 15643 C 1468.68 0.858443 -2.17147 0
M  V30 15644 C 1469.66 1.29294 -1.10531 0
M  V30 15645 O 1470.85 1.3595 -1.38676 0
M  V30 15646 C 1467.98 2.11691 -2.75326 0
M  V30 15647 C 1466.93 1.82097 -3.8733 0
M  V30 15648 C 1466.26 3.14787 -4.32219 0
M  V30 15649 C 1467.56 1.10651 -5.10444 0
M  V30 15650 H 1469.25 0.35982 -2.9723 0
M  V30 15651 H 1466.8 0.17163 -1.42974 0
M  V30 15652 H 1468.75 2.78963 -3.15844 0
M  V30 15653 H 1467.48 2.63839 -1.925 0
M  V30 15654 H 1466.14 1.17222 -3.47354 0
M  V30 15655 H 1465.78 3.64826 -3.46281 0
M  V30 15656 H 1465.48 2.95769 -5.07735 0
M  V30 15657 H 1467.01 3.83215 -4.75372 0
M  V30 15658 H 1468.42 1.68036 -5.48121 0
M  V30 15659 H 1466.82 1.01805 -5.91401 0
M  V30 15660 H 1467.89 0.0895634 -4.84817 0
M  V30 15661 N 1469.23 1.56605 0.176793 0
M  V30 15662 C 1470.19 1.95109 1.20271 0
M  V30 15663 C 1471.19 0.83414 1.37473 0
M  V30 15664 O 1472.38 1.10128 1.34972 0
M  V30 15665 C 1469.52 2.24112 2.56878 0
M  V30 15666 H 1470.71 2.86909 0.87312 0
M  V30 15667 H 1468.26 1.50578 0.419033 0
M  V30 15668 H 1469 1.35009 2.94861 0
M  V30 15669 H 1468.78 3.05523 2.45761 0
M  V30 15670 H 1470.27 2.54842 3.30825 0
M  V30 15671 N 1470.71 -0.445159 1.51182 0
M  V30 15672 C 1471.94 -1.21787 1.67259 0
M  V30 15673 C 1472.35 -1.85206 0.366641 0
M  V30 15674 O 1471.71 -1.70376 -0.654095 0
M  V30 15675 C 1471.76 -2.30765 2.78262 0
M  V30 15676 O 1471.48 -1.69942 4.03796 0
M  V30 15677 C 1472.98 -3.21186 3.05539 0
M  V30 15678 H 1470.2 -0.367364 0.561502 0
M  V30 15679 H 1472.75 -0.528415 1.97555 0
M  V30 15680 H 1470.9 -2.9544 2.50587 0
M  V30 15681 H 1471.32 -2.41905 4.65384 0
M  V30 15682 H 1472.79 -3.93805 3.8681 0
M  V30 15683 H 1473.27 -3.81487 2.17634 0
M  V30 15684 H 1473.87 -2.62221 3.34844 0
M  V30 15685 N 1472.19 -1.41197 -0.700089 0
M  V30 15686 C 1473.43 -1.40519 -1.46227 0
M  V30 15687 C 1473.77 -0.0126108 -1.94196 0
M  V30 15688 O 1473.04 0.958837 -1.69223 0
M  V30 15689 C 1473.32 -2.40808 -2.67738 0
M  V30 15690 C 1473.18 -3.89154 -2.25563 0
M  V30 15691 C 1474.5 -2.38415 -3.69927 0
M  V30 15692 H 1471.62 -0.511724 -0.530384 0
M  V30 15693 H 1474.26 -1.72441 -0.797754 0
M  V30 15694 H 1472.41 -2.13717 -3.24434 0
M  V30 15695 H 1474.08 -4.27132 -1.74229 0
M  V30 15696 H 1472.32 -4.04239 -1.57395 0
M  V30 15697 H 1472.99 -4.54866 -3.12731 0
M  V30 15698 H 1475.47 -2.62447 -3.22895 0
M  V30 15699 H 1474.35 -3.10609 -4.52563 0
M  V30 15700 H 1474.61 -1.40116 -4.19309 0
M  V30 15701 N 1473.67 0.933891 -1.2695 0
M  V30 15702 C 1474.91 1.6834 -1.13091 0
M  V30 15703 C 1475.24 1.91484 0.32367 0
M  V30 15704 O 1474.52 1.50075 1.23724 0
M  V30 15705 C 1474.8 3.05374 -1.90838 0
M  V30 15706 C 1474.66 2.8951 -3.44244 0
M  V30 15707 C 1475.97 4.05607 -1.70795 0
M  V30 15708 H 1473.09 0.610944 -0.41221 0
M  V30 15709 H 1475.74 1.08416 -1.56032 0
M  V30 15710 H 1473.89 3.56526 -1.54343 0
M  V30 15711 H 1475.56 2.45523 -3.90533 0
M  V30 15712 H 1473.8 2.24981 -3.70899 0
M  V30 15713 H 1474.47 3.86734 -3.93879 0
M  V30 15714 H 1476.95 3.63443 -2.02604 0
M  V30 15715 H 1475.82 4.9949 -2.27597 0
M  V30 15716 H 1476.08 4.37231 -0.654327 0
M  V30 15717 N 1475.14 1.08871 1.13951 0
M  V30 15718 C 1476.39 0.816198 1.84448 0
M  V30 15719 C 1476.71 -0.660396 1.84114 0
M  V30 15720 O 1477.91 -1.04825 2.50448 0
M  V30 15721 C 1476.37 1.41015 3.31123 0
M  V30 15722 C 1475.98 2.91888 3.39861 0
M  V30 15723 C 1477.72 1.21633 4.06701 0
M  V30 15724 C 1475.63 3.44397 4.80775 0
M  V30 15725 H 1474.56 0.301662 0.691025 0
M  V30 15726 H 1477.21 1.31072 1.28423 0
M  V30 15727 H 1475.59 0.843333 3.86916 0
M  V30 15728 H 1476.76 3.54747 2.94094 0
M  V30 15729 H 1475.08 3.10238 2.77743 0
M  V30 15730 H 1477.68 1.58324 5.10723 0
M  V30 15731 H 1478.02 0.156519 4.16006 0
M  V30 15732 H 1478.55 1.75035 3.57222 0
M  V30 15733 H 1475.29 4.49973 4.7666 0
M  V30 15734 H 1474.81 2.86299 5.27061 0
M  V30 15735 H 1476.49 3.41266 5.49679 0
M  V30 15736 N 1476.62 -1.31073 0.875073 0
M  V30 15737 C 1477.87 -1.9613 0.487584 0
M  V30 15738 C 1478.19 -1.69482 -0.964407 0
M  V30 15739 O 1477.46 -1.013 -1.67676 0
M  V30 15740 H 1476.04 -0.725649 0.177319 0
M  V30 15741 H 1478.7 -1.59787 1.11598 0
M  V30 15742 H 1477.8 -3.05265 0.649574 0
M  V30 15743 N 1478.1 -0.635022 -1.4424 0
M  V30 15744 C 1479.05 0.0797218 -2.32463 0
M  V30 15745 C 1480.04 0.831818 -1.47571 0
M  V30 15746 O 1481.25 0.744277 -1.63892 0
M  V30 15747 H 1477.62 0.0445532 -0.750679 0
M  V30 15748 H 1479.59 -0.682374 -2.90493 0
M  V30 15749 C 1478.34 1.04505 -3.31623 0
M  V30 15750 H 1477.67 0.475755 -3.96959 0
M  V30 15751 H 1479.11 1.51458 -3.96026 0
M  V30 15752 C 1477.57 2.13221 -2.60842 0
M  V30 15753 O 1478.1 3.21357 -2.41025 0
M  V30 15754 N 1476.3 1.89264 -2.20516 0
M  V30 15755 H 1475.85 1.01329 -2.36834 0
M  V30 15756 H 1475.81 2.62203 -1.73484 0
M  V30 15757 N 1479.58 1.53054 -0.375806 0
M  V30 15758 C 1480.51 2.28973 0.45754 0
M  V30 15759 C 1481.49 1.31812 1.07516 0
M  V30 15760 O 1482.67 1.60693 1.09048 0
M  V30 15761 C 1479.8 3.08657 1.59212 0
M  V30 15762 C 1478.76 4.1359 1.10123 0
M  V30 15763 C 1478.08 4.81417 2.32684 0
M  V30 15764 C 1479.38 5.21994 0.17872 0
M  V30 15765 H 1481.08 2.98883 -0.175872 0
M  V30 15766 H 1478.62 1.43743 -0.0860253 0
M  V30 15767 H 1480.58 3.6052 2.18182 0
M  V30 15768 H 1479.3 2.36456 2.25291 0
M  V30 15769 H 1477.96 3.62688 0.534151 0
M  V30 15770 H 1477.61 4.05778 2.97243 0
M  V30 15771 H 1477.31 5.52332 2.00506 0
M  V30 15772 H 1478.83 5.36079 2.92322 0
M  V30 15773 H 1480.25 5.69298 0.676204 0
M  V30 15774 H 1478.64 6.00077 -0.0526605 0
M  V30 15775 H 1479.71 4.78646 -0.776246 0
M  V30 15776 N 1481.06 0.105248 1.57248 0
M  V30 15777 C 1482.3 -0.556878 1.95004 0
M  V30 15778 C 1482.64 -1.672 0.987818 0
M  V30 15779 O 1481.91 -1.94487 0.022616 0
M  V30 15780 C 1482.19 -1.10252 3.42807 0
M  V30 15781 C 1482.05 0.00823908 4.49799 0
M  V30 15782 C 1483.37 -1.99774 3.92146 0
M  V30 15783 H 1480.48 -0.200959 0.709073 0
M  V30 15784 H 1483.13 0.178019 1.89164 0
M  V30 15785 H 1481.28 -1.7288 3.47915 0
M  V30 15786 H 1482.95 0.642944 4.56797 0
M  V30 15787 H 1481.19 0.673265 4.28544 0
M  V30 15788 H 1481.86 -0.414538 5.50441 0
M  V30 15789 H 1484.34 -1.47036 3.89255 0
M  V30 15790 H 1483.21 -2.34874 4.9611 0
M  V30 15791 H 1483.48 -2.91902 3.32033 0
M  V30 15792 N 1482.53 -1.56697 -0.168486 0
M  V30 15793 C 1483.78 -1.82424 -0.885965 0
M  V30 15794 C 1484.11 -0.683543 -1.81773 0
M  V30 15795 O 1483.39 0.314319 -1.91943 0
M  V30 15796 C 1483.67 -3.18553 -1.67917 0
M  V30 15797 C 1483.52 -4.43154 -0.770343 0
M  V30 15798 C 1484.84 -3.51654 -2.64627 0
M  V30 15799 H 1481.96 -0.663594 -0.320644 0
M  V30 15800 H 1484.6 -1.89391 -0.15205 0
M  V30 15801 H 1482.75 -3.12745 -2.30484 0
M  V30 15802 H 1484.43 -4.61032 -0.157328 0
M  V30 15803 H 1482.67 -4.33729 -0.0785653 0
M  V30 15804 H 1483.34 -5.34961 -1.36092 0
M  V30 15805 H 1485.82 -3.57934 -2.12185 0
M  V30 15806 H 1484.69 -4.47975 -3.17191 0
M  V30 15807 H 1484.95 -2.76503 -3.44961 0
M  V30 15808 N 1484.01 0.437135 -1.51416 0
M  V30 15809 C 1484.94 1.538 -1.75692 0
M  V30 15810 C 1485.92 1.5891 -0.606759 0
M  V30 15811 O 1487.11 1.74635 -0.849492 0
M  V30 15812 C 1484.24 2.91877 -1.88215 0
M  V30 15813 C 1483.19 3.01628 -3.03652 0
M  V30 15814 C 1482.52 4.41687 -3.01358 0
M  V30 15815 C 1483.82 2.75691 -4.43612 0
M  V30 15816 H 1485.51 1.33737 -2.67871 0
M  V30 15817 H 1483.06 0.641936 -1.289 0
M  V30 15818 H 1485.01 3.68851 -2.03781 0
M  V30 15819 H 1483.74 3.13173 -0.926847 0
M  V30 15820 H 1482.39 2.27094 -2.87791 0
M  V30 15821 H 1482.04 4.5995 -2.03605 0
M  V30 15822 H 1481.74 4.49141 -3.78875 0
M  V30 15823 H 1483.27 5.20634 -3.19018 0
M  V30 15824 H 1484.68 3.42398 -4.59822 0
M  V30 15825 H 1483.08 2.94554 -5.22836 0
M  V30 15826 H 1484.15 1.71297 -4.53636 0
M  V30 15827 N 1485.49 1.41566 0.692592 0
M  V30 15828 C 1486.44 1.43857 1.82779 0
M  V30 15829 C 1487.43 0.316262 1.66422 0
M  V30 15830 O 1488.64 0.488433 1.73246 0
M  V30 15831 H 1485.01 0.450174 0.602368 0
M  V30 15832 H 1486.98 2.39524 1.77964 0
M  V30 15833 C 1485.73 1.34054 3.20819 0
M  V30 15834 H 1485.06 2.19701 3.34023 0
M  V30 15835 H 1486.5 1.39717 4.00319 0
M  V30 15836 C 1484.96 0.053218 3.36858 0
M  V30 15837 O 1485.49 -0.900928 3.91467 0
M  V30 15838 N 1483.69 -0.0238376 2.9059 0
M  V30 15839 H 1483.24 0.753374 2.46337 0
M  V30 15840 H 1483.2 -0.884571 3.017 0
M  V30 15841 N 1486.97 -0.927146 1.27443 0
M  V30 15842 C 1487.9 -2.04483 1.12735 0
M  V30 15843 C 1488.88 -1.70076 0.0286662 0
M  V30 15844 O 1490.06 -1.93133 0.203252 0
M  V30 15845 C 1487.19 -3.38557 0.774352 0
M  V30 15846 C 1486.15 -3.87078 1.82632 0
M  V30 15847 C 1485.47 -5.17964 1.32729 0
M  V30 15848 C 1486.77 -4.10409 3.23051 0
M  V30 15849 H 1488.47 -2.17046 2.06231 0
M  V30 15850 H 1486.01 -1.04292 0.992937 0
M  V30 15851 H 1487.97 -4.16227 0.658273 0
M  V30 15852 H 1486.69 -3.26009 -0.196321 0
M  V30 15853 H 1485.35 -3.11602 1.93132 0
M  V30 15854 H 1485 -5.01808 0.346059 0
M  V30 15855 H 1484.7 -5.51398 2.03061 0
M  V30 15856 H 1486.22 -5.98203 1.22416 0
M  V30 15857 H 1487.64 -4.78646 3.15549 0
M  V30 15858 H 1486.03 -4.5515 3.91099 0
M  V30 15859 H 1487.1 -3.15685 3.68064 0
M  V30 15860 N 1488.45 -1.09474 -1.13372 0
M  V30 15861 C 1489.69 -0.831091 -1.84659 0
M  V30 15862 C 1490.02 0.643294 -1.83554 0
M  V30 15863 O 1489.28 1.48958 -1.26925 0
M  V30 15864 C 1489.58 -1.31208 -3.32444 0
M  V30 15865 C 1489.24 -2.79617 -3.5373 0
M  V30 15866 C 1487.9 -3.20147 -3.59248 0
M  V30 15867 C 1490.26 -3.75303 -3.61659 0
M  V30 15868 C 1487.58 -4.55135 -3.70228 0
M  V30 15869 C 1489.94 -5.1008 -3.74167 0
M  V30 15870 C 1488.6 -5.50199 -3.77938 0
M  V30 15871 H 1487.87 -0.304118 -0.675717 0
M  V30 15872 H 1490.52 -1.36961 -1.33843 0
M  V30 15873 H 1488.82 -0.693379 -3.85616 0
M  V30 15874 H 1490.52 -1.08469 -3.86051 0
M  V30 15875 H 1487.11 -2.47253 -3.50091 0
M  V30 15876 H 1491.29 -3.45103 -3.56676 0
M  V30 15877 H 1486.55 -4.85656 -3.71414 0
M  V30 15878 H 1490.72 -5.84077 -3.79245 0
M  V30 15879 H 1488.35 -6.54794 -3.86198 0
M  V30 15880 N 1489.92 1.30607 -0.882012 0
M  V30 15881 C 1490.85 2.30666 -0.362706 0
M  V30 15882 C 1491.84 1.60865 0.552861 0
M  V30 15883 O 1493.02 1.88493 0.467339 0
M  V30 15884 C 1490.15 3.44675 0.42622 0
M  V30 15885 C 1489.1 4.26152 -0.397322 0
M  V30 15886 C 1488.43 5.32185 0.518027 0
M  V30 15887 C 1489.73 4.95955 -1.63785 0
M  V30 15888 H 1491.42 2.74351 -1.19883 0
M  V30 15889 H 1488.97 1.31895 -0.577912 0
M  V30 15890 H 1490.92 4.13734 0.80013 0
M  V30 15891 H 1489.65 2.99787 1.29597 0
M  V30 15892 H 1488.31 3.58776 -0.753332 0
M  V30 15893 H 1487.95 4.83545 1.3854 0
M  V30 15894 H 1487.65 5.87593 -0.0291802 0
M  V30 15895 H 1489.18 6.04101 0.888518 0
M  V30 15896 H 1490.59 5.57547 -1.3347 0
M  V30 15897 H 1488.99 5.61215 -2.12504 0
M  V30 15898 H 1490.06 4.22252 -2.38394 0
M  V30 15899 N 1491.4 0.642663 1.43901 0
M  V30 15900 C 1492.37 -0.0457858 2.29154 0
M  V30 15901 C 1493.37 -0.760988 1.41653 0
M  V30 15902 O 1494.56 -0.603832 1.634 0
M  V30 15903 C 1491.69 -1.07552 3.23489 0
M  V30 15904 H 1492.88 0.704193 2.91515 0
M  V30 15905 H 1490.43 0.403361 1.51006 0
M  V30 15906 H 1491.17 -1.85509 2.66002 0
M  V30 15907 H 1490.95 -0.566468 3.87987 0
M  V30 15908 H 1492.44 -1.55663 3.87503 0
M  V30 15909 N 1492.88 -1.52852 0.383918 0
M  V30 15910 C 1493.81 -2.29213 -0.44539 0
M  V30 15911 C 1494.79 -1.3238 -1.06815 0
M  V30 15912 O 1495.98 -1.61269 -1.08194 0
M  V30 15913 C 1493.11 -3.09497 -1.57573 0
M  V30 15914 C 1492.06 -4.14168 -1.07928 0
M  V30 15915 C 1491.39 -4.82644 -2.30128 0
M  V30 15916 C 1492.69 -5.22082 -0.151035 0
M  V30 15917 H 1494.38 -2.98786 0.19172 0
M  V30 15918 H 1491.93 -1.43695 0.0936471 0
M  V30 15919 H 1493.88 -3.61672 -2.16267 0
M  V30 15920 H 1492.6 -2.37647 -2.24034 0
M  V30 15921 H 1491.26 -3.62966 -0.514909 0
M  V30 15922 H 1490.91 -4.07348 -2.95087 0
M  V30 15923 H 1490.61 -5.53388 -1.97574 0
M  V30 15924 H 1492.14 -5.37621 -2.89475 0
M  V30 15925 H 1493.55 -5.69649 -0.646003 0
M  V30 15926 H 1491.95 -6.00041 0.0844833 0
M  V30 15927 H 1493.02 -4.78228 0.801618 0
M  V30 15928 N 1494.36 -0.113586 -1.5719 0
M  V30 15929 C 1495.29 0.835363 -2.18046 0
M  V30 15930 C 1496.27 1.28114 -1.11897 0
M  V30 15931 O 1497.46 1.34472 -1.40111 0
M  V30 15932 C 1494.59 2.08759 -2.77556 0
M  V30 15933 C 1493.54 1.77979 -3.8924 0
M  V30 15934 C 1492.87 3.10185 -4.35533 0
M  V30 15935 C 1494.17 1.05231 -5.11589 0
M  V30 15936 H 1495.86 0.328275 -2.97595 0
M  V30 15937 H 1493.41 0.156456 -1.43148 0
M  V30 15938 H 1495.36 2.75597 -3.18785 0
M  V30 15939 H 1494.08 2.61783 -1.95288 0
M  V30 15940 H 1492.74 1.13532 -3.48577 0
M  V30 15941 H 1492.39 3.61133 -3.50131 0
M  V30 15942 H 1492.09 2.90367 -5.10843 0
M  V30 15943 H 1493.61 3.78151 -4.7941 0
M  V30 15944 H 1495.03 1.62213 -5.49872 0
M  V30 15945 H 1493.42 0.955269 -5.92448 0
M  V30 15946 H 1494.49 0.038137 -4.84885 0
M  V30 15947 N 1495.84 1.56784 0.160173 0
M  V30 15948 C 1496.77 2.00298 1.20012 0
M  V30 15949 C 1497.75 0.880356 1.45546 0
M  V30 15950 O 1498.93 1.14724 1.56691 0
M  V30 15951 C 1496.06 2.37238 2.53645 0
M  V30 15952 C 1495.02 3.52563 2.42658 0
M  V30 15953 C 1494.34 3.75278 3.80881 0
M  V30 15954 C 1495.64 4.85657 1.92183 0
M  V30 15955 H 1497.34 2.87423 0.838362 0
M  V30 15956 H 1494.88 1.3828 0.401838 0
M  V30 15957 H 1496.84 2.66278 3.2661 0
M  V30 15958 H 1495.56 1.47035 2.9163 0
M  V30 15959 H 1494.22 3.23669 1.72146 0
M  V30 15960 H 1493.87 2.82347 4.1628 0
M  V30 15961 H 1493.57 4.52882 3.74396 0
M  V30 15962 H 1495.09 4.0673 4.55415 0
M  V30 15963 H 1496.51 5.13501 2.54931 0
M  V30 15964 H 1494.9 5.66975 1.96619 0
M  V30 15965 H 1495.97 4.76908 0.876742 0
M  V30 15966 N 1497.32 -0.429099 1.51646 0
M  V30 15967 C 1498.54 -1.20465 1.68828 0
M  V30 15968 C 1498.97 -1.84044 0.388514 0
M  V30 15969 O 1498.32 -1.69165 -0.652152 0
M  V30 15970 C 1498.37 -2.25831 2.81128 0
M  V30 15971 O 1497.48 -3.31511 2.45305 0
M  V30 15972 H 1496.82 -0.352568 0.562665 0
M  V30 15973 H 1499.35 -0.505698 1.98252 0
M  V30 15974 H 1499.36 -2.70484 3.05455 0
M  V30 15975 H 1498.03 -1.78934 3.7544 0
M  V30 15976 H 1496.61 -2.92277 2.31579 0
M  V30 15977 N 1498.79 -1.41931 -0.685074 0
M  V30 15978 C 1499.74 -1.44824 -1.82013 0
M  V30 15979 C 1500.74 -0.325083 -1.66252 0
M  V30 15980 O 1501.94 -0.497614 -1.72985 0
M  V30 15981 H 1498.32 -0.453362 -0.599972 0
M  V30 15982 H 1500.29 -2.40464 -1.76691 0
M  V30 15983 C 1499.04 -1.35753 -3.20104 0
M  V30 15984 H 1498.36 -2.21469 -3.32854 0
M  V30 15985 H 1499.8 -1.41838 -3.99572 0
M  V30 15986 C 1498.26 -0.0710816 -3.36825 0
M  V30 15987 O 1498.79 0.880155 -3.91939 0
M  V30 15988 N 1496.99 0.00842652 -2.90599 0
M  V30 15989 H 1496.54 -0.766427 -2.45934 0
M  V30 15990 H 1496.5 0.868559 -3.02165 0
M  V30 15991 N 1500.27 0.920374 -1.27933 0
M  V30 15992 C 1501.52 1.66883 -1.147 0
M  V30 15993 C 1501.85 1.92082 0.305732 0
M  V30 15994 O 1501.1 1.51449 1.23942 0
M  V30 15995 C 1501.4 3.03725 -1.88377 0
M  V30 15996 C 1501.07 2.9821 -3.38203 0
M  V30 15997 C 1499.73 2.96413 -3.79068 0
M  V30 15998 C 1502.08 2.88952 -4.3377 0
M  V30 15999 C 1499.41 2.83151 -5.13851 0
M  V30 16000 C 1501.76 2.77231 -5.68618 0
M  V30 16001 C 1500.42 2.73788 -6.08766 0
M  V30 16002 H 1499.69 0.61067 -0.419718 0
M  V30 16003 H 1502.34 1.0728 -1.58629 0
M  V30 16004 H 1500.65 3.67075 -1.36978 0
M  V30 16005 H 1502.34 3.60527 -1.7556 0
M  V30 16006 H 1498.93 3.004 -3.05709 0
M  V30 16007 H 1503.12 2.89433 -4.03165 0
M  V30 16008 H 1498.37 2.78877 -5.44093 0
M  V30 16009 H 1502.55 2.69034 -6.42335 0
M  V30 16010 H 1500.17 2.63268 -7.13158 0
M  V30 16011 N 1501.75 1.10074 1.1279 0
M  V30 16012 C 1503 0.839212 1.83852 0
M  V30 16013 C 1503.32 -0.637023 1.84301 0
M  V30 16014 O 1502.59 -1.46239 1.30349 0
M  V30 16015 H 1501.17 0.307468 0.680788 0
M  V30 16016 H 1503.83 1.39025 1.36595 0
M  V30 16017 H 1502.93 1.19872 2.88162 0
M  V30 16018 N 1503.23 -1.30138 0.888926 0
M  V30 16019 C 1504.45 -2.00679 0.523697 0
M  V30 16020 C 1504.88 -1.66167 -0.881479 0
M  V30 16021 O 1504.24 -0.880418 -1.58488 0
M  V30 16022 C 1504.28 -3.53535 0.710284 0
M  V30 16023 O 1503.39 -4.11689 -0.242066 0
M  V30 16024 H 1502.73 -0.631273 0.205888 0
M  V30 16025 H 1505.26 -1.65891 1.19756 0
M  V30 16026 H 1505.27 -4.03402 0.610794 0
M  V30 16027 H 1503.94 -3.77992 1.73478 0
M  V30 16028 H 1502.52 -3.72777 -0.0959393 0
M  V30 16029 N 1504.71 -0.650285 -1.43559 0
M  V30 16030 C 1505.93 -0.168483 -2.06715 0
M  V30 16031 C 1506.36 1.15576 -1.48404 0
M  V30 16032 O 1505.71 1.71333 -0.592842 0
M  V30 16033 C 1505.76 -0.0877095 -3.60493 0
M  V30 16034 O 1504.87 0.950915 -4.01287 0
M  V30 16035 H 1504.21 -0.0935281 -0.65738 0
M  V30 16036 H 1506.74 -0.892381 -1.84113 0
M  V30 16037 H 1506.75 0.0965825 -4.07886 0
M  V30 16038 H 1505.42 -1.05442 -4.02312 0
M  V30 16039 H 1504 0.739648 -3.65491 0
M  V30 16040 N 1506.18 1.52647 -0.392018 0
M  V30 16041 C 1507.41 2.06511 0.191815 0
M  V30 16042 C 1507.83 1.26162 1.39516 0
M  V30 16043 O 1507.19 0.287373 1.79008 0
M  V30 16044 C 1507.24 3.56571 0.537512 0
M  V30 16045 O 1506.34 3.78774 1.63106 0
M  V30 16046 H 1505.68 0.663647 0.0216546 0
M  V30 16047 H 1508.21 1.96779 -0.560274 0
M  V30 16048 H 1508.22 4.00059 0.801044 0
M  V30 16049 H 1506.9 4.14489 -0.342239 0
M  V30 16050 H 1505.48 3.47175 1.36103 0
M  V30 16051 N 1507.66 0.121921 1.57128 0
M  V30 16052 C 1508.59 -0.823788 2.18486 0
M  V30 16053 C 1509.57 -1.27519 1.12574 0
M  V30 16054 O 1510.76 -1.33727 1.40822 0
M  V30 16055 C 1507.89 -2.07284 2.78659 0
M  V30 16056 C 1506.84 -1.75912 3.90178 0
M  V30 16057 C 1506.17 -3.07871 4.37172 0
M  V30 16058 C 1507.47 -1.02517 5.1214 0
M  V30 16059 H 1509.16 -0.312488 2.97765 0
M  V30 16060 H 1506.71 -0.148862 1.43228 0
M  V30 16061 H 1508.66 -2.73903 3.20242 0
M  V30 16062 H 1507.39 -2.60743 1.96673 0
M  V30 16063 H 1506.04 -1.11681 3.49174 0
M  V30 16064 H 1505.69 -3.59271 3.52041 0
M  V30 16065 H 1505.39 -2.87653 5.12376 0
M  V30 16066 H 1506.92 -3.75604 4.81409 0
M  V30 16067 H 1508.33 -1.59295 5.50725 0
M  V30 16068 H 1506.73 -0.923836 5.92946 0
M  V30 16069 H 1507.8 -0.0124219 4.84898 0
M  V30 16070 N 1509.14 -1.56867 -0.151857 0
M  V30 16071 C 1510.37 -1.87601 -0.884347 0
M  V30 16072 C 1510.79 -0.710419 -1.74168 0
M  V30 16073 O 1510.15 0.340103 -1.78081 0
M  V30 16074 C 1510.2 -3.16887 -1.72091 0
M  V30 16075 O 1509.3 -3.00479 -2.82464 0
M  V30 16076 H 1508.64 -0.616509 -0.246603 0
M  V30 16077 H 1511.17 -2.04092 -0.144135 0
M  V30 16078 H 1511.18 -3.48785 -2.11691 0
M  V30 16079 H 1509.86 -4.01327 -1.09131 0
M  V30 16080 H 1508.43 -2.79978 -2.46306 0
M  V30 16081 N 1510.62 0.421051 -1.51871 0
M  V30 16082 C 1511.58 1.49478 -1.73749 0
M  V30 16083 C 1512.58 1.48887 -0.607395 0
M  V30 16084 O 1513.77 1.50622 -0.875143 0
M  V30 16085 C 1510.9 2.88947 -1.80893 0
M  V30 16086 H 1512.1 1.31377 -2.69593 0
M  V30 16087 H 1509.65 0.650786 -1.42107 0
M  V30 16088 H 1510.38 3.12434 -0.86922 0
M  V30 16089 H 1510.17 2.90781 -2.63038 0
M  V30 16090 H 1511.66 3.66809 -1.99602 0
M  V30 16091 N 1512.1 1.42293 0.677538 0
M  V30 16092 C 1513.51 1.37948 1.25806 0
M  V30 16093 C 1513.86 0.071408 1.9607 0
M  V30 16094 O 1512.98 -0.829921 1.99853 0
M  V30 16095 C 1513.58 2.49875 2.28797 0
M  V30 16096 C 1512.14 2.48872 2.82382 0
M  V30 16097 C 1511.28 2.28804 1.56665 0
M  V30 16098 H 1514.24 1.51546 0.471102 0
M  V30 16099 H 1514.26 2.19969 3.10474 0
M  V30 16100 H 1513.77 3.45065 1.77629 0
M  V30 16101 H 1511.87 1.57492 3.37679 0
M  V30 16102 H 1511.98 3.45816 3.31585 0
M  V30 16103 H 1510.35 1.77014 1.83135 0
M  V30 16104 H 1511.13 3.26046 1.07467 0
M  V30 16105 N 1513.57 -0.913576 1.28419 0
M  V30 16106 C 1514.8 -1.69649 1.18435 0
M  V30 16107 C 1515.22 -1.87043 -0.256987 0
M  V30 16108 O 1514.57 -1.39755 -1.17366 0
M  V30 16109 C 1514.63 -3.08855 1.87859 0
M  V30 16110 O 1514.35 -2.92265 3.26363 0
M  V30 16111 C 1515.85 -4.03229 1.84178 0
M  V30 16112 H 1513.07 -0.530307 0.411115 0
M  V30 16113 H 1515.61 -1.14342 1.69547 0
M  V30 16114 H 1513.77 -3.60979 1.40617 0
M  V30 16115 H 1514.18 -3.80372 3.61134 0
M  V30 16116 H 1515.65 -4.98369 2.37344 0
M  V30 16117 H 1516.13 -4.31587 0.814195 0
M  V30 16118 H 1516.74 -3.57033 2.311 0
M  V30 16119 N 1515.05 -1.1067 -1.12204 0
M  V30 16120 C 1516.02 -0.761145 -2.16193 0
M  V30 16121 C 1517.02 0.215599 -1.59348 0
M  V30 16122 O 1518.21 -0.00786723 -1.74198 0
M  V30 16123 C 1515.34 -0.127863 -3.4066 0
M  V30 16124 H 1516.53 -1.68225 -2.48275 0
M  V30 16125 H 1514.08 -0.907542 -1.27253 0
M  V30 16126 H 1514.82 0.803851 -3.14179 0
M  V30 16127 H 1514.6 -0.83085 -3.83196 0
M  V30 16128 H 1516.09 0.0980593 -4.17485 0
M  V30 16129 N 1516.53 1.29665 -0.895815 0
M  V30 16130 C 1517.81 1.90601 -0.439394 0
M  V30 16131 C 1518.19 1.81341 1.08068 0
M  V30 16132 O 1517.54 1.23761 1.92082 0
M  V30 16133 C 1517.75 3.35832 -0.949622 0
M  V30 16134 C 1519.09 4.12873 -0.991015 0
M  V30 16135 O 1520.12 3.4472 -0.897025 0
M  V30 16136 O 1518.98 5.34656 -1.1316 0
M  V30 16137 H 1516.07 0.81569 -0.136304 0
M  V30 16138 H 1518.62 1.38157 -0.985426 0
M  V30 16139 H 1517.39 3.36708 -1.99357 0
M  V30 16140 H 1517.01 3.95747 -0.383376 0
M  V30 16141 N 1518.01 0.657889 1.43212 0
M  V30 16142 C 1518.96 -0.0427288 2.32561 0
M  V30 16143 C 1519.95 -0.808236 1.48875 0
M  V30 16144 O 1521.16 -0.718109 1.65055 0
M  V30 16145 H 1517.53 -0.0326049 0.751293 0
M  V30 16146 H 1519.5 0.728503 2.89371 0
M  V30 16147 C 1518.25 -0.99216 3.33244 0
M  V30 16148 H 1517.57 -0.412542 3.97666 0
M  V30 16149 H 1519.01 -1.45138 3.98385 0
M  V30 16150 C 1517.47 -2.09044 2.64201 0
M  V30 16151 O 1518 -3.17481 2.46107 0
M  V30 16152 N 1516.21 -1.85732 2.23499 0
M  V30 16153 H 1515.76 -0.975483 2.38416 0
M  V30 16154 H 1515.71 -2.5941 1.77634 0
M  V30 16155 N 1519.49 -1.52437 0.400108 0
M  V30 16156 C 1520.76 -1.94162 -0.23671 0
M  V30 16157 C 1521.14 -1.33636 -1.63416 0
M  V30 16158 O 1520.49 -0.508643 -2.22767 0
M  V30 16159 C 1520.7 -3.48088 -0.252159 0
M  V30 16160 C 1522.05 -4.21925 -0.475887 0
M  V30 16161 O 1523.07 -3.5465 -0.331905 0
M  V30 16162 O 1521.93 -5.41205 -0.758895 0
M  V30 16163 H 1519.03 -0.813294 -0.14994 0
M  V30 16164 H 1521.57 -1.63475 0.455399 0
M  V30 16165 H 1520.34 -3.84501 0.726263 0
M  V30 16166 H 1519.97 -3.8511 -0.988742 0
M  V30 16167 N 1520.96 -0.130252 -1.57061 0
M  V30 16168 C 1522.19 0.532416 -1.99932 0
M  V30 16169 C 1522.61 1.59505 -1.01013 0
M  V30 16170 O 1521.96 1.82499 -0.00463158 0
M  V30 16171 C 1522.02 1.14833 -3.42776 0
M  V30 16172 O 1521.74 0.128163 -4.37912 0
M  V30 16173 C 1523.24 1.89324 -4.00838 0
M  V30 16174 H 1520.46 0.140046 -0.656223 0
M  V30 16175 H 1523 -0.219905 -2.03314 0
M  V30 16176 H 1521.16 1.85137 -3.40298 0
M  V30 16177 H 1521.57 0.577135 -5.21315 0
M  V30 16178 H 1523.04 2.27731 -5.02835 0
M  V30 16179 H 1523.52 2.77277 -3.40608 0
M  V30 16180 H 1524.13 1.23757 -4.06896 0
M  V30 16181 N 1522.44 1.56945 0.143535 0
M  V30 16182 C 1523.39 1.99479 1.19628 0
M  V30 16183 C 1524.39 0.887733 1.44276 0
M  V30 16184 O 1525.59 1.07292 1.44528 0
M  V30 16185 H 1521.97 0.635049 0.402761 0
M  V30 16186 H 1523.94 2.87171 0.810877 0
M  V30 16187 C 1522.69 2.39436 2.52123 0
M  V30 16188 H 1522.01 3.24176 2.33987 0
M  V30 16189 H 1523.45 2.73017 3.24404 0
M  V30 16190 C 1521.91 1.24836 3.12918 0
M  V30 16191 O 1522.44 0.550973 3.97903 0
M  V30 16192 N 1520.64 1.01172 2.7242 0
M  V30 16193 H 1520.19 1.5806 2.03408 0
M  V30 16194 H 1520.15 0.246846 3.13429 0
M  V30 16195 N 1523.92 -0.412991 1.52093 0
M  V30 16196 C 1524.87 -1.50294 1.75158 0
M  V30 16197 C 1525.84 -1.55119 0.593902 0
M  V30 16198 O 1527.02 -1.71751 0.831032 0
M  V30 16199 C 1524.16 -2.87781 1.90463 0
M  V30 16200 C 1523.28 -2.92295 3.181 0
M  V30 16201 C 1522.41 -4.21056 3.23859 0
M  V30 16202 C 1521.45 -4.1953 4.45714 0
M  V30 16203 N 1520.59 -5.39857 4.48886 0
M  V30 16204 H 1525.43 -1.29927 2.68185 0
M  V30 16205 H 1522.96 -0.630741 1.32891 0
M  V30 16206 H 1524.92 -3.67588 1.9732 0
M  V30 16207 H 1523.55 -3.06651 1.00822 0
M  V30 16208 H 1522.6 -2.05002 3.20434 0
M  V30 16209 H 1523.92 -2.87031 4.0794 0
M  V30 16210 H 1523.07 -5.09253 3.29767 0
M  V30 16211 H 1521.81 -4.2901 2.31952 0
M  V30 16212 H 1520.81 -3.29724 4.39957 0
M  V30 16213 H 1522.04 -4.1322 5.38912 0
M  V30 16214 H 1519.99 -5.48486 3.59861 0
M  V30 16215 H 1519.9 -5.36572 5.32566 0
M  V30 16216 H 1521.17 -6.30018 4.59018 0
M  V30 16217 N 1525.4 -1.4265 -0.669982 0
M  V30 16218 C 1526.65 -1.42667 -1.42579 0
M  V30 16219 C 1526.96 -0.0483217 -1.9554 0
M  V30 16220 O 1528.17 0.0740917 -2.71399 0
M  V30 16221 C 1526.62 -2.5098 -2.57948 0
M  V30 16222 C 1526.23 -3.94844 -2.11666 0
M  V30 16223 C 1527.98 -2.6017 -3.35428 0
M  V30 16224 C 1525.88 -4.94655 -3.24146 0
M  V30 16225 H 1524.81 -0.530651 -0.535654 0
M  V30 16226 H 1527.46 -1.68576 -0.724861 0
M  V30 16227 H 1525.85 -2.18244 -3.30432 0
M  V30 16228 H 1527.02 -4.36958 -1.46303 0
M  V30 16229 H 1525.33 -3.89547 -1.47111 0
M  V30 16230 H 1527.93 -3.31918 -4.19207 0
M  V30 16231 H 1528.27 -1.64683 -3.82342 0
M  V30 16232 H 1528.81 -2.92124 -2.70016 0
M  V30 16233 H 1525.55 -5.91636 -2.82218 0
M  V30 16234 H 1525.07 -4.57168 -3.88275 0
M  V30 16235 H 1526.75 -5.16593 -3.89538 0
M  V30 16236 N 1526.88 0.906753 -1.28902 0
M  V30 16237 C 1527.84 1.99158 -1.1344 0
M  V30 16238 C 1528.84 1.60639 -0.0719551 0
M  V30 16239 O 1530.03 1.71267 -0.318317 0
M  V30 16240 C 1527.16 3.32923 -0.733172 0
M  V30 16241 H 1528.36 2.14305 -2.09794 0
M  V30 16242 H 1525.91 1.09034 -1.11988 0
M  V30 16243 H 1526.64 3.23477 0.230826 0
M  V30 16244 H 1526.43 3.62244 -1.50073 0
M  V30 16245 H 1527.92 4.12544 -0.64784 0
M  V30 16246 N 1528.36 1.11264 1.11616 0
M  V30 16247 C 1529.27 0.781961 2.21184 0
M  V30 16248 C 1530.28 -0.224149 1.7255 0
M  V30 16249 O 1531.46 -0.0607743 2.01308 0
M  V30 16250 C 1528.52 0.228031 3.45949 0
M  V30 16251 C 1527.58 1.29251 4.09381 0
M  V30 16252 C 1526.82 0.764921 5.2819 0
M  V30 16253 O 1527.04 -0.405671 5.68956 0
M  V30 16254 O 1525.97 1.52886 5.82159 0
M  V30 16255 H 1529.8 1.69678 2.51879 0
M  V30 16256 H 1527.38 0.888394 1.20116 0
M  V30 16257 H 1529.27 -0.0766085 4.2133 0
M  V30 16258 H 1527.94 -0.659519 3.1691 0
M  V30 16259 H 1526.85 1.65014 3.3574 0
M  V30 16260 H 1528.18 2.15339 4.42595 0
M  V30 16261 N 1529.83 -1.29188 0.902679 0
M  V30 16262 C 1530.8 -2.25901 0.387485 0
M  V30 16263 C 1531.8 -1.53469 -0.479993 0
M  V30 16264 O 1532.99 -1.71859 -0.284623 0
M  V30 16265 C 1530.12 -3.37974 -0.445723 0
M  V30 16266 H 1531.31 -2.72988 1.24167 0
M  V30 16267 H 1528.86 -1.4068 0.681083 0
M  V30 16268 H 1529.6 -2.9623 -1.31977 0
M  V30 16269 H 1529.38 -3.91705 0.175899 0
M  V30 16270 H 1530.87 -4.09917 -0.797384 0
M  V30 16271 N 1531.31 -0.665475 -1.42861 0
M  V30 16272 C 1532.56 -0.183884 -2.01663 0
M  V30 16273 C 1532.89 1.2064 -1.52566 0
M  V30 16274 O 1532.14 1.82191 -0.714479 0
M  V30 16275 C 1532.44 -0.156963 -3.57055 0
M  V30 16276 C 1532.11 -1.49065 -4.25547 0
M  V30 16277 C 1530.77 -1.85584 -4.43973 0
M  V30 16278 C 1533.12 -2.36942 -4.64228 0
M  V30 16279 C 1530.45 -3.09622 -4.98348 0
M  V30 16280 C 1532.8 -3.60284 -5.19979 0
M  V30 16281 C 1531.46 -3.96984 -5.36619 0
M  V30 16282 H 1530.73 -0.0672879 -0.737939 0
M  V30 16283 H 1533.38 -0.858614 -1.71173 0
M  V30 16284 H 1531.69 0.601253 -3.87159 0
M  V30 16285 H 1533.38 0.232721 -4.00324 0
M  V30 16286 H 1529.97 -1.19653 -4.11559 0
M  V30 16287 H 1534.16 -2.10015 -4.49675 0
M  V30 16288 H 1529.41 -3.3809 -5.09417 0
M  V30 16289 H 1533.59 -4.28586 -5.48896 0
M  V30 16290 H 1531.21 -4.93175 -5.78518 0
M  V30 16291 N 1532.79 1.52222 -0.408187 0
M  V30 16292 C 1533.74 2.28544 0.432458 0
M  V30 16293 C 1534.73 1.33198 1.04665 0
M  V30 16294 O 1535.94 1.50661 0.984954 0
M  V30 16295 H 1532.31 0.735162 0.158241 0
M  V30 16296 H 1534.28 2.97493 -0.232482 0
M  V30 16297 C 1533.03 3.11864 1.53741 0
M  V30 16298 H 1532.36 3.851 1.07414 0
M  V30 16299 H 1533.8 3.68374 2.09945 0
M  V30 16300 C 1532.25 2.25367 2.50423 0
M  V30 16301 O 1532.78 1.89329 3.54285 0
M  V30 16302 N 1530.99 1.89155 2.2061 0
M  V30 16303 H 1530.54 2.18661 1.36181 0
M  V30 16304 H 1530.5 1.31574 2.85544 0
M  V30 16305 N 1534.27 0.138579 1.5699 0
M  V30 16306 C 1535.68 -0.217898 1.58106 0
M  V30 16307 C 1535.88 -1.65293 1.15241 0
M  V30 16308 O 1534.94 -2.37805 0.848815 0
M  V30 16309 C 1536.25 0.033211 3.00682 0
M  V30 16310 C 1537.8 -0.0311593 3.12984 0
M  V30 16311 C 1538.28 0.192508 4.57595 0
M  V30 16312 N 1539.77 0.139147 4.62991 0
M  V30 16313 C 1540.5 0.286837 5.72682 0
M  V30 16314 N 1540 0.491784 6.91052 0
M  V30 16315 N 1541.79 0.225032 5.61649 0
M  V30 16316 H 1533.94 1.07567 1.83148 0
M  V30 16317 H 1536.2 0.425143 0.847324 0
M  V30 16318 H 1535.91 1.02605 3.364 0
M  V30 16319 H 1535.78 -0.689972 3.70836 0
M  V30 16320 H 1538.17 -1.01454 2.77112 0
M  V30 16321 H 1538.25 0.724219 2.45334 0
M  V30 16322 H 1537.9 1.17295 4.9417 0
M  V30 16323 H 1537.83 -0.583092 5.23362 0
M  V30 16324 H 1540.32 -0.0149467 3.77897 0
M  V30 16325 H 1540.63 0.594813 7.70508 0
M  V30 16326 H 1538.98 0.528002 6.92991 0
M  V30 16327 H 1542.17 0.0657415 4.68054 0
M  V30 16328 H 1542.34 0.343569 6.47089 0
M  V30 16329 N 1535.75 -1.57019 -0.13521 0
M  V30 16330 C 1536.99 -1.83178 -0.844308 0
M  V30 16331 C 1537.31 -0.7217 -1.81799 0
M  V30 16332 O 1538.51 -0.869232 -2.57209 0
M  V30 16333 C 1536.97 -3.2471 -1.55214 0
M  V30 16334 C 1536.58 -4.43685 -0.620268 0
M  V30 16335 C 1538.32 -3.60133 -2.24732 0
M  V30 16336 C 1536.23 -5.76242 -1.3304 0
M  V30 16337 H 1535.16 -0.683175 -0.319041 0
M  V30 16338 H 1537.81 -1.83243 -0.0970242 0
M  V30 16339 H 1536.19 -3.19067 -2.34547 0
M  V30 16340 H 1537.37 -4.60591 0.138685 0
M  V30 16341 H 1535.68 -4.16387 -0.0328906 0
M  V30 16342 H 1538.28 -4.56431 -2.78522 0
M  V30 16343 H 1538.62 -2.86767 -3.01779 0
M  V30 16344 H 1539.15 -3.67489 -1.52305 0
M  V30 16345 H 1535.89 -6.52734 -0.60155 0
M  V30 16346 H 1535.41 -5.63251 -2.06176 0
M  V30 16347 H 1537.09 -6.19445 -1.86808 0
M  V30 16348 N 1537.22 0.404919 -1.52309 0
M  V30 16349 C 1538.45 1.17764 -1.70723 0
M  V30 16350 C 1538.87 1.83403 -0.417744 0
M  V30 16351 O 1538.23 1.70181 0.625157 0
M  V30 16352 C 1538.28 2.2133 -2.84685 0
M  V30 16353 O 1537.38 3.27566 -2.50548 0
M  V30 16354 H 1536.73 0.343572 -0.568203 0
M  V30 16355 H 1539.26 0.474093 -1.99031 0
M  V30 16356 H 1539.27 2.6559 -3.09719 0
M  V30 16357 H 1537.94 1.72939 -3.78239 0
M  V30 16358 H 1536.52 2.88556 -2.36199 0
M  V30 16359 N 1538.7 1.43003 0.662408 0
M  V30 16360 C 1540.12 1.26201 0.977003 0
M  V30 16361 C 1540.32 0.175104 2.00738 0
M  V30 16362 O 1539.37 -0.44954 2.48466 0
M  V30 16363 C 1540.69 2.62319 1.47001 0
M  V30 16364 C 1542.24 2.69776 1.58714 0
M  V30 16365 C 1542.71 4.06289 2.11408 0
M  V30 16366 N 1544.2 4.08307 2.18724 0
M  V30 16367 C 1544.94 5.10761 2.60598 0
M  V30 16368 N 1544.43 6.23593 3.01834 0
M  V30 16369 N 1546.23 4.98115 2.60456 0
M  V30 16370 H 1538.38 2.12391 -0.0195698 0
M  V30 16371 H 1540.64 0.946472 0.0538044 0
M  V30 16372 H 1540.35 3.42773 0.78736 0
M  V30 16373 H 1540.22 2.87088 2.44664 0
M  V30 16374 H 1542.61 1.89659 2.26083 0
M  V30 16375 H 1542.69 2.48782 0.595081 0
M  V30 16376 H 1542.33 4.86868 1.44644 0
M  V30 16377 H 1542.26 4.24641 3.11428 0
M  V30 16378 H 1544.75 3.26857 1.89665 0
M  V30 16379 H 1545.07 6.97609 3.32509 0
M  V30 16380 H 1543.41 6.27079 2.99661 0
M  V30 16381 H 1546.6 4.09037 2.27611 0
M  V30 16382 H 1546.77 5.78092 2.92769 0
M  V30 16383 N 1540.18 -0.899904 1.29381 0
M  V30 16384 C 1541.43 -1.65038 1.17341 0
M  V30 16385 C 1541.76 -1.92544 -0.275135 0
M  V30 16386 O 1541.01 -1.53402 -1.21517 0
M  V30 16387 C 1541.31 -3.0069 1.93185 0
M  V30 16388 C 1540.98 -2.92792 3.42905 0
M  V30 16389 C 1539.64 -2.90345 3.83736 0
M  V30 16390 C 1541.99 -2.82015 4.38312 0
M  V30 16391 C 1539.32 -2.7494 5.1829 0
M  V30 16392 C 1541.67 -2.68149 5.72956 0
M  V30 16393 C 1540.33 -2.64068 6.13045 0
M  V30 16394 H 1539.6 -0.603915 0.42938 0
M  V30 16395 H 1542.25 -1.04743 1.60316 0
M  V30 16396 H 1540.56 -3.6485 1.428 0
M  V30 16397 H 1542.25 -3.57688 1.81274 0
M  V30 16398 H 1538.84 -2.95498 3.10449 0
M  V30 16399 H 1543.03 -2.82982 4.07719 0
M  V30 16400 H 1538.28 -2.70186 5.48461 0
M  V30 16401 H 1542.46 -2.58781 6.46533 0
M  V30 16402 H 1540.08 -2.51889 7.17256 0
M  V30 16403 N 1541.66 -1.11854 -1.11024 0
M  V30 16404 C 1542.61 -0.77596 -2.19275 0
M  V30 16405 C 1543.6 0.234503 -1.67769 0
M  V30 16406 O 1544.81 0.0933372 -1.79758 0
M  V30 16407 H 1541.18 -0.23307 -0.71497 0
M  V30 16408 H 1543.15 -1.69749 -2.45414 0
M  V30 16409 C 1541.9 -0.240148 -3.4687 0
M  V30 16410 H 1541.22 -1.00895 -3.86859 0
M  V30 16411 H 1542.66 -0.0386799 -4.23982 0
M  V30 16412 C 1541.12 1.03056 -3.20751 0
M  V30 16413 O 1541.65 2.10948 -3.41854 0
M  V30 16414 N 1539.86 0.955066 -2.74457 0
M  V30 16415 H 1539.41 0.0769523 -2.57485 0
M  V30 16416 H 1539.36 1.80593 -2.57359 0
M  V30 16417 N 1543.14 1.28707 -0.909517 0
M  V30 16418 C 1544.1 2.25692 -0.39946 0
M  V30 16419 C 1545.1 1.53721 0.471848 0
M  V30 16420 O 1546.29 1.72008 0.275504 0
M  V30 16421 C 1543.42 3.38205 0.427793 0
M  V30 16422 H 1544.61 2.72326 -1.25613 0
M  V30 16423 H 1542.17 1.40317 -0.688535 0
M  V30 16424 H 1542.9 2.96926 1.30404 0
M  V30 16425 H 1542.69 3.91606 -0.19667 0
M  V30 16426 H 1544.18 4.10334 0.775634 0
M  V30 16427 N 1544.61 0.673042 1.42506 0
M  V30 16428 C 1545.86 0.203538 2.02379 0
M  V30 16429 C 1546.22 -1.17624 1.52258 0
M  V30 16430 O 1545.51 -1.77787 0.714297 0
M  V30 16431 C 1545.7 0.175896 3.56967 0
M  V30 16432 C 1545.53 1.55145 4.2209 0
M  V30 16433 C 1544.3 2.14878 4.57335 0
M  V30 16434 C 1546.5 2.49378 4.49794 0
M  V30 16435 N 1544.48 3.45232 5.0763 0
M  V30 16436 C 1545.85 3.64385 5.01621 0
M  V30 16437 C 1547.91 2.4793 4.31781 0
M  V30 16438 C 1546.61 4.78196 5.37328 0
M  V30 16439 C 1548.64 3.60836 4.68563 0
M  V30 16440 C 1548 4.74571 5.2054 0
M  V30 16441 H 1544.1 0.119362 0.772837 0
M  V30 16442 H 1546.68 0.885648 1.73391 0
M  V30 16443 H 1544.85 -0.475621 3.85477 0
M  V30 16444 H 1546.58 -0.306326 4.03539 0
M  V30 16445 H 1543.34 1.67385 4.43034 0
M  V30 16446 H 1543.76 4.1199 5.37209 0
M  V30 16447 H 1548.41 1.61227 3.90853 0
M  V30 16448 H 1546.12 5.65576 5.77191 0
M  V30 16449 H 1549.71 3.60941 4.56304 0
M  V30 16450 H 1548.59 5.6049 5.48471 0
M  V30 16451 N 1546.09 -1.52004 0.416254 0
M  V30 16452 C 1547.34 -2.02188 -0.157434 0
M  V30 16453 C 1547.67 -1.30097 -1.44182 0
M  V30 16454 O 1546.95 -0.409426 -1.90142 0
M  V30 16455 C 1547.23 -3.57896 -0.397847 0
M  V30 16456 C 1547.08 -4.40628 0.903715 0
M  V30 16457 C 1548.4 -4.24072 -1.17689 0
M  V30 16458 H 1545.52 -0.734889 -0.0557437 0
M  V30 16459 H 1548.16 -1.81831 0.551118 0
M  V30 16460 H 1546.31 -3.75372 -1.00142 0
M  V30 16461 H 1547.98 -4.34848 1.53964 0
M  V30 16462 H 1546.23 -4.06556 1.5131 0
M  V30 16463 H 1546.9 -5.47673 0.689802 0
M  V30 16464 H 1549.37 -4.10738 -0.665832 0
M  V30 16465 H 1548.25 -5.32944 -1.31386 0
M  V30 16466 H 1548.51 -3.83507 -2.19942 0
M  V30 16467 N 1547.57 -0.146903 -1.56914 0
M  V30 16468 C 1548.52 0.792821 -2.16756 0
M  V30 16469 C 1549.49 1.2442 -1.1004 0
M  V30 16470 O 1550.67 1.31674 -1.38081 0
M  V30 16471 C 1547.81 2.02659 -2.79327 0
M  V30 16472 C 1546.93 1.62102 -4.00433 0
M  V30 16473 C 1546.06 2.80658 -4.51004 0
M  V30 16474 C 1545.1 2.36474 -5.64576 0
M  V30 16475 N 1544.24 3.48038 -6.09766 0
M  V30 16476 H 1549.08 0.275708 -2.96722 0
M  V30 16477 H 1546.61 0.124374 -1.46573 0
M  V30 16478 H 1548.57 2.74986 -3.13749 0
M  V30 16479 H 1547.2 2.51781 -2.02005 0
M  V30 16480 H 1546.25 0.795407 -3.71991 0
M  V30 16481 H 1547.57 1.25652 -4.82714 0
M  V30 16482 H 1546.72 3.61175 -4.87481 0
M  V30 16483 H 1545.46 3.20353 -3.6773 0
M  V30 16484 H 1544.46 1.54397 -5.27676 0
M  V30 16485 H 1545.69 1.97865 -6.49635 0
M  V30 16486 H 1543.63 3.87354 -5.29427 0
M  V30 16487 H 1543.55 3.15602 -6.86972 0
M  V30 16488 H 1544.82 4.28912 -6.50887 0
M  V30 16489 N 1549.05 1.57088 0.126881 0
M  V30 16490 C 1550.46 1.52205 0.480175 0
M  V30 16491 C 1550.66 0.858634 1.8229 0
M  V30 16492 O 1549.72 0.437636 2.48679 0
M  V30 16493 C 1551.03 2.96974 0.471931 0
M  V30 16494 C 1552.58 3.08021 0.556037 0
M  V30 16495 C 1553.06 4.54335 0.57826 0
M  V30 16496 N 1554.55 4.58758 0.639922 0
M  V30 16497 C 1555.28 5.69372 0.678434 0
M  V30 16498 N 1554.78 6.89503 0.67507 0
M  V30 16499 N 1556.57 5.57459 0.720845 0
M  V30 16500 H 1548.72 1.98604 -0.753008 0
M  V30 16501 H 1550.99 0.90666 -0.276895 0
M  V30 16502 H 1550.69 3.48849 -0.44687 0
M  V30 16503 H 1550.57 3.53994 1.3026 0
M  V30 16504 H 1552.95 2.56153 1.46526 0
M  V30 16505 H 1553.03 2.54009 -0.302171 0
M  V30 16506 H 1552.68 5.06847 -0.326884 0
M  V30 16507 H 1552.61 5.06151 1.45324 0
M  V30 16508 H 1555.1 3.72285 0.649005 0
M  V30 16509 H 1555.41 7.6956 0.706862 0
M  V30 16510 H 1553.76 6.92023 0.64262 0
M  V30 16511 H 1556.95 4.62517 0.720783 0
M  V30 16512 H 1557.12 6.43675 0.747392 0
M  V30 16513 N 1550.53 -0.396836 1.52522 0
M  V30 16514 C 1551.75 -1.16857 1.71345 0
M  V30 16515 C 1552.18 -1.83178 0.427465 0
M  V30 16516 O 1551.53 -1.7051 -0.616123 0
M  V30 16517 C 1551.58 -2.19817 2.85855 0
M  V30 16518 O 1550.69 -3.26233 2.52281 0
M  V30 16519 H 1550.03 -0.340554 0.570017 0
M  V30 16520 H 1552.56 -0.463532 1.9928 0
M  V30 16521 H 1552.57 -2.63944 3.11123 0
M  V30 16522 H 1551.24 -1.70931 3.79151 0
M  V30 16523 H 1549.82 -2.87299 2.37726 0
M  V30 16524 N 1552.01 -1.43353 -0.654814 0
M  V30 16525 C 1553.25 -1.44172 -1.41058 0
M  V30 16526 C 1553.57 -0.0690586 -1.95478 0
M  V30 16527 O 1554.77 0.0453021 -2.71462 0
M  V30 16528 C 1553.23 -2.53701 -2.55272 0
M  V30 16529 C 1552.84 -3.97066 -2.07466 0
M  V30 16530 C 1554.58 -2.63713 -3.3265 0
M  V30 16531 C 1552.49 -4.98065 -3.18881 0
M  V30 16532 H 1551.42 -0.536303 -0.529995 0
M  V30 16533 H 1554.07 -1.69336 -0.706941 0
M  V30 16534 H 1552.45 -2.21736 -3.28099 0
M  V30 16535 H 1553.63 -4.38485 -1.4166 0
M  V30 16536 H 1551.94 -3.91086 -1.42972 0
M  V30 16537 H 1554.54 -3.36346 -4.15663 0
M  V30 16538 H 1554.88 -1.68729 -3.80574 0
M  V30 16539 H 1555.41 -2.94971 -2.66902 0
M  V30 16540 H 1552.15 -5.94596 -2.75927 0
M  V30 16541 H 1551.67 -4.61261 -3.83404 0
M  V30 16542 H 1553.35 -5.20696 -3.84037 0
M  V30 16543 N 1553.48 0.89303 -1.29857 0
M  V30 16544 C 1554.41 2.01422 -1.18117 0
M  V30 16545 C 1555.39 1.6994 -0.0737487 0
M  V30 16546 O 1556.58 1.92527 -0.254387 0
M  V30 16547 C 1553.71 3.36385 -0.863842 0
M  V30 16548 C 1552.66 3.821 -1.92831 0
M  V30 16549 C 1551.99 5.14263 -1.46415 0
M  V30 16550 C 1553.29 4.01699 -3.33819 0
M  V30 16551 H 1554.98 2.11502 -2.11913 0
M  V30 16552 H 1552.53 1.01622 -1.02024 0
M  V30 16553 H 1554.48 4.14335 -0.768397 0
M  V30 16554 H 1553.21 3.26415 0.109816 0
M  V30 16555 H 1551.87 3.06372 -2.01325 0
M  V30 16556 H 1551.51 5.00714 -0.478983 0
M  V30 16557 H 1551.21 5.45821 -2.17609 0
M  V30 16558 H 1552.74 5.94747 -1.38234 0
M  V30 16559 H 1554.15 4.70111 -3.28129 0
M  V30 16560 H 1552.55 4.44621 -4.03029 0
M  V30 16561 H 1553.62 3.05816 -3.76304 0
M  V30 16562 N 1554.96 1.12442 1.10429 0
M  V30 16563 C 1555.91 0.787578 2.18861 0
M  V30 16564 C 1556.9 -0.225602 1.67891 0
M  V30 16565 O 1558.11 -0.0838029 1.79805 0
M  V30 16566 H 1554.48 0.236858 0.713724 0
M  V30 16567 H 1556.46 1.71048 2.4451 0
M  V30 16568 C 1555.2 0.25854 3.46737 0
M  V30 16569 H 1554.53 1.02945 3.86319 0
M  V30 16570 H 1555.97 0.0611642 4.23956 0
M  V30 16571 C 1554.43 -1.01353 3.21293 0
M  V30 16572 O 1554.96 -2.09132 3.42967 0
M  V30 16573 N 1553.16 -0.940498 2.7496 0
M  V30 16574 H 1552.71 -0.0632962 2.57522 0
M  V30 16575 H 1552.67 -1.79226 2.58313 0
M  V30 16576 N 1556.44 -1.28223 0.91633 0
M  V30 16577 C 1557.69 -1.94865 0.550823 0
M  V30 16578 C 1558.01 -1.72113 -0.905945 0
M  V30 16579 O 1557.27 -1.03668 -1.65987 0
M  V30 16580 C 1557.57 -3.48112 0.809509 0
M  V30 16581 C 1557.23 -3.90967 2.24623 0
M  V30 16582 C 1555.9 -4.02379 2.63903 0
M  V30 16583 C 1558.25 -4.12865 3.18106 0
M  V30 16584 C 1555.58 -4.33069 3.95814 0
M  V30 16585 C 1557.93 -4.45036 4.49584 0
M  V30 16586 C 1556.59 -4.54659 4.88714 0
M  V30 16587 H 1555.86 -0.71306 0.20156 0
M  V30 16588 H 1558.51 -1.5251 1.15814 0
M  V30 16589 H 1556.81 -3.91618 0.119411 0
M  V30 16590 H 1558.51 -3.97797 0.505843 0
M  V30 16591 H 1555.1 -3.82614 1.93144 0
M  V30 16592 H 1559.29 -4.035 2.88966 0
M  V30 16593 H 1554.54 -4.38725 4.25829 0
M  V30 16594 H 1558.72 -4.60928 5.22033 0
M  V30 16595 H 1556.34 -4.78194 5.90961 0
M  V30 16596 N 1557.92 -0.68059 -1.42147 0
M  V30 16597 C 1558.85 -0.0199376 -2.33491 0
M  V30 16598 C 1559.83 0.783164 -1.50999 0
M  V30 16599 O 1561.01 0.739154 -1.79583 0
M  V30 16600 C 1558.14 0.927902 -3.34675 0
M  V30 16601 C 1557.1 0.232979 -4.27365 0
M  V30 16602 C 1556.42 1.29415 -5.18802 0
M  V30 16603 C 1557.72 -0.891559 -5.14634 0
M  V30 16604 H 1559.42 -0.782823 -2.88985 0
M  V30 16605 H 1556.96 -0.377898 -1.38953 0
M  V30 16606 H 1558.92 1.3992 -3.97493 0
M  V30 16607 H 1557.64 1.72228 -2.77498 0
M  V30 16608 H 1556.3 -0.21814 -3.6595 0
M  V30 16609 H 1555.95 2.08067 -4.57949 0
M  V30 16610 H 1555.65 0.834274 -5.81647 0
M  V30 16611 H 1557.17 1.76627 -5.84496 0
M  V30 16612 H 1558.59 -0.501219 -5.71105 0
M  V30 16613 H 1556.98 -1.27759 -5.86343 0
M  V30 16614 H 1558.05 -1.73781 -4.5269 0
M  V30 16615 N 1559.4 1.51781 -0.424309 0
M  V30 16616 C 1560.34 2.27418 0.393668 0
M  V30 16617 C 1561.31 1.3046 1.02808 0
M  V30 16618 O 1562.5 1.59345 1.04946 0
M  V30 16619 C 1559.64 3.10983 1.49611 0
M  V30 16620 C 1558.75 4.22919 0.881123 0
M  V30 16621 C 1557.89 4.93816 1.95752 0
M  V30 16622 C 1556.92 5.97691 1.32028 0
M  V30 16623 N 1556.06 6.62047 2.33747 0
M  V30 16624 H 1560.9 2.96883 -0.257731 0
M  V30 16625 H 1558.44 1.46442 -0.138942 0
M  V30 16626 H 1560.4 3.57749 2.14642 0
M  V30 16627 H 1559.03 2.43658 2.11732 0
M  V30 16628 H 1558.08 3.80212 0.119445 0
M  V30 16629 H 1559.39 4.97383 0.375764 0
M  V30 16630 H 1558.54 5.44064 2.68476 0
M  V30 16631 H 1557.28 4.18954 2.49658 0
M  V30 16632 H 1556.29 5.46749 0.578444 0
M  V30 16633 H 1557.51 6.74504 0.788722 0
M  V30 16634 H 1555.46 5.90005 2.86757 0
M  V30 16635 H 1555.38 7.32234 1.88066 0
M  V30 16636 H 1556.64 7.16929 3.05995 0
M  V30 16637 N 1560.87 0.155222 1.56834 0
M  V30 16638 C 1561.81 -0.819563 2.12975 0
M  V30 16639 C 1562.78 -1.23685 1.05549 0
M  V30 16640 O 1563.97 -1.3315 1.33429 0
M  V30 16641 C 1561.1 -2.10155 2.65617 0
M  V30 16642 C 1560.14 -1.82954 3.85266 0
M  V30 16643 S 1560.97 -1.01317 5.25828 0
M  V30 16644 C 1562.13 -2.30617 5.81865 0
M  V30 16645 H 1562.36 -0.342172 2.95324 0
M  V30 16646 H 1559.9 -0.0591958 1.54286 0
M  V30 16647 H 1561.85 -2.83797 2.96597 0
M  V30 16648 H 1560.52 -2.55008 1.83383 0
M  V30 16649 H 1559.71 -2.78035 4.20372 0
M  V30 16650 H 1559.31 -1.17417 3.55091 0
M  V30 16651 H 1561.6 -3.26206 5.93798 0
M  V30 16652 H 1562.55 -2.00004 6.79267 0
M  V30 16653 H 1562.95 -2.41642 5.10166 0
M  V30 16654 N 1562.35 -1.57153 -0.118549 0
M  V30 16655 C 1563.28 -2.03409 -1.1466 0
M  V30 16656 C 1564.26 -0.918636 -1.43161 0
M  V30 16657 O 1565.45 -1.18838 -1.53594 0
M  V30 16658 C 1562.58 -2.43879 -2.47265 0
M  V30 16659 C 1561.53 -3.58873 -2.33225 0
M  V30 16660 C 1560.86 -3.85244 -3.70798 0
M  V30 16661 C 1562.16 -4.90582 -1.79239 0
M  V30 16662 H 1563.85 -2.89545 -0.761862 0
M  V30 16663 H 1561.4 -1.39296 -0.365034 0
M  V30 16664 H 1563.35 -2.74844 -3.19435 0
M  V30 16665 H 1562.07 -1.54715 -2.8763 0
M  V30 16666 H 1560.73 -3.28119 -1.63504 0
M  V30 16667 H 1560.38 -2.93285 -4.08648 0
M  V30 16668 H 1560.08 -4.62649 -3.62257 0
M  V30 16669 H 1561.61 -4.18661 -4.44472 0
M  V30 16670 H 1563.02 -5.20079 -2.41227 0
M  V30 16671 H 1561.42 -5.71989 -1.81518 0
M  V30 16672 H 1562.49 -4.79065 -0.74999 0
M  V30 16673 N 1563.83 0.388742 -1.5273 0
M  V30 16674 C 1565.25 0.728828 -1.41987 0
M  V30 16675 C 1565.45 1.94116 -0.540493 0
M  V30 16676 O 1564.5 2.52496 -0.0140397 0
M  V30 16677 C 1565.81 0.963683 -2.8484 0
M  V30 16678 C 1567.36 1.06514 -2.94319 0
M  V30 16679 C 1567.84 1.33262 -4.38184 0
M  V30 16680 N 1569.33 1.40083 -4.4151 0
M  V30 16681 C 1570.06 1.62446 -5.49908 0
M  V30 16682 N 1569.56 1.82277 -6.68391 0
M  V30 16683 N 1571.35 1.64627 -5.37452 0
M  V30 16684 H 1563.5 -0.408984 -2.08425 0
M  V30 16685 H 1565.77 -0.120791 -0.940273 0
M  V30 16686 H 1565.47 0.144986 -3.51401 0
M  V30 16687 H 1565.35 1.87828 -3.27109 0
M  V30 16688 H 1567.73 1.8744 -2.27926 0
M  V30 16689 H 1567.81 0.12845 -2.55477 0
M  V30 16690 H 1567.46 0.528457 -5.05143 0
M  V30 16691 H 1567.39 2.28216 -4.74579 0
M  V30 16692 H 1569.88 1.26465 -3.56111 0
M  V30 16693 H 1570.19 1.98848 -7.46779 0
M  V30 16694 H 1568.54 1.79501 -6.7142 0
M  V30 16695 H 1571.73 1.48686 -4.43858 0
M  V30 16696 H 1571.9 1.81715 -6.22 0
M  V30 16697 N 1565.31 1.43698 0.647203 0
M  V30 16698 C 1566.27 1.48986 1.74172 0
M  V30 16699 C 1567.27 0.373812 1.56395 0
M  V30 16700 O 1568.46 0.635804 1.62183 0
M  V30 16701 C 1565.59 1.34827 3.13104 0
M  V30 16702 H 1566.79 2.46467 1.70863 0
M  V30 16703 H 1564.34 1.30552 0.859409 0
M  V30 16704 H 1565.07 0.383772 3.22021 0
M  V30 16705 H 1564.86 2.15738 3.27414 0
M  V30 16706 H 1566.35 1.41473 3.92906 0
M  V30 16707 N 1566.79 -0.886131 1.30328 0
M  V30 16708 C 1567.73 -1.99174 1.16612 0
M  V30 16709 C 1568.7 -1.66006 0.0559202 0
M  V30 16710 O 1569.89 -1.89458 0.225897 0
M  V30 16711 C 1567.03 -3.34142 0.862726 0
M  V30 16712 C 1566.14 -3.80008 2.05469 0
M  V30 16713 C 1565.28 -5.03617 1.68949 0
M  V30 16714 C 1564.32 -5.41888 2.84647 0
M  V30 16715 N 1563.45 -6.56678 2.48431 0
M  V30 16716 H 1568.29 -2.10238 2.11197 0
M  V30 16717 H 1565.83 -1.02941 1.05079 0
M  V30 16718 H 1567.79 -4.11826 0.667447 0
M  V30 16719 H 1566.42 -3.22767 -0.0462461 0
M  V30 16720 H 1565.47 -2.98243 2.36126 0
M  V30 16721 H 1566.78 -4.04312 2.92119 0
M  V30 16722 H 1565.94 -5.88923 1.45789 0
M  V30 16723 H 1564.67 -4.81182 0.794674 0
M  V30 16724 H 1563.68 -4.55109 3.08474 0
M  V30 16725 H 1564.9 -5.66296 3.74813 0
M  V30 16726 H 1562.85 -6.35821 1.61453 0
M  V30 16727 H 1562.77 -6.80846 3.28611 0
M  V30 16728 H 1564.04 -7.45219 2.28624 0
M  V30 16729 N 1568.26 -1.13026 -1.09832 0
M  V30 16730 C 1569.51 -0.884093 -1.81292 0
M  V30 16731 C 1569.83 0.591608 -1.86439 0
M  V30 16732 O 1571.03 0.954571 -2.54166 0
M  V30 16733 C 1569.49 -1.53207 -3.25662 0
M  V30 16734 C 1569.1 -3.043 -3.28794 0
M  V30 16735 C 1570.84 -1.36644 -4.01906 0
M  V30 16736 C 1568.75 -3.62003 -4.67662 0
M  V30 16737 H 1567.68 -0.327101 -0.679353 0
M  V30 16738 H 1570.33 -1.35748 -1.2347 0
M  V30 16739 H 1568.71 -0.986353 -3.83519 0
M  V30 16740 H 1569.88 -3.65418 -2.80725 0
M  V30 16741 H 1568.2 -3.20332 -2.66038 0
M  V30 16742 H 1570.8 -1.7717 -5.04495 0
M  V30 16743 H 1571.14 -0.310809 -4.15138 0
M  V30 16744 H 1571.67 -1.88172 -3.5048 0
M  V30 16745 H 1568.41 -4.67354 -4.59631 0
M  V30 16746 H 1567.93 -3.05663 -5.16072 0
M  V30 16747 H 1569.61 -3.61432 -5.36634 0
M  V30 16748 N 1569.74 1.27735 -0.923117 0
M  V30 16749 C 1570.97 1.9922 -0.57672 0
M  V30 16750 C 1571.39 1.68446 0.837113 0
M  V30 16751 O 1570.75 0.922129 1.56098 0
M  V30 16752 C 1570.8 3.51528 -0.803768 0
M  V30 16753 O 1569.9 4.12186 0.132829 0
M  V30 16754 H 1569.24 0.625593 -0.222553 0
M  V30 16755 H 1571.77 1.62657 -1.24112 0
M  V30 16756 H 1571.78 4.01641 -0.717534 0
M  V30 16757 H 1570.46 3.7326 -1.83439 0
M  V30 16758 H 1569.04 3.729 -0.00292957 0
M  V30 16759 N 1571.22 0.688118 1.41784 0
M  V30 16760 C 1572.17 0.00661035 2.32599 0
M  V30 16761 C 1573.16 -0.776475 1.50556 0
M  V30 16762 O 1574.37 -0.682937 1.66541 0
M  V30 16763 H 1570.74 -0.0166615 0.751815 0
M  V30 16764 H 1572.71 0.789718 2.8776 0
M  V30 16765 C 1571.46 -0.921251 3.35273 0
M  V30 16766 H 1570.79 -0.328099 3.98451 0
M  V30 16767 H 1572.23 -1.36655 4.01374 0
M  V30 16768 C 1570.69 -2.03393 2.68576 0
M  V30 16769 O 1571.22 -3.1219 2.52785 0
M  V30 16770 N 1569.42 -1.8095 2.27389 0
M  V30 16771 H 1568.97 -0.924692 2.40431 0
M  V30 16772 H 1568.93 -2.55584 1.83096 0
M  V30 16773 N 1572.7 -1.51554 0.432352 0
M  V30 16774 C 1573.63 -2.25369 -0.417328 0
M  V30 16775 C 1574.64 -1.29197 -0.990551 0
M  V30 16776 O 1575.83 -1.54985 -0.885539 0
M  V30 16777 C 1572.93 -2.99006 -1.59526 0
M  V30 16778 C 1572.11 -4.22234 -1.1418 0
M  V30 16779 C 1571.16 -4.78495 -2.18928 0
M  V30 16780 O 1570.19 -5.40465 -1.78566 0
M  V30 16781 N 1571.39 -4.62091 -3.51358 0
M  V30 16782 H 1574.16 -2.98926 0.215294 0
M  V30 16783 H 1571.72 -1.59783 0.26097 0
M  V30 16784 H 1573.71 -3.33532 -2.29212 0
M  V30 16785 H 1572.28 -2.28491 -2.13332 0
M  V30 16786 H 1571.5 -3.93259 -0.272182 0
M  V30 16787 H 1572.79 -5.02212 -0.816145 0
M  V30 16788 H 1572.19 -4.12718 -3.86885 0
M  V30 16789 H 1570.74 -5.00992 -4.16953 0
M  V30 16790 N 1574.18 -0.163538 -1.56749 0
M  V30 16791 C 1575.43 0.483453 -1.9582 0
M  V30 16792 C 1575.74 1.64913 -1.05181 0
M  V30 16793 O 1576.94 2.36184 -1.33901 0
M  V30 16794 C 1575.4 0.911471 -3.48167 0
M  V30 16795 C 1575.01 -0.228178 -4.47419 0
M  V30 16796 C 1576.75 1.52732 -3.96072 0
M  V30 16797 C 1574.66 0.219036 -5.90994 0
M  V30 16798 H 1573.59 0.184383 -0.731108 0
M  V30 16799 H 1576.24 -0.250527 -1.81782 0
M  V30 16800 H 1574.62 1.7012 -3.57596 0
M  V30 16801 H 1575.8 -1.0054 -4.49698 0
M  V30 16802 H 1574.11 -0.753485 -4.09526 0
M  V30 16803 H 1576.71 1.87383 -5.00791 0
M  V30 16804 H 1577.05 2.42239 -3.38565 0
M  V30 16805 H 1577.58 0.802176 -3.89628 0
M  V30 16806 H 1574.32 -0.641066 -6.52358 0
M  V30 16807 H 1573.84 0.96178 -5.92039 0
M  V30 16808 H 1575.52 0.665524 -6.43568 0
M  V30 16809 N 1575.65 1.57214 0.110213 0
M  V30 16810 C 1576.9 1.84946 0.814827 0
M  V30 16811 C 1577.22 0.750029 1.79999 0
M  V30 16812 O 1576.49 -0.225164 1.94602 0
M  V30 16813 H 1575.07 0.682385 0.303907 0
M  V30 16814 H 1577.74 1.94666 0.0954415 0
M  V30 16815 H 1576.83 2.81167 1.35469 0
M  V30 16816 N 1577.13 -0.380637 1.52934 0
M  V30 16817 C 1578.41 -1.13958 1.58975 0
M  V30 16818 C 1578.79 -2.07503 0.388028 0
M  V30 16819 O 1578.14 -2.19844 -0.622984 0
M  V30 16820 C 1578.35 -1.89192 2.9327 0
M  V30 16821 C 1579.7 -2.44259 3.47308 0
M  V30 16822 O 1580.72 -1.99338 2.95199 0
M  V30 16823 O 1579.58 -3.26338 4.38367 0
M  V30 16824 H 1576.67 -0.521896 0.641525 0
M  V30 16825 H 1579.22 -0.385114 1.65272 0
M  V30 16826 H 1577.99 -1.20834 3.72176 0
M  V30 16827 H 1577.61 -2.71581 2.90395 0
M  V30 16828 N 1578.61 -1.44039 -0.639573 0
M  V30 16829 C 1579.56 -1.46693 -1.74543 0
M  V30 16830 C 1580.54 -0.333712 -1.57401 0
M  V30 16831 O 1581.74 -0.578443 -1.67281 0
M  V30 16832 C 1578.87 -1.40586 -3.13194 0
M  V30 16833 C 1577.95 -2.5899 -3.35835 0
M  V30 16834 N 1578.34 -3.84279 -3.28882 0
M  V30 16835 C 1576.64 -2.54005 -3.66602 0
M  V30 16836 C 1577.34 -4.63125 -3.5198 0
M  V30 16837 N 1576.32 -3.94067 -3.74449 0
M  V30 16838 H 1580.12 -2.41419 -1.67612 0
M  V30 16839 H 1577.63 -1.38883 -0.841739 0
M  V30 16840 H 1579.63 -1.4057 -3.92486 0
M  V30 16841 H 1578.29 -0.46891 -3.21296 0
M  V30 16842 H 1579.3 -4.16369 -3.07988 0
M  V30 16843 H 1575.98 -1.69065 -3.81737 0
M  V30 16844 H 1577.37 -5.72151 -3.52268 0
M  V30 16845 N 1580.09 0.879207 -1.30796 0
M  V30 16846 C 1581.32 1.66449 -1.22891 0
M  V30 16847 C 1581.73 1.87658 0.207306 0
M  V30 16848 O 1581.09 1.42818 1.13619 0
M  V30 16849 C 1581.14 3.03765 -1.95982 0
M  V30 16850 O 1580.86 2.8351 -3.33997 0
M  V30 16851 C 1582.36 3.98204 -1.94804 0
M  V30 16852 H 1579.58 0.51922 -0.425031 0
M  V30 16853 H 1582.13 1.09807 -1.72519 0
M  V30 16854 H 1580.28 3.57124 -1.50138 0
M  V30 16855 H 1580.69 3.70663 -3.71092 0
M  V30 16856 H 1582.17 4.91901 -2.50474 0
M  V30 16857 H 1582.65 4.29277 -0.928336 0
M  V30 16858 H 1583.25 3.50781 -2.40485 0
M  V30 16859 N 1581.57 1.13606 1.09231 0
M  V30 16860 C 1582.82 0.897278 1.81089 0
M  V30 16861 C 1583.14 -0.578066 1.86235 0
M  V30 16862 O 1582.41 -1.42018 1.34935 0
M  V30 16863 H 1580.99 0.328971 0.670662 0
M  V30 16864 H 1583.65 1.433 1.32103 0
M  V30 16865 H 1582.74 1.28979 2.84202 0
M  V30 16866 N 1583.05 -1.27244 0.929878 0
M  V30 16867 C 1583.98 -2.29161 0.448066 0
M  V30 16868 C 1584.96 -1.62806 -0.492776 0
M  V30 16869 O 1586.14 -1.90098 -0.39706 0
M  V30 16870 C 1583.27 -3.46019 -0.298002 0
M  V30 16871 C 1582.23 -4.24384 0.555211 0
M  V30 16872 C 1581.55 -5.33741 -0.320153 0
M  V30 16873 C 1582.85 -4.89535 1.8208 0
M  V30 16874 H 1584.55 -2.69712 1.29983 0
M  V30 16875 H 1582.09 -1.29659 0.626466 0
M  V30 16876 H 1584.04 -4.16419 -0.646024 0
M  V30 16877 H 1582.77 -3.0439 -1.18381 0
M  V30 16878 H 1581.43 -3.55733 0.885971 0
M  V30 16879 H 1581.08 -4.88354 -1.20498 0
M  V30 16880 H 1580.78 -5.8708 0.247241 0
M  V30 16881 H 1582.3 -6.06982 -0.663697 0
M  V30 16882 H 1583.71 -5.52209 1.54071 0
M  V30 16883 H 1582.11 -5.52941 2.33186 0
M  V30 16884 H 1583.18 -4.13113 2.53901 0
M  V30 16885 N 1584.52 -0.695628 -1.41417 0
M  V30 16886 C 1585.93 -0.3014 -1.84251 0
M  V30 16887 C 1586.29 1.16042 -1.58204 0
M  V30 16888 O 1585.41 1.89079 -1.05253 0
M  V30 16889 C 1586.01 -0.540256 -3.34465 0
M  V30 16890 C 1584.56 -0.199944 -3.75869 0
M  V30 16891 C 1583.71 -0.822511 -2.64821 0
M  V30 16892 H 1586.66 -0.896278 -1.30968 0
M  V30 16893 H 1586.68 0.201019 -3.79969 0
M  V30 16894 H 1586.2 -1.60427 -3.53391 0
M  V30 16895 H 1584.3 0.859798 -3.62544 0
M  V30 16896 H 1584.41 -0.655005 -4.74601 0
M  V30 16897 H 1582.77 -0.252109 -2.53449 0
M  V30 16898 H 1583.56 -1.89039 -2.86564 0
M  V30 16899 N 1586 1.51322 -0.440383 0
M  V30 16900 C 1587.28 1.94722 0.185148 0
M  V30 16901 C 1587.66 1.37922 1.59815 0
M  V30 16902 O 1587.01 0.567527 2.2134 0
M  V30 16903 C 1587.22 3.48634 0.159781 0
M  V30 16904 C 1588.56 4.23038 0.363853 0
M  V30 16905 O 1589.59 3.55406 0.237759 0
M  V30 16906 O 1588.45 5.43027 0.615137 0
M  V30 16907 H 1585.54 0.816983 0.128325 0
M  V30 16908 H 1588.09 1.62211 -0.498581 0
M  V30 16909 H 1586.86 3.8244 -0.827952 0
M  V30 16910 H 1586.48 3.87596 0.88629 0
M  V30 16911 N 1587.48 0.171848 1.5666 0
M  V30 16912 C 1588.73 -0.472034 1.9651 0
M  V30 16913 C 1589.05 -1.63743 1.05893 0
M  V30 16914 O 1588.32 -1.95498 0.125396 0
M  V30 16915 H 1586.9 -0.177377 0.725635 0
M  V30 16916 H 1589.56 0.253155 1.93249 0
M  V30 16917 H 1588.66 -0.831693 3.00814 0
M  V30 16918 N 1588.96 -1.5727 -0.101874 0
M  V30 16919 C 1590.37 -1.5295 -0.455899 0
M  V30 16920 C 1590.57 -0.887526 -1.80901 0
M  V30 16921 O 1589.63 -0.477143 -2.47951 0
M  V30 16922 C 1590.94 -2.97687 -0.424625 0
M  V30 16923 C 1592.49 -3.08867 -0.506963 0
M  V30 16924 C 1592.97 -4.55197 -0.505907 0
M  V30 16925 N 1594.46 -4.59718 -0.566856 0
M  V30 16926 C 1595.19 -5.7038 -0.587766 0
M  V30 16927 N 1594.69 -6.9049 -0.56529 0
M  V30 16928 N 1596.48 -5.58535 -0.632067 0
M  V30 16929 H 1588.63 -1.97381 0.784509 0
M  V30 16930 H 1590.89 -0.902141 0.291284 0
M  V30 16931 H 1590.6 -3.48094 0.502312 0
M  V30 16932 H 1590.47 -3.56022 -1.24612 0
M  V30 16933 H 1592.86 -2.58451 -1.42432 0
M  V30 16934 H 1592.94 -2.53496 0.342544 0
M  V30 16935 H 1592.59 -5.06263 0.407477 0
M  V30 16936 H 1592.52 -5.08399 -1.37253 0
M  V30 16937 H 1595.01 -3.73271 -0.589696 0
M  V30 16938 H 1595.32 -7.70588 -0.584342 0
M  V30 16939 H 1593.67 -6.92957 -0.532444 0
M  V30 16940 H 1596.86 -4.63606 -0.647109 0
M  V30 16941 H 1597.03 -6.44783 -0.644895 0
M  V30 16942 N 1590.44 0.372521 -1.53134 0
M  V30 16943 C 1591.71 1.13113 -1.59577 0
M  V30 16944 C 1592.09 2.07294 -0.399027 0
M  V30 16945 O 1591.44 2.20171 0.611316 0
M  V30 16946 C 1591.65 1.87635 -2.94269 0
M  V30 16947 C 1593 2.42414 -3.48598 0
M  V30 16948 O 1594.02 1.9777 -2.96252 0
M  V30 16949 O 1592.88 3.24008 -4.40092 0
M  V30 16950 H 1589.98 0.518486 -0.644284 0
M  V30 16951 H 1592.52 0.376344 -1.65474 0
M  V30 16952 H 1591.29 1.18859 -3.72811 0
M  V30 16953 H 1590.92 2.70037 -2.91831 0
M  V30 16954 N 1591.91 1.44376 0.631925 0
M  V30 16955 C 1593.33 1.28245 0.950014 0
M  V30 16956 C 1593.53 0.217644 2.00321 0
M  V30 16957 O 1592.59 -0.396736 2.49364 0
M  V30 16958 C 1593.9 2.65378 1.41404 0
M  V30 16959 C 1595.45 2.73081 1.52956 0
M  V30 16960 C 1595.92 4.10682 2.02742 0
M  V30 16961 N 1597.41 4.12854 2.10014 0
M  V30 16962 C 1598.15 5.16173 2.49705 0
M  V30 16963 N 1597.64 6.29855 2.88539 0
M  V30 16964 N 1599.44 5.03528 2.49832 0
M  V30 16965 H 1591.59 2.12302 -0.0646167 0
M  V30 16966 H 1593.85 0.9474 0.0337162 0
M  V30 16967 H 1593.56 3.44366 0.714476 0
M  V30 16968 H 1593.43 2.92213 2.3852 0
M  V30 16969 H 1595.82 1.94412 2.22009 0
M  V30 16970 H 1595.9 2.49988 0.542176 0
M  V30 16971 H 1595.54 4.89827 1.34285 0
M  V30 16972 H 1595.47 4.31152 3.02351 0
M  V30 16973 H 1597.96 3.30806 1.8269 0
M  V30 16974 H 1598.28 7.04505 3.17637 0
M  V30 16975 H 1596.62 6.33294 2.86293 0
M  V30 16976 H 1599.81 4.13773 2.18883 0
M  V30 16977 H 1599.99 5.84172 2.80441 0
M  V30 16978 N 1593.39 -0.872258 1.31261 0
M  V30 16979 C 1594.67 -1.60739 1.11456 0
M  V30 16980 C 1595.05 -2.0848 -0.331569 0
M  V30 16981 O 1594.4 -1.86141 -1.32528 0
M  V30 16982 C 1594.61 -2.76714 2.12674 0
M  V30 16983 C 1595.95 -3.46734 2.45074 0
M  V30 16984 O 1596.98 -2.86919 2.11083 0
M  V30 16985 O 1595.84 -4.54632 3.0327 0
M  V30 16986 H 1592.93 -0.70707 0.428929 0
M  V30 16987 H 1595.48 -0.917922 1.42732 0
M  V30 16988 H 1594.25 -2.38834 3.09958 0
M  V30 16989 H 1593.87 -3.5335 1.8229 0
M  V30 16990 N 1594.87 -1.14184 -1.08627 0
M  V30 16991 C 1596.1 -0.932104 -1.84714 0
M  V30 16992 C 1596.51 0.519335 -1.81517 0
M  V30 16993 O 1595.87 1.35978 -1.21722 0
M  V30 16994 C 1595.92 -1.42217 -3.3235 0
M  V30 16995 O 1595.64 -2.81674 -3.35547 0
M  V30 16996 C 1597.14 -1.25205 -4.25251 0
M  V30 16997 H 1594.36 -0.331854 -0.583193 0
M  V30 16998 H 1596.91 -1.51641 -1.37205 0
M  V30 16999 H 1595.06 -0.880679 -3.77257 0
M  V30 17000 H 1595.48 -3.03615 -4.2769 0
M  V30 17001 H 1596.95 -1.64358 -5.26963 0
M  V30 17002 H 1597.43 -0.194659 -4.38768 0
M  V30 17003 H 1598.03 -1.78198 -3.86168 0
M  V30 17004 N 1596.35 1.26749 -0.936613 0
M  V30 17005 C 1597.63 1.89106 -0.49981 0
M  V30 17006 C 1598.01 1.84687 1.02244 0
M  V30 17007 O 1597.35 1.2981 1.88047 0
M  V30 17008 C 1597.56 3.32641 -1.05598 0
M  V30 17009 C 1598.91 4.09511 -1.12187 0
M  V30 17010 O 1599.94 3.41692 -1.00624 0
M  V30 17011 O 1598.79 5.30785 -1.30113 0
M  V30 17012 H 1595.89 0.810941 -0.162185 0
M  V30 17013 H 1598.43 1.34952 -1.02888 0
M  V30 17014 H 1597.21 3.30196 -2.09968 0
M  V30 17015 H 1596.83 3.94327 -0.509086 0
M  V30 17016 N 1597.83 0.703118 1.41046 0
M  V30 17017 C 1598.76 0.0570815 2.3343 0
M  V30 17018 C 1599.74 -0.759042 1.52225 0
M  V30 17019 O 1600.92 -0.710491 1.80736 0
M  V30 17020 C 1598.05 -0.874541 3.36109 0
M  V30 17021 C 1597.01 -0.16496 4.27682 0
M  V30 17022 C 1596.33 -1.21145 5.20795 0
M  V30 17023 C 1597.63 0.97332 5.13151 0
M  V30 17024 H 1599.33 0.828699 2.87703 0
M  V30 17025 H 1596.87 0.399956 1.38334 0
M  V30 17026 H 1598.83 -1.33579 3.99668 0
M  V30 17027 H 1597.55 -1.67791 2.80203 0
M  V30 17028 H 1596.21 0.276332 3.65557 0
M  V30 17029 H 1595.86 -2.00755 4.61201 0
M  V30 17030 H 1595.56 -0.741633 5.82901 0
M  V30 17031 H 1597.08 -1.67305 5.87232 0
M  V30 17032 H 1598.49 0.592013 5.70235 0
M  V30 17033 H 1596.89 1.37071 5.84236 0
M  V30 17034 H 1597.96 1.80961 4.49868 0
M  V30 17035 N 1599.3 -1.51086 0.448402 0
M  V30 17036 C 1600.21 -2.3177 -0.363323 0
M  V30 17037 C 1601.23 -1.41159 -1.01736 0
M  V30 17038 O 1602.41 -1.74226 -1.01031 0
M  V30 17039 C 1599.47 -3.15211 -1.4437 0
M  V30 17040 C 1598.53 -4.21615 -0.808643 0
M  V30 17041 C 1597.77 -5.01069 -1.83754 0
M  V30 17042 O 1597.99 -4.81296 -3.06121 0
M  V30 17043 O 1596.92 -5.84863 -1.42193 0
M  V30 17044 H 1600.75 -3.02257 0.295653 0
M  V30 17045 H 1598.33 -1.47907 0.210703 0
M  V30 17046 H 1600.22 -3.67053 -2.07002 0
M  V30 17047 H 1598.89 -2.47476 -2.08656 0
M  V30 17048 H 1597.8 -3.73823 -0.143975 0
M  V30 17049 H 1599.13 -4.91756 -0.209098 0
M  V30 17050 N 1600.78 -0.180154 -1.56567 0
M  V30 17051 C 1601.71 0.742131 -2.21393 0
M  V30 17052 C 1602.69 1.23253 -1.1723 0
M  V30 17053 O 1603.88 1.28408 -1.45688 0
M  V30 17054 C 1601.01 1.96799 -2.8616 0
M  V30 17055 C 1599.96 1.6131 -3.96438 0
M  V30 17056 C 1599.29 2.91434 -4.48297 0
M  V30 17057 C 1600.59 0.834382 -5.15592 0
M  V30 17058 H 1602.28 0.201759 -2.98719 0
M  V30 17059 H 1599.83 0.0956016 -1.43682 0
M  V30 17060 H 1601.78 2.61828 -3.30188 0
M  V30 17061 H 1600.51 2.53264 -2.06215 0
M  V30 17062 H 1599.16 0.986451 -3.53079 0
M  V30 17063 H 1598.81 3.45958 -3.65133 0
M  V30 17064 H 1598.51 2.68439 -5.22699 0
M  V30 17065 H 1600.04 3.57478 -4.95017 0
M  V30 17066 H 1601.45 1.38745 -5.56258 0
M  V30 17067 H 1599.85 0.703132 -5.95966 0
M  V30 17068 H 1600.92 -0.167554 -4.8461 0
M  V30 17069 N 1602.26 1.57322 0.0935319 0
M  V30 17070 C 1603.51 1.858 0.795165 0
M  V30 17071 C 1603.83 0.769078 1.79193 0
M  V30 17072 O 1603.1 -0.204511 1.9483 0
M  V30 17073 H 1601.68 0.68557 0.296653 0
M  V30 17074 H 1604.34 1.94756 0.0747892 0
M  V30 17075 H 1603.44 2.82588 1.32479 0
M  V30 17076 N 1603.74 -0.364395 1.53329 0
M  V30 17077 C 1605.02 -1.12265 1.60174 0
M  V30 17078 C 1605.4 -2.0708 0.410015 0
M  V30 17079 O 1604.74 -2.20492 -0.599631 0
M  V30 17080 C 1604.95 -1.86071 2.9526 0
M  V30 17081 C 1606.3 -2.40562 3.49879 0
M  V30 17082 O 1607.33 -1.96196 2.97297 0
M  V30 17083 O 1606.18 -3.2167 4.41804 0
M  V30 17084 H 1603.28 -0.515062 0.647024 0
M  V30 17085 H 1605.82 -0.367563 1.65672 0
M  V30 17086 H 1604.6 -1.1688 3.73436 0
M  V30 17087 H 1604.22 -2.68486 2.93259 0
M  V30 17088 N 1605.22 -1.44709 -0.62426 0
M  V30 17089 C 1606.13 -1.54608 -1.76447 0
M  V30 17090 C 1607.14 -0.43137 -1.68568 0
M  V30 17091 O 1608.32 -0.6897 -1.89222 0
M  V30 17092 C 1605.38 -1.49404 -3.12857 0
M  V30 17093 C 1604.44 -2.71782 -3.32315 0
M  V30 17094 C 1603.68 -2.66817 -4.62217 0
M  V30 17095 O 1603.9 -1.73205 -5.43467 0
M  V30 17096 O 1602.83 -3.57773 -4.84027 0
M  V30 17097 H 1606.66 -2.50951 -1.71048 0
M  V30 17098 H 1604.25 -1.27033 -0.786326 0
M  V30 17099 H 1606.13 -1.4905 -3.9416 0
M  V30 17100 H 1604.8 -0.562078 -3.18783 0
M  V30 17101 H 1603.71 -2.77702 -2.50664 0
M  V30 17102 H 1605.04 -3.64048 -3.31255 0
M  V30 17103 N 1606.69 0.865285 -1.31722 0
M  V30 17104 C 1607.94 1.6135 -1.21033 0
M  V30 17105 C 1608.26 1.94253 0.229141 0
M  V30 17106 O 1609.46 2.67613 0.457771 0
M  V30 17107 C 1607.92 2.90898 -2.11912 0
M  V30 17108 C 1607.53 2.6546 -3.60881 0
M  V30 17109 C 1609.27 3.68898 -2.10035 0
M  V30 17110 C 1607.18 3.90943 -4.43754 0
M  V30 17111 H 1606.11 0.605418 -0.449428 0
M  V30 17112 H 1608.76 0.956335 -1.56609 0
M  V30 17113 H 1607.14 3.58014 -1.69239 0
M  V30 17114 H 1608.31 2.06721 -4.11829 0
M  V30 17115 H 1606.63 2.00806 -3.64782 0
M  V30 17116 H 1609.23 4.61995 -2.69193 0
M  V30 17117 H 1609.57 4.01813 -1.08865 0
M  V30 17118 H 1610.1 3.08671 -2.50932 0
M  V30 17119 H 1606.84 3.63176 -5.45696 0
M  V30 17120 H 1606.36 4.49116 -3.97561 0
M  V30 17121 H 1608.04 4.58784 -4.56208 0
M  V30 17122 N 1608.17 1.14759 1.0802 0
M  V30 17123 C 1609.1 0.860977 2.17047 0
M  V30 17124 C 1610.08 -0.185652 1.69084 0
M  V30 17125 O 1611.27 -0.0414797 1.94156 0
M  V30 17126 C 1608.4 0.342018 3.45612 0
M  V30 17127 C 1607.35 1.32455 4.06989 0
M  V30 17128 C 1606.68 0.664721 5.30552 0
M  V30 17129 C 1607.98 2.68819 4.4781 0
M  V30 17130 H 1609.67 1.77269 2.4128 0
M  V30 17131 H 1607.22 0.853757 1.15961 0
M  V30 17132 H 1609.17 0.129093 4.21202 0
M  V30 17133 H 1607.9 -0.605138 3.20945 0
M  V30 17134 H 1606.55 1.52371 3.33435 0
M  V30 17135 H 1606.2 -0.288367 5.02173 0
M  V30 17136 H 1605.9 1.32036 5.72573 0
M  V30 17137 H 1607.43 0.461412 6.08854 0
M  V30 17138 H 1608.84 2.52787 5.14559 0
M  V30 17139 H 1607.24 3.30694 5.00761 0
M  V30 17140 H 1608.31 3.25398 3.59506 0
M  V30 17141 N 1609.65 -1.26251 0.943322 0
M  V30 17142 C 1610.9 -1.93939 0.592909 0
M  V30 17143 C 1611.23 -1.73814 -0.866155 0
M  V30 17144 O 1610.5 -1.07645 -1.61997 0
M  V30 17145 C 1610.79 -3.47653 0.938601 0
M  V30 17146 C 1610.64 -3.77053 2.45257 0
M  V30 17147 C 1611.96 -4.37736 0.455546 0
M  V30 17148 H 1609.08 -0.704367 0.21688 0
M  V30 17149 H 1611.72 -1.4908 1.17793 0
M  V30 17150 H 1609.87 -3.85992 0.440756 0
M  V30 17151 H 1611.54 -3.48417 3.0233 0
M  V30 17152 H 1609.79 -3.23055 2.89513 0
M  V30 17153 H 1610.46 -4.84506 2.64495 0
M  V30 17154 H 1612.93 -4.06635 0.882435 0
M  V30 17155 H 1611.81 -5.44075 0.72623 0
M  V30 17156 H 1612.07 -4.37377 -0.644508 0
M  V30 17157 N 1611.13 -0.710588 -1.40671 0
M  V30 17158 C 1612.41 -0.175319 -1.94813 0
M  V30 17159 C 1612.79 1.31792 -1.64906 0
M  V30 17160 O 1612.13 2.07167 -0.964058 0
M  V30 17161 C 1612.34 -0.482691 -3.45646 0
M  V30 17162 C 1613.69 -0.418619 -4.22531 0
M  V30 17163 O 1614.72 -0.418463 -3.53733 0
M  V30 17164 O 1613.58 -0.391787 -5.45094 0
M  V30 17165 H 1610.67 -0.0237744 -0.826658 0
M  V30 17166 H 1613.22 -0.787778 -1.50307 0
M  V30 17167 H 1611.99 -1.51569 -3.60753 0
M  V30 17168 H 1611.61 0.159984 -3.97278 0
M  V30 17169 N 1612.61 1.50847 -0.456408 0
M  V30 17170 C 1613.86 2.01835 0.103414 0
M  V30 17171 C 1614.18 1.34142 1.4153 0
M  V30 17172 O 1613.45 0.482015 1.89877 0
M  V30 17173 H 1612.03 0.745863 0.0412074 0
M  V30 17174 H 1614.69 1.85322 -0.603477 0
M  V30 17175 H 1613.78 3.10968 0.265562 0
M  V30 17176 N 1614.09 0.188454 1.56469 0
M  V30 17177 C 1615.02 -0.774203 2.14666 0
M  V30 17178 C 1616 -1.21419 1.08149 0
M  V30 17179 O 1617.18 -1.30289 1.36224 0
M  V30 17180 C 1614.31 -2.04474 2.70015 0
M  V30 17181 C 1613.35 -1.74741 3.8906 0
M  V30 17182 S 1614.19 -0.901409 5.27859 0
M  V30 17183 C 1615.34 -2.18223 5.86626 0
M  V30 17184 H 1615.58 -0.279452 2.95984 0
M  V30 17185 H 1613.11 -0.0264561 1.54377 0
M  V30 17186 H 1615.07 -2.77442 3.0255 0
M  V30 17187 H 1613.73 -2.51061 1.88751 0
M  V30 17188 H 1612.92 -2.69055 4.26175 0
M  V30 17189 H 1612.52 -1.09858 3.57501 0
M  V30 17190 H 1614.81 -3.13538 6.00583 0
M  V30 17191 H 1615.76 -1.85551 6.83357 0
M  V30 17192 H 1616.17 -2.30766 5.15177 0
M  V30 17193 N 1615.56 -1.5737 -0.0851874 0
M  V30 17194 C 1616.81 -1.86864 -0.78802 0
M  V30 17195 C 1617.14 -0.778936 -1.77894 0
M  V30 17196 O 1616.42 0.212132 -1.9334 0
M  V30 17197 C 1616.7 -3.27006 -1.50795 0
M  V30 17198 C 1616.55 -4.46615 -0.534354 0
M  V30 17199 C 1617.87 -3.65187 -2.45614 0
M  V30 17200 H 1614.99 -0.679657 -0.285017 0
M  V30 17201 H 1617.63 -1.8993 -0.0514443 0
M  V30 17202 H 1615.78 -3.24522 -2.13583 0
M  V30 17203 H 1617.46 -4.61217 0.0872761 0
M  V30 17204 H 1615.7 -4.33536 0.151455 0
M  V30 17205 H 1616.37 -5.41423 -1.07544 0
M  V30 17206 H 1618.85 -3.68678 -1.92913 0
M  V30 17207 H 1617.72 -4.64158 -2.92999 0
M  V30 17208 H 1617.98 -2.944 -3.2982 0
M  V30 17209 N 1617.04 0.356258 -1.53521 0
M  V30 17210 C 1618.29 1.0979 -1.70154 0
M  V30 17211 C 1618.62 1.89028 -0.458124 0
M  V30 17212 O 1617.87 1.87516 0.560033 0
M  V30 17213 C 1618.17 2.07669 -2.90875 0
M  V30 17214 C 1617.84 1.4484 -4.27004 0
M  V30 17215 C 1616.5 1.27434 -4.64019 0
M  V30 17216 C 1618.85 0.994684 -5.1162 0
M  V30 17217 C 1616.18 0.632539 -5.8328 0
M  V30 17218 C 1618.53 0.366847 -6.31535 0
M  V30 17219 C 1617.19 0.180356 -6.67256 0
M  V30 17220 H 1616.46 0.401751 -0.622637 0
M  V30 17221 H 1619.11 0.378618 -1.8772 0
M  V30 17222 H 1617.42 2.85934 -2.6786 0
M  V30 17223 H 1619.11 2.65023 -3.00939 0
M  V30 17224 H 1615.7 1.59384 -3.97863 0
M  V30 17225 H 1619.89 1.11706 -4.83565 0
M  V30 17226 H 1615.14 0.476548 -6.0954 0
M  V30 17227 H 1619.32 0.00712378 -6.964 0
M  V30 17228 H 1616.94 -0.319016 -7.5953 0
M  V30 17229 N 1618.52 1.45038 0.616577 0
M  V30 17230 C 1619.94 1.29246 0.936359 0
M  V30 17231 C 1620.14 0.238879 2.00079 0
M  V30 17232 O 1619.19 -0.370265 2.4977 0
M  V30 17233 C 1620.5 2.66863 1.38581 0
M  V30 17234 C 1622.05 2.74688 1.50051 0
M  V30 17235 C 1622.53 4.12809 1.98375 0
M  V30 17236 N 1624.02 4.15058 2.05623 0
M  V30 17237 C 1624.75 5.18793 2.44216 0
M  V30 17238 N 1624.25 6.3288 2.81843 0
M  V30 17239 N 1626.04 5.06149 2.44477 0
M  V30 17240 H 1618.19 2.12221 -0.0871304 0
M  V30 17241 H 1620.46 0.947705 0.0236659 0
M  V30 17242 H 1620.16 3.45105 0.677911 0
M  V30 17243 H 1620.04 2.94726 2.35407 0
M  V30 17244 H 1622.42 1.96756 2.19934 0
M  V30 17245 H 1622.5 2.50549 0.515631 0
M  V30 17246 H 1622.15 4.91223 1.29082 0
M  V30 17247 H 1622.08 4.34334 2.97761 0
M  V30 17248 H 1624.57 3.32726 1.79171 0
M  V30 17249 H 1624.88 7.07834 3.10147 0
M  V30 17250 H 1623.23 6.36295 2.7956 0
M  V30 17251 H 1626.42 4.16071 2.14482 0
M  V30 17252 H 1626.59 5.87114 2.74229 0
M  V30 17253 N 1620 -0.858287 1.32179 0
M  V30 17254 C 1621.27 -1.59548 1.13154 0
M  V30 17255 C 1621.65 -2.0882 -0.309439 0
M  V30 17256 O 1621 -1.87536 -1.30547 0
M  V30 17257 C 1621.21 -2.74443 2.15597 0
M  V30 17258 C 1622.56 -3.44115 2.48737 0
M  V30 17259 O 1623.58 -2.84664 2.14114 0
M  V30 17260 O 1622.44 -4.51389 3.08074 0
M  V30 17261 H 1619.54 -0.702481 0.436405 0
M  V30 17262 H 1622.08 -0.902731 1.43697 0
M  V30 17263 H 1620.86 -2.35533 3.12473 0
M  V30 17264 H 1620.48 -3.51397 1.86028 0
M  V30 17265 N 1621.48 -1.1533 -1.07409 0
M  V30 17266 C 1622.42 -0.849527 -2.14597 0
M  V30 17267 C 1623.39 0.197288 -1.64924 0
M  V30 17268 O 1624.58 0.0649694 -1.90689 0
M  V30 17269 C 1621.72 -0.344327 -3.43378 0
M  V30 17270 C 1620.83 -1.45264 -4.06844 0
M  V30 17271 C 1619.97 -0.90363 -5.23458 0
M  V30 17272 C 1619 -1.98892 -5.78885 0
M  V30 17273 N 1618.14 -1.45633 -6.8683 0
M  V30 17274 H 1622.98 -1.76753 -2.39922 0
M  V30 17275 H 1620.52 -0.881942 -1.17729 0
M  V30 17276 H 1622.48 -0.0331352 -4.17187 0
M  V30 17277 H 1621.11 0.536757 -3.18306 0
M  V30 17278 H 1620.16 -1.88003 -3.30695 0
M  V30 17279 H 1621.47 -2.27207 -4.44048 0
M  V30 17280 H 1620.62 -0.544945 -6.04248 0
M  V30 17281 H 1619.36 -0.0533648 -4.87671 0
M  V30 17282 H 1618.37 -2.35644 -4.96741 0
M  V30 17283 H 1619.59 -2.84295 -6.16728 0
M  V30 17284 H 1617.54 -0.628417 -6.52983 0
M  V30 17285 H 1617.46 -2.21204 -7.22914 0
M  V30 17286 H 1618.72 -1.12587 -7.71326 0
M  V30 17287 N 1622.95 1.25748 -0.950004 0
M  V30 17288 C 1623.9 2.26061 -0.46531 0
M  V30 17289 C 1624.87 1.59021 0.479742 0
M  V30 17290 O 1626.06 1.86687 0.394011 0
M  V30 17291 C 1623.2 3.44156 0.255146 0
M  V30 17292 C 1622.31 4.25846 -0.726604 0
M  V30 17293 C 1621.44 5.31198 0.0159429 0
M  V30 17294 C 1620.48 6.04572 -0.957046 0
M  V30 17295 N 1619.62 7.0167 -0.245676 0
M  V30 17296 H 1624.46 2.66891 -1.32563 0
M  V30 17297 H 1622 1.31216 -0.664882 0
M  V30 17298 H 1623.95 4.11465 0.689381 0
M  V30 17299 H 1622.58 3.04213 1.07954 0
M  V30 17300 H 1621.64 3.58242 -1.27933 0
M  V30 17301 H 1622.95 4.76669 -1.46928 0
M  V30 17302 H 1622.1 6.04561 0.509037 0
M  V30 17303 H 1620.84 4.81235 0.791442 0
M  V30 17304 H 1619.85 5.30028 -1.46118 0
M  V30 17305 H 1621.07 6.56624 -1.7327 0
M  V30 17306 H 1619.02 6.54005 0.51117 0
M  V30 17307 H 1618.93 7.50289 -0.927527 0
M  V30 17308 H 1620.2 7.79172 0.226034 0
M  V30 17309 N 1624.43 0.718038 1.40292 0
M  V30 17310 C 1625.38 0.0559466 2.32533 0
M  V30 17311 C 1626.37 -0.744365 1.5217 0
M  V30 17312 O 1627.58 -0.647458 1.67952 0
M  V30 17313 H 1623.95 -0.000710627 0.752 0
M  V30 17314 H 1625.93 0.850579 2.8602 0
M  V30 17315 C 1624.67 -0.849927 3.37152 0
M  V30 17316 H 1624 -0.243507 3.99058 0
M  V30 17317 H 1625.44 -1.28111 4.04183 0
M  V30 17318 C 1623.9 -1.9765 2.7283 0
M  V30 17319 O 1624.43 -3.06757 2.59351 0
M  V30 17320 N 1622.63 -1.76086 2.31176 0
M  V30 17321 H 1622.18 -0.873485 2.42339 0
M  V30 17322 H 1622.14 -2.51643 1.88477 0
M  V30 17323 N 1625.91 -1.50602 0.464402 0
M  V30 17324 C 1627.14 -2.07191 -0.0930678 0
M  V30 17325 C 1627.56 -1.32675 -1.33338 0
M  V30 17326 O 1626.92 -0.372453 -1.77433 0
M  V30 17327 C 1626.97 -3.5873 -0.366775 0
M  V30 17328 O 1626.07 -3.86125 -1.44849 0
M  V30 17329 H 1625.41 -0.663924 0.0100336 0
M  V30 17330 H 1627.94 -1.93882 0.653522 0
M  V30 17331 H 1627.95 -4.03425 -0.609258 0
M  V30 17332 H 1626.63 -4.12385 0.539608 0
M  V30 17333 H 1625.2 -3.53273 -1.19384 0
M  V30 17334 N 1627.39 -0.19675 -1.56367 0
M  V30 17335 C 1628.34 0.723461 -2.19168 0
M  V30 17336 C 1629.31 1.20856 -1.13943 0
M  V30 17337 O 1630.49 1.27215 -1.42201 0
M  V30 17338 C 1627.63 1.93669 -2.85633 0
M  V30 17339 C 1626.74 1.49281 -4.05388 0
M  V30 17340 C 1625.88 2.66167 -4.59705 0
M  V30 17341 C 1624.92 2.18393 -5.71814 0
M  V30 17342 N 1624.05 3.28462 -6.20529 0
M  V30 17343 H 1628.89 0.181169 -2.97449 0
M  V30 17344 H 1626.43 0.0776802 -1.46895 0
M  V30 17345 H 1628.39 2.64865 -3.22339 0
M  V30 17346 H 1627.02 2.45227 -2.09913 0
M  V30 17347 H 1626.07 0.676658 -3.74333 0
M  V30 17348 H 1627.38 1.10231 -4.86467 0
M  V30 17349 H 1626.54 3.45483 -4.98725 0
M  V30 17350 H 1625.28 3.08491 -3.77736 0
M  V30 17351 H 1624.28 1.37531 -5.32321 0
M  V30 17352 H 1625.51 1.77097 -6.55602 0
M  V30 17353 H 1623.45 3.70315 -5.41482 0
M  V30 17354 H 1623.37 2.93587 -6.96665 0
M  V30 17355 H 1624.64 4.07988 -6.64204 0
M  V30 17356 N 1628.87 1.57413 0.0768405 0
M  V30 17357 C 1630.14 1.78056 0.809663 0
M  V30 17358 C 1630.52 0.783053 1.9604 0
M  V30 17359 O 1629.87 -0.184836 2.27751 0
M  V30 17360 C 1630.08 3.24391 1.2873 0
M  V30 17361 C 1631.43 3.88082 1.72272 0
M  V30 17362 O 1632.45 3.28251 1.38309 0
M  V30 17363 O 1631.31 4.93329 2.35135 0
M  V30 17364 H 1628.41 0.730553 0.387584 0
M  V30 17365 H 1630.95 1.69603 0.057307 0
M  V30 17366 H 1629.72 3.88543 0.463678 0
M  V30 17367 H 1629.35 3.37548 2.10112 0
M  V30 17368 N 1630.34 -0.348112 1.53707 0
M  V30 17369 C 1631.28 -1.44781 1.77682 0
M  V30 17370 C 1632.29 -1.4891 0.657997 0
M  V30 17371 O 1633.48 -1.52075 0.934635 0
M  V30 17372 C 1630.58 -2.83463 1.85747 0
M  V30 17373 C 1629.75 -3.02827 3.15618 0
M  V30 17374 C 1628.81 -4.21724 3.14698 0
M  V30 17375 O 1627.84 -4.16059 3.88437 0
M  V30 17376 N 1629.04 -5.3003 2.36746 0
M  V30 17377 H 1631.8 -1.24587 2.72577 0
M  V30 17378 H 1629.36 -0.537961 1.52701 0
M  V30 17379 H 1631.36 -3.6117 1.82589 0
M  V30 17380 H 1629.93 -2.96822 0.980595 0
M  V30 17381 H 1629.15 -2.1263 3.31937 0
M  V30 17382 H 1630.43 -3.12645 4.01411 0
M  V30 17383 H 1629.83 -5.375 1.7638 0
M  V30 17384 H 1628.39 -6.06247 2.39389 0
M  V30 17385 N 1631.82 -1.45363 -0.608876 0
M  V30 17386 C 1632.75 -1.56778 -1.7304 0
M  V30 17387 C 1633.73 -0.419405 -1.64848 0
M  V30 17388 O 1634.92 -0.64238 -1.83268 0
M  V30 17389 C 1632.05 -1.5329 -3.1164 0
M  V30 17390 C 1631 -2.66832 -3.34641 0
M  V30 17391 C 1630.33 -2.48398 -4.735 0
M  V30 17392 C 1631.63 -4.0885 -3.25021 0
M  V30 17393 H 1633.32 -2.50656 -1.63743 0
M  V30 17394 H 1630.87 -1.20635 -0.786338 0
M  V30 17395 H 1632.82 -1.59873 -3.89895 0
M  V30 17396 H 1631.55 -0.559414 -3.21773 0
M  V30 17397 H 1630.2 -2.59675 -2.58775 0
M  V30 17398 H 1629.85 -1.49191 -4.80366 0
M  V30 17399 H 1629.55 -3.24537 -4.89846 0
M  V30 17400 H 1631.08 -2.56833 -5.53958 0
M  V30 17401 H 1632.49 -4.17257 -3.93153 0
M  V30 17402 H 1630.89 -4.85369 -3.52897 0
M  V30 17403 H 1631.96 -4.30849 -2.2248 0
M  V30 17404 N 1633.3 0.851265 -1.32632 0
M  V30 17405 C 1634.21 1.99239 -1.23858 0
M  V30 17406 C 1635.23 1.73339 -0.151517 0
M  V30 17407 O 1636.4 1.97919 -0.372822 0
M  V30 17408 C 1633.47 3.32987 -0.965417 0
M  V30 17409 C 1632.53 3.72087 -2.14126 0
M  V30 17410 C 1631.76 4.99453 -1.88103 0
M  V30 17411 O 1631.98 5.64399 -0.825253 0
M  V30 17412 O 1630.92 5.35763 -2.74302 0
M  V30 17413 H 1634.74 2.09579 -2.19796 0
M  V30 17414 H 1632.33 0.98243 -1.12555 0
M  V30 17415 H 1634.21 4.13151 -0.829713 0
M  V30 17416 H 1632.89 3.2368 -0.036219 0
M  V30 17417 H 1631.79 2.92485 -2.33245 0
M  V30 17418 H 1633.13 3.86045 -3.05336 0
M  V30 17419 N 1634.78 1.15898 1.06796 0
M  V30 17420 C 1636.02 0.938728 1.79766 0
M  V30 17421 C 1636.36 -0.53249 1.86757 0
M  V30 17422 O 1635.63 -1.39492 1.35544 0
M  V30 17423 C 1635.92 1.56062 3.24525 0
M  V30 17424 C 1635.77 3.10283 3.25645 0
M  V30 17425 C 1637.09 1.25108 4.21943 0
M  V30 17426 H 1634.21 0.342451 0.652607 0
M  V30 17427 H 1636.85 1.4315 1.24933 0
M  V30 17428 H 1635 1.14158 3.71349 0
M  V30 17429 H 1636.67 3.61132 2.87021 0
M  V30 17430 H 1634.91 3.43879 2.64443 0
M  V30 17431 H 1635.58 3.48913 4.27743 0
M  V30 17432 H 1638.06 1.61364 3.83537 0
M  V30 17433 H 1636.94 1.7123 5.21509 0
M  V30 17434 H 1637.2 0.169043 4.41777 0
M  V30 17435 N 1636.26 -1.25243 0.956659 0
M  V30 17436 C 1637.22 -2.24054 0.482949 0
M  V30 17437 C 1638.22 -1.55367 -0.41447 0
M  V30 17438 O 1639.41 -1.72912 -0.211475 0
M  V30 17439 C 1636.54 -3.3956 -0.301975 0
M  V30 17440 H 1637.73 -2.67476 1.35634 0
M  V30 17441 H 1635.29 -1.37665 0.740138 0
M  V30 17442 H 1636.02 -3.01561 -1.19294 0
M  V30 17443 H 1635.81 -3.90607 0.341876 0
M  V30 17444 H 1637.3 -4.1293 -0.622807 0
M  V30 17445 N 1637.73 -0.725468 -1.3991 0
M  V30 17446 C 1638.98 -0.266188 -1.99936 0
M  V30 17447 C 1639.3 1.15022 -1.58207 0
M  V30 17448 O 1640.5 1.70853 -2.11001 0
M  V30 17449 C 1638.96 -0.424978 -3.57382 0
M  V30 17450 C 1638.57 -1.84866 -4.08079 0
M  V30 17451 C 1640.31 -0.0269907 -4.24491 0
M  V30 17452 C 1638.22 -1.95751 -5.58064 0
M  V30 17453 H 1637.15 -0.0957688 -0.747893 0
M  V30 17454 H 1639.8 -0.89798 -1.60027 0
M  V30 17455 H 1638.18 0.275558 -3.9504 0
M  V30 17456 H 1639.35 -2.58037 -3.81776 0
M  V30 17457 H 1637.67 -2.199 -3.536 0
M  V30 17458 H 1640.27 -0.0874638 -5.34628 0
M  V30 17459 H 1640.61 1.01639 -4.03702 0
M  V30 17460 H 1641.14 -0.678332 -3.91974 0
M  V30 17461 H 1637.88 -2.98244 -5.83721 0
M  V30 17462 H 1637.4 -1.27004 -5.862 0
M  V30 17463 H 1639.08 -1.73422 -6.23325 0
M  V30 17464 N 1639.21 1.50354 -0.472382 0
M  V30 17465 C 1640.46 2.01934 0.0820006 0
M  V30 17466 C 1640.78 1.35636 1.401 0
M  V30 17467 O 1640.05 0.502127 1.89355 0
M  V30 17468 H 1638.63 0.746258 0.0332943 0
M  V30 17469 H 1641.29 1.84671 -0.623099 0
M  V30 17470 H 1640.39 3.11232 0.232565 0
M  V30 17471 N 1640.69 0.205039 1.56261 0
M  V30 17472 C 1641.97 -0.479238 1.89638 0
M  V30 17473 C 1642.35 -1.78938 1.12002 0
M  V30 17474 O 1641.7 -2.27398 0.224179 0
M  V30 17475 C 1641.91 -0.688324 3.42145 0
M  V30 17476 C 1643.25 -1.00322 4.12578 0
M  V30 17477 O 1644.28 -0.775697 3.47651 0
M  V30 17478 O 1643.14 -1.43412 5.27347 0
M  V30 17479 H 1640.23 -0.251125 0.78795 0
M  V30 17480 H 1642.78 0.245994 1.67908 0
M  V30 17481 H 1641.55 0.236479 3.90585 0
M  V30 17482 H 1641.17 -1.46565 3.696 0
M  V30 17483 N 1642.17 -1.57451 -0.0684915 0
M  V30 17484 C 1643.42 -1.87041 -0.765505 0
M  V30 17485 C 1643.74 -0.797489 -1.77947 0
M  V30 17486 O 1643.01 0.17349 -1.9513 0
M  V30 17487 H 1641.59 -0.690203 -0.285708 0
M  V30 17488 H 1644.25 -1.94851 -0.0437957 0
M  V30 17489 H 1643.35 -2.8466 -1.27966 0
M  V30 17490 N 1643.65 0.339955 -1.5389 0
M  V30 17491 C 1644.58 1.44096 -1.76951 0
M  V30 17492 C 1645.56 1.50367 -0.618758 0
M  V30 17493 O 1646.74 1.68028 -0.854329 0
M  V30 17494 C 1643.87 2.82307 -1.87137 0
M  V30 17495 C 1642.92 2.93645 -3.09314 0
M  V30 17496 S 1643.75 2.59742 -4.68288 0
M  V30 17497 C 1644.9 4.00055 -4.81359 0
M  V30 17498 H 1645.14 1.24318 -2.7006 0
M  V30 17499 H 1642.67 0.535835 -1.44804 0
M  V30 17500 H 1644.63 3.61931 -1.93692 0
M  V30 17501 H 1643.29 2.99378 -0.950349 0
M  V30 17502 H 1642.48 3.94927 -3.13127 0
M  V30 17503 H 1642.08 2.21974 -3.01004 0
M  V30 17504 H 1644.38 4.94619 -4.62989 0
M  V30 17505 H 1645.32 4.01234 -5.83452 0
M  V30 17506 H 1645.73 3.88248 -4.09785 0
M  V30 17507 N 1645.13 1.45684 0.601159 0
M  V30 17508 C 1646.04 1.57396 1.73965 0
M  V30 17509 C 1647.05 0.458133 1.6786 0
M  V30 17510 O 1648.23 0.719717 1.88101 0
M  V30 17511 C 1645.29 1.54363 3.1044 0
M  V30 17512 C 1644.35 2.77034 3.27949 0
M  V30 17513 C 1643.59 2.74136 4.57914 0
M  V30 17514 O 1643.81 1.81829 5.40643 0
M  V30 17515 O 1642.74 3.65428 4.78274 0
M  V30 17516 H 1646.57 2.5364 1.67034 0
M  V30 17517 H 1644.15 1.28267 0.766017 0
M  V30 17518 H 1646.04 1.55302 3.91739 0
M  V30 17519 H 1644.71 0.612723 3.17848 0
M  V30 17520 H 1643.62 2.81655 2.46214 0
M  V30 17521 H 1644.95 3.69272 3.25422 0
M  V30 17522 N 1646.6 -0.84422 1.33082 0
M  V30 17523 C 1647.85 -1.59912 1.24235 0
M  V30 17524 C 1648.18 -1.93538 -0.193223 0
M  V30 17525 O 1647.43 -1.58418 -1.14901 0
M  V30 17526 C 1647.73 -2.92225 2.05765 0
M  V30 17527 C 1647.4 -2.77985 3.55014 0
M  V30 17528 C 1646.06 -2.73809 3.95705 0
M  V30 17529 C 1648.41 -2.63171 4.49878 0
M  V30 17530 C 1645.74 -2.5271 5.29485 0
M  V30 17531 C 1648.09 -2.43607 5.83814 0
M  V30 17532 C 1646.76 -2.37829 6.23693 0
M  V30 17533 H 1646.03 -0.58516 0.454608 0
M  V30 17534 H 1648.67 -0.978493 1.64614 0
M  V30 17535 H 1646.98 -3.58465 1.58146 0
M  V30 17536 H 1648.68 -3.49678 1.96281 0
M  V30 17537 H 1645.27 -2.82065 3.22703 0
M  V30 17538 H 1649.45 -2.65435 4.19354 0
M  V30 17539 H 1644.71 -2.4668 5.59427 0
M  V30 17540 H 1648.88 -2.31126 6.56927 0
M  V30 17541 H 1646.51 -2.21241 7.27294 0
M  V30 17542 N 1648.08 -1.16463 -1.0618 0
M  V30 17543 C 1649.31 -0.971075 -1.82696 0
M  V30 17544 C 1649.72 0.480716 -1.82578 0
M  V30 17545 O 1649.08 1.33366 -1.24579 0
M  V30 17546 C 1649.13 -1.49235 -3.29259 0
M  V30 17547 O 1648.85 -2.88728 -3.29496 0
M  V30 17548 C 1650.35 -1.34197 -4.225 0
M  V30 17549 H 1647.57 -0.34415 -0.576023 0
M  V30 17550 H 1650.12 -1.54517 -1.33958 0
M  V30 17551 H 1648.27 -0.960503 -3.75304 0
M  V30 17552 H 1648.69 -3.12618 -4.21153 0
M  V30 17553 H 1650.16 -1.75499 -5.23358 0
M  V30 17554 H 1650.64 -0.287685 -4.38257 0
M  V30 17555 H 1651.24 -1.86349 -3.82301 0
M  V30 17556 N 1649.56 1.24734 -0.963288 0
M  V30 17557 C 1650.81 1.91987 -0.618386 0
M  V30 17558 C 1651.12 1.76179 0.849726 0
M  V30 17559 O 1652.33 2.38082 1.30496 0
M  V30 17560 C 1650.78 3.44079 -1.05534 0
M  V30 17561 C 1650.39 3.68582 -2.5466 0
M  V30 17562 C 1652.14 4.17209 -0.783378 0
M  V30 17563 C 1650.04 5.14223 -2.92111 0
M  V30 17564 H 1648.97 0.718836 -0.227575 0
M  V30 17565 H 1651.62 1.41453 -1.1689 0
M  V30 17566 H 1650.01 3.93624 -0.433168 0
M  V30 17567 H 1651.18 3.29655 -3.2197 0
M  V30 17568 H 1649.49 3.08729 -2.79419 0
M  V30 17569 H 1652.09 5.24503 -1.03924 0
M  V30 17570 H 1652.43 4.15355 0.280352 0
M  V30 17571 H 1652.97 3.736 -1.36631 0
M  V30 17572 H 1649.71 5.21195 -3.97537 0
M  V30 17573 H 1649.23 5.54164 -2.29482 0
M  V30 17574 H 1650.91 5.82419 -2.81775 0
M  V30 17575 N 1651.04 0.732878 1.39523 0
M  V30 17576 C 1651.99 0.0676184 2.279 0
M  V30 17577 C 1652.97 -0.7148 1.44151 0
M  V30 17578 O 1654.16 -0.584158 1.67083 0
M  V30 17579 C 1651.29 -0.840482 3.32853 0
M  V30 17580 C 1650.38 -0.052326 4.24068 0
M  V30 17581 N 1650.77 0.973429 4.96345 0
M  V30 17582 C 1649.07 -0.282301 4.45106 0
M  V30 17583 C 1649.77 1.44851 5.63376 0
M  V30 17584 N 1648.74 0.767499 5.38155 0
M  V30 17585 H 1652.55 0.853533 2.81233 0
M  V30 17586 H 1650.06 0.567016 1.5218 0
M  V30 17587 H 1652.06 -1.33254 3.95031 0
M  V30 17588 H 1650.72 -1.62558 2.81078 0
M  V30 17589 H 1651.73 1.35474 4.99867 0
M  V30 17590 H 1648.41 -1.04237 4.04278 0
M  V30 17591 H 1649.8 2.30179 6.31242 0
M  V30 17592 N 1652.52 -1.50101 0.480349 0
M  V30 17593 C 1653.76 -2.01974 -0.0712904 0
M  V30 17594 C 1654.08 -1.36377 -1.39378 0
M  V30 17595 O 1653.35 -0.512162 -1.89087 0
M  V30 17596 H 1651.93 -0.746424 -0.0293362 0
M  V30 17597 H 1654.6 -1.84338 0.632883 0
M  V30 17598 H 1653.69 -3.11351 -0.216057 0
M  V30 17599 N 1653.99 -0.213323 -1.5615 0
M  V30 17600 C 1655.27 0.469174 -1.8989 0
M  V30 17601 C 1655.65 1.78341 -1.1295 0
M  V30 17602 O 1655 2.27276 -0.236236 0
M  V30 17603 C 1655.21 0.67017 -3.42505 0
M  V30 17604 C 1656.56 0.981324 -4.13104 0
M  V30 17605 O 1657.58 0.757249 -3.48058 0
M  V30 17606 O 1656.44 1.40614 -5.281 0
M  V30 17607 H 1653.53 0.246943 -0.789271 0
M  V30 17608 H 1656.08 -0.254896 -1.67775 0
M  V30 17609 H 1654.85 -0.257189 -3.90454 0
M  V30 17610 H 1654.47 1.44603 -3.70372 0
M  V30 17611 N 1655.47 1.57485 0.0601405 0
M  V30 17612 C 1656.72 1.87816 0.75707 0
M  V30 17613 C 1657.05 0.806616 1.76986 0
M  V30 17614 O 1656.3 -0.196101 1.94715 0
M  V30 17615 C 1656.6 3.24839 1.49045 0
M  V30 17616 C 1656.27 4.46665 0.616559 0
M  V30 17617 C 1654.93 4.79731 0.375769 0
M  V30 17618 C 1657.28 5.21199 0.0113073 0
M  V30 17619 C 1654.61 5.84737 -0.479564 0
M  V30 17620 C 1656.96 6.27111 -0.831546 0
M  V30 17621 C 1655.63 6.58671 -1.0821 0
M  V30 17622 H 1654.9 0.687266 0.277032 0
M  V30 17623 H 1657.54 1.91492 0.0175593 0
M  V30 17624 H 1655.85 3.17007 2.30247 0
M  V30 17625 H 1657.54 3.45545 2.03469 0
M  V30 17626 H 1654.13 4.20792 0.814371 0
M  V30 17627 H 1658.32 4.95957 0.18443 0
M  V30 17628 H 1653.57 6.07581 -0.682308 0
M  V30 17629 H 1657.75 6.84021 -1.30721 0
M  V30 17630 H 1655.38 7.39863 -1.74663 0
M  V30 17631 N 1656.95 -0.331789 1.54068 0
M  V30 17632 C 1657.9 -1.40798 1.82879 0
M  V30 17633 C 1658.87 -1.51753 0.675292 0
M  V30 17634 O 1660.05 -1.67105 0.920905 0
M  V30 17635 C 1657.19 -2.7728 2.0545 0
M  V30 17636 C 1656.31 -2.75022 3.33147 0
M  V30 17637 C 1655.44 -4.03297 3.45723 0
M  V30 17638 C 1654.48 -3.95314 4.67326 0
M  V30 17639 N 1653.62 -5.15303 4.76872 0
M  V30 17640 H 1658.46 -1.15529 2.74695 0
M  V30 17641 H 1655.99 -0.559411 1.36048 0
M  V30 17642 H 1657.95 -3.56611 2.16528 0
M  V30 17643 H 1656.58 -3.00875 1.16935 0
M  V30 17644 H 1655.63 -1.87729 3.30851 0
M  V30 17645 H 1656.95 -2.65003 4.22581 0
M  V30 17646 H 1656.1 -4.91057 3.56297 0
M  V30 17647 H 1654.84 -4.16112 2.54367 0
M  V30 17648 H 1653.84 -3.05939 4.56817 0
M  V30 17649 H 1655.07 -3.84072 5.60058 0
M  V30 17650 H 1653.01 -5.28639 3.88429 0
M  V30 17651 H 1652.93 -5.07588 5.60259 0
M  V30 17652 H 1654.2 -6.04801 4.91769 0
M  V30 17653 N 1658.43 -1.46001 -0.593424 0
M  V30 17654 C 1659.34 -1.58316 -1.73128 0
M  V30 17655 C 1660.35 -0.467029 -1.67615 0
M  V30 17656 O 1661.53 -0.729682 -1.87717 0
M  V30 17657 C 1658.6 -1.56007 -3.09617 0
M  V30 17658 C 1657.66 -2.78769 -3.26475 0
M  V30 17659 C 1656.89 -2.76561 -4.56453 0
M  V30 17660 O 1657.11 -1.84694 -5.39671 0
M  V30 17661 O 1656.05 -3.67959 -4.76329 0
M  V30 17662 H 1659.87 -2.54522 -1.65686 0
M  V30 17663 H 1657.46 -1.28672 -0.759204 0
M  V30 17664 H 1659.34 -1.57377 -3.9091 0
M  V30 17665 H 1658.01 -0.629571 -3.17519 0
M  V30 17666 H 1656.92 -2.82956 -2.44717 0
M  V30 17667 H 1658.25 -3.70992 -3.23459 0
M  V30 17668 N 1659.91 0.83715 -1.33527 0
M  V30 17669 C 1660.85 1.94709 -1.23924 0
M  V30 17670 C 1661.82 1.65684 -0.117494 0
M  V30 17671 O 1663.01 1.88489 -0.296057 0
M  V30 17672 C 1660.15 3.3071 -0.986146 0
M  V30 17673 C 1659.26 3.72121 -2.19432 0
M  V30 17674 C 1658.4 4.96999 -1.87524 0
M  V30 17675 C 1657.44 5.3095 -3.04563 0
M  V30 17676 N 1656.57 6.47006 -2.72632 0
M  V30 17677 H 1661.41 2.02255 -2.18854 0
M  V30 17678 H 1658.95 0.989703 -1.08827 0
M  V30 17679 H 1660.91 4.09065 -0.819834 0
M  V30 17680 H 1659.54 3.22716 -0.0735786 0
M  V30 17681 H 1658.59 2.89274 -2.47032 0
M  V30 17682 H 1659.9 3.93192 -3.06923 0
M  V30 17683 H 1659.06 5.83107 -1.67546 0
M  V30 17684 H 1657.79 4.77901 -0.972714 0
M  V30 17685 H 1656.8 4.43346 -3.25153 0
M  V30 17686 H 1658.02 5.51995 -3.95573 0
M  V30 17687 H 1655.97 6.29391 -1.8494 0
M  V30 17688 H 1655.89 6.6818 -3.53654 0
M  V30 17689 H 1657.16 7.3622 -2.56125 0
M  V30 17690 N 1661.38 1.17024 1.05561 0
M  V30 17691 C 1662.31 0.906823 2.15172 0
M  V30 17692 C 1663.3 -0.149745 1.6944 0
M  V30 17693 O 1664.48 -0.000287092 1.942 0
M  V30 17694 C 1661.61 0.415251 3.44809 0
M  V30 17695 C 1660.56 1.41058 4.04088 0
M  V30 17696 C 1659.89 0.777109 5.29023 0
M  V30 17697 C 1661.19 2.78258 4.42007 0
M  V30 17698 H 1662.88 1.82347 2.37466 0
M  V30 17699 H 1660.43 0.878162 1.14124 0
M  V30 17700 H 1662.38 0.218407 4.20834 0
M  V30 17701 H 1661.11 -0.536924 3.22156 0
M  V30 17702 H 1659.77 1.5941 3.30127 0
M  V30 17703 H 1659.41 -0.181784 5.02671 0
M  V30 17704 H 1659.11 1.44151 5.69644 0
M  V30 17705 H 1660.64 0.590455 6.07738 0
M  V30 17706 H 1662.05 2.63645 5.09082 0
M  V30 17707 H 1660.45 3.41241 4.93634 0
M  V30 17708 H 1661.52 3.3295 3.52523 0
M  V30 17709 N 1662.86 -1.24221 0.969889 0
M  V30 17710 C 1664.28 -1.4454 0.676778 0
M  V30 17711 C 1664.48 -1.86591 -0.760656 0
M  V30 17712 O 1663.53 -2.00538 -1.5343 0
M  V30 17713 C 1664.85 -2.50546 1.66274 0
M  V30 17714 C 1666.4 -2.64372 1.67561 0
M  V30 17715 C 1666.87 -3.73577 2.6496 0
M  V30 17716 N 1668.36 -3.81007 2.63416 0
M  V30 17717 C 1669.1 -4.65037 3.35452 0
M  V30 17718 N 1668.59 -5.53238 4.17013 0
M  V30 17719 N 1670.39 -4.59138 3.24266 0
M  V30 17720 H 1662.54 -0.952237 1.89858 0
M  V30 17721 H 1664.8 -0.479972 0.817515 0
M  V30 17722 H 1664.51 -2.26541 2.6902 0
M  V30 17723 H 1664.38 -3.48745 1.43724 0
M  V30 17724 H 1666.77 -2.87733 0.655247 0
M  V30 17725 H 1666.85 -1.66523 1.94174 0
M  V30 17726 H 1666.49 -3.50965 3.67132 0
M  V30 17727 H 1666.42 -4.70944 2.35626 0
M  V30 17728 H 1668.91 -3.17969 2.04216 0
M  V30 17729 H 1669.23 -6.1432 4.68861 0
M  V30 17730 H 1667.57 -5.52896 4.21107 0
M  V30 17731 H 1670.76 -3.89247 2.60008 0
M  V30 17732 H 1670.93 -5.24399 3.8067 0
M  V30 17733 N 1664.34 -0.740267 -1.39132 0
M  V30 17734 C 1665.76 -0.416412 -1.54072 0
M  V30 17735 C 1665.96 1.07211 -1.70611 0
M  V30 17736 O 1665.01 1.85822 -1.70958 0
M  V30 17737 C 1666.33 -1.20403 -2.75542 0
M  V30 17738 C 1667.87 -1.19278 -2.89382 0
M  V30 17739 C 1668.35 -1.96308 -4.13796 0
M  V30 17740 N 1669.84 -1.93501 -4.20846 0
M  V30 17741 C 1670.57 -2.49907 -5.16075 0
M  V30 17742 N 1670.07 -3.14973 -6.17061 0
M  V30 17743 N 1671.86 -2.39911 -5.0833 0
M  V30 17744 H 1664.01 -1.70513 -1.26645 0
M  V30 17745 H 1666.28 -0.722111 -0.614214 0
M  V30 17746 H 1665.98 -2.25754 -2.69681 0
M  V30 17747 H 1665.86 -0.811986 -3.68357 0
M  V30 17748 H 1668.24 -0.147385 -2.94732 0
M  V30 17749 H 1668.33 -1.62424 -1.97616 0
M  V30 17750 H 1667.97 -3.00851 -4.09208 0
M  V30 17751 H 1667.9 -1.50565 -5.04617 0
M  V30 17752 H 1670.39 -1.46104 -3.48514 0
M  V30 17753 H 1670.7 -3.55467 -6.86195 0
M  V30 17754 H 1669.05 -3.19064 -6.17433 0
M  V30 17755 H 1672.24 -1.88718 -4.28373 0
M  V30 17756 H 1672.41 -2.84169 -5.82368 0
M  V30 17757 N 1665.82 1.49844 -0.488302 0
M  V30 17758 C 1667.04 2.07313 0.0600937 0
M  V30 17759 C 1667.47 1.3478 1.3121 0
M  V30 17760 O 1666.83 0.400634 1.76818 0
M  V30 17761 C 1666.87 3.59268 0.309658 0
M  V30 17762 O 1665.98 3.88381 1.38688 0
M  V30 17763 H 1665.32 0.663681 -0.0205947 0
M  V30 17764 H 1667.85 1.92818 -0.684284 0
M  V30 17765 H 1667.86 4.04344 0.545 0
M  V30 17766 H 1666.53 4.11474 -0.605146 0
M  V30 17767 H 1665.11 3.55128 1.13749 0
M  V30 17768 N 1667.3 0.221601 1.56034 0
M  V30 17769 C 1668.24 -0.688502 2.20291 0
M  V30 17770 C 1669.21 -1.19028 1.15851 0
M  V30 17771 O 1670.4 -1.24936 1.44206 0
M  V30 17772 C 1667.54 -1.89101 2.88678 0
M  V30 17773 C 1666.65 -1.42812 4.07711 0
M  V30 17774 C 1665.79 -2.5882 4.63881 0
M  V30 17775 C 1664.83 -2.09268 5.75216 0
M  V30 17776 N 1663.96 -3.18549 6.25676 0
M  V30 17777 H 1668.8 -0.133824 2.97699 0
M  V30 17778 H 1666.34 -0.0543007 1.47 0
M  V30 17779 H 1668.3 -2.59704 3.26512 0
M  V30 17780 H 1666.93 -2.41857 2.13788 0
M  V30 17781 H 1665.98 -0.617019 3.75363 0
M  V30 17782 H 1667.29 -1.02478 4.8816 0
M  V30 17783 H 1666.45 -3.37505 5.04158 0
M  V30 17784 H 1665.18 -3.02443 3.82596 0
M  V30 17785 H 1664.19 -1.29045 5.34441 0
M  V30 17786 H 1665.41 -1.66645 6.58336 0
M  V30 17787 H 1663.36 -3.61653 5.47305 0
M  V30 17788 H 1663.28 -2.82466 7.01248 0
M  V30 17789 H 1664.55 -3.97369 6.7061 0
M  V30 17790 N 1668.77 -1.57515 -0.0517878 0
M  V30 17791 C 1669.71 -2.00388 -1.09178 0
M  V30 17792 C 1670.69 -0.88418 -1.36459 0
M  V30 17793 O 1671.87 -1.14816 -1.49498 0
M  V30 17794 C 1669 -2.35764 -2.43173 0
M  V30 17795 C 1668.04 -3.57947 -2.31898 0
M  V30 17796 S 1668.88 -5.08 -1.69399 0
M  V30 17797 C 1670.03 -5.46597 -3.04931 0
M  V30 17798 H 1670.26 -2.88287 -0.726501 0
M  V30 17799 H 1667.8 -1.52178 -0.261014 0
M  V30 17800 H 1669.76 -2.56818 -3.20241 0
M  V30 17801 H 1668.42 -1.48358 -2.76855 0
M  V30 17802 H 1667.61 -3.80281 -3.30761 0
M  V30 17803 H 1667.21 -3.36626 -1.62969 0
M  V30 17804 H 1669.5 -5.45891 -4.01259 0
M  V30 17805 H 1670.45 -6.47173 -2.87355 0
M  V30 17806 H 1670.85 -4.74072 -3.06457 0
M  V30 17807 N 1670.25 0.323614 -1.54242 0
M  V30 17808 C 1671.22 1.38126 -1.82904 0
M  V30 17809 C 1672.22 1.44723 -0.700853 0
M  V30 17810 O 1673.41 1.44751 -0.969161 0
M  V30 17811 C 1670.54 2.76858 -1.98903 0
M  V30 17812 H 1671.73 1.13966 -2.77402 0
M  V30 17813 H 1669.28 0.559094 -1.45958 0
M  V30 17814 H 1670.02 3.06274 -1.06616 0
M  V30 17815 H 1669.8 2.73464 -2.80998 0
M  V30 17816 H 1671.29 3.53372 -2.22526 0
M  V30 17817 N 1671.73 1.46313 0.585673 0
M  V30 17818 C 1672.66 1.59511 1.70524 0
M  V30 17819 C 1673.64 0.445578 1.6416 0
M  V30 17820 O 1674.83 0.671455 1.82223 0
M  V30 17821 C 1671.96 1.58229 3.09162 0
M  V30 17822 C 1670.91 2.72122 3.30354 0
M  V30 17823 C 1670.24 2.559 4.69489 0
M  V30 17824 C 1671.54 4.13969 3.18476 0
M  V30 17825 H 1673.23 2.53229 1.59735 0
M  V30 17826 H 1670.78 1.2187 0.767046 0
M  V30 17827 H 1672.73 1.66056 3.87303 0
M  V30 17828 H 1671.45 0.610535 3.20843 0
M  V30 17829 H 1670.11 2.63759 2.54611 0
M  V30 17830 H 1669.76 1.56814 4.77931 0
M  V30 17831 H 1669.46 3.32289 4.84621 0
M  V30 17832 H 1670.99 2.65613 5.49802 0
M  V30 17833 H 1672.4 4.23459 3.86465 0
M  V30 17834 H 1670.8 4.90922 3.45131 0
M  V30 17835 H 1671.87 4.34334 2.15598 0
M  V30 17836 N 1673.21 -0.830057 1.33969 0
M  V30 17837 C 1674.16 -1.96189 1.2495 0
M  V30 17838 C 1675.15 -1.68743 0.149047 0
M  V30 17839 O 1676.36 -1.77248 0.31357 0
M  V30 17840 H 1672.73 -0.644184 0.387983 0
M  V30 17841 H 1674.7 -2.0092 2.20621 0
M  V30 17842 C 1673.45 -3.32569 1.01456 0
M  V30 17843 H 1672.78 -3.54232 1.85363 0
M  V30 17844 H 1674.22 -4.12237 0.991786 0
M  V30 17845 C 1672.67 -3.35715 -0.282331 0
M  V30 17846 O 1673.2 -3.80556 -1.28609 0
M  V30 17847 N 1671.41 -2.8891 -0.312952 0
M  V30 17848 H 1670.96 -2.52613 0.504446 0
M  V30 17849 H 1670.92 -2.91397 -1.18047 0
M  V30 17850 N 1674.69 -1.17582 -1.04939 0
M  V30 17851 C 1675.64 -0.891102 -2.14854 0
M  V30 17852 C 1676.63 0.145242 -1.68776 0
M  V30 17853 O 1677.84 -0.00207978 -1.8 0
M  V30 17854 H 1674.21 -0.270641 -0.701611 0
M  V30 17855 H 1676.18 -1.82519 -2.36071 0
M  V30 17856 C 1674.93 -0.423679 -3.45109 0
M  V30 17857 H 1674.25 -1.2126 -3.80967 0
M  V30 17858 H 1675.69 -0.263369 -4.23181 0
M  V30 17859 C 1674.15 0.859085 -3.25763 0
M  V30 17860 O 1674.68 1.9253 -3.52555 0
M  V30 17861 N 1672.89 0.80824 -2.79134 0
M  V30 17862 H 1672.44 -0.0596431 -2.57531 0
M  V30 17863 H 1672.39 1.66697 -2.6657 0
M  V30 17864 N 1676.17 1.23705 -0.976463 0
M  V30 17865 C 1677.11 2.25023 -0.513156 0
M  V30 17866 C 1678.08 1.60003 0.445903 0
M  V30 17867 O 1679.27 1.87481 0.354323 0
M  V30 17868 C 1676.41 3.44619 0.182088 0
M  V30 17869 C 1675.52 4.24209 -0.816769 0
M  V30 17870 C 1674.66 5.31112 -0.0967355 0
M  V30 17871 C 1673.69 6.02406 -1.08507 0
M  V30 17872 N 1672.83 7.00991 -0.394455 0
M  V30 17873 H 1677.67 2.64019 -1.38194 0
M  V30 17874 H 1675.21 1.29777 -0.692566 0
M  V30 17875 H 1677.17 4.12835 0.601948 0
M  V30 17876 H 1675.8 3.06435 1.01477 0
M  V30 17877 H 1674.85 3.55448 -1.35503 0
M  V30 17878 H 1676.16 4.73445 -1.57006 0
M  V30 17879 H 1675.31 6.05504 0.380686 0
M  V30 17880 H 1674.05 4.82806 0.689187 0
M  V30 17881 H 1673.06 5.26809 -1.57328 0
M  V30 17882 H 1674.28 6.528 -1.87159 0
M  V30 17883 H 1672.23 6.54943 0.372331 0
M  V30 17884 H 1672.15 7.48152 -1.08647 0
M  V30 17885 H 1673.41 7.79476 0.0607087 0
M  V30 17886 N 1677.64 0.747635 1.38738 0
M  V30 17887 C 1678.59 0.105258 2.32362 0
M  V30 17888 C 1679.59 -0.711921 1.53714 0
M  V30 17889 O 1680.79 -0.611687 1.69288 0
M  V30 17890 H 1677.17 0.0152406 0.751846 0
M  V30 17891 H 1679.14 0.911057 2.84152 0
M  V30 17892 C 1677.89 -0.778221 3.38879 0
M  V30 17893 H 1677.21 -0.158806 3.99484 0
M  V30 17894 H 1678.65 -1.19509 4.06809 0
M  V30 17895 C 1677.11 -1.91819 2.76961 0
M  V30 17896 O 1677.64 -3.01187 2.65799 0
M  V30 17897 N 1675.84 -1.71143 2.34859 0
M  V30 17898 H 1675.39 -0.821885 2.44137 0
M  V30 17899 H 1675.35 -2.47588 1.93772 0
M  V30 17900 N 1679.12 -1.49583 0.496242 0
M  V30 17901 C 1680.07 -2.30677 -0.298474 0
M  V30 17902 C 1681.06 -1.39074 -0.967207 0
M  V30 17903 O 1682.27 -1.56147 -0.895439 0
M  V30 17904 H 1678.64 -0.743138 -0.11511 0
M  V30 17905 H 1680.62 -2.95632 0.405533 0
M  V30 17906 C 1679.36 -3.20297 -1.35297 0
M  V30 17907 H 1678.69 -3.90708 -0.847789 0
M  V30 17908 H 1680.13 -3.79987 -1.88111 0
M  V30 17909 C 1678.59 -2.39584 -2.36857 0
M  V30 17910 O 1679.12 -2.09662 -3.42644 0
M  V30 17911 N 1677.32 -2.01695 -2.09206 0
M  V30 17912 H 1676.87 -2.26229 -1.23201 0
M  V30 17913 H 1676.83 -1.47998 -2.77388 0
M  V30 17914 N 1680.6 -0.229873 -1.55915 0
M  V30 17915 C 1681.85 0.400157 -1.98813 0
M  V30 17916 C 1682.18 1.58821 -1.11756 0
M  V30 17917 O 1681.45 1.93692 -0.177094 0
M  V30 17918 C 1681.74 0.826623 -3.50484 0
M  V30 17919 C 1681.59 -0.365647 -4.48311 0
M  V30 17920 C 1682.91 1.6798 -4.06781 0
M  V30 17921 H 1680.03 0.143977 -0.7228 0
M  V30 17922 H 1682.67 -0.327775 -1.87151 0
M  V30 17923 H 1680.82 1.44687 -3.60552 0
M  V30 17924 H 1682.49 -1.00391 -4.50244 0
M  V30 17925 H 1680.73 -1.01168 -4.21838 0
M  V30 17926 H 1681.41 -0.0241816 -5.51995 0
M  V30 17927 H 1683.88 1.15639 -3.99708 0
M  V30 17928 H 1682.76 1.94708 -5.13206 0
M  V30 17929 H 1683.02 2.64594 -3.54179 0
M  V30 17930 N 1682.08 1.5754 0.0434337 0
M  V30 17931 C 1683.33 1.87789 0.736074 0
M  V30 17932 C 1683.64 0.826466 1.77282 0
M  V30 17933 O 1684.85 1.01771 2.51704 0
M  V30 17934 C 1683.3 3.33207 1.36018 0
M  V30 17935 C 1682.91 4.46547 0.360532 0
M  V30 17936 C 1684.65 3.72623 2.03353 0
M  V30 17937 C 1682.56 5.83018 0.992167 0
M  V30 17938 H 1681.49 0.700614 0.278667 0
M  V30 17939 H 1684.14 1.83497 -0.00997697 0
M  V30 17940 H 1682.52 3.32199 2.15546 0
M  V30 17941 H 1683.7 4.58999 -0.406987 0
M  V30 17942 H 1682.01 4.1587 -0.209931 0
M  V30 17943 H 1684.61 4.71893 2.51437 0
M  V30 17944 H 1684.95 3.03874 2.84546 0
M  V30 17945 H 1685.49 3.75744 1.3062 0
M  V30 17946 H 1682.22 6.55131 0.219964 0
M  V30 17947 H 1681.74 5.74313 1.72987 0
M  V30 17948 H 1683.42 6.29283 1.50374 0
M  V30 17949 N 1683.56 -0.31543 1.54411 0
M  V30 17950 C 1684.8 -1.05033 1.72663 0
M  V30 17951 C 1685.12 -1.8828 0.507504 0
M  V30 17952 O 1684.39 -1.89968 -0.478418 0
M  V30 17953 H 1682.97 -0.39077 0.636638 0
M  V30 17954 H 1685.64 -0.3499 1.91733 0
M  V30 17955 H 1684.73 -1.71171 2.60973 0
M  V30 17956 N 1685.03 -1.46622 -0.577906 0
M  V30 17957 C 1685.98 -1.57926 -1.70769 0
M  V30 17958 C 1686.98 -0.447509 -1.63382 0
M  V30 17959 O 1688.18 -0.624559 -1.68817 0
M  V30 17960 H 1684.56 -0.496618 -0.56469 0
M  V30 17961 H 1686.53 -2.52908 -1.58367 0
M  V30 17962 C 1685.28 -1.59124 -3.09152 0
M  V30 17963 H 1684.6 -2.45549 -3.15509 0
M  V30 17964 H 1686.04 -1.71087 -3.8795 0
M  V30 17965 C 1684.5 -0.320734 -3.3537 0
M  V30 17966 O 1685.03 0.586999 -3.97388 0
M  V30 17967 N 1683.24 -0.207156 -2.89861 0
M  V30 17968 H 1682.78 -0.946744 -2.39572 0
M  V30 17969 H 1682.74 0.642028 -3.07775 0
M  V30 17970 N 1686.51 0.822941 -1.34408 0
M  V30 17971 C 1687.74 1.61607 -1.29992 0
M  V30 17972 C 1688.16 1.87695 0.123301 0
M  V30 17973 O 1687.52 1.45247 1.08504 0
M  V30 17974 C 1687.57 2.934 -2.09639 0
M  V30 17975 O 1686.67 3.85467 -1.4659 0
M  V30 17976 H 1686.01 0.491504 -0.446452 0
M  V30 17977 H 1688.54 1.02264 -1.7721 0
M  V30 17978 H 1688.55 3.42966 -2.20994 0
M  V30 17979 H 1687.23 2.73736 -3.13116 0
M  V30 17980 H 1685.81 3.43984 -1.43978 0
M  V30 17981 N 1687.99 1.18137 1.04314 0
M  V30 17982 C 1689.22 0.998567 1.80865 0
M  V30 17983 C 1689.63 -0.456239 1.83617 0
M  V30 17984 O 1688.97 -1.32867 1.26855 0
M  V30 17985 C 1689.03 1.47397 3.27894 0
M  V30 17986 C 1688.7 2.95266 3.48808 0
M  V30 17987 C 1689.69 3.93139 3.40202 0
M  V30 17988 C 1687.38 3.33641 3.75485 0
M  V30 17989 C 1689.37 5.27383 3.57974 0
M  V30 17990 C 1687.06 4.68049 3.92904 0
M  V30 17991 C 1688.06 5.64729 3.84149 0
M  V30 17992 O 1687.75 6.96704 4.01072 0
M  V30 17993 H 1687.48 0.353025 0.576498 0
M  V30 17994 H 1690.03 1.57054 1.32375 0
M  V30 17995 H 1688.26 0.845625 3.77341 0
M  V30 17996 H 1689.95 1.25546 3.85996 0
M  V30 17997 H 1690.72 3.64838 3.1956 0
M  V30 17998 H 1686.6 2.58951 3.81399 0
M  V30 17999 H 1690.14 6.02831 3.51056 0
M  V30 18000 H 1686.04 4.96052 4.1304 0
M  V30 18001 H 1686.81 7.03571 4.18246 0
M  V30 18002 N 1689.47 -1.23186 0.98301 0
M  V30 18003 C 1690.43 -2.22979 0.530366 0
M  V30 18004 C 1691.43 -1.56211 -0.381421 0
M  V30 18005 O 1692.62 -1.73321 -0.17475 0
M  V30 18006 C 1689.75 -3.40124 -0.229882 0
M  V30 18007 H 1690.95 -2.64539 1.41277 0
M  V30 18008 H 1688.5 -1.36064 0.769172 0
M  V30 18009 H 1689.23 -3.04024 -1.12871 0
M  V30 18010 H 1689.02 -3.89794 0.424653 0
M  V30 18011 H 1690.51 -4.14158 -0.535078 0
M  V30 18012 N 1690.95 -0.754982 -1.38339 0
M  V30 18013 C 1692.19 -0.311146 -1.9969 0
M  V30 18014 C 1692.52 1.11138 -1.60229 0
M  V30 18015 O 1691.79 1.76024 -0.859794 0
M  V30 18016 H 1690.37 -0.112052 -0.738548 0
M  V30 18017 H 1693.03 -0.969386 -1.69083 0
M  V30 18018 H 1692.12 -0.375392 -3.09834 0
M  V30 18019 N 1692.42 1.49318 -0.504168 0
M  V30 18020 C 1693.35 2.32027 0.261837 0
M  V30 18021 C 1694.34 1.4045 0.959575 0
M  V30 18022 O 1695.52 1.69357 0.950365 0
M  V30 18023 C 1692.65 3.21039 1.3248 0
M  V30 18024 C 1691.6 4.21435 0.746752 0
M  V30 18025 C 1690.93 4.99405 1.91047 0
M  V30 18026 C 1692.23 5.21631 -0.264315 0
M  V30 18027 H 1693.92 2.96317 -0.428544 0
M  V30 18028 H 1691.47 1.42497 -0.207539 0
M  V30 18029 H 1693.42 3.77714 1.86843 0
M  V30 18030 H 1692.15 2.54699 2.04441 0
M  V30 18031 H 1690.81 3.6591 0.22485 0
M  V30 18032 H 1690.45 4.29509 2.61784 0
M  V30 18033 H 1690.15 5.67338 1.52975 0
M  V30 18034 H 1691.68 5.58924 2.45837 0
M  V30 18035 H 1693.09 5.72981 0.191288 0
M  V30 18036 H 1691.49 5.97472 -0.561039 0
M  V30 18037 H 1692.56 4.70346 -1.17911 0
M  V30 18038 N 1693.9 0.238138 1.5579 0
M  V30 18039 C 1694.85 -0.681413 2.22395 0
M  V30 18040 C 1695.84 -1.18691 1.20867 0
M  V30 18041 O 1697.05 -1.14482 1.38903 0
M  V30 18042 H 1693.43 -0.238207 0.713275 0
M  V30 18043 H 1695.4 -0.0964141 2.98244 0
M  V30 18044 C 1694.15 -1.87137 2.93045 0
M  V30 18045 H 1693.47 -1.49153 3.70936 0
M  V30 18046 H 1694.91 -2.4922 3.43024 0
M  V30 18047 C 1693.37 -2.73709 1.9643 0
M  V30 18048 O 1693.9 -3.72973 1.49178 0
M  V30 18049 N 1692.1 -2.40092 1.6372 0
M  V30 18050 H 1691.65 -1.59423 2.02341 0
M  V30 18051 H 1691.61 -2.98293 0.993414 0
M  V30 18052 N 1695.38 -1.57561 -0.0350783 0
M  V30 18053 C 1696.61 -1.93644 -0.742753 0
M  V30 18054 C 1697.03 -0.837655 -1.68419 0
M  V30 18055 O 1696.39 0.207069 -1.80114 0
M  V30 18056 C 1696.44 -3.28779 -1.48111 0
M  V30 18057 O 1695.54 -3.20604 -2.59398 0
M  V30 18058 H 1694.88 -0.633103 -0.200192 0
M  V30 18059 H 1697.41 -2.04599 0.00765271 0
M  V30 18060 H 1697.42 -3.63527 -1.85236 0
M  V30 18061 H 1696.1 -4.08316 -0.790608 0
M  V30 18062 H 1694.67 -2.97477 -2.2486 0
M  V30 18063 N 1696.86 0.307236 -1.54576 0
M  V30 18064 C 1698.14 1.06243 -1.64231 0
M  V30 18065 C 1698.52 2.05415 -0.486589 0
M  V30 18066 O 1697.86 2.22565 0.517384 0
M  V30 18067 C 1698.07 1.74985 -3.01962 0
M  V30 18068 C 1699.42 2.2741 -3.58566 0
M  V30 18069 O 1700.45 1.85027 -3.04374 0
M  V30 18070 O 1699.3 3.05051 -4.53438 0
M  V30 18071 H 1696.4 0.490693 -0.665695 0
M  V30 18072 H 1698.94 0.305822 -1.66922 0
M  V30 18073 H 1697.72 1.02939 -3.77517 0
M  V30 18074 H 1697.34 2.57417 -3.03022 0
M  V30 18075 N 1698.34 1.46926 0.570122 0
M  V30 18076 C 1699.28 1.5883 1.69929 0
M  V30 18077 C 1700.28 0.456167 1.63143 0
M  V30 18078 O 1701.48 0.633503 1.68484 0
M  V30 18079 H 1697.86 0.499606 0.562048 0
M  V30 18080 H 1699.83 2.53744 1.57023 0
M  V30 18081 C 1698.58 1.60761 3.08304 0
M  V30 18082 H 1697.9 2.47219 3.14202 0
M  V30 18083 H 1699.34 1.73142 3.87037 0
M  V30 18084 C 1697.8 0.338515 3.35195 0
M  V30 18085 O 1698.33 -0.565917 3.97694 0
M  V30 18086 N 1696.54 0.222525 2.89747 0
M  V30 18087 H 1696.08 0.959435 2.39066 0
M  V30 18088 H 1696.04 -0.625697 3.08111 0
M  V30 18089 N 1699.82 -0.815801 1.34842 0
M  V30 18090 C 1701.23 -1.10999 1.1468 0
M  V30 18091 C 1701.43 -2.01445 -0.0469339 0
M  V30 18092 O 1700.49 -2.42007 -0.720322 0
M  V30 18093 C 1701.8 -1.74984 2.44543 0
M  V30 18094 C 1703.35 -1.87447 2.50665 0
M  V30 18095 C 1703.82 -2.54848 3.80548 0
M  V30 18096 N 1705.31 -2.62341 3.81748 0
M  V30 18097 C 1706.05 -3.15239 4.7897 0
M  V30 18098 N 1705.55 -3.68646 5.86577 0
M  V30 18099 N 1707.34 -3.13706 4.66417 0
M  V30 18100 H 1699.49 -0.214351 2.11316 0
M  V30 18101 H 1701.75 -0.157666 0.934797 0
M  V30 18102 H 1701.46 -1.1599 3.32023 0
M  V30 18103 H 1701.33 -2.7478 2.5841 0
M  V30 18104 H 1703.72 -2.45587 1.63619 0
M  V30 18105 H 1703.8 -0.865325 2.40719 0
M  V30 18106 H 1703.44 -1.9736 4.67987 0
M  V30 18107 H 1703.37 -3.5628 3.87778 0
M  V30 18108 H 1705.87 -2.24493 3.03992 0
M  V30 18109 H 1706.18 -4.07281 6.56766 0
M  V30 18110 H 1704.52 -3.6687 5.90281 0
M  V30 18111 H 1707.71 -2.71255 3.81495 0
M  V30 18112 H 1707.89 -3.54626 5.4235 0
M  V30 18113 N 1701.29 -1.18689 -1.03686 0
M  V30 18114 C 1702.54 -0.984601 -1.76952 0
M  V30 18115 C 1702.87 0.485417 -1.88345 0
M  V30 18116 O 1702.12 1.37665 -1.39093 0
M  V30 18117 C 1702.42 -1.58911 -3.20128 0
M  V30 18118 C 1702.09 -3.0859 -3.2876 0
M  V30 18119 C 1700.75 -3.49442 -3.30823 0
M  V30 18120 C 1703.1 -4.04603 -3.28551 0
M  V30 18121 C 1700.43 -4.84875 -3.30323 0
M  V30 18122 C 1702.78 -5.39956 -3.29591 0
M  V30 18123 C 1701.45 -5.8025 -3.29948 0
M  V30 18124 H 1700.72 -0.360291 -0.647512 0
M  V30 18125 H 1703.36 -1.47811 -1.21754 0
M  V30 18126 H 1701.67 -1.0177 -3.78352 0
M  V30 18127 H 1703.37 -1.40797 -3.75469 0
M  V30 18128 H 1699.96 -2.76034 -3.27877 0
M  V30 18129 H 1704.14 -3.7409 -3.26145 0
M  V30 18130 H 1699.4 -5.15386 -3.28919 0
M  V30 18131 H 1703.57 -6.14117 -3.28379 0
M  V30 18132 H 1701.2 -6.85169 -3.29315 0
M  V30 18133 N 1702.77 1.22662 -0.989529 0
M  V30 18134 C 1703.68 2.28162 -0.545835 0
M  V30 18135 C 1704.7 1.69251 0.403762 0
M  V30 18136 O 1705.87 1.99563 0.271428 0
M  V30 18137 C 1702.94 3.46434 0.135808 0
M  V30 18138 C 1702 4.20673 -0.85633 0
M  V30 18139 C 1701.23 5.33298 -0.207121 0
M  V30 18140 O 1701.46 5.6157 0.99975 0
M  V30 18141 O 1700.39 5.94977 -0.910288 0
M  V30 18142 H 1704.22 2.68276 -1.42344 0
M  V30 18143 H 1701.8 1.28766 -0.757609 0
M  V30 18144 H 1703.68 4.18207 0.517776 0
M  V30 18145 H 1702.36 3.08252 0.988035 0
M  V30 18146 H 1701.26 3.51186 -1.28917 0
M  V30 18147 H 1702.6 4.62726 -1.67765 0
M  V30 18148 N 1704.25 0.762308 1.37937 0
M  V30 18149 C 1705.47 0.332217 2.04722 0
M  V30 18150 C 1705.9 -1.03417 1.57119 0
M  V30 18151 O 1705.26 -1.6608 0.727117 0
M  V30 18152 C 1705.31 0.373899 3.58656 0
M  V30 18153 O 1704.41 -0.629024 4.07575 0
M  V30 18154 H 1703.75 0.145471 0.647869 0
M  V30 18155 H 1706.28 1.03586 1.7644 0
M  V30 18156 H 1706.29 0.22785 4.07363 0
M  V30 18157 H 1704.97 1.37079 3.92661 0
M  V30 18158 H 1703.54 -0.446871 3.70213 0
M  V30 18159 N 1705.73 -1.49049 0.51208 0
M  V30 18160 C 1707 -1.95383 -0.0920331 0
M  V30 18161 C 1707.38 -1.4539 -1.53053 0
M  V30 18162 O 1706.73 -0.672485 -2.1838 0
M  V30 18163 C 1706.94 -3.48999 0.00673901 0
M  V30 18164 C 1708.29 -4.24292 -0.161602 0
M  V30 18165 O 1709.31 -3.56135 -0.0679198 0
M  V30 18166 O 1708.17 -5.45343 -0.355351 0
M  V30 18167 H 1705.27 -0.822175 -0.0891992 0
M  V30 18168 H 1707.81 -1.59647 0.575406 0
M  V30 18169 H 1706.59 -3.78055 1.00948 0
M  V30 18170 H 1706.21 -3.91383 -0.700353 0
M  V30 18171 N 1707.21 -0.246397 -1.55662 0
M  V30 18172 C 1708.44 0.38209 -2.03036 0
M  V30 18173 C 1708.84 1.52119 -1.12501 0
M  V30 18174 O 1708.19 1.83227 -0.131753 0
M  V30 18175 C 1708.25 0.952012 -3.46666 0
M  V30 18176 C 1707.91 -0.0547805 -4.56967 0
M  V30 18177 C 1708.91 -0.864138 -5.12668 0
M  V30 18178 C 1706.59 -0.180725 -5.01975 0
M  V30 18179 C 1708.59 -1.7859 -6.1187 0
M  V30 18180 C 1706.28 -1.106 -6.01008 0
M  V30 18181 C 1707.27 -1.90711 -6.55834 0
M  V30 18182 O 1706.96 -2.81678 -7.52936 0
M  V30 18183 H 1706.69 0.095009 -0.66929 0
M  V30 18184 H 1709.25 -0.367701 -2.02082 0
M  V30 18185 H 1707.48 1.75136 -3.44767 0
M  V30 18186 H 1709.17 1.49052 -3.77542 0
M  V30 18187 H 1709.93 -0.77742 -4.78729 0
M  V30 18188 H 1705.81 0.432761 -4.58964 0
M  V30 18189 H 1709.36 -2.41162 -6.54589 0
M  V30 18190 H 1705.25 -1.19364 -6.34368 0
M  V30 18191 H 1706.02 -2.76034 -7.7055 0
M  V30 18192 N 1708.68 1.57577 0.026722 0
M  V30 18193 C 1709.93 1.8856 0.716115 0
M  V30 18194 C 1710.25 0.845223 1.76395 0
M  V30 18195 O 1711.45 1.04435 2.5061 0
M  V30 18196 C 1709.91 3.34631 1.32476 0
M  V30 18197 C 1709.52 4.46904 0.313149 0
M  V30 18198 C 1711.26 3.74759 1.9939 0
M  V30 18199 C 1709.17 5.84038 0.930274 0
M  V30 18200 H 1708.1 0.703531 0.271221 0
M  V30 18201 H 1710.75 1.83476 -0.0294388 0
M  V30 18202 H 1709.13 3.34466 2.1201 0
M  V30 18203 H 1710.3 4.58542 -0.455647 0
M  V30 18204 H 1708.62 4.15624 -0.254028 0
M  V30 18205 H 1711.22 4.74534 2.46418 0
M  V30 18206 H 1711.56 3.06875 2.81307 0
M  V30 18207 H 1712.09 3.77108 1.26628 0
M  V30 18208 H 1708.83 6.55327 0.150466 0
M  V30 18209 H 1708.35 5.76116 1.66886 0
M  V30 18210 H 1710.03 6.30842 1.43692 0
M  V30 18211 N 1710.16 -0.299034 1.54737 0
M  V30 18212 C 1711.39 -1.0529 1.78105 0
M  V30 18213 C 1711.8 -1.80868 0.541499 0
M  V30 18214 O 1711.16 -1.75834 -0.488726 0
M  V30 18215 C 1711.21 -2.03192 2.9899 0
M  V30 18216 O 1710.93 -1.30681 4.18156 0
M  V30 18217 C 1712.43 -2.90602 3.34762 0
M  V30 18218 H 1709.65 -0.312173 0.593961 0
M  V30 18219 H 1712.2 -0.337712 2.01692 0
M  V30 18220 H 1710.35 -2.70211 2.77606 0
M  V30 18221 H 1710.77 -1.96446 4.86322 0
M  V30 18222 H 1712.24 -3.55144 4.22584 0
M  V30 18223 H 1712.72 -3.59006 2.53004 0
M  V30 18224 H 1713.32 -2.29112 3.58313 0
M  V30 18225 N 1711.64 -1.47227 -0.562322 0
M  V30 18226 C 1712.59 -1.55739 -1.66521 0
M  V30 18227 C 1713.57 -0.416678 -1.55411 0
M  V30 18228 O 1714.77 -0.666302 -1.6398 0
M  V30 18229 C 1711.89 -1.5699 -3.05302 0
M  V30 18230 C 1710.98 -2.76427 -3.21634 0
M  V30 18231 N 1711.37 -4.01172 -3.0805 0
M  V30 18232 C 1709.67 -2.73081 -3.52623 0
M  V30 18233 C 1710.37 -4.81132 -3.26936 0
M  V30 18234 N 1709.35 -4.13362 -3.53034 0
M  V30 18235 H 1713.15 -2.49965 -1.5458 0
M  V30 18236 H 1710.66 -1.4315 -0.766937 0
M  V30 18237 H 1712.66 -1.61178 -3.84483 0
M  V30 18238 H 1711.32 -0.638563 -3.18359 0
M  V30 18239 H 1712.33 -4.3211 -2.85485 0
M  V30 18240 H 1709.01 -1.89062 -3.72239 0
M  V30 18241 H 1710.4 -5.9002 -3.21444 0
M  V30 18242 N 1713.12 0.808639 -1.35273 0
M  V30 18243 C 1714.07 1.94177 -1.28055 0
M  V30 18244 C 1715.06 1.68485 -0.175874 0
M  V30 18245 O 1716.27 1.76726 -0.341729 0
M  V30 18246 H 1712.64 0.63793 -0.398183 0
M  V30 18247 H 1714.61 1.97385 -2.2379 0
M  V30 18248 C 1713.36 3.30913 -1.06734 0
M  V30 18249 H 1712.68 3.51238 -1.90975 0
M  V30 18250 H 1714.12 4.10607 -1.05724 0
M  V30 18251 C 1712.58 3.36122 0.228886 0
M  V30 18252 O 1713.11 3.82553 1.22539 0
M  V30 18253 N 1711.32 2.89371 0.266949 0
M  V30 18254 H 1710.87 2.51778 -0.544571 0
M  V30 18255 H 1710.82 2.93238 1.13396 0
M  V30 18256 N 1714.6 1.19237 1.03055 0
M  V30 18257 C 1715.51 0.943876 2.14775 0
M  V30 18258 C 1716.52 -0.0955384 1.73738 0
M  V30 18259 O 1717.7 0.0887187 2.01204 0
M  V30 18260 C 1714.76 0.48402 3.43305 0
M  V30 18261 C 1713.82 1.59262 3.98665 0
M  V30 18262 C 1713.06 1.15461 5.21061 0
M  V30 18263 O 1713.28 0.0174841 5.70397 0
M  V30 18264 O 1712.21 1.95648 5.69215 0
M  V30 18265 H 1716.04 1.87894 2.38599 0
M  V30 18266 H 1713.63 0.975046 1.13195 0
M  V30 18267 H 1715.51 0.236135 4.20738 0
M  V30 18268 H 1714.18 -0.422626 3.20929 0
M  V30 18269 H 1713.09 1.89464 3.22574 0
M  V30 18270 H 1714.42 2.47576 4.25402 0
M  V30 18271 N 1716.07 -1.22136 0.99602 0
M  V30 18272 C 1716.98 -2.27869 0.557927 0
M  V30 18273 C 1718 -1.69462 -0.394781 0
M  V30 18274 O 1719.18 -1.99704 -0.26084 0
M  V30 18275 C 1716.24 -3.46501 -0.117434 0
M  V30 18276 C 1715.3 -4.20213 0.878627 0
M  V30 18277 C 1714.54 -5.33181 0.2354 0
M  V30 18278 O 1714.76 -5.62093 -0.969954 0
M  V30 18279 O 1713.69 -5.94486 0.941828 0
M  V30 18280 H 1717.52 -2.67517 1.43765 0
M  V30 18281 H 1715.1 -1.28362 0.764428 0
M  V30 18282 H 1716.99 -4.18476 -0.49559 0
M  V30 18283 H 1715.66 -3.08772 -0.971674 0
M  V30 18284 H 1714.57 -3.50497 1.30777 0
M  V30 18285 H 1715.9 -4.6183 1.70217 0
M  V30 18286 N 1717.55 -0.769612 -1.37531 0
M  V30 18287 C 1718.83 -0.257788 -1.93894 0
M  V30 18288 C 1719.21 1.24679 -1.70348 0
M  V30 18289 O 1718.56 2.02892 -1.05106 0
M  V30 18290 C 1718.77 -0.628857 -3.43288 0
M  V30 18291 C 1720.12 -0.597452 -4.20376 0
M  V30 18292 O 1721.14 -0.568117 -3.5164 0
M  V30 18293 O 1720 -0.622627 -5.42942 0
M  V30 18294 H 1717.09 -0.0588144 -0.824906 0
M  V30 18295 H 1719.64 -0.85082 -1.4683 0
M  V30 18296 H 1718.41 -1.66733 -3.54 0
M  V30 18297 H 1718.03 -0.00865929 -3.97599 0
M  V30 18298 N 1719.03 1.48775 -0.519977 0
M  V30 18299 C 1720.26 2.06895 0.0139983 0
M  V30 18300 C 1720.67 1.37786 1.29075 0
M  V30 18301 O 1720.03 0.462168 1.76551 0
M  V30 18302 C 1720.08 3.60621 0.251999 0
M  V30 18303 O 1719.8 4.27132 -0.974158 0
M  V30 18304 C 1721.3 4.35508 0.827483 0
M  V30 18305 H 1718.52 0.670373 -0.0290011 0
M  V30 18306 H 1721.07 1.91302 -0.722762 0
M  V30 18307 H 1719.22 3.75853 0.938783 0
M  V30 18308 H 1719.64 5.19129 -0.748697 0
M  V30 18309 H 1721.11 5.43877 0.943492 0
M  V30 18310 H 1721.59 3.99261 1.82996 0
M  V30 18311 H 1722.19 4.24929 0.177578 0
M  V30 18312 N 1720.51 0.254649 1.55529 0
M  V30 18313 C 1721.74 -0.371317 2.03236 0
M  V30 18314 C 1722.15 -1.5152 1.13306 0
M  V30 18315 O 1721.49 -1.83154 0.141468 0
M  V30 18316 C 1721.55 -0.933614 3.47166 0
M  V30 18317 C 1721.22 0.0790139 4.56932 0
M  V30 18318 C 1722.21 0.891314 5.12203 0
M  V30 18319 C 1719.9 0.207343 5.01872 0
M  V30 18320 C 1721.89 1.81833 6.10914 0
M  V30 18321 C 1719.58 1.13785 6.00413 0
M  V30 18322 C 1720.58 1.94186 6.54813 0
M  V30 18323 O 1720.26 2.85667 7.51432 0
M  V30 18324 H 1720 -0.0914583 0.669785 0
M  V30 18325 H 1722.55 0.378413 2.01884 0
M  V30 18326 H 1720.78 -1.73305 3.45691 0
M  V30 18327 H 1722.47 -1.47048 3.78327 0
M  V30 18328 H 1723.24 0.802797 4.7831 0
M  V30 18329 H 1719.11 -0.408414 4.59187 0
M  V30 18330 H 1722.66 2.4463 6.53301 0
M  V30 18331 H 1718.56 1.22726 6.33726 0
M  V30 18332 H 1719.32 2.80116 7.69075 0
M  V30 18333 N 1721.99 -1.57589 -0.0183649 0
M  V30 18334 C 1723.21 -1.94421 -0.722172 0
M  V30 18335 C 1723.64 -0.855471 -1.67521 0
M  V30 18336 O 1722.99 0.187954 -1.80323 0
M  V30 18337 C 1723.04 -3.30331 -1.44615 0
M  V30 18338 O 1722.15 -3.23337 -2.55982 0
M  V30 18339 H 1721.49 -0.63519 -0.193466 0
M  V30 18340 H 1724.02 -2.04579 0.0293527 0
M  V30 18341 H 1724.03 -3.65471 -1.8137 0
M  V30 18342 H 1722.7 -4.09132 -0.747256 0
M  V30 18343 H 1721.28 -2.99845 -2.21692 0
M  V30 18344 N 1723.46 0.290824 -1.54893 0
M  V30 18345 C 1724.41 1.37898 -1.87315 0
M  V30 18346 C 1725.41 1.52001 -0.747794 0
M  V30 18347 O 1726.61 1.53998 -0.93192 0
M  V30 18348 H 1722.99 0.460824 -0.59426 0
M  V30 18349 H 1724.96 1.07794 -2.7825 0
M  V30 18350 C 1723.71 2.73568 -2.14606 0
M  V30 18351 H 1723.03 2.63501 -3.00678 0
M  V30 18352 H 1724.47 3.48693 -2.41225 0
M  V30 18353 C 1722.93 3.23291 -0.947865 0
M  V30 18354 O 1723.46 4.01325 -0.173479 0
M  V30 18355 N 1721.67 2.80743 -0.750444 0
M  V30 18356 H 1721.21 2.174 -1.38184 0
M  V30 18357 H 1721.17 3.14361 0.0496746 0
M  V30 18358 N 1724.94 1.47523 0.554506 0
M  V30 18359 C 1726.19 1.53546 1.30791 0
M  V30 18360 C 1726.5 0.203555 1.94538 0
M  V30 18361 O 1727.71 0.14181 2.71129 0
M  V30 18362 C 1726.17 2.70684 2.37188 0
M  V30 18363 C 1725.77 4.10415 1.7962 0
M  V30 18364 C 1727.52 2.86002 3.13693 0
M  V30 18365 C 1725.43 5.18849 2.83813 0
M  V30 18366 H 1724.36 0.571539 0.491792 0
M  V30 18367 H 1727.01 1.73803 0.58861 0
M  V30 18368 H 1725.39 2.43812 3.12045 0
M  V30 18369 H 1726.56 4.47202 1.11117 0
M  V30 18370 H 1724.88 4.00006 1.15691 0
M  V30 18371 H 1727.47 3.64181 3.91505 0
M  V30 18372 H 1727.82 1.94545 3.68046 0
M  V30 18373 H 1728.35 3.12657 2.45948 0
M  V30 18374 H 1725.09 6.12192 2.34311 0
M  V30 18375 H 1724.61 4.86577 3.50718 0
M  V30 18376 H 1726.29 5.45915 3.47255 0
M  V30 18377 N 1726.42 -0.801453 1.357 0
M  V30 18378 C 1727.65 -1.59518 1.32547 0
M  V30 18379 C 1728.07 -1.87868 -0.0934243 0
M  V30 18380 O 1727.43 -1.46955 -1.06179 0
M  V30 18381 C 1727.48 -2.90028 2.14281 0
M  V30 18382 O 1726.58 -3.83086 1.52704 0
M  V30 18383 H 1725.92 -0.48434 0.454215 0
M  V30 18384 H 1728.45 -0.994315 1.78814 0
M  V30 18385 H 1728.46 -3.39406 2.26423 0
M  V30 18386 H 1727.14 -2.6872 3.17431 0
M  V30 18387 H 1725.71 -3.4165 1.49432 0
M  V30 18388 N 1727.9 -1.19782 -1.02421 0
M  V30 18389 C 1729.13 -1.02721 -1.79254 0
M  V30 18390 C 1729.54 0.426969 -1.84319 0
M  V30 18391 O 1728.88 1.30832 -1.28953 0
M  V30 18392 C 1728.94 -1.52594 -3.25508 0
M  V30 18393 C 1728.61 -3.00778 -3.44066 0
M  V30 18394 C 1729.6 -3.98502 -3.33905 0
M  V30 18395 C 1727.29 -3.39572 -3.7013 0
M  V30 18396 C 1729.28 -5.33012 -3.49539 0
M  V30 18397 C 1726.97 -4.7424 -3.85408 0
M  V30 18398 C 1727.97 -5.70769 -3.75116 0
M  V30 18399 O 1727.65 -7.02997 -3.89937 0
M  V30 18400 H 1727.39 -0.362151 -0.570808 0
M  V30 18401 H 1729.94 -1.5914 -1.2986 0
M  V30 18402 H 1728.17 -0.90555 -3.75948 0
M  V30 18403 H 1729.86 -1.31671 -3.8395 0
M  V30 18404 H 1730.63 -3.69875 -3.13715 0
M  V30 18405 H 1726.5 -2.64986 -3.77231 0
M  V30 18406 H 1730.05 -6.0834 -3.41421 0
M  V30 18407 H 1725.95 -5.02561 -4.05096 0
M  V30 18408 H 1726.71 -7.10136 -4.07 0
M  V30 18409 N 1729.38 1.21606 -1.00248 0
M  V30 18410 C 1730.63 1.90231 -0.682401 0
M  V30 18411 C 1730.95 1.78324 0.78903 0
M  V30 18412 O 1730.22 1.17653 1.56635 0
M  V30 18413 H 1728.8 0.704132 -0.249414 0
M  V30 18414 H 1731.46 1.47751 -1.27105 0
M  V30 18415 H 1730.55 2.97183 -0.953351 0
M  V30 18416 N 1730.86 0.776895 1.37121 0
M  V30 18417 C 1732.08 0.353911 2.04358 0
M  V30 18418 C 1732.51 -1.01745 1.58207 0
M  V30 18419 O 1731.86 -1.653 0.744691 0
M  V30 18420 C 1731.91 0.411918 3.5824 0
M  V30 18421 O 1731.02 -0.58576 4.08219 0
M  V30 18422 H 1730.36 0.152335 0.64629 0
M  V30 18423 H 1732.89 1.05452 1.75331 0
M  V30 18424 H 1732.9 0.271043 4.07099 0
M  V30 18425 H 1731.57 1.41236 3.91185 0
M  V30 18426 H 1730.15 -0.40758 3.70666 0
M  V30 18427 N 1732.33 -1.48497 0.527859 0
M  V30 18428 C 1733.28 -2.2656 -0.255874 0
M  V30 18429 C 1734.27 -1.32572 -0.911777 0
M  V30 18430 O 1735.46 -1.57124 -0.814934 0
M  V30 18431 C 1732.59 -3.17591 -1.30348 0
M  V30 18432 C 1731.67 -4.19051 -0.652474 0
M  V30 18433 N 1732.07 -5.05128 0.260561 0
M  V30 18434 C 1730.36 -4.36619 -0.909929 0
M  V30 18435 C 1731.06 -5.78214 0.635906 0
M  V30 18436 N 1730.04 -5.436 -0.00251422 0
M  V30 18437 H 1733.84 -2.90487 0.446571 0
M  V30 18438 H 1731.36 -1.58677 0.345742 0
M  V30 18439 H 1733.35 -3.72173 -1.87865 0
M  V30 18440 H 1732.01 -2.55219 -2.00733 0
M  V30 18441 H 1733.02 -5.14017 0.633035 0
M  V30 18442 H 1729.7 -3.85437 -1.6045 0
M  V30 18443 H 1731.09 -6.57482 1.38446 0
M  V30 18444 N 1733.81 -0.262893 -1.55392 0
M  V30 18445 C 1735.23 0.09157 -1.59337 0
M  V30 18446 C 1735.43 1.55612 -1.28012 0
M  V30 18447 O 1734.48 2.30308 -1.0351 0
M  V30 18448 C 1735.8 -0.272043 -2.99467 0
M  V30 18449 C 1737.34 -0.217653 -3.12242 0
M  V30 18450 C 1737.82 -0.555528 -4.54618 0
M  V30 18451 N 1739.31 -0.506623 -4.60421 0
M  V30 18452 C 1740.05 -0.741013 -5.68592 0
M  V30 18453 N 1739.54 -1.03937 -6.84959 0
M  V30 18454 N 1741.33 -0.670636 -5.58085 0
M  V30 18455 H 1733.49 -1.2178 -1.74021 0
M  V30 18456 H 1735.75 -0.491131 -0.81086 0
M  V30 18457 H 1735.45 -1.29012 -3.27183 0
M  V30 18458 H 1735.33 0.393105 -3.75146 0
M  V30 18459 H 1737.72 0.791123 -2.84298 0
M  V30 18460 H 1737.8 -0.916884 -2.38803 0
M  V30 18461 H 1737.44 -1.56193 -4.83287 0
M  V30 18462 H 1737.37 0.165358 -5.2634 0
M  V30 18463 H 1739.86 -0.285397 -3.76821 0
M  V30 18464 H 1740.17 -1.20522 -7.63344 0
M  V30 18465 H 1738.52 -1.07702 -6.86604 0
M  V30 18466 H 1741.71 -0.437473 -4.66051 0
M  V30 18467 H 1741.88 -0.856692 -6.42312 0
M  V30 18468 N 1735.29 1.57597 0.0100073 0
M  V30 18469 C 1736.24 2.07788 1.00463 0
M  V30 18470 C 1737.21 0.971101 1.34755 0
M  V30 18471 O 1738.39 1.2429 1.44764 0
M  V30 18472 C 1735.53 2.57769 2.29454 0
M  V30 18473 C 1734.64 3.8231 2.01153 0
M  V30 18474 C 1733.78 4.2083 3.24154 0
M  V30 18475 C 1732.82 5.38236 2.91494 0
M  V30 18476 N 1731.96 5.72096 4.07001 0
M  V30 18477 H 1736.8 2.92504 0.569675 0
M  V30 18478 H 1734.33 1.44607 0.269645 0
M  V30 18479 H 1736.29 2.84821 3.04849 0
M  V30 18480 H 1734.92 1.75942 2.70637 0
M  V30 18481 H 1733.97 3.62227 1.16171 0
M  V30 18482 H 1735.28 4.67811 1.73074 0
M  V30 18483 H 1734.44 4.49111 4.07902 0
M  V30 18484 H 1733.18 3.34019 3.55363 0
M  V30 18485 H 1732.18 5.09688 2.06151 0
M  V30 18486 H 1733.41 6.26716 2.61543 0
M  V30 18487 H 1731.35 4.88243 4.38126 0
M  V30 18488 H 1731.27 6.52148 3.82411 0
M  V30 18489 H 1732.54 6.04964 4.91567 0
M  V30 18490 N 1736.77 -0.282606 1.55045 0
M  V30 18491 C 1738.18 -0.629284 1.4667 0
M  V30 18492 C 1738.38 -1.89931 0.672932 0
M  V30 18493 O 1737.44 -2.518 0.187946 0
M  V30 18494 C 1738.75 -0.765174 2.90802 0
M  V30 18495 C 1740.3 -0.859859 3.00958 0
M  V30 18496 C 1740.78 -1.0276 4.46323 0
M  V30 18497 N 1742.27 -1.09336 4.50111 0
M  V30 18498 C 1743 -1.24178 5.59792 0
M  V30 18499 N 1742.5 -1.358 6.7936 0
M  V30 18500 N 1744.29 -1.27212 5.47516 0
M  V30 18501 H 1736.44 0.551592 2.05113 0
M  V30 18502 H 1738.7 0.185277 0.929718 0
M  V30 18503 H 1738.41 0.0974312 3.51565 0
M  V30 18504 H 1738.28 -1.64848 3.39271 0
M  V30 18505 H 1740.67 -1.71294 2.40297 0
M  V30 18506 H 1740.75 0.0478484 2.55755 0
M  V30 18507 H 1740.4 -0.179219 5.07584 0
M  V30 18508 H 1740.33 -1.94981 4.89173 0
M  V30 18509 H 1742.82 -1.01633 3.63977 0
M  V30 18510 H 1743.13 -1.46932 7.58703 0
M  V30 18511 H 1741.48 -1.32822 6.8219 0
M  V30 18512 H 1744.67 -1.17756 4.53046 0
M  V30 18513 H 1744.84 -1.38435 6.3304 0
M  V30 18514 N 1738.25 -1.47815 -0.546675 0
M  V30 18515 C 1739.49 -1.54238 -1.29975 0
M  V30 18516 C 1739.81 -0.213869 -1.94427 0
M  V30 18517 O 1741.01 -0.156187 -2.7105 0
M  V30 18518 C 1739.47 -2.71938 -2.35749 0
M  V30 18519 C 1739.08 -4.11362 -1.77441 0
M  V30 18520 C 1740.82 -2.87661 -3.12172 0
M  V30 18521 C 1738.73 -5.20347 -2.81057 0
M  V30 18522 H 1737.66 -0.574139 -0.488754 0
M  V30 18523 H 1740.31 -1.74113 -0.579384 0
M  V30 18524 H 1738.69 -2.45463 -3.10747 0
M  V30 18525 H 1739.87 -4.47785 -1.08744 0
M  V30 18526 H 1738.18 -4.00614 -1.13568 0
M  V30 18527 H 1740.78 -3.66252 -3.89568 0
M  V30 18528 H 1741.12 -1.96494 -3.67009 0
M  V30 18529 H 1741.65 -3.13957 -2.44286 0
M  V30 18530 H 1738.39 -6.13426 -2.31061 0
M  V30 18531 H 1737.91 -4.8843 -3.48132 0
M  V30 18532 H 1739.59 -5.47748 -3.44355 0
M  V30 18533 N 1739.72 0.794246 -1.36123 0
M  V30 18534 C 1740.95 1.58068 -1.33035 0
M  V30 18535 C 1741.36 1.88979 0.0915079 0
M  V30 18536 O 1740.7 1.50212 1.05745 0
M  V30 18537 C 1740.77 2.93087 -2.08184 0
M  V30 18538 C 1740.43 2.84929 -3.57302 0
M  V30 18539 C 1741.43 2.57507 -4.51648 0
M  V30 18540 C 1739.11 3.03657 -4.00122 0
M  V30 18541 C 1741.11 2.48908 -5.86791 0
M  V30 18542 C 1738.79 2.94681 -5.35356 0
M  V30 18543 C 1739.79 2.67344 -6.28503 0
M  V30 18544 O 1739.48 2.58353 -7.61255 0
M  V30 18545 H 1739.21 0.497096 -0.458118 0
M  V30 18546 H 1741.77 0.994066 -1.79743 0
M  V30 18547 H 1740 3.53779 -1.56131 0
M  V30 18548 H 1741.68 3.54323 -1.98015 0
M  V30 18549 H 1742.45 2.42744 -4.19881 0
M  V30 18550 H 1738.33 3.23943 -3.27997 0
M  V30 18551 H 1741.87 2.27491 -6.59465 0
M  V30 18552 H 1737.77 3.09005 -5.66733 0
M  V30 18553 H 1738.54 2.7387 -7.71322 0
M  V30 18554 N 1741.2 1.20323 1.01785 0
M  V30 18555 C 1742.15 0.950946 2.10299 0
M  V30 18556 C 1743.12 -0.118376 1.65678 0
M  V30 18557 O 1744.3 0.0260849 1.90782 0
M  V30 18558 C 1741.44 0.507765 3.41344 0
M  V30 18559 C 1740.56 1.6451 3.9945 0
M  V30 18560 C 1739.69 1.15235 5.1855 0
M  V30 18561 C 1738.73 2.26285 5.68737 0
M  V30 18562 N 1737.87 1.78237 6.79099 0
M  V30 18563 H 1742.71 1.87999 2.31215 0
M  V30 18564 H 1740.24 0.937108 1.13387 0
M  V30 18565 H 1742.2 0.232143 4.16554 0
M  V30 18566 H 1740.83 -0.384278 3.20505 0
M  V30 18567 H 1739.88 2.03567 3.21348 0
M  V30 18568 H 1741.2 2.48135 4.32702 0
M  V30 18569 H 1740.35 0.832619 6.0096 0
M  V30 18570 H 1739.09 0.285978 4.86861 0
M  V30 18571 H 1738.09 2.59076 4.84933 0
M  V30 18572 H 1739.32 3.13397 6.02461 0
M  V30 18573 H 1737.27 0.939248 6.49241 0
M  V30 18574 H 1737.18 2.55443 7.11537 0
M  V30 18575 H 1738.45 1.4926 7.65076 0
M  V30 18576 N 1742.68 -1.21073 1.00892 0
M  V30 18577 C 1743.96 -1.85871 0.609214 0
M  V30 18578 C 1744.34 -1.90334 -0.913023 0
M  V30 18579 O 1743.68 -1.40552 -1.80159 0
M  V30 18580 C 1743.89 -3.25918 1.24813 0
M  V30 18581 C 1745.24 -4.02274 1.35871 0
M  V30 18582 O 1746.27 -3.35244 1.20375 0
M  V30 18583 O 1745.13 -5.22296 1.60838 0
M  V30 18584 H 1742.22 -0.800105 0.20919 0
M  V30 18585 H 1744.77 -1.28724 1.10581 0
M  V30 18586 H 1743.54 -3.17392 2.28862 0
M  V30 18587 H 1743.16 -3.90688 0.738124 0
M  V30 18588 N 1744.16 -0.784156 -1.36707 0
M  V30 18589 C 1745.07 -0.179959 -2.33909 0
M  V30 18590 C 1746.08 0.665092 -1.60787 0
M  V30 18591 O 1747.26 0.582111 -1.92804 0
M  V30 18592 C 1744.33 0.679323 -3.3998 0
M  V30 18593 C 1743.39 -0.183618 -4.28907 0
M  V30 18594 C 1742.62 0.634747 -5.29912 0
M  V30 18595 O 1742.84 1.87107 -5.38839 0
M  V30 18596 O 1741.78 0.0374113 -6.01888 0
M  V30 18597 H 1745.6 -0.983499 -2.87334 0
M  V30 18598 H 1743.19 -0.545521 -1.39084 0
M  V30 18599 H 1745.07 1.16948 -4.04847 0
M  V30 18600 H 1743.74 1.46084 -2.88862 0
M  V30 18601 H 1742.65 -0.720419 -3.67098 0
M  V30 18602 H 1743.98 -0.928522 -4.83363 0
M  V30 18603 N 1745.64 1.48215 -0.535727 0
M  V30 18604 C 1746.86 2.07399 -0.00589172 0
M  V30 18605 C 1747.29 1.38886 1.26856 0
M  V30 18606 O 1746.64 0.456684 1.75454 0
M  V30 18607 C 1746.69 3.60071 0.195203 0
M  V30 18608 O 1745.8 3.92596 1.26261 0
M  V30 18609 H 1745.14 0.662689 -0.0416988 0
M  V30 18610 H 1747.67 1.90543 -0.745281 0
M  V30 18611 H 1747.68 4.05873 0.416085 0
M  V30 18612 H 1746.35 4.0934 -0.735747 0
M  V30 18613 H 1744.93 3.58567 1.02393 0
M  V30 18614 N 1747.11 0.27113 1.5525 0
M  V30 18615 C 1748.06 -0.632507 2.19051 0
M  V30 18616 C 1749.05 -1.12135 1.15388 0
M  V30 18617 O 1750.24 -1.06709 1.41217 0
M  V30 18618 C 1747.37 -1.81804 2.91208 0
M  V30 18619 C 1746.46 -1.34656 4.02155 0
M  V30 18620 N 1746.85 -0.590954 5.02336 0
M  V30 18621 C 1745.14 -1.62985 4.15153 0
M  V30 18622 C 1745.85 -0.343602 5.80684 0
M  V30 18623 N 1744.82 -0.914869 5.35846 0
M  V30 18624 H 1748.62 -0.0473244 2.93862 0
M  V30 18625 H 1746.14 0.0745107 1.62229 0
M  V30 18626 H 1748.13 -2.47666 3.35361 0
M  V30 18627 H 1746.79 -2.40721 2.17907 0
M  V30 18628 H 1747.81 -0.238682 5.1735 0
M  V30 18629 H 1744.48 -2.22867 3.53039 0
M  V30 18630 H 1745.87 0.261284 6.71392 0
M  V30 18631 N 1748.59 -1.576 -0.00164943 0
M  V30 18632 C 1749.54 -2.08318 -0.993594 0
M  V30 18633 C 1750.51 -0.978234 -1.34238 0
M  V30 18634 O 1751.69 -1.25056 -1.44103 0
M  V30 18635 C 1748.83 -2.58982 -2.28084 0
M  V30 18636 C 1747.95 -3.83372 -1.99123 0
M  V30 18637 C 1747.08 -4.22543 -3.21917 0
M  V30 18638 C 1746.12 -5.39774 -2.88635 0
M  V30 18639 N 1745.26 -5.74247 -4.03962 0
M  V30 18640 H 1750.1 -2.92802 -0.554154 0
M  V30 18641 H 1747.64 -1.44748 -0.261973 0
M  V30 18642 H 1749.59 -2.86434 -3.03334 0
M  V30 18643 H 1748.22 -1.77374 -2.697 0
M  V30 18644 H 1747.28 -3.62838 -1.14248 0
M  V30 18645 H 1748.59 -4.68722 -1.70591 0
M  V30 18646 H 1747.74 -4.51268 -4.05514 0
M  V30 18647 H 1746.48 -3.35899 -3.53587 0
M  V30 18648 H 1745.49 -5.10774 -2.03445 0
M  V30 18649 H 1746.71 -6.28094 -2.58215 0
M  V30 18650 H 1744.66 -4.9056 -4.35531 0
M  V30 18651 H 1744.57 -6.54167 -3.78948 0
M  V30 18652 H 1745.84 -6.07563 -4.88352 0
M  V30 18653 N 1750.07 0.274379 -1.55193 0
M  V30 18654 C 1751.32 1.00418 -1.75387 0
M  V30 18655 C 1751.64 1.86868 -0.557244 0
M  V30 18656 O 1750.91 1.9117 0.427883 0
M  V30 18657 H 1749.49 0.373753 -0.646775 0
M  V30 18658 H 1752.15 0.298942 -1.92594 0
M  V30 18659 H 1751.25 1.64191 -2.6542 0
M  V30 18660 N 1751.55 1.48103 0.538828 0
M  V30 18661 C 1752.77 1.59568 1.32487 0
M  V30 18662 C 1753.2 0.252908 1.86392 0
M  V30 18663 O 1752.56 -0.774094 1.63944 0
M  V30 18664 C 1752.6 2.63863 2.45782 0
M  V30 18665 O 1751.71 2.20409 3.48559 0
M  V30 18666 H 1751.05 0.53538 0.392765 0
M  V30 18667 H 1753.58 1.94024 0.649299 0
M  V30 18668 H 1753.59 2.8486 2.92093 0
M  V30 18669 H 1752.26 3.61352 2.05906 0
M  V30 18670 H 1750.84 2.09588 3.08427 0
M  V30 18671 N 1753.03 -0.787016 1.36542 0
M  V30 18672 C 1754.28 -1.54019 1.30234 0
M  V30 18673 C 1754.59 -1.95259 -0.115496 0
M  V30 18674 O 1755.79 -2.69827 -0.300966 0
M  V30 18675 C 1754.25 -2.78048 2.28512 0
M  V30 18676 C 1753.86 -2.43968 3.75744 0
M  V30 18677 C 1755.6 -3.56025 2.31185 0
M  V30 18678 C 1753.51 -3.64406 4.65792 0
M  V30 18679 H 1752.44 -0.578185 0.483961 0
M  V30 18680 H 1755.09 -0.8634 1.61919 0
M  V30 18681 H 1753.47 -3.47538 1.89824 0
M  V30 18682 H 1754.65 -1.82359 4.23181 0
M  V30 18683 H 1752.96 -1.79197 3.75869 0
M  V30 18684 H 1755.56 -4.45514 2.9567 0
M  V30 18685 H 1755.9 -3.94783 1.32107 0
M  V30 18686 H 1756.43 -2.93516 2.68502 0
M  V30 18687 H 1753.17 -3.30742 5.65942 0
M  V30 18688 H 1752.69 -4.25173 4.2307 0
M  V30 18689 H 1754.37 -4.31406 4.82181 0
M  V30 18690 N 1754.5 -1.20861 -1.01145 0
M  V30 18691 C 1755.78 -0.93084 -1.72031 0
M  V30 18692 C 1756.16 0.559051 -2.03563 0
M  V30 18693 O 1755.51 1.52214 -1.70421 0
M  V30 18694 C 1755.72 -1.8092 -2.98444 0
M  V30 18695 C 1757.07 -2.05415 -3.71604 0
M  V30 18696 O 1758.09 -1.78216 -3.08411 0
M  V30 18697 O 1756.95 -2.5138 -4.85253 0
M  V30 18698 H 1754.04 -0.348488 -0.74999 0
M  V30 18699 H 1756.59 -1.3176 -1.06946 0
M  V30 18700 H 1755.36 -2.81783 -2.71503 0
M  V30 18701 H 1754.99 -1.42285 -3.71269 0
M  V30 18702 N 1755.98 1.20536 -1.01532 0
M  V30 18703 C 1757.21 1.93853 -0.723104 0
M  V30 18704 C 1757.63 1.74697 0.715994 0
M  V30 18705 O 1756.98 1.06013 1.48551 0
M  V30 18706 C 1757.03 3.45986 -1.04767 0
M  V30 18707 O 1756.75 3.64514 -2.43025 0
M  V30 18708 C 1758.26 4.36449 -0.776323 0
M  V30 18709 H 1755.48 0.616179 -0.265639 0
M  V30 18710 H 1758.02 1.53064 -1.35616 0
M  V30 18711 H 1756.17 3.84659 -0.460039 0
M  V30 18712 H 1756.59 4.58513 -2.54689 0
M  V30 18713 H 1758.06 5.41853 -1.05351 0
M  V30 18714 H 1758.54 4.38245 0.289524 0
M  V30 18715 H 1759.15 4.03437 -1.34605 0
M  V30 18716 N 1757.46 0.791395 1.36289 0
M  V30 18717 C 1758.71 0.364702 1.99189 0
M  V30 18718 C 1759.04 -1.06414 1.62808 0
M  V30 18719 O 1758.29 -1.75019 0.875611 0
M  V30 18720 C 1758.59 0.477795 3.54192 0
M  V30 18721 C 1758.26 1.86773 4.10398 0
M  V30 18722 C 1756.92 2.24802 4.25461 0
M  V30 18723 C 1759.27 2.77776 4.4101 0
M  V30 18724 C 1756.6 3.53233 4.68448 0
M  V30 18725 C 1758.95 4.05636 4.8543 0
M  V30 18726 C 1757.61 4.43685 4.98698 0
M  V30 18727 H 1756.88 0.133454 0.728883 0
M  V30 18728 H 1759.53 1.00924 1.62747 0
M  V30 18729 H 1757.84 -0.250238 3.91 0
M  V30 18730 H 1759.53 0.12865 4.00794 0
M  V30 18731 H 1756.12 1.56221 3.99115 0
M  V30 18732 H 1760.31 2.49648 4.2894 0
M  V30 18733 H 1755.56 3.82581 4.76908 0
M  V30 18734 H 1759.74 4.76264 5.0808 0
M  V30 18735 H 1757.36 5.43258 5.31766 0
M  V30 18736 N 1758.94 -1.47929 0.54358 0
M  V30 18737 C 1759.85 -2.33611 -0.215191 0
M  V30 18738 C 1760.87 -1.47343 -0.925526 0
M  V30 18739 O 1762.04 -1.80299 -0.897459 0
M  V30 18740 C 1759.11 -3.23755 -1.24031 0
M  V30 18741 C 1758.17 -4.25904 -0.538874 0
M  V30 18742 C 1757.4 -5.11741 -1.51516 0
M  V30 18743 O 1757.62 -4.9979 -2.74893 0
M  V30 18744 O 1756.56 -5.92722 -1.0471 0
M  V30 18745 H 1760.38 -2.99765 0.487279 0
M  V30 18746 H 1757.97 -1.46267 0.30434 0
M  V30 18747 H 1759.85 -3.79475 -1.8324 0
M  V30 18748 H 1758.53 -2.60245 -1.92495 0
M  V30 18749 H 1757.43 -3.73982 0.0940539 0
M  V30 18750 H 1758.77 -4.9209 0.104063 0
M  V30 18751 N 1760.42 -0.27936 -1.55104 0
M  V30 18752 C 1761.33 0.616249 -2.26361 0
M  V30 18753 C 1762.34 1.16656 -1.29102 0
M  V30 18754 O 1763.52 1.19596 -1.62046 0
M  V30 18755 C 1760.58 1.78191 -2.97403 0
M  V30 18756 C 1759.65 1.26785 -4.10151 0
M  V30 18757 C 1758.88 2.37795 -4.77796 0
M  V30 18758 O 1759.1 3.57242 -4.44673 0
M  V30 18759 O 1758.04 2.05711 -5.65656 0
M  V30 18760 H 1761.86 0.0388715 -3.03675 0
M  V30 18761 H 1759.45 -0.0466058 -1.49327 0
M  V30 18762 H 1761.33 2.4615 -3.42036 0
M  V30 18763 H 1760 2.3463 -2.23003 0
M  V30 18764 H 1758.91 0.554608 -3.69966 0
M  V30 18765 H 1760.24 0.749157 -4.86465 0
M  V30 18766 N 1761.9 1.57599 -0.0067085 0
M  V30 18767 C 1763.17 1.82097 0.714141 0
M  V30 18768 C 1763.55 0.885868 1.91613 0
M  V30 18769 O 1762.9 -0.0638506 2.28411 0
M  V30 18770 C 1763.11 3.30759 1.11354 0
M  V30 18771 C 1764.46 3.96668 1.51459 0
M  V30 18772 O 1765.48 3.35121 1.20715 0
M  V30 18773 O 1764.34 5.051 2.08654 0
M  V30 18774 H 1761.44 0.750071 0.348314 0
M  V30 18775 H 1763.98 1.69669 -0.0326766 0
M  V30 18776 H 1762.75 3.90455 0.257068 0
M  V30 18777 H 1762.38 3.48211 1.91924 0
M  V30 18778 N 1763.37 -0.266145 1.55336 0
M  V30 18779 C 1764.28 -1.35103 1.91793 0
M  V30 18780 C 1765.3 -1.5368 0.815985 0
M  V30 18781 O 1766.48 -1.67675 1.11567 0
M  V30 18782 C 1763.54 -2.68905 2.1884 0
M  V30 18783 C 1762.6 -2.59015 3.42359 0
M  V30 18784 C 1761.83 -3.86437 3.68106 0
M  V30 18785 O 1762.06 -4.87436 2.96247 0
M  V30 18786 O 1760.99 -3.86227 4.61641 0
M  V30 18787 H 1764.82 -1.07181 2.84158 0
M  V30 18788 H 1762.4 -0.465262 1.41971 0
M  V30 18789 H 1764.28 -3.48008 2.3763 0
M  V30 18790 H 1762.96 -2.96599 1.29656 0
M  V30 18791 H 1761.87 -1.78264 3.28896 0
M  V30 18792 H 1763.2 -2.3627 4.31784 0
M  V30 18793 N 1764.85 -1.48386 -0.530967 0
M  V30 18794 C 1765.8 -1.62835 -1.63564 0
M  V30 18795 C 1766.77 -0.470453 -1.59298 0
M  V30 18796 O 1767.95 -0.693813 -1.77738 0
M  V30 18797 C 1765.09 -1.67314 -3.01828 0
M  V30 18798 C 1764.21 -2.94204 -3.16335 0
M  V30 18799 C 1763.34 -2.8985 -4.45152 0
M  V30 18800 C 1762.38 -4.11449 -4.53185 0
M  V30 18801 N 1761.52 -4.05178 -5.7339 0
M  V30 18802 H 1766.36 -2.57172 -1.50554 0
M  V30 18803 H 1763.89 -1.27537 -0.732991 0
M  V30 18804 H 1765.85 -1.67892 -3.81927 0
M  V30 18805 H 1764.48 -0.764688 -3.13612 0
M  V30 18806 H 1763.53 -3.03375 -2.29495 0
M  V30 18807 H 1764.85 -3.84179 -3.18132 0
M  V30 18808 H 1764 -2.88824 -5.33541 0
M  V30 18809 H 1762.74 -1.97602 -4.45875 0
M  V30 18810 H 1761.74 -4.12751 -3.63203 0
M  V30 18811 H 1762.97 -5.04855 -4.54201 0
M  V30 18812 H 1760.92 -3.15749 -5.75012 0
M  V30 18813 H 1760.83 -4.88857 -5.76676 0
M  V30 18814 H 1762.1 -4.08209 -6.64067 0
M  V30 18815 N 1766.33 0.779763 -1.36958 0
M  V30 18816 C 1767.58 1.53499 -1.31463 0
M  V30 18817 C 1767.9 1.94728 0.102869 0
M  V30 18818 O 1767.17 1.65688 1.0452 0
M  V30 18819 H 1765.75 0.5693 -0.483638 0
M  V30 18820 H 1768.41 0.928536 -1.7136 0
M  V30 18821 H 1767.51 2.4381 -1.94841 0
M  V30 18822 N 1767.81 1.21396 1.00503 0
M  V30 18823 C 1769.08 0.93995 1.71535 0
M  V30 18824 C 1769.46 -0.548247 2.03856 0
M  V30 18825 O 1768.81 -1.51308 1.71226 0
M  V30 18826 C 1769.02 1.82501 2.9748 0
M  V30 18827 C 1770.37 2.07383 3.7051 0
M  V30 18828 O 1771.39 1.79849 3.07462 0
M  V30 18829 O 1770.25 2.5395 4.83913 0
M  V30 18830 H 1767.35 0.35246 0.748132 0
M  V30 18831 H 1769.89 1.32325 1.06246 0
M  V30 18832 H 1768.67 2.83219 2.70005 0
M  V30 18833 H 1768.29 1.44252 3.70509 0
M  V30 18834 N 1769.29 -1.19996 1.0217 0
M  V30 18835 C 1770.22 -2.21695 0.540962 0
M  V30 18836 C 1771.2 -1.57232 -0.414343 0
M  V30 18837 O 1772.38 -1.85533 -0.33314 0
M  V30 18838 C 1769.51 -3.38035 -0.212109 0
M  V30 18839 C 1768.55 -4.20824 0.693529 0
M  V30 18840 S 1769.39 -4.89756 2.16562 0
M  V30 18841 C 1770.54 -6.09513 1.42286 0
M  V30 18842 H 1770.78 -2.62131 1.40267 0
M  V30 18843 H 1768.31 -1.30128 0.831026 0
M  V30 18844 H 1770.27 -4.05473 -0.640484 0
M  V30 18845 H 1768.93 -2.96049 -1.04945 0
M  V30 18846 H 1768.12 -5.03874 0.112557 0
M  V30 18847 H 1767.72 -3.58667 1.05991 0
M  V30 18848 H 1770.01 -6.73816 0.705585 0
M  V30 18849 H 1770.96 -6.72079 2.22969 0
M  V30 18850 H 1771.37 -5.56895 0.923499 0
M  V30 18851 N 1770.76 -0.798611 -1.35867 0
M  V30 18852 C 1771.99 -0.386378 -2.03769 0
M  V30 18853 C 1772.41 0.992154 -1.59806 0
M  V30 18854 O 1771.77 1.64094 -0.770895 0
M  V30 18855 C 1771.82 -0.468859 -3.57539 0
M  V30 18856 O 1770.92 0.520742 -4.09099 0
M  V30 18857 H 1770.26 -0.162597 -0.643784 0
M  V30 18858 H 1772.79 -1.08228 -1.73631 0
M  V30 18859 H 1772.8 -0.335775 -4.06616 0
M  V30 18860 H 1771.48 -1.47441 -3.88888 0
M  V30 18861 H 1770.06 0.348559 -3.71267 0
M  V30 18862 N 1772.24 1.47639 -0.551417 0
M  V30 18863 C 1773.19 2.29936 0.199514 0
M  V30 18864 C 1774.16 1.38704 0.913811 0
M  V30 18865 O 1775.34 1.67666 0.910643 0
M  V30 18866 C 1772.48 3.22544 1.22717 0
M  V30 18867 C 1771.6 4.28865 0.519527 0
M  V30 18868 C 1770.73 5.0863 1.53197 0
M  V30 18869 C 1769.77 6.06731 0.808981 0
M  V30 18870 N 1768.91 6.79476 1.76798 0
M  V30 18871 H 1773.75 2.93631 -0.508414 0
M  V30 18872 H 1771.28 1.44738 -0.262553 0
M  V30 18873 H 1773.24 3.74653 1.83551 0
M  V30 18874 H 1771.87 2.60726 1.9032 0
M  V30 18875 H 1770.92 3.79857 -0.203217 0
M  V30 18876 H 1772.24 4.98778 -0.0471224 0
M  V30 18877 H 1771.39 5.6486 2.214 0
M  V30 18878 H 1770.13 4.38605 2.13253 0
M  V30 18879 H 1769.13 5.49684 0.112991 0
M  V30 18880 H 1770.36 6.78762 0.214239 0
M  V30 18881 H 1768.31 6.12185 2.35722 0
M  V30 18882 H 1768.22 7.45539 1.25333 0
M  V30 18883 H 1769.49 7.40283 2.44133 0
M  V30 18884 N 1773.72 0.287581 1.54954 0
M  V30 18885 C 1774.63 -0.604236 2.26685 0
M  V30 18886 C 1775.65 -1.1597 1.29719 0
M  V30 18887 O 1776.82 -1.18735 1.62678 0
M  V30 18888 C 1773.89 -1.76612 2.98344 0
M  V30 18889 C 1772.95 -1.24608 4.10818 0
M  V30 18890 C 1772.18 -2.35258 4.7905 0
M  V30 18891 O 1772.4 -3.54879 4.46561 0
M  V30 18892 O 1771.34 -2.02709 5.66739 0
M  V30 18893 H 1775.16 -0.0227663 3.03691 0
M  V30 18894 H 1772.75 0.0545243 1.493 0
M  V30 18895 H 1774.63 -2.44332 3.43336 0
M  V30 18896 H 1773.31 -2.33444 2.24244 0
M  V30 18897 H 1772.21 -0.53498 3.70255 0
M  V30 18898 H 1773.55 -0.723348 4.86856 0
M  V30 18899 N 1775.2 -1.57593 0.0150662 0
M  V30 18900 C 1776.11 -2.12807 -0.987437 0
M  V30 18901 C 1777.12 -1.07691 -1.3667 0
M  V30 18902 O 1778.3 -1.39674 -1.45097 0
M  V30 18903 C 1775.37 -2.63276 -2.2558 0
M  V30 18904 C 1774.43 -3.83053 -1.93827 0
M  V30 18905 C 1773.66 -4.31106 -3.14616 0
M  V30 18906 O 1773.88 -3.78405 -4.26809 0
M  V30 18907 O 1772.82 -5.23104 -2.97734 0
M  V30 18908 H 1776.64 -2.98715 -0.548015 0
M  V30 18909 H 1774.23 -1.47991 -0.20469 0
M  V30 18910 H 1776.11 -2.95869 -3.00066 0
M  V30 18911 H 1774.78 -1.80459 -2.68731 0
M  V30 18912 H 1773.69 -3.55409 -1.1677 0
M  V30 18913 H 1775.02 -4.6699 -1.55502 0
M  V30 18914 N 1776.68 0.257904 -1.55475 0
M  V30 18915 C 1777.95 1.00965 -1.67528 0
M  V30 18916 C 1778.33 2.03763 -0.551694 0
M  V30 18917 O 1777.68 2.24099 0.446314 0
M  V30 18918 C 1777.89 1.65289 -3.07377 0
M  V30 18919 C 1779.24 2.15888 -3.65619 0
M  V30 18920 O 1780.26 1.7525 -3.10106 0
M  V30 18921 O 1779.12 2.90471 -4.62913 0
M  V30 18922 H 1776.22 0.469266 -0.680969 0
M  V30 18923 H 1778.76 0.252562 -1.6781 0
M  V30 18924 H 1777.53 0.908769 -3.80601 0
M  V30 18925 H 1777.16 2.47646 -3.11058 0
M  V30 18926 N 1778.15 1.48666 0.52309 0
M  V30 18927 C 1779.06 1.66396 1.65377 0
M  V30 18928 C 1780.08 0.546469 1.65196 0
M  V30 18929 O 1781.26 0.818413 1.84022 0
M  V30 18930 C 1778.32 1.70602 3.01821 0
M  V30 18931 C 1777.38 2.94028 3.12803 0
M  V30 18932 C 1776.62 2.98024 4.42739 0
M  V30 18933 O 1776.84 2.10232 5.30244 0
M  V30 18934 O 1775.77 3.90266 4.58231 0
M  V30 18935 H 1779.6 2.62138 1.53354 0
M  V30 18936 H 1777.18 1.32148 0.696948 0
M  V30 18937 H 1779.07 1.75849 3.82956 0
M  V30 18938 H 1777.74 0.780346 3.14153 0
M  V30 18939 H 1776.65 2.9431 2.30938 0
M  V30 18940 H 1777.98 3.86003 3.0539 0
M  V30 18941 N 1779.63 -0.772489 1.37369 0
M  V30 18942 C 1780.54 -1.91679 1.35263 0
M  V30 18943 C 1781.56 -1.72161 0.252321 0
M  V30 18944 O 1782.73 -1.95409 0.487581 0
M  V30 18945 C 1779.8 -3.26792 1.15792 0
M  V30 18946 C 1778.86 -3.5897 2.35455 0
M  V30 18947 C 1778.09 -4.87636 2.16903 0
M  V30 18948 O 1778.32 -5.58627 1.15291 0
M  V30 18949 O 1777.25 -5.18859 3.05072 0
M  V30 18950 H 1781.08 -1.96408 2.31641 0
M  V30 18951 H 1778.66 -0.915136 1.18092 0
M  V30 18952 H 1780.54 -4.07611 1.06918 0
M  V30 18953 H 1779.22 -3.22918 0.224872 0
M  V30 18954 H 1778.13 -2.78389 2.49901 0
M  V30 18955 H 1779.46 -3.67586 3.27325 0
M  V30 18956 N 1781.11 -1.21927 -0.998575 0
M  V30 18957 C 1782.04 -0.927553 -2.08499 0
M  V30 18958 C 1783.02 0.127378 -1.621 0
M  V30 18959 O 1784.21 -0.00298127 -1.885 0
M  V30 18960 C 1781.33 -0.393968 -3.36401 0
M  V30 18961 C 1780.38 -1.4327 -4.01716 0
M  V30 18962 S 1781.21 -3.0041 -4.43299 0
M  V30 18963 C 1782.37 -2.48675 -5.74379 0
M  V30 18964 H 1782.6 -1.84755 -2.32923 0
M  V30 18965 H 1780.13 -1.04972 -1.13227 0
M  V30 18966 H 1782.09 -0.0926895 -4.10395 0
M  V30 18967 H 1780.75 0.504816 -3.10017 0
M  V30 18968 H 1779.95 -1.0091 -4.93795 0
M  V30 18969 H 1779.55 -1.68239 -3.34024 0
M  V30 18970 H 1781.84 -1.89562 -6.5044 0
M  V30 18971 H 1782.78 -3.39221 -6.21558 0
M  V30 18972 H 1783.19 -1.90158 -5.31507 0
M  V30 18973 N 1782.59 1.19452 -1.02805 0
M  V30 18974 C 1783.87 1.84878 -0.638707 0
M  V30 18975 C 1784.25 1.91763 0.882627 0
M  V30 18976 O 1783.59 1.43401 1.779 0
M  V30 18977 C 1783.8 3.23891 -1.29982 0
M  V30 18978 C 1785.15 4.00061 -1.42254 0
M  V30 18979 O 1786.18 3.33286 -1.25693 0
M  V30 18980 O 1785.03 5.19671 -1.69127 0
M  V30 18981 H 1782.13 0.796676 -0.221892 0
M  V30 18982 H 1784.67 1.26949 -1.12615 0
M  V30 18983 H 1783.45 3.13711 -2.33883 0
M  V30 18984 H 1783.07 3.89465 -0.800186 0
M  V30 18985 N 1784.07 0.805805 1.35442 0
M  V30 18986 C 1784.98 0.217149 2.33593 0
M  V30 18987 C 1785.99 -0.639428 1.61825 0
M  V30 18988 O 1787.17 -0.551363 1.93706 0
M  V30 18989 C 1784.23 -0.625149 3.41017 0
M  V30 18990 C 1783.29 0.25183 4.28561 0
M  V30 18991 C 1782.53 -0.550363 5.30855 0
M  V30 18992 O 1782.75 -1.78511 5.41747 0
M  V30 18993 O 1781.68 0.0583487 6.01872 0
M  V30 18994 H 1785.51 1.02909 2.85733 0
M  V30 18995 H 1783.1 0.567579 1.38199 0
M  V30 18996 H 1784.98 -1.10493 4.06656 0
M  V30 18997 H 1783.65 -1.4147 2.91149 0
M  V30 18998 H 1782.56 0.77873 3.65905 0
M  V30 18999 H 1783.89 1.0053 4.81824 0
M  V30 19000 N 1785.54 -1.47344 0.559239 0
M  V30 19001 C 1786.45 -2.33826 -0.190402 0
M  V30 19002 C 1787.47 -1.48317 -0.909846 0
M  V30 19003 O 1788.65 -1.8124 -0.878286 0
M  V30 19004 C 1785.71 -3.25052 -1.20591 0
M  V30 19005 C 1784.77 -4.26452 -0.493671 0
M  V30 19006 C 1784.01 -5.13319 -1.4608 0
M  V30 19007 O 1784.23 -5.02678 -2.69576 0
M  V30 19008 O 1783.16 -5.93799 -0.984178 0
M  V30 19009 H 1786.99 -2.99232 0.519046 0
M  V30 19010 H 1784.57 -1.45936 0.319836 0
M  V30 19011 H 1786.46 -3.81397 -1.79205 0
M  V30 19012 H 1785.13 -2.62272 -1.89724 0
M  V30 19013 H 1784.04 -3.73861 0.133714 0
M  V30 19014 H 1785.37 -4.91952 0.15625 0
M  V30 19015 N 1787.02 -0.295795 -1.54799 0
M  V30 19016 C 1787.93 0.592206 -2.27002 0
M  V30 19017 C 1788.95 1.1528 -1.30332 0
M  V30 19018 O 1790.12 1.1787 -1.63305 0
M  V30 19019 C 1787.19 1.75027 -2.99277 0
M  V30 19020 C 1786.25 1.22427 -4.11473 0
M  V30 19021 C 1785.48 2.32714 -4.80291 0
M  V30 19022 O 1785.71 3.52506 -4.48437 0
M  V30 19023 O 1784.64 1.997 -5.67806 0
M  V30 19024 H 1788.47 0.00666048 -3.03699 0
M  V30 19025 H 1786.05 -0.0624413 -1.49269 0
M  V30 19026 H 1787.93 2.42508 -3.44627 0
M  V30 19027 H 1786.61 2.32252 -2.25479 0
M  V30 19028 H 1785.52 0.515337 -3.70534 0
M  V30 19029 H 1786.85 0.697518 -4.87233 0
M  V30 19030 N 1788.5 1.57583 -0.0234236 0
M  V30 19031 C 1789.41 2.13328 0.976138 0
M  V30 19032 C 1790.43 1.08414 1.36097 0
M  V30 19033 O 1791.6 1.40441 1.44354 0
M  V30 19034 C 1788.67 2.64469 2.24181 0
M  V30 19035 C 1787.73 3.84076 1.91793 0
M  V30 19036 C 1786.96 4.32768 3.12326 0
M  V30 19037 O 1787.19 3.80663 4.24797 0
M  V30 19038 O 1786.12 5.24676 2.94956 0
M  V30 19039 H 1789.95 2.99001 0.532166 0
M  V30 19040 H 1787.53 1.48098 0.196838 0
M  V30 19041 H 1789.41 2.97456 2.98492 0
M  V30 19042 H 1788.09 1.81881 2.6777 0
M  V30 19043 H 1786.99 3.56023 1.14883 0
M  V30 19044 H 1788.33 4.67808 1.53024 0
M  V30 19045 N 1789.98 -0.249655 1.5561 0
M  V30 19046 C 1791.23 -0.976148 1.76963 0
M  V30 19047 C 1791.55 -1.85958 0.586903 0
M  V30 19048 O 1790.82 -1.91827 -0.397415 0
M  V30 19049 H 1789.4 -0.363416 0.652639 0
M  V30 19050 H 1792.06 -0.268264 1.93045 0
M  V30 19051 H 1791.16 -1.59948 2.67998 0
M  V30 19052 N 1791.46 -1.48941 -0.515198 0
M  V30 19053 C 1792.37 -1.67271 -1.64492 0
M  V30 19054 C 1793.38 -0.555222 -1.64904 0
M  V30 19055 O 1794.56 -0.828161 -1.83585 0
M  V30 19056 C 1791.62 -1.722 -3.00912 0
M  V30 19057 C 1790.69 -2.95683 -3.11239 0
M  V30 19058 C 1789.92 -3.00368 -4.41152 0
M  V30 19059 O 1790.14 -2.13041 -5.29122 0
M  V30 19060 O 1789.08 -3.92691 -4.56155 0
M  V30 19061 H 1792.9 -2.62947 -1.51962 0
M  V30 19062 H 1790.49 -1.32515 -0.68993 0
M  V30 19063 H 1792.37 -1.77877 -3.82018 0
M  V30 19064 H 1791.04 -0.796995 -3.13735 0
M  V30 19065 H 1789.95 -2.95531 -2.29374 0
M  V30 19066 H 1791.28 -3.87617 -3.03338 0
M  V30 19067 N 1792.94 0.765193 -1.37777 0
M  V30 19068 C 1794.16 1.55948 -1.3673 0
M  V30 19069 C 1794.59 1.8805 0.0435817 0
M  V30 19070 O 1793.94 1.49718 1.02246 0
M  V30 19071 C 1793.99 2.84245 -2.21895 0
M  V30 19072 O 1793.1 3.78903 -1.62807 0
M  V30 19073 H 1792.44 0.472127 -0.466897 0
M  V30 19074 H 1794.97 0.946556 -1.81388 0
M  V30 19075 H 1794.98 3.33284 -2.35342 0
M  V30 19076 H 1793.65 2.60209 -3.24444 0
M  V30 19077 H 1792.23 3.37568 -1.58437 0
M  V30 19078 N 1794.41 1.22455 0.992094 0
M  V30 19079 C 1795.66 1.04373 1.72596 0
M  V30 19080 C 1795.98 -0.421349 1.91008 0
M  V30 19081 O 1797.18 -0.72186 2.61728 0
M  V30 19082 C 1795.64 1.81906 3.10545 0
M  V30 19083 C 1795.25 3.32667 3.00061 0
M  V30 19084 C 1796.99 1.72274 3.87972 0
M  V30 19085 C 1794.9 4.02638 4.3317 0
M  V30 19086 H 1793.83 0.386937 0.647144 0
M  V30 19087 H 1796.48 1.46313 1.10746 0
M  V30 19088 H 1794.86 1.32764 3.73081 0
M  V30 19089 H 1796.03 3.89208 2.46685 0
M  V30 19090 H 1794.35 3.42984 2.36117 0
M  V30 19091 H 1796.95 2.21872 4.86494 0
M  V30 19092 H 1797.29 0.68331 4.10654 0
M  V30 19093 H 1797.82 2.18963 3.32115 0
M  V30 19094 H 1794.56 5.06838 4.15687 0
M  V30 19095 H 1794.08 3.50885 4.86456 0
M  V30 19096 H 1795.76 4.08279 5.01914 0
M  V30 19097 N 1795.89 -1.18905 1.03437 0
M  V30 19098 C 1797.3 -1.70402 0.762893 0
M  V30 19099 C 1797.65 -1.82633 -0.716908 0
M  V30 19100 O 1796.78 -1.50136 -1.55847 0
M  V30 19101 C 1797.37 -3.09501 1.37822 0
M  V30 19102 C 1795.93 -3.58235 1.1552 0
M  V30 19103 C 1795.08 -2.34953 1.47284 0
M  V30 19104 H 1798.03 -1.03669 1.2016 0
M  V30 19105 H 1798.05 -3.7246 0.778079 0
M  V30 19106 H 1797.56 -3.00566 2.45523 0
M  V30 19107 H 1795.66 -3.72475 0.096646 0
M  V30 19108 H 1795.78 -4.42034 1.84778 0
M  V30 19109 H 1794.14 -2.38557 0.892333 0
M  V30 19110 H 1794.92 -2.28643 2.5608 0
M  V30 19111 N 1797.37 -0.812977 -1.35013 0
M  V30 19112 C 1798.28 -0.229534 -2.33474 0
M  V30 19113 C 1799.3 0.630837 -1.62162 0
M  V30 19114 O 1800.47 0.541083 -1.93995 0
M  V30 19115 C 1797.54 0.607055 -3.41344 0
M  V30 19116 C 1796.6 -0.274554 -4.28421 0
M  V30 19117 C 1795.83 0.522202 -5.31139 0
M  V30 19118 O 1796.05 1.75636 -5.42686 0
M  V30 19119 O 1794.99 -0.0902666 -6.01832 0
M  V30 19120 H 1798.81 -1.04423 -2.85183 0
M  V30 19121 H 1796.4 -0.5749 -1.37896 0
M  V30 19122 H 1798.28 1.08335 -4.07236 0
M  V30 19123 H 1796.96 1.39924 -2.91895 0
M  V30 19124 H 1795.86 -0.798124 -3.65487 0
M  V30 19125 H 1797.2 -1.03084 -4.81284 0
M  V30 19126 N 1798.85 1.47045 -0.567045 0
M  V30 19127 C 1800.1 2.01651 -0.044479 0
M  V30 19128 C 1800.41 1.44583 1.31738 0
M  V30 19129 O 1801.62 1.90911 1.93042 0
M  V30 19130 C 1800.07 3.59888 -0.0289854 0
M  V30 19131 C 1799.68 4.25949 -1.38821 0
M  V30 19132 C 1801.42 4.22209 0.440457 0
M  V30 19133 C 1799.33 5.76221 -1.33129 0
M  V30 19134 H 1798.26 0.75389 -0.012858 0
M  V30 19135 H 1800.91 1.68939 -0.716363 0
M  V30 19136 H 1799.29 3.89606 0.708747 0
M  V30 19137 H 1800.47 4.07861 -2.14443 0
M  V30 19138 H 1798.78 3.75658 -1.79639 0
M  V30 19139 H 1801.38 5.32342 0.501592 0
M  V30 19140 H 1801.72 3.9006 1.45461 0
M  V30 19141 H 1802.26 3.97059 -0.242721 0
M  V30 19142 H 1798.99 6.13005 -2.32175 0
M  V30 19143 H 1798.51 5.96618 -0.617023 0
M  V30 19144 H 1800.19 6.38627 -1.03752 0
M  V30 19145 N 1800.33 0.304 1.5464 0
M  V30 19146 C 1801.6 -0.357665 1.92302 0
M  V30 19147 C 1801.98 -1.71453 1.23155 0
M  V30 19148 O 1801.33 -2.25512 0.368342 0
M  V30 19149 C 1801.54 -0.469339 3.4583 0
M  V30 19150 C 1802.89 -0.738803 4.18123 0
M  V30 19151 O 1803.91 -0.553033 3.51881 0
M  V30 19152 O 1802.77 -1.09585 5.354 0
M  V30 19153 H 1799.87 -0.200506 0.802326 0
M  V30 19154 H 1802.41 0.352279 1.66003 0
M  V30 19155 H 1801.18 0.484397 3.8829 0
M  V30 19156 H 1800.81 -1.22763 3.78173 0
M  V30 19157 N 1801.8 -1.57568 0.0317802 0
M  V30 19158 C 1803.05 -1.92194 -0.647238 0
M  V30 19159 C 1803.38 -0.908747 -1.71626 0
M  V30 19160 O 1802.66 0.0681334 -1.94381 0
M  V30 19161 C 1802.94 -3.3729 -1.26124 0
M  V30 19162 C 1802.79 -4.49348 -0.201594 0
M  V30 19163 C 1804.11 -3.824 -2.17849 0
M  V30 19164 H 1801.23 -0.698927 -0.233817 0
M  V30 19165 H 1803.87 -1.89789 0.0895831 0
M  V30 19166 H 1802.02 -3.39471 -1.88922 0
M  V30 19167 H 1803.7 -4.59299 0.429155 0
M  V30 19168 H 1801.94 -4.31218 0.472624 0
M  V30 19169 H 1802.61 -5.47908 -0.670859 0
M  V30 19170 H 1805.09 -3.81972 -1.65034 0
M  V30 19171 H 1803.96 -4.84614 -2.57761 0
M  V30 19172 H 1804.22 -3.18054 -3.07073 0
M  V30 19173 N 1803.28 0.241399 -1.5574 0
M  V30 19174 C 1804.53 0.966607 -1.7703 0
M  V30 19175 C 1804.84 1.86275 -0.59673 0
M  V30 19176 O 1806.05 2.62513 -0.692775 0
M  V30 19177 C 1804.51 1.7688 -3.13435 0
M  V30 19178 C 1804.11 0.919775 -4.38457 0
M  V30 19179 C 1805.86 2.48641 -3.44061 0
M  V30 19180 C 1803.77 1.71817 -5.65891 0
M  V30 19181 H 1802.7 0.364644 -0.659963 0
M  V30 19182 H 1805.35 0.221088 -1.82163 0
M  V30 19183 H 1803.73 2.55648 -3.02424 0
M  V30 19184 H 1804.9 0.174036 -4.60471 0
M  V30 19185 H 1803.22 0.315234 -4.15205 0
M  V30 19186 H 1805.81 3.08839 -4.36489 0
M  V30 19187 H 1806.16 3.20534 -2.65638 0
M  V30 19188 H 1806.69 1.7688 -3.56312 0
M  V30 19189 H 1803.43 1.04289 -6.47151 0
M  V30 19190 H 1802.95 2.43905 -5.47969 0
M  V30 19191 H 1804.63 2.28392 -6.05348 0
M  V30 19192 N 1804.76 1.49212 0.507292 0
M  V30 19193 C 1806.01 1.5763 1.2584 0
M  V30 19194 C 1806.32 0.265343 1.93792 0
M  V30 19195 O 1807.53 0.227996 2.70541 0
M  V30 19196 C 1805.98 2.78093 2.28457 0
M  V30 19197 C 1805.59 4.15922 1.66472 0
M  V30 19198 C 1807.34 2.95837 3.04435 0
M  V30 19199 C 1805.24 5.27616 2.67162 0
M  V30 19200 H 1804.17 0.586896 0.47336 0
M  V30 19201 H 1806.82 1.75588 0.533018 0
M  V30 19202 H 1805.21 2.53616 3.0413 0
M  V30 19203 H 1806.38 4.50511 0.968337 0
M  V30 19204 H 1804.7 4.03484 1.02906 0
M  V30 19205 H 1807.29 3.76452 3.79721 0
M  V30 19206 H 1807.64 2.06156 3.61671 0
M  V30 19207 H 1808.17 3.20323 2.35877 0
M  V30 19208 H 1804.91 6.19336 2.14716 0
M  V30 19209 H 1804.43 4.97488 3.3506 0
M  V30 19210 H 1806.11 5.56686 3.29712 0
M  V30 19211 N 1806.24 -0.757876 1.38181 0
M  V30 19212 C 1807.52 -1.50715 1.24677 0
M  V30 19213 C 1807.9 -2.1054 -0.153689 0
M  V30 19214 O 1807.24 -1.96703 -1.16276 0
M  V30 19215 C 1807.45 -2.57695 2.3536 0
M  V30 19216 C 1808.8 -3.24716 2.73578 0
M  V30 19217 O 1809.83 -2.67997 2.3464 0
M  V30 19218 O 1808.68 -4.27294 3.40709 0
M  V30 19219 H 1805.78 -0.668175 0.487311 0
M  V30 19220 H 1808.32 -0.793653 1.49997 0
M  V30 19221 H 1807.1 -2.11706 3.29084 0
M  V30 19222 H 1806.72 -3.36629 2.11581 0
M  V30 19223 N 1807.72 -1.22979 -0.985586 0
M  V30 19224 C 1808.68 -1.00763 -2.05862 0
M  V30 19225 C 1809.68 0.02864 -1.60774 0
M  V30 19226 O 1810.87 -0.210593 -1.72922 0
M  V30 19227 C 1808 -0.523547 -3.36856 0
M  V30 19228 H 1809.19 -1.95982 -2.27004 0
M  V30 19229 H 1806.75 -1.0495 -1.15824 0
M  V30 19230 H 1807.48 0.432658 -3.21401 0
M  V30 19231 H 1807.27 -1.27127 -3.70919 0
M  V30 19232 H 1808.76 -0.388591 -4.15788 0
M  V30 19233 N 1809.19 1.18355 -1.04066 0
M  V30 19234 C 1810.14 2.24033 -0.625447 0
M  V30 19235 C 1811.14 1.65792 0.347754 0
M  V30 19236 O 1812.34 1.78711 0.215045 0
M  V30 19237 H 1808.72 0.729132 -0.184039 0
M  V30 19238 H 1810.69 2.56362 -1.52712 0
M  V30 19239 C 1809.44 3.477 -0.00432692 0
M  V30 19240 H 1808.76 3.92812 -0.744237 0
M  V30 19241 H 1810.2 4.23268 0.24898 0
M  V30 19242 C 1808.66 3.13022 1.24574 0
M  V30 19243 O 1809.19 3.26759 2.33649 0
M  V30 19244 N 1807.4 2.67347 1.13902 0
M  V30 19245 H 1806.94 2.5637 0.251417 0
M  V30 19246 H 1806.9 2.44517 1.97633 0
M  V30 19247 N 1810.67 0.820125 1.3458 0
M  V30 19248 C 1811.61 0.185324 2.27446 0
M  V30 19249 C 1812.58 -0.656627 1.48752 0
M  V30 19250 O 1813.77 -0.620975 1.77978 0
M  V30 19251 C 1810.89 -0.741455 3.30485 0
M  V30 19252 C 1809.94 0.0226077 4.26494 0
M  V30 19253 S 1810.77 1.36787 5.17735 0
M  V30 19254 C 1811.93 0.445893 6.2431 0
M  V30 19255 H 1812.16 0.972658 2.80939 0
M  V30 19256 H 1809.7 0.615879 1.41585 0
M  V30 19257 H 1811.65 -1.27062 3.9034 0
M  V30 19258 H 1810.31 -1.50229 2.75844 0
M  V30 19259 H 1809.51 -0.681827 4.99367 0
M  V30 19260 H 1809.11 0.482239 3.70878 0
M  V30 19261 H 1811.4 -0.363637 6.76523 0
M  V30 19262 H 1812.34 1.14421 6.98794 0
M  V30 19263 H 1812.75 0.0355676 5.64489 0
M  V30 19264 N 1812.15 -1.46743 0.574835 0
M  V30 19265 C 1813.06 -2.34015 -0.16559 0
M  V30 19266 C 1814.08 -1.49273 -0.894064 0
M  V30 19267 O 1815.25 -1.82162 -0.859013 0
M  V30 19268 C 1812.32 -3.26313 -1.17136 0
M  V30 19269 C 1811.38 -4.26952 -0.448413 0
M  V30 19270 C 1810.61 -5.1484 -1.40627 0
M  V30 19271 O 1810.83 -5.05508 -2.6423 0
M  V30 19272 O 1809.77 -5.9481 -0.921143 0
M  V30 19273 H 1813.59 -2.98664 0.550754 0
M  V30 19274 H 1811.18 -1.45589 0.335297 0
M  V30 19275 H 1813.06 -3.83276 -1.75149 0
M  V30 19276 H 1811.74 -2.64269 -1.86931 0
M  V30 19277 H 1810.64 -3.73698 0.17336 0
M  V30 19278 H 1811.98 -4.91759 0.208419 0
M  V30 19279 N 1813.63 -0.312197 -1.54477 0
M  V30 19280 C 1814.91 0.347462 -1.92489 0
M  V30 19281 C 1815.29 1.70797 -1.24063 0
M  V30 19282 O 1814.63 2.25313 -0.380296 0
M  V30 19283 C 1814.84 0.450992 -3.46074 0
M  V30 19284 C 1816.19 0.716618 -4.18509 0
M  V30 19285 O 1817.22 0.534364 -3.52169 0
M  V30 19286 O 1816.07 1.06744 -5.35974 0
M  V30 19287 H 1813.17 0.196248 -0.803378 0
M  V30 19288 H 1815.71 -0.361078 -1.65814 0
M  V30 19289 H 1814.49 -0.504982 -3.88028 0
M  V30 19290 H 1814.11 1.20756 -3.78819 0
M  V30 19291 N 1815.11 1.57549 -0.040136 0
M  V30 19292 C 1816.35 1.92535 0.637037 0
M  V30 19293 C 1816.69 0.917836 1.71141 0
M  V30 19294 O 1815.96 -0.057824 1.94414 0
M  V30 19295 C 1816.24 3.37955 1.24333 0
M  V30 19296 C 1816.1 4.49449 0.177761 0
M  V30 19297 C 1817.42 3.8355 2.15818 0
M  V30 19298 H 1814.53 0.700157 0.230107 0
M  V30 19299 H 1817.18 1.89739 -0.0996468 0
M  V30 19300 H 1815.33 3.40468 1.87119 0
M  V30 19301 H 1817 4.59065 -0.453507 0
M  V30 19302 H 1815.24 4.30961 -0.495486 0
M  V30 19303 H 1815.91 5.48256 0.641792 0
M  V30 19304 H 1818.39 3.82842 1.63006 0
M  V30 19305 H 1817.26 4.85974 2.55188 0
M  V30 19306 H 1817.53 3.19678 3.05382 0
M  V30 19307 N 1816.58 -0.233136 1.55866 0
M  V30 19308 C 1817.52 -1.31564 1.86457 0
M  V30 19309 C 1818.5 -1.45747 0.720872 0
M  V30 19310 O 1819.68 -1.61744 0.968051 0
M  V30 19311 C 1816.81 -2.68745 2.0614 0
M  V30 19312 C 1815.85 -2.71639 3.28808 0
M  V30 19313 S 1816.69 -2.26866 4.85069 0
M  V30 19314 C 1817.84 -3.65945 5.07774 0
M  V30 19315 H 1818.07 -1.05419 2.77982 0
M  V30 19316 H 1815.61 -0.434809 1.48151 0
M  V30 19317 H 1817.57 -3.47728 2.18164 0
M  V30 19318 H 1816.23 -2.9212 1.15433 0
M  V30 19319 H 1815.42 -3.72418 3.39589 0
M  V30 19320 H 1815.02 -2.00711 3.15581 0
M  V30 19321 H 1817.31 -4.61549 4.95962 0
M  V30 19322 H 1818.26 -3.60088 6.09706 0
M  V30 19323 H 1818.66 -3.59096 4.35557 0
M  V30 19324 N 1818.06 -1.49479 -0.499372 0
M  V30 19325 C 1818.99 -1.69182 -1.60934 0
M  V30 19326 C 1819.97 -0.54053 -1.61283 0
M  V30 19327 O 1821.16 -0.776554 -1.77998 0
M  V30 19328 C 1818.29 -1.75985 -2.99411 0
M  V30 19329 C 1817.24 -2.9092 -3.13926 0
M  V30 19330 C 1816.57 -2.82837 -4.5377 0
M  V30 19331 C 1817.87 -4.31833 -2.93799 0
M  V30 19332 H 1819.56 -2.62112 -1.44699 0
M  V30 19333 H 1817.11 -1.26135 -0.694688 0
M  V30 19334 H 1819.06 -1.88354 -3.76962 0
M  V30 19335 H 1817.79 -0.796557 -3.16737 0
M  V30 19336 H 1816.45 -2.78155 -2.388 0
M  V30 19337 H 1816.09 -1.84412 -4.67976 0
M  V30 19338 H 1815.79 -3.59979 -4.64423 0
M  V30 19339 H 1817.32 -2.97217 -5.3338 0
M  V30 19340 H 1818.73 -4.45271 -3.61119 0
M  V30 19341 H 1817.13 -5.10209 -3.15922 0
M  V30 19342 H 1818.2 -4.46165 -1.89908 0
M  V30 19343 N 1819.54 0.750537 -1.38581 0
M  V30 19344 C 1820.47 1.87411 -1.31946 0
M  V30 19345 C 1821.49 1.61151 -0.231101 0
M  V30 19346 O 1822.68 1.71674 -0.488893 0
M  V30 19347 C 1819.78 3.23112 -1.02233 0
M  V30 19348 C 1818.95 3.76852 -2.22039 0
M  V30 19349 C 1818.01 4.91077 -1.89023 0
M  V30 19350 O 1817.03 5.0555 -2.61549 0
M  V30 19351 N 1818.24 5.74287 -0.847021 0
M  V30 19352 H 1821 1.93613 -2.28767 0
M  V30 19353 H 1818.56 0.930603 -1.32482 0
M  V30 19354 H 1820.55 3.97074 -0.78193 0
M  V30 19355 H 1819.12 3.12277 -0.141981 0
M  V30 19356 H 1818.34 2.94421 -2.62126 0
M  V30 19357 H 1819.63 4.09489 -3.01987 0
M  V30 19358 H 1819.03 5.65166 -0.245635 0
M  V30 19359 H 1817.59 6.48383 -0.666505 0
M  V30 19360 N 1821.02 1.235 0.979051 0
M  V30 19361 C 1822.3 0.976124 1.69503 0
M  V30 19362 C 1822.68 -0.504883 2.04974 0
M  V30 19363 O 1822.02 -1.47642 1.74397 0
M  V30 19364 C 1822.23 1.8877 2.93542 0
M  V30 19365 C 1823.58 2.15196 3.66027 0
M  V30 19366 O 1824.61 1.8633 3.03578 0
M  V30 19367 O 1823.47 2.64157 4.78417 0
M  V30 19368 H 1820.56 0.36825 0.740487 0
M  V30 19369 H 1823.11 1.34549 1.03415 0
M  V30 19370 H 1821.88 2.88882 2.63937 0
M  V30 19371 H 1821.5 1.52079 3.67366 0
M  V30 19372 N 1822.5 -1.17802 1.04693 0
M  V30 19373 C 1823.73 -1.91589 0.773124 0
M  V30 19374 C 1824.14 -1.76773 -0.67438 0
M  V30 19375 O 1823.48 -1.09903 -1.47197 0
M  V30 19376 C 1823.54 -3.43279 1.06771 0
M  V30 19377 C 1823.2 -3.81875 2.51038 0
M  V30 19378 C 1824.2 -3.85138 3.49235 0
M  V30 19379 C 1821.89 -4.12986 2.85915 0
M  V30 19380 C 1823.88 -4.18972 4.80356 0
M  V30 19381 C 1821.57 -4.4649 4.17241 0
M  V30 19382 C 1822.57 -4.4946 5.14271 0
M  V30 19383 O 1822.25 -4.82178 6.43242 0
M  V30 19384 H 1821.99 -0.614869 0.280912 0
M  V30 19385 H 1824.54 -1.50352 1.39941 0
M  V30 19386 H 1822.77 -3.84786 0.384316 0
M  V30 19387 H 1824.46 -3.98321 0.780714 0
M  V30 19388 H 1825.22 -3.61232 3.2363 0
M  V30 19389 H 1821.1 -4.09848 2.11058 0
M  V30 19390 H 1824.65 -4.21205 5.56087 0
M  V30 19391 H 1820.54 -4.69857 4.42611 0
M  V30 19392 H 1821.31 -5.00055 6.47987 0
M  V30 19393 N 1823.98 -0.827251 -1.34143 0
M  V30 19394 C 1825.39 -0.475645 -1.80539 0
M  V30 19395 C 1825.74 1.00435 -1.68545 0
M  V30 19396 O 1824.86 1.78186 -1.22795 0
M  V30 19397 C 1825.46 -0.856588 -3.27793 0
M  V30 19398 C 1824.02 -0.557289 -3.72252 0
M  V30 19399 C 1823.16 -1.07118 -2.55775 0
M  V30 19400 H 1826.11 -1.01703 -1.21829 0
M  V30 19401 H 1826.14 -0.162059 -3.80155 0
M  V30 19402 H 1825.65 -1.93379 -3.36491 0
M  V30 19403 H 1823.75 0.510328 -3.69089 0
M  V30 19404 H 1823.86 -1.10438 -4.66198 0
M  V30 19405 H 1822.23 -0.492534 -2.49892 0
M  V30 19406 H 1823.01 -2.15492 -2.67242 0
M  V30 19407 N 1825.45 1.46436 -0.582609 0
M  V30 19408 C 1826.68 2.07275 -0.0718712 0
M  V30 19409 C 1827.1 1.42851 1.22373 0
M  V30 19410 O 1826.46 0.512272 1.73912 0
M  V30 19411 C 1826.51 3.6051 0.08055 0
M  V30 19412 O 1825.61 3.96414 1.13707 0
M  V30 19413 H 1824.95 0.661027 -0.0627607 0
M  V30 19414 H 1827.48 1.88076 -0.805524 0
M  V30 19415 H 1827.49 4.06991 0.286749 0
M  V30 19416 H 1826.17 4.06792 -0.865603 0
M  V30 19417 H 1824.75 3.61643 0.909338 0
M  V30 19418 N 1826.93 0.320385 1.54309 0
M  V30 19419 C 1828.21 -0.337248 1.92671 0
M  V30 19420 C 1828.59 -1.70137 1.24967 0
M  V30 19421 O 1827.94 -2.25108 0.39224 0
M  V30 19422 C 1828.15 -0.432633 3.46308 0
M  V30 19423 C 1829.49 -0.694413 4.18883 0
M  V30 19424 O 1830.52 -0.515681 3.52447 0
M  V30 19425 O 1829.38 -1.039 5.36532 0
M  V30 19426 H 1826.47 -0.191985 0.804407 0
M  V30 19427 H 1829.02 0.369866 1.6562 0
M  V30 19428 H 1827.79 0.525553 3.87755 0
M  V30 19429 H 1827.41 -1.18745 3.79454 0
M  V30 19430 N 1828.41 -1.57525 0.0484906 0
M  V30 19431 C 1829.65 -1.94455 -0.629818 0
M  V30 19432 C 1830.01 -0.926505 -1.68166 0
M  V30 19433 O 1831.21 -1.18265 -2.41385 0
M  V30 19434 C 1829.49 -3.36192 -1.21284 0
M  V30 19435 S 1831.04 -3.95073 -1.90953 0
M  V30 19436 H 1827.86 -0.680239 -0.20687 0
M  V30 19437 H 1830.46 -1.95151 0.116787 0
M  V30 19438 H 1829.17 -4.08087 -0.435136 0
M  V30 19439 H 1828.7 -3.38985 -1.99632 0
M  V30 19440 H 1830.71 -3.80081 -3.18987 0
M  V30 19441 N 1829.89 0.224867 -1.55988 0
M  V30 19442 C 1831.13 0.956853 -1.8062 0
M  V30 19443 C 1831.49 1.81663 -0.621483 0
M  V30 19444 O 1832.69 2.58211 -0.747043 0
M  V30 19445 C 1830.96 1.77638 -3.10128 0
M  V30 19446 S 1832.52 2.56445 -3.56063 0
M  V30 19447 H 1829.34 0.321476 -0.634172 0
M  V30 19448 H 1831.94 0.222719 -1.94227 0
M  V30 19449 H 1830.65 1.13484 -3.94398 0
M  V30 19450 H 1830.18 2.55287 -2.99319 0
M  V30 19451 H 1832.19 3.79954 -3.19139 0
M  V30 19452 N 1831.37 1.49742 0.491438 0
M  V30 19453 C 1832.78 1.52802 1.07278 0
M  V30 19454 C 1833.13 0.319712 1.93578 0
M  V30 19455 O 1832.25 -0.569524 2.08771 0
M  V30 19456 C 1832.85 2.76896 1.95228 0
M  V30 19457 C 1831.41 2.82703 2.48508 0
M  V30 19458 C 1830.55 2.4684 1.26355 0
M  V30 19459 H 1833.5 1.56301 0.274925 0
M  V30 19460 H 1833.53 2.57599 2.80041 0
M  V30 19461 H 1833.04 3.64821 1.32391 0
M  V30 19462 H 1831.14 1.99081 3.14956 0
M  V30 19463 H 1831.25 3.85108 2.85006 0
M  V30 19464 H 1829.62 1.98828 1.59184 0
M  V30 19465 H 1830.4 3.3705 0.652109 0
M  V30 19466 N 1832.84 -0.743177 1.38977 0
M  V30 19467 C 1834.12 -1.49384 1.26269 0
M  V30 19468 C 1834.5 -2.10691 -0.131349 0
M  V30 19469 O 1833.85 -1.97925 -1.14183 0
M  V30 19470 C 1834.06 -2.55184 2.3808 0
M  V30 19471 C 1835.41 -3.21796 2.77006 0
M  V30 19472 O 1836.43 -2.65493 2.37469 0
M  V30 19473 O 1835.29 -4.23656 3.45222 0
M  V30 19474 H 1832.38 -0.662968 0.49437 0
M  V30 19475 H 1834.93 -0.7777 1.50831 0
M  V30 19476 H 1833.7 -2.08204 3.31311 0
M  V30 19477 H 1833.33 -3.34366 2.15139 0
M  V30 19478 N 1834.32 -1.24018 -0.972487 0
M  V30 19479 C 1835.27 -0.995404 -2.05124 0
M  V30 19480 C 1836.26 0.0614575 -1.60783 0
M  V30 19481 O 1837.45 -0.15167 -1.76349 0
M  V30 19482 C 1834.58 -0.597019 -3.38069 0
M  V30 19483 C 1833.66 -1.6897 -3.88986 0
M  V30 19484 N 1834.05 -2.92154 -4.12892 0
M  V30 19485 C 1832.35 -1.56611 -4.17599 0
M  V30 19486 C 1833.05 -3.62955 -4.54575 0
M  V30 19487 N 1832.03 -2.90498 -4.59469 0
M  V30 19488 H 1835.83 -1.93084 -2.21576 0
M  V30 19489 H 1833.35 -1.14073 -1.1559 0
M  V30 19490 H 1835.34 -0.402907 -4.14949 0
M  V30 19491 H 1834 0.331283 -3.23006 0
M  V30 19492 H 1835.01 -3.28381 -4.00483 0
M  V30 19493 H 1831.69 -0.705491 -4.11496 0
M  V30 19494 H 1833.08 -4.68598 -4.81524 0
M  V30 19495 N 1835.8 1.17245 -1.05316 0
M  V30 19496 C 1837.04 1.89218 -0.773041 0
M  V30 19497 C 1837.4 1.79273 0.687403 0
M  V30 19498 O 1838.61 2.46075 1.08168 0
M  V30 19499 C 1836.88 3.35133 -1.24179 0
M  V30 19500 S 1838.44 4.25066 -1.08923 0
M  V30 19501 H 1835.25 0.653243 -0.280703 0
M  V30 19502 H 1837.86 1.41591 -1.34805 0
M  V30 19503 H 1836.56 3.39906 -2.29982 0
M  V30 19504 H 1836.09 3.87805 -0.661108 0
M  V30 19505 H 1838.11 4.96198 -0.0141465 0
M  V30 19506 N 1837.28 0.834353 1.33702 0
M  V30 19507 C 1838.51 0.440589 2.01847 0
M  V30 19508 C 1838.92 -0.961513 1.62947 0
M  V30 19509 O 1838.26 -1.63556 0.836377 0
M  V30 19510 C 1838.32 0.476396 3.5633 0
M  V30 19511 C 1837.99 1.83382 4.18593 0
M  V30 19512 C 1838.98 2.79638 4.3829 0
M  V30 19513 C 1836.67 2.12543 4.55116 0
M  V30 19514 C 1838.66 4.0322 4.93652 0
M  V30 19515 C 1836.35 3.36382 5.10187 0
M  V30 19516 C 1837.35 4.31537 5.294 0
M  V30 19517 O 1837.03 5.53187 5.833 0
M  V30 19518 H 1836.77 0.173726 0.653296 0
M  V30 19519 H 1839.32 1.1272 1.71707 0
M  V30 19520 H 1837.55 -0.266969 3.85777 0
M  V30 19521 H 1839.24 0.101088 4.05774 0
M  V30 19522 H 1840.01 2.58409 4.10427 0
M  V30 19523 H 1835.88 1.39274 4.39459 0
M  V30 19524 H 1839.43 4.77502 5.08564 0
M  V30 19525 H 1835.33 3.5747 5.3748 0
M  V30 19526 H 1836.09 5.54864 6.01721 0
M  V30 19527 N 1838.76 -1.46125 0.590367 0
M  V30 19528 C 1839.7 -2.30384 -0.138481 0
M  V30 19529 C 1840.67 -1.41078 -0.876715 0
M  V30 19530 O 1841.86 -1.70022 -0.86587 0
M  V30 19531 C 1839 -3.25684 -1.14122 0
M  V30 19532 C 1838.11 -4.30091 -0.405639 0
M  V30 19533 C 1837.25 -5.12513 -1.39657 0
M  V30 19534 C 1836.29 -6.08662 -0.647833 0
M  V30 19535 N 1835.42 -6.83924 -1.5872 0
M  V30 19536 H 1840.26 -2.9218 0.586086 0
M  V30 19537 H 1837.8 -1.43991 0.300835 0
M  V30 19538 H 1839.76 -3.79388 -1.73553 0
M  V30 19539 H 1838.39 -2.6568 -1.8334 0
M  V30 19540 H 1837.44 -3.79184 0.303858 0
M  V30 19541 H 1838.75 -4.98477 0.179348 0
M  V30 19542 H 1837.91 -5.70531 -2.06346 0
M  V30 19543 H 1836.64 -4.44105 -2.01549 0
M  V30 19544 H 1835.65 -5.4979 0.0327878 0
M  V30 19545 H 1836.87 -6.79091 -0.0342018 0
M  V30 19546 H 1834.82 -6.1822 -2.19408 0
M  V30 19547 H 1834.74 -7.48599 -1.05522 0
M  V30 19548 H 1836.01 -7.46496 -2.2442 0
M  V30 19549 N 1840.23 -0.328564 -1.54137 0
M  V30 19550 C 1841.65 0.0239073 -1.59582 0
M  V30 19551 C 1841.85 1.50043 -1.34497 0
M  V30 19552 O 1840.91 2.25711 -1.13185 0
M  V30 19553 C 1842.22 -0.398812 -2.98044 0
M  V30 19554 C 1843.77 -0.34989 -3.11038 0
M  V30 19555 C 1844.24 -0.747848 -4.51853 0
M  V30 19556 N 1845.73 -0.701447 -4.57858 0
M  V30 19557 C 1846.47 -0.981505 -5.64937 0
M  V30 19558 N 1845.96 -1.32895 -6.79934 0
M  V30 19559 N 1847.76 -0.906735 -5.54738 0
M  V30 19560 H 1839.91 -1.29052 -1.68699 0
M  V30 19561 H 1842.17 -0.52508 -0.7893 0
M  V30 19562 H 1841.88 -1.42773 -3.21417 0
M  V30 19563 H 1841.75 0.233639 -3.76476 0
M  V30 19564 H 1844.14 0.669831 -2.87397 0
M  V30 19565 H 1844.22 -1.01734 -2.34699 0
M  V30 19566 H 1843.86 -1.76551 -4.76227 0
M  V30 19567 H 1843.79 -0.0580299 -5.26568 0
M  V30 19568 H 1846.28 -0.444963 -3.75271 0
M  V30 19569 H 1846.6 -1.52789 -7.57546 0
M  V30 19570 H 1844.94 -1.36726 -6.81418 0
M  V30 19571 H 1848.13 -0.634748 -4.63776 0
M  V30 19572 H 1848.31 -1.12835 -6.38101 0
M  V30 19573 N 1841.71 1.57497 -0.0568439 0
M  V30 19574 C 1842.96 1.92914 0.615668 0
M  V30 19575 C 1843.29 0.935677 1.70515 0
M  V30 19576 O 1842.54 -0.0511255 1.95633 0
M  V30 19577 C 1842.84 3.35 1.24538 0
M  V30 19578 C 1842.51 4.50008 0.283536 0
M  V30 19579 C 1841.17 4.81196 0.0188809 0
M  V30 19580 C 1843.52 5.19847 -0.375336 0
M  V30 19581 C 1840.85 5.79569 -0.911986 0
M  V30 19582 C 1843.2 6.19215 -1.29443 0
M  V30 19583 C 1841.87 6.48829 -1.5677 0
M  V30 19584 H 1841.14 0.705922 0.225289 0
M  V30 19585 H 1843.78 1.91095 -0.124533 0
M  V30 19586 H 1842.09 3.33213 2.06098 0
M  V30 19587 H 1843.78 3.59686 1.77277 0
M  V30 19588 H 1840.37 4.25674 0.499994 0
M  V30 19589 H 1844.56 4.95959 -0.183967 0
M  V30 19590 H 1839.81 6.00846 -1.13112 0
M  V30 19591 H 1843.99 6.7244 -1.811 0
M  V30 19592 H 1841.62 7.24868 -2.29063 0
M  V30 19593 N 1843.19 -0.216591 1.56105 0
M  V30 19594 C 1844.6 -0.783161 1.6948 0
M  V30 19595 C 1844.95 -1.84776 0.659716 0
M  V30 19596 O 1844.08 -2.1558 -0.188184 0
M  V30 19597 C 1844.67 -1.42733 3.07267 0
M  V30 19598 C 1843.23 -1.94123 3.2248 0
M  V30 19599 C 1842.38 -0.803216 2.65412 0
M  V30 19600 H 1845.33 0.00814542 1.58698 0
M  V30 19601 H 1845.35 -2.29627 3.034 0
M  V30 19602 H 1844.86 -0.652264 3.8258 0
M  V30 19603 H 1842.96 -2.74416 2.52045 0
M  V30 19604 H 1843.08 -2.1178 4.29751 0
M  V30 19605 H 1841.44 -1.21185 2.24023 0
M  V30 19606 H 1842.22 -0.0407398 3.43276 0
M  V30 19607 N 1844.67 -1.5 -0.48349 0
M  V30 19608 C 1845.92 -1.60369 -1.23645 0
M  V30 19609 C 1846.24 -0.298319 -1.92199 0
M  V30 19610 O 1845.5 0.715001 -1.82171 0
M  V30 19611 C 1845.8 -2.72475 -2.31283 0
M  V30 19612 C 1845.46 -4.13384 -1.80068 0
M  V30 19613 C 1844.13 -4.51727 -1.65821 0
M  V30 19614 C 1846.48 -5.01501 -1.41937 0
M  V30 19615 C 1843.81 -5.7594 -1.11847 0
M  V30 19616 C 1846.16 -6.2625 -0.894093 0
M  V30 19617 C 1844.82 -6.63406 -0.738151 0
M  V30 19618 H 1844.09 -0.58683 -0.452451 0
M  V30 19619 H 1846.74 -1.83893 -0.534393 0
M  V30 19620 H 1845.04 -2.42991 -3.07348 0
M  V30 19621 H 1846.74 -2.77703 -2.89278 0
M  V30 19622 H 1843.33 -3.83128 -1.92122 0
M  V30 19623 H 1847.51 -4.7252 -1.51784 0
M  V30 19624 H 1842.77 -6.03413 -0.985001 0
M  V30 19625 H 1846.94 -6.93897 -0.589916 0
M  V30 19626 H 1844.57 -7.59536 -0.317755 0
M  V30 19627 N 1846.15 0.735796 -1.39369 0
M  V30 19628 C 1847.08 1.86303 -1.4076 0
M  V30 19629 C 1848.06 1.67926 -0.27107 0
M  V30 19630 O 1849.24 1.88257 -0.476773 0
M  V30 19631 C 1846.37 3.24043 -1.24955 0
M  V30 19632 C 1845.33 3.57055 -2.35999 0
M  V30 19633 C 1844.65 4.93723 -2.05284 0
M  V30 19634 C 1845.95 3.60109 -3.7831 0
M  V30 19635 H 1847.65 1.85396 -2.35093 0
M  V30 19636 H 1845.19 0.890552 -1.1316 0
M  V30 19637 H 1847.15 4.02574 -1.24549 0
M  V30 19638 H 1845.87 3.25475 -0.270902 0
M  V30 19639 H 1844.53 2.80853 -2.35621 0
M  V30 19640 H 1844.18 4.91734 -1.05859 0
M  V30 19641 H 1843.88 5.16779 -2.79667 0
M  V30 19642 H 1845.4 5.74612 -2.06527 0
M  V30 19643 H 1846.81 4.28718 -3.80622 0
M  V30 19644 H 1845.21 3.94683 -4.52046 0
M  V30 19645 H 1846.28 2.59932 -4.09345 0
M  V30 19646 N 1847.63 1.24532 0.965897 0
M  V30 19647 C 1848.59 1.04026 2.04233 0
M  V30 19648 C 1849.59 -0.00305855 1.608 0
M  V30 19649 O 1850.78 0.238077 1.72565 0
M  V30 19650 C 1847.91 0.577072 3.3598 0
M  V30 19651 H 1849.1 1.99569 2.23858 0
M  V30 19652 H 1846.66 1.0678 1.14139 0
M  V30 19653 H 1847.39 -0.381471 3.22049 0
M  V30 19654 H 1847.18 1.33012 3.6885 0
M  V30 19655 H 1848.67 0.45469 4.15117 0
M  V30 19656 N 1849.1 -1.16685 1.05936 0
M  V30 19657 C 1850.35 -1.86758 0.772386 0
M  V30 19658 C 1850.67 -1.81885 -0.703051 0
M  V30 19659 O 1849.94 -1.24992 -1.50844 0
M  V30 19660 H 1848.52 -0.69143 0.282725 0
M  V30 19661 H 1851.18 -1.41518 1.3401 0
M  V30 19662 H 1850.28 -2.92296 1.09405 0
M  V30 19663 N 1850.58 -0.841432 -1.33258 0
M  V30 19664 C 1851.86 -0.360204 -1.92255 0
M  V30 19665 C 1852.24 1.15474 -1.76717 0
M  V30 19666 O 1851.59 1.97035 -1.15713 0
M  V30 19667 C 1851.8 -0.809942 -3.39472 0
M  V30 19668 C 1853.14 -0.819444 -4.16618 0
M  V30 19669 O 1854.17 -0.753715 -3.48134 0
M  V30 19670 O 1853.03 -0.909553 -5.38878 0
M  V30 19671 H 1850.12 -0.102458 -0.820629 0
M  V30 19672 H 1852.67 -0.927455 -1.42114 0
M  V30 19673 H 1851.44 -1.85263 -3.44664 0
M  V30 19674 H 1851.06 -0.219406 -3.96994 0
M  V30 19675 N 1852.06 1.4581 -0.598108 0
M  V30 19676 C 1853.34 1.95588 -0.0220376 0
M  V30 19677 C 1853.72 1.54066 1.44316 0
M  V30 19678 O 1853.06 0.798663 2.14088 0
M  V30 19679 C 1853.27 3.48366 -0.210204 0
M  V30 19680 C 1854.62 4.24513 -0.0860474 0
M  V30 19681 O 1855.65 3.55925 -0.139833 0
M  V30 19682 O 1854.51 5.46488 0.0367961 0
M  V30 19683 H 1851.6 0.825977 0.0411123 0
M  V30 19684 H 1854.15 1.56021 -0.667506 0
M  V30 19685 H 1852.92 3.71526 -1.22818 0
M  V30 19686 H 1852.54 3.94801 0.470974 0
M  V30 19687 N 1853.54 0.336733 1.53961 0
M  V30 19688 C 1854.81 -0.316794 1.93018 0
M  V30 19689 C 1855.19 -1.68802 1.26764 0
M  V30 19690 O 1854.54 -2.2468 0.416094 0
M  V30 19691 C 1854.75 -0.395878 3.46747 0
M  V30 19692 C 1856.1 -0.649946 4.19596 0
M  V30 19693 O 1857.12 -0.47827 3.52975 0
M  V30 19694 O 1855.98 -0.982035 5.37604 0
M  V30 19695 H 1853.08 -0.183442 0.806398 0
M  V30 19696 H 1855.62 0.387412 1.65219 0
M  V30 19697 H 1854.4 0.56665 3.87175 0
M  V30 19698 H 1854.02 -1.14714 3.80692 0
M  V30 19699 N 1855.02 -1.57465 0.0651956 0
M  V30 19700 C 1855.98 -2.1123 -0.889634 0
M  V30 19701 C 1856.98 -1.03489 -1.23072 0
M  V30 19702 O 1858.17 -1.29505 -1.16508 0
M  V30 19703 C 1855.3 -2.60818 -2.19515 0
M  V30 19704 H 1856.49 -2.96898 -0.423301 0
M  V30 19705 H 1854.05 -1.5522 -0.183417 0
M  V30 19706 H 1854.78 -1.78585 -2.70699 0
M  V30 19707 H 1854.57 -3.39564 -1.96057 0
M  V30 19708 H 1856.06 -3.02513 -2.87881 0
M  V30 19709 N 1856.49 0.20831 -1.56217 0
M  V30 19710 C 1857.9 0.774162 -1.69893 0
M  V30 19711 C 1858.26 1.84424 -0.669506 0
M  V30 19712 O 1857.38 2.15677 0.176748 0
M  V30 19713 C 1857.98 1.41102 -3.08019 0
M  V30 19714 C 1856.53 1.9241 -3.23505 0
M  V30 19715 C 1855.68 0.789129 -2.65835 0
M  V30 19716 H 1858.63 -0.0165614 -1.58691 0
M  V30 19717 H 1858.65 2.28015 -3.04614 0
M  V30 19718 H 1858.17 0.631966 -3.8292 0
M  V30 19719 H 1856.27 2.73076 -2.53496 0
M  V30 19720 H 1856.38 2.09497 -4.30868 0
M  V30 19721 H 1854.74 1.19995 -2.24663 0
M  V30 19722 H 1855.53 0.0225345 -3.43293 0
M  V30 19723 N 1857.97 1.50255 0.475528 0
M  V30 19724 C 1859.22 1.61022 1.22793 0
M  V30 19725 C 1859.55 0.308508 1.92038 0
M  V30 19726 O 1858.8 -0.70533 1.82547 0
M  V30 19727 C 1859.1 2.73698 2.29835 0
M  V30 19728 C 1858.77 4.14333 1.77873 0
M  V30 19729 C 1857.43 4.526 1.63423 0
M  V30 19730 C 1859.78 5.02247 1.39275 0
M  V30 19731 C 1857.11 5.76525 1.08791 0
M  V30 19732 C 1859.46 6.26715 0.860869 0
M  V30 19733 C 1858.12 6.63788 0.702959 0
M  V30 19734 H 1857.39 0.589221 0.449332 0
M  V30 19735 H 1860.04 1.84173 0.524633 0
M  V30 19736 H 1858.35 2.44617 3.06055 0
M  V30 19737 H 1860.04 2.79233 2.87802 0
M  V30 19738 H 1856.63 3.84142 1.90087 0
M  V30 19739 H 1860.82 4.73319 1.49276 0
M  V30 19740 H 1856.07 6.03927 0.952987 0
M  V30 19741 H 1860.25 6.942 0.553109 0
M  V30 19742 H 1857.87 7.59693 0.277471 0
M  V30 19743 N 1859.45 -0.728395 1.39758 0
M  V30 19744 C 1860.7 -1.48916 1.38548 0
M  V30 19745 C 1861.05 -1.92393 -0.0166523 0
M  V30 19746 O 1860.34 -1.64371 -0.984518 0
M  V30 19747 C 1860.54 -2.73735 2.29791 0
M  V30 19748 C 1860.37 -2.42465 3.78736 0
M  V30 19749 C 1859.14 -2.34435 4.47625 0
M  V30 19750 C 1861.33 -2.07573 4.70551 0
M  V30 19751 N 1859.32 -1.95705 5.8187 0
M  V30 19752 C 1860.69 -1.7934 5.93496 0
M  V30 19753 C 1862.74 -1.94098 4.58509 0
M  V30 19754 C 1861.45 -1.38989 7.05744 0
M  V30 19755 C 1863.47 -1.55151 5.70686 0
M  V30 19756 C 1862.83 -1.27807 6.92708 0
M  V30 19757 H 1858.93 -0.543508 0.562248 0
M  V30 19758 H 1861.52 -0.845916 1.75363 0
M  V30 19759 H 1859.69 -3.3583 1.95123 0
M  V30 19760 H 1861.42 -3.39985 2.19528 0
M  V30 19761 H 1858.17 -2.51751 4.01146 0
M  V30 19762 H 1858.6 -1.78914 6.52931 0
M  V30 19763 H 1863.24 -2.13904 3.64698 0
M  V30 19764 H 1860.96 -1.17925 7.99449 0
M  V30 19765 H 1864.54 -1.45321 5.63359 0
M  V30 19766 H 1863.42 -0.981212 7.78037 0
M  V30 19767 N 1860.93 -1.25042 -0.959279 0
M  V30 19768 C 1861.86 -1.00807 -2.05841 0
M  V30 19769 C 1862.87 0.0253938 -1.6278 0
M  V30 19770 O 1864.06 -0.212625 -1.77229 0
M  V30 19771 C 1861.16 -0.501088 -3.35175 0
M  V30 19772 C 1860.33 -1.59964 -4.071 0
M  V30 19773 C 1859.39 -1.09383 -5.14705 0
M  V30 19774 O 1858.42 -1.78728 -5.40412 0
M  V30 19775 N 1859.62 0.0673296 -5.80461 0
M  V30 19776 H 1862.39 -1.95446 -2.27203 0
M  V30 19777 H 1859.95 -1.16185 -1.1275 0
M  V30 19778 H 1861.94 -0.147283 -4.04432 0
M  V30 19779 H 1860.51 0.351241 -3.1062 0
M  V30 19780 H 1859.73 -2.12524 -3.32005 0
M  V30 19781 H 1861.02 -2.3378 -4.51912 0
M  V30 19782 H 1860.42 0.646867 -5.61989 0
M  V30 19783 H 1858.97 0.362206 -6.50793 0
M  V30 19784 N 1862.41 1.16121 -1.06553 0
M  V30 19785 C 1863.65 1.86346 -0.782279 0
M  V30 19786 C 1863.98 1.82255 0.693395 0
M  V30 19787 O 1863.25 1.2579 1.50179 0
M  V30 19788 H 1861.83 0.689921 -0.286388 0
M  V30 19789 H 1864.49 1.40805 -1.34758 0
M  V30 19790 H 1863.58 2.91712 -1.10954 0
M  V30 19791 N 1863.88 0.848487 1.3281 0
M  V30 19792 C 1865.13 0.458781 1.98158 0
M  V30 19793 C 1865.49 -0.973453 1.65957 0
M  V30 19794 O 1864.78 -1.67282 0.934194 0
M  V30 19795 C 1864.97 0.62759 3.51847 0
M  V30 19796 C 1864.8 2.07468 3.98983 0
M  V30 19797 C 1863.57 2.71191 4.26361 0
M  V30 19798 C 1865.77 3.04456 4.14501 0
M  V30 19799 N 1863.75 4.06875 4.59702 0
M  V30 19800 C 1865.12 4.25111 4.5131 0
M  V30 19801 C 1867.18 3.00733 3.96817 0
M  V30 19802 C 1865.88 5.42533 4.72282 0
M  V30 19803 C 1867.91 4.17394 4.1897 0
M  V30 19804 C 1867.27 5.36807 4.5609 0
M  V30 19805 H 1863.37 0.216496 0.751434 0
M  V30 19806 H 1865.95 1.09858 1.60746 0
M  V30 19807 H 1864.12 0.0175317 3.88396 0
M  V30 19808 H 1865.85 0.208384 4.04163 0
M  V30 19809 H 1862.61 2.22267 4.18204 0
M  V30 19810 H 1863.03 4.76848 4.80567 0
M  V30 19811 H 1867.68 2.09535 3.67226 0
M  V30 19812 H 1865.39 6.34267 5.0073 0
M  V30 19813 H 1868.98 4.15942 4.06796 0
M  V30 19814 H 1867.86 6.25576 4.72889 0
M  V30 19815 N 1865.36 -1.4549 0.605832 0
M  V30 19816 C 1866.59 -2.07135 0.104838 0
M  V30 19817 C 1867.01 -1.4478 -1.20085 0
M  V30 19818 O 1866.37 -0.539875 -1.73075 0
M  V30 19819 C 1866.42 -3.60593 -0.0231858 0
M  V30 19820 O 1865.52 -3.98173 -1.07386 0
M  V30 19821 H 1864.86 -0.659945 0.0732691 0
M  V30 19822 H 1867.39 -1.8677 0.835343 0
M  V30 19823 H 1867.4 -4.07396 -0.221964 0
M  V30 19824 H 1866.08 -4.05364 0.930211 0
M  V30 19825 H 1864.66 -3.63044 -0.851689 0
M  V30 19826 N 1866.84 -0.344893 -1.5378 0
M  V30 19827 C 1867.79 0.526591 -2.26561 0
M  V30 19828 C 1868.78 1.10083 -1.28756 0
M  V30 19829 O 1869.99 1.04641 -1.46459 0
M  V30 19830 H 1866.36 0.188505 -0.72799 0
M  V30 19831 H 1868.33 -0.109269 -2.982 0
M  V30 19832 C 1867.08 1.66505 -3.0524 0
M  V30 19833 H 1866.41 1.23246 -3.80329 0
M  V30 19834 H 1867.85 2.24998 -3.59377 0
M  V30 19835 C 1866.31 2.59527 -2.14819 0
M  V30 19836 O 1866.84 3.6181 -1.74517 0
M  V30 19837 N 1865.04 2.28243 -1.79871 0
M  V30 19838 H 1864.59 1.45106 -2.12843 0
M  V30 19839 H 1864.55 2.90741 -1.19654 0
M  V30 19840 N 1868.32 1.57428 -0.0735454 0
M  V30 19841 C 1869.25 2.15849 0.890584 0
M  V30 19842 C 1870.23 1.086 1.3092 0
M  V30 19843 O 1871.41 1.36643 1.37994 0
M  V30 19844 C 1868.54 2.72153 2.15755 0
M  V30 19845 C 1867.5 3.84584 1.87827 0
M  V30 19846 C 1866.82 4.27498 3.21169 0
M  V30 19847 C 1868.12 5.08746 1.18217 0
M  V30 19848 H 1869.82 2.96663 0.403904 0
M  V30 19849 H 1867.36 1.42703 0.192836 0
M  V30 19850 H 1869.32 3.11668 2.83621 0
M  V30 19851 H 1868.04 1.88562 2.66668 0
M  V30 19852 H 1866.7 3.45575 1.22366 0
M  V30 19853 H 1866.35 3.40827 3.69927 0
M  V30 19854 H 1866.05 5.03288 3.03273 0
M  V30 19855 H 1867.57 4.69631 3.9023 0
M  V30 19856 H 1868.99 5.45566 1.76155 0
M  V30 19857 H 1867.38 5.89825 1.10573 0
M  V30 19858 H 1868.45 4.84631 0.161525 0
M  V30 19859 N 1869.8 -0.200022 1.56326 0
M  V30 19860 C 1871.21 -0.550653 1.498 0
M  V30 19861 C 1871.41 -1.86097 0.772664 0
M  V30 19862 O 1870.47 -2.50449 0.321155 0
M  V30 19863 C 1871.78 -0.60995 2.94449 0
M  V30 19864 C 1873.33 -0.699119 3.05092 0
M  V30 19865 C 1873.8 -0.78957 4.51143 0
M  V30 19866 N 1875.3 -0.853228 4.55274 0
M  V30 19867 C 1876.03 -0.943298 5.65588 0
M  V30 19868 N 1875.53 -0.995976 6.85603 0
M  V30 19869 N 1877.32 -0.980106 5.53489 0
M  V30 19870 H 1869.47 0.659543 2.019 0
M  V30 19871 H 1871.73 0.234299 0.91859 0
M  V30 19872 H 1871.44 0.283651 3.50554 0
M  V30 19873 H 1871.31 -1.46632 3.47533 0
M  V30 19874 H 1873.7 -1.58315 2.49039 0
M  V30 19875 H 1873.78 0.183351 2.55142 0
M  V30 19876 H 1873.43 0.0900924 5.0782 0
M  V30 19877 H 1873.36 -1.68777 4.9882 0
M  V30 19878 H 1875.85 -0.821964 3.68853 0
M  V30 19879 H 1876.16 -1.06508 7.65425 0
M  V30 19880 H 1874.5 -0.964738 6.88272 0
M  V30 19881 H 1877.7 -0.935755 4.58652 0
M  V30 19882 H 1877.87 -1.04684 6.39488 0
M  V30 19883 N 1871.27 -1.50505 -0.467553 0
M  V30 19884 C 1872.2 -1.72558 -1.57309 0
M  V30 19885 C 1873.19 -0.574619 -1.601 0
M  V30 19886 O 1874.37 -0.814135 -1.76311 0
M  V30 19887 C 1871.5 -1.82296 -2.9561 0
M  V30 19888 C 1870.45 -2.97513 -3.07685 0
M  V30 19889 C 1869.78 -2.92398 -4.47669 0
M  V30 19890 C 1871.08 -4.37968 -2.84573 0
M  V30 19891 H 1872.77 -2.65122 -1.39107 0
M  V30 19892 H 1870.32 -1.2758 -0.667776 0
M  V30 19893 H 1872.27 -1.96308 -3.72882 0
M  V30 19894 H 1871 -0.863562 -3.14976 0
M  V30 19895 H 1869.66 -2.83157 -2.32847 0
M  V30 19896 H 1869.3 -1.94297 -4.63959 0
M  V30 19897 H 1869 -3.69749 -4.56683 0
M  V30 19898 H 1870.53 -3.08464 -5.26956 0
M  V30 19899 H 1871.94 -4.52831 -3.51593 0
M  V30 19900 H 1870.34 -5.16796 -3.05028 0
M  V30 19901 H 1871.41 -4.50093 -1.80402 0
M  V30 19902 N 1872.75 0.720973 -1.40142 0
M  V30 19903 C 1873.7 1.83506 -1.3998 0
M  V30 19904 C 1874.67 1.64092 -0.257489 0
M  V30 19905 O 1875.85 1.85302 -0.454738 0
M  V30 19906 C 1872.99 3.21163 -1.26288 0
M  V30 19907 C 1872.11 3.52185 -2.5018 0
M  V30 19908 C 1871.24 4.79318 -2.2897 0
M  V30 19909 C 1870.28 5.03228 -3.48465 0
M  V30 19910 N 1869.42 6.21572 -3.26485 0
M  V30 19911 H 1874.26 1.82979 -2.35208 0
M  V30 19912 H 1871.8 0.893911 -1.16823 0
M  V30 19913 H 1873.75 4.00646 -1.16357 0
M  V30 19914 H 1872.38 3.20931 -0.346817 0
M  V30 19915 H 1871.44 2.67297 -2.70659 0
M  V30 19916 H 1872.75 3.65765 -3.39142 0
M  V30 19917 H 1871.9 5.66809 -2.16362 0
M  V30 19918 H 1870.64 4.67938 -1.37424 0
M  V30 19919 H 1869.65 4.14194 -3.61557 0
M  V30 19920 H 1870.87 5.16484 -4.40932 0
M  V30 19921 H 1868.82 6.11453 -2.37616 0
M  V30 19922 H 1868.73 6.35804 -4.0901 0
M  V30 19923 H 1870 7.11865 -3.17599 0
M  V30 19924 N 1874.23 1.25549 0.952634 0
M  V30 19925 C 1875.46 1.13162 1.73211 0
M  V30 19926 C 1875.87 -0.314383 1.86164 0
M  V30 19927 O 1875.23 -1.21608 1.3608 0
M  V30 19928 C 1875.28 1.78273 3.14485 0
M  V30 19929 O 1875 3.17221 3.02163 0
M  V30 19930 C 1876.5 1.71691 4.08702 0
M  V30 19931 H 1873.72 0.394613 0.542698 0
M  V30 19932 H 1876.27 1.65951 1.19502 0
M  V30 19933 H 1874.42 1.2945 3.65132 0
M  V30 19934 H 1874.84 3.49266 3.91297 0
M  V30 19935 H 1876.31 2.21906 5.05432 0
M  V30 19936 H 1876.79 0.681094 4.33887 0
M  V30 19937 H 1877.39 2.20012 3.63971 0
M  V30 19938 N 1875.71 -1.15554 1.07168 0
M  V30 19939 C 1876.96 -1.86296 0.793718 0
M  V30 19940 C 1877.28 -1.8222 -0.680145 0
M  V30 19941 O 1876.54 -1.23899 -1.51485 0
M  V30 19942 C 1876.84 -3.3502 1.24484 0
M  V30 19943 C 1876.5 -3.59292 2.72434 0
M  V30 19944 C 1875.17 -3.65625 3.12844 0
M  V30 19945 C 1877.52 -3.69147 3.6794 0
M  V30 19946 C 1874.85 -3.79323 4.47584 0
M  V30 19947 C 1877.2 -3.84368 5.02438 0
M  V30 19948 C 1875.86 -3.88946 5.42473 0
M  V30 19949 H 1875.13 -0.681707 0.290442 0
M  V30 19950 H 1877.78 -1.36575 1.34236 0
M  V30 19951 H 1876.08 -3.86934 0.615546 0
M  V30 19952 H 1877.78 -3.88158 1.00669 0
M  V30 19953 H 1874.37 -3.55002 2.40149 0
M  V30 19954 H 1878.55 -3.63556 3.37847 0
M  V30 19955 H 1873.81 -3.81124 4.78074 0
M  V30 19956 H 1877.98 -3.90935 5.76318 0
M  V30 19957 H 1875.61 -3.99312 6.4688 0
M  V30 19958 N 1877.19 -0.855519 -1.32358 0
M  V30 19959 C 1878.12 -0.258029 -2.27743 0
M  V30 19960 C 1879.13 0.570733 -1.52468 0
M  V30 19961 O 1880.32 0.395082 -1.74073 0
M  V30 19962 C 1877.42 0.653958 -3.32531 0
M  V30 19963 C 1876.59 -0.139145 -4.37179 0
M  V30 19964 C 1875.65 0.698738 -5.2154 0
M  V30 19965 O 1874.68 0.131945 -5.69047 0
M  V30 19966 N 1875.88 2.01331 -5.44468 0
M  V30 19967 H 1878.65 -1.07766 -2.79654 0
M  V30 19968 H 1876.21 -0.715584 -1.45227 0
M  V30 19969 H 1878.2 1.21985 -3.85878 0
M  V30 19970 H 1876.77 1.37427 -2.80771 0
M  V30 19971 H 1875.99 -0.886466 -3.84103 0
M  V30 19972 H 1877.28 -0.683873 -5.04183 0
M  V30 19973 H 1876.68 2.49712 -5.07602 0
M  V30 19974 H 1875.23 2.52732 -6.00808 0
M  V30 19975 N 1878.67 1.45167 -0.61354 0
M  V30 19976 C 1879.6 2.3333 0.089004 0
M  V30 19977 C 1880.58 1.47181 0.85275 0
M  V30 19978 O 1881.76 1.7594 0.822122 0
M  V30 19979 C 1878.89 3.29982 1.08301 0
M  V30 19980 C 1877.85 4.25813 0.432084 0
M  V30 19981 C 1877.17 5.122 1.53476 0
M  V30 19982 C 1878.47 5.18233 -0.65052 0
M  V30 19983 H 1880.17 2.92322 -0.647165 0
M  V30 19984 H 1877.71 1.40565 -0.312667 0
M  V30 19985 H 1879.66 3.90533 1.5831 0
M  V30 19986 H 1878.39 2.69162 1.84985 0
M  V30 19987 H 1877.05 3.6657 -0.0471927 0
M  V30 19988 H 1876.7 4.47744 2.29203 0
M  V30 19989 H 1876.4 5.77122 1.10469 0
M  V30 19990 H 1877.92 5.7562 2.037 0
M  V30 19991 H 1879.33 5.72821 -0.234262 0
M  V30 19992 H 1877.73 5.91664 -1.00268 0
M  V30 19993 H 1878.8 4.60304 -1.52475 0
M  V30 19994 N 1880.14 0.353044 1.53595 0
M  V30 19995 C 1881.39 -0.2416 2.00248 0
M  V30 19996 C 1881.71 -1.5089 1.24465 0
M  V30 19997 O 1882.91 -2.18137 1.61643 0
M  V30 19998 C 1881.37 -0.481075 3.5667 0
M  V30 19999 C 1880.98 0.77087 4.41318 0
M  V30 20000 C 1882.72 -1.03406 4.11713 0
M  V30 20001 C 1880.63 0.501671 5.89268 0
M  V30 20002 H 1879.56 -0.0940573 0.74811 0
M  V30 20003 H 1882.21 0.469845 1.77383 0
M  V30 20004 H 1880.59 -1.25346 3.75639 0
M  V30 20005 H 1881.76 1.54509 4.34124 0
M  V30 20006 H 1880.08 1.24617 3.97315 0
M  V30 20007 H 1882.68 -1.25058 5.1987 0
M  V30 20008 H 1883.02 -1.99245 3.65523 0
M  V30 20009 H 1883.55 -0.322144 3.96493 0
M  V30 20010 H 1880.29 1.43005 6.39711 0
M  V30 20011 H 1879.81 -0.234284 5.99342 0
M  V30 20012 H 1881.49 0.122468 6.46884 0
M  V30 20013 N 1881.62 -1.57387 0.0818932 0
M  V30 20014 C 1882.53 -2.16804 -0.89629 0
M  V30 20015 C 1883.55 -1.1339 -1.3198 0
M  V30 20016 O 1884.72 -1.45702 -1.39042 0
M  V30 20017 C 1881.79 -2.72607 -2.14211 0
M  V30 20018 C 1880.85 -3.90929 -1.77406 0
M  V30 20019 C 1880.08 -4.44062 -2.96049 0
M  V30 20020 O 1880.31 -3.96166 -4.10376 0
M  V30 20021 O 1879.24 -5.35261 -2.75279 0
M  V30 20022 H 1883.07 -3.0077 -0.420827 0
M  V30 20023 H 1880.65 -1.48726 -0.141737 0
M  V30 20024 H 1882.53 -3.0833 -2.87247 0
M  V30 20025 H 1881.21 -1.91694 -2.60835 0
M  V30 20026 H 1880.11 -3.60042 -1.01591 0
M  V30 20027 H 1881.45 -4.73165 -1.35556 0
M  V30 20028 N 1883.1 0.191729 -1.56429 0
M  V30 20029 C 1884.05 1.25706 -1.95706 0
M  V30 20030 C 1885.04 1.46938 -0.842948 0
M  V30 20031 O 1886.25 1.47759 -1.02797 0
M  V30 20032 H 1882.62 0.422099 -0.622364 0
M  V30 20033 H 1884.59 0.8988 -2.84542 0
M  V30 20034 C 1883.34 2.59366 -2.3157 0
M  V30 20035 H 1882.67 2.43845 -3.16827 0
M  V30 20036 H 1884.11 3.32646 -2.62912 0
M  V30 20037 C 1882.56 3.16609 -1.15155 0
M  V30 20038 O 1883.09 3.9941 -0.428355 0
M  V30 20039 N 1881.3 2.75402 -0.927467 0
M  V30 20040 H 1880.85 2.08172 -1.5173 0
M  V30 20041 H 1880.81 3.1404 -0.150348 0
M  V30 20042 N 1884.58 1.50751 0.459565 0
M  V30 20043 C 1885.52 1.70454 1.55609 0
M  V30 20044 C 1886.49 0.545921 1.56872 0
M  V30 20045 O 1887.68 0.777824 1.74226 0
M  V30 20046 C 1884.82 1.81524 2.93501 0
M  V30 20047 C 1883.93 3.08962 3.01938 0
M  V30 20048 C 1883.07 3.10758 4.30816 0
M  V30 20049 C 1882.11 4.32602 4.33038 0
M  V30 20050 N 1881.24 4.32073 5.53405 0
M  V30 20051 H 1886.08 2.64062 1.38112 0
M  V30 20052 H 1883.62 1.30889 0.671307 0
M  V30 20053 H 1885.58 1.85923 3.73481 0
M  V30 20054 H 1884.21 0.913445 3.09606 0
M  V30 20055 H 1883.26 3.13979 2.14759 0
M  V30 20056 H 1884.57 3.9892 2.9944 0
M  V30 20057 H 1883.73 3.13951 5.19153 0
M  V30 20058 H 1882.47 2.1865 4.3594 0
M  V30 20059 H 1881.47 4.2961 3.43097 0
M  V30 20060 H 1882.7 5.2595 4.29596 0
M  V30 20061 H 1880.64 3.42824 5.59292 0
M  V30 20062 H 1880.56 5.15814 5.52695 0
M  V30 20063 H 1881.83 4.39428 6.43835 0
M  V30 20064 N 1886.06 -0.713531 1.40522 0
M  V30 20065 C 1887.29 -1.50042 1.42024 0
M  V30 20066 C 1887.69 -1.89191 0.0188277 0
M  V30 20067 O 1887.04 -1.56122 -0.968071 0
M  V30 20068 C 1887.1 -2.8045 2.24918 0
M  V30 20069 C 1886.76 -2.63612 3.73306 0
M  V30 20070 C 1887.76 -2.30736 4.65893 0
M  V30 20071 C 1885.44 -2.79813 4.17145 0
M  V30 20072 C 1887.44 -2.14273 6.00305 0
M  V30 20073 C 1885.13 -2.62967 5.51626 0
M  V30 20074 C 1886.12 -2.30246 6.43021 0
M  V30 20075 O 1885.81 -2.1353 7.75023 0
M  V30 20076 H 1885.54 -0.46954 0.486321 0
M  V30 20077 H 1888.1 -0.887579 1.85233 0
M  V30 20078 H 1886.33 -3.44075 1.76492 0
M  V30 20079 H 1888.02 -3.42176 2.18336 0
M  V30 20080 H 1888.78 -2.17851 4.3332 0
M  V30 20081 H 1884.66 -3.04269 3.46325 0
M  V30 20082 H 1888.21 -1.88656 6.71606 0
M  V30 20083 H 1884.1 -2.75437 5.83785 0
M  V30 20084 H 1884.87 -2.28434 7.85977 0
M  V30 20085 N 1887.53 -1.26053 -0.945962 0
M  V30 20086 C 1888.78 -1.11315 -1.69161 0
M  V30 20087 C 1889.11 0.34437 -1.91427 0
M  V30 20088 O 1888.36 1.26968 -1.48921 0
M  V30 20089 C 1888.66 -1.8222 -3.07459 0
M  V30 20090 C 1888.33 -3.32126 -3.04964 0
M  V30 20091 C 1886.99 -3.73019 -3.03991 0
M  V30 20092 C 1889.34 -4.2786 -2.97633 0
M  V30 20093 C 1886.67 -5.08041 -2.93446 0
M  V30 20094 C 1889.02 -5.62917 -2.88631 0
M  V30 20095 C 1887.69 -6.03127 -2.85998 0
M  V30 20096 H 1886.96 -0.407329 -0.619002 0
M  V30 20097 H 1889.6 -1.56435 -1.10454 0
M  V30 20098 H 1887.91 -1.29554 -3.69761 0
M  V30 20099 H 1889.61 -1.68261 -3.63991 0
M  V30 20100 H 1886.2 -2.99594 -3.06498 0
M  V30 20101 H 1890.38 -3.97252 -2.97497 0
M  V30 20102 H 1885.64 -5.38364 -2.89782 0
M  V30 20103 H 1889.81 -6.36784 -2.81921 0
M  V30 20104 H 1887.44 -7.07709 -2.77583 0
M  V30 20105 N 1889.01 1.14984 -1.07779 0
M  V30 20106 C 1889.92 2.23484 -0.713576 0
M  V30 20107 C 1890.94 1.71779 0.277104 0
M  V30 20108 O 1892.11 2.01026 0.122649 0
M  V30 20109 C 1889.18 3.46487 -0.121542 0
M  V30 20110 C 1888.24 4.13162 -1.16602 0
M  V30 20111 C 1887.47 5.30292 -0.602138 0
M  V30 20112 O 1887.7 5.67439 0.580436 0
M  V30 20113 O 1886.63 5.86585 -1.34912 0
M  V30 20114 H 1890.46 2.56978 -1.61852 0
M  V30 20115 H 1888.04 1.22791 -0.851038 0
M  V30 20116 H 1889.92 4.20896 0.206134 0
M  V30 20117 H 1888.6 3.14732 0.756659 0
M  V30 20118 H 1887.5 3.40655 -1.54612 0
M  V30 20119 H 1888.84 4.49007 -2.01627 0
M  V30 20120 N 1890.49 0.862526 1.31902 0
M  V30 20121 C 1891.72 0.484006 2.01159 0
M  V30 20122 C 1892.13 -0.92148 1.64785 0
M  V30 20123 O 1891.49 -1.60254 0.873216 0
M  V30 20124 C 1891.54 0.622709 3.56096 0
M  V30 20125 O 1891.26 1.97284 3.91166 0
M  V30 20126 C 1892.76 0.244225 4.42627 0
M  V30 20127 H 1889.98 0.189378 0.643721 0
M  V30 20128 H 1892.53 1.16164 1.68304 0
M  V30 20129 H 1890.68 -0.00728166 3.87399 0
M  V30 20130 H 1891.1 1.97525 4.85885 0
M  V30 20131 H 1892.57 0.392254 5.50605 0
M  V30 20132 H 1893.05 -0.816006 4.31553 0
M  V30 20133 H 1893.65 0.84961 4.16727 0
M  V30 20134 N 1891.97 -1.4484 0.62123 0
M  V30 20135 C 1892.93 -2.29061 -0.0797989 0
M  V30 20136 C 1893.93 -1.40508 -0.781932 0
M  V30 20137 O 1895.12 -1.62485 -0.628023 0
M  V30 20138 C 1892.25 -3.21857 -1.12342 0
M  V30 20139 H 1893.45 -2.92528 0.66084 0
M  V30 20140 H 1891 -1.51588 0.3809 0
M  V30 20141 H 1891.73 -2.63218 -1.89437 0
M  V30 20142 H 1891.52 -3.87103 -0.624003 0
M  V30 20143 H 1893.01 -3.8515 -1.61398 0
M  V30 20144 N 1893.45 -0.361184 -1.53405 0
M  V30 20145 C 1894.69 0.230222 -2.01489 0
M  V30 20146 C 1895.03 1.48779 -1.24814 0
M  V30 20147 O 1894.3 1.91494 -0.340612 0
M  V30 20148 C 1894.58 0.526613 -3.56229 0
M  V30 20149 C 1894.44 -0.744277 -4.436 0
M  V30 20150 C 1895.76 1.32901 -4.19554 0
M  V30 20151 H 1892.87 0.0822009 -0.732402 0
M  V30 20152 H 1895.52 -0.485208 -1.837 0
M  V30 20153 H 1893.67 1.13609 -3.71517 0
M  V30 20154 H 1895.34 -1.38188 -4.40116 0
M  V30 20155 H 1893.58 -1.36555 -4.11747 0
M  V30 20156 H 1894.25 -0.491913 -5.49804 0
M  V30 20157 H 1896.73 0.813474 -4.08071 0
M  V30 20158 H 1895.6 1.50513 -5.27861 0
M  V30 20159 H 1895.87 2.33625 -3.75329 0
M  V30 20160 N 1894.92 1.57341 -0.0902386 0
M  V30 20161 C 1896.17 1.93352 0.574273 0
M  V30 20162 C 1896.49 0.97374 1.6964 0
M  V30 20163 O 1897.69 1.22737 2.42173 0
M  V30 20164 C 1896.15 3.43536 1.07289 0
M  V30 20165 C 1895.76 4.47996 -0.0192163 0
M  V30 20166 C 1897.5 3.88516 1.71042 0
M  V30 20167 C 1895.41 5.89329 0.494487 0
M  V30 20168 H 1894.34 0.721711 0.218287 0
M  V30 20169 H 1896.99 1.82753 -0.165456 0
M  V30 20170 H 1895.37 3.49271 1.86616 0
M  V30 20171 H 1896.54 4.53899 -0.794527 0
M  V30 20172 H 1894.86 4.12595 -0.561628 0
M  V30 20173 H 1897.46 4.91505 2.1054 0
M  V30 20174 H 1897.8 3.26896 2.57769 0
M  V30 20175 H 1898.33 3.85462 0.983058 0
M  V30 20176 H 1895.07 6.54638 -0.336054 0
M  V30 20177 H 1894.59 5.86908 1.23691 0
M  V30 20178 H 1896.27 6.39763 0.965014 0
M  V30 20179 N 1896.4 -0.183431 1.56529 0
M  V30 20180 C 1897.63 -0.917888 1.85425 0
M  V30 20181 C 1898.05 -1.76353 0.674171 0
M  V30 20182 O 1897.4 -1.78975 -0.35695 0
M  V30 20183 C 1897.45 -1.80454 3.13239 0
M  V30 20184 O 1897.17 -0.993028 4.26697 0
M  V30 20185 C 1898.68 -2.64969 3.55396 0
M  V30 20186 H 1895.9 -0.267254 0.61548 0
M  V30 20187 H 1898.44 -0.187171 2.03642 0
M  V30 20188 H 1896.59 -2.48874 2.96884 0
M  V30 20189 H 1897.01 -1.59831 4.99554 0
M  V30 20190 H 1898.48 -3.22819 4.47763 0
M  V30 20191 H 1898.96 -3.3925 2.78937 0
M  V30 20192 H 1899.57 -2.01902 3.74321 0
M  V30 20193 N 1897.88 -1.50992 -0.451564 0
M  V30 20194 C 1898.81 -1.65941 -1.56648 0
M  V30 20195 C 1899.79 -0.507159 -1.54488 0
M  V30 20196 O 1900.98 -0.729186 -1.73825 0
M  V30 20197 C 1898.1 -1.65995 -2.95234 0
M  V30 20198 C 1897.15 -2.87016 -3.15474 0
M  V30 20199 S 1897.98 -4.48044 -2.93287 0
M  V30 20200 C 1899.14 -4.5082 -4.3418 0
M  V30 20201 H 1899.37 -2.60247 -1.43731 0
M  V30 20202 H 1896.9 -1.40499 -0.640276 0
M  V30 20203 H 1898.86 -1.6671 -3.75124 0
M  V30 20204 H 1897.52 -0.728911 -3.05525 0
M  V30 20205 H 1896.72 -2.83413 -4.16765 0
M  V30 20206 H 1896.32 -2.83969 -2.43388 0
M  V30 20207 H 1898.61 -4.25585 -5.27147 0
M  V30 20208 H 1899.55 -5.52554 -4.4282 0
M  V30 20209 H 1899.96 -3.80301 -4.17171 0
M  V30 20210 N 1899.36 0.706069 -1.40899 0
M  V30 20211 C 1900.61 1.46164 -1.38993 0
M  V30 20212 C 1900.92 1.956 0.00145788 0
M  V30 20213 O 1902.13 2.71122 0.143137 0
M  V30 20214 C 1900.58 2.64252 -2.44334 0
M  V30 20215 C 1900.19 2.21646 -3.89329 0
M  V30 20216 C 1901.93 3.41941 -2.51549 0
M  V30 20217 C 1899.84 3.36629 -4.86245 0
M  V30 20218 H 1898.77 0.548985 -0.516847 0
M  V30 20219 H 1901.42 0.767528 -1.66677 0
M  V30 20220 H 1899.8 3.3588 -2.09764 0
M  V30 20221 H 1900.98 1.57376 -4.33093 0
M  V30 20222 H 1899.29 1.56978 -3.85677 0
M  V30 20223 H 1901.89 4.27518 -3.21142 0
M  V30 20224 H 1902.23 3.86409 -1.54899 0
M  V30 20225 H 1902.77 2.77363 -2.85158 0
M  V30 20226 H 1899.51 2.97183 -5.84262 0
M  V30 20227 H 1899.03 3.99784 -4.47139 0
M  V30 20228 H 1900.7 4.02559 -5.06513 0
M  V30 20229 N 1900.84 1.26553 0.939264 0
M  V30 20230 C 1901.77 1.10778 2.05549 0
M  V30 20231 C 1902.75 0.0124359 1.70095 0
M  V30 20232 O 1903.93 0.184814 1.93319 0
M  V30 20233 C 1901.06 0.742011 3.39281 0
M  V30 20234 C 1900.02 1.78931 3.88803 0
M  V30 20235 C 1899.34 1.2778 5.19207 0
M  V30 20236 C 1900.64 3.1912 4.13473 0
M  V30 20237 H 1902.34 2.04151 2.19004 0
M  V30 20238 H 1899.88 0.98294 1.05234 0
M  V30 20239 H 1901.84 0.618526 4.16836 0
M  V30 20240 H 1900.56 -0.22742 3.25807 0
M  V30 20241 H 1899.22 1.9015 3.13431 0
M  V30 20242 H 1898.87 0.298159 5.02116 0
M  V30 20243 H 1898.57 1.9779 5.53311 0
M  V30 20244 H 1900.09 1.16703 5.99344 0
M  V30 20245 H 1901.5 3.10967 4.81635 0
M  V30 20246 H 1899.9 3.86738 4.58862 0
M  V30 20247 H 1900.97 3.65034 3.19183 0
M  V30 20248 N 1902.31 -1.14411 1.08387 0
M  V30 20249 C 1903.24 -2.21619 0.735327 0
M  V30 20250 C 1904.23 -1.67744 -0.282132 0
M  V30 20251 O 1905.41 -1.936 -0.152547 0
M  V30 20252 C 1902.54 -3.47003 0.143628 0
M  V30 20253 C 1901.49 -4.13903 1.08941 0
M  V30 20254 C 1900.82 -5.33487 0.359941 0
M  V30 20255 C 1902.12 -4.62463 2.42746 0
M  V30 20256 H 1903.81 -2.51031 1.63168 0
M  V30 20257 H 1901.36 -1.20658 0.785981 0
M  V30 20258 H 1903.31 -4.21251 -0.112217 0
M  V30 20259 H 1902.04 -3.16955 -0.787856 0
M  V30 20260 H 1900.7 -3.4161 1.33035 0
M  V30 20261 H 1900.34 -4.99699 -0.57534 0
M  V30 20262 H 1900.04 -5.79192 0.990451 0
M  V30 20263 H 1901.57 -6.10497 0.112145 0
M  V30 20264 H 1902.98 -5.28185 2.22919 0
M  V30 20265 H 1901.38 -5.18869 3.01488 0
M  V30 20266 H 1902.45 -3.77542 3.04286 0
M  V30 20267 N 1903.79 -0.869509 -1.31443 0
M  V30 20268 C 1905.02 -0.493849 -2.01435 0
M  V30 20269 C 1905.44 0.906049 -1.6484 0
M  V30 20270 O 1904.8 1.59777 -0.856794 0
M  V30 20271 C 1904.85 -0.657723 -3.54551 0
M  V30 20272 O 1903.95 0.303155 -4.11284 0
M  V30 20273 H 1903.29 -0.196494 -0.63426 0
M  V30 20274 H 1905.82 -1.1728 -1.6765 0
M  V30 20275 H 1905.83 -0.550841 -4.04264 0
M  V30 20276 H 1904.51 -1.67848 -3.80526 0
M  V30 20277 H 1903.09 0.151268 -3.72593 0
M  V30 20278 N 1905.27 1.44508 -0.628902 0
M  V30 20279 C 1906.5 2.06942 -0.137778 0
M  V30 20280 C 1906.92 1.46672 1.17766 0
M  V30 20281 O 1906.28 0.567342 1.72194 0
M  V30 20282 C 1906.33 3.60584 -0.0341843 0
M  V30 20283 O 1905.43 3.99831 1.01038 0
M  V30 20284 H 1904.77 0.658696 -0.083759 0
M  V30 20285 H 1907.3 1.85418 -0.864951 0
M  V30 20286 H 1907.31 4.07697 0.157123 0
M  V30 20287 H 1905.99 4.03833 -0.994583 0
M  V30 20288 H 1904.56 3.64353 0.793824 0
M  V30 20289 N 1906.75 0.369315 1.53212 0
M  V30 20290 C 1907.68 -0.467242 2.28777 0
M  V30 20291 C 1908.66 -1.08073 1.31355 0
M  V30 20292 O 1909.85 -1.09728 1.60229 0
M  V30 20293 C 1906.98 -1.60519 3.07979 0
M  V30 20294 C 1905.93 -1.11876 4.1312 0
M  V30 20295 C 1905.26 -2.34723 4.80426 0
M  V30 20296 C 1906.56 -0.200846 5.21914 0
M  V30 20297 H 1908.25 0.163201 2.98955 0
M  V30 20298 H 1905.8 0.0799312 1.43778 0
M  V30 20299 H 1907.75 -2.19708 3.59592 0
M  V30 20300 H 1906.47 -2.26292 2.35499 0
M  V30 20301 H 1905.13 -0.549521 3.62458 0
M  V30 20302 H 1904.78 -2.98961 4.04514 0
M  V30 20303 H 1904.48 -2.02846 5.51477 0
M  V30 20304 H 1906 -2.94592 5.34835 0
M  V30 20305 H 1907.42 -0.700331 5.69006 0
M  V30 20306 H 1905.81 0.0272222 6.00094 0
M  V30 20307 H 1906.88 0.755948 4.78971 0
M  V30 20308 N 1908.23 -1.57291 0.0985816 0
M  V30 20309 C 1909.19 -2.1307 -0.844628 0
M  V30 20310 C 1910.19 -1.06076 -1.20849 0
M  V30 20311 O 1911.38 -1.31947 -1.13735 0
M  V30 20312 C 1908.51 -2.65416 -2.13933 0
M  V30 20313 H 1909.71 -2.97729 -0.36023 0
M  V30 20314 H 1907.26 -1.55574 -0.150451 0
M  V30 20315 H 1907.99 -1.84287 -2.6685 0
M  V30 20316 H 1907.78 -3.43647 -1.88811 0
M  V30 20317 H 1909.27 -3.08551 -2.814 0
M  V30 20318 N 1909.71 0.175127 -1.56624 0
M  V30 20319 C 1910.64 1.21918 -1.99144 0
M  V30 20320 C 1911.62 1.4638 -0.866428 0
M  V30 20321 O 1912.8 1.57779 -1.13223 0
M  V30 20322 C 1909.93 2.55897 -2.34807 0
M  V30 20323 C 1908.89 2.46011 -3.50232 0
M  V30 20324 C 1908.21 3.84445 -3.71626 0
M  V30 20325 C 1909.51 1.96808 -4.83801 0
M  V30 20326 H 1911.21 0.86575 -2.8661 0
M  V30 20327 H 1908.75 0.415014 -1.3789 0
M  V30 20328 H 1910.7 3.29136 -2.63149 0
M  V30 20329 H 1909.43 2.9302 -1.44245 0
M  V30 20330 H 1908.09 1.75227 -3.22011 0
M  V30 20331 H 1907.74 4.18955 -2.78362 0
M  V30 20332 H 1907.44 3.787 -4.49288 0
M  V30 20333 H 1908.96 4.59276 -4.02366 0
M  V30 20334 H 1910.37 2.59819 -5.11045 0
M  V30 20335 H 1908.77 2.0202 -5.65073 0
M  V30 20336 H 1909.84 0.922209 -4.7605 0
M  V30 20337 N 1911.18 1.5123 0.44355 0
M  V30 20338 C 1912.15 1.71511 1.52041 0
M  V30 20339 C 1913.15 0.585226 1.49772 0
M  V30 20340 O 1914.34 0.852687 1.51904 0
M  V30 20341 C 1911.47 1.76583 2.91601 0
M  V30 20342 H 1912.66 2.67613 1.35364 0
M  V30 20343 H 1910.21 1.41125 0.671811 0
M  V30 20344 H 1910.95 0.822743 3.1369 0
M  V30 20345 H 1910.73 2.58693 2.94653 0
M  V30 20346 H 1912.22 1.94135 3.69732 0
M  V30 20347 N 1912.66 -0.698586 1.41271 0
M  V30 20348 C 1913.59 -1.82505 1.4565 0
M  V30 20349 C 1914.57 -1.67149 0.315497 0
M  V30 20350 O 1915.76 -1.86926 0.526518 0
M  V30 20351 C 1912.89 -3.20616 1.33502 0
M  V30 20352 C 1911.84 -3.50672 2.45383 0
M  V30 20353 C 1911.17 -4.88107 2.18302 0
M  V30 20354 C 1912.47 -3.49952 3.87725 0
M  V30 20355 H 1914.16 -1.79098 2.39926 0
M  V30 20356 H 1911.71 -0.860237 1.15481 0
M  V30 20357 H 1913.66 -3.9913 1.35179 0
M  V30 20358 H 1912.38 -3.24642 0.357101 0
M  V30 20359 H 1911.04 -2.74507 2.42984 0
M  V30 20360 H 1910.69 -4.88755 1.1886 0
M  V30 20361 H 1910.39 -5.09182 2.9327 0
M  V30 20362 H 1911.92 -5.68934 2.21689 0
M  V30 20363 H 1913.33 -4.18476 3.91855 0
M  V30 20364 H 1911.73 -3.82559 4.62351 0
M  V30 20365 H 1912.8 -2.48988 4.16093 0
M  V30 20366 N 1914.14 -1.27049 -0.93254 0
M  V30 20367 C 1915.05 -1.11156 -2.06595 0
M  V30 20368 C 1916.07 -0.0428245 -1.73947 0
M  V30 20369 O 1917.24 -0.248326 -1.99863 0
M  V30 20370 C 1914.31 -0.755297 -3.38373 0
M  V30 20371 C 1913.37 -1.90439 -3.84749 0
M  V30 20372 C 1912.6 -1.56502 -5.10238 0
M  V30 20373 O 1912.82 -0.470696 -5.68455 0
M  V30 20374 O 1911.76 -2.40262 -5.51868 0
M  V30 20375 H 1915.58 -2.0626 -2.22914 0
M  V30 20376 H 1913.17 -1.06191 -1.05089 0
M  V30 20377 H 1915.05 -0.569728 -4.17531 0
M  V30 20378 H 1913.73 0.166262 -3.23273 0
M  V30 20379 H 1912.63 -2.14498 -3.06499 0
M  V30 20380 H 1913.97 -2.80598 -4.04383 0
M  V30 20381 N 1915.62 1.13835 -1.08993 0
M  V30 20382 C 1916.89 1.81232 -0.735809 0
M  V30 20383 C 1917.27 1.96172 0.779737 0
M  V30 20384 O 1916.62 1.52629 1.70049 0
M  V30 20385 C 1916.83 3.16546 -1.46968 0
M  V30 20386 C 1918.18 3.91958 -1.6326 0
M  V30 20387 O 1919.2 3.26155 -1.43183 0
M  V30 20388 O 1918.06 5.09976 -1.96435 0
M  V30 20389 H 1915.16 0.783794 -0.26381 0
M  V30 20390 H 1917.7 1.20801 -1.19186 0
M  V30 20391 H 1916.48 3.00872 -2.50183 0
M  V30 20392 H 1916.1 3.84676 -1.00551 0
M  V30 20393 N 1917.1 0.876467 1.3098 0
M  V30 20394 C 1918.34 0.491367 1.96757 0
M  V30 20395 C 1918.67 -0.955274 1.6908 0
M  V30 20396 O 1917.95 -1.6737 0.990843 0
M  V30 20397 C 1918.23 0.756745 3.52059 0
M  V30 20398 C 1918.09 2.25339 3.89284 0
M  V30 20399 C 1919.4 0.227549 4.39511 0
M  V30 20400 H 1916.52 0.179998 0.714681 0
M  V30 20401 H 1919.17 1.0989 1.54997 0
M  V30 20402 H 1917.32 0.239657 3.8776 0
M  V30 20403 H 1918.99 2.83824 3.63651 0
M  V30 20404 H 1917.23 2.72341 3.37658 0
M  V30 20405 H 1917.9 2.38971 4.97591 0
M  V30 20406 H 1920.38 0.670016 4.1067 0
M  V30 20407 H 1919.25 0.442629 5.47112 0
M  V30 20408 H 1919.51 -0.870833 4.33438 0
M  V30 20409 N 1918.57 -1.44173 0.636557 0
M  V30 20410 C 1919.52 -2.27834 -0.087113 0
M  V30 20411 C 1920.51 -1.3897 -0.810926 0
M  V30 20412 O 1921.7 -1.62736 -0.696139 0
M  V30 20413 C 1918.83 -3.26385 -1.06431 0
M  V30 20414 C 1917.91 -4.22736 -0.339835 0
M  V30 20415 N 1918.31 -5.01804 0.634535 0
M  V30 20416 C 1916.6 -4.42166 -0.583549 0
M  V30 20417 C 1917.3 -5.71904 1.06306 0
M  V30 20418 N 1916.28 -5.42121 0.400722 0
M  V30 20419 H 1920.08 -2.86375 0.660817 0
M  V30 20420 H 1917.6 -1.55675 0.462493 0
M  V30 20421 H 1919.59 -3.85083 -1.5974 0
M  V30 20422 H 1918.25 -2.69405 -1.81248 0
M  V30 20423 H 1919.26 -5.07905 1.01258 0
M  V30 20424 H 1915.94 -3.96277 -1.31417 0
M  V30 20425 H 1917.33 -6.45401 1.86835 0
M  V30 20426 N 1920.05 -0.377435 -1.53014 0
M  V30 20427 C 1920.98 0.455103 -2.29022 0
M  V30 20428 C 1921.96 1.07375 -1.31926 0
M  V30 20429 O 1923.15 1.08877 -1.60809 0
M  V30 20430 C 1920.28 1.58883 -3.08826 0
M  V30 20431 C 1919.23 1.09683 -4.13707 0
M  V30 20432 C 1918.56 2.32172 -4.81664 0
M  V30 20433 C 1919.86 0.173165 -5.22013 0
M  V30 20434 H 1921.55 -0.179053 -2.98864 0
M  V30 20435 H 1919.1 -0.0875549 -1.43734 0
M  V30 20436 H 1921.05 2.17798 -3.60752 0
M  V30 20437 H 1919.77 2.2504 -2.36695 0
M  V30 20438 H 1918.43 0.530291 -3.62744 0
M  V30 20439 H 1918.08 2.96811 -4.06094 0
M  V30 20440 H 1917.78 1.99919 -5.52545 0
M  V30 20441 H 1919.31 2.91751 -5.3639 0
M  V30 20442 H 1920.72 0.670145 -5.6937 0
M  V30 20443 H 1919.12 -0.0590463 -6.00071 0
M  V30 20444 H 1920.19 -0.781339 -4.78564 0
M  V30 20445 N 1921.53 1.57237 -0.106922 0
M  V30 20446 C 1922.46 2.11718 0.877968 0
M  V30 20447 C 1923.48 1.0571 1.23812 0
M  V30 20448 O 1924.66 1.3312 1.18917 0
M  V30 20449 C 1921.76 2.59182 2.18352 0
M  V30 20450 C 1920.94 3.89156 1.99691 0
M  V30 20451 C 1920 4.22344 3.13866 0
M  V30 20452 O 1919.02 4.91367 2.87309 0
M  V30 20453 N 1920.22 3.78694 4.39967 0
M  V30 20454 H 1922.99 2.96846 0.412584 0
M  V30 20455 H 1920.55 1.61713 0.0778505 0
M  V30 20456 H 1922.54 2.78423 2.93706 0
M  V30 20457 H 1921.11 1.78999 2.56277 0
M  V30 20458 H 1920.33 3.78945 1.086 0
M  V30 20459 H 1921.62 4.74165 1.84514 0
M  V30 20460 H 1921.02 3.23 4.64422 0
M  V30 20461 H 1919.58 4.03067 5.12231 0
M  V30 20462 N 1923.01 -0.166818 1.56715 0
M  V30 20463 C 1923.94 -1.23113 1.93328 0
M  V30 20464 C 1924.95 -1.40238 0.826866 0
M  V30 20465 O 1926.14 -1.40161 1.10531 0
M  V30 20466 C 1923.24 -2.59914 2.17481 0
M  V30 20467 C 1922.42 -2.64028 3.48723 0
M  V30 20468 C 1921.47 -3.82224 3.61651 0
M  V30 20469 O 1920.5 -3.68014 4.34229 0
M  V30 20470 N 1921.7 -4.98868 2.96835 0
M  V30 20471 H 1924.47 -0.920103 2.85227 0
M  V30 20472 H 1922.03 -0.356548 1.57925 0
M  V30 20473 H 1924.02 -3.37459 2.2339 0
M  V30 20474 H 1922.59 -2.83389 1.31945 0
M  V30 20475 H 1921.81 -1.72544 3.54432 0
M  V30 20476 H 1923.1 -2.63792 4.35076 0
M  V30 20477 H 1922.5 -5.13314 2.3775 0
M  V30 20478 H 1921.05 -5.74259 3.08333 0
M  V30 20479 N 1924.49 -1.51463 -0.435524 0
M  V30 20480 C 1925.9 -1.39679 -0.772145 0
M  V30 20481 C 1926.1 -0.480546 -1.95686 0
M  V30 20482 O 1925.16 0.063611 -2.5242 0
M  V30 20483 C 1926.47 -2.81742 -1.05082 0
M  V30 20484 C 1928.02 -2.90905 -1.15514 0
M  V30 20485 C 1928.49 -4.33879 -1.46674 0
M  V30 20486 N 1929.99 -4.36993 -1.53594 0
M  V30 20487 C 1930.72 -5.44653 -1.79279 0
M  V30 20488 N 1930.22 -6.6247 -2.02744 0
M  V30 20489 N 1932.01 -5.32135 -1.81076 0
M  V30 20490 H 1924.16 -2.09584 0.344699 0
M  V30 20491 H 1926.42 -0.943543 0.0918199 0
M  V30 20492 H 1926.13 -3.50789 -0.252975 0
M  V30 20493 H 1926 -3.21179 -1.97798 0
M  V30 20494 H 1928.39 -2.22054 -1.94361 0
M  V30 20495 H 1928.47 -2.54961 -0.20695 0
M  V30 20496 H 1928.12 -5.03279 -0.683541 0
M  V30 20497 H 1928.05 -4.67337 -2.42702 0
M  V30 20498 H 1930.54 -3.52054 -1.37356 0
M  V30 20499 H 1930.85 -7.40311 -2.21718 0
M  V30 20500 H 1929.19 -6.65582 -2.00063 0
M  V30 20501 H 1932.39 -4.39076 -1.62264 0
M  V30 20502 H 1932.56 -6.16118 -2.00756 0
M  V30 20503 N 1925.96 0.691085 -1.4164 0
M  V30 20504 C 1927.38 1.27116 -1.36742 0
M  V30 20505 C 1927.73 1.96129 -0.0526953 0
M  V30 20506 O 1926.85 1.99052 0.848953 0
M  V30 20507 C 1927.45 2.31171 -2.4768 0
M  V30 20508 C 1926.01 2.84744 -2.46166 0
M  V30 20509 C 1925.15 1.58841 -2.27299 0
M  V30 20510 H 1928.1 0.485541 -1.5109 0
M  V30 20511 H 1928.12 3.12559 -2.16996 0
M  V30 20512 H 1927.64 1.80913 -3.43354 0
M  V30 20513 H 1925.74 3.39167 -1.54262 0
M  V30 20514 H 1925.85 3.34869 -3.42636 0
M  V30 20515 H 1924.21 1.84815 -1.75258 0
M  V30 20516 H 1925 1.10573 -3.25005 0
M  V30 20517 N 1927.44 1.27542 0.925789 0
M  V30 20518 C 1928.69 1.14161 1.67616 0
M  V30 20519 C 1929.02 -0.311471 1.91686 0
M  V30 20520 O 1928.3 -1.22766 1.5086 0
M  V30 20521 C 1928.58 1.92778 3.04152 0
M  V30 20522 C 1928.43 3.46081 2.87312 0
M  V30 20523 C 1929.75 1.73374 4.04511 0
M  V30 20524 H 1926.87 0.416091 0.608307 0
M  V30 20525 H 1929.51 1.56719 1.0742 0
M  V30 20526 H 1927.66 1.5661 3.55536 0
M  V30 20527 H 1929.33 3.92089 2.43031 0
M  V30 20528 H 1927.58 3.72324 2.22615 0
M  V30 20529 H 1928.25 3.96333 3.84219 0
M  V30 20530 H 1930.72 2.04914 3.62146 0
M  V30 20531 H 1929.6 2.30773 4.98031 0
M  V30 20532 H 1929.86 0.682154 4.36806 0
M  V30 20533 N 1928.92 -1.13255 1.09595 0
M  V30 20534 C 1929.85 -2.20827 0.758791 0
M  V30 20535 C 1930.83 -1.68034 -0.264325 0
M  V30 20536 O 1932.02 -1.93751 -0.132005 0
M  V30 20537 C 1929.15 -3.46831 0.180424 0
M  V30 20538 C 1928.1 -4.12724 1.13325 0
M  V30 20539 C 1927.43 -5.33075 0.416504 0
M  V30 20540 C 1928.73 -4.59862 2.47637 0
M  V30 20541 H 1930.42 -2.49287 1.65821 0
M  V30 20542 H 1927.97 -1.19818 0.798734 0
M  V30 20543 H 1929.92 -4.21346 -0.0675313 0
M  V30 20544 H 1928.64 -3.17773 -0.754194 0
M  V30 20545 H 1927.3 -3.40179 1.36651 0
M  V30 20546 H 1926.95 -5.00281 -0.522308 0
M  V30 20547 H 1926.65 -5.78109 1.05183 0
M  V30 20548 H 1928.17 -6.10344 0.17689 0
M  V30 20549 H 1929.59 -5.25791 2.28509 0
M  V30 20550 H 1927.99 -5.15642 3.06974 0
M  V30 20551 H 1929.06 -3.74294 3.08273 0
M  V30 20552 N 1930.4 -0.883401 -1.30514 0
M  V30 20553 C 1931.33 -0.306278 -2.27144 0
M  V30 20554 C 1932.34 0.538264 -1.53644 0
M  V30 20555 O 1933.53 0.35807 -1.74872 0
M  V30 20556 C 1930.63 0.583276 -3.33843 0
M  V30 20557 C 1929.81 -0.231845 -4.36785 0
M  V30 20558 C 1928.86 0.587955 -5.22905 0
M  V30 20559 O 1927.89 0.0112122 -5.69199 0
M  V30 20560 N 1929.09 1.89737 -5.48617 0
M  V30 20561 H 1931.86 -1.13674 -2.77306 0
M  V30 20562 H 1929.42 -0.746227 -1.43677 0
M  V30 20563 H 1931.41 1.13773 -3.88379 0
M  V30 20564 H 1929.98 1.31441 -2.83623 0
M  V30 20565 H 1929.2 -0.967741 -3.82137 0
M  V30 20566 H 1930.49 -0.790664 -5.02619 0
M  V30 20567 H 1929.89 2.38889 -5.12785 0
M  V30 20568 H 1928.44 2.39931 -6.06033 0
M  V30 20569 N 1931.88 1.43833 -0.644194 0
M  V30 20570 C 1933.15 1.95418 -0.0842511 0
M  V30 20571 C 1933.53 1.58579 1.39341 0
M  V30 20572 O 1932.88 0.866369 2.11439 0
M  V30 20573 C 1933.09 3.47521 -0.320928 0
M  V30 20574 C 1934.44 4.24024 -0.221059 0
M  V30 20575 O 1935.46 3.553 -0.252997 0
M  V30 20576 O 1934.32 5.46328 -0.137083 0
M  V30 20577 H 1931.42 0.826867 0.0148137 0
M  V30 20578 H 1933.96 1.53818 -0.716805 0
M  V30 20579 H 1932.73 3.67431 -1.34575 0
M  V30 20580 H 1932.36 3.96099 0.345133 0
M  V30 20581 N 1933.35 0.385544 1.52811 0
M  V30 20582 C 1934.6 -0.19907 2.00715 0
M  V30 20583 C 1934.92 -1.48216 1.27638 0
M  V30 20584 O 1936.12 -2.14659 1.66234 0
M  V30 20585 C 1934.58 -0.405311 3.5761 0
M  V30 20586 C 1934.19 0.864306 4.39584 0
M  V30 20587 C 1935.93 -0.946495 4.13814 0
M  V30 20588 C 1933.84 0.626551 5.88072 0
M  V30 20589 H 1932.77 -0.0781676 0.749937 0
M  V30 20590 H 1935.42 0.507365 1.76346 0
M  V30 20591 H 1933.8 -1.1735 3.78213 0
M  V30 20592 H 1934.97 1.63683 4.30749 0
M  V30 20593 H 1933.29 1.33017 3.94583 0
M  V30 20594 H 1935.89 -1.14002 5.22406 0
M  V30 20595 H 1936.23 -1.91447 3.69667 0
M  V30 20596 H 1936.76 -0.23797 3.97088 0
M  V30 20597 H 1933.5 1.56542 6.36534 0
M  V30 20598 H 1933.02 -0.107102 5.99704 0
M  V30 20599 H 1934.7 0.259654 6.46479 0
M  V30 20600 N 1934.83 -1.57178 0.115259 0
M  V30 20601 C 1935.76 -2.18134 -0.833042 0
M  V30 20602 C 1936.74 -1.12033 -1.27995 0
M  V30 20603 O 1937.93 -1.40254 -1.34323 0
M  V30 20604 C 1935.06 -2.77778 -2.08463 0
M  V30 20605 C 1934.01 -3.89429 -1.77565 0
M  V30 20606 C 1933.34 -4.35863 -3.09722 0
M  V30 20607 C 1934.64 -5.11701 -1.04687 0
M  V30 20608 H 1936.33 -2.9763 -0.325107 0
M  V30 20609 H 1933.88 -1.43164 -0.154933 0
M  V30 20610 H 1935.83 -3.19079 -2.75258 0
M  V30 20611 H 1934.56 -1.95566 -2.61575 0
M  V30 20612 H 1933.21 -3.48698 -1.13161 0
M  V30 20613 H 1932.86 -3.50515 -3.6076 0
M  V30 20614 H 1932.56 -5.11152 -2.89823 0
M  V30 20615 H 1934.09 -4.79812 -3.77641 0
M  V30 20616 H 1935.5 -5.50045 -1.61628 0
M  V30 20617 H 1933.9 -5.92549 -0.948964 0
M  V30 20618 H 1934.97 -4.84889 -0.032977 0
M  V30 20619 N 1936.31 0.158505 -1.56801 0
M  V30 20620 C 1937.54 0.886984 -1.86591 0
M  V30 20621 C 1937.95 1.7577 -0.700115 0
M  V30 20622 O 1937.29 1.80533 0.339622 0
M  V30 20623 C 1937.35 1.80418 -3.1095 0
M  V30 20624 C 1937.02 1.11178 -4.4327 0
M  V30 20625 C 1938.02 0.471134 -5.17761 0
M  V30 20626 C 1935.7 1.10472 -4.90001 0
M  V30 20627 C 1937.69 -0.167333 -6.3718 0
M  V30 20628 C 1935.38 0.462432 -6.09348 0
M  V30 20629 C 1936.38 -0.172477 -6.82782 0
M  V30 20630 O 1936.07 -0.804604 -7.99863 0
M  V30 20631 H 1935.8 0.262465 -0.622967 0
M  V30 20632 H 1938.35 0.159526 -2.0478 0
M  V30 20633 H 1936.58 2.57228 -2.8874 0
M  V30 20634 H 1938.27 2.4036 -3.27081 0
M  V30 20635 H 1939.04 0.468479 -4.82732 0
M  V30 20636 H 1934.92 1.58831 -4.32774 0
M  V30 20637 H 1938.46 -0.663498 -6.94438 0
M  V30 20638 H 1934.36 0.462714 -6.43839 0
M  V30 20639 H 1935.13 -0.705126 -8.15457 0
M  V30 20640 N 1937.79 1.51692 0.427485 0
M  V30 20641 C 1939.02 1.68424 1.19653 0
M  V30 20642 C 1939.43 0.385349 1.85234 0
M  V30 20643 O 1938.77 -0.646942 1.71931 0
M  V30 20644 C 1938.83 2.75033 2.31511 0
M  V30 20645 C 1938.5 4.1734 1.86216 0
M  V30 20646 C 1939.49 5.01794 1.3601 0
M  V30 20647 C 1937.18 4.63488 1.93608 0
M  V30 20648 C 1939.17 6.30461 0.937946 0
M  V30 20649 C 1936.86 5.92149 1.51004 0
M  V30 20650 C 1937.86 6.75464 1.0118 0
M  V30 20651 O 1937.55 8.01718 0.591843 0
M  V30 20652 H 1937.28 0.568142 0.36632 0
M  V30 20653 H 1939.83 1.98929 0.511527 0
M  V30 20654 H 1938.06 2.39865 3.03318 0
M  V30 20655 H 1939.75 2.80546 2.9334 0
M  V30 20656 H 1940.52 4.6734 1.29686 0
M  V30 20657 H 1936.4 3.98755 2.31334 0
M  V30 20658 H 1939.94 6.95441 0.548362 0
M  V30 20659 H 1935.84 6.26116 1.57001 0
M  V30 20660 H 1936.6 8.15355 0.716808 0
M  V30 20661 N 1939.27 -0.683564 1.42004 0
M  V30 20662 C 1940.2 -1.80812 1.39221 0
M  V30 20663 C 1941.18 -1.60545 0.25771 0
M  V30 20664 O 1942.36 -1.83135 0.446539 0
M  V30 20665 C 1939.49 -3.17679 1.17463 0
M  V30 20666 C 1938.54 -3.56713 2.33791 0
M  V30 20667 S 1939.37 -3.60144 3.96304 0
M  V30 20668 C 1940.52 -4.99718 3.76872 0
M  V30 20669 H 1940.76 -1.82897 2.34384 0
M  V30 20670 H 1938.29 -0.853409 1.28671 0
M  V30 20671 H 1940.25 -3.96686 1.05597 0
M  V30 20672 H 1938.91 -3.13189 0.239001 0
M  V30 20673 H 1938.1 -4.56174 2.14292 0
M  V30 20674 H 1937.7 -2.85045 2.42127 0
M  V30 20675 H 1940 -5.87555 3.37321 0
M  V30 20676 H 1940.94 -5.24261 4.75979 0
M  V30 20677 H 1941.35 -4.71823 3.09909 0
M  V30 20678 N 1940.75 -1.28031 -0.919012 0
M  V30 20679 C 1942.02 -1.05588 -1.64653 0
M  V30 20680 C 1942.4 0.406513 -2.07149 0
M  V30 20681 O 1941.75 1.39153 -1.81242 0
M  V30 20682 C 1941.96 -2.0256 -2.84202 0
M  V30 20683 C 1943.31 -2.32414 -3.55343 0
M  V30 20684 O 1944.33 -2.00602 -2.94342 0
M  V30 20685 O 1943.19 -2.86683 -4.65269 0
M  V30 20686 H 1940.29 -0.40316 -0.722074 0
M  V30 20687 H 1942.83 -1.3933 -0.968781 0
M  V30 20688 H 1941.6 -3.01146 -2.49853 0
M  V30 20689 H 1941.23 -1.69433 -3.59692 0
M  V30 20690 N 1942.22 1.12672 -1.10194 0
M  V30 20691 C 1943.64 1.36123 -0.833225 0
M  V30 20692 C 1943.84 1.93889 0.548569 0
M  V30 20693 O 1942.9 2.16347 1.30192 0
M  V30 20694 C 1944.21 2.30515 -1.93089 0
M  V30 20695 C 1945.76 2.44111 -1.95905 0
M  V30 20696 C 1946.23 3.41816 -3.04838 0
M  V30 20697 N 1947.72 3.49371 -3.04128 0
M  V30 20698 C 1948.46 4.24874 -3.85058 0
M  V30 20699 N 1947.95 5.03464 -4.75916 0
M  V30 20700 N 1949.75 4.20255 -3.73285 0
M  V30 20701 H 1941.9 0.735332 -1.99265 0
M  V30 20702 H 1944.16 0.386141 -0.865794 0
M  V30 20703 H 1943.87 1.95239 -2.92531 0
M  V30 20704 H 1943.74 3.30611 -1.81593 0
M  V30 20705 H 1946.13 2.78669 -0.97097 0
M  V30 20706 H 1946.21 1.43911 -2.11479 0
M  V30 20707 H 1945.85 3.07988 -4.03864 0
M  V30 20708 H 1945.78 4.41839 -2.86506 0
M  V30 20709 H 1948.27 2.93303 -2.38289 0
M  V30 20710 H 1948.59 5.58406 -5.34231 0
M  V30 20711 H 1946.93 5.02669 -4.79946 0
M  V30 20712 H 1950.12 3.57939 -3.01658 0
M  V30 20713 H 1950.3 4.78843 -4.36593 0
M  V30 20714 N 1943.7 0.89031 1.30043 0
M  V30 20715 C 1944.95 0.507478 1.95212 0
M  V30 20716 C 1945.26 -0.949179 1.71026 0
M  V30 20717 O 1946.47 -1.4391 2.30222 0
M  V30 20718 C 1944.93 0.856657 3.49556 0
M  V30 20719 C 1944.53 2.33145 3.82554 0
M  V30 20720 C 1946.28 0.543281 4.21009 0
M  V30 20721 C 1944.18 2.62198 5.301 0
M  V30 20722 H 1943.11 0.186056 0.730684 0
M  V30 20723 H 1945.77 1.08602 1.47912 0
M  V30 20724 H 1944.15 0.207146 3.95458 0
M  V30 20725 H 1945.32 3.02572 3.47544 0
M  V30 20726 H 1943.64 2.61289 3.24217 0
M  V30 20727 H 1946.23 0.737312 5.29592 0
M  V30 20728 H 1946.58 -0.517644 4.13069 0
M  V30 20729 H 1947.11 1.15022 3.80808 0
M  V30 20730 H 1943.85 3.67052 5.43096 0
M  V30 20731 H 1943.37 1.97385 5.66392 0
M  V30 20732 H 1945.05 2.47975 5.97593 0
M  V30 20733 N 1945.18 -1.43489 0.651812 0
M  V30 20734 C 1946.43 -2.0183 0.164632 0
M  V30 20735 C 1946.75 -1.51408 -1.2209 0
M  V30 20736 O 1946.01 -0.697062 -1.82865 0
M  V30 20737 C 1946.31 -3.57189 0.122885 0
M  V30 20738 C 1945.97 -4.2695 1.44997 0
M  V30 20739 C 1944.64 -4.45724 1.81339 0
M  V30 20740 C 1946.99 -4.66468 2.32501 0
M  V30 20741 C 1944.32 -5.0128 3.04853 0
M  V30 20742 C 1946.67 -5.23393 3.55306 0
M  V30 20743 C 1945.33 -5.40383 3.91845 0
M  V30 20744 H 1944.6 -0.738547 0.0602433 0
M  V30 20745 H 1947.25 -1.71984 0.842241 0
M  V30 20746 H 1945.55 -3.86568 -0.638169 0
M  V30 20747 H 1947.25 -4.00084 -0.270911 0
M  V30 20748 H 1943.84 -4.12682 1.15721 0
M  V30 20749 H 1948.03 -4.51658 2.05715 0
M  V30 20750 H 1943.28 -5.1262 3.33213 0
M  V30 20751 H 1947.46 -5.52961 4.23329 0
M  V30 20752 H 1945.08 -5.83197 4.87632 0
M  V30 20753 N 1946.66 -0.393643 -1.52605 0
M  V30 20754 C 1947.89 0.1871 -2.06052 0
M  V30 20755 C 1948.3 1.40154 -1.26501 0
M  V30 20756 O 1947.66 1.798 -0.31279 0
M  V30 20757 C 1947.71 0.552918 -3.57246 0
M  V30 20758 O 1947.43 -0.613274 -4.33786 0
M  V30 20759 C 1948.93 1.18906 -4.27055 0
M  V30 20760 H 1946.15 0.0272042 -0.670448 0
M  V30 20761 H 1948.69 -0.560126 -1.9668 0
M  V30 20762 H 1946.85 1.25004 -3.66678 0
M  V30 20763 H 1947.26 -0.311611 -5.23574 0
M  V30 20764 H 1948.74 1.39535 -5.34073 0
M  V30 20765 H 1949.21 2.15768 -3.82545 0
M  V30 20766 H 1949.82 0.532579 -4.21952 0
M  V30 20767 N 1948.14 1.57115 -0.123593 0
M  V30 20768 C 1949.38 1.95641 0.534082 0
M  V30 20769 C 1949.71 1.00726 1.66036 0
M  V30 20770 O 1948.99 0.045312 1.94447 0
M  V30 20771 C 1949.27 3.4407 1.06244 0
M  V30 20772 C 1949.13 4.49759 -0.0607321 0
M  V30 20773 C 1950.44 3.94451 1.95183 0
M  V30 20774 H 1947.56 0.71137 0.19267 0
M  V30 20775 H 1950.21 1.88944 -0.200083 0
M  V30 20776 H 1948.36 3.49909 1.68808 0
M  V30 20777 H 1950.03 4.56016 -0.69621 0
M  V30 20778 H 1948.27 4.27729 -0.723232 0
M  V30 20779 H 1948.94 5.50888 0.350271 0
M  V30 20780 H 1951.42 3.90945 1.42483 0
M  V30 20781 H 1950.29 4.98817 2.29069 0
M  V30 20782 H 1950.55 3.35417 2.88007 0
M  V30 20783 N 1949.61 -0.150187 1.56883 0
M  V30 20784 C 1950.86 -0.861749 1.82364 0
M  V30 20785 C 1951.18 -1.82479 0.704319 0
M  V30 20786 O 1952.38 -2.58027 0.844649 0
M  V30 20787 C 1950.84 -1.58305 3.23214 0
M  V30 20788 C 1950.45 -0.662577 4.43073 0
M  V30 20789 C 1952.19 -2.28159 3.57972 0
M  V30 20790 C 1950.1 -1.38532 5.74946 0
M  V30 20791 H 1949.03 -0.325546 0.6801 0
M  V30 20792 H 1951.68 -0.114505 1.83142 0
M  V30 20793 H 1950.06 -2.37581 3.16814 0
M  V30 20794 H 1951.23 0.0947281 4.60703 0
M  V30 20795 H 1949.55 -0.0726217 4.16337 0
M  V30 20796 H 1952.15 -2.82865 4.53753 0
M  V30 20797 H 1952.49 -3.04501 2.83874 0
M  V30 20798 H 1953.02 -1.55805 3.66019 0
M  V30 20799 H 1949.76 -0.663808 6.5213 0
M  V30 20800 H 1949.28 -2.11542 5.61258 0
M  V30 20801 H 1950.96 -1.9271 6.17634 0
M  V30 20802 N 1951.09 -1.51916 -0.419434 0
M  V30 20803 C 1952.34 -1.65468 -1.16732 0
M  V30 20804 C 1952.67 -0.379569 -1.9076 0
M  V30 20805 O 1951.92 0.637093 -1.8504 0
M  V30 20806 C 1952.22 -2.82039 -2.19519 0
M  V30 20807 C 1951.89 -4.20649 -1.62373 0
M  V30 20808 C 1950.55 -4.58353 -1.46512 0
M  V30 20809 C 1952.9 -5.0707 -1.20539 0
M  V30 20810 C 1950.23 -5.80166 -0.873185 0
M  V30 20811 C 1952.58 -6.29478 -0.627675 0
M  V30 20812 C 1951.25 -6.6594 -0.456114 0
M  V30 20813 H 1950.52 -0.605492 -0.427154 0
M  V30 20814 H 1953.16 -1.85994 -0.455916 0
M  V30 20815 H 1951.47 -2.55808 -2.96765 0
M  V30 20816 H 1953.16 -2.89722 -2.7724 0
M  V30 20817 H 1949.75 -3.90932 -1.75699 0
M  V30 20818 H 1953.94 -4.78533 -1.31606 0
M  V30 20819 H 1949.19 -6.07048 -0.728187 0
M  V30 20820 H 1953.37 -6.95775 -0.29508 0
M  V30 20821 H 1951 -7.602 0.00467585 0
M  V30 20822 N 1952.57 0.676023 -1.42365 0
M  V30 20823 C 1953.82 1.43608 -1.42769 0
M  V30 20824 C 1954.15 1.94451 -0.0436961 0
M  V30 20825 O 1953.4 1.71221 0.947723 0
M  V30 20826 C 1953.7 2.65018 -2.39792 0
M  V30 20827 C 1953.37 2.32724 -3.862 0
M  V30 20828 C 1952.03 2.23628 -4.2608 0
M  V30 20829 C 1954.38 2.06477 -4.78557 0
M  V30 20830 C 1951.71 1.86409 -5.56299 0
M  V30 20831 C 1954.06 1.70763 -6.09116 0
M  V30 20832 C 1952.72 1.60176 -6.47997 0
M  V30 20833 H 1951.99 0.525499 -0.522428 0
M  V30 20834 H 1954.64 0.770932 -1.75297 0
M  V30 20835 H 1952.95 3.36559 -2.00587 0
M  V30 20836 H 1954.64 3.23198 -2.37369 0
M  V30 20837 H 1951.23 2.40705 -3.54625 0
M  V30 20838 H 1955.42 2.12439 -4.48535 0
M  V30 20839 H 1950.67 1.7678 -5.85285 0
M  V30 20840 H 1954.85 1.49479 -6.80168 0
M  V30 20841 H 1952.47 1.31106 -7.48809 0
M  V30 20842 N 1954.05 1.28517 0.912209 0
M  V30 20843 C 1955.3 1.15138 1.65609 0
M  V30 20844 C 1955.61 -0.299022 1.93301 0
M  V30 20845 O 1956.82 -0.55395 2.65789 0
M  V30 20846 C 1955.27 2.01287 2.98348 0
M  V30 20847 C 1954.88 3.51076 2.78297 0
M  V30 20848 C 1956.62 1.96599 3.7623 0
M  V30 20849 C 1954.53 4.29371 4.06687 0
M  V30 20850 H 1953.46 0.42731 0.621226 0
M  V30 20851 H 1956.11 1.5306 1.01217 0
M  V30 20852 H 1954.49 1.56222 3.63883 0
M  V30 20853 H 1955.67 4.04109 2.21434 0
M  V30 20854 H 1953.98 3.57306 2.13826 0
M  V30 20855 H 1956.58 2.52362 4.71399 0
M  V30 20856 H 1956.92 0.943087 4.05477 0
M  V30 20857 H 1957.46 2.39641 3.17517 0
M  V30 20858 H 1954.2 5.32248 3.82612 0
M  V30 20859 H 1953.72 3.81112 4.63156 0
M  V30 20860 H 1955.39 4.39372 4.74933 0
M  V30 20861 N 1955.53 -1.12086 1.1079 0
M  V30 20862 C 1956.44 -2.21514 0.772578 0
M  V30 20863 C 1957.45 -1.72454 -0.231462 0
M  V30 20864 O 1958.63 -2.01281 -0.0693074 0
M  V30 20865 C 1955.69 -3.46043 0.213364 0
M  V30 20866 C 1954.75 -4.09925 1.27515 0
M  V30 20867 C 1953.99 -5.28509 0.742524 0
M  V30 20868 O 1954.21 -5.68779 -0.429786 0
M  V30 20869 O 1953.14 -5.82802 1.50417 0
M  V30 20870 H 1956.97 -2.52596 1.68608 0
M  V30 20871 H 1954.56 -1.20492 0.883294 0
M  V30 20872 H 1956.44 -4.21294 -0.0944683 0
M  V30 20873 H 1955.11 -3.16628 -0.672947 0
M  V30 20874 H 1954.02 -3.36436 1.63589 0
M  V30 20875 H 1955.35 -4.43504 2.13461 0
M  V30 20876 N 1957 -0.897194 -1.29569 0
M  V30 20877 C 1957.94 -0.317616 -2.25979 0
M  V30 20878 C 1958.92 0.568783 -1.52327 0
M  V30 20879 O 1960.1 0.516152 -1.81296 0
M  V30 20880 C 1957.23 0.547511 -3.34245 0
M  V30 20881 C 1956.27 -0.271227 -4.25637 0
M  V30 20882 S 1957.11 -1.6674 -5.08879 0
M  V30 20883 C 1958.26 -0.809125 -6.20648 0
M  V30 20884 H 1958.49 -1.1348 -2.7479 0
M  V30 20885 H 1956.03 -0.697379 -1.37753 0
M  V30 20886 H 1957.99 1.04088 -3.97084 0
M  V30 20887 H 1956.65 1.33891 -2.84134 0
M  V30 20888 H 1955.84 0.389522 -5.02493 0
M  V30 20889 H 1955.44 -0.697651 -3.67435 0
M  V30 20890 H 1957.73 -0.0314136 -6.77493 0
M  V30 20891 H 1958.68 -1.54968 -6.90934 0
M  V30 20892 H 1959.08 -0.36462 -5.63321 0
M  V30 20893 N 1958.48 1.43142 -0.659413 0
M  V30 20894 C 1959.41 2.33495 0.0147266 0
M  V30 20895 C 1960.39 1.49819 0.805493 0
M  V30 20896 O 1961.58 1.78466 0.765732 0
M  V30 20897 C 1958.71 3.33261 0.977483 0
M  V30 20898 C 1957.66 4.26972 0.296396 0
M  V30 20899 C 1956.99 5.16824 1.37103 0
M  V30 20900 C 1958.29 5.15901 -0.815063 0
M  V30 20901 H 1959.98 2.90115 -0.739837 0
M  V30 20902 H 1957.53 1.39499 -0.357229 0
M  V30 20903 H 1959.48 3.95372 1.45805 0
M  V30 20904 H 1958.21 2.74911 1.76328 0
M  V30 20905 H 1956.86 3.66234 -0.16379 0
M  V30 20906 H 1956.51 4.5481 2.14842 0
M  V30 20907 H 1956.21 5.80345 0.920528 0
M  V30 20908 H 1957.74 5.81809 1.85284 0
M  V30 20909 H 1959.15 5.71786 -0.416382 0
M  V30 20910 H 1957.55 5.88175 -1.19041 0
M  V30 20911 H 1958.62 4.5522 -1.67042 0
M  V30 20912 N 1959.96 0.40173 1.52394 0
M  V30 20913 C 1961.21 -0.177771 2.00915 0
M  V30 20914 C 1961.52 -1.46854 1.29203 0
M  V30 20915 O 1962.73 -2.12884 1.68501 0
M  V30 20916 C 1961.18 -0.367359 3.5802 0
M  V30 20917 C 1960.79 0.910882 4.38642 0
M  V30 20918 C 1962.54 -0.902552 4.14794 0
M  V30 20919 C 1960.44 0.688888 5.87374 0
M  V30 20920 H 1959.37 -0.0702091 0.750724 0
M  V30 20921 H 1962.02 0.52604 1.75798 0
M  V30 20922 H 1960.41 -1.13332 3.79436 0
M  V30 20923 H 1961.58 1.68242 4.28989 0
M  V30 20924 H 1959.9 1.37194 3.9315 0
M  V30 20925 H 1962.49 -1.08455 5.23585 0
M  V30 20926 H 1962.84 -1.87515 3.71677 0
M  V30 20927 H 1963.37 -0.19584 3.97318 0
M  V30 20928 H 1960.11 1.63284 6.34837 0
M  V30 20929 H 1959.63 -0.0434889 5.99784 0
M  V30 20930 H 1961.31 0.328207 6.46167 0
M  V30 20931 N 1961.44 -1.57047 0.131923 0
M  V30 20932 C 1962.39 -2.15989 -0.813469 0
M  V30 20933 C 1963.36 -1.08848 -1.25464 0
M  V30 20934 O 1964.54 -1.36819 -1.32986 0
M  V30 20935 C 1961.68 -2.7738 -2.05315 0
M  V30 20936 C 1960.79 -3.98868 -1.65916 0
M  V30 20937 C 1959.93 -4.48305 -2.84948 0
M  V30 20938 C 1958.97 -5.62294 -2.41851 0
M  V30 20939 N 1958.1 -6.06417 -3.53841 0
M  V30 20940 H 1962.94 -2.96445 -0.304009 0
M  V30 20941 H 1960.48 -1.46448 -0.138355 0
M  V30 20942 H 1962.44 -3.11111 -2.77967 0
M  V30 20943 H 1961.07 -1.99593 -2.53697 0
M  V30 20944 H 1960.12 -3.71215 -0.830867 0
M  V30 20945 H 1961.43 -4.81493 -1.30252 0
M  V30 20946 H 1960.59 -4.84012 -3.6581 0
M  V30 20947 H 1959.33 -3.64657 -3.23847 0
M  V30 20948 H 1958.33 -5.26178 -1.59425 0
M  V30 20949 H 1959.56 -6.47718 -2.04055 0
M  V30 20950 H 1957.5 -5.25707 -3.92388 0
M  V30 20951 H 1957.42 -6.8393 -3.22143 0
M  V30 20952 H 1958.69 -6.46765 -4.35104 0
M  V30 20953 N 1962.92 0.141865 -1.5696 0
M  V30 20954 C 1964.16 0.850019 -1.84787 0
M  V30 20955 C 1964.52 1.78556 -0.716613 0
M  V30 20956 O 1963.81 1.89467 0.285076 0
M  V30 20957 C 1964 1.65717 -3.16658 0
M  V30 20958 C 1963.83 0.801282 -4.42504 0
M  V30 20959 C 1962.6 0.464915 -5.03157 0
M  V30 20960 C 1964.8 0.129271 -5.14138 0
M  V30 20961 N 1962.78 -0.404035 -6.12569 0
M  V30 20962 C 1964.15 -0.599606 -6.17094 0
M  V30 20963 C 1966.21 0.0504761 -4.97874 0
M  V30 20964 C 1964.91 -1.39985 -7.05547 0
M  V30 20965 C 1966.94 -0.736517 -5.86796 0
M  V30 20966 C 1966.3 -1.45366 -6.89237 0
M  V30 20967 H 1962.4 0.288707 -0.726755 0
M  V30 20968 H 1964.98 0.115075 -1.9436 0
M  V30 20969 H 1963.15 2.36332 -3.08224 0
M  V30 20970 H 1964.89 2.30889 -3.32374 0
M  V30 20971 H 1961.64 0.801892 -4.66762 0
M  V30 20972 H 1962.07 -0.829685 -6.71897 0
M  V30 20973 H 1966.71 0.590566 -4.18655 0
M  V30 20974 H 1964.43 -1.95118 -7.84191 0
M  V30 20975 H 1968.01 -0.799543 -5.7628 0
M  V30 20976 H 1966.89 -2.05285 -7.56854 0
M  V30 20977 N 1964.39 1.52136 0.411372 0
M  V30 20978 C 1965.32 1.78277 1.50796 0
M  V30 20979 C 1966.31 0.633643 1.57857 0
M  V30 20980 O 1967.49 0.879011 1.73168 0
M  V30 20981 C 1964.62 1.93142 2.88641 0
M  V30 20982 C 1963.57 3.08727 2.96431 0
M  V30 20983 C 1962.9 3.08812 4.36508 0
M  V30 20984 C 1964.2 4.48228 2.68122 0
M  V30 20985 H 1965.89 2.70102 1.29171 0
M  V30 20986 H 1963.44 1.29971 0.619965 0
M  V30 20987 H 1965.39 2.10012 3.65339 0
M  V30 20988 H 1964.12 0.979869 3.11554 0
M  V30 20989 H 1962.78 2.91604 2.22177 0
M  V30 20990 H 1962.42 2.11383 4.56428 0
M  V30 20991 H 1962.12 3.86444 4.42645 0
M  V30 20992 H 1963.65 3.27809 5.15144 0
M  V30 20993 H 1965.06 4.65568 3.34544 0
M  V30 20994 H 1963.46 5.27761 2.85638 0
M  V30 20995 H 1964.53 4.56478 1.63572 0
M  V30 20996 N 1965.87 -0.668464 1.42721 0
M  V30 20997 C 1966.84 -1.76365 1.46384 0
M  V30 20998 C 1967.84 -1.56932 0.350554 0
M  V30 20999 O 1969.03 -1.63109 0.611658 0
M  V30 21000 C 1966.16 -3.15071 1.30164 0
M  V30 21001 H 1967.35 -1.74503 2.43903 0
M  V30 21002 H 1964.9 -0.878695 1.29262 0
M  V30 21003 H 1965.64 -3.22555 0.335926 0
M  V30 21004 H 1965.42 -3.3058 2.10853 0
M  V30 21005 H 1966.91 -3.94963 1.35625 0
M  V30 21006 N 1967.35 -1.28999 -0.905381 0
M  V30 21007 C 1968.28 -1.16189 -2.0254 0
M  V30 21008 C 1969.26 -0.0575293 -1.70003 0
M  V30 21009 O 1970.45 -0.236004 -1.92761 0
M  V30 21010 C 1967.58 -0.831704 -3.37194 0
M  V30 21011 C 1966.53 -1.89176 -3.83922 0
M  V30 21012 C 1965.86 -1.41501 -5.15637 0
M  V30 21013 C 1967.16 -3.29971 -4.04866 0
M  V30 21014 H 1968.85 -2.09886 -2.13514 0
M  V30 21015 H 1966.4 -1.0105 -1.02591 0
M  V30 21016 H 1968.35 -0.728825 -4.1505 0
M  V30 21017 H 1967.07 0.140958 -3.26296 0
M  V30 21018 H 1965.73 -1.98393 -3.08279 0
M  V30 21019 H 1965.38 -0.431182 -5.01149 0
M  V30 21020 H 1965.08 -2.12391 -5.47872 0
M  V30 21021 H 1966.61 -1.32552 -5.96039 0
M  V30 21022 H 1968.02 -3.23628 -4.73221 0
M  V30 21023 H 1966.42 -3.98768 -4.48447 0
M  V30 21024 H 1967.49 -3.73369 -3.09393 0
M  V30 21025 N 1968.83 1.11497 -1.11383 0
M  V30 21026 C 1970.08 1.8286 -0.860611 0
M  V30 21027 C 1970.4 1.85032 0.615471 0
M  V30 21028 O 1969.67 1.32047 1.44708 0
M  V30 21029 H 1968.25 0.677153 -0.315392 0
M  V30 21030 H 1970.91 1.34963 -1.40609 0
M  V30 21031 H 1970.01 2.86743 -1.23227 0
M  V30 21032 N 1970.31 0.904053 1.29092 0
M  V30 21033 C 1971.55 0.532203 1.95381 0
M  V30 21034 C 1971.88 -0.922327 1.71241 0
M  V30 21035 O 1971.14 -1.66968 1.02079 0
M  V30 21036 C 1971.44 0.776255 3.48868 0
M  V30 21037 C 1971.1 2.20882 3.93093 0
M  V30 21038 C 1969.76 2.60052 4.04878 0
M  V30 21039 C 1972.12 3.14152 4.15882 0
M  V30 21040 C 1969.44 3.91663 4.36826 0
M  V30 21041 C 1971.8 4.45317 4.49306 0
M  V30 21042 C 1970.46 4.84354 4.59301 0
M  V30 21043 H 1969.73 0.194747 0.714951 0
M  V30 21044 H 1972.38 1.14354 1.53608 0
M  V30 21045 H 1970.68 0.0820369 3.91714 0
M  V30 21046 H 1972.38 0.467861 3.98261 0
M  V30 21047 H 1968.97 1.89485 3.84439 0
M  V30 21048 H 1973.15 2.85103 4.06239 0
M  V30 21049 H 1968.41 4.21623 4.42769 0
M  V30 21050 H 1972.58 5.17611 4.65888 0
M  V30 21051 H 1970.21 5.86371 4.83811 0
M  V30 21052 N 1971.79 -1.4279 0.666995 0
M  V30 21053 C 1972.73 -2.30794 -0.0161644 0
M  V30 21054 C 1973.7 -1.45527 -0.800701 0
M  V30 21055 O 1974.89 -1.74372 -0.774527 0
M  V30 21056 C 1972.03 -3.31276 -0.966974 0
M  V30 21057 C 1971.14 -4.31637 -0.177086 0
M  V30 21058 C 1970.28 -5.19195 -1.12294 0
M  V30 21059 C 1969.31 -6.1124 -0.324284 0
M  V30 21060 N 1968.45 -6.91376 -1.22244 0
M  V30 21061 H 1973.29 -2.88662 0.74014 0
M  V30 21062 H 1970.83 -1.42194 0.376738 0
M  V30 21063 H 1972.79 -3.88054 -1.53198 0
M  V30 21064 H 1971.42 -2.75025 -1.69 0
M  V30 21065 H 1970.47 -3.77041 0.504428 0
M  V30 21066 H 1971.78 -4.96826 0.443328 0
M  V30 21067 H 1970.93 -5.80667 -1.75813 0
M  V30 21068 H 1969.67 -4.54164 -1.77725 0
M  V30 21069 H 1968.68 -5.48843 0.324174 0
M  V30 21070 H 1969.9 -6.78318 0.325818 0
M  V30 21071 H 1967.85 -6.28981 -1.86329 0
M  V30 21072 H 1967.77 -7.5314 -0.656918 0
M  V30 21073 H 1969.03 -7.57342 -1.84535 0
M  V30 21074 N 1973.26 -0.409806 -1.52179 0
M  V30 21075 C 1974.17 0.42219 -2.3077 0
M  V30 21076 C 1975.19 1.05295 -1.38524 0
M  V30 21077 O 1976.37 1.05432 -1.71599 0
M  V30 21078 C 1973.43 1.52345 -3.11435 0
M  V30 21079 C 1972.49 0.91568 -4.19421 0
M  V30 21080 C 1971.72 1.96446 -4.9623 0
M  V30 21081 O 1971.95 3.18271 -4.7335 0
M  V30 21082 O 1970.88 1.57032 -5.81055 0
M  V30 21083 H 1974.71 -0.218635 -3.02912 0
M  V30 21084 H 1972.29 -0.172994 -1.48395 0
M  V30 21085 H 1974.17 2.16276 -3.61666 0
M  V30 21086 H 1972.85 2.14886 -2.42086 0
M  V30 21087 H 1971.76 0.239064 -3.73335 0
M  V30 21088 H 1973.09 0.33418 -4.91064 0
M  V30 21089 N 1974.74 1.56975 -0.14025 0
M  V30 21090 C 1975.97 1.99977 0.518922 0
M  V30 21091 C 1976.38 1.01924 1.59399 0
M  V30 21092 O 1975.72 0.007174 1.83699 0
M  V30 21093 C 1975.78 3.3941 1.18495 0
M  V30 21094 C 1975.45 4.56286 0.255289 0
M  V30 21095 C 1976.45 5.17349 -0.514424 0
M  V30 21096 C 1974.13 5.02045 0.160162 0
M  V30 21097 C 1976.12 6.22574 -1.36678 0
M  V30 21098 C 1973.81 6.07126 -0.695808 0
M  V30 21099 C 1974.81 6.67259 -1.45789 0
M  V30 21100 O 1974.5 7.70307 -2.29961 0
M  V30 21101 H 1974.23 0.661305 0.140186 0
M  V30 21102 H 1976.78 2.04111 -0.22979 0
M  V30 21103 H 1975.01 3.32095 1.98116 0
M  V30 21104 H 1976.7 3.66563 1.74316 0
M  V30 21105 H 1977.47 4.82899 -0.450926 0
M  V30 21106 H 1973.35 4.54972 0.743062 0
M  V30 21107 H 1976.89 6.69439 -1.96208 0
M  V30 21108 H 1972.79 6.41003 -0.760622 0
M  V30 21109 H 1973.56 7.87498 -2.23135 0
M  V30 21110 N 1976.22 -0.133539 1.57033 0
M  V30 21111 C 1977.47 -0.843859 1.8408 0
M  V30 21112 C 1977.79 -1.80556 0.723177 0
M  V30 21113 O 1977.05 -1.93588 -0.286718 0
M  V30 21114 C 1977.35 -1.64036 3.17533 0
M  V30 21115 C 1977.01 -0.82425 4.43302 0
M  V30 21116 C 1975.68 -0.599146 4.77455 0
M  V30 21117 C 1978.03 -0.254425 5.20579 0
M  V30 21118 C 1975.36 0.206272 5.86337 0
M  V30 21119 C 1977.71 0.538105 6.30307 0
M  V30 21120 C 1976.37 0.773661 6.63001 0
M  V30 21121 H 1975.64 -0.30879 0.673595 0
M  V30 21122 H 1978.29 -0.106868 1.91202 0
M  V30 21123 H 1976.59 -2.44784 3.05921 0
M  V30 21124 H 1978.29 -2.19367 3.35677 0
M  V30 21125 H 1974.88 -1.00978 4.16535 0
M  V30 21126 H 1979.07 -0.415584 4.94557 0
M  V30 21127 H 1974.32 0.398139 6.10102 0
M  V30 21128 H 1978.5 0.986708 6.89374 0
M  V30 21129 H 1976.12 1.3996 7.47205 0
M  V30 21130 N 1977.7 -1.52352 -0.403298 0
M  V30 21131 C 1978.93 -1.70554 -1.17128 0
M  V30 21132 C 1979.34 -0.417576 -1.84124 0
M  V30 21133 O 1978.7 0.606862 -1.72115 0
M  V30 21134 C 1978.75 -2.8452 -2.23004 0
M  V30 21135 O 1978.47 -4.08329 -1.58742 0
M  V30 21136 C 1979.97 -3.14281 -3.12638 0
M  V30 21137 H 1977.19 -0.571419 -0.35174 0
M  V30 21138 H 1979.73 -1.98937 -0.473734 0
M  V30 21139 H 1977.89 -2.58639 -2.88417 0
M  V30 21140 H 1978.3 -4.71878 -2.28979 0
M  V30 21141 H 1979.78 -3.97523 -3.82988 0
M  V30 21142 H 1980.25 -2.28071 -3.7534 0
M  V30 21143 H 1980.86 -3.41948 -2.52887 0
M  V30 21144 N 1979.18 0.660885 -1.43074 0
M  V30 21145 C 1980.12 1.79529 -1.47892 0
M  V30 21146 C 1981.12 1.65676 -0.353254 0
M  V30 21147 O 1982.32 1.72115 -0.526903 0
M  V30 21148 H 1978.7 0.592191 -0.46348 0
M  V30 21149 H 1980.67 1.72584 -2.43428 0
M  V30 21150 C 1979.42 3.17753 -1.41167 0
M  V30 21151 H 1978.74 3.29047 -2.27087 0
M  V30 21152 H 1980.18 3.97107 -1.486 0
M  V30 21153 C 1978.64 3.36656 -0.128241 0
M  V30 21154 O 1979.17 3.93376 0.813504 0
M  V30 21155 N 1977.38 2.90571 -0.0408985 0
M  V30 21156 H 1976.92 2.44598 -0.808059 0
M  V30 21157 H 1976.88 3.03595 0.817147 0
M  V30 21158 N 1980.65 1.29477 0.898527 0
M  V30 21159 C 1981.62 1.14706 1.98432 0
M  V30 21160 C 1982.62 0.0821822 1.6059 0
M  V30 21161 O 1983.81 0.329216 1.71061 0
M  V30 21162 C 1980.94 0.754356 3.32449 0
M  V30 21163 H 1982.13 2.11154 2.12964 0
M  V30 21164 H 1979.69 1.1268 1.08319 0
M  V30 21165 H 1980.42 -0.210224 3.23618 0
M  V30 21166 H 1980.21 1.52377 3.61281 0
M  V30 21167 H 1981.7 0.674095 4.12123 0
M  V30 21168 N 1982.13 -1.10905 1.11972 0
M  V30 21169 C 1983.38 -1.83223 0.88323 0
M  V30 21170 C 1983.73 -1.83299 -0.584758 0
M  V30 21171 O 1983.03 -1.27913 -1.4265 0
M  V30 21172 C 1983.22 -3.29439 1.38581 0
M  V30 21173 C 1983.05 -3.43605 2.90113 0
M  V30 21174 C 1981.82 -3.56303 3.58296 0
M  V30 21175 C 1984.02 -3.37421 3.88139 0
M  V30 21176 N 1982 -3.58997 4.97991 0
M  V30 21177 C 1983.37 -3.46801 5.13935 0
M  V30 21178 C 1985.43 -3.20988 3.80619 0
M  V30 21179 C 1984.13 -3.41443 6.33095 0
M  V30 21180 C 1986.15 -3.16949 4.99297 0
M  V30 21181 C 1985.52 -3.26906 6.23948 0
M  V30 21182 H 1981.62 -0.685448 0.376411 0
M  V30 21183 H 1984.2 -1.32659 1.42512 0
M  V30 21184 H 1982.37 -3.78507 0.871038 0
M  V30 21185 H 1984.1 -3.89692 1.09189 0
M  V30 21186 H 1980.86 -3.59102 3.08776 0
M  V30 21187 H 1981.28 -3.63967 5.70839 0
M  V30 21188 H 1985.92 -3.12171 2.85147 0
M  V30 21189 H 1983.64 -3.49026 7.28839 0
M  V30 21190 H 1987.23 -3.05393 4.95204 0
M  V30 21191 H 1986.11 -3.23777 7.14239 0
M  V30 21192 N 1983.61 -0.910886 -1.2861 0
M  V30 21193 C 1984.85 -0.549617 -1.96872 0
M  V30 21194 C 1985.21 0.889606 -1.70147 0
M  V30 21195 O 1986.42 1.35831 -2.31956 0
M  V30 21196 C 1984.69 -0.846922 -3.4722 0
M  V30 21197 S 1986.25 -0.59164 -4.34793 0
M  V30 21198 H 1983.06 -0.203478 -0.681262 0
M  V30 21199 H 1985.67 -1.17572 -1.56195 0
M  V30 21200 H 1984.37 -1.89239 -3.64166 0
M  V30 21201 H 1983.9 -0.20936 -3.92843 0
M  V30 21202 H 1985.92 0.558314 -4.93049 0
M  V30 21203 N 1985.09 1.42434 -0.674558 0
M  V30 21204 C 1986.33 2.02357 -0.205691 0
M  V30 21205 C 1986.69 1.52383 1.17462 0
M  V30 21206 O 1985.98 0.716189 1.77711 0
M  V30 21207 C 1986.18 3.56948 -0.179695 0
M  V30 21208 C 1986.01 4.21925 -1.55594 0
M  V30 21209 C 1984.78 4.57107 -2.15364 0
M  V30 21210 C 1986.97 4.49529 -2.49857 0
M  V30 21211 N 1984.96 5.07262 -3.45772 0
M  V30 21212 C 1986.33 5.01233 -3.64919 0
M  V30 21213 C 1988.38 4.31517 -2.4839 0
M  V30 21214 C 1987.08 5.36819 -4.78767 0
M  V30 21215 C 1989.11 4.68179 -3.61334 0
M  V30 21216 C 1988.47 5.20035 -4.75124 0
M  V30 21217 H 1984.57 0.772709 -0.120184 0
M  V30 21218 H 1987.16 1.73296 -0.887492 0
M  V30 21219 H 1985.33 3.85527 0.471518 0
M  V30 21220 H 1987.06 4.03571 0.302032 0
M  V30 21221 H 1983.81 4.42856 -1.67856 0
M  V30 21222 H 1984.24 5.3677 -4.12562 0
M  V30 21223 H 1988.88 3.90681 -1.61642 0
M  V30 21224 H 1986.6 5.76588 -5.6619 0
M  V30 21225 H 1990.18 4.55919 -3.61426 0
M  V30 21226 H 1989.06 5.47875 -5.61073 0
M  V30 21227 N 1986.57 0.417871 1.51959 0
M  V30 21228 C 1987.5 -0.394222 2.30148 0
M  V30 21229 C 1988.48 -1.0384 1.34727 0
M  V30 21230 O 1989.66 -1.04575 1.63639 0
M  V30 21231 C 1986.79 -1.50639 3.1293 0
M  V30 21232 C 1985.75 -0.986759 4.1647 0
M  V30 21233 C 1985.07 -2.1932 4.8765 0
M  V30 21234 C 1986.37 -0.0347019 5.22288 0
M  V30 21235 H 1988.07 0.258228 2.98284 0
M  V30 21236 H 1985.61 0.125633 1.43451 0
M  V30 21237 H 1987.57 -2.08157 3.664 0
M  V30 21238 H 1986.29 -2.18685 2.42579 0
M  V30 21239 H 1984.95 -0.43393 3.64023 0
M  V30 21240 H 1984.6 -2.8594 4.1382 0
M  V30 21241 H 1984.3 -1.85199 5.57652 0
M  V30 21242 H 1985.82 -2.77427 5.43936 0
M  V30 21243 H 1987.23 -0.518951 5.70946 0
M  V30 21244 H 1985.63 0.218124 5.99703 0
M  V30 21245 H 1986.7 0.907947 4.76324 0
M  V30 21246 N 1988.04 -1.56898 0.148573 0
M  V30 21247 C 1989.32 -1.87787 -0.547293 0
M  V30 21248 C 1989.7 -1.05479 -1.82859 0
M  V30 21249 O 1989.05 -0.142055 -2.28058 0
M  V30 21250 C 1989.26 -3.39441 -0.811223 0
M  V30 21251 C 1990.61 -4.08693 -1.1513 0
M  V30 21252 O 1991.63 -3.44629 -0.900524 0
M  V30 21253 O 1990.49 -5.21834 -1.62331 0
M  V30 21254 H 1987.58 -0.778385 -0.279368 0
M  V30 21255 H 1990.13 -1.68685 0.185302 0
M  V30 21256 H 1988.9 -3.91183 0.0955156 0
M  V30 21257 H 1988.53 -3.64076 -1.59794 0
M  V30 21258 N 1989.52 0.125209 -1.57102 0
M  V30 21259 C 1990.77 0.834085 -1.84524 0
M  V30 21260 C 1991.1 1.8017 -0.732742 0
M  V30 21261 O 1990.35 1.93738 0.276448 0
M  V30 21262 C 1990.65 1.62349 -3.18398 0
M  V30 21263 C 1990.32 0.800729 -4.43733 0
M  V30 21264 C 1988.98 0.573817 -4.77766 0
M  V30 21265 C 1991.33 0.226814 -5.20706 0
M  V30 21266 C 1988.66 -0.237364 -5.8622 0
M  V30 21267 C 1991.01 -0.571524 -6.30013 0
M  V30 21268 C 1989.68 -0.80881 -6.62582 0
M  V30 21269 H 1988.95 0.305213 -0.675223 0
M  V30 21270 H 1991.59 0.0967265 -1.91256 0
M  V30 21271 H 1989.9 2.43158 -3.07215 0
M  V30 21272 H 1991.59 2.17583 -3.36836 0
M  V30 21273 H 1988.18 0.987673 -4.17065 0
M  V30 21274 H 1992.37 0.389351 -4.9477 0
M  V30 21275 H 1987.62 -0.430488 -6.09883 0
M  V30 21276 H 1991.8 -1.02325 -6.88841 0
M  V30 21277 H 1989.43 -1.4392 -7.46452 0
M  V30 21278 N 1991 1.52564 0.395213 0
M  V30 21279 C 1992.25 1.67552 1.14254 0
M  V30 21280 C 1992.58 0.411135 1.89798 0
M  V30 21281 O 1991.85 -0.590891 1.85307 0
M  V30 21282 C 1992.14 2.90657 2.1258 0
M  V30 21283 C 1991.99 4.27181 1.40841 0
M  V30 21284 C 1993.31 3.09301 3.13083 0
M  V30 21285 H 1990.43 0.609735 0.413995 0
M  V30 21286 H 1993.07 1.85148 0.426634 0
M  V30 21287 H 1991.22 2.75787 2.73631 0
M  V30 21288 H 1992.89 4.53808 0.82802 0
M  V30 21289 H 1991.14 4.27946 0.71028 0
M  V30 21290 H 1991.81 5.09393 2.12656 0
M  V30 21291 H 1994.28 3.23162 2.62118 0
M  V30 21292 H 1993.16 3.96925 3.79133 0
M  V30 21293 H 1993.42 2.23237 3.81599 0
M  V30 21294 N 1992.48 -0.653289 1.43422 0
M  V30 21295 C 1993.73 -1.40905 1.44322 0
M  V30 21296 C 1994.04 -1.95471 0.0711388 0
M  V30 21297 O 1995.25 -2.71467 -0.0424133 0
M  V30 21298 C 1993.7 -2.55001 2.53973 0
M  V30 21299 C 1993.31 -2.07043 3.97287 0
M  V30 21300 C 1995.05 -3.32369 2.64067 0
M  V30 21301 C 1992.96 -3.18351 4.98404 0
M  V30 21302 H 1991.89 -0.529424 0.536867 0
M  V30 21303 H 1994.54 -0.705139 1.69411 0
M  V30 21304 H 1992.92 -3.27863 2.22085 0
M  V30 21305 H 1994.1 -1.41193 4.38635 0
M  V30 21306 H 1992.41 -1.42555 3.91238 0
M  V30 21307 H 1995.01 -4.15305 3.36788 0
M  V30 21308 H 1995.35 -3.80394 1.69134 0
M  V30 21309 H 1995.89 -2.66588 2.95255 0
M  V30 21310 H 1992.63 -2.75294 5.94889 0
M  V30 21311 H 1992.15 -3.82913 4.61669 0
M  V30 21312 H 1993.82 -3.83483 5.21104 0
M  V30 21313 N 1993.96 -1.29952 -0.891648 0
M  V30 21314 C 1995.2 -1.18565 -1.6453 0
M  V30 21315 C 1995.54 0.260539 -1.92444 0
M  V30 21316 O 1994.81 1.18723 -1.54062 0
M  V30 21317 C 1995.09 -2.00774 -2.98934 0
M  V30 21318 C 1994.95 -3.53577 -2.78035 0
M  V30 21319 C 1996.27 -1.84038 -3.99772 0
M  V30 21320 H 1993.38 -0.432073 -0.597061 0
M  V30 21321 H 1996.03 -1.59512 -1.03227 0
M  V30 21322 H 1994.18 -1.65981 -3.51258 0
M  V30 21323 H 1995.85 -3.98394 -2.3255 0
M  V30 21324 H 1994.09 -3.78095 -2.12665 0
M  V30 21325 H 1994.76 -4.06381 -3.73575 0
M  V30 21326 H 1997.24 -2.14444 -3.56585 0
M  V30 21327 H 1996.11 -2.43896 -4.91737 0
M  V30 21328 H 1996.38 -0.797726 -4.34843 0
M  V30 21329 N 1995.44 1.1031 -1.12559 0
M  V30 21330 C 1996.37 2.15925 -0.738365 0
M  V30 21331 C 1997.35 1.60324 0.271099 0
M  V30 21332 O 1998.53 1.87779 0.164746 0
M  V30 21333 C 1995.66 3.38572 -0.0930976 0
M  V30 21334 C 1994.7 4.1287 -1.06959 0
M  V30 21335 S 1995.54 4.68269 -2.59777 0
M  V30 21336 C 1996.69 5.94227 -1.96584 0
M  V30 21337 H 1996.93 2.48437 -1.63298 0
M  V30 21338 H 1994.46 1.22118 -0.94481 0
M  V30 21339 H 1996.42 4.09592 0.272822 0
M  V30 21340 H 1995.08 3.04296 0.778647 0
M  V30 21341 H 1994.27 5.00815 -0.565756 0
M  V30 21342 H 1993.87 3.47668 -1.37852 0
M  V30 21343 H 1996.16 6.64727 -1.30938 0
M  V30 21344 H 1997.11 6.49275 -2.82574 0
M  V30 21345 H 1997.52 5.46318 -1.42114 0
M  V30 21346 N 1996.91 0.917694 1.28125 0
M  V30 21347 C 1998.16 0.553715 1.95094 0
M  V30 21348 C 1998.49 -0.900999 1.72034 0
M  V30 21349 O 1997.77 -1.64132 1.04359 0
M  V30 21350 C 1998.05 0.868367 3.49473 0
M  V30 21351 C 1997.9 2.3761 3.81918 0
M  V30 21352 C 1999.22 0.367261 4.38565 0
M  V30 21353 H 1996.34 0.202644 0.708593 0
M  V30 21354 H 1998.98 1.14765 1.51423 0
M  V30 21355 H 1997.13 0.362898 3.86801 0
M  V30 21356 H 1998.81 2.95249 3.54437 0
M  V30 21357 H 1997.05 2.82945 3.28823 0
M  V30 21358 H 1997.72 2.5468 4.89737 0
M  V30 21359 H 2000.2 0.800328 4.08331 0
M  V30 21360 H 1999.07 0.616464 5.45427 0
M  V30 21361 H 1999.33 -0.732497 4.3599 0
M  V30 21362 N 1998.39 -1.42074 0.682102 0
M  V30 21363 C 1999.62 -2.06288 0.214488 0
M  V30 21364 C 2000.04 -1.50942 -1.12241 0
M  V30 21365 O 1999.4 -0.63086 -1.6997 0
M  V30 21366 C 1999.45 -3.60208 0.167989 0
M  V30 21367 O 1998.55 -4.03306 -0.86129 0
M  V30 21368 H 1997.89 -0.655134 0.108148 0
M  V30 21369 H 2000.42 -1.8208 0.933171 0
M  V30 21370 H 2000.43 -4.08 -0.00570039 0
M  V30 21371 H 1999.11 -3.99863 1.14378 0
M  V30 21372 H 1997.68 -3.67048 -0.65805 0
M  V30 21373 N 1999.87 -0.425924 -1.51735 0
M  V30 21374 C 2000.8 0.382011 -2.30354 0
M  V30 21375 C 2001.78 1.03124 -1.35276 0
M  V30 21376 O 2002.97 1.03705 -1.64191 0
M  V30 21377 C 2000.1 1.48978 -3.13724 0
M  V30 21378 C 1999.05 0.964659 -4.16987 0
M  V30 21379 C 1998.38 2.1673 -4.88807 0
M  V30 21380 C 1999.68 0.00700314 -5.223 0
M  V30 21381 H 2001.37 -0.274043 -2.98143 0
M  V30 21382 H 1998.92 -0.133238 -1.43382 0
M  V30 21383 H 2000.87 2.06211 -3.67498 0
M  V30 21384 H 1999.59 2.17396 -2.43735 0
M  V30 21385 H 1998.25 0.414618 -3.64248 0
M  V30 21386 H 1997.9 2.83741 -4.15331 0
M  V30 21387 H 1997.6 1.82239 -5.58626 0
M  V30 21388 H 1999.12 2.74538 -5.454 0
M  V30 21389 H 2000.54 0.488665 -5.71214 0
M  V30 21390 H 1998.93 -0.249924 -5.99579 0
M  V30 21391 H 2000 -0.933195 -4.75836 0
M  V30 21392 N 2001.35 1.56817 -0.156891 0
M  V30 21393 C 2002.6 1.95614 0.491749 0
M  V30 21394 C 2002.91 1.04481 1.65357 0
M  V30 21395 O 2004.12 1.32898 2.36749 0
M  V30 21396 C 2002.57 3.47777 0.926222 0
M  V30 21397 C 2002.18 4.47511 -0.209209 0
M  V30 21398 C 2003.92 3.95421 1.54409 0
M  V30 21399 C 2001.83 5.90896 0.244087 0
M  V30 21400 H 2000.76 0.73032 0.187481 0
M  V30 21401 H 2003.41 1.81886 -0.242819 0
M  V30 21402 H 2001.79 3.56872 1.71634 0
M  V30 21403 H 2002.97 4.5012 -0.986326 0
M  V30 21404 H 2001.28 4.09842 -0.736118 0
M  V30 21405 H 2003.88 4.99992 1.89504 0
M  V30 21406 H 2004.22 3.37535 2.43672 0
M  V30 21407 H 2004.76 3.89284 0.818685 0
M  V30 21408 H 2001.49 6.52624 -0.613406 0
M  V30 21409 H 2001.01 5.91626 0.986869 0
M  V30 21410 H 2002.69 6.4328 0.6928 0
M  V30 21411 N 2002.83 -0.116876 1.57166 0
M  V30 21412 C 2003.77 -1.16225 2.01481 0
M  V30 21413 C 2004.77 -1.42749 0.912094 0
M  V30 21414 O 2005.97 -1.42686 1.0973 0
M  V30 21415 H 2002.35 -0.391924 0.641794 0
M  V30 21416 H 2004.32 -0.762018 2.88506 0
M  V30 21417 C 2003.07 -2.48022 2.43681 0
M  V30 21418 H 2002.39 -2.28451 3.28101 0
M  V30 21419 H 2003.83 -3.19723 2.78484 0
M  V30 21420 C 2002.29 -3.10754 1.30129 0
M  V30 21421 O 2002.82 -3.96911 0.618431 0
M  V30 21422 N 2001.03 -2.70664 1.05781 0
M  V30 21423 H 2000.57 -2.00696 1.61489 0
M  V30 21424 H 2000.53 -3.12965 0.300009 0
M  V30 21425 N 2004.3 -1.52772 -0.387116 0
M  V30 21426 C 2005.55 -1.67907 -1.13196 0
M  V30 21427 C 2005.88 -0.419946 -1.89912 0
M  V30 21428 O 2005.13 0.5977 -1.86349 0
M  V30 21429 C 2005.43 -2.86632 -2.13487 0
M  V30 21430 C 2005.1 -4.23999 -1.53414 0
M  V30 21431 C 2003.76 -4.61358 -1.36757 0
M  V30 21432 C 2006.11 -5.09513 -1.09756 0
M  V30 21433 C 2003.44 -5.81887 -0.749927 0
M  V30 21434 C 2005.79 -6.30668 -0.494012 0
M  V30 21435 C 2004.46 -6.66757 -0.314755 0
M  V30 21436 H 2003.73 -0.614416 -0.414214 0
M  V30 21437 H 2006.37 -1.86919 -0.416362 0
M  V30 21438 H 2004.68 -2.62045 -2.91273 0
M  V30 21439 H 2006.38 -2.95538 -2.71032 0
M  V30 21440 H 2002.97 -3.94571 -1.67367 0
M  V30 21441 H 2007.15 -4.81217 -1.21426 0
M  V30 21442 H 2002.41 -6.08456 -0.599259 0
M  V30 21443 H 2006.58 -6.96244 -0.14743 0
M  V30 21444 H 2004.21 -7.60019 0.165924 0
M  V30 21445 N 2005.78 0.645673 -1.43767 0
M  V30 21446 C 2007.03 1.40756 -1.45999 0
M  V30 21447 C 2007.36 1.94006 -0.0867413 0
M  V30 21448 O 2006.64 1.72761 0.893532 0
M  V30 21449 C 2006.92 2.58349 -2.50854 0
M  V30 21450 C 2006.77 2.10542 -3.97482 0
M  V30 21451 C 2008.09 3.60555 -2.52364 0
M  V30 21452 H 2005.21 0.510461 -0.5316 0
M  V30 21453 H 2007.85 0.731338 -1.75361 0
M  V30 21454 H 2006 3.16038 -2.25947 0
M  V30 21455 H 2007.67 1.57795 -4.33472 0
M  V30 21456 H 2005.92 1.41848 -4.09953 0
M  V30 21457 H 2006.59 2.95137 -4.66474 0
M  V30 21458 H 2009.06 3.12639 -2.74583 0
M  V30 21459 H 2007.94 4.40375 -3.2766 0
M  V30 21460 H 2008.2 4.13654 -1.56022 0
M  V30 21461 N 2007.26 1.30423 0.884744 0
M  V30 21462 C 2008.22 1.16804 1.97204 0
M  V30 21463 C 2009.22 0.0992103 1.60494 0
M  V30 21464 O 2010.41 0.34734 1.70702 0
M  V30 21465 C 2007.54 0.789574 3.3163 0
M  V30 21466 H 2008.74 2.13401 2.10713 0
M  V30 21467 H 2006.29 1.13823 1.07117 0
M  V30 21468 H 2007.03 -0.175888 3.23823 0
M  V30 21469 H 2006.81 1.562 3.59644 0
M  V30 21470 H 2008.3 0.717768 4.11385 0
M  V30 21471 N 2008.74 -1.09711 1.13142 0
M  V30 21472 C 2009.96 -1.86136 0.914785 0
M  V30 21473 C 2010.39 -1.80448 -0.531035 0
M  V30 21474 O 2009.75 -1.17983 -1.37658 0
M  V30 21475 C 2009.79 -3.32164 1.40356 0
M  V30 21476 O 2008.9 -4.08203 0.586881 0
M  V30 21477 H 2008.24 -0.577287 0.328079 0
M  V30 21478 H 2010.77 -1.38563 1.50537 0
M  V30 21479 H 2010.78 -3.83013 1.40589 0
M  V30 21480 H 2009.45 -3.35619 2.45628 0
M  V30 21481 H 2008.03 -3.67153 0.652163 0
M  V30 21482 N 2010.22 -0.924476 -1.27637 0
M  V30 21483 C 2011.15 -0.438348 -2.29349 0
M  V30 21484 C 2012.13 0.499673 -1.62595 0
M  V30 21485 O 2013.31 0.405114 -1.89928 0
M  V30 21486 C 2010.44 0.312668 -3.4589 0
M  V30 21487 C 2009.4 -0.537216 -4.24615 0
M  V30 21488 C 2008.72 0.342776 -5.336 0
M  V30 21489 C 2010.02 -1.80003 -4.90302 0
M  V30 21490 H 2011.72 -1.28838 -2.70261 0
M  V30 21491 H 2009.26 -0.620964 -1.29923 0
M  V30 21492 H 2011.22 0.66367 -4.16141 0
M  V30 21493 H 2009.94 1.1967 -3.03886 0
M  V30 21494 H 2008.6 -0.870883 -3.56106 0
M  V30 21495 H 2008.25 1.22567 -4.87838 0
M  V30 21496 H 2007.95 -0.222352 -5.87179 0
M  V30 21497 H 2009.47 0.689422 -6.06695 0
M  V30 21498 H 2010.88 -1.51729 -5.52857 0
M  V30 21499 H 2009.28 -2.3084 -5.53925 0
M  V30 21500 H 2010.35 -2.52148 -4.14186 0
M  V30 21501 N 2011.69 1.41711 -0.689627 0
M  V30 21502 C 2012.93 2.03189 -0.222164 0
M  V30 21503 C 2013.3 1.53416 1.15445 0
M  V30 21504 O 2014.5 2.06781 1.71742 0
M  V30 21505 C 2012.77 3.56371 -0.271028 0
M  V30 21506 S 2014.33 4.38627 0.12326 0
M  V30 21507 H 2011.15 0.705282 -0.0899882 0
M  V30 21508 H 2013.75 1.73235 -0.906082 0
M  V30 21509 H 2012.45 3.90091 -1.27502 0
M  V30 21510 H 2011.98 3.91018 0.432235 0
M  V30 21511 H 2014 4.77408 1.35264 0
M  V30 21512 N 2013.17 0.433965 1.51507 0
M  V30 21513 C 2014.42 -0.133365 2.01659 0
M  V30 21514 C 2014.74 -1.43506 1.32026 0
M  V30 21515 O 2014.01 -1.90572 0.453774 0
M  V30 21516 H 2012.59 -0.0522753 0.745169 0
M  V30 21517 H 2015.25 0.575899 1.86197 0
M  V30 21518 H 2014.35 -0.311697 3.1054 0
M  V30 21519 N 2014.65 -1.56732 0.165206 0
M  V30 21520 C 2015.61 -2.1646 -0.753498 0
M  V30 21521 C 2016.61 -1.11106 -1.16241 0
M  V30 21522 O 2017.8 -1.36652 -1.08037 0
M  V30 21523 C 2014.94 -2.7425 -2.02483 0
M  V30 21524 H 2016.13 -2.98989 -0.233629 0
M  V30 21525 H 2013.68 -1.56072 -0.0843317 0
M  V30 21526 H 2014.42 -1.95439 -2.58794 0
M  V30 21527 H 2014.2 -3.51345 -1.74065 0
M  V30 21528 H 2015.69 -3.20209 -2.6806 0
M  V30 21529 N 2016.13 0.10854 -1.57226 0
M  V30 21530 C 2017.38 0.812858 -1.85033 0
M  V30 21531 C 2017.7 1.79919 -0.751944 0
M  V30 21532 O 2016.97 1.94626 0.223093 0
M  V30 21533 H 2015.55 0.303181 -0.682708 0
M  V30 21534 H 2018.21 0.0933699 -1.94676 0
M  V30 21535 H 2017.31 1.35169 -2.81311 0
M  V30 21536 N 2017.61 1.52975 0.379009 0
M  V30 21537 C 2018.85 1.68172 1.12082 0
M  V30 21538 C 2019.18 0.429215 1.90218 0
M  V30 21539 O 2018.45 -0.556561 1.87828 0
M  V30 21540 H 2017.03 0.619935 0.416761 0
M  V30 21541 H 2019.69 1.90123 0.428883 0
M  V30 21542 H 2018.78 2.53672 1.81815 0
M  V30 21543 N 2019.08 -0.63804 1.44107 0
M  V30 21544 C 2020.33 -1.39366 1.45808 0
M  V30 21545 C 2020.65 -1.95384 0.091867 0
M  V30 21546 O 2021.85 -2.71497 -0.0136182 0
M  V30 21547 C 2020.31 -2.52293 2.56663 0
M  V30 21548 C 2019.92 -2.02818 3.99461 0
M  V30 21549 C 2021.66 -3.29549 2.67577 0
M  V30 21550 C 2019.57 -3.13047 5.01753 0
M  V30 21551 H 2018.5 -0.5237 0.542452 0
M  V30 21552 H 2021.15 -0.687131 1.70149 0
M  V30 21553 H 2019.53 -3.25489 2.2555 0
M  V30 21554 H 2020.7 -1.36533 4.40108 0
M  V30 21555 H 2019.02 -1.38398 3.92728 0
M  V30 21556 H 2021.62 -4.11709 3.41174 0
M  V30 21557 H 2021.96 -3.78579 1.73159 0
M  V30 21558 H 2022.49 -2.63441 2.98066 0
M  V30 21559 H 2019.23 -2.68969 5.97776 0
M  V30 21560 H 2018.75 -3.77995 4.65704 0
M  V30 21561 H 2020.43 -3.77934 5.25142 0
M  V30 21562 N 2020.56 -1.3089 -0.877815 0
M  V30 21563 C 2021.49 -1.13694 -1.99013 0
M  V30 21564 C 2022.51 -0.0781797 -1.62612 0
M  V30 21565 O 2023.7 -0.324906 -1.75518 0
M  V30 21566 C 2020.8 -0.713232 -3.3131 0
M  V30 21567 C 2019.97 -1.8553 -3.96103 0
M  V30 21568 C 2019.03 -1.41895 -5.06707 0
M  V30 21569 O 2018.05 -2.12734 -5.27952 0
M  V30 21570 N 2019.26 -0.301958 -5.79714 0
M  V30 21571 H 2022.02 -2.09499 -2.14313 0
M  V30 21572 H 2019.58 -1.2312 -1.05133 0
M  V30 21573 H 2021.57 -0.404189 -4.02677 0
M  V30 21574 H 2020.14 0.152987 -3.12225 0
M  V30 21575 H 2019.36 -2.33208 -3.17817 0
M  V30 21576 H 2020.65 -2.62046 -4.3613 0
M  V30 21577 H 2020.05 0.288154 -5.64966 0
M  V30 21578 H 2018.61 -0.0524068 -6.51779 0
M  V30 21579 N 2022.04 1.0911 -1.13723 0
M  V30 21580 C 2023 2.14011 -0.820475 0
M  V30 21581 C 2024 1.59882 0.171573 0
M  V30 21582 O 2025.19 1.7411 -0.0559029 0
M  V30 21583 C 2022.33 3.40178 -0.221758 0
M  V30 21584 H 2023.52 2.43541 -1.75007 0
M  V30 21585 H 2021.07 1.24702 -0.94229 0
M  V30 21586 H 2021.81 3.16277 0.716904 0
M  V30 21587 H 2021.59 3.80759 -0.936208 0
M  V30 21588 H 2023.08 4.17596 -0.0171079 0
M  V30 21589 N 2023.52 0.931232 1.27145 0
M  V30 21590 C 2024.77 0.573527 1.94208 0
M  V30 21591 C 2025.09 -0.885797 1.73159 0
M  V30 21592 O 2024.35 -1.64765 1.05598 0
M  V30 21593 C 2024.65 0.850081 3.47143 0
M  V30 21594 C 2024.31 2.29171 3.88319 0
M  V30 21595 C 2022.98 2.68581 3.99271 0
M  V30 21596 C 2025.33 3.22903 4.09125 0
M  V30 21597 C 2022.66 4.00841 4.2842 0
M  V30 21598 C 2025.01 4.54747 4.39759 0
M  V30 21599 C 2023.67 4.93987 4.48924 0
M  V30 21600 H 2022.94 0.209868 0.710659 0
M  V30 21601 H 2025.59 1.17586 1.51148 0
M  V30 21602 H 2023.89 0.165107 3.91452 0
M  V30 21603 H 2025.59 0.552233 3.97179 0
M  V30 21604 H 2022.18 1.97597 3.80334 0
M  V30 21605 H 2026.36 2.93656 4.001 0
M  V30 21606 H 2021.62 4.3092 4.33726 0
M  V30 21607 H 2025.79 5.27377 4.54804 0
M  V30 21608 H 2023.42 5.96501 4.71265 0
M  V30 21609 N 2025 -1.41343 0.697132 0
M  V30 21610 C 2025.94 -2.30777 0.0327941 0
M  V30 21611 C 2026.91 -1.47192 -0.769652 0
M  V30 21612 O 2028.1 -1.75976 -0.737366 0
M  V30 21613 C 2025.24 -3.33252 -0.896488 0
M  V30 21614 C 2024.35 -4.31915 -0.0854899 0
M  V30 21615 C 2023.49 -5.2146 -1.01256 0
M  V30 21616 C 2022.53 -6.11791 -0.194558 0
M  V30 21617 N 2021.66 -6.93813 -1.07551 0
M  V30 21618 H 2026.5 -2.87027 0.801203 0
M  V30 21619 H 2024.04 -1.41363 0.406815 0
M  V30 21620 H 2026 -3.91216 -1.44933 0
M  V30 21621 H 2024.63 -2.78548 -1.63128 0
M  V30 21622 H 2023.68 -3.75886 0.58429 0
M  V30 21623 H 2024.99 -4.95774 0.548612 0
M  V30 21624 H 2024.15 -5.84266 -1.63457 0
M  V30 21625 H 2022.89 -4.57832 -1.68051 0
M  V30 21626 H 2021.89 -5.48032 0.440518 0
M  V30 21627 H 2023.12 -6.77474 0.469626 0
M  V30 21628 H 2021.06 -6.32792 -1.72946 0
M  V30 21629 H 2020.98 -7.54364 -0.497018 0
M  V30 21630 H 2022.25 -7.61086 -1.68429 0
M  V30 21631 N 2026.48 -0.441993 -1.51275 0
M  V30 21632 C 2027.7 0.121451 -2.06543 0
M  V30 21633 C 2028.12 1.36058 -1.30896 0
M  V30 21634 O 2027.48 1.78713 -0.369834 0
M  V30 21635 C 2027.53 0.438983 -3.58825 0
M  V30 21636 O 2027.25 -0.750969 -4.31616 0
M  V30 21637 C 2028.75 1.05259 -4.30622 0
M  V30 21638 H 2025.97 0.00586064 -0.670974 0
M  V30 21639 H 2028.51 -0.622415 -1.94798 0
M  V30 21640 H 2026.67 1.13275 -3.70469 0
M  V30 21641 H 2027.08 -0.478024 -5.22317 0
M  V30 21642 H 2028.56 1.22474 -5.38242 0
M  V30 21643 H 2029.03 2.03489 -3.89216 0
M  V30 21644 H 2029.64 0.398068 -4.23433 0
M  V30 21645 N 2027.95 1.56642 -0.173515 0
M  V30 21646 C 2028.89 2.13917 0.794652 0
M  V30 21647 C 2029.86 1.06986 1.22445 0
M  V30 21648 O 2031.05 1.34974 1.31583 0
M  V30 21649 C 2028.18 2.68052 2.07041 0
M  V30 21650 C 2027.22 3.87375 1.78446 0
M  V30 21651 S 2028.05 5.26975 0.951737 0
M  V30 21652 C 2029.21 5.84516 2.23811 0
M  V30 21653 H 2029.44 2.95704 0.307683 0
M  V30 21654 H 2026.98 1.54345 0.0411859 0
M  V30 21655 H 2028.93 2.99888 2.80316 0
M  V30 21656 H 2027.6 1.86347 2.52851 0
M  V30 21657 H 2026.79 4.23588 2.7311 0
M  V30 21658 H 2026.39 3.56437 1.13265 0
M  V30 21659 H 2028.68 5.97564 3.19254 0
M  V30 21660 H 2029.63 6.81555 1.92063 0
M  V30 21661 H 2030.03 5.12952 2.35671 0
M  V30 21662 N 2029.43 -0.1002 1.57281 0
M  V30 21663 C 2030.85 -0.454271 1.52998 0
M  V30 21664 C 2031.05 -1.80807 0.889451 0
M  V30 21665 O 2030.1 -2.479 0.479781 0
M  V30 21666 C 2031.42 -0.421457 2.97732 0
M  V30 21667 C 2032.96 -0.503676 3.08921 0
M  V30 21668 C 2033.44 -0.501062 4.55251 0
M  V30 21669 N 2034.93 -0.561964 4.59778 0
M  V30 21670 C 2035.67 -0.581696 5.70442 0
M  V30 21671 N 2035.16 -0.557942 6.9055 0
M  V30 21672 N 2036.95 -0.626123 5.58602 0
M  V30 21673 H 2029.11 0.786609 1.97297 0
M  V30 21674 H 2031.37 0.292244 0.90183 0
M  V30 21675 H 2031.07 0.506016 3.48041 0
M  V30 21676 H 2030.95 -1.24233 3.56154 0
M  V30 21677 H 2033.34 -1.42157 2.58603 0
M  V30 21678 H 2033.42 0.345241 2.5346 0
M  V30 21679 H 2033.06 0.412865 5.06219 0
M  V30 21680 H 2032.99 -1.36712 5.08544 0
M  V30 21681 H 2035.48 -0.585723 3.73333 0
M  V30 21682 H 2035.79 -0.576141 7.70649 0
M  V30 21683 H 2034.14 -0.52507 6.93014 0
M  V30 21684 H 2037.33 -0.642175 4.63674 0
M  V30 21685 H 2037.5 -0.638033 6.44851 0
M  V30 21686 N 2030.91 -1.53174 -0.370891 0
M  V30 21687 C 2032.14 -1.73 -1.13484 0
M  V30 21688 C 2032.55 -0.456538 -1.83197 0
M  V30 21689 O 2031.91 0.570218 -1.73363 0
M  V30 21690 C 2031.96 -2.89186 -2.16919 0
M  V30 21691 O 2031.68 -4.11604 -1.50045 0
M  V30 21692 C 2033.18 -3.20841 -3.05901 0
M  V30 21693 H 2030.4 -0.578752 -0.33954 0
M  V30 21694 H 2032.95 -1.99897 -0.43143 0
M  V30 21695 H 2031.1 -2.64699 -2.82866 0
M  V30 21696 H 2031.52 -4.76629 -2.18918 0
M  V30 21697 H 2032.99 -4.05557 -3.7447 0
M  V30 21698 H 2033.47 -2.35982 -3.70418 0
M  V30 21699 H 2034.07 -3.47235 -2.45577 0
M  V30 21700 N 2032.39 0.630389 -1.44443 0
M  V30 21701 C 2033.32 1.75348 -1.54192 0
M  V30 21702 C 2034.3 1.65453 -0.394887 0
M  V30 21703 O 2035.48 1.84201 -0.615103 0
M  V30 21704 C 2032.61 3.13881 -1.48647 0
M  V30 21705 C 2031.57 3.38566 -2.61835 0
M  V30 21706 C 2030.89 4.77136 -2.41341 0
M  V30 21707 C 2032.19 3.31055 -4.0398 0
M  V30 21708 H 2033.89 1.67446 -2.48198 0
M  V30 21709 H 2031.43 0.804159 -1.19454 0
M  V30 21710 H 2033.39 3.92226 -1.54068 0
M  V30 21711 H 2032.11 3.22568 -0.511585 0
M  V30 21712 H 2030.77 2.62602 -2.55805 0
M  V30 21713 H 2030.42 4.82527 -1.42043 0
M  V30 21714 H 2030.12 4.9461 -3.1723 0
M  V30 21715 H 2031.64 5.57709 -2.48581 0
M  V30 21716 H 2033.06 3.99304 -4.11375 0
M  V30 21717 H 2031.45 3.60064 -4.80077 0
M  V30 21718 H 2032.52 2.28852 -4.27498 0
M  V30 21719 N 2033.87 1.31354 0.870861 0
M  V30 21720 C 2035.28 1.09992 1.15646 0
M  V30 21721 C 2035.48 -0.130192 2.01079 0
M  V30 21722 O 2034.54 -0.819776 2.38822 0
M  V30 21723 C 2035.85 2.37098 1.84946 0
M  V30 21724 C 2037.4 2.42699 1.97651 0
M  V30 21725 C 2037.87 3.69684 2.70366 0
M  V30 21726 N 2039.36 3.70573 2.77902 0
M  V30 21727 C 2040.1 4.65525 3.34775 0
M  V30 21728 N 2039.6 5.70831 3.92586 0
M  V30 21729 N 2041.39 4.53046 3.32724 0
M  V30 21730 H 2033.54 2.10249 0.301547 0
M  V30 21731 H 2035.8 0.927478 0.196185 0
M  V30 21732 H 2035.51 3.26943 1.2962 0
M  V30 21733 H 2035.38 2.46827 2.8523 0
M  V30 21734 H 2037.77 1.53324 2.52142 0
M  V30 21735 H 2037.85 2.36935 0.964123 0
M  V30 21736 H 2037.49 4.59425 2.16543 0
M  V30 21737 H 2037.42 3.72714 3.7201 0
M  V30 21738 H 2039.92 2.94449 2.36872 0
M  V30 21739 H 2040.23 6.39363 4.3409 0
M  V30 21740 H 2038.57 5.74606 3.90964 0
M  V30 21741 H 2041.76 3.69952 2.86798 0
M  V30 21742 H 2041.94 5.27223 3.76749 0
M  V30 21743 N 2035.34 -1.08505 1.143 0
M  V30 21744 C 2036.31 -2.13573 0.831813 0
M  V30 21745 C 2037.31 -1.59971 -0.163092 0
M  V30 21746 O 2038.5 -1.74078 0.0651356 0
M  V30 21747 C 2035.63 -3.40056 0.239795 0
M  V30 21748 H 2036.82 -2.4261 1.76297 0
M  V30 21749 H 2034.37 -1.24201 0.94889 0
M  V30 21750 H 2035.11 -3.16652 -0.700121 0
M  V30 21751 H 2034.89 -3.80257 0.956388 0
M  V30 21752 H 2036.38 -4.17582 0.0392538 0
M  V30 21753 N 2036.82 -0.937962 -1.26649 0
M  V30 21754 C 2037.75 -0.462649 -2.28871 0
M  V30 21755 C 2038.73 0.4824 -1.63116 0
M  V30 21756 O 2039.92 0.384947 -1.90347 0
M  V30 21757 C 2037.05 0.275964 -3.46202 0
M  V30 21758 C 2036 -0.582222 -4.24021 0
M  V30 21759 C 2035.33 0.286161 -5.33934 0
M  V30 21760 C 2036.63 -1.85193 -4.88365 0
M  V30 21761 H 2038.32 -1.31698 -2.68879 0
M  V30 21762 H 2035.87 -0.634709 -1.29257 0
M  V30 21763 H 2037.82 0.619496 -4.16822 0
M  V30 21764 H 2036.54 1.1644 -3.05138 0
M  V30 21765 H 2035.2 -0.908604 -3.55162 0
M  V30 21766 H 2034.85 1.17386 -4.89111 0
M  V30 21767 H 2034.55 -0.284618 -5.8691 0
M  V30 21768 H 2036.08 0.625035 -6.07393 0
M  V30 21769 H 2037.49 -1.57584 -5.51217 0
M  V30 21770 H 2035.89 -2.36702 -5.51445 0
M  V30 21771 H 2036.96 -2.56526 -4.11488 0
M  V30 21772 N 2038.3 1.40971 -0.704618 0
M  V30 21773 C 2039.72 1.55082 -0.377067 0
M  V30 21774 C 2039.92 1.67827 1.11518 0
M  V30 21775 O 2038.97 1.66173 1.90112 0
M  V30 21776 C 2040.28 2.78517 -1.13352 0
M  V30 21777 C 2041.83 2.92323 -1.11875 0
M  V30 21778 C 2042.31 4.18658 -1.85714 0
M  V30 21779 N 2043.8 4.25635 -1.82728 0
M  V30 21780 C 2044.53 5.22268 -2.36693 0
M  V30 21781 N 2044.03 6.24877 -2.99167 0
M  V30 21782 N 2045.82 5.14271 -2.26897 0
M  V30 21783 H 2037.97 1.30944 -1.67235 0
M  V30 21784 H 2040.24 0.632393 -0.706246 0
M  V30 21785 H 2039.94 2.75339 -2.18818 0
M  V30 21786 H 2039.82 3.70304 -0.717978 0
M  V30 21787 H 2042.2 2.95011 -0.0723296 0
M  V30 21788 H 2042.28 2.01685 -1.57343 0
M  V30 21789 H 2041.93 4.16732 -2.9034 0
M  V30 21790 H 2041.86 5.08285 -1.37674 0
M  V30 21791 H 2044.35 3.52119 -1.37187 0
M  V30 21792 H 2044.66 6.95019 -3.37889 0
M  V30 21793 H 2043.01 6.25353 -3.03247 0
M  V30 21794 H 2046.2 4.33037 -1.77755 0
M  V30 21795 H 2046.37 5.89411 -2.69256 0
M  V30 21796 N 2039.78 0.45001 1.51039 0
M  V30 21797 C 2041.19 -0.0101397 1.86697 0
M  V30 21798 C 2041.54 -1.40804 1.36633 0
M  V30 21799 O 2040.67 -2.03986 0.722411 0
M  V30 21800 C 2041.26 -0.0251761 3.38791 0
M  V30 21801 C 2039.82 -0.429779 3.73938 0
M  V30 21802 C 2038.97 0.369286 2.7483 0
M  V30 21803 H 2041.92 0.665278 1.44082 0
M  V30 21804 H 2041.94 -0.831964 3.71293 0
M  V30 21805 H 2041.45 0.992361 3.75198 0
M  V30 21806 H 2039.55 -1.45245 3.43125 0
M  V30 21807 H 2039.66 -0.145773 4.78878 0
M  V30 21808 H 2038.03 -0.174158 2.54104 0
M  V30 21809 H 2038.81 1.38594 3.14081 0
M  V30 21810 N 2041.26 -1.56548 0.18182 0
M  V30 21811 C 2042.19 -2.21471 -0.739774 0
M  V30 21812 C 2043.17 -1.17361 -1.23128 0
M  V30 21813 O 2044.35 -1.45825 -1.28253 0
M  V30 21814 C 2041.48 -2.86369 -1.96494 0
M  V30 21815 C 2040.44 -3.96609 -1.60888 0
M  V30 21816 C 2039.76 -4.48607 -2.90957 0
M  V30 21817 C 2041.06 -5.15681 -0.828895 0
M  V30 21818 H 2042.76 -2.98741 -0.19858 0
M  V30 21819 H 2040.3 -1.43692 -0.0940725 0
M  V30 21820 H 2042.26 -3.30466 -2.61477 0
M  V30 21821 H 2040.98 -2.06485 -2.53045 0
M  V30 21822 H 2039.64 -3.53184 -0.982694 0
M  V30 21823 H 2039.29 -3.65501 -3.45569 0
M  V30 21824 H 2038.99 -5.22984 -2.67882 0
M  V30 21825 H 2040.51 -4.95397 -3.56951 0
M  V30 21826 H 2041.92 -5.56405 -1.38153 0
M  V30 21827 H 2040.32 -5.96041 -0.696789 0
M  V30 21828 H 2041.39 -4.84592 0.172711 0
M  V30 21829 N 2042.73 0.0918577 -1.57332 0
M  V30 21830 C 2044.15 0.446151 -1.53237 0
M  V30 21831 C 2044.35 1.80332 -0.899027 0
M  V30 21832 O 2043.41 2.47642 -0.492921 0
M  V30 21833 C 2044.72 0.405662 -2.97951 0
M  V30 21834 C 2046.27 0.487286 -3.09184 0
M  V30 21835 C 2046.74 0.476912 -4.5551 0
M  V30 21836 N 2048.23 0.537573 -4.6007 0
M  V30 21837 C 2048.97 0.551436 -5.70742 0
M  V30 21838 N 2048.46 0.521312 -6.90836 0
M  V30 21839 N 2050.26 0.59649 -5.58926 0
M  V30 21840 H 2042.41 -0.797061 -1.96877 0
M  V30 21841 H 2044.67 -0.297022 -0.900268 0
M  V30 21842 H 2044.38 -0.524467 -3.47768 0
M  V30 21843 H 2044.25 1.22343 -3.56808 0
M  V30 21844 H 2046.64 1.40783 -2.59353 0
M  V30 21845 H 2046.72 -0.358678 -2.53273 0
M  V30 21846 H 2046.36 -0.439705 -5.05993 0
M  V30 21847 H 2046.29 1.34013 -5.09262 0
M  V30 21848 H 2048.78 0.565916 -3.73639 0
M  V30 21849 H 2049.1 0.535263 -7.70944 0
M  V30 21850 H 2047.44 0.48831 -6.93282 0
M  V30 21851 H 2050.63 0.617576 -4.64008 0
M  V30 21852 H 2050.81 0.603826 -6.45181 0
M  V30 21853 N 2044.21 1.53368 0.362763 0
M  V30 21854 C 2045.18 1.7933 1.42736 0
M  V30 21855 C 2046.18 0.663794 1.4646 0
M  V30 21856 O 2047.37 0.932009 1.47171 0
M  V30 21857 C 2044.5 1.91792 2.81831 0
M  V30 21858 H 2045.69 2.74412 1.20989 0
M  V30 21859 H 2043.24 1.44488 0.596058 0
M  V30 21860 H 2043.98 0.987867 3.08888 0
M  V30 21861 H 2043.76 2.73948 2.80526 0
M  V30 21862 H 2045.25 2.13461 3.58921 0
M  V30 21863 N 2045.69 -0.62272 1.44776 0
M  V30 21864 C 2046.62 -1.74744 1.46764 0
M  V30 21865 C 2047.6 -1.59307 0.325571 0
M  V30 21866 O 2048.79 -1.81076 0.523811 0
M  V30 21867 C 2045.91 -3.12411 1.30832 0
M  V30 21868 C 2044.96 -3.46476 2.4871 0
M  V30 21869 S 2045.79 -3.43011 4.11222 0
M  V30 21870 C 2046.95 -4.83284 3.97728 0
M  V30 21871 H 2047.18 -1.72792 2.41931 0
M  V30 21872 H 2044.71 -0.798067 1.32175 0
M  V30 21873 H 2046.67 -3.9185 1.22327 0
M  V30 21874 H 2045.33 -3.11894 0.371621 0
M  V30 21875 H 2044.53 -4.46675 2.33447 0
M  V30 21876 H 2044.13 -2.74519 2.53998 0
M  V30 21877 H 2046.42 -5.72719 3.61937 0
M  V30 21878 H 2047.36 -5.03602 4.97786 0
M  V30 21879 H 2047.77 -4.58254 3.29642 0
M  V30 21880 N 2047.17 -1.31814 -0.863883 0
M  V30 21881 C 2048.39 -1.24961 -1.65528 0
M  V30 21882 C 2048.82 0.18096 -1.87228 0
M  V30 21883 O 2048.18 1.12919 -1.41842 0
M  V30 21884 C 2048.22 -2.00518 -2.99708 0
M  V30 21885 O 2047.33 -1.34668 -3.89793 0
M  V30 21886 H 2046.67 -0.431127 -0.505001 0
M  V30 21887 H 2049.2 -1.73981 -1.07665 0
M  V30 21888 H 2049.21 -2.10344 -3.49599 0
M  V30 21889 H 2047.88 -3.0455 -2.83235 0
M  V30 21890 H 2046.46 -1.33332 -3.48249 0
M  V30 21891 N 2048.65 1.07897 -1.14873 0
M  V30 21892 C 2050.06 1.32467 -0.89021 0
M  V30 21893 C 2050.26 1.96041 0.46584 0
M  V30 21894 O 2049.32 2.21675 1.20899 0
M  V30 21895 C 2050.63 2.22118 -2.02692 0
M  V30 21896 C 2052.18 2.35583 -2.06082 0
M  V30 21897 C 2052.65 3.28579 -3.19061 0
M  V30 21898 N 2054.15 3.36158 -3.18673 0
M  V30 21899 C 2054.88 4.0816 -4.02731 0
M  V30 21900 N 2054.38 4.82826 -4.96841 0
M  V30 21901 N 2056.17 4.04045 -3.90774 0
M  V30 21902 H 2048.32 0.650155 -2.02205 0
M  V30 21903 H 2050.58 0.349072 -0.881393 0
M  V30 21904 H 2050.29 1.82656 -3.00549 0
M  V30 21905 H 2050.16 3.22612 -1.95452 0
M  V30 21906 H 2052.55 2.743 -1.08829 0
M  V30 21907 H 2052.63 1.34812 -2.17392 0
M  V30 21908 H 2052.28 2.90582 -4.16563 0
M  V30 21909 H 2052.21 4.2929 -3.04988 0
M  V30 21910 H 2054.7 2.82932 -2.50515 0
M  V30 21911 H 2055.01 5.35244 -5.57434 0
M  V30 21912 H 2053.35 4.81861 -5.00834 0
M  V30 21913 H 2056.55 3.44823 -3.16567 0
M  V30 21914 H 2056.72 4.59895 -4.56509 0
M  V30 21915 N 2050.12 0.944665 1.2615 0
M  V30 21916 C 2051.06 0.401268 2.24644 0
M  V30 21917 C 2052.04 -0.511856 1.54333 0
M  V30 21918 O 2053.22 -0.44851 1.83086 0
M  V30 21919 C 2050.35 -0.423081 3.36047 0
M  V30 21920 C 2049.39 0.429013 4.24337 0
M  V30 21921 S 2050.23 1.85512 5.0234 0
M  V30 21922 C 2051.38 1.03892 6.17217 0
M  V30 21923 H 2051.61 1.236 2.70389 0
M  V30 21924 H 2049.15 0.748025 1.3507 0
M  V30 21925 H 2051.11 -0.892789 4.00674 0
M  V30 21926 H 2049.77 -1.23253 2.88907 0
M  V30 21927 H 2048.96 -0.202757 5.03592 0
M  V30 21928 H 2048.56 0.833541 3.64593 0
M  V30 21929 H 2050.85 0.282839 6.76909 0
M  V30 21930 H 2051.8 1.80505 6.84707 0
M  V30 21931 H 2052.2 0.573442 5.6158 0
M  V30 21932 N 2051.6 -1.40596 0.712085 0
M  V30 21933 C 2052.53 -2.29193 0.0179139 0
M  V30 21934 C 2053.55 -1.45646 -0.727389 0
M  V30 21935 O 2054.74 -1.68973 -0.575349 0
M  V30 21936 C 2051.84 -3.23845 -0.998876 0
M  V30 21937 C 2051.01 -4.36229 -0.319822 0
M  V30 21938 C 2050.07 -5.11344 -1.24151 0
M  V30 21939 O 2049.09 -5.6453 -0.727627 0
M  V30 21940 N 2050.3 -5.20369 -2.57287 0
M  V30 21941 H 2053.06 -2.89409 0.778623 0
M  V30 21942 H 2050.62 -1.51928 0.559432 0
M  V30 21943 H 2052.61 -3.70968 -1.61757 0
M  V30 21944 H 2051.18 -2.64821 -1.66098 0
M  V30 21945 H 2050.4 -3.91279 0.479012 0
M  V30 21946 H 2051.69 -5.08574 0.151681 0
M  V30 21947 H 2051.09 -4.78635 -3.01538 0
M  V30 21948 H 2049.65 -5.7101 -3.14309 0
M  V30 21949 N 2053.08 -0.458013 -1.50798 0
M  V30 21950 C 2054.33 0.101266 -2.01846 0
M  V30 21951 C 2054.65 1.41388 -1.34293 0
M  V30 21952 O 2053.92 1.89826 -0.484035 0
M  V30 21953 H 2052.5 0.0404137 -0.745906 0
M  V30 21954 H 2055.16 -0.605448 -1.85257 0
M  V30 21955 H 2054.26 0.262253 -3.10996 0
M  V30 21956 N 2054.56 1.56449 -0.190119 0
M  V30 21957 C 2055.49 2.14748 0.771918 0
M  V30 21958 C 2056.47 1.08278 1.21304 0
M  V30 21959 O 2057.65 1.36362 1.30144 0
M  V30 21960 C 2054.78 2.70233 2.04186 0
M  V30 21961 C 2053.83 3.89246 1.74327 0
M  V30 21962 S 2054.66 5.27954 0.895791 0
M  V30 21963 C 2055.82 5.86857 2.17599 0
M  V30 21964 H 2056.05 2.96013 0.276302 0
M  V30 21965 H 2053.58 1.5438 0.0248132 0
M  V30 21966 H 2055.54 3.02845 2.7712 0
M  V30 21967 H 2054.2 1.89018 2.5086 0
M  V30 21968 H 2053.39 4.26461 2.68602 0
M  V30 21969 H 2053 3.57618 1.09478 0
M  V30 21970 H 2055.29 6.00917 3.12898 0
M  V30 21971 H 2056.23 6.83554 1.84823 0
M  V30 21972 H 2056.64 5.15422 2.30218 0
M  V30 21973 N 2056.04 -0.0835127 1.57379 0
M  V30 21974 C 2057.45 -0.438018 1.53472 0
M  V30 21975 C 2057.65 -1.79853 0.908578 0
M  V30 21976 O 2056.71 -2.47377 0.506047 0
M  V30 21977 C 2058.02 -0.389855 2.98162 0
M  V30 21978 C 2059.57 -0.470883 3.09438 0
M  V30 21979 C 2060.05 -0.452749 4.55757 0
M  V30 21980 N 2061.54 -0.513166 4.60349 0
M  V30 21981 C 2062.27 -0.52116 5.71027 0
M  V30 21982 N 2061.77 -0.484668 6.91103 0
M  V30 21983 N 2063.56 -0.566841 5.59235 0
M  V30 21984 H 2055.71 0.807491 1.96452 0
M  V30 21985 H 2057.97 0.301793 0.89868 0
M  V30 21986 H 2057.68 0.542902 3.47484 0
M  V30 21987 H 2057.55 -1.20449 3.57452 0
M  V30 21988 H 2059.94 -1.39406 2.60096 0
M  V30 21989 H 2060.02 0.372104 2.53079 0
M  V30 21990 H 2059.67 0.466533 5.05753 0
M  V30 21991 H 2059.6 -1.31311 5.09966 0
M  V30 21992 H 2062.09 -0.546093 3.73933 0
M  V30 21993 H 2062.4 -0.494371 7.71217 0
M  V30 21994 H 2060.75 -0.451537 6.93532 0
M  V30 21995 H 2063.94 -0.59296 4.64329 0
M  V30 21996 H 2064.11 -0.569602 6.45492 0
M  V30 21997 N 2057.52 -1.53558 -0.354624 0
M  V30 21998 C 2058.76 -1.70523 -1.09772 0
M  V30 21999 C 2059.09 -0.461312 -1.88641 0
M  V30 22000 O 2058.37 0.541553 -1.86809 0
M  V30 22001 C 2058.65 -2.96191 -2.04799 0
M  V30 22002 C 2058.51 -4.30765 -1.29465 0
M  V30 22003 C 2059.82 -3.17493 -3.04772 0
M  V30 22004 H 2056.94 -0.620497 -0.397683 0
M  V30 22005 H 2059.59 -1.86214 -0.377395 0
M  V30 22006 H 2057.74 -2.82944 -2.66223 0
M  V30 22007 H 2059.41 -4.55844 -0.707409 0
M  V30 22008 H 2057.65 -4.29678 -0.596569 0
M  V30 22009 H 2058.32 -5.14852 -1.99076 0
M  V30 22010 H 2060.8 -3.29998 -2.53458 0
M  V30 22011 H 2059.67 -4.06838 -3.68476 0
M  V30 22012 H 2059.93 -2.33276 -3.75546 0
M  V30 22013 N 2058.99 0.615033 -1.45104 0
M  V30 22014 C 2060.24 1.37627 -1.48952 0
M  V30 22015 C 2060.57 1.93779 -0.127873 0
M  V30 22016 O 2059.85 1.74617 0.856686 0
M  V30 22017 C 2060.13 2.5297 -2.56278 0
M  V30 22018 C 2059.98 2.02063 -4.01859 0
M  V30 22019 C 2061.3 3.55121 -2.59956 0
M  V30 22020 H 2058.42 0.49907 -0.542308 0
M  V30 22021 H 2061.06 0.693977 -1.76873 0
M  V30 22022 H 2059.21 3.11174 -2.326 0
M  V30 22023 H 2060.89 1.48565 -4.36722 0
M  V30 22024 H 2059.13 1.3312 -4.1287 0
M  V30 22025 H 2059.8 2.85176 -4.72629 0
M  V30 22026 H 2062.28 3.06745 -2.81153 0
M  V30 22027 H 2061.15 4.33326 -3.36927 0
M  V30 22028 H 2061.41 4.10251 -1.64761 0
M  V30 22029 N 2060.47 1.3227 0.85688 0
M  V30 22030 C 2061.72 1.22885 1.61329 0
M  V30 22031 C 2062.05 -0.209425 1.93067 0
M  V30 22032 O 2061.33 -1.14596 1.57156 0
M  V30 22033 C 2061.61 2.0863 2.93506 0
M  V30 22034 C 2061.46 3.60824 2.68563 0
M  V30 22035 C 2062.78 1.94573 3.94752 0
M  V30 22036 H 2059.9 0.447751 0.585395 0
M  V30 22037 H 2062.54 1.62193 0.989615 0
M  V30 22038 H 2060.69 1.75236 3.46734 0
M  V30 22039 H 2062.36 4.0442 2.21906 0
M  V30 22040 H 2060.61 3.83601 2.02566 0
M  V30 22041 H 2061.28 4.16143 3.6267 0
M  V30 22042 H 2063.75 2.23822 3.50775 0
M  V30 22043 H 2062.63 2.56848 4.85098 0
M  V30 22044 H 2062.89 0.912736 4.32575 0
M  V30 22045 N 2061.95 -1.07287 1.15444 0
M  V30 22046 C 2062.9 -2.16605 0.847634 0
M  V30 22047 C 2063.89 -1.68449 -0.179217 0
M  V30 22048 O 2065.1 -1.79968 -0.0341862 0
M  V30 22049 H 2061.47 -0.706921 0.25645 0
M  V30 22050 H 2063.44 -2.397 1.77726 0
M  V30 22051 C 2062.19 -3.45893 0.354062 0
M  V30 22052 H 2061.52 -3.83333 1.1356 0
M  V30 22053 H 2062.96 -4.23626 0.178055 0
M  V30 22054 C 2061.41 -3.23966 -0.924544 0
M  V30 22055 O 2061.94 -3.48604 -1.99594 0
M  V30 22056 N 2060.15 -2.77449 -0.864314 0
M  V30 22057 H 2059.7 -2.57599 0.00774481 0
M  V30 22058 H 2059.66 -2.63157 -1.72034 0
M  V30 22059 N 2063.43 -0.951342 -1.25647 0
M  V30 22060 C 2064.39 -0.473447 -2.24257 0
M  V30 22061 C 2065.39 0.421053 -1.5519 0
M  V30 22062 O 2066.58 0.218803 -1.7282 0
M  V30 22063 C 2063.71 0.316367 -3.39429 0
M  V30 22064 H 2064.91 -1.34499 -2.68049 0
M  V30 22065 H 2062.46 -0.734296 -1.37978 0
M  V30 22066 H 2063.19 1.20572 -3.01053 0
M  V30 22067 H 2062.98 -0.325315 -3.90748 0
M  V30 22068 H 2064.47 0.640306 -4.12662 0
M  V30 22069 N 2064.91 1.40216 -0.719531 0
M  V30 22070 C 2065.84 2.33348 -0.08432 0
M  V30 22071 C 2066.82 1.53101 0.741225 0
M  V30 22072 O 2068 1.81553 0.68935 0
M  V30 22073 C 2065.13 3.37106 0.835256 0
M  V30 22074 C 2064.09 4.27845 0.115036 0
M  V30 22075 C 2063.41 5.22174 1.15059 0
M  V30 22076 C 2064.71 5.1198 -1.03314 0
M  V30 22077 H 2066.41 2.86716 -0.862219 0
M  V30 22078 H 2063.95 1.37858 -0.416073 0
M  V30 22079 H 2065.9 4.012 1.28905 0
M  V30 22080 H 2064.63 2.82142 1.6451 0
M  V30 22081 H 2063.29 3.6521 -0.318975 0
M  V30 22082 H 2062.94 4.63513 1.95359 0
M  V30 22083 H 2062.64 5.83727 0.673556 0
M  V30 22084 H 2064.16 5.89144 1.60441 0
M  V30 22085 H 2065.57 5.69505 -0.658522 0
M  V30 22086 H 2063.97 5.82596 -1.4388 0
M  V30 22087 H 2065.04 4.47725 -1.86199 0
M  V30 22088 N 2066.38 0.466004 1.50553 0
M  V30 22089 C 2067.63 -0.0908736 2.02596 0
M  V30 22090 C 2067.96 -1.39827 1.34767 0
M  V30 22091 O 2067.24 -1.88693 0.471719 0
M  V30 22092 C 2067.52 -0.279963 3.5901 0
M  V30 22093 C 2067.37 1.0481 4.37419 0
M  V30 22094 C 2068.69 -1.03683 4.27712 0
M  V30 22095 H 2065.81 -0.031552 0.736324 0
M  V30 22096 H 2068.45 0.610602 1.79921 0
M  V30 22097 H 2066.6 -0.877461 3.78461 0
M  V30 22098 H 2068.28 1.68178 4.29551 0
M  V30 22099 H 2066.52 1.64595 4.01361 0
M  V30 22100 H 2067.19 0.869493 5.45109 0
M  V30 22101 H 2069.67 -0.53043 4.12705 0
M  V30 22102 H 2068.54 -1.13792 5.36975 0
M  V30 22103 H 2068.8 -2.07215 3.90531 0
M  V30 22104 N 2067.86 -1.56346 0.198413 0
M  V30 22105 C 2068.79 -2.16476 -0.753037 0
M  V30 22106 C 2069.81 -1.12748 -1.17438 0
M  V30 22107 O 2071 -1.39827 -1.10953 0
M  V30 22108 C 2068.1 -2.71472 -2.0287 0
M  V30 22109 C 2067.27 -4.00136 -1.76663 0
M  V30 22110 C 2066.33 -4.39925 -2.88708 0
M  V30 22111 O 2065.35 -5.07283 -2.58173 0
M  V30 22112 N 2066.56 -4.03701 -4.1714 0
M  V30 22113 H 2069.32 -2.98747 -0.238812 0
M  V30 22114 H 2066.88 -1.61892 0.0165651 0
M  V30 22115 H 2068.87 -2.95073 -2.76973 0
M  V30 22116 H 2067.44 -1.93637 -2.45405 0
M  V30 22117 H 2066.66 -3.84633 -0.863216 0
M  V30 22118 H 2067.95 -4.84116 -1.56555 0
M  V30 22119 H 2067.35 -3.49528 -4.448 0
M  V30 22120 H 2065.91 -4.32245 -4.8786 0
M  V30 22121 N 2069.34 0.0751653 -1.57421 0
M  V30 22122 C 2070.3 1.07404 -2.02477 0
M  V30 22123 C 2071.3 1.31792 -0.921282 0
M  V30 22124 O 2072.49 1.27569 -1.18625 0
M  V30 22125 C 2069.63 2.4185 -2.40253 0
M  V30 22126 H 2070.82 0.685783 -2.91954 0
M  V30 22127 H 2068.37 0.320795 -1.52973 0
M  V30 22128 H 2069.11 2.85515 -1.53791 0
M  V30 22129 H 2068.89 2.25492 -3.20774 0
M  V30 22130 H 2070.38 3.13655 -2.75699 0
M  V30 22131 N 2070.82 1.53744 0.346476 0
M  V30 22132 C 2072.07 1.70066 1.08445 0
M  V30 22133 C 2072.38 0.469013 1.89894 0
M  V30 22134 O 2073.59 0.513127 2.66607 0
M  V30 22135 C 2072.04 3.00716 1.97732 0
M  V30 22136 C 2071.65 4.31208 1.21504 0
M  V30 22137 C 2073.39 3.26404 2.71405 0
M  V30 22138 C 2071.3 5.52934 2.09804 0
M  V30 22139 H 2070.23 0.633711 0.408567 0
M  V30 22140 H 2072.88 1.80244 0.344133 0
M  V30 22141 H 2071.26 2.84388 2.75572 0
M  V30 22142 H 2072.44 4.5823 0.485955 0
M  V30 22143 H 2070.75 4.12111 0.596126 0
M  V30 22144 H 2073.35 4.14536 3.37733 0
M  V30 22145 H 2073.69 2.43286 3.37813 0
M  V30 22146 H 2074.23 3.43495 2.0064 0
M  V30 22147 H 2070.97 6.38587 1.47943 0
M  V30 22148 H 2070.49 5.30164 2.8051 0
M  V30 22149 H 2072.16 5.88463 2.68924 0
M  V30 22150 N 2072.3 -0.607329 1.45428 0
M  V30 22151 C 2073.71 -1.18928 1.4392 0
M  V30 22152 C 2074.06 -1.95488 0.166955 0
M  V30 22153 O 2073.18 -2.03663 -0.731456 0
M  V30 22154 C 2073.78 -2.16337 2.60737 0
M  V30 22155 C 2072.34 -2.69908 2.62349 0
M  V30 22156 C 2071.48 -1.45319 2.36173 0
M  V30 22157 H 2074.44 -0.396625 1.53664 0
M  V30 22158 H 2074.46 -2.99376 2.3485 0
M  V30 22159 H 2073.97 -1.60587 3.53318 0
M  V30 22160 H 2072.07 -3.29596 1.73774 0
M  V30 22161 H 2072.18 -3.14323 3.61577 0
M  V30 22162 H 2070.55 -1.74283 1.85735 0
M  V30 22163 H 2071.33 -0.914363 3.30899 0
M  V30 22164 N 2073.77 -1.32722 -0.849853 0
M  V30 22165 C 2075 -1.2671 -1.64193 0
M  V30 22166 C 2075.42 0.161092 -1.87409 0
M  V30 22167 O 2074.78 1.11408 -1.43031 0
M  V30 22168 C 2074.83 -2.03686 -2.97564 0
M  V30 22169 O 2073.93 -1.38794 -3.88343 0
M  V30 22170 H 2073.28 -0.436459 -0.5004 0
M  V30 22171 H 2075.81 -1.75113 -1.05813 0
M  V30 22172 H 2075.82 -2.1404 -3.47349 0
M  V30 22173 H 2074.49 -3.07537 -2.79989 0
M  V30 22174 H 2073.07 -1.37018 -3.46815 0
M  V30 22175 N 2075.25 1.06673 -1.16011 0
M  V30 22176 C 2076.5 1.78785 -0.933751 0
M  V30 22177 C 2076.81 1.87999 0.539969 0
M  V30 22178 O 2078.02 2.56701 0.884117 0
M  V30 22179 C 2076.48 3.21313 -1.6213 0
M  V30 22180 C 2076.08 3.20277 -3.13252 0
M  V30 22181 C 2077.83 3.97985 -1.47675 0
M  V30 22182 C 2075.74 4.57501 -3.74762 0
M  V30 22183 H 2074.67 0.670074 -0.345711 0
M  V30 22184 H 2077.32 1.19679 -1.39101 0
M  V30 22185 H 2075.7 3.80653 -1.09174 0
M  V30 22186 H 2076.87 2.70541 -3.7302 0
M  V30 22187 H 2075.19 2.57103 -3.27547 0
M  V30 22188 H 2077.78 4.99417 -1.91016 0
M  V30 22189 H 2078.13 4.14123 -0.425173 0
M  V30 22190 H 2078.66 3.45157 -1.97766 0
M  V30 22191 H 2075.4 4.46568 -4.79851 0
M  V30 22192 H 2074.92 5.07446 -3.19778 0
M  V30 22193 H 2076.6 5.26463 -3.76093 0
M  V30 22194 N 2076.73 0.957992 1.25141 0
M  V30 22195 C 2077.98 0.614592 1.92948 0
M  V30 22196 C 2078.31 -0.848868 1.74999 0
M  V30 22197 O 2077.56 -1.62488 1.09069 0
M  V30 22198 C 2077.86 0.923523 3.45262 0
M  V30 22199 C 2077.53 2.37356 3.83371 0
M  V30 22200 C 2076.19 2.7699 3.93484 0
M  V30 22201 C 2078.54 3.31508 4.02184 0
M  V30 22202 C 2075.87 4.09838 4.19821 0
M  V30 22203 C 2078.22 4.63973 4.30014 0
M  V30 22204 C 2076.88 5.03398 4.38345 0
M  V30 22205 H 2076.15 0.224895 0.706048 0
M  V30 22206 H 2078.8 1.20766 1.4862 0
M  V30 22207 H 2077.11 0.248102 3.91014 0
M  V30 22208 H 2078.8 0.636357 3.95919 0
M  V30 22209 H 2075.39 2.05619 3.76057 0
M  V30 22210 H 2079.58 3.02076 3.93781 0
M  V30 22211 H 2074.83 4.40023 4.24488 0
M  V30 22212 H 2079.01 5.36905 4.43516 0
M  V30 22213 H 2076.63 6.06363 4.58506 0
M  V30 22214 N 2078.21 -1.39832 0.726957 0
M  V30 22215 C 2079.16 -2.32492 0.0707517 0
M  V30 22216 C 2080.15 -1.5264 -0.734661 0
M  V30 22217 O 2081.36 -1.68361 -0.63675 0
M  V30 22218 H 2077.73 -0.751989 0.00407767 0
M  V30 22219 H 2079.7 -2.85473 0.868774 0
M  V30 22220 C 2078.45 -3.37686 -0.828442 0
M  V30 22221 H 2077.77 -3.99205 -0.218093 0
M  V30 22222 H 2079.21 -4.0499 -1.25534 0
M  V30 22223 C 2077.67 -2.74083 -1.95909 0
M  V30 22224 O 2078.2 -2.61299 -3.051 0
M  V30 22225 N 2076.41 -2.32292 -1.7461 0
M  V30 22226 H 2075.96 -2.4289 -0.858037 0
M  V30 22227 H 2075.91 -1.90075 -2.50437 0
M  V30 22228 N 2079.69 -0.473982 -1.50304 0
M  V30 22229 C 2080.93 0.0801282 -2.02642 0
M  V30 22230 C 2081.27 1.3911 -1.35506 0
M  V30 22231 O 2080.54 1.8844 -0.481719 0
M  V30 22232 C 2080.82 0.26092 -3.59153 0
M  V30 22233 C 2080.68 -1.07128 -4.36857 0
M  V30 22234 C 2082 1.01413 -4.28256 0
M  V30 22235 H 2079.11 0.0276467 -0.736481 0
M  V30 22236 H 2081.76 -0.620135 -1.79595 0
M  V30 22237 H 2079.91 0.857378 -3.78921 0
M  V30 22238 H 2081.58 -1.70454 -4.28653 0
M  V30 22239 H 2079.82 -1.66721 -4.00483 0
M  V30 22240 H 2080.49 -0.898389 -5.4464 0
M  V30 22241 H 2082.97 0.508536 -4.12981 0
M  V30 22242 H 2081.84 1.10943 -5.37571 0
M  V30 22243 H 2082.11 2.05141 -3.91624 0
M  V30 22244 N 2081.16 1.56239 -0.206702 0
M  V30 22245 C 2082.09 2.2262 0.704446 0
M  V30 22246 C 2083.08 1.19305 1.21245 0
M  V30 22247 O 2084.26 1.47846 1.25917 0
M  V30 22248 C 2081.39 2.89459 1.91913 0
M  V30 22249 C 2080.34 3.99119 1.54558 0
M  V30 22250 C 2079.67 4.53179 2.83783 0
M  V30 22251 C 2080.97 5.16934 0.746749 0
M  V30 22252 H 2082.66 2.99019 0.151028 0
M  V30 22253 H 2080.21 1.43824 0.0712004 0
M  V30 22254 H 2082.16 3.34584 2.56186 0
M  V30 22255 H 2080.89 2.10484 2.49728 0
M  V30 22256 H 2079.55 3.54702 0.926381 0
M  V30 22257 H 2079.19 3.70952 3.39711 0
M  V30 22258 H 2078.89 5.2718 2.59528 0
M  V30 22259 H 2080.42 5.01013 3.49024 0
M  V30 22260 H 2081.83 5.58532 1.29284 0
M  V30 22261 H 2080.23 5.97074 0.601876 0
M  V30 22262 H 2081.3 4.84256 -0.249783 0
M  V30 22263 N 2082.64 -0.0668159 1.57458 0
M  V30 22264 C 2083.57 -1.0791 2.07069 0
M  V30 22265 C 2084.55 -1.40063 0.965207 0
M  V30 22266 O 2085.74 -1.49604 1.23823 0
M  V30 22267 C 2082.87 -2.39113 2.51877 0
M  V30 22268 C 2081.82 -2.213 3.66347 0
M  V30 22269 C 2081.15 -3.57931 3.97227 0
M  V30 22270 C 2082.45 -1.63013 4.9621 0
M  V30 22271 H 2084.14 -0.666254 2.91893 0
M  V30 22272 H 2081.69 -0.319039 1.40421 0
M  V30 22273 H 2083.64 -3.10226 2.85198 0
M  V30 22274 H 2082.37 -2.82387 1.64088 0
M  V30 22275 H 2081.02 -1.52628 3.33317 0
M  V30 22276 H 2080.67 -3.98784 3.06562 0
M  V30 22277 H 2080.37 -3.4685 4.74309 0
M  V30 22278 H 2081.9 -4.30467 4.33048 0
M  V30 22279 H 2083.31 -2.23997 5.27729 0
M  V30 22280 H 2081.71 -1.62614 5.77648 0
M  V30 22281 H 2082.78 -0.592078 4.81272 0
M  V30 22282 N 2084.12 -1.53926 -0.338317 0
M  V30 22283 C 2085.37 -1.71678 -1.07957 0
M  V30 22284 C 2085.7 -0.481294 -1.88141 0
M  V30 22285 O 2084.98 0.521709 -1.87372 0
M  V30 22286 C 2085.26 -2.98347 -2.01646 0
M  V30 22287 C 2085.11 -4.32114 -1.24889 0
M  V30 22288 C 2086.43 -3.20708 -3.01388 0
M  V30 22289 H 2083.55 -0.62468 -0.39108 0
M  V30 22290 H 2086.19 -1.86604 -0.357623 0
M  V30 22291 H 2084.34 -2.85752 -2.63207 0
M  V30 22292 H 2086.01 -4.56568 -0.659021 0
M  V30 22293 H 2084.26 -4.30287 -0.550962 0
M  V30 22294 H 2084.93 -5.16935 -1.93604 0
M  V30 22295 H 2087.4 -3.32667 -2.49943 0
M  V30 22296 H 2086.28 -4.10723 -3.6414 0
M  V30 22297 H 2086.54 -2.37246 -3.7305 0
M  V30 22298 N 2085.6 0.599608 -1.45748 0
M  V30 22299 C 2086.84 1.36961 -1.51727 0
M  V30 22300 C 2087.2 1.91347 -0.158221 0
M  V30 22301 O 2088.4 2.6864 -0.0927187 0
M  V30 22302 C 2086.68 2.48104 -2.57253 0
M  V30 22303 S 2088.23 3.35754 -2.82515 0
M  V30 22304 H 2085.05 0.466839 -0.536267 0
M  V30 22305 H 2087.65 0.691067 -1.82878 0
M  V30 22306 H 2086.36 2.06513 -3.54656 0
M  V30 22307 H 2085.89 3.2075 -2.27778 0
M  V30 22308 H 2087.9 4.46478 -2.165 0
M  V30 22309 N 2087.08 1.33171 0.842803 0
M  V30 22310 C 2088.01 1.2572 1.96766 0
M  V30 22311 C 2088.99 0.138574 1.69535 0
M  V30 22312 O 2090.17 0.327704 1.91415 0
M  V30 22313 C 2087.3 0.991637 3.32842 0
M  V30 22314 C 2086.26 2.07278 3.74459 0
M  V30 22315 C 2085.58 1.65942 5.08299 0
M  V30 22316 C 2086.88 3.48911 3.88662 0
M  V30 22317 H 2088.58 2.19834 2.03257 0
M  V30 22318 H 2086.12 1.05829 0.976533 0
M  V30 22319 H 2088.08 0.926021 4.111 0
M  V30 22320 H 2086.8 0.0148823 3.26597 0
M  V30 22321 H 2085.46 2.12875 2.98462 0
M  V30 22322 H 2085.11 0.669795 4.98521 0
M  V30 22323 H 2084.81 2.38288 5.37115 0
M  V30 22324 H 2086.33 1.60839 5.89036 0
M  V30 22325 H 2087.75 3.45837 4.57241 0
M  V30 22326 H 2086.14 4.1971 4.2891 0
M  V30 22327 H 2087.21 3.87705 2.91226 0
M  V30 22328 N 2088.56 -1.06056 1.16576 0
M  V30 22329 C 2089.8 -1.78287 0.943219 0
M  V30 22330 C 2090.12 -1.88283 -0.529992 0
M  V30 22331 O 2091.32 -2.57167 -0.870491 0
M  V30 22332 C 2089.78 -3.20448 1.63832 0
M  V30 22333 C 2089.39 -3.18611 3.14946 0
M  V30 22334 C 2091.13 -3.97196 1.49784 0
M  V30 22335 C 2089.04 -4.55507 3.77183 0
M  V30 22336 H 2087.97 -0.668232 0.34926 0
M  V30 22337 H 2090.62 -1.1894 1.39734 0
M  V30 22338 H 2089 -3.80069 1.11191 0
M  V30 22339 H 2090.18 -2.68559 3.7445 0
M  V30 22340 H 2088.49 -2.55362 3.28906 0
M  V30 22341 H 2091.09 -4.98397 1.93661 0
M  V30 22342 H 2091.43 -4.13892 0.447129 0
M  V30 22343 H 2091.96 -3.44104 1.99594 0
M  V30 22344 H 2088.7 -4.44017 4.82213 0
M  V30 22345 H 2088.22 -5.05743 3.22465 0
M  V30 22346 H 2089.9 -5.24461 3.7888 0
M  V30 22347 N 2090.03 -0.964615 -1.24631 0
M  V30 22348 C 2091.28 -0.624816 -1.9262 0
M  V30 22349 C 2091.61 0.839576 -1.75446 0
M  V30 22350 O 2090.86 1.61908 -1.09929 0
M  V30 22351 C 2091.16 -0.941821 -3.44767 0
M  V30 22352 C 2090.83 -2.39386 -3.82106 0
M  V30 22353 C 2089.49 -2.79073 -3.9201 0
M  V30 22354 C 2091.84 -3.33637 -4.0042 0
M  V30 22355 C 2089.17 -4.12059 -4.17642 0
M  V30 22356 C 2091.52 -4.66247 -4.27547 0
M  V30 22357 C 2090.19 -5.05716 -4.35669 0
M  V30 22358 H 2089.46 -0.228636 -0.704845 0
M  V30 22359 H 2092.1 -1.21552 -1.47977 0
M  V30 22360 H 2090.41 -0.268835 -3.90877 0
M  V30 22361 H 2092.11 -0.657344 -3.95576 0
M  V30 22362 H 2088.7 -2.07611 -3.74961 0
M  V30 22363 H 2092.88 -3.0416 -3.92174 0
M  V30 22364 H 2088.14 -4.42268 -4.22148 0
M  V30 22365 H 2092.31 -5.39249 -4.40662 0
M  V30 22366 H 2089.94 -6.08786 -4.55284 0
M  V30 22367 N 2091.51 1.39445 -0.734362 0
M  V30 22368 C 2092.76 2.01303 -0.291333 0
M  V30 22369 C 2093.11 1.57228 1.10893 0
M  V30 22370 O 2092.41 0.790918 1.74514 0
M  V30 22371 C 2092.6 3.55865 -0.330927 0
M  V30 22372 C 2092.43 4.14946 -1.73349 0
M  V30 22373 C 2091.2 4.47561 -2.34558 0
M  V30 22374 C 2093.4 4.38527 -2.68698 0
M  V30 22375 N 2091.38 4.9214 -3.66976 0
M  V30 22376 C 2092.75 4.85304 -3.85849 0
M  V30 22377 C 2094.8 4.20594 -2.66468 0
M  V30 22378 C 2093.51 5.1603 -5.01105 0
M  V30 22379 C 2095.53 4.52432 -3.80866 0
M  V30 22380 C 2094.9 4.99415 -4.96753 0
M  V30 22381 H 2090.99 0.766917 -0.152849 0
M  V30 22382 H 2093.58 1.69376 -0.960195 0
M  V30 22383 H 2091.75 3.8718 0.307579 0
M  V30 22384 H 2093.48 4.04489 0.130591 0
M  V30 22385 H 2090.24 4.35338 -1.86488 0
M  V30 22386 H 2090.66 5.18789 -4.34957 0
M  V30 22387 H 2095.3 3.83474 -1.78067 0
M  V30 22388 H 2093.02 5.52055 -5.90136 0
M  V30 22389 H 2096.61 4.4018 -3.80438 0
M  V30 22390 H 2095.49 5.23584 -5.83806 0
M  V30 22391 N 2092.99 0.481946 1.5005 0
M  V30 22392 C 2093.92 -0.296253 2.31613 0
M  V30 22393 C 2094.9 -0.98032 1.3901 0
M  V30 22394 O 2096.09 -0.975402 1.67927 0
M  V30 22395 C 2093.22 -1.37231 3.19037 0
M  V30 22396 C 2092.17 -0.809232 4.2028 0
M  V30 22397 C 2091.5 -1.98439 4.96514 0
M  V30 22398 C 2092.8 0.18685 5.21966 0
M  V30 22399 H 2094.49 0.384509 2.96921 0
M  V30 22400 H 2092.04 0.186362 1.42789 0
M  V30 22401 H 2093.99 -1.92429 3.74899 0
M  V30 22402 H 2092.71 -2.082 2.51636 0
M  V30 22403 H 2091.37 -0.279145 3.65536 0
M  V30 22404 H 2091.02 -2.68131 4.25576 0
M  V30 22405 H 2090.72 -1.6138 5.65005 0
M  V30 22406 H 2092.24 -2.54107 5.55213 0
M  V30 22407 H 2093.66 -0.276326 5.72634 0
M  V30 22408 H 2092.05 0.472282 5.98239 0
M  V30 22409 H 2093.12 1.10915 4.72044 0
M  V30 22410 N 2094.47 -1.56127 0.214985 0
M  V30 22411 C 2095.72 -1.97304 -0.41881 0
M  V30 22412 C 2096.03 -1.10547 -1.61366 0
M  V30 22413 O 2097.24 -1.41593 -2.31654 0
M  V30 22414 C 2095.69 -3.50975 -0.796509 0
M  V30 22415 C 2095.3 -4.46426 0.375156 0
M  V30 22416 C 2097.04 -4.0088 -1.39627 0
M  V30 22417 C 2094.95 -5.91395 -0.0246118 0
M  V30 22418 H 2093.88 -0.736775 -0.160246 0
M  V30 22419 H 2096.53 -1.8086 0.310157 0
M  V30 22420 H 2094.91 -3.62996 -1.58271 0
M  V30 22421 H 2096.09 -4.46149 1.15271 0
M  V30 22422 H 2094.4 -4.06827 0.887721 0
M  V30 22423 H 2097 -5.06681 -1.70816 0
M  V30 22424 H 2097.34 -3.46346 -2.30977 0
M  V30 22425 H 2097.88 -3.92055 -0.673641 0
M  V30 22426 H 2094.61 -6.49897 0.855201 0
M  V30 22427 H 2094.13 -5.94881 -0.766611 0
M  V30 22428 H 2095.81 -6.45408 -0.453573 0
M  V30 22429 N 2095.95 0.0584645 -1.57492 0
M  V30 22430 C 2097.19 0.755071 -1.87896 0
M  V30 22431 C 2097.52 1.769 -0.808499 0
M  V30 22432 O 2096.78 1.94736 0.194028 0
M  V30 22433 C 2097.07 1.48699 -3.24998 0
M  V30 22434 C 2096.74 0.611806 -4.4673 0
M  V30 22435 C 2095.4 0.370663 -4.7977 0
M  V30 22436 C 2097.75 0.00576081 -5.212 0
M  V30 22437 C 2095.08 -0.485786 -5.84685 0
M  V30 22438 C 2097.43 -0.838219 -6.27022 0
M  V30 22439 C 2096.1 -1.08911 -6.58555 0
M  V30 22440 H 2095.37 0.2763 -0.68756 0
M  V30 22441 H 2098.02 0.0155215 -1.91494 0
M  V30 22442 H 2096.32 2.2991 -3.17252 0
M  V30 22443 H 2098.02 2.03101 -3.45761 0
M  V30 22444 H 2094.61 0.809892 -4.20878 0
M  V30 22445 H 2098.79 0.179152 -4.95977 0
M  V30 22446 H 2094.05 -0.688773 -6.07508 0
M  V30 22447 H 2098.22 -1.31449 -6.83882 0
M  V30 22448 H 2095.85 -1.7545 -7.39676 0
M  V30 22449 N 2097.42 1.54103 0.330149 0
M  V30 22450 C 2098.39 1.82317 1.389 0
M  V30 22451 C 2099.39 0.694711 1.45019 0
M  V30 22452 O 2100.58 0.963016 1.45161 0
M  V30 22453 C 2097.71 1.97727 2.77699 0
M  V30 22454 H 2098.9 2.76916 1.15141 0
M  V30 22455 H 2096.45 1.4572 0.565276 0
M  V30 22456 H 2097.19 1.05316 3.06723 0
M  V30 22457 H 2096.97 2.79837 2.74652 0
M  V30 22458 H 2098.46 2.21026 3.54313 0
M  V30 22459 N 2098.9 -0.59187 1.46064 0
M  V30 22460 C 2100.15 -1.34657 1.50168 0
M  V30 22461 C 2100.46 -1.94993 0.153981 0
M  V30 22462 O 2101.67 -2.71402 0.0727633 0
M  V30 22463 C 2100.13 -2.44 2.6456 0
M  V30 22464 C 2099.73 -1.90007 4.05711 0
M  V30 22465 C 2101.48 -3.2087 2.77926 0
M  V30 22466 C 2099.39 -2.96925 5.11458 0
M  V30 22467 H 2098.32 -0.506178 0.558838 0
M  V30 22468 H 2100.97 -0.632651 1.72249 0
M  V30 22469 H 2099.35 -3.18149 2.35791 0
M  V30 22470 H 2100.52 -1.22462 4.44229 0
M  V30 22471 H 2098.84 -1.25833 3.96932 0
M  V30 22472 H 2101.43 -4.00647 3.54099 0
M  V30 22473 H 2101.78 -3.72878 1.85115 0
M  V30 22474 H 2102.31 -2.53825 3.06296 0
M  V30 22475 H 2099.05 -2.49815 6.0603 0
M  V30 22476 H 2098.57 -3.62987 4.77494 0
M  V30 22477 H 2100.25 -3.61036 5.369 0
M  V30 22478 N 2100.38 -1.33616 -0.835729 0
M  V30 22479 C 2101.31 -1.18471 -1.95038 0
M  V30 22480 C 2102.29 -0.0794148 -1.62406 0
M  V30 22481 O 2103.48 -0.242229 -1.86937 0
M  V30 22482 C 2100.6 -0.817792 -3.28679 0
M  V30 22483 C 2099.65 -1.93103 -3.80281 0
M  V30 22484 S 2100.48 -3.5425 -4.0158 0
M  V30 22485 C 2101.64 -3.19572 -5.38167 0
M  V30 22486 H 2101.87 -2.12826 -2.07587 0
M  V30 22487 H 2099.4 -1.18495 -0.989865 0
M  V30 22488 H 2101.36 -0.612875 -4.05899 0
M  V30 22489 H 2100.02 0.107213 -3.13917 0
M  V30 22490 H 2099.22 -1.62774 -4.76991 0
M  V30 22491 H 2098.82 -2.09277 -3.09966 0
M  V30 22492 H 2101.11 -2.70592 -6.21117 0
M  V30 22493 H 2102.05 -4.15375 -5.73471 0
M  V30 22494 H 2102.46 -2.56087 -5.0307 0
M  V30 22495 N 2101.86 1.05436 -1.17136 0
M  V30 22496 C 2103.11 1.78041 -0.956331 0
M  V30 22497 C 2103.43 1.88035 0.516524 0
M  V30 22498 O 2102.7 1.39532 1.37505 0
M  V30 22499 H 2101.28 0.659483 -0.350843 0
M  V30 22500 H 2103.94 1.2732 -1.47566 0
M  V30 22501 H 2103.04 2.79808 -1.38253 0
M  V30 22502 N 2103.34 0.971211 1.24118 0
M  V30 22503 C 2104.58 0.635963 1.9257 0
M  V30 22504 C 2104.92 -0.827222 1.75701 0
M  V30 22505 O 2104.19 -1.59559 1.11226 0
M  V30 22506 C 2104.47 1.01581 3.45476 0
M  V30 22507 C 2104.33 2.53595 3.71497 0
M  V30 22508 C 2105.65 0.552941 4.36613 0
M  V30 22509 H 2102.76 0.232516 0.699361 0
M  V30 22510 H 2105.41 1.21085 1.46419 0
M  V30 22511 H 2103.56 0.526628 3.84914 0
M  V30 22512 H 2105.23 3.10016 3.41596 0
M  V30 22513 H 2103.47 2.96637 3.16526 0
M  V30 22514 H 2104.14 2.75222 4.78494 0
M  V30 22515 H 2106.62 0.972795 4.04569 0
M  V30 22516 H 2105.49 0.847244 5.42322 0
M  V30 22517 H 2105.76 -0.54692 4.38704 0
M  V30 22518 N 2104.81 -1.39054 0.741747 0
M  V30 22519 C 2105.75 -2.29103 0.0665251 0
M  V30 22520 C 2106.76 -1.47157 -0.696331 0
M  V30 22521 O 2107.95 -1.70156 -0.539378 0
M  V30 22522 C 2105.05 -3.25891 -0.929959 0
M  V30 22523 C 2104.22 -4.36809 -0.227219 0
M  V30 22524 C 2103.28 -5.13863 -1.13276 0
M  V30 22525 O 2102.31 -5.65946 -0.607718 0
M  V30 22526 N 2103.51 -5.25709 -2.46192 0
M  V30 22527 H 2106.27 -2.87692 0.839836 0
M  V30 22528 H 2103.83 -1.50707 0.591532 0
M  V30 22529 H 2105.83 -3.74315 -1.53851 0
M  V30 22530 H 2104.4 -2.68285 -1.60443 0
M  V30 22531 H 2103.62 -3.90175 0.5619 0
M  V30 22532 H 2104.9 -5.08138 0.259523 0
M  V30 22533 H 2104.3 -4.84923 -2.91318 0
M  V30 22534 H 2102.86 -5.77549 -3.02127 0
M  V30 22535 N 2106.29 -0.489897 -1.49792 0
M  V30 22536 C 2107.22 0.283966 -2.31767 0
M  V30 22537 C 2108.2 0.972934 -1.39528 0
M  V30 22538 O 2109.39 0.966482 -1.68442 0
M  V30 22539 C 2106.52 1.35538 -3.19761 0
M  V30 22540 C 2105.47 0.786932 -4.20703 0
M  V30 22541 C 2104.8 1.95803 -4.97559 0
M  V30 22542 C 2106.1 -0.214528 -5.21859 0
M  V30 22543 H 2107.79 -0.40025 -2.96713 0
M  V30 22544 H 2105.34 -0.193932 -1.42688 0
M  V30 22545 H 2107.29 1.90438 -3.75914 0
M  V30 22546 H 2106.02 2.06862 -2.52736 0
M  V30 22547 H 2104.67 0.259755 -3.65679 0
M  V30 22548 H 2104.32 2.65871 -4.26992 0
M  V30 22549 H 2104.02 1.58381 -5.65853 0
M  V30 22550 H 2105.55 2.51159 -5.56553 0
M  V30 22551 H 2106.96 0.245954 -5.72772 0
M  V30 22552 H 2105.36 -0.504002 -5.9798 0
M  V30 22553 H 2106.43 -1.13417 -4.71449 0
M  V30 22554 N 2107.77 1.56011 -0.223262 0
M  V30 22555 C 2109.02 1.98348 0.407977 0
M  V30 22556 C 2109.35 1.11094 1.59651 0
M  V30 22557 O 2108.6 0.156272 1.95075 0
M  V30 22558 C 2108.9 3.46302 0.883731 0
M  V30 22559 C 2108.57 4.5048 -0.194465 0
M  V30 22560 C 2107.23 4.78692 -0.490651 0
M  V30 22561 C 2109.58 5.12952 -0.923571 0
M  V30 22562 C 2106.91 5.66657 -1.52043 0
M  V30 22563 C 2109.26 6.02032 -1.9427 0
M  V30 22564 C 2107.92 6.28586 -2.24579 0
M  V30 22565 H 2107.19 0.725806 0.149289 0
M  V30 22566 H 2109.84 1.88702 -0.326139 0
M  V30 22567 H 2108.15 3.53159 1.69664 0
M  V30 22568 H 2109.84 3.76432 1.38202 0
M  V30 22569 H 2106.43 4.28575 0.046538 0
M  V30 22570 H 2110.62 4.91224 -0.707988 0
M  V30 22571 H 2105.87 5.85495 -1.76086 0
M  V30 22572 H 2110.05 6.49489 -2.51272 0
M  V30 22573 H 2107.67 6.96545 -3.04515 0
M  V30 22574 N 2109.25 -0.0501116 1.5752 0
M  V30 22575 C 2110.21 -1.0417 2.0416 0
M  V30 22576 C 2111.21 -1.30309 0.942133 0
M  V30 22577 O 2112.4 -1.25665 1.20639 0
M  V30 22578 C 2109.53 -2.37997 2.4407 0
M  V30 22579 H 2110.73 -0.639249 2.93008 0
M  V30 22580 H 2108.28 -0.296417 1.53464 0
M  V30 22581 H 2109.01 -2.83032 1.58314 0
M  V30 22582 H 2108.8 -2.2036 3.2432 0
M  V30 22583 H 2110.29 -3.09229 2.80654 0
M  V30 22584 N 2110.73 -1.54276 -0.321972 0
M  V30 22585 C 2111.97 -1.72216 -1.05764 0
M  V30 22586 C 2112.3 -0.499518 -1.88494 0
M  V30 22587 O 2111.57 0.486466 -1.89764 0
M  V30 22588 H 2110.15 -0.634976 -0.393465 0
M  V30 22589 H 2112.81 -1.91583 -0.358025 0
M  V30 22590 H 2111.9 -2.60245 -1.72275 0
M  V30 22591 N 2112.2 0.584116 -1.46376 0
M  V30 22592 C 2113.15 1.69328 -1.56833 0
M  V30 22593 C 2114.12 1.60891 -0.412719 0
M  V30 22594 O 2115.31 1.80124 -0.629286 0
M  V30 22595 C 2112.45 3.07663 -1.56324 0
M  V30 22596 C 2111.56 3.26736 -2.82609 0
M  V30 22597 C 2110.69 4.55312 -2.73613 0
M  V30 22598 C 2109.73 4.67723 -3.94844 0
M  V30 22599 N 2108.87 5.87624 -3.84243 0
M  V30 22600 H 2113.71 1.59727 -2.51577 0
M  V30 22601 H 2111.25 0.778493 -1.24811 0
M  V30 22602 H 2113.21 3.87731 -1.54014 0
M  V30 22603 H 2111.84 3.16165 -0.651131 0
M  V30 22604 H 2110.89 2.40283 -2.94904 0
M  V30 22605 H 2112.2 3.31775 -3.72461 0
M  V30 22606 H 2111.35 5.43606 -2.69401 0
M  V30 22607 H 2110.09 4.52709 -1.81399 0
M  V30 22608 H 2109.1 3.77847 -3.99389 0
M  V30 22609 H 2110.32 4.72106 -4.88152 0
M  V30 22610 H 2108.27 5.86021 -2.94814 0
M  V30 22611 H 2108.19 5.93925 -4.67749 0
M  V30 22612 H 2109.45 6.78352 -3.84003 0
M  V30 22613 N 2113.68 1.34058 0.828631 0
M  V30 22614 C 2114.91 1.28969 1.61402 0
M  V30 22615 C 2115.32 -0.139572 1.88684 0
M  V30 22616 O 2114.66 -1.09533 1.47473 0
M  V30 22617 C 2114.73 2.00658 2.9829 0
M  V30 22618 C 2114.39 3.49935 2.93929 0
M  V30 22619 C 2115.39 4.44949 2.68918 0
M  V30 22620 C 2113.07 3.92264 3.13742 0
M  V30 22621 C 2115.07 5.80266 2.63761 0
M  V30 22622 C 2112.75 5.27683 3.0821 0
M  V30 22623 C 2113.75 6.21496 2.83253 0
M  V30 22624 O 2113.44 7.54433 2.77643 0
M  V30 22625 H 2113.17 0.445319 0.508593 0
M  V30 22626 H 2115.73 1.77155 1.03949 0
M  V30 22627 H 2113.96 1.47077 3.57638 0
M  V30 22628 H 2115.64 1.88933 3.59248 0
M  V30 22629 H 2116.41 4.13567 2.53352 0
M  V30 22630 H 2112.29 3.19646 3.32186 0
M  V30 22631 H 2115.83 6.53461 2.442 0
M  V30 22632 H 2111.73 5.58685 3.23328 0
M  V30 22633 H 2112.5 7.64102 2.93411 0
M  V30 22634 N 2115.16 -1.04814 1.17694 0
M  V30 22635 C 2116.41 -1.77883 0.967671 0
M  V30 22636 C 2116.74 -1.87874 -0.503367 0
M  V30 22637 O 2115.99 -1.37773 -1.38986 0
M  V30 22638 C 2116.29 -3.2163 1.55849 0
M  V30 22639 C 2115.96 -3.3169 3.05439 0
M  V30 22640 C 2114.62 -3.34142 3.46269 0
M  V30 22641 C 2116.97 -3.32397 4.0145 0
M  V30 22642 C 2114.3 -3.34935 4.81701 0
M  V30 22643 C 2116.65 -3.34729 5.36786 0
M  V30 22644 C 2115.31 -3.3547 5.77076 0
M  V30 22645 H 2114.58 -0.65092 0.354096 0
M  V30 22646 H 2117.23 -1.23159 1.46643 0
M  V30 22647 H 2115.54 -3.79306 0.981546 0
M  V30 22648 H 2117.23 -3.76796 1.37208 0
M  V30 22649 H 2113.82 -3.30496 2.72892 0
M  V30 22650 H 2118.01 -3.29699 3.70961 0
M  V30 22651 H 2113.26 -3.33822 5.12224 0
M  V30 22652 H 2117.44 -3.34224 6.10956 0
M  V30 22653 H 2115.06 -3.35838 6.81995 0
M  V30 22654 N 2116.64 -0.977779 -1.23601 0
M  V30 22655 C 2117.59 -0.51555 -2.24968 0
M  V30 22656 C 2118.56 0.4442 -1.6005 0
M  V30 22657 O 2119.74 0.352328 -1.87519 0
M  V30 22658 C 2116.88 0.17842 -3.44638 0
M  V30 22659 C 2115.99 -0.821283 -4.24121 0
M  V30 22660 C 2115.13 -0.102387 -5.31101 0
M  V30 22661 C 2114.17 -1.09148 -6.0229 0
M  V30 22662 N 2113.31 -0.401914 -7.00949 0
M  V30 22663 H 2118.15 -1.38475 -2.63872 0
M  V30 22664 H 2115.68 -0.693946 -1.29703 0
M  V30 22665 H 2117.64 0.597555 -4.12898 0
M  V30 22666 H 2116.27 1.01151 -3.06543 0
M  V30 22667 H 2115.32 -1.35882 -3.55303 0
M  V30 22668 H 2116.63 -1.5751 -4.73278 0
M  V30 22669 H 2115.79 0.374242 -6.05545 0
M  V30 22670 H 2114.53 0.684048 -4.82879 0
M  V30 22671 H 2113.53 -1.57889 -5.26641 0
M  V30 22672 H 2114.76 -1.87853 -6.52601 0
M  V30 22673 H 2112.7 0.365361 -6.54982 0
M  V30 22674 H 2112.62 -1.09443 -7.48036 0
M  V30 22675 H 2113.89 0.0524137 -7.79482 0
M  V30 22676 N 2118.12 1.38658 -0.749111 0
M  V30 22677 C 2119.36 2.02064 -0.308144 0
M  V30 22678 C 2119.72 1.58175 1.08834 0
M  V30 22679 O 2120.92 2.13879 1.62817 0
M  V30 22680 C 2119.19 3.54901 -0.421933 0
M  V30 22681 S 2120.75 4.38755 -0.0628878 0
M  V30 22682 H 2117.57 0.700831 -0.119821 0
M  V30 22683 H 2120.17 1.69236 -0.978742 0
M  V30 22684 H 2118.88 3.84333 -1.43933 0
M  V30 22685 H 2118.41 3.925 0.266002 0
M  V30 22686 H 2120.42 4.82715 1.14894 0
M  V30 22687 N 2119.6 0.497834 1.49531 0
M  V30 22688 C 2120.53 -0.271671 2.31914 0
M  V30 22689 C 2121.51 -0.965521 1.40042 0
M  V30 22690 O 2122.69 -0.957536 1.68952 0
M  V30 22691 C 2119.82 -1.3384 3.20475 0
M  V30 22692 C 2118.78 -0.76461 4.21115 0
M  V30 22693 C 2118.1 -1.93162 4.98591 0
M  V30 22694 C 2119.4 0.242201 5.21738 0
M  V30 22695 H 2121.1 0.415979 2.96496 0
M  V30 22696 H 2118.64 0.201496 1.42583 0
M  V30 22697 H 2120.59 -1.88442 3.76918 0
M  V30 22698 H 2119.32 -2.05519 2.5383 0
M  V30 22699 H 2117.98 -0.240359 3.65811 0
M  V30 22700 H 2117.63 -2.63602 4.28396 0
M  V30 22701 H 2117.33 -1.55378 5.66685 0
M  V30 22702 H 2118.85 -2.48204 5.57877 0
M  V30 22703 H 2120.26 -0.215575 5.72895 0
M  V30 22704 H 2118.66 0.535707 5.97704 0
M  V30 22705 H 2119.73 1.15916 4.70841 0
M  V30 22706 N 2121.07 -1.5589 0.231532 0
M  V30 22707 C 2122.35 -1.90424 -0.446981 0
M  V30 22708 C 2122.73 -1.15023 -1.77011 0
M  V30 22709 O 2122.08 -0.262744 -2.26984 0
M  V30 22710 C 2122.29 -3.43264 -0.630152 0
M  V30 22711 C 2123.64 -4.14221 -0.933046 0
M  V30 22712 O 2124.66 -3.48918 -0.716578 0
M  V30 22713 O 2123.52 -5.29705 -1.34441 0
M  V30 22714 H 2120.61 -0.792099 -0.237715 0
M  V30 22715 H 2123.16 -1.67466 0.274458 0
M  V30 22716 H 2121.93 -3.90127 0.302739 0
M  V30 22717 H 2121.55 -3.72035 -1.40271 0
M  V30 22718 N 2122.55 0.0417572 -1.57545 0
M  V30 22719 C 2123.5 1.05387 -2.02182 0
M  V30 22720 C 2124.49 1.32769 -0.908905 0
M  V30 22721 O 2125.68 1.32567 -1.17282 0
M  V30 22722 C 2122.81 2.35884 -2.49427 0
M  V30 22723 C 2121.89 2.11646 -3.67514 0
M  V30 22724 N 2122.28 1.57426 -4.80677 0
M  V30 22725 C 2120.58 2.41988 -3.74643 0
M  V30 22726 C 2121.28 1.487 -5.62373 0
M  V30 22727 N 2120.26 1.95813 -5.07108 0
M  V30 22728 H 2124.06 0.62846 -2.87102 0
M  V30 22729 H 2121.57 0.248304 -1.60491 0
M  V30 22730 H 2123.57 3.09186 -2.7966 0
M  V30 22731 H 2122.23 2.79114 -1.65908 0
M  V30 22732 H 2123.24 1.25871 -5.02371 0
M  V30 22733 H 2119.92 2.8838 -3.01899 0
M  V30 22734 H 2121.31 1.07377 -6.63265 0
M  V30 22735 N 2124.03 1.54445 0.313786 0
M  V30 22736 C 2124.98 1.85248 1.40663 0
M  V30 22737 C 2125.97 0.725147 1.53095 0
M  V30 22738 O 2127.18 0.908956 1.55364 0
M  V30 22739 H 2123.55 0.587354 0.469595 0
M  V30 22740 H 2125.52 2.76619 1.11913 0
M  V30 22741 C 2124.27 2.10521 2.76724 0
M  V30 22742 H 2123.6 2.96733 2.67935 0
M  V30 22743 H 2125.04 2.36022 3.52235 0
M  V30 22744 C 2123.49 0.899767 3.24663 0
M  V30 22745 O 2124.02 0.113882 4.01539 0
M  V30 22746 N 2122.23 0.708685 2.81826 0
M  V30 22747 H 2121.78 1.34941 2.19428 0
M  V30 22748 H 2121.74 -0.0963363 3.14252 0
M  V30 22749 N 2125.51 -0.576345 1.46683 0
M  V30 22750 C 2126.45 -1.68494 1.57729 0
M  V30 22751 C 2127.42 -1.6067 0.421246 0
M  V30 22752 O 2128.61 -1.79788 0.638829 0
M  V30 22753 C 2125.75 -3.0683 1.57953 0
M  V30 22754 C 2124.86 -3.25233 2.84337 0
M  V30 22755 C 2124 -4.53855 2.76024 0
M  V30 22756 C 2123.04 -4.65623 3.97319 0
M  V30 22757 N 2122.17 -5.85578 3.87354 0
M  V30 22758 H 2127.01 -1.58391 2.52421 0
M  V30 22759 H 2124.55 -0.771863 1.25223 0
M  V30 22760 H 2126.51 -3.86909 1.56068 0
M  V30 22761 H 2125.14 -3.15815 0.667889 0
M  V30 22762 H 2124.19 -2.38715 2.96174 0
M  V30 22763 H 2125.5 -3.29795 3.74215 0
M  V30 22764 H 2124.66 -5.4217 2.72281 0
M  V30 22765 H 2123.4 -4.51741 1.83797 0
M  V30 22766 H 2122.4 -3.75724 4.01387 0
M  V30 22767 H 2123.63 -4.69511 4.90649 0
M  V30 22768 H 2121.57 -5.84449 2.97918 0
M  V30 22769 H 2121.49 -5.91436 4.70892 0
M  V30 22770 H 2122.76 -6.76306 3.87596 0
M  V30 22771 N 2126.99 -1.34495 -0.82151 0
M  V30 22772 C 2127.9 -1.28265 -1.96431 0
M  V30 22773 C 2128.91 -0.190092 -1.72959 0
M  V30 22774 O 2130.09 -0.416817 -1.9704 0
M  V30 22775 C 2127.15 -1.03935 -3.30754 0
M  V30 22776 C 2126.21 -2.22361 -3.67225 0
M  V30 22777 C 2125.45 -1.99182 -4.95139 0
M  V30 22778 O 2125.67 -0.950771 -5.6242 0
M  V30 22779 O 2124.6 -2.86169 -5.2952 0
M  V30 22780 H 2128.43 -2.2441 -2.04631 0
M  V30 22781 H 2126.01 -1.14716 -0.957114 0
M  V30 22782 H 2127.9 -0.921538 -4.112 0
M  V30 22783 H 2126.57 -0.108311 -3.23519 0
M  V30 22784 H 2125.48 -2.39702 -2.87217 0
M  V30 22785 H 2126.81 -3.1386 -3.79147 0
M  V30 22786 N 2128.46 1.04188 -1.18248 0
M  V30 22787 C 2129.71 1.7763 -0.978539 0
M  V30 22788 C 2130.04 1.87897 0.490757 0
M  V30 22789 O 2129.32 1.38617 1.36439 0
M  V30 22790 C 2129.6 3.20968 -1.63252 0
M  V30 22791 C 2129.45 3.18653 -3.1746 0
M  V30 22792 C 2130.77 4.19052 -1.34475 0
M  V30 22793 H 2127.89 0.644817 -0.356903 0
M  V30 22794 H 2130.53 1.21713 -1.45897 0
M  V30 22795 H 2128.68 3.68714 -1.22402 0
M  V30 22796 H 2130.36 2.78906 -3.67436 0
M  V30 22797 H 2128.6 2.56717 -3.49684 0
M  V30 22798 H 2129.27 4.19864 -3.58354 0
M  V30 22799 H 2131.75 3.79848 -1.69868 0
M  V30 22800 H 2130.62 5.17565 -1.82804 0
M  V30 22801 H 2130.88 4.41291 -0.267408 0
M  V30 22802 N 2129.94 0.98432 1.23081 0
M  V30 22803 C 2131.19 0.656352 1.91885 0
M  V30 22804 C 2131.52 -0.808541 1.76568 0
M  V30 22805 O 2130.8 -1.5837 1.12912 0
M  V30 22806 C 2131.08 1.05239 3.44379 0
M  V30 22807 C 2130.93 2.57521 3.68786 0
M  V30 22808 C 2132.25 0.599218 4.36002 0
M  V30 22809 H 2129.37 0.23992 0.696855 0
M  V30 22810 H 2132.01 1.22631 1.45127 0
M  V30 22811 H 2130.16 0.567423 3.84334 0
M  V30 22812 H 2131.83 3.13622 3.38288 0
M  V30 22813 H 2130.08 2.99978 3.13362 0
M  V30 22814 H 2130.75 2.80282 4.75548 0
M  V30 22815 H 2133.22 1.01565 4.03514 0
M  V30 22816 H 2132.1 0.904717 5.41393 0
M  V30 22817 H 2132.36 -0.500359 4.39259 0
M  V30 22818 N 2131.42 -1.38259 0.756453 0
M  V30 22819 C 2132.37 -2.3229 0.120051 0
M  V30 22820 C 2133.36 -1.54164 -0.702119 0
M  V30 22821 O 2134.57 -1.69674 -0.600895 0
M  V30 22822 H 2130.94 -0.751733 0.0200275 0
M  V30 22823 H 2132.91 -2.83566 0.929131 0
M  V30 22824 C 2131.66 -3.39368 -0.756628 0
M  V30 22825 H 2130.99 -3.99577 -0.133366 0
M  V30 22826 H 2132.43 -4.07562 -1.16916 0
M  V30 22827 C 2130.89 -2.78176 -1.90051 0
M  V30 22828 O 2131.42 -2.67711 -2.99489 0
M  V30 22829 N 2129.62 -2.35944 -1.69644 0
M  V30 22830 H 2129.17 -2.44655 -0.806323 0
M  V30 22831 H 2129.13 -1.95344 -2.46349 0
M  V30 22832 N 2132.9 -0.505757 -1.49264 0
M  V30 22833 C 2133.85 0.289479 -2.26155 0
M  V30 22834 C 2134.83 0.931357 -1.31204 0
M  V30 22835 O 2136.02 0.83817 -1.55896 0
M  V30 22836 C 2133.15 1.35048 -3.15621 0
M  V30 22837 C 2132.24 0.71461 -4.18036 0
M  V30 22838 N 2132.63 -0.185546 -5.0546 0
M  V30 22839 C 2130.93 0.974645 -4.3522 0
M  V30 22840 C 2131.63 -0.55 -5.79094 0
M  V30 22841 N 2130.61 0.0832118 -5.43536 0
M  V30 22842 H 2134.41 -0.403399 -2.91118 0
M  V30 22843 H 2131.92 -0.322149 -1.59173 0
M  V30 22844 H 2133.92 1.93369 -3.69343 0
M  V30 22845 H 2132.58 2.04499 -2.52211 0
M  V30 22846 H 2133.59 -0.556659 -5.149 0
M  V30 22847 H 2130.27 1.66154 -3.83013 0
M  V30 22848 H 2131.66 -1.2867 -6.59465 0
M  V30 22849 N 2134.38 1.55765 -0.239796 0
M  V30 22850 C 2135.29 2.2472 0.673658 0
M  V30 22851 C 2136.3 1.26091 1.19904 0
M  V30 22852 O 2137.48 1.5895 1.23681 0
M  V30 22853 C 2134.54 2.92772 1.85702 0
M  V30 22854 C 2133.6 4.06792 1.37182 0
M  V30 22855 C 2132.84 4.7159 2.49878 0
M  V30 22856 O 2133.06 4.35437 3.68443 0
M  V30 22857 O 2131.99 5.60237 2.2004 0
M  V30 22858 H 2135.82 3.03478 0.116142 0
M  V30 22859 H 2133.41 1.49398 -0.00858773 0
M  V30 22860 H 2135.29 3.3566 2.54774 0
M  V30 22861 H 2133.96 2.1696 2.40229 0
M  V30 22862 H 2132.87 3.68435 0.648582 0
M  V30 22863 H 2134.2 4.84401 0.872717 0
M  V30 22864 N 2135.85 -0.0334016 1.57565 0
M  V30 22865 C 2137.1 -0.724102 1.88254 0
M  V30 22866 C 2137.42 -1.76752 0.837737 0
M  V30 22867 O 2138.62 -2.51051 1.03372 0
M  V30 22868 C 2137.08 -1.33894 3.34067 0
M  V30 22869 C 2136.69 -0.332091 4.46767 0
M  V30 22870 C 2138.43 -2.00977 3.7391 0
M  V30 22871 C 2136.34 -0.955024 5.83638 0
M  V30 22872 H 2135.27 -0.274201 0.702375 0
M  V30 22873 H 2137.92 0.0216608 1.83487 0
M  V30 22874 H 2136.3 -2.13426 3.33565 0
M  V30 22875 H 2137.47 0.436205 4.58731 0
M  V30 22876 H 2135.79 0.236407 4.15728 0
M  V30 22877 H 2138.39 -2.48428 4.73485 0
M  V30 22878 H 2138.73 -2.82605 3.05679 0
M  V30 22879 H 2139.26 -1.28225 3.76568 0
M  V30 22880 H 2136 -0.178244 6.55258 0
M  V30 22881 H 2135.52 -1.69326 5.75403 0
M  V30 22882 H 2137.2 -1.46364 6.30227 0
M  V30 22883 N 2137.33 -1.54609 -0.305591 0
M  V30 22884 C 2138.58 -1.72882 -1.03898 0
M  V30 22885 C 2138.89 -0.519195 -1.88583 0
M  V30 22886 O 2140.1 -0.583633 -2.65153 0
M  V30 22887 C 2138.56 -3.05853 -1.89689 0
M  V30 22888 C 2138.16 -4.34278 -1.10029 0
M  V30 22889 C 2139.91 -3.33485 -2.62656 0
M  V30 22890 C 2137.82 -5.58302 -1.9507 0
M  V30 22891 H 2136.75 -0.64432 -0.391621 0
M  V30 22892 H 2139.4 -1.81093 -0.296223 0
M  V30 22893 H 2137.78 -2.91594 -2.67935 0
M  V30 22894 H 2138.95 -4.59358 -0.364293 0
M  V30 22895 H 2137.27 -4.13546 -0.486653 0
M  V30 22896 H 2139.86 -4.23345 -3.26624 0
M  V30 22897 H 2140.21 -2.52157 -3.31244 0
M  V30 22898 H 2140.74 -3.48694 -1.91462 0
M  V30 22899 H 2137.48 -6.42285 -1.3096 0
M  V30 22900 H 2137 -5.37415 -2.66355 0
M  V30 22901 H 2138.68 -5.95386 -2.53228 0
M  V30 22902 N 2138.81 0.568558 -1.46987 0
M  V30 22903 C 2140.06 1.3236 -1.52726 0
M  V30 22904 C 2140.38 1.94107 -0.186356 0
M  V30 22905 O 2139.65 1.79328 0.78857 0
M  V30 22906 H 2138.23 0.491483 -0.562542 0
M  V30 22907 H 2140.89 0.664797 -1.83212 0
M  V30 22908 H 2139.99 2.12301 -2.28768 0
M  V30 22909 N 2140.29 1.34929 0.814366 0
M  V30 22910 C 2141.57 1.18339 1.55741 0
M  V30 22911 C 2141.95 -0.240616 2.09724 0
M  V30 22912 O 2141.29 -1.2431 1.91727 0
M  V30 22913 C 2141.5 2.24503 2.67206 0
M  V30 22914 C 2142.85 2.59917 3.35751 0
M  V30 22915 O 2143.88 2.23358 2.7747 0
M  V30 22916 O 2142.73 3.22749 4.41017 0
M  V30 22917 H 2139.83 0.459265 0.687753 0
M  V30 22918 H 2142.37 1.46587 0.854999 0
M  V30 22919 H 2141.15 3.20048 2.25133 0
M  V30 22920 H 2140.77 1.9748 3.4509 0
M  V30 22921 N 2141.77 -1.0356 1.18799 0
M  V30 22922 C 2142.99 -1.81025 1.01216 0
M  V30 22923 C 2143.42 -1.8301 -0.434636 0
M  V30 22924 O 2142.77 -1.25115 -1.3121 0
M  V30 22925 C 2142.82 -3.24257 1.57766 0
M  V30 22926 O 2141.93 -4.04518 0.802435 0
M  V30 22927 H 2141.27 -0.559085 0.358218 0
M  V30 22928 H 2143.8 -1.30389 1.57671 0
M  V30 22929 H 2143.81 -3.75022 1.60694 0
M  V30 22930 H 2142.48 -3.22127 2.63073 0
M  V30 22931 H 2141.06 -3.6318 0.845866 0
M  V30 22932 N 2143.25 -0.990834 -1.22557 0
M  V30 22933 C 2144.49 -0.660998 -1.90562 0
M  V30 22934 C 2144.81 0.810271 -1.78028 0
M  V30 22935 O 2146.01 1.2516 -2.4093 0
M  V30 22936 C 2144.47 -1.13172 -3.41643 0
M  V30 22937 C 2144.08 -2.62807 -3.62817 0
M  V30 22938 C 2145.82 -0.876119 -4.15361 0
M  V30 22939 C 2143.73 -3.03493 -5.07588 0
M  V30 22940 H 2142.66 -0.243531 -0.713589 0
M  V30 22941 H 2145.31 -1.20012 -1.38814 0
M  V30 22942 H 2143.69 -0.520742 -3.92561 0
M  V30 22943 H 2144.87 -3.29233 -3.22401 0
M  V30 22944 H 2143.18 -2.86227 -3.02428 0
M  V30 22945 H 2145.78 -1.15582 -5.22058 0
M  V30 22946 H 2146.12 0.187761 -4.15876 0
M  V30 22947 H 2146.65 -1.44919 -3.70464 0
M  V30 22948 H 2143.39 -4.09048 -5.12211 0
M  V30 22949 H 2142.91 -2.41769 -5.48915 0
M  V30 22950 H 2144.59 -2.94679 -5.75998 0
M  V30 22951 N 2144.72 1.37856 -0.763775 0
M  V30 22952 C 2145.69 2.28702 -0.151022 0
M  V30 22953 C 2146.69 1.47661 0.636627 0
M  V30 22954 O 2147.88 1.67979 0.46139 0
M  V30 22955 C 2145.01 3.31525 0.793965 0
M  V30 22956 H 2146.2 2.84397 -0.951747 0
M  V30 22957 H 2143.75 1.46987 -0.531452 0
M  V30 22958 H 2144.49 2.80939 1.61999 0
M  V30 22959 H 2144.27 3.91416 0.231444 0
M  V30 22960 H 2145.76 3.99432 1.21837 0
M  V30 22961 N 2146.2 0.513665 1.48994 0
M  V30 22962 C 2147.44 -0.0245374 2.04385 0
M  V30 22963 C 2147.81 -1.33106 1.38372 0
M  V30 22964 O 2149.01 -1.95429 1.84556 0
M  V30 22965 C 2147.28 -0.160793 3.57038 0
M  V30 22966 S 2148.84 -0.651417 4.33938 0
M  V30 22967 H 2145.65 0.0042625 0.710987 0
M  V30 22968 H 2148.26 0.690517 1.82899 0
M  V30 22969 H 2146.96 0.795198 4.02622 0
M  V30 22970 H 2146.49 -0.900712 3.8295 0
M  V30 22971 H 2148.51 -1.9186 4.57607 0
M  V30 22972 N 2147.68 -1.55636 0.248053 0
M  V30 22973 C 2148.64 -2.2015 -0.637698 0
M  V30 22974 C 2149.64 -1.17112 -1.10188 0
M  V30 22975 O 2150.83 -1.42187 -1.00641 0
M  V30 22976 C 2147.96 -2.84598 -1.87661 0
M  V30 22977 H 2149.16 -2.99807 -0.0748129 0
M  V30 22978 H 2146.71 -1.563 -0.00148259 0
M  V30 22979 H 2147.45 -2.08882 -2.4807 0
M  V30 22980 H 2147.23 -3.60078 -1.55197 0
M  V30 22981 H 2148.72 -3.33968 -2.50709 0
M  V30 22982 N 2149.16 0.0250451 -1.5758 0
M  V30 22983 C 2150.12 1.00908 -2.05791 0
M  V30 22984 C 2151.12 1.28794 -0.962744 0
M  V30 22985 O 2152.31 1.2373 -1.22623 0
M  V30 22986 C 2149.44 2.34084 -2.47825 0
M  V30 22987 H 2150.64 0.592553 -2.93988 0
M  V30 22988 H 2148.19 0.271965 -1.53916 0
M  V30 22989 H 2148.92 2.80477 -1.62797 0
M  V30 22990 H 2148.71 2.15173 -3.27785 0
M  V30 22991 H 2150.2 3.04725 -2.85539 0
M  V30 22992 N 2150.64 1.54769 0.297388 0
M  V30 22993 C 2151.55 1.89032 1.38939 0
M  V30 22994 C 2152.56 0.784856 1.55293 0
M  V30 22995 O 2153.74 1.08166 1.69888 0
M  V30 22996 C 2150.8 2.13378 2.7326 0
M  V30 22997 C 2149.86 3.37071 2.6586 0
M  V30 22998 C 2149.1 3.60246 3.93775 0
M  V30 22999 O 2149.32 2.86366 4.93306 0
M  V30 23000 O 2148.25 4.53765 3.9545 0
M  V30 23001 H 2152.08 2.81941 1.12884 0
M  V30 23002 H 2149.66 1.41004 0.493771 0
M  V30 23003 H 2151.55 2.30571 3.52725 0
M  V30 23004 H 2150.22 1.23654 2.99151 0
M  V30 23005 H 2149.13 3.25238 1.84855 0
M  V30 23006 H 2150.46 4.26936 2.44921 0
M  V30 23007 N 2152.11 -0.560755 1.47286 0
M  V30 23008 C 2153.06 -1.68914 1.59908 0
M  V30 23009 C 2154.06 -1.62849 0.466545 0
M  V30 23010 O 2155.26 -1.68077 0.644218 0
M  V30 23011 H 2151.64 -0.558856 0.503174 0
M  V30 23012 H 2153.61 -1.55405 2.54739 0
M  V30 23013 C 2152.36 -3.07274 1.62721 0
M  V30 23014 H 2151.68 -3.12622 2.49214 0
M  V30 23015 H 2153.12 -3.85927 1.75603 0
M  V30 23016 C 2151.58 -3.34973 0.359852 0
M  V30 23017 O 2152.11 -3.98046 -0.540583 0
M  V30 23018 N 2150.31 -2.89599 0.24097 0
M  V30 23019 H 2149.86 -2.3845 0.974638 0
M  V30 23020 H 2149.82 -3.08503 -0.606066 0
M  V30 23021 N 2153.59 -1.35359 -0.807199 0
M  V30 23022 C 2154.82 -1.3152 -1.5933 0
M  V30 23023 C 2155.23 0.109536 -1.88883 0
M  V30 23024 O 2154.57 1.07173 -1.49196 0
M  V30 23025 C 2154.63 -2.05378 -2.9506 0
M  V30 23026 C 2154.3 -3.54567 -2.88325 0
M  V30 23027 C 2155.3 -4.49171 -2.61805 0
M  V30 23028 C 2152.98 -3.97206 -3.07462 0
M  V30 23029 C 2154.97 -5.84389 -2.54496 0
M  V30 23030 C 2152.66 -5.3252 -2.99776 0
M  V30 23031 C 2153.66 -6.25923 -2.73329 0
M  V30 23032 O 2153.35 -7.58755 -2.65605 0
M  V30 23033 H 2153.08 -0.453354 -0.501444 0
M  V30 23034 H 2155.63 -1.78786 -1.01117 0
M  V30 23035 H 2153.86 -1.52748 -3.55253 0
M  V30 23036 H 2155.55 -1.94625 -3.56197 0
M  V30 23037 H 2156.32 -4.17546 -2.4674 0
M  V30 23038 H 2152.2 -3.24891 -3.27058 0
M  V30 23039 H 2155.74 -6.57264 -2.33774 0
M  V30 23040 H 2151.64 -5.63758 -3.14399 0
M  V30 23041 H 2152.41 -7.68673 -2.81218 0
M  V30 23042 N 2155.07 1.02928 -1.19346 0
M  V30 23043 C 2156.3 1.79948 -1.02109 0
M  V30 23044 C 2156.71 1.83834 0.430184 0
M  V30 23045 O 2156.07 1.28209 1.2988 0
M  V30 23046 C 2156.12 3.25018 -1.58258 0
M  V30 23047 O 2155.84 3.21409 -2.97705 0
M  V30 23048 C 2157.34 4.18638 -1.45798 0
M  V30 23049 H 2154.56 0.566313 -0.359904 0
M  V30 23050 H 2157.11 1.29645 -1.58153 0
M  V30 23051 H 2155.26 3.72512 -1.06364 0
M  V30 23052 H 2155.68 4.12372 -3.24113 0
M  V30 23053 H 2157.15 5.1832 -1.89865 0
M  V30 23054 H 2157.63 4.37297 -0.408433 0
M  V30 23055 H 2158.23 3.77017 -1.96821 0
M  V30 23056 N 2156.55 0.997319 1.2203 0
M  V30 23057 C 2157.79 0.686333 1.91471 0
M  V30 23058 C 2158.15 -0.773649 1.7616 0
M  V30 23059 O 2157.44 -1.5527 1.12257 0
M  V30 23060 C 2157.64 1.0329 3.42149 0
M  V30 23061 C 2157.46 2.52502 3.72119 0
M  V30 23062 C 2156.23 3.18979 3.91893 0
M  V30 23063 C 2158.43 3.50637 3.76242 0
M  V30 23064 N 2156.41 4.57622 4.09213 0
M  V30 23065 C 2157.79 4.74757 3.98756 0
M  V30 23066 C 2159.84 3.44881 3.59112 0
M  V30 23067 C 2158.54 5.93822 4.05916 0
M  V30 23068 C 2160.57 4.63328 3.67534 0
M  V30 23069 C 2159.93 5.86249 3.90501 0
M  V30 23070 H 2156.03 0.302497 0.721124 0
M  V30 23071 H 2158.61 1.27823 1.46865 0
M  V30 23072 H 2156.79 0.469534 3.85551 0
M  V30 23073 H 2158.52 0.677443 3.9899 0
M  V30 23074 H 2155.27 2.69438 3.89487 0
M  V30 23075 H 2155.7 5.29548 4.21791 0
M  V30 23076 H 2160.34 2.50859 3.40338 0
M  V30 23077 H 2158.06 6.88244 4.23493 0
M  V30 23078 H 2161.64 4.60468 3.55612 0
M  V30 23079 H 2160.52 6.76371 3.96852 0
M  V30 23080 N 2158.03 -1.37449 0.771075 0
M  V30 23081 C 2158.94 -2.3407 0.157631 0
M  V30 23082 C 2159.95 -1.60145 -0.680404 0
M  V30 23083 O 2161.13 -1.9224 -0.600482 0
M  V30 23084 C 2158.19 -3.39316 -0.711733 0
M  V30 23085 C 2157.25 -4.29063 0.142682 0
M  V30 23086 C 2156.49 -5.29282 -0.685284 0
M  V30 23087 O 2156.71 -5.37029 -1.92241 0
M  V30 23088 O 2155.64 -6.01825 -0.0948431 0
M  V30 23089 H 2159.47 -2.8826 0.956036 0
M  V30 23090 H 2157.06 -1.39598 0.532224 0
M  V30 23091 H 2158.94 -4.03713 -1.20806 0
M  V30 23092 H 2157.61 -2.87455 -1.48834 0
M  V30 23093 H 2156.52 -3.67769 0.685357 0
M  V30 23094 H 2157.85 -4.84227 0.882356 0
M  V30 23095 N 2159.5 -0.52156 -1.4872 0
M  V30 23096 C 2160.45 0.259278 -2.3115 0
M  V30 23097 C 2161.45 0.943463 -1.40695 0
M  V30 23098 O 2162.65 0.868807 -1.57644 0
M  V30 23099 H 2159.03 0.10248 -0.744984 0
M  V30 23100 H 2161 -0.455653 -2.94901 0
M  V30 23101 C 2159.75 1.29841 -3.22547 0
M  V30 23102 H 2159.07 0.781352 -3.9209 0
M  V30 23103 H 2160.51 1.81634 -3.83125 0
M  V30 23104 C 2158.97 2.32757 -2.43569 0
M  V30 23105 O 2159.5 3.39036 -2.15448 0
M  V30 23106 N 2157.71 2.05753 -2.05217 0
M  V30 23107 H 2157.25 1.19343 -2.28287 0
M  V30 23108 H 2157.21 2.74836 -1.52685 0
M  V30 23109 N 2160.98 1.55502 -0.256304 0
M  V30 23110 C 2162.21 2.04025 0.372624 0
M  V30 23111 C 2162.63 1.13408 1.50067 0
M  V30 23112 O 2161.99 0.128888 1.80841 0
M  V30 23113 C 2162.04 3.50465 0.848906 0
M  V30 23114 O 2161.14 3.62969 1.95774 0
M  V30 23115 H 2160.48 0.659174 0.0799143 0
M  V30 23116 H 2163.01 2.00943 -0.385109 0
M  V30 23117 H 2163.02 3.91468 1.14965 0
M  V30 23118 H 2161.7 4.15893 0.0234786 0
M  V30 23119 H 2160.28 3.33865 1.66098 0
M  V30 23120 N 2162.46 -0.0166879 1.57591 0
M  V30 23121 C 2163.88 -0.372531 1.55191 0
M  V30 23122 C 2164.08 -1.75838 0.984042 0
M  V30 23123 O 2163.13 -2.45008 0.610513 0
M  V30 23124 C 2164.45 -0.263043 2.99547 0
M  V30 23125 C 2165.99 -0.339216 3.11156 0
M  V30 23126 C 2166.47 -0.259039 4.57267 0
M  V30 23127 N 2167.96 -0.317455 4.62111 0
M  V30 23128 C 2168.69 -0.278499 5.72723 0
M  V30 23129 N 2168.19 -0.191112 6.92536 0
M  V30 23130 N 2169.98 -0.32914 5.61136 0
M  V30 23131 H 2162.13 0.890086 1.9285 0
M  V30 23132 H 2164.4 0.339637 0.885071 0
M  V30 23133 H 2164.1 0.689794 3.44869 0
M  V30 23134 H 2163.98 -1.0518 3.62239 0
M  V30 23135 H 2166.36 -1.28249 2.65775 0
M  V30 23136 H 2166.45 0.479109 2.51273 0
M  V30 23137 H 2166.09 0.68062 5.03319 0
M  V30 23138 H 2166.02 -1.09563 5.15076 0
M  V30 23139 H 2168.51 -0.387004 3.75913 0
M  V30 23140 H 2168.82 -0.166827 7.7262 0
M  V30 23141 H 2167.17 -0.15698 6.94823 0
M  V30 23142 H 2170.36 -0.395489 4.66426 0
M  V30 23143 H 2170.53 -0.295314 6.47327 0
M  V30 23144 N 2163.94 -1.54924 -0.289176 0
M  V30 23145 C 2164.87 -1.81593 -1.382 0
M  V30 23146 C 2165.85 -0.667861 -1.48251 0
M  V30 23147 O 2167.03 -0.909111 -1.65128 0
M  V30 23148 C 2164.16 -1.96318 -2.76002 0
M  V30 23149 C 2163.21 -3.18801 -2.83316 0
M  V30 23150 S 2164.04 -4.76575 -2.44206 0
M  V30 23151 C 2165.2 -4.94252 -3.84013 0
M  V30 23152 H 2165.43 -2.74001 -1.15372 0
M  V30 23153 H 2162.96 -1.46487 -0.487936 0
M  V30 23154 H 2164.92 -2.05486 -3.55367 0
M  V30 23155 H 2163.58 -1.04826 -2.96092 0
M  V30 23156 H 2162.77 -3.25942 -3.84419 0
M  V30 23157 H 2162.38 -3.0814 -2.11957 0
M  V30 23158 H 2164.67 -4.79 -4.79129 0
M  V30 23159 H 2165.61 -5.96329 -3.81835 0
M  V30 23160 H 2166.02 -4.22328 -3.74565 0
M  V30 23161 N 2165.42 0.552936 -1.47582 0
M  V30 23162 C 2166.36 1.68064 -1.60802 0
M  V30 23163 C 2167.36 1.62599 -0.475175 0
M  V30 23164 O 2168.56 1.67733 -0.653122 0
M  V30 23165 H 2164.94 0.556179 -0.506131 0
M  V30 23166 H 2166.91 1.54051 -2.5556 0
M  V30 23167 C 2165.66 3.06407 -1.64348 0
M  V30 23168 H 2164.98 3.11295 -2.50869 0
M  V30 23169 H 2166.42 3.8499 -1.77647 0
M  V30 23170 C 2164.88 3.34777 -0.377611 0
M  V30 23171 O 2165.41 3.98327 0.519466 0
M  V30 23172 N 2163.62 2.89467 -0.256324 0
M  V30 23173 H 2163.16 2.3793 -0.98727 0
M  V30 23174 H 2163.12 3.0882 0.589696 0
M  V30 23175 N 2166.89 1.35785 0.800009 0
M  V30 23176 C 2168.14 1.29425 1.55741 0
M  V30 23177 C 2168.47 -0.129487 1.94068 0
M  V30 23178 O 2167.72 -1.09631 1.6211 0
M  V30 23179 C 2168.02 2.15261 2.85302 0
M  V30 23180 C 2167.69 3.63962 2.66162 0
M  V30 23181 C 2166.35 4.04493 2.60651 0
M  V30 23182 C 2168.7 4.58288 2.48238 0
M  V30 23183 C 2166.03 5.37507 2.35166 0
M  V30 23184 C 2168.38 5.91507 2.24281 0
M  V30 23185 C 2167.05 6.31175 2.17195 0
M  V30 23186 H 2166.32 0.473601 0.569898 0
M  V30 23187 H 2168.96 1.67742 0.923842 0
M  V30 23188 H 2167.27 1.69846 3.53071 0
M  V30 23189 H 2168.97 2.07672 3.43036 0
M  V30 23190 H 2165.56 3.31802 2.71303 0
M  V30 23191 H 2169.74 4.27854 2.51504 0
M  V30 23192 H 2165 5.67235 2.28154 0
M  V30 23193 H 2169.17 6.64171 2.09403 0
M  V30 23194 H 2166.8 7.34175 1.9721 0
M  V30 23195 N 2168.37 -1.02294 1.19891 0
M  V30 23196 C 2169.65 -1.72912 0.914382 0
M  V30 23197 C 2170.03 -2.0302 -0.57845 0
M  V30 23198 O 2169.38 -1.68961 -1.53833 0
M  V30 23199 C 2169.59 -3.00157 1.78064 0
M  V30 23200 C 2170.94 -3.73547 2.0186 0
M  V30 23201 O 2171.96 -3.10098 1.75265 0
M  V30 23202 O 2170.82 -4.87629 2.46738 0
M  V30 23203 H 2167.91 -0.753281 0.341315 0
M  V30 23204 H 2170.46 -1.08199 1.30733 0
M  V30 23205 H 2169.23 -2.7418 2.79179 0
M  V30 23206 H 2168.85 -3.7261 1.38736 0
M  V30 23207 N 2169.85 -1.00378 -1.21499 0
M  V30 23208 C 2170.8 -0.534183 -2.21654 0
M  V30 23209 C 2171.78 0.403544 -1.55757 0
M  V30 23210 O 2172.98 0.228594 -1.75518 0
M  V30 23211 C 2170.11 0.139036 -3.43018 0
M  V30 23212 C 2169.19 -0.819638 -4.16104 0
M  V30 23213 N 2169.58 -1.97196 -4.65776 0
M  V30 23214 C 2167.88 -0.637767 -4.41417 0
M  V30 23215 C 2168.58 -2.57457 -5.21623 0
M  V30 23216 N 2167.56 -1.85627 -5.10924 0
M  V30 23217 H 2171.36 -1.41287 -2.57711 0
M  V30 23218 H 2168.87 -0.867442 -1.37292 0
M  V30 23219 H 2170.87 0.492917 -4.13976 0
M  V30 23220 H 2169.53 1.01372 -3.0847 0
M  V30 23221 H 2170.54 -2.35237 -4.61393 0
M  V30 23222 H 2167.22 0.189943 -4.17068 0
M  V30 23223 H 2168.61 -3.54903 -5.7052 0
M  V30 23224 N 2171.33 1.37038 -0.778354 0
M  V30 23225 C 2172.57 1.99823 -0.34619 0
M  V30 23226 C 2172.91 1.61643 1.07634 0
M  V30 23227 O 2172.18 0.865817 1.74166 0
M  V30 23228 C 2172.47 3.56649 -0.497307 0
M  V30 23229 C 2172.32 4.04718 -1.96273 0
M  V30 23230 C 2173.64 4.39999 0.0944148 0
M  V30 23231 H 2170.76 0.725929 -0.127262 0
M  V30 23232 H 2173.4 1.62617 -0.98263 0
M  V30 23233 H 2171.55 3.88475 0.0445004 0
M  V30 23234 H 2173.22 3.8343 -2.56475 0
M  V30 23235 H 2171.46 3.56667 -2.46924 0
M  V30 23236 H 2172.13 5.13732 -2.01949 0
M  V30 23237 H 2174.61 4.1447 -0.367956 0
M  V30 23238 H 2173.49 5.48884 -0.0414159 0
M  V30 23239 H 2173.75 4.25911 1.18542 0
M  V30 23240 N 2172.81 0.529439 1.48441 0
M  V30 23241 C 2174.06 -0.00484705 2.02099 0
M  V30 23242 C 2174.38 -1.34819 1.40886 0
M  V30 23243 O 2173.65 -1.873 0.574052 0
M  V30 23244 H 2172.23 -0.00477953 0.746985 0
M  V30 23245 H 2174.89 0.693148 1.82158 0
M  V30 23246 H 2173.98 -0.113574 3.11893 0
M  V30 23247 N 2174.29 -1.55364 0.264547 0
M  V30 23248 C 2175.23 -2.22106 -0.62749 0
M  V30 23249 C 2176.2 -1.1909 -1.15788 0
M  V30 23250 O 2177.39 -1.47597 -1.20912 0
M  V30 23251 C 2174.53 -2.93783 -1.81068 0
M  V30 23252 C 2173.64 -4.11495 -1.31515 0
M  V30 23253 C 2172.78 -4.70842 -2.45929 0
M  V30 23254 C 2171.81 -5.80768 -1.93326 0
M  V30 23255 N 2170.95 -6.34223 -3.01173 0
M  V30 23256 H 2175.79 -2.97955 -0.0516766 0
M  V30 23257 H 2173.33 -1.47094 -0.0137419 0
M  V30 23258 H 2175.29 -3.33549 -2.50601 0
M  V30 23259 H 2173.92 -2.20376 -2.35869 0
M  V30 23260 H 2172.97 -3.76921 -0.513271 0
M  V30 23261 H 2174.28 -4.908 -0.88977 0
M  V30 23262 H 2173.43 -5.13274 -3.23474 0
M  V30 23263 H 2172.17 -3.90791 -2.91777 0
M  V30 23264 H 2171.18 -5.37797 -1.14257 0
M  V30 23265 H 2172.4 -6.62681 -1.48426 0
M  V30 23266 H 2170.35 -5.5707 -3.46423 0
M  V30 23267 H 2170.27 -7.08771 -2.63021 0
M  V30 23268 H 2171.53 -6.81313 -3.78725 0
M  V30 23269 N 2175.76 0.00833021 -1.57598 0
M  V30 23270 C 2176.73 0.9872 -2.0685 0
M  V30 23271 C 2177.73 1.27766 -0.976351 0
M  V30 23272 O 2178.92 1.22423 -1.23929 0
M  V30 23273 C 2176.05 2.31443 -2.50294 0
M  V30 23274 H 2177.24 0.561338 -2.946 0
M  V30 23275 H 2174.79 0.255625 -1.54195 0
M  V30 23276 H 2175.53 2.78735 -1.65763 0
M  V30 23277 H 2175.31 2.11684 -3.30049 0
M  V30 23278 H 2176.8 3.0168 -2.88754 0
M  V30 23279 N 2177.24 1.55075 0.280956 0
M  V30 23280 C 2178.47 1.79062 1.03055 0
M  V30 23281 C 2178.88 0.560149 1.80718 0
M  V30 23282 O 2178.22 -0.480122 1.77315 0
M  V30 23283 C 2178.28 2.95847 2.04242 0
M  V30 23284 C 2177.95 4.33189 1.4559 0
M  V30 23285 C 2178.95 5.12473 0.87563 0
M  V30 23286 C 2176.63 4.79831 1.4855 0
M  V30 23287 C 2178.62 6.36531 0.332759 0
M  V30 23288 C 2176.31 6.03846 0.938764 0
M  V30 23289 C 2177.31 6.82033 0.363385 0
M  V30 23290 O 2177 8.03709 -0.175 0
M  V30 23291 H 2176.73 0.600471 0.3105 0
M  V30 23292 H 2179.28 2.02898 0.319591 0
M  V30 23293 H 2177.51 2.67683 2.79075 0
M  V30 23294 H 2179.2 3.07228 2.65265 0
M  V30 23295 H 2179.97 4.77573 0.84552 0
M  V30 23296 H 2175.85 4.18989 1.92274 0
M  V30 23297 H 2179.39 6.97502 -0.116986 0
M  V30 23298 H 2175.29 6.3823 0.966087 0
M  V30 23299 H 2176.06 8.18475 -0.063602 0
M  V30 23300 N 2178.72 -0.545102 1.47873 0
M  V30 23301 C 2179.65 -1.6606 1.64153 0
M  V30 23302 C 2180.63 -1.62869 0.490679 0
M  V30 23303 O 2181.82 -1.80302 0.721451 0
M  V30 23304 C 2178.95 -3.04681 1.66694 0
M  V30 23305 C 2177.9 -3.22724 2.81128 0
M  V30 23306 C 2177.23 -4.62253 2.68749 0
M  V30 23307 C 2178.53 -3.06939 4.22594 0
M  V30 23308 H 2180.22 -1.52691 2.57538 0
M  V30 23309 H 2177.77 -0.733146 1.23939 0
M  V30 23310 H 2179.72 -3.82576 1.76674 0
M  V30 23311 H 2178.44 -3.19037 0.698781 0
M  V30 23312 H 2177.1 -2.47241 2.7068 0
M  V30 23313 H 2176.75 -4.73425 1.69935 0
M  V30 23314 H 2176.45 -4.75273 3.45527 0
M  V30 23315 H 2177.97 -5.42268 2.80674 0
M  V30 23316 H 2179.39 -3.7464 4.33956 0
M  V30 23317 H 2177.78 -3.31461 5.00253 0
M  V30 23318 H 2178.85 -2.03538 4.40114 0
M  V30 23319 N 2180.2 -1.36208 -0.792797 0
M  V30 23320 C 2181.44 -1.31628 -1.56376 0
M  V30 23321 C 2181.8 0.104244 -1.91717 0
M  V30 23322 O 2183 0.274558 -2.67394 0
M  V30 23323 C 2181.27 -2.21009 -2.80873 0
M  V30 23324 S 2182.83 -2.3408 -3.7115 0
M  V30 23325 H 2179.65 -0.467581 -0.53562 0
M  V30 23326 H 2182.25 -1.71744 -0.934044 0
M  V30 23327 H 2180.96 -3.23174 -2.52956 0
M  V30 23328 H 2180.49 -1.81901 -3.4882 0
M  V30 23329 H 2182.5 -1.5358 -4.71834 0
M  V30 23330 N 2181.68 1.01656 -1.20431 0
M  V30 23331 C 2182.61 2.12074 -0.977076 0
M  V30 23332 C 2183.59 1.6984 0.0939563 0
M  V30 23333 O 2184.77 1.94096 -0.0635618 0
M  V30 23334 C 2181.9 3.43257 -0.528392 0
M  V30 23335 C 2180.86 3.99231 -1.54267 0
M  V30 23336 C 2180.18 5.26182 -0.950621 0
M  V30 23337 C 2181.48 4.32619 -2.92639 0
M  V30 23338 H 2183.18 2.31342 -1.90056 0
M  V30 23339 H 2180.72 1.11175 -0.915209 0
M  V30 23340 H 2182.67 4.19888 -0.35665 0
M  V30 23341 H 2181.4 3.23747 0.430716 0
M  V30 23342 H 2180.06 3.24708 -1.70177 0
M  V30 23343 H 2179.71 5.02997 0.0164182 0
M  V30 23344 H 2179.41 5.64597 -1.62802 0
M  V30 23345 H 2180.93 6.05469 -0.789947 0
M  V30 23346 H 2182.34 5.00138 -2.8024 0
M  V30 23347 H 2180.74 4.82148 -3.57286 0
M  V30 23348 H 2181.81 3.41386 -3.4436 0
M  V30 23349 N 2183.15 1.01021 1.20965 0
M  V30 23350 C 2184.4 0.695875 1.90168 0
M  V30 23351 C 2184.73 -0.773882 1.78441 0
M  V30 23352 O 2183.98 -1.57716 1.15862 0
M  V30 23353 C 2184.28 1.06913 3.41034 0
M  V30 23354 C 2183.95 2.53402 3.72959 0
M  V30 23355 C 2182.61 2.9343 3.81382 0
M  V30 23356 C 2184.96 3.48268 3.87761 0
M  V30 23357 C 2182.29 4.27275 4.02061 0
M  V30 23358 C 2184.64 4.81794 4.09948 0
M  V30 23359 C 2183.31 5.21537 4.166 0
M  V30 23360 H 2182.58 0.254639 0.695874 0
M  V30 23361 H 2185.22 1.26961 1.43364 0
M  V30 23362 H 2183.53 0.413721 3.8961 0
M  V30 23363 H 2185.23 0.803706 3.92863 0
M  V30 23364 H 2181.82 2.21384 3.66997 0
M  V30 23365 H 2186 3.18506 3.80615 0
M  V30 23366 H 2181.26 4.57631 4.05443 0
M  V30 23367 H 2185.43 5.55233 4.20344 0
M  V30 23368 H 2183.06 6.25264 4.32375 0
M  V30 23369 N 2184.63 -1.36623 0.78561 0
M  V30 23370 C 2185.56 -2.28776 0.139379 0
M  V30 23371 C 2186.58 -1.49297 -0.649162 0
M  V30 23372 O 2187.77 -1.71786 -0.484971 0
M  V30 23373 C 2184.87 -3.28685 -0.825808 0
M  V30 23374 C 2184.04 -4.37311 -0.0881363 0
M  V30 23375 C 2183.1 -5.17206 -0.96871 0
M  V30 23376 O 2182.12 -5.67593 -0.427359 0
M  V30 23377 N 2183.33 -5.33275 -2.29342 0
M  V30 23378 H 2186.09 -2.84875 0.930938 0
M  V30 23379 H 2183.65 -1.48748 0.639179 0
M  V30 23380 H 2185.64 -3.7902 -1.41865 0
M  V30 23381 H 2184.21 -2.73254 -1.51826 0
M  V30 23382 H 2183.43 -3.8819 0.685747 0
M  V30 23383 H 2184.72 -5.07055 0.421052 0
M  V30 23384 H 2184.12 -4.93946 -2.75743 0
M  V30 23385 H 2182.68 -5.86868 -2.83599 0
M  V30 23386 N 2186.11 -0.537304 -1.48158 0
M  V30 23387 C 2187.36 -0.00589118 -2.02799 0
M  V30 23388 C 2187.69 1.33238 -1.41285 0
M  V30 23389 O 2186.96 1.86228 -0.56121 0
M  V30 23390 C 2187.25 0.108356 -3.59937 0
M  V30 23391 C 2187.1 -1.2556 -4.3192 0
M  V30 23392 C 2188.42 0.831579 -4.32172 0
M  V30 23393 H 2185.54 -0.00361491 -0.736991 0
M  V30 23394 H 2188.18 -0.69575 -1.76803 0
M  V30 23395 H 2186.33 0.695893 -3.82217 0
M  V30 23396 H 2188 -1.88481 -4.21038 0
M  V30 23397 H 2186.24 -1.83557 -3.93051 0
M  V30 23398 H 2186.92 -1.12858 -5.4034 0
M  V30 23399 H 2189.39 0.332919 -4.14766 0
M  V30 23400 H 2188.27 0.880431 -5.41793 0
M  V30 23401 H 2188.53 1.88346 -3.99973 0
M  V30 23402 N 2187.59 1.55221 -0.272782 0
M  V30 23403 C 2188.55 2.21137 0.602593 0
M  V30 23404 C 2189.55 1.1885 1.08311 0
M  V30 23405 O 2190.74 1.4377 0.983663 0
M  V30 23406 C 2187.87 2.87548 1.8311 0
M  V30 23407 H 2189.07 2.99888 0.0271068 0
M  V30 23408 H 2186.62 1.56283 -0.0233836 0
M  V30 23409 H 2187.35 2.12802 2.44716 0
M  V30 23410 H 2187.14 3.62502 1.49449 0
M  V30 23411 H 2188.63 3.37914 2.45365 0
M  V30 23412 N 2189.07 2.77022e-05 1.576 0
M  V30 23413 C 2190.29 -0.695799 1.94849 0
M  V30 23414 C 2190.71 -1.67306 0.874875 0
M  V30 23415 O 2190.07 -1.81914 -0.146183 0
M  V30 23416 C 2190.12 -1.42764 3.32115 0
M  V30 23417 O 2189.84 -0.48957 4.35356 0
M  V30 23418 C 2191.34 -2.21797 3.83824 0
M  V30 23419 H 2188.56 -0.193791 0.642407 0
M  V30 23420 H 2191.1 0.0511556 2.04436 0
M  V30 23421 H 2189.26 -2.12623 3.23837 0
M  V30 23422 H 2189.67 -1.00592 5.14764 0
M  V30 23423 H 2191.15 -2.68501 4.82298 0
M  V30 23424 H 2191.62 -3.04473 3.16532 0
M  V30 23425 H 2192.23 -1.56955 3.95279 0
M  V30 23426 N 2190.54 -1.55222 -0.272728 0
M  V30 23427 C 2191.79 -1.75841 -1.00429 0
M  V30 23428 C 2192.12 -0.559662 -1.86274 0
M  V30 23429 O 2191.37 0.457824 -1.90269 0
M  V30 23430 C 2191.67 -3.01679 -1.91637 0
M  V30 23431 C 2191.34 -4.34211 -1.2154 0
M  V30 23432 C 2190 -4.70231 -1.02158 0
M  V30 23433 C 2192.35 -5.1625 -0.716594 0
M  V30 23434 C 2189.68 -5.85847 -0.316231 0
M  V30 23435 C 2192.03 -6.32595 -0.0248364 0
M  V30 23436 C 2190.7 -6.67255 0.180696 0
M  V30 23437 H 2189.97 -0.643449 -0.367497 0
M  V30 23438 H 2192.61 -1.89492 -0.276563 0
M  V30 23439 H 2190.92 -2.82929 -2.71032 0
M  V30 23440 H 2192.62 -3.14828 -2.48363 0
M  V30 23441 H 2189.21 -4.05899 -1.37638 0
M  V30 23442 H 2193.39 -4.88898 -0.853961 0
M  V30 23443 H 2188.65 -6.11225 -0.14627 0
M  V30 23444 H 2192.82 -6.95419 0.369433 0
M  V30 23445 H 2190.45 -7.56694 0.729231 0
M  V30 23446 N 2192.02 0.537252 -1.4816 0
M  V30 23447 C 2192.97 1.64253 -1.62141 0
M  V30 23448 C 2193.94 1.59496 -0.463696 0
M  V30 23449 O 2195.12 1.78031 -0.686272 0
M  V30 23450 C 2192.26 3.02534 -1.66033 0
M  V30 23451 C 2191.38 3.17579 -2.9286 0
M  V30 23452 C 2190.51 4.46377 -2.8796 0
M  V30 23453 C 2189.55 4.54925 -4.09524 0
M  V30 23454 N 2188.69 5.75102 -4.02743 0
M  V30 23455 H 2193.53 1.51643 -2.56532 0
M  V30 23456 H 2191.07 0.738391 -1.27225 0
M  V30 23457 H 2193.02 3.82635 -1.66272 0
M  V30 23458 H 2191.65 3.13933 -0.751387 0
M  V30 23459 H 2190.71 2.30779 -3.02399 0
M  V30 23460 H 2192.02 3.19757 -3.82827 0
M  V30 23461 H 2191.17 5.3476 -2.8656 0
M  V30 23462 H 2189.91 4.46709 -1.9571 0
M  V30 23463 H 2188.92 3.6495 -4.11208 0
M  V30 23464 H 2190.14 4.56337 -5.02925 0
M  V30 23465 H 2188.09 5.76345 -3.13309 0
M  V30 23466 H 2188 5.78743 -4.86408 0
M  V30 23467 H 2189.27 6.65792 -4.0539 0
M  V30 23468 N 2193.5 1.36626 0.785562 0
M  V30 23469 C 2194.75 1.30811 1.54055 0
M  V30 23470 C 2195.07 -0.111123 1.94683 0
M  V30 23471 O 2194.34 -1.05221 1.65243 0
M  V30 23472 H 2192.92 0.481221 0.571345 0
M  V30 23473 H 2195.58 1.70965 0.935791 0
M  V30 23474 H 2194.68 1.93806 2.44634 0
M  V30 23475 N 2194.98 -1.01016 1.20969 0
M  V30 23476 C 2196.22 -1.75078 1.03534 0
M  V30 23477 C 2196.58 -1.87595 -0.427307 0
M  V30 23478 O 2195.87 -1.39542 -1.31296 0
M  V30 23479 C 2196.07 -3.16509 1.66003 0
M  V30 23480 C 2195.9 -3.17782 3.1819 0
M  V30 23481 C 2194.67 -3.24656 3.87204 0
M  V30 23482 C 2196.86 -3.03312 4.15339 0
M  V30 23483 N 2194.85 -3.155 5.26624 0
M  V30 23484 C 2196.22 -3.01997 5.41477 0
M  V30 23485 C 2198.27 -2.87575 4.06454 0
M  V30 23486 C 2196.97 -2.86559 6.59755 0
M  V30 23487 C 2199 -2.73493 5.24362 0
M  V30 23488 C 2198.36 -2.7285 6.49409 0
M  V30 23489 H 2194.46 -0.651081 0.433149 0
M  V30 23490 H 2197.05 -1.20104 1.53242 0
M  V30 23491 H 2195.22 -3.69763 1.18869 0
M  V30 23492 H 2196.95 -3.79036 1.41822 0
M  V30 23493 H 2193.7 -3.31642 3.38099 0
M  V30 23494 H 2194.13 -3.14279 5.99631 0
M  V30 23495 H 2198.77 -2.86882 3.10578 0
M  V30 23496 H 2196.49 -2.86001 7.55797 0
M  V30 23497 H 2200.07 -2.62325 5.19304 0
M  V30 23498 H 2198.95 -2.6208 7.3911 0
M  V30 23499 N 2196.46 -1.01661 -1.20428 0
M  V30 23500 C 2197.71 -0.70127 -1.89117 0
M  V30 23501 C 2198.02 0.772326 -1.79707 0
M  V30 23502 O 2199.22 1.20022 -2.4353 0
M  V30 23503 C 2197.68 -1.20394 -3.39166 0
M  V30 23504 C 2197.29 -2.70444 -3.57161 0
M  V30 23505 C 2199.03 -0.964026 -4.13409 0
M  V30 23506 C 2196.94 -3.14191 -5.01037 0
M  V30 23507 H 2195.87 -0.258613 -0.708262 0
M  V30 23508 H 2198.52 -1.2293 -1.36237 0
M  V30 23509 H 2196.9 -0.603893 -3.91368 0
M  V30 23510 H 2198.08 -3.35998 -3.15345 0
M  V30 23511 H 2196.39 -2.92578 -2.96289 0
M  V30 23512 H 2198.99 -1.2663 -5.19489 0
M  V30 23513 H 2199.33 0.0995048 -4.16181 0
M  V30 23514 H 2199.86 -1.52745 -3.67306 0
M  V30 23515 H 2196.6 -4.19821 -5.03419 0
M  V30 23516 H 2196.12 -2.53358 -5.43663 0
M  V30 23517 H 2197.8 -3.0683 -5.69618 0
M  V30 23518 N 2197.93 1.36205 -0.792844 0
M  V30 23519 C 2198.84 2.33789 -0.19485 0
M  V30 23520 C 2199.86 1.61207 0.65484 0
M  V30 23521 O 2201.04 1.93171 0.569822 0
M  V30 23522 C 2198.1 3.40405 0.657661 0
M  V30 23523 C 2197.16 4.28782 -0.210924 0
M  V30 23524 C 2196.4 5.30305 0.600993 0
M  V30 23525 O 2196.62 5.40019 1.83673 0
M  V30 23526 O 2195.55 6.019 -0.000914076 0
M  V30 23527 H 2199.38 2.86702 -1.00178 0
M  V30 23528 H 2196.96 1.38734 -0.554366 0
M  V30 23529 H 2198.85 4.05583 1.14368 0
M  V30 23530 H 2197.52 2.89786 1.44242 0
M  V30 23531 H 2196.43 3.66632 -0.743779 0
M  V30 23532 H 2197.76 4.82761 -0.95928 0
M  V30 23533 N 2199.41 0.545154 1.47871 0
M  V30 23534 C 2200.66 0.0145388 2.01695 0
M  V30 23535 C 2200.97 -1.3387 1.42612 0
M  V30 23536 O 2202.18 -1.95854 1.88025 0
M  V30 23537 C 2200.64 -0.0244435 3.59892 0
M  V30 23538 C 2200.24 1.32482 4.27963 0
M  V30 23539 C 2201.99 -0.503086 4.21508 0
M  V30 23540 C 2199.9 1.2456 5.78134 0
M  V30 23541 H 2198.83 0.00166498 0.753998 0
M  V30 23542 H 2201.48 0.691205 1.69984 0
M  V30 23543 H 2199.86 -0.766507 3.88511 0
M  V30 23544 H 2201.03 2.08365 4.11 0
M  V30 23545 H 2199.35 1.74042 3.78283 0
M  V30 23546 H 2201.94 -0.580563 5.31539 0
M  V30 23547 H 2202.29 -1.51236 3.87858 0
M  V30 23548 H 2202.82 0.183751 3.97375 0
M  V30 23549 H 2199.56 2.2305 6.16384 0
M  V30 23550 H 2199.08 0.528387 5.97468 0
M  V30 23551 H 2200.76 0.9426 6.40097 0
M  V30 23552 N 2200.89 -1.55074 0.28101 0
M  V30 23553 C 2201.82 -2.18883 -0.645401 0
M  V30 23554 C 2202.8 -1.15167 -1.14784 0
M  V30 23555 O 2203.99 -1.43718 -1.21973 0
M  V30 23556 C 2201.11 -2.81678 -1.88083 0
M  V30 23557 C 2200.16 -3.98748 -1.51336 0
M  V30 23558 S 2200.99 -5.32279 -0.586455 0
M  V30 23559 C 2202.15 -5.98546 -1.83013 0
M  V30 23560 H 2202.38 -2.97121 -0.103248 0
M  V30 23561 H 2199.91 -1.54262 0.065237 0
M  V30 23562 H 2201.87 -3.18486 -2.58992 0
M  V30 23563 H 2200.53 -2.03323 -2.39413 0
M  V30 23564 H 2199.73 -4.41396 -2.43281 0
M  V30 23565 H 2199.33 -3.63393 -0.884413 0
M  V30 23566 H 2201.62 -6.18137 -2.77331 0
M  V30 23567 H 2202.56 -6.93167 -1.44656 0
M  V30 23568 H 2202.97 -5.27968 -1.99775 0
M  V30 23569 N 2202.37 -0.00838561 -1.57598 0
M  V30 23570 C 2203.32 0.998471 -2.10079 0
M  V30 23571 C 2204.31 1.35049 -1.02264 0
M  V30 23572 O 2205.52 1.33515 -1.20721 0
M  V30 23573 H 2201.89 0.339685 -0.670909 0
M  V30 23574 H 2203.86 0.530346 -2.93649 0
M  V30 23575 C 2202.61 2.27874 -2.62619 0
M  V30 23576 H 2201.94 2.01656 -3.45217 0
M  V30 23577 H 2203.38 2.96582 -3.0301 0
M  V30 23578 C 2201.83 2.9943 -1.54412 0
M  V30 23579 O 2202.36 3.90741 -0.931881 0
M  V30 23580 N 2200.57 2.61402 -1.26955 0
M  V30 23581 H 2200.12 1.87229 -1.76927 0
M  V30 23582 H 2200.08 3.09592 -0.547759 0
M  V30 23583 N 2203.85 1.55365 0.264492 0
M  V30 23584 C 2205.12 1.67098 1.01674 0
M  V30 23585 C 2205.5 0.543051 2.03996 0
M  V30 23586 O 2204.85 -0.45581 2.23908 0
M  V30 23587 C 2205.06 3.06673 1.66591 0
M  V30 23588 C 2206.41 3.64701 2.17436 0
M  V30 23589 O 2207.43 3.09361 1.76563 0
M  V30 23590 O 2206.29 4.61678 2.92431 0
M  V30 23591 H 2203.39 0.678973 0.472149 0
M  V30 23592 H 2205.93 1.67701 0.259674 0
M  V30 23593 H 2204.71 3.80212 0.924895 0
M  V30 23594 H 2204.33 3.10005 2.48963 0
M  V30 23595 N 2205.33 -0.529387 1.48443 0
M  V30 23596 C 2206.29 -1.61609 1.62527 0
M  V30 23597 C 2207.29 -1.52877 0.498536 0
M  V30 23598 O 2208.48 -1.56536 0.764338 0
M  V30 23599 C 2205.61 -3.01231 1.59603 0
M  V30 23600 H 2206.8 -1.50461 2.59425 0
M  V30 23601 H 2204.36 -0.75149 1.37049 0
M  V30 23602 H 2205.09 -3.17885 0.641837 0
M  V30 23603 H 2204.88 -3.08978 2.41402 0
M  V30 23604 H 2206.37 -3.80238 1.72653 0
M  V30 23605 N 2206.8 -1.37041 -0.778305 0
M  V30 23606 C 2208.05 -1.31213 -1.53187 0
M  V30 23607 C 2208.37 0.103061 -1.95328 0
M  V30 23608 O 2209.57 0.283779 -2.70013 0
M  V30 23609 C 2208.03 -2.30277 -2.76587 0
M  V30 23610 C 2207.64 -3.7729 -2.4157 0
M  V30 23611 C 2209.38 -2.33447 -3.54546 0
M  V30 23612 C 2207.29 -4.68103 -3.61433 0
M  V30 23613 H 2206.22 -0.487633 -0.575092 0
M  V30 23614 H 2208.87 -1.62465 -0.853073 0
M  V30 23615 H 2207.25 -1.92033 -3.46322 0
M  V30 23616 H 2208.42 -4.24333 -1.7966 0
M  V30 23617 H 2206.74 -3.77002 -1.768 0
M  V30 23618 H 2209.34 -2.98501 -4.43623 0
M  V30 23619 H 2209.68 -1.34618 -3.93934 0
M  V30 23620 H 2210.21 -2.70365 -2.91801 0
M  V30 23621 H 2206.95 -5.68036 -3.27132 0
M  V30 23622 H 2206.47 -4.25768 -4.2247 0
M  V30 23623 H 2208.15 -4.84918 -4.28327 0
M  V30 23624 N 2208.28 1.00373 -1.21503 0
M  V30 23625 C 2209.56 1.71435 -0.941775 0
M  V30 23626 C 2209.94 2.03915 0.546078 0
M  V30 23627 O 2209.29 1.71387 1.51125 0
M  V30 23628 C 2209.5 2.97286 -1.82817 0
M  V30 23629 C 2210.84 3.70289 -2.07777 0
M  V30 23630 O 2211.87 3.0727 -1.80176 0
M  V30 23631 O 2210.73 4.83642 -2.54465 0
M  V30 23632 H 2207.82 0.747756 -0.353256 0
M  V30 23633 H 2210.37 1.06105 -1.32438 0
M  V30 23634 H 2209.14 2.69704 -2.83506 0
M  V30 23635 H 2208.76 3.70356 -1.44646 0
M  V30 23636 N 2209.76 1.02298 1.19887 0
M  V30 23637 C 2210.98 0.735271 1.93929 0
M  V30 23638 C 2211.41 -0.698751 1.7464 0
M  V30 23639 O 2210.77 -1.48165 1.04483 0
M  V30 23640 C 2210.82 1.08423 3.43914 0
M  V30 23641 O 2209.92 0.199519 4.11917 0
M  V30 23642 H 2209.26 0.272207 0.60564 0
M  V30 23643 H 2211.79 1.36807 1.52135 0
M  V30 23644 H 2211.8 1.03863 3.94559 0
M  V30 23645 H 2210.48 2.12901 3.57276 0
M  V30 23646 H 2209.05 0.303201 3.71665 0
M  V30 23647 N 2211.24 -1.35782 0.800057 0
M  V30 23648 C 2212.65 -1.52116 0.483004 0
M  V30 23649 C 2212.85 -1.75111 -0.996917 0
M  V30 23650 O 2211.91 -1.78875 -1.78213 0
M  V30 23651 C 2213.22 -2.70047 1.32269 0
M  V30 23652 C 2214.77 -2.83922 1.31747 0
M  V30 23653 C 2215.25 -4.0487 2.14113 0
M  V30 23654 N 2216.74 -4.12036 2.11615 0
M  V30 23655 C 2217.47 -5.04722 2.72108 0
M  V30 23656 N 2216.97 -6.02783 3.41503 0
M  V30 23657 N 2218.76 -4.97419 2.61785 0
M  V30 23658 H 2210.91 -1.19112 1.75858 0
M  V30 23659 H 2213.17 -0.582239 0.748132 0
M  V30 23660 H 2212.88 -2.59611 2.37265 0
M  V30 23661 H 2212.75 -3.64478 0.971367 0
M  V30 23662 H 2215.14 -2.93812 0.275385 0
M  V30 23663 H 2215.22 -1.90367 1.70862 0
M  V30 23664 H 2214.87 -3.95741 3.18358 0
M  V30 23665 H 2214.8 -4.97593 1.72361 0
M  V30 23666 H 2217.29 -3.41832 1.61118 0
M  V30 23667 H 2217.6 -6.70091 3.84964 0
M  V30 23668 H 2215.95 -6.02977 3.45606 0
M  V30 23669 H 2219.14 -4.19763 2.07164 0
M  V30 23670 H 2219.31 -5.69462 3.0922 0
M  V30 23671 N 2212.72 -0.552988 -1.4758 0
M  V30 23672 C 2213.63 0.200312 -2.33743 0
M  V30 23673 C 2214.64 0.916125 -1.4793 0
M  V30 23674 O 2215.82 0.885961 -1.80867 0
M  V30 23675 C 2212.88 1.21968 -3.24538 0
M  V30 23676 C 2211.94 0.511745 -4.26239 0
M  V30 23677 C 2211.18 1.48254 -5.12695 0
M  V30 23678 O 2211.4 2.71705 -5.0153 0
M  V30 23679 O 2210.33 1.00934 -5.93377 0
M  V30 23680 H 2214.16 -0.506356 -2.99449 0
M  V30 23681 H 2211.74 -0.313647 -1.46071 0
M  V30 23682 H 2213.63 1.8082 -3.80634 0
M  V30 23683 H 2212.3 1.90834 -2.61465 0
M  V30 23684 H 2211.21 -0.117865 -3.73914 0
M  V30 23685 H 2212.54 -0.135394 -4.92014 0
M  V30 23686 N 2214.19 1.54923 -0.28923 0
M  V30 23687 C 2215.44 2.00196 0.323963 0
M  V30 23688 C 2215.77 1.17738 1.54439 0
M  V30 23689 O 2215.05 0.250912 1.92875 0
M  V30 23690 C 2215.33 3.53384 0.692214 0
M  V30 23691 C 2215.18 4.46589 -0.536535 0
M  V30 23692 C 2216.5 4.12898 1.52327 0
M  V30 23693 H 2213.62 0.72777 0.116277 0
M  V30 23694 H 2216.26 1.85764 -0.398987 0
M  V30 23695 H 2214.41 3.65813 1.30816 0
M  V30 23696 H 2216.09 4.46083 -1.17507 0
M  V30 23697 H 2214.33 4.17668 -1.17199 0
M  V30 23698 H 2215 5.515 -0.234903 0
M  V30 23699 H 2217.48 4.03832 1.00295 0
M  V30 23700 H 2216.35 5.20265 1.74973 0
M  V30 23701 H 2216.61 3.64022 2.50879 0
M  V30 23702 N 2215.67 0.0167433 1.57591 0
M  V30 23703 C 2216.92 -0.663251 1.90907 0
M  V30 23704 C 2217.24 -1.73375 0.892539 0
M  V30 23705 O 2216.51 -1.95783 -0.0677279 0
M  V30 23706 H 2215.09 -0.247971 0.704641 0
M  V30 23707 H 2217.75 0.0616251 1.94803 0
M  V30 23708 H 2216.85 -1.12387 2.91162 0
M  V30 23709 N 2217.15 -1.55503 -0.256249 0
M  V30 23710 C 2218.11 -1.88736 -1.30043 0
M  V30 23711 C 2219.11 -0.76311 -1.41539 0
M  V30 23712 O 2220.3 -1.03118 -1.40401 0
M  V30 23713 C 2217.44 -2.10751 -2.67949 0
M  V30 23714 H 2218.63 -2.82094 -1.01798 0
M  V30 23715 H 2216.18 -1.48251 -0.495108 0
M  V30 23716 H 2216.92 -1.19831 -3.01349 0
M  V30 23717 H 2216.7 -2.92622 -2.60988 0
M  V30 23718 H 2218.19 -2.37679 -3.43364 0
M  V30 23719 N 2218.63 0.521507 -1.48721 0
M  V30 23720 C 2219.56 1.6414 -1.5997 0
M  V30 23721 C 2220.57 1.55455 -0.483491 0
M  V30 23722 O 2221.76 1.61761 -0.754698 0
M  V30 23723 C 2218.86 3.02835 -1.52132 0
M  V30 23724 C 2218.04 3.36916 -2.78938 0
M  V30 23725 C 2217.09 4.54929 -2.64436 0
M  V30 23726 O 2216.12 4.57729 -3.38339 0
M  V30 23727 N 2217.32 5.53615 -1.74615 0
M  V30 23728 H 2220.09 1.54925 -2.56551 0
M  V30 23729 H 2217.65 0.708963 -1.45552 0
M  V30 23730 H 2219.64 3.79671 -1.40113 0
M  V30 23731 H 2218.21 3.06084 -0.634922 0
M  V30 23732 H 2217.43 2.49175 -3.0546 0
M  V30 23733 H 2218.72 3.56474 -3.63047 0
M  V30 23734 H 2218.12 5.54137 -1.13791 0
M  V30 23735 H 2216.67 6.29635 -1.68531 0
M  V30 23736 N 2220.11 1.37452 0.771027 0
M  V30 23737 C 2221.52 1.29241 1.34735 0
M  V30 23738 C 2221.87 -0.0596564 1.96109 0
M  V30 23739 O 2220.99 -0.9615 1.93866 0
M  V30 23740 C 2221.59 2.34042 2.44969 0
M  V30 23741 C 2220.15 2.29463 2.98368 0
M  V30 23742 C 2219.29 2.17834 1.71592 0
M  V30 23743 H 2222.25 1.48063 0.57123 0
M  V30 23744 H 2222.27 1.98749 3.24467 0
M  V30 23745 H 2221.78 3.32436 2.0027 0
M  V30 23746 H 2219.88 1.34595 3.4744 0
M  V30 23747 H 2219.99 3.22906 3.53933 0
M  V30 23748 H 2218.36 1.64392 1.94544 0
M  V30 23749 H 2219.14 3.18143 1.28995 0
M  V30 23750 N 2221.58 -0.997276 1.22033 0
M  V30 23751 C 2222.83 -1.73037 1.0364 0
M  V30 23752 C 2223.15 -1.90828 -0.429442 0
M  V30 23753 O 2224.35 -2.61419 -0.732949 0
M  V30 23754 C 2222.81 -3.11314 1.80588 0
M  V30 23755 C 2222.42 -3.01469 3.31392 0
M  V30 23756 C 2224.16 -3.88698 1.70628 0
M  V30 23757 C 2222.07 -4.34873 4.00798 0
M  V30 23758 H 2221 -0.648779 0.38419 0
M  V30 23759 H 2223.65 -1.11366 1.45842 0
M  V30 23760 H 2222.03 -3.73641 1.31182 0
M  V30 23761 H 2223.2 -2.48333 3.88159 0
M  V30 23762 H 2221.52 -2.37569 3.4198 0
M  V30 23763 H 2224.12 -4.87431 2.19808 0
M  V30 23764 H 2224.46 -4.1094 0.665895 0
M  V30 23765 H 2224.99 -3.3304 2.17553 0
M  V30 23766 H 2221.73 -4.17832 5.05071 0
M  V30 23767 H 2221.25 -4.87939 3.4882 0
M  V30 23768 H 2222.93 -5.0364 4.06147 0
M  V30 23769 N 2223.06 -1.02932 -1.19343 0
M  V30 23770 C 2224.48 -0.746471 -1.41067 0
M  V30 23771 C 2224.68 0.668742 -1.90079 0
M  V30 23772 O 2223.73 1.43467 -2.07783 0
M  V30 23773 C 2225.05 -1.78296 -2.42138 0
M  V30 23774 C 2226.6 -1.80256 -2.55884 0
M  V30 23775 C 2227.07 -2.82866 -3.60209 0
M  V30 23776 N 2228.56 -2.81686 -3.67706 0
M  V30 23777 C 2229.3 -3.57735 -4.48122 0
M  V30 23778 N 2228.79 -4.435 -5.3224 0
M  V30 23779 N 2230.59 -3.46275 -4.42776 0
M  V30 23780 H 2222.74 -1.94277 -0.858502 0
M  V30 23781 H 2225 -0.839953 -0.439527 0
M  V30 23782 H 2224.71 -2.7975 -2.1315 0
M  V30 23783 H 2224.58 -1.60563 -3.4132 0
M  V30 23784 H 2226.97 -0.794807 -2.84195 0
M  V30 23785 H 2227.05 -2.02065 -1.56854 0
M  V30 23786 H 2226.69 -3.83813 -3.32641 0
M  V30 23787 H 2226.62 -2.58315 -4.58891 0
M  V30 23788 H 2229.11 -2.19482 -3.0763 0
M  V30 23789 H 2229.43 -4.98266 -5.9072 0
M  V30 23790 H 2227.77 -4.47573 -5.31699 0
M  V30 23791 H 2230.96 -2.78684 -3.76102 0
M  V30 23792 H 2231.13 -4.05794 -5.05208 0
M  V30 23793 N 2224.54 1.35356 -0.807246 0
M  V30 23794 C 2225.45 2.3357 -0.219635 0
M  V30 23795 C 2226.47 1.61893 0.637705 0
M  V30 23796 O 2227.64 1.93764 0.549302 0
M  V30 23797 C 2224.71 3.41084 0.62152 0
M  V30 23798 C 2223.77 4.28534 -0.25639 0
M  V30 23799 C 2223 5.30913 0.544713 0
M  V30 23800 O 2223.22 5.41937 1.77935 0
M  V30 23801 O 2222.16 6.01865 -0.0647536 0
M  V30 23802 H 2225.98 2.85624 -1.03213 0
M  V30 23803 H 2223.57 1.38138 -0.569049 0
M  V30 23804 H 2225.45 4.06774 1.1006 0
M  V30 23805 H 2224.13 2.913 1.4116 0
M  V30 23806 H 2223.03 3.65822 -0.782623 0
M  V30 23807 H 2224.37 4.81717 -1.01043 0
M  V30 23808 N 2226.02 0.560807 1.47284 0
M  V30 23809 C 2227.25 0.0430626 2.06855 0
M  V30 23810 C 2227.66 -1.25226 1.41293 0
M  V30 23811 O 2227.02 -1.75209 0.510679 0
M  V30 23812 C 2227.07 -0.152455 3.61178 0
M  V30 23813 O 2226.79 1.09158 4.24283 0
M  V30 23814 C 2228.29 -0.707068 4.37625 0
M  V30 23815 H 2225.51 0.047477 0.669318 0
M  V30 23816 H 2228.06 0.775243 1.89236 0
M  V30 23817 H 2226.21 -0.834777 3.78299 0
M  V30 23818 H 2226.62 0.891573 5.16867 0
M  V30 23819 H 2228.1 -0.793148 5.46272 0
M  V30 23820 H 2228.58 -1.71916 4.04155 0
M  V30 23821 H 2229.18 -0.0603279 4.25257 0
M  V30 23822 N 2227.5 -1.54768 0.297442 0
M  V30 23823 C 2228.44 -2.24834 -0.596011 0
M  V30 23824 C 2229.44 -1.2531 -1.1399 0
M  V30 23825 O 2230.64 -1.43172 -1.09095 0
M  V30 23826 H 2227.02 -0.721849 -0.210802 0
M  V30 23827 H 2228.99 -2.98395 0.0175191 0
M  V30 23828 C 2227.74 -2.99975 -1.75813 0
M  V30 23829 H 2227.06 -3.7636 -1.34883 0
M  V30 23830 H 2228.5 -3.52288 -2.35943 0
M  V30 23831 C 2226.96 -2.06737 -2.6601 0
M  V30 23832 O 2227.49 -1.63308 -3.67006 0
M  V30 23833 N 2225.7 -1.72767 -2.33666 0
M  V30 23834 H 2225.24 -2.0828 -1.51582 0
M  V30 23835 H 2225.2 -1.10657 -2.94283 0
M  V30 23836 N 2228.97 -0.0251005 -1.5758 0
M  V30 23837 C 2230.22 0.653733 -1.90812 0
M  V30 23838 C 2230.54 1.73521 -0.902761 0
M  V30 23839 O 2231.74 2.47041 -1.12618 0
M  V30 23840 C 2230.2 1.21403 -3.38806 0
M  V30 23841 C 2229.81 0.166047 -4.47692 0
M  V30 23842 C 2231.55 1.86961 -3.81111 0
M  V30 23843 C 2229.46 0.737752 -5.8678 0
M  V30 23844 H 2228.39 0.247944 -0.712067 0
M  V30 23845 H 2231.04 -0.0897459 -1.8328 0
M  V30 23846 H 2229.42 2.00899 -3.41256 0
M  V30 23847 H 2230.59 -0.606159 -4.56796 0
M  V30 23848 H 2228.91 -0.390539 -4.14565 0
M  V30 23849 H 2231.51 2.30683 -4.82379 0
M  V30 23850 H 2231.85 2.71066 -3.15958 0
M  V30 23851 H 2232.38 1.14161 -3.81067 0
M  V30 23852 H 2229.12 -0.0650729 -6.55468 0
M  V30 23853 H 2228.64 1.47854 -5.81291 0
M  V30 23854 H 2230.32 1.22873 -6.35225 0
M  V30 23855 N 2230.45 1.55637 0.247999 0
M  V30 23856 C 2231.68 1.81208 0.992335 0
M  V30 23857 C 2232.09 0.598356 1.79489 0
M  V30 23858 O 2231.43 -0.442403 1.78293 0
M  V30 23859 C 2231.5 3.00113 1.97921 0
M  V30 23860 C 2231.16 4.36179 1.36369 0
M  V30 23861 C 2232.16 5.14215 0.76673 0
M  V30 23862 C 2229.84 4.82874 1.38339 0
M  V30 23863 C 2231.84 6.37093 0.197666 0
M  V30 23864 C 2229.52 6.05702 0.810468 0
M  V30 23865 C 2230.52 6.8265 0.218634 0
M  V30 23866 O 2230.21 8.03157 -0.34544 0
M  V30 23867 H 2229.94 0.606922 0.297693 0
M  V30 23868 H 2232.49 2.03531 0.276482 0
M  V30 23869 H 2230.72 2.73543 2.73334 0
M  V30 23870 H 2232.41 3.12786 2.58688 0
M  V30 23871 H 2233.18 4.79259 0.744029 0
M  V30 23872 H 2229.06 4.22973 1.83343 0
M  V30 23873 H 2232.6 6.97097 -0.264911 0
M  V30 23874 H 2228.5 6.40135 0.830492 0
M  V30 23875 H 2229.27 8.18156 -0.237198 0
M  V30 23876 N 2231.93 -0.513613 1.48996 0
M  V30 23877 C 2232.86 -1.63376 1.59322 0
M  V30 23878 C 2233.84 -1.56453 0.442844 0
M  V30 23879 O 2235.03 -1.76692 0.656686 0
M  V30 23880 C 2232.15 -3.01846 1.53645 0
M  V30 23881 C 2231.2 -3.27073 2.73725 0
M  V30 23882 S 2232.03 -3.11563 4.35533 0
M  V30 23883 C 2233.19 -4.5245 4.32481 0
M  V30 23884 H 2233.42 -1.5437 2.54081 0
M  V30 23885 H 2230.95 -0.697824 1.37731 0
M  V30 23886 H 2232.91 -3.81697 1.51056 0
M  V30 23887 H 2231.57 -3.08278 0.601952 0
M  V30 23888 H 2230.77 -4.28128 2.65938 0
M  V30 23889 H 2230.37 -2.54922 2.73662 0
M  V30 23890 H 2232.66 -5.44294 4.03423 0
M  V30 23891 H 2233.6 -4.6529 5.33771 0
M  V30 23892 H 2234.01 -4.32539 3.62726 0
M  V30 23893 N 2233.41 -1.37859 -0.763727 0
M  V30 23894 C 2234.64 -1.36523 -1.55065 0
M  V30 23895 C 2235.05 0.0493894 -1.89136 0
M  V30 23896 O 2234.39 1.02372 -1.52531 0
M  V30 23897 C 2234.45 -2.14661 -2.88376 0
M  V30 23898 C 2234.12 -3.6356 -2.76899 0
M  V30 23899 C 2235.11 -4.57272 -2.47382 0
M  V30 23900 C 2232.8 -4.06787 -2.94669 0
M  V30 23901 C 2234.79 -5.9219 -2.35776 0
M  V30 23902 C 2232.48 -5.41787 -2.82683 0
M  V30 23903 C 2233.48 -6.34302 -2.53278 0
M  V30 23904 O 2233.17 -7.66821 -2.41332 0
M  V30 23905 H 2232.9 -0.469077 -0.486768 0
M  V30 23906 H 2235.45 -1.81913 -0.953781 0
M  V30 23907 H 2233.68 -1.63973 -3.50214 0
M  V30 23908 H 2235.37 -2.05858 -3.49824 0
M  V30 23909 H 2236.14 -4.25184 -2.33331 0
M  V30 23910 H 2232.02 -3.35131 -3.16557 0
M  V30 23911 H 2235.56 -6.64368 -2.12745 0
M  V30 23912 H 2231.46 -5.73475 -2.96304 0
M  V30 23913 H 2232.22 -7.77231 -2.56621 0
M  V30 23914 N 2234.89 0.990791 -1.22561 0
M  V30 23915 C 2235.82 2.09954 -1.02184 0
M  V30 23916 C 2236.8 1.70001 0.0579095 0
M  V30 23917 O 2237.98 1.93917 -0.104718 0
M  V30 23918 C 2235.11 3.42059 -0.601083 0
M  V30 23919 C 2234.07 3.95869 -1.627 0
M  V30 23920 C 2233.39 5.24047 -1.06202 0
M  V30 23921 C 2234.69 4.26315 -3.0175 0
M  V30 23922 H 2236.39 2.27259 -1.9492 0
M  V30 23923 H 2233.93 1.09209 -0.938585 0
M  V30 23924 H 2235.89 4.19037 -0.445634 0
M  V30 23925 H 2234.61 3.24588 0.361948 0
M  V30 23926 H 2233.27 3.21025 -1.77027 0
M  V30 23927 H 2232.92 5.02919 -0.0902787 0
M  V30 23928 H 2232.62 5.61016 -1.74741 0
M  V30 23929 H 2234.14 6.03657 -0.918198 0
M  V30 23930 H 2235.56 4.94081 -2.90786 0
M  V30 23931 H 2233.95 4.74461 -3.67433 0
M  V30 23932 H 2235.02 3.34004 -3.51524 0
M  V30 23933 N 2236.37 1.03564 1.18795 0
M  V30 23934 C 2237.6 0.754807 1.92318 0
M  V30 23935 C 2238 -0.691217 1.76122 0
M  V30 23936 O 2237.35 -1.48239 1.08493 0
M  V30 23937 C 2237.41 1.0349 3.44282 0
M  V30 23938 C 2237.07 2.47383 3.84253 0
M  V30 23939 C 2238.07 3.45544 3.88453 0
M  V30 23940 C 2235.75 2.81962 4.15696 0
M  V30 23941 C 2237.75 4.76336 4.23536 0
M  V30 23942 C 2235.44 4.12961 4.50451 0
M  V30 23943 C 2236.43 5.09959 4.54347 0
M  V30 23944 O 2236.12 6.38611 4.88294 0
M  V30 23945 H 2235.85 0.275032 0.617522 0
M  V30 23946 H 2238.41 1.385 1.51681 0
M  V30 23947 H 2236.64 0.347581 3.85135 0
M  V30 23948 H 2238.33 0.74267 3.99048 0
M  V30 23949 H 2239.09 3.20168 3.64304 0
M  V30 23950 H 2234.97 2.07137 4.11844 0
M  V30 23951 H 2238.52 5.52042 4.26492 0
M  V30 23952 H 2234.41 4.38108 4.74059 0
M  V30 23953 H 2235.18 6.43186 5.06216 0
M  V30 23954 N 2237.84 -1.34926 0.814413 0
M  V30 23955 C 2239.09 -1.98541 0.398458 0
M  V30 23956 C 2239.42 -1.64591 -1.03635 0
M  V30 23957 O 2238.67 -0.905191 -1.73507 0
M  V30 23958 C 2238.97 -3.5333 0.537843 0
M  V30 23959 C 2238.64 -4.07169 1.93711 0
M  V30 23960 C 2237.3 -4.21584 2.31991 0
M  V30 23961 C 2239.65 -4.36232 2.85221 0
M  V30 23962 C 2236.98 -4.62385 3.61133 0
M  V30 23963 C 2239.33 -4.78475 4.13817 0
M  V30 23964 C 2238 -4.91096 4.52086 0
M  V30 23965 H 2237.27 -0.726513 0.145806 0
M  V30 23966 H 2239.91 -1.61011 1.03672 0
M  V30 23967 H 2238.22 -3.91368 -0.183837 0
M  V30 23968 H 2239.92 -4.00517 0.196658 0
M  V30 23969 H 2236.51 -3.96406 1.62973 0
M  V30 23970 H 2240.69 -4.24641 2.56893 0
M  V30 23971 H 2235.95 -4.70346 3.90621 0
M  V30 23972 H 2240.12 -4.99923 4.84819 0
M  V30 23973 H 2237.75 -5.22468 5.52205 0
M  V30 23974 N 2239.32 -0.56861 -1.46985 0
M  V30 23975 C 2240.57 -0.0489066 -2.02741 0
M  V30 23976 C 2240.9 1.30211 -1.44079 0
M  V30 23977 O 2240.18 1.84995 -0.600585 0
M  V30 23978 C 2240.46 0.0319837 -3.60086 0
M  V30 23979 C 2240.31 -1.34693 -4.29159 0
M  V30 23980 C 2241.63 0.739722 -4.33839 0
M  V30 23981 H 2238.75 -0.0192468 -0.736749 0
M  V30 23982 H 2241.39 -0.733096 -1.75287 0
M  V30 23983 H 2239.54 0.614663 -3.83607 0
M  V30 23984 H 2241.21 -1.97369 -4.16945 0
M  V30 23985 H 2239.46 -1.91853 -3.89069 0
M  V30 23986 H 2240.13 -1.24294 -5.37824 0
M  V30 23987 H 2242.6 0.244866 -4.15379 0
M  V30 23988 H 2241.48 0.765311 -5.43539 0
M  V30 23989 H 2241.74 1.79819 -4.03878 0
M  V30 23990 N 2240.8 1.54608 -0.305646 0
M  V30 23991 C 2242.05 2.00231 0.302263 0
M  V30 23992 C 2242.37 1.194 1.53538 0
M  V30 23993 O 2241.63 0.259457 1.93972 0
M  V30 23994 C 2241.93 3.50499 0.698922 0
M  V30 23995 C 2241.59 4.48816 -0.432982 0
M  V30 23996 C 2240.26 4.75418 -0.743706 0
M  V30 23997 C 2242.61 5.07335 -1.19418 0
M  V30 23998 C 2239.94 5.57801 -1.81867 0
M  V30 23999 C 2242.29 5.90887 -2.25909 0
M  V30 24000 C 2240.95 6.15798 -2.57583 0
M  V30 24001 H 2240.22 0.732699 0.110606 0
M  V30 24002 H 2242.87 1.86708 -0.425707 0
M  V30 24003 H 2241.17 3.61656 1.50705 0
M  V30 24004 H 2242.87 3.83229 1.18054 0
M  V30 24005 H 2239.46 4.28219 -0.180706 0
M  V30 24006 H 2243.65 4.86781 -0.96738 0
M  V30 24007 H 2238.9 5.75337 -2.06874 0
M  V30 24008 H 2243.08 6.35256 -2.85346 0
M  V30 24009 H 2240.7 6.79424 -3.41009 0
M  V30 24010 N 2242.28 0.033457 1.57564 0
M  V30 24011 C 2243.52 -0.644238 1.91979 0
M  V30 24012 C 2243.85 -1.71885 0.910261 0
M  V30 24013 O 2243.11 -1.95536 -0.0801618 0
M  V30 24014 C 2243.41 -1.29498 3.33114 0
M  V30 24015 C 2243.07 -0.350309 4.49537 0
M  V30 24016 C 2241.73 -0.0903128 4.81115 0
M  V30 24017 C 2244.09 0.298123 5.20347 0
M  V30 24018 C 2241.41 0.825848 5.80859 0
M  V30 24019 C 2243.77 1.20237 6.21068 0
M  V30 24020 C 2242.43 1.47121 6.51085 0
M  V30 24021 H 2241.7 -0.235743 0.7025 0
M  V30 24022 H 2244.35 0.0961512 1.91258 0
M  V30 24023 H 2242.65 -2.11022 3.30117 0
M  V30 24024 H 2244.35 -1.82597 3.57015 0
M  V30 24025 H 2240.94 -0.563131 4.24884 0
M  V30 24026 H 2245.12 0.110322 4.96177 0
M  V30 24027 H 2240.38 1.0418 6.02459 0
M  V30 24028 H 2244.55 1.71098 6.75054 0
M  V30 24029 H 2242.18 2.18277 7.28189 0
M  V30 24030 N 2243.76 -1.55766 -0.239741 0
M  V30 24031 C 2245 -1.77133 -0.964722 0
M  V30 24032 C 2245.32 -0.598712 -1.86212 0
M  V30 24033 O 2246.52 -0.695568 -2.62439 0
M  V30 24034 C 2244.98 -3.13623 -1.76547 0
M  V30 24035 C 2244.59 -4.38554 -0.915108 0
M  V30 24036 C 2246.33 -3.44325 -2.48275 0
M  V30 24037 C 2244.24 -5.66074 -1.71215 0
M  V30 24038 H 2243.17 -0.66035 -0.363941 0
M  V30 24039 H 2245.82 -1.82187 -0.219149 0
M  V30 24040 H 2244.2 -3.02696 -2.55326 0
M  V30 24041 H 2245.38 -4.60489 -0.169136 0
M  V30 24042 H 2243.69 -4.15238 -0.310816 0
M  V30 24043 H 2246.29 -4.36817 -3.08374 0
M  V30 24044 H 2246.63 -2.65979 -3.20251 0
M  V30 24045 H 2247.16 -3.565 -1.765 0
M  V30 24046 H 2243.9 -6.47261 -1.036 0
M  V30 24047 H 2243.42 -5.48229 -2.43322 0
M  V30 24048 H 2245.1 -6.05591 -2.27748 0
M  V30 24049 N 2245.23 0.505704 -1.49266 0
M  V30 24050 C 2246.48 1.25672 -1.57764 0
M  V30 24051 C 2246.8 1.93764 -0.267405 0
M  V30 24052 O 2248 2.70517 -0.230875 0
M  V30 24053 C 2246.46 2.2816 -2.78336 0
M  V30 24054 C 2246.07 1.6603 -4.16099 0
M  V30 24055 C 2247.81 3.0412 -2.96161 0
M  V30 24056 C 2245.72 2.66601 -5.279 0
M  V30 24057 H 2244.65 0.472735 -0.587399 0
M  V30 24058 H 2247.3 0.531149 -1.75645 0
M  V30 24059 H 2245.68 3.0386 -2.53939 0
M  V30 24060 H 2246.85 0.963543 -4.50613 0
M  V30 24061 H 2245.17 1.02477 -4.03593 0
M  V30 24062 H 2247.77 3.7932 -3.76856 0
M  V30 24063 H 2248.11 3.61451 -2.0654 0
M  V30 24064 H 2248.64 2.35536 -3.20574 0
M  V30 24065 H 2245.38 2.14057 -6.19564 0
M  V30 24066 H 2244.9 3.34531 -4.97845 0
M  V30 24067 H 2246.58 3.29119 -5.57036 0
M  V30 24068 N 2246.71 1.38262 0.756405 0
M  V30 24069 C 2247.96 1.34315 1.51545 0
M  V30 24070 C 2248.29 -0.0676802 1.94382 0
M  V30 24071 O 2247.54 -1.04418 1.65516 0
M  V30 24072 C 2247.84 2.24229 2.78309 0
M  V30 24073 C 2247.51 3.72246 2.54449 0
M  V30 24074 C 2246.17 4.12581 2.4765 0
M  V30 24075 C 2248.52 4.65953 2.33532 0
M  V30 24076 C 2245.85 5.44717 2.17946 0
M  V30 24077 C 2248.2 5.98343 2.05349 0
M  V30 24078 C 2246.87 6.37766 1.97005 0
M  V30 24079 H 2246.14 0.491492 0.554542 0
M  V30 24080 H 2248.78 1.70596 0.870009 0
M  V30 24081 H 2247.09 1.80993 3.47489 0
M  V30 24082 H 2248.78 2.1848 3.36255 0
M  V30 24083 H 2245.37 3.40265 2.6061 0
M  V30 24084 H 2249.56 4.35639 2.37765 0
M  V30 24085 H 2244.81 5.74207 2.09992 0
M  V30 24086 H 2248.99 6.70497 1.88167 0
M  V30 24087 H 2246.62 7.40077 1.73753 0
M  V30 24088 N 2248.19 -0.984277 1.23084 0
M  V30 24089 C 2249.44 -1.72163 1.05851 0
M  V30 24090 C 2249.76 -1.90726 -0.406016 0
M  V30 24091 O 2249.03 -1.47311 -1.29136 0
M  V30 24092 H 2247.61 -0.637906 0.388696 0
M  V30 24093 H 2250.27 -1.185 1.54738 0
M  V30 24094 H 2249.37 -2.71271 1.54331 0
M  V30 24095 N 2249.67 -1.04192 -1.18244 0
M  V30 24096 C 2250.89 -0.76603 -1.92735 0
M  V30 24097 C 2251.32 0.670879 -1.75729 0
M  V30 24098 O 2250.68 1.46484 -1.06827 0
M  V30 24099 C 2250.72 -1.13881 -3.42146 0
M  V30 24100 O 2249.83 -0.265026 -4.11548 0
M  V30 24101 H 2249.17 -0.281807 -0.601233 0
M  V30 24102 H 2251.7 -1.3921 -1.49939 0
M  V30 24103 H 2251.71 -1.10127 -3.92856 0
M  V30 24104 H 2250.38 -2.18558 -3.53844 0
M  V30 24105 H 2248.96 -0.362291 -3.71136 0
M  V30 24106 N 2251.15 1.34492 -0.821557 0
M  V30 24107 C 2252.39 1.98327 -0.408981 0
M  V30 24108 C 2252.72 1.65138 1.02761 0
M  V30 24109 O 2251.98 0.91438 1.73025 0
M  V30 24110 C 2252.28 3.5304 -0.556574 0
M  V30 24111 C 2251.94 4.06136 -1.95868 0
M  V30 24112 C 2250.6 4.20348 -2.34224 0
M  V30 24113 C 2252.96 4.34713 -2.8753 0
M  V30 24114 C 2250.28 4.60463 -3.6358 0
M  V30 24115 C 2252.64 4.76274 -4.16349 0
M  V30 24116 C 2251.3 4.88691 -4.54684 0
M  V30 24117 H 2250.57 0.72573 -0.149657 0
M  V30 24118 H 2253.22 1.60459 -1.04524 0
M  V30 24119 H 2251.52 3.9146 0.163079 0
M  V30 24120 H 2253.22 4.00408 -0.217896 0
M  V30 24121 H 2249.81 3.95536 -1.65073 0
M  V30 24122 H 2253.99 4.23273 -2.59141 0
M  V30 24123 H 2249.25 4.68268 -3.9311 0
M  V30 24124 H 2253.42 4.97345 -4.87464 0
M  V30 24125 H 2251.05 5.19533 -5.54968 0
M  V30 24126 N 2252.62 0.576397 1.46681 0
M  V30 24127 C 2253.87 0.0595695 2.02412 0
M  V30 24128 C 2254.2 -1.2979 1.44861 0
M  V30 24129 O 2253.45 -1.86239 0.601131 0
M  V30 24130 C 2253.75 -0.0628232 3.57345 0
M  V30 24131 C 2253.42 1.22623 4.33906 0
M  V30 24132 C 2252.08 1.57941 4.54542 0
M  V30 24133 C 2254.43 2.07957 4.77916 0
M  V30 24134 C 2251.76 2.78402 5.16439 0
M  V30 24135 C 2254.11 3.27638 5.41143 0
M  V30 24136 C 2252.78 3.63246 5.60008 0
M  V30 24137 H 2252.05 0.021798 0.740679 0
M  V30 24138 H 2254.69 0.751766 1.76127 0
M  V30 24139 H 2253 -0.83811 3.82731 0
M  V30 24140 H 2254.7 -0.478369 3.98136 0
M  V30 24141 H 2251.29 0.941276 4.18136 0
M  V30 24142 H 2255.47 1.81976 4.61734 0
M  V30 24143 H 2250.73 3.06135 5.29236 0
M  V30 24144 H 2254.9 3.94034 5.74204 0
M  V30 24145 H 2252.53 4.56679 6.0774 0
M  V30 24146 N 2254.1 -1.54444 0.313841 0
M  V30 24147 C 2255.33 -2.04802 -0.293882 0
M  V30 24148 C 2255.75 -1.1905 -1.46535 0
M  V30 24149 O 2255.1 -0.218971 -1.81182 0
M  V30 24150 C 2255.15 -3.53892 -0.737744 0
M  V30 24151 O 2254.87 -4.36386 0.387115 0
M  V30 24152 C 2256.38 -4.20302 -1.40929 0
M  V30 24153 H 2253.6 -0.66813 -0.061994 0
M  V30 24154 H 2256.14 -1.99324 0.457205 0
M  V30 24155 H 2254.29 -3.5969 -1.43883 0
M  V30 24156 H 2254.71 -5.24485 0.0392196 0
M  V30 24157 H 2256.18 -5.26104 -1.67089 0
M  V30 24158 H 2256.66 -3.7082 -2.35348 0
M  V30 24159 H 2257.27 -4.18616 -0.751043 0
M  V30 24160 N 2255.58 -0.0418125 -1.57545 0
M  V30 24161 C 2256.51 0.933891 -2.14011 0
M  V30 24162 C 2257.49 1.33082 -1.0594 0
M  V30 24163 O 2258.68 1.40719 -1.33835 0
M  V30 24164 C 2255.81 2.21194 -2.67751 0
M  V30 24165 C 2254.76 1.95538 -3.80722 0
M  V30 24166 C 2254.09 3.29717 -4.20941 0
M  V30 24167 C 2255.39 1.28443 -5.06261 0
M  V30 24168 H 2257.08 0.463593 -2.95789 0
M  V30 24169 H 2254.63 0.221548 -1.42286 0
M  V30 24170 H 2256.58 2.89843 -3.05891 0
M  V30 24171 H 2255.3 2.70413 -1.83151 0
M  V30 24172 H 2253.96 1.29304 -3.4304 0
M  V30 24173 H 2253.61 3.76719 -3.33305 0
M  V30 24174 H 2253.31 3.13352 -4.97076 0
M  V30 24175 H 2254.83 3.99612 -4.61673 0
M  V30 24176 H 2256.25 1.87111 -5.41906 0
M  V30 24177 H 2254.65 1.22434 -5.87477 0
M  V30 24178 H 2255.72 0.259134 -4.84207 0
M  V30 24179 N 2257.06 1.55891 0.231477 0
M  V30 24180 C 2258.01 1.92443 1.30646 0
M  V30 24181 C 2259 0.80528 1.49036 0
M  V30 24182 O 2260.21 0.990034 1.50327 0
M  V30 24183 H 2256.58 0.61142 0.437801 0
M  V30 24184 H 2258.55 2.82162 0.970923 0
M  V30 24185 C 2257.3 2.24894 2.65176 0
M  V30 24186 H 2256.62 3.10519 2.51829 0
M  V30 24187 H 2258.06 2.54361 3.39229 0
M  V30 24188 C 2256.52 1.0706 3.19437 0
M  V30 24189 O 2257.05 0.326569 4.0037 0
M  V30 24190 N 2255.26 0.857079 2.77673 0
M  V30 24191 H 2254.81 1.46383 2.11966 0
M  V30 24192 H 2254.76 0.0703775 3.14321 0
M  V30 24193 N 2258.54 -0.497781 1.49532 0
M  V30 24194 C 2259.47 -1.60754 1.69353 0
M  V30 24195 C 2260.45 -1.61226 0.542246 0
M  V30 24196 O 2261.63 -1.77915 0.778448 0
M  V30 24197 C 2258.76 -2.99223 1.76303 0
M  V30 24198 C 2257.72 -3.13617 2.91253 0
M  V30 24199 C 2257.04 -4.53469 2.8332 0
M  V30 24200 C 2258.34 -2.93339 4.32145 0
M  V30 24201 H 2260.04 -1.4442 2.62265 0
M  V30 24202 H 2257.58 -0.693345 1.26209 0
M  V30 24203 H 2259.54 -3.76762 1.88756 0
M  V30 24204 H 2258.26 -3.16652 0.799927 0
M  V30 24205 H 2256.92 -2.38504 2.78409 0
M  V30 24206 H 2256.57 -4.67779 1.8491 0
M  V30 24207 H 2256.27 -4.6404 3.60473 0
M  V30 24208 H 2257.79 -5.33064 2.97784 0
M  V30 24209 H 2259.2 -3.60645 4.45655 0
M  V30 24210 H 2257.6 -3.15378 5.10545 0
M  V30 24211 H 2258.67 -1.89433 4.46367 0
M  V30 24212 N 2260.01 -1.38661 -0.749062 0
M  V30 24213 C 2261.26 -1.35116 -1.5083 0
M  V30 24214 C 2261.59 0.0573707 -1.94415 0
M  V30 24215 O 2260.84 1.03538 -1.66067 0
M  V30 24216 C 2261.14 -2.25702 -2.77116 0
M  V30 24217 C 2260.81 -3.7359 -2.52471 0
M  V30 24218 C 2259.47 -4.13888 -2.45458 0
M  V30 24219 C 2261.82 -4.67185 -2.31057 0
M  V30 24220 C 2259.15 -5.45865 -2.15054 0
M  V30 24221 C 2261.5 -5.99424 -2.02173 0
M  V30 24222 C 2260.17 -6.38802 -1.9362 0
M  V30 24223 H 2259.44 -0.494426 -0.551927 0
M  V30 24224 H 2262.08 -1.71055 -0.860949 0
M  V30 24225 H 2260.39 -1.82833 -3.46524 0
M  V30 24226 H 2262.09 -2.2026 -3.35092 0
M  V30 24227 H 2258.68 -3.41643 -2.58801 0
M  V30 24228 H 2262.86 -4.36894 -2.35451 0
M  V30 24229 H 2258.12 -5.75312 -2.06944 0
M  V30 24230 H 2262.29 -6.71485 -1.84609 0
M  V30 24231 H 2259.92 -7.40988 -1.69826 0
M  V30 24232 N 2261.49 0.977736 -1.23605 0
M  V30 24233 C 2262.74 1.71366 -1.0638 0
M  V30 24234 C 2263.06 1.91487 0.399028 0
M  V30 24235 O 2264.26 2.62552 0.691266 0
M  V30 24236 C 2262.72 3.08401 -1.85518 0
M  V30 24237 C 2262.33 2.96158 -3.36146 0
M  V30 24238 C 2264.07 3.85935 -1.7679 0
M  V30 24239 C 2261.98 4.28442 -4.07666 0
M  V30 24240 H 2260.91 0.642584 -0.394463 0
M  V30 24241 H 2263.56 1.09031 -1.47595 0
M  V30 24242 H 2261.94 3.71506 -1.37109 0
M  V30 24243 H 2263.11 2.42126 -3.92061 0
M  V30 24244 H 2261.43 2.32098 -3.45716 0
M  V30 24245 H 2264.03 4.83872 -2.27535 0
M  V30 24246 H 2264.37 4.09828 -0.731188 0
M  V30 24247 H 2264.9 3.29537 -2.22824 0
M  V30 24248 H 2261.64 4.09743 -5.11655 0
M  V30 24249 H 2261.16 4.82328 -3.56539 0
M  V30 24250 H 2262.84 4.97115 -4.14108 0
M  V30 24251 N 2262.97 1.04818 1.1769 0
M  V30 24252 C 2264.22 0.75453 1.87487 0
M  V30 24253 C 2264.54 -0.720375 1.81206 0
M  V30 24254 O 2263.81 -1.52029 1.23547 0
M  V30 24255 H 2262.39 0.276114 0.694096 0
M  V30 24256 H 2265.05 1.32653 1.4279 0
M  V30 24257 H 2264.15 1.06611 2.93326 0
M  V30 24258 N 2264.45 -1.34055 0.828678 0
M  V30 24259 C 2265.7 -1.98401 0.420115 0
M  V30 24260 C 2266.03 -1.65527 -1.01561 0
M  V30 24261 O 2265.3 -0.929861 -1.70833 0
M  V30 24262 C 2265.59 -3.54558 0.629333 0
M  V30 24263 C 2265.44 -3.97155 2.11159 0
M  V30 24264 C 2266.76 -4.40046 0.0689529 0
M  V30 24265 H 2263.88 -0.720706 0.154117 0
M  V30 24266 H 2266.52 -1.58858 1.04231 0
M  V30 24267 H 2264.67 -3.88372 0.09971 0
M  V30 24268 H 2266.34 -3.73647 2.70529 0
M  V30 24269 H 2264.58 -3.47257 2.59991 0
M  V30 24270 H 2265.26 -5.05883 2.20877 0
M  V30 24271 H 2267.73 -4.12819 0.52153 0
M  V30 24272 H 2266.61 -5.48352 0.245102 0
M  V30 24273 H 2266.87 -4.30017 -1.02653 0
M  V30 24274 N 2265.93 -0.584167 -1.46374 0
M  V30 24275 C 2267.18 -0.0680095 -2.01585 0
M  V30 24276 C 2267.49 1.30042 -1.46111 0
M  V30 24277 O 2268.7 1.908 -1.93151 0
M  V30 24278 C 2267.15 -0.070984 -3.5983 0
M  V30 24279 C 2266.76 -1.43782 -4.243 0
M  V30 24280 C 2268.5 0.391154 -4.22694 0
M  V30 24281 C 2266.41 -1.39845 -5.74628 0
M  V30 24282 H 2265.34 -0.0216553 -0.753689 0
M  V30 24283 H 2267.99 -0.736031 -1.68092 0
M  V30 24284 H 2266.37 0.66323 -3.90407 0
M  V30 24285 H 2267.55 -2.19188 -4.05331 0
M  V30 24286 H 2265.86 -1.8401 -3.73536 0
M  V30 24287 H 2268.46 0.439431 -5.32891 0
M  V30 24288 H 2268.8 1.40899 -3.91731 0
M  V30 24289 H 2269.34 -0.289043 -3.96749 0
M  V30 24290 H 2266.07 -2.39313 -6.10253 0
M  V30 24291 H 2265.59 -0.686609 -5.95857 0
M  V30 24292 H 2267.27 -1.11198 -6.37373 0
M  V30 24293 N 2267.41 1.54275 -0.322027 0
M  V30 24294 C 2268.65 1.9972 0.281896 0
M  V30 24295 C 2268.97 1.214 1.53367 0
M  V30 24296 O 2270.17 1.57215 2.2135 0
M  V30 24297 C 2268.63 3.55629 0.552837 0
M  V30 24298 C 2268.24 4.42782 -0.681799 0
M  V30 24299 C 2269.98 4.09546 1.1168 0
M  V30 24300 C 2267.89 5.9016 -0.382846 0
M  V30 24301 H 2266.82 0.746064 0.109111 0
M  V30 24302 H 2269.47 1.78294 -0.434011 0
M  V30 24303 H 2267.85 3.73037 1.32889 0
M  V30 24304 H 2269.03 4.37149 -1.45731 0
M  V30 24305 H 2267.34 3.99746 -1.16587 0
M  V30 24306 H 2269.94 5.17245 1.35506 0
M  V30 24307 H 2270.28 3.61435 2.06569 0
M  V30 24308 H 2270.81 3.95764 0.401963 0
M  V30 24309 H 2267.55 6.42462 -1.30087 0
M  V30 24310 H 2267.07 5.98749 0.354989 0
M  V30 24311 H 2268.75 6.47 0.00788784 0
M  V30 24312 N 2268.88 0.0501669 1.5752 0
M  V30 24313 C 2270.16 -0.663653 1.83997 0
M  V30 24314 C 2270.54 -1.89097 0.938373 0
M  V30 24315 O 2269.89 -2.285 -0.000837425 0
M  V30 24316 C 2270.1 -1.0219 3.33704 0
M  V30 24317 C 2271.45 -1.40462 4.00694 0
M  V30 24318 O 2272.47 -1.11427 3.38323 0
M  V30 24319 O 2271.33 -1.94645 5.10662 0
M  V30 24320 H 2268.42 -0.327497 0.759391 0
M  V30 24321 H 2270.97 0.0794536 1.69514 0
M  V30 24322 H 2269.74 -0.149295 3.91015 0
M  V30 24323 H 2269.36 -1.82249 3.53371 0
M  V30 24324 N 2270.36 -1.56011 -0.223207 0
M  V30 24325 C 2271.31 -1.93133 -1.29623 0
M  V30 24326 C 2272.3 -0.813172 -1.48606 0
M  V30 24327 O 2273.51 -0.997992 -1.498 0
M  V30 24328 H 2269.88 -0.613733 -0.434552 0
M  V30 24329 H 2271.86 -2.82673 -0.955946 0
M  V30 24330 C 2270.6 -2.26297 -2.63979 0
M  V30 24331 H 2269.93 -3.1185 -2.50179 0
M  V30 24332 H 2271.37 -2.56157 -3.37875 0
M  V30 24333 C 2269.83 -1.08752 -3.18864 0
M  V30 24334 O 2270.36 -0.347797 -4.00192 0
M  V30 24335 N 2268.56 -0.871792 -2.77215 0
M  V30 24336 H 2268.11 -1.47505 -2.11187 0
M  V30 24337 H 2268.07 -0.0870457 -3.14279 0
M  V30 24338 N 2271.84 0.489844 -1.49794 0
M  V30 24339 C 2273.09 1.24324 -1.59843 0
M  V30 24340 C 2273.41 1.92323 -0.290169 0
M  V30 24341 O 2272.67 1.81866 0.722717 0
M  V30 24342 C 2272.97 2.32436 -2.71492 0
M  V30 24343 C 2272.63 1.81819 -4.12617 0
M  V30 24344 C 2271.3 1.67734 -4.5102 0
M  V30 24345 C 2273.65 1.44062 -5.00895 0
M  V30 24346 C 2270.98 1.14287 -5.75461 0
M  V30 24347 C 2273.33 0.920632 -6.25865 0
M  V30 24348 C 2271.99 0.766267 -6.63087 0
M  V30 24349 H 2271.26 0.454934 -0.584907 0
M  V30 24350 H 2273.91 0.542183 -1.83664 0
M  V30 24351 H 2272.21 3.08375 -2.41685 0
M  V30 24352 H 2273.91 2.90453 -2.76474 0
M  V30 24353 H 2270.5 1.93744 -3.8231 0
M  V30 24354 H 2274.69 1.53786 -4.71873 0
M  V30 24355 H 2269.94 1.01057 -6.0299 0
M  V30 24356 H 2274.12 0.619326 -6.93641 0
M  V30 24357 H 2271.74 0.34995 -7.59394 0
M  V30 24358 N 2273.32 1.39056 0.741698 0
M  V30 24359 C 2274.27 1.37374 1.877 0
M  V30 24360 C 2275.26 0.257841 1.67426 0
M  V30 24361 O 2276.47 0.427519 1.74849 0
M  V30 24362 H 2272.84 0.428823 0.61775 0
M  V30 24363 H 2274.81 2.3315 1.86235 0
M  V30 24364 C 2273.56 1.22747 3.25313 0
M  V30 24365 H 2272.88 2.07879 3.41506 0
M  V30 24366 H 2274.32 1.25626 4.04962 0
M  V30 24367 C 2272.78 -0.0646724 3.36838 0
M  V30 24368 O 2273.31 -1.03734 3.88075 0
M  V30 24369 N 2271.52 -0.125493 2.90329 0
M  V30 24370 H 2271.07 0.666726 2.48822 0
M  V30 24371 H 2271.02 -0.989587 2.9842 0
M  V30 24372 N 2274.8 -0.971167 1.24121 0
M  V30 24373 C 2275.71 -2.09915 1.04751 0
M  V30 24374 C 2276.72 -1.73997 -0.0106856 0
M  V30 24375 O 2277.9 -2.00532 0.186749 0
M  V30 24376 C 2274.96 -3.40535 0.650888 0
M  V30 24377 C 2274.02 -3.90423 1.78517 0
M  V30 24378 C 2273.26 -5.14809 1.40738 0
M  V30 24379 O 2273.48 -5.69633 0.29567 0
M  V30 24380 O 2272.41 -5.58995 2.23178 0
M  V30 24381 H 2276.24 -2.29151 1.99308 0
M  V30 24382 H 2273.82 -1.08305 1.0291 0
M  V30 24383 H 2275.71 -4.19085 0.441066 0
M  V30 24384 H 2274.38 -3.22609 -0.265592 0
M  V30 24385 H 2273.29 -3.1295 2.04972 0
M  V30 24386 H 2274.62 -4.1282 2.6803 0
M  V30 24387 N 2276.27 -1.05441 -1.17133 0
M  V30 24388 C 2277.21 -0.615578 -2.20779 0
M  V30 24389 C 2278.22 0.321973 -1.59584 0
M  V30 24390 O 2279.41 0.114313 -1.78134 0
M  V30 24391 C 2276.51 0.118878 -3.38691 0
M  V30 24392 C 2275.68 -0.829999 -4.29453 0
M  V30 24393 C 2274.74 -0.13635 -5.26023 0
M  V30 24394 O 2273.77 -0.771249 -5.63951 0
M  V30 24395 N 2274.97 1.1253 -5.69489 0
M  V30 24396 H 2277.73 -1.5071 -2.59049 0
M  V30 24397 H 2275.29 -0.936627 -1.32056 0
M  V30 24398 H 2277.29 0.593108 -4.0033 0
M  V30 24399 H 2275.86 0.912097 -2.98998 0
M  V30 24400 H 2275.08 -1.4838 -3.65208 0
M  V30 24401 H 2276.36 -1.474 -4.86981 0
M  V30 24402 H 2275.76 1.6614 -5.40753 0
M  V30 24403 H 2274.32 1.54355 -6.3326 0
M  V30 24404 N 2277.75 1.33613 -0.835776 0
M  V30 24405 C 2278.7 2.29276 -0.26477 0
M  V30 24406 C 2279.67 1.54188 0.617685 0
M  V30 24407 O 2280.85 1.82501 0.556609 0
M  V30 24408 C 2277.99 3.4058 0.556717 0
M  V30 24409 C 2277.11 4.30585 -0.349415 0
M  V30 24410 C 2276.24 5.29001 0.482876 0
M  V30 24411 C 2275.28 6.10645 -0.42184 0
M  V30 24412 N 2274.42 7.01113 0.372139 0
M  V30 24413 H 2279.26 2.77512 -1.08586 0
M  V30 24414 H 2276.8 1.36553 -0.546951 0
M  V30 24415 H 2278.75 4.03811 1.04845 0
M  V30 24416 H 2277.38 2.93545 1.34281 0
M  V30 24417 H 2276.44 3.68102 -0.959437 0
M  V30 24418 H 2277.75 4.87741 -1.04454 0
M  V30 24419 H 2276.9 5.97745 1.03856 0
M  V30 24420 H 2275.64 4.72414 1.21145 0
M  V30 24421 H 2274.65 5.40821 -0.989559 0
M  V30 24422 H 2275.87 6.69314 -1.14873 0
M  V30 24423 H 2273.82 6.46979 1.08415 0
M  V30 24424 H 2273.73 7.55538 -0.26433 0
M  V30 24425 H 2275 7.74168 0.910157 0
M  V30 24426 N 2279.23 0.591922 1.46062 0
M  V30 24427 C 2280.18 -0.136029 2.30399 0
M  V30 24428 C 2281.15 -0.875214 1.41171 0
M  V30 24429 O 2282.33 -0.86406 1.70114 0
M  V30 24430 C 2279.47 -1.13775 3.25806 0
M  V30 24431 C 2278.59 -0.401062 4.30134 0
M  V30 24432 C 2277.72 -1.39112 5.12661 0
M  V30 24433 C 2276.76 -0.641355 6.08731 0
M  V30 24434 N 2275.9 -1.57992 6.84093 0
M  V30 24435 H 2280.74 0.589195 2.92117 0
M  V30 24436 H 2278.27 0.302367 1.43959 0
M  V30 24437 H 2280.23 -1.73149 3.79572 0
M  V30 24438 H 2278.86 -1.83058 2.65875 0
M  V30 24439 H 2277.91 0.307893 3.79152 0
M  V30 24440 H 2279.23 0.184652 4.98458 0
M  V30 24441 H 2278.38 -2.05739 5.70751 0
M  V30 24442 H 2277.12 -2.01076 4.44319 0
M  V30 24443 H 2276.12 0.0386385 5.49786 0
M  V30 24444 H 2277.35 -0.0269751 6.79095 0
M  V30 24445 H 2275.29 -2.1875 6.18453 0
M  V30 24446 H 2275.21 -1.04725 7.48711 0
M  V30 24447 H 2276.48 -2.23626 7.46734 0
M  V30 24448 N 2280.71 -1.54102 0.330204 0
M  V30 24449 C 2281.66 -2.24568 -0.532722 0
M  V30 24450 C 2282.63 -1.23893 -1.10633 0
M  V30 24451 O 2283.81 -1.52593 -1.14543 0
M  V30 24452 C 2280.95 -3.01198 -1.68445 0
M  V30 24453 C 2280.06 -4.16702 -1.13943 0
M  V30 24454 C 2279.2 -4.80849 -2.25738 0
M  V30 24455 C 2278.24 -5.88445 -1.68519 0
M  V30 24456 N 2277.37 -6.46426 -2.74003 0
M  V30 24457 H 2282.21 -2.97906 0.0747429 0
M  V30 24458 H 2279.75 -1.4702 0.0486579 0
M  V30 24459 H 2281.71 -3.43878 -2.36228 0
M  V30 24460 H 2280.34 -2.30182 -2.2631 0
M  V30 24461 H 2279.39 -3.78759 -0.352944 0
M  V30 24462 H 2280.7 -4.94132 -0.680805 0
M  V30 24463 H 2279.86 -5.26531 -3.01413 0
M  V30 24464 H 2278.6 -4.02814 -2.7494 0
M  V30 24465 H 2277.6 -5.42159 -0.913448 0
M  V30 24466 H 2278.83 -6.6838 -1.20186 0
M  V30 24467 H 2276.77 -5.71262 -3.22484 0
M  V30 24468 H 2276.69 -7.19289 -2.32723 0
M  V30 24469 H 2277.96 -6.96763 -3.49487 0
M  V30 24470 N 2282.19 -0.0585199 -1.57491 0
M  V30 24471 C 2283.15 0.89858 -2.10851 0
M  V30 24472 C 2284.15 1.2351 -1.02966 0
M  V30 24473 O 2285.34 1.17056 -1.29009 0
M  V30 24474 C 2282.47 2.20618 -2.59885 0
M  V30 24475 H 2283.66 0.435883 -2.96715 0
M  V30 24476 H 2281.22 0.189995 -1.55141 0
M  V30 24477 H 2281.95 2.71454 -1.77436 0
M  V30 24478 H 2281.74 1.97495 -3.3873 0
M  V30 24479 H 2283.23 2.89161 -3.0129 0
M  V30 24480 N 2283.66 1.56128 0.21493 0
M  V30 24481 C 2284.91 1.79093 0.936487 0
M  V30 24482 C 2285.23 0.62818 1.84605 0
M  V30 24483 O 2284.5 -0.354586 1.92664 0
M  V30 24484 H 2283.08 0.660572 0.348788 0
M  V30 24485 H 2285.75 1.93595 0.225196 0
M  V30 24486 H 2284.84 2.71495 1.53938 0
M  V30 24487 N 2285.14 -0.481893 1.50052 0
M  V30 24488 C 2286.39 -1.23231 1.60183 0
M  V30 24489 C 2286.71 -1.92691 0.29921 0
M  V30 24490 O 2285.98 -1.8362 -0.682675 0
M  V30 24491 H 2284.56 -0.457849 0.59024 0
M  V30 24492 H 2287.22 -0.556848 1.86776 0
M  V30 24493 H 2286.32 -1.98602 2.40756 0
M  V30 24494 N 2286.62 -1.39448 -0.734313 0
M  V30 24495 C 2287.85 -1.4017 -1.52864 0
M  V30 24496 C 2288.27 0.00168206 -1.881 0
M  V30 24497 O 2287.63 0.988853 -1.51959 0
M  V30 24498 C 2287.68 -2.28171 -2.79231 0
M  V30 24499 O 2286.78 -1.71207 -3.75182 0
M  V30 24500 H 2286.12 -0.477298 -0.461609 0
M  V30 24501 H 2288.65 -1.83451 -0.905916 0
M  V30 24502 H 2288.66 -2.42708 -3.27959 0
M  V30 24503 H 2287.34 -3.3016 -2.52917 0
M  V30 24504 H 2285.91 -1.65918 -3.33955 0
M  V30 24505 N 2288.1 0.964571 -1.24635 0
M  V30 24506 C 2289.03 2.07739 -1.06614 0
M  V30 24507 C 2290.01 1.70086 0.0218367 0
M  V30 24508 O 2291.19 1.93652 -0.145827 0
M  V30 24509 C 2288.32 3.40707 -0.673503 0
M  V30 24510 C 2287.28 3.92329 -1.71061 0
M  V30 24511 C 2286.6 5.21676 -1.17294 0
M  V30 24512 C 2287.9 4.19818 -3.10725 0
M  V30 24513 H 2289.6 2.23073 -1.99697 0
M  V30 24514 H 2287.14 1.07193 -0.961539 0
M  V30 24515 H 2289.1 4.17998 -0.534418 0
M  V30 24516 H 2287.82 3.25283 0.293016 0
M  V30 24517 H 2286.48 3.17198 -1.83796 0
M  V30 24518 H 2286.13 5.02614 -0.196935 0
M  V30 24519 H 2285.83 5.57183 -1.86602 0
M  V30 24520 H 2287.35 6.01573 -1.04604 0
M  V30 24521 H 2288.77 4.87802 -3.01201 0
M  V30 24522 H 2287.16 4.6656 -3.77414 0
M  V30 24523 H 2288.23 3.26473 -3.5853 0
M  V30 24524 N 2289.58 1.0606 1.16572 0
M  V30 24525 C 2290.49 0.680321 2.24519 0
M  V30 24526 C 2291.5 -0.302574 1.71349 0
M  V30 24527 O 2292.68 -0.152478 2.00822 0
M  V30 24528 C 2289.74 0.0700925 3.46629 0
M  V30 24529 C 2288.8 1.10455 4.14847 0
M  V30 24530 C 2288.04 0.523349 5.31128 0
M  V30 24531 O 2288.26 -0.664609 5.66515 0
M  V30 24532 O 2287.19 1.26189 5.88523 0
M  V30 24533 H 2291.02 1.58019 2.59352 0
M  V30 24534 H 2288.61 0.832715 1.24041 0
M  V30 24535 H 2290.49 -0.268593 4.20543 0
M  V30 24536 H 2289.16 -0.803298 3.13574 0
M  V30 24537 H 2288.07 1.49538 3.42913 0
M  V30 24538 H 2289.4 1.94939 4.51951 0
M  V30 24539 N 2291.06 -1.33168 0.84285 0
M  V30 24540 C 2291.99 -2.27099 0.223902 0
M  V30 24541 C 2292.97 -1.49845 -0.631285 0
M  V30 24542 O 2294.15 -1.79006 -0.590677 0
M  V30 24543 C 2291.28 -3.31696 -0.685254 0
M  V30 24544 C 2290.32 -4.26394 0.0949939 0
M  V30 24545 S 2291.16 -5.15339 1.45555 0
M  V30 24546 C 2292.31 -6.23463 0.551794 0
M  V30 24547 H 2292.55 -2.79247 1.0202 0
M  V30 24548 H 2290.08 -1.40519 0.639821 0
M  V30 24549 H 2292.04 -3.92441 -1.20419 0
M  V30 24550 H 2290.7 -2.78354 -1.45525 0
M  V30 24551 H 2289.89 -5.00452 -0.596971 0
M  V30 24552 H 2289.49 -3.70006 0.545119 0
M  V30 24553 H 2291.78 -6.77043 -0.248758 0
M  V30 24554 H 2292.73 -6.96751 1.26266 0
M  V30 24555 H 2293.14 -5.64347 0.131374 0
M  V30 24556 N 2292.53 -0.599659 -1.45746 0
M  V30 24557 C 2293.78 -0.091764 -2.02292 0
M  V30 24558 C 2294.11 1.27469 -1.46908 0
M  V30 24559 O 2293.36 1.85259 -0.630684 0
M  V30 24560 C 2293.66 0.00596476 -3.574 0
M  V30 24561 C 2293.33 -1.29511 -4.319 0
M  V30 24562 C 2291.99 -1.65152 -4.51971 0
M  V30 24563 C 2294.34 -2.15533 -4.74547 0
M  V30 24564 C 2291.67 -2.86583 -5.11944 0
M  V30 24565 C 2294.02 -3.36206 -5.35862 0
M  V30 24566 C 2292.69 -3.72109 -5.54158 0
M  V30 24567 H 2291.96 -0.0335788 -0.740239 0
M  V30 24568 H 2294.6 -0.779691 -1.74909 0
M  V30 24569 H 2292.91 0.777115 -3.84016 0
M  V30 24570 H 2294.61 0.414968 -3.98847 0
M  V30 24571 H 2291.2 -1.00768 -4.16586 0
M  V30 24572 H 2295.38 -1.89298 -4.58781 0
M  V30 24573 H 2290.64 -3.14516 -5.24299 0
M  V30 24574 H 2294.81 -4.03119 -5.67863 0
M  V30 24575 H 2292.44 -4.6629 -6.00398 0
M  V30 24576 N 2294.01 1.53925 -0.338371 0
M  V30 24577 C 2294.94 2.21128 0.563719 0
M  V30 24578 C 2295.92 1.19347 1.10431 0
M  V30 24579 O 2297.11 1.48146 1.16555 0
M  V30 24580 C 2294.23 2.88464 1.775 0
M  V30 24581 C 2293.28 4.0409 1.36433 0
M  V30 24582 S 2294.11 5.34089 0.388499 0
M  V30 24583 C 2295.27 6.04926 1.60672 0
M  V30 24584 H 2295.5 2.97299 -0.00709772 0
M  V30 24585 H 2293.03 1.53914 -0.122445 0
M  V30 24586 H 2294.99 3.27879 2.46993 0
M  V30 24587 H 2293.65 2.12068 2.31702 0
M  V30 24588 H 2292.85 4.50121 2.26731 0
M  V30 24589 H 2292.45 3.66425 0.748933 0
M  V30 24590 H 2294.74 6.28004 2.54198 0
M  V30 24591 H 2295.68 6.98058 1.1883 0
M  V30 24592 H 2296.09 5.35019 1.80043 0
M  V30 24593 N 2295.49 0.0668712 1.57458 0
M  V30 24594 C 2296.72 -0.612531 1.97625 0
M  V30 24595 C 2297.13 -1.63445 0.945048 0
M  V30 24596 O 2296.49 -1.8237 -0.0688955 0
M  V30 24597 C 2296.54 -1.2855 3.37872 0
M  V30 24598 O 2296.26 -0.30448 4.37041 0
M  V30 24599 C 2297.76 -2.05318 3.92886 0
M  V30 24600 H 2294.98 -0.16637 0.650048 0
M  V30 24601 H 2297.53 0.137818 2.04035 0
M  V30 24602 H 2295.68 -1.98696 3.32564 0
M  V30 24603 H 2296.1 -0.786688 5.18567 0
M  V30 24604 H 2297.57 -2.47804 4.93252 0
M  V30 24605 H 2298.05 -2.90774 3.29161 0
M  V30 24606 H 2298.65 -1.40049 4.0158 0
M  V30 24607 N 2296.97 -1.56239 -0.206647 0
M  V30 24608 C 2297.88 -1.96811 -1.27682 0
M  V30 24609 C 2298.89 -0.874062 -1.50453 0
M  V30 24610 O 2300.07 -1.17887 -1.63293 0
M  V30 24611 C 2297.13 -2.28946 -2.60354 0
M  V30 24612 C 2296.2 -3.51998 -2.45756 0
M  V30 24613 C 2295.43 -3.82591 -3.72102 0
M  V30 24614 O 2295.65 -3.1464 -4.75771 0
M  V30 24615 O 2294.59 -4.76049 -3.68321 0
M  V30 24616 H 2298.41 -2.88043 -0.962543 0
M  V30 24617 H 2296 -1.43643 -0.410721 0
M  V30 24618 H 2297.88 -2.50743 -3.38682 0
M  V30 24619 H 2296.55 -1.40885 -2.91433 0
M  V30 24620 H 2295.46 -3.35462 -1.65578 0
M  V30 24621 H 2296.79 -4.40489 -2.19613 0
M  V30 24622 N 2298.45 0.473929 -1.50305 0
M  V30 24623 C 2299.72 1.23515 -1.51669 0
M  V30 24624 C 2300.1 2.09496 -0.259738 0
M  V30 24625 O 2299.45 2.15598 0.756948 0
M  V30 24626 C 2299.66 2.06863 -2.81085 0
M  V30 24627 C 2301.01 2.65147 -3.31636 0
M  V30 24628 O 2302.03 2.17108 -2.82387 0
M  V30 24629 O 2300.89 3.52668 -4.17478 0
M  V30 24630 H 2297.99 0.560344 -0.60823 0
M  V30 24631 H 2300.53 0.485982 -1.62592 0
M  V30 24632 H 2299.3 1.43484 -3.64044 0
M  V30 24633 H 2298.93 2.88919 -2.73151 0
M  V30 24634 N 2299.92 1.39835 0.726907 0
M  V30 24635 C 2300.86 1.35108 1.85145 0
M  V30 24636 C 2301.87 0.25842 1.60736 0
M  V30 24637 O 2303.06 0.517961 1.7082 0
M  V30 24638 C 2300.16 1.07703 3.21331 0
M  V30 24639 C 2299.33 2.28403 3.73029 0
M  V30 24640 C 2298.39 1.97331 4.87798 0
M  V30 24641 O 2297.42 2.70092 5.01038 0
M  V30 24642 N 2298.62 0.944373 5.72767 0
M  V30 24643 H 2301.38 2.3202 1.89702 0
M  V30 24644 H 2298.94 1.34042 0.907983 0
M  V30 24645 H 2300.94 0.849213 3.9569 0
M  V30 24646 H 2299.51 0.194964 3.11991 0
M  V30 24647 H 2298.73 2.67085 2.8993 0
M  V30 24648 H 2300.01 3.08894 4.04304 0
M  V30 24649 H 2299.41 0.341526 5.64668 0
M  V30 24650 H 2297.97 0.77646 6.47159 0
M  V30 24651 N 2301.4 -0.957948 1.25144 0
M  V30 24652 C 2302.35 -2.05411 1.05239 0
M  V30 24653 C 2303.32 -1.66058 -0.0374269 0
M  V30 24654 O 2304.5 -1.90428 0.119106 0
M  V30 24655 C 2301.64 -3.38461 0.673649 0
M  V30 24656 C 2300.76 -3.90951 1.83797 0
M  V30 24657 C 2299.89 -5.12313 1.4039 0
M  V30 24658 C 2298.93 -5.57023 2.53756 0
M  V30 24659 N 2298.07 -6.69598 2.11147 0
M  V30 24660 H 2302.91 -2.21771 1.99052 0
M  V30 24661 H 2300.44 -1.08682 0.991297 0
M  V30 24662 H 2302.4 -4.14926 0.435037 0
M  V30 24663 H 2301.03 -3.21997 -0.227497 0
M  V30 24664 H 2300.08 -3.11037 2.18998 0
M  V30 24665 H 2301.4 -4.20084 2.68944 0
M  V30 24666 H 2300.55 -5.96183 1.12474 0
M  V30 24667 H 2299.29 -4.84887 0.5231 0
M  V30 24668 H 2298.29 -4.71719 2.8242 0
M  V30 24669 H 2299.52 -5.86458 3.42408 0
M  V30 24670 H 2297.47 -6.43887 1.25479 0
M  V30 24671 H 2297.38 -6.98231 2.89844 0
M  V30 24672 H 2298.65 -7.56886 1.86399 0
M  V30 24673 N 2302.88 -1.06677 -1.16008 0
M  V30 24674 C 2303.83 -0.681006 -2.20524 0
M  V30 24675 C 2304.8 0.324255 -1.62904 0
M  V30 24676 O 2305.98 0.21226 -1.89616 0
M  V30 24677 C 2303.12 -0.0777158 -3.45012 0
M  V30 24678 C 2302.23 -1.13362 -4.16861 0
M  V30 24679 C 2301.37 -0.496063 -5.28879 0
M  V30 24680 C 2300.41 -1.53524 -5.92534 0
M  V30 24681 N 2299.55 -0.920754 -6.96036 0
M  V30 24682 H 2304.39 -1.57667 -2.52874 0
M  V30 24683 H 2301.92 -0.788245 -1.24198 0
M  V30 24684 H 2303.88 0.28963 -4.16193 0
M  V30 24685 H 2302.51 0.781338 -3.13201 0
M  V30 24686 H 2301.56 -1.61863 -3.44245 0
M  V30 24687 H 2302.87 -1.92182 -4.6029 0
M  V30 24688 H 2302.03 -0.0759671 -6.06652 0
M  V30 24689 H 2300.77 0.323976 -4.86623 0
M  V30 24690 H 2299.77 -1.96519 -5.13479 0
M  V30 24691 H 2301 -2.35744 -6.36869 0
M  V30 24692 H 2298.94 -0.121495 -6.55887 0
M  V30 24693 H 2298.86 -1.64629 -7.37857 0
M  V30 24694 H 2300.13 -0.525932 -7.77724 0
M  V30 24695 N 2304.36 1.32719 -0.8499 0
M  V30 24696 C 2305.59 2.01319 -0.464115 0
M  V30 24697 C 2306 1.64058 0.942431 0
M  V30 24698 O 2305.34 0.855408 1.62568 0
M  V30 24699 C 2305.4 3.55749 -0.517949 0
M  V30 24700 C 2305.06 4.16424 -1.88255 0
M  V30 24701 C 2306.06 4.34997 -2.84734 0
M  V30 24702 C 2303.75 4.52605 -2.1784 0
M  V30 24703 C 2305.74 4.88913 -4.08954 0
M  V30 24704 C 2303.43 5.06226 -3.42313 0
M  V30 24705 C 2304.43 5.24328 -4.37686 0
M  V30 24706 O 2304.11 5.76805 -5.59957 0
M  V30 24707 H 2303.85 0.651224 -0.181338 0
M  V30 24708 H 2306.4 1.7038 -1.14716 0
M  V30 24709 H 2304.63 3.86063 0.221929 0
M  V30 24710 H 2306.32 4.05628 -0.148437 0
M  V30 24711 H 2307.08 4.07383 -2.63181 0
M  V30 24712 H 2302.96 4.37803 -1.44393 0
M  V30 24713 H 2306.51 5.02957 -4.83405 0
M  V30 24714 H 2302.4 5.33272 -3.63719 0
M  V30 24715 H 2303.17 5.95204 -5.61849 0
M  V30 24716 N 2305.84 0.60738 1.45426 0
M  V30 24717 C 2307.07 0.108692 2.06314 0
M  V30 24718 C 2307.47 -1.21214 1.45271 0
M  V30 24719 O 2306.82 -1.7492 0.561146 0
M  V30 24720 C 2306.88 -0.105554 3.59345 0
M  V30 24721 C 2306.54 1.13344 4.42721 0
M  V30 24722 C 2307.54 2.05153 4.77711 0
M  V30 24723 C 2305.23 1.36221 4.83476 0
M  V30 24724 C 2307.22 3.18167 5.52312 0
M  V30 24725 C 2304.91 2.49536 5.5783 0
M  V30 24726 C 2305.9 3.40337 5.92165 0
M  V30 24727 O 2305.59 4.5168 6.65011 0
M  V30 24728 H 2305.32 0.065896 0.672781 0
M  V30 24729 H 2307.88 0.834978 1.87663 0
M  V30 24730 H 2306.11 -0.88673 3.76396 0
M  V30 24731 H 2307.8 -0.555815 4.02076 0
M  V30 24732 H 2308.56 1.88705 4.46784 0
M  V30 24733 H 2304.44 0.664442 4.56187 0
M  V30 24734 H 2307.99 3.89064 5.79029 0
M  V30 24735 H 2303.88 2.65938 5.88173 0
M  V30 24736 H 2304.65 4.5036 6.83461 0
M  V30 24737 N 2307.31 -1.53743 0.34653 0
M  V30 24738 C 2308.26 -2.26617 -0.52418 0
M  V30 24739 C 2309.26 -1.28873 -1.09946 0
M  V30 24740 O 2310.46 -1.4657 -1.04485 0
M  V30 24741 H 2306.84 -0.728191 -0.18773 0
M  V30 24742 H 2308.81 -2.98188 0.112442 0
M  V30 24743 C 2307.56 -3.05417 -1.6618 0
M  V30 24744 H 2306.88 -3.8046 -1.22841 0
M  V30 24745 H 2308.32 -3.59616 -2.24615 0
M  V30 24746 C 2306.78 -2.15095 -2.59299 0
M  V30 24747 O 2307.31 -1.74902 -3.61624 0
M  V30 24748 N 2305.52 -1.80114 -2.28051 0
M  V30 24749 H 2305.06 -2.12997 -1.44879 0
M  V30 24750 H 2305.02 -1.19964 -2.90613 0
M  V30 24751 N 2308.79 -0.0752207 -1.5742 0
M  V30 24752 C 2309.76 0.876166 -2.11792 0
M  V30 24753 C 2310.76 1.22411 -1.0427 0
M  V30 24754 O 2311.95 1.15681 -1.30244 0
M  V30 24755 C 2309.08 2.1785 -2.6221 0
M  V30 24756 H 2310.27 0.404388 -2.97161 0
M  V30 24757 H 2307.82 0.17353 -1.55334 0
M  V30 24758 H 2308.56 2.69556 -1.80305 0
M  V30 24759 H 2308.34 1.93891 -3.40806 0
M  V30 24760 H 2309.83 2.85949 -3.0434 0
M  V30 24761 N 2310.27 1.56347 0.198358 0
M  V30 24762 C 2311.2 1.89341 1.27378 0
M  V30 24763 C 2312.18 0.753159 1.44105 0
M  V30 24764 O 2313.37 1.00384 1.59547 0
M  V30 24765 C 2310.49 2.12075 2.64087 0
M  V30 24766 C 2309.54 3.34777 2.64247 0
M  V30 24767 S 2310.37 4.90002 2.16005 0
M  V30 24768 C 2311.53 5.158 3.54544 0
M  V30 24769 H 2311.76 2.80261 0.992008 0
M  V30 24770 H 2309.29 1.49083 0.4017 0
M  V30 24771 H 2311.25 2.25856 3.42782 0
M  V30 24772 H 2309.91 1.21911 2.89476 0
M  V30 24773 H 2309.11 3.478 3.64761 0
M  V30 24774 H 2308.71 3.19973 1.93631 0
M  V30 24775 H 2311 5.0612 4.50387 0
M  V30 24776 H 2311.94 6.17576 3.46418 0
M  V30 24777 H 2312.35 4.43448 3.49305 0
M  V30 24778 N 2311.75 -0.465951 1.50554 0
M  V30 24779 C 2312.7 -1.5633 1.69793 0
M  V30 24780 C 2313.67 -1.57102 0.539266 0
M  V30 24781 O 2314.85 -1.74554 0.770432 0
M  V30 24782 C 2311.99 -2.94268 1.80278 0
M  V30 24783 C 2311.1 -3.03245 3.07679 0
M  V30 24784 C 2310.24 -4.3213 3.08929 0
M  V30 24785 C 2309.28 -4.34868 4.30763 0
M  V30 24786 N 2308.41 -5.55232 4.29723 0
M  V30 24787 H 2313.25 -1.39231 2.63475 0
M  V30 24788 H 2310.79 -0.67685 1.30603 0
M  V30 24789 H 2312.75 -3.74266 1.84338 0
M  V30 24790 H 2311.38 -3.09991 0.900312 0
M  V30 24791 H 2310.43 -2.16088 3.13066 0
M  V30 24792 H 2311.74 -3.01128 3.97647 0
M  V30 24793 H 2310.9 -5.20479 3.11747 0
M  V30 24794 H 2309.64 -4.36863 2.168 0
M  V30 24795 H 2308.64 -3.44915 4.28152 0
M  V30 24796 H 2309.87 -4.31822 5.24125 0
M  V30 24797 H 2307.81 -5.6074 3.4045 0
M  V30 24798 H 2307.73 -5.54877 5.13466 0
M  V30 24799 H 2309 -6.45692 4.36694 0
M  V30 24800 N 2313.23 -1.40218 -0.719481 0
M  V30 24801 C 2314.17 -1.40175 -1.83357 0
M  V30 24802 C 2315.14 -0.259235 -1.64065 0
M  V30 24803 O 2316.33 -0.456709 -1.85253 0
M  V30 24804 C 2313.47 -1.26629 -3.21028 0
M  V30 24805 C 2312.58 -2.50554 -3.51918 0
M  V30 24806 C 2311.72 -2.2948 -4.79075 0
M  V30 24807 C 2310.76 -3.49001 -5.02857 0
M  V30 24808 N 2309.89 -3.27146 -6.21224 0
M  V30 24809 H 2314.73 -2.35402 -1.82729 0
M  V30 24810 H 2312.27 -1.16918 -0.892668 0
M  V30 24811 H 2314.23 -1.16783 -4.00522 0
M  V30 24812 H 2312.86 -0.350232 -3.20894 0
M  V30 24813 H 2311.91 -2.70944 -2.67009 0
M  V30 24814 H 2313.22 -3.39531 -3.65404 0
M  V30 24815 H 2312.38 -2.16965 -5.66578 0
M  V30 24816 H 2311.11 -1.37922 -4.67792 0
M  V30 24817 H 2310.12 -3.61997 -4.13809 0
M  V30 24818 H 2311.34 -4.41481 -5.16015 0
M  V30 24819 H 2309.29 -2.38267 -6.112 0
M  V30 24820 H 2309.21 -4.09687 -6.35368 0
M  V30 24821 H 2310.48 -3.18356 -7.11526 0
M  V30 24822 N 2314.7 0.951297 -1.25651 0
M  V30 24823 C 2315.64 2.04805 -1.00648 0
M  V30 24824 C 2316.62 1.62468 0.0653986 0
M  V30 24825 O 2317.8 1.88351 -0.0749441 0
M  V30 24826 C 2314.93 3.34652 -0.522111 0
M  V30 24827 C 2313.97 3.95954 -1.58502 0
M  V30 24828 S 2314.81 4.31507 -3.17115 0
M  V30 24829 C 2315.96 5.64467 -2.70422 0
M  V30 24830 H 2316.19 2.25699 -1.93512 0
M  V30 24831 H 2313.73 1.09137 -1.09218 0
M  V30 24832 H 2315.69 4.09742 -0.249302 0
M  V30 24833 H 2314.35 3.11718 0.386091 0
M  V30 24834 H 2313.54 4.89582 -1.19689 0
M  V30 24835 H 2313.14 3.27357 -1.80868 0
M  V30 24836 H 2315.43 6.42729 -2.14256 0
M  V30 24837 H 2316.38 6.08154 -3.62704 0
M  V30 24838 H 2316.78 5.2386 -2.10311 0
M  V30 24839 N 2316.18 1.07291 1.1544 0
M  V30 24840 C 2317.43 0.794129 1.85844 0
M  V30 24841 C 2317.75 -0.681776 1.82693 0
M  V30 24842 O 2317.02 -1.49375 1.26744 0
M  V30 24843 H 2315.6 0.290775 0.688083 0
M  V30 24844 H 2318.26 1.35652 1.39945 0
M  V30 24845 H 2317.36 1.12809 2.90999 0
M  V30 24846 N 2317.66 -1.32267 0.856927 0
M  V30 24847 C 2318.89 -2.01897 0.474605 0
M  V30 24848 C 2319.31 -1.63968 -0.921738 0
M  V30 24849 O 2318.67 -0.841509 -1.60587 0
M  V30 24850 C 2318.72 -3.55162 0.623861 0
M  V30 24851 O 2317.82 -4.10976 -0.342387 0
M  V30 24852 H 2317.16 -0.636106 0.190433 0
M  V30 24853 H 2319.69 -1.68762 1.15675 0
M  V30 24854 H 2319.7 -4.04772 0.51224 0
M  V30 24855 H 2318.38 -3.8211 1.64209 0
M  V30 24856 H 2316.95 -3.72432 -0.186814 0
M  V30 24857 N 2319.14 -0.615084 -1.45102 0
M  V30 24858 C 2320.09 0.0993573 -2.30586 0
M  V30 24859 C 2321.06 0.852644 -1.42545 0
M  V30 24860 O 2322.24 0.836887 -1.71467 0
M  V30 24861 C 2319.38 1.08577 -3.27574 0
M  V30 24862 C 2318.49 0.33258 -4.30718 0
M  V30 24863 C 2317.63 1.30938 -5.14809 0
M  V30 24864 C 2316.67 0.544431 -6.09674 0
M  V30 24865 N 2315.8 1.47089 -6.8652 0
M  V30 24866 H 2320.64 -0.635594 -2.91143 0
M  V30 24867 H 2318.18 -0.325231 -1.4346 0
M  V30 24868 H 2320.14 1.67089 -3.82279 0
M  V30 24869 H 2318.77 1.78805 -2.68754 0
M  V30 24870 H 2317.82 -0.368173 -3.78614 0
M  V30 24871 H 2319.13 -0.263929 -4.98101 0
M  V30 24872 H 2318.29 1.96633 -5.73952 0
M  V30 24873 H 2317.03 1.93982 -4.47462 0
M  V30 24874 H 2316.03 -0.1261 -5.49655 0
M  V30 24875 H 2317.26 -0.0810663 -6.79052 0
M  V30 24876 H 2315.2 2.08884 -6.21855 0
M  V30 24877 H 2315.12 0.928005 -7.50283 0
M  V30 24878 H 2316.39 2.11718 -7.50197 0
M  V30 24879 N 2320.62 1.53557 -0.354678 0
M  V30 24880 C 2321.56 2.25387 0.496928 0
M  V30 24881 C 2322.53 1.25638 1.08648 0
M  V30 24882 O 2323.72 1.54395 1.12101 0
M  V30 24883 C 2320.86 3.0384 1.63632 0
M  V30 24884 C 2319.97 4.18462 1.073 0
M  V30 24885 C 2319.11 4.8438 2.18059 0
M  V30 24886 C 2318.15 5.91052 1.59136 0
M  V30 24887 N 2317.28 6.50704 2.63684 0
M  V30 24888 H 2322.12 2.9775 -0.122128 0
M  V30 24889 H 2319.66 1.46923 -0.0720412 0
M  V30 24890 H 2321.62 3.47593 2.30727 0
M  V30 24891 H 2320.25 2.33753 2.22619 0
M  V30 24892 H 2319.3 3.79273 0.292642 0
M  V30 24893 H 2320.61 4.95153 0.602106 0
M  V30 24894 H 2319.77 5.3126 2.92998 0
M  V30 24895 H 2318.51 4.07138 2.68496 0
M  V30 24896 H 2317.51 5.43543 0.82708 0
M  V30 24897 H 2318.74 6.70208 1.09538 0
M  V30 24898 H 2316.68 5.7632 3.13355 0
M  V30 24899 H 2316.6 7.229 2.2125 0
M  V30 24900 H 2317.87 7.02235 3.38358 0
M  V30 24901 N 2322.1 0.083568 1.57378 0
M  V30 24902 C 2323.51 -0.447326 1.81262 0
M  V30 24903 C 2323.86 -1.689 0.998361 0
M  V30 24904 O 2322.98 -2.15234 0.22432 0
M  V30 24905 C 2323.58 -0.818328 3.28769 0
M  V30 24906 C 2322.14 -1.29402 3.53457 0
M  V30 24907 C 2321.28 -0.284976 2.75832 0
M  V30 24908 H 2324.23 0.309142 1.5566 0
M  V30 24909 H 2324.26 -1.67881 3.41462 0
M  V30 24910 H 2323.77 0.0855701 3.88006 0
M  V30 24911 H 2321.87 -2.21602 2.99538 0
M  V30 24912 H 2321.98 -1.26382 4.6213 0
M  V30 24913 H 2320.35 -0.764725 2.42949 0
M  V30 24914 H 2321.13 0.6114 3.37812 0
M  V30 24915 N 2323.57 -1.5645 -0.190064 0
M  V30 24916 C 2324.5 -1.97971 -1.23813 0
M  V30 24917 C 2325.48 -0.85242 -1.472 0
M  V30 24918 O 2326.67 -1.11712 -1.58852 0
M  V30 24919 C 2323.8 -2.32354 -2.58126 0
M  V30 24920 C 2322.75 -3.47868 -2.49342 0
M  V30 24921 C 2322.08 -3.67941 -3.87974 0
M  V30 24922 C 2323.38 -4.81901 -2.01416 0
M  V30 24923 H 2325.07 -2.85771 -0.89306 0
M  V30 24924 H 2322.62 -1.37488 -0.428153 0
M  V30 24925 H 2324.57 -2.59997 -3.31632 0
M  V30 24926 H 2323.3 -1.41443 -2.94383 0
M  V30 24927 H 2321.96 -3.20324 -1.78291 0
M  V30 24928 H 2321.6 -2.74352 -4.21592 0
M  V30 24929 H 2321.3 -4.45654 -3.8297 0
M  V30 24930 H 2322.83 -3.97965 -4.63094 0
M  V30 24931 H 2324.24 -5.08542 -2.64684 0
M  V30 24932 H 2322.64 -5.6312 -2.07403 0
M  V30 24933 H 2323.71 -4.75148 -0.967593 0
M  V30 24934 N 2325.05 0.45796 -1.50799 0
M  V30 24935 C 2326 1.55427 -1.70619 0
M  V30 24936 C 2326.97 1.56814 -0.54759 0
M  V30 24937 O 2328.15 1.74143 -0.779678 0
M  V30 24938 C 2325.29 2.93308 -1.81836 0
M  V30 24939 C 2324.41 3.01609 -3.09283 0
M  V30 24940 C 2323.54 4.30485 -3.11217 0
M  V30 24941 C 2322.58 4.32577 -4.33063 0
M  V30 24942 N 2321.72 5.52945 -4.32662 0
M  V30 24943 H 2326.56 1.37831 -2.64209 0
M  V30 24944 H 2324.09 0.669914 -1.3096 0
M  V30 24945 H 2326.05 3.73283 -1.86321 0
M  V30 24946 H 2324.68 3.09509 -0.916739 0
M  V30 24947 H 2323.73 2.14425 -3.14207 0
M  V30 24948 H 2325.05 2.99015 -3.99239 0
M  V30 24949 H 2324.2 5.18819 -3.14503 0
M  V30 24950 H 2322.94 4.35707 -2.19114 0
M  V30 24951 H 2321.94 3.42639 -4.29975 0
M  V30 24952 H 2323.17 4.29036 -5.26407 0
M  V30 24953 H 2321.12 5.58927 -3.43419 0
M  V30 24954 H 2321.03 5.52146 -5.16402 0
M  V30 24955 H 2322.3 6.43367 -4.40113 0
M  V30 24956 N 2326.53 1.40598 0.712035 0
M  V30 24957 C 2327.49 1.40891 1.80783 0
M  V30 24958 C 2328.49 0.30213 1.57936 0
M  V30 24959 O 2329.68 0.561211 1.64912 0
M  V30 24960 C 2326.81 1.20414 3.18925 0
M  V30 24961 H 2328.01 2.38422 1.8192 0
M  V30 24962 H 2325.56 1.26499 0.918028 0
M  V30 24963 H 2326.3 0.236579 3.23436 0
M  V30 24964 H 2326.08 2.00588 3.36908 0
M  V30 24965 H 2327.57 1.23415 3.98947 0
M  V30 24966 N 2328.01 -0.94462 1.26153 0
M  V30 24967 C 2329.26 -1.68485 1.10886 0
M  V30 24968 C 2329.57 -1.92477 -0.348119 0
M  V30 24969 O 2330.78 -2.64293 -0.621412 0
M  V30 24970 C 2329.23 -3.03374 1.93629 0
M  V30 24971 C 2328.84 -2.87142 3.4388 0
M  V30 24972 C 2330.58 -3.81112 1.8696 0
M  V30 24973 C 2328.49 -4.17482 4.18882 0
M  V30 24974 H 2327.42 -0.6319 0.411362 0
M  V30 24975 H 2330.07 -1.0508 1.50434 0
M  V30 24976 H 2328.45 -3.67741 1.46911 0
M  V30 24977 H 2329.63 -2.31646 3.98342 0
M  V30 24978 H 2327.94 -2.2285 3.51748 0
M  V30 24979 H 2330.54 -4.77669 2.40284 0
M  V30 24980 H 2330.88 -4.07746 0.83959 0
M  V30 24981 H 2331.42 -3.23513 2.31483 0
M  V30 24982 H 2328.15 -3.96034 5.22339 0
M  V30 24983 H 2327.67 -4.72705 3.69201 0
M  V30 24984 H 2329.35 -4.85961 4.27143 0
M  V30 24985 N 2329.49 -1.07901 -1.1487 0
M  V30 24986 C 2330.9 -0.827392 -1.67365 0
M  V30 24987 C 2331.25 0.64666 -1.85237 0
M  V30 24988 O 2330.37 1.50001 -1.55976 0
M  V30 24989 C 2330.97 -1.49537 -3.04013 0
M  V30 24990 C 2329.53 -1.29112 -3.53563 0
M  V30 24991 C 2328.67 -1.56147 -2.29158 0
M  V30 24992 H 2331.62 -1.2403 -0.990061 0
M  V30 24993 H 2331.65 -0.919708 -3.69218 0
M  V30 24994 H 2331.16 -2.56819 -2.90974 0
M  V30 24995 H 2329.26 -0.238778 -3.71834 0
M  V30 24996 H 2329.37 -2.01519 -4.34657 0
M  V30 24997 H 2327.74 -0.982758 -2.34976 0
M  V30 24998 H 2328.52 -2.64623 -2.187 0
M  V30 24999 N 2330.96 1.31811 -0.863929 0
M  V30 25000 C 2332.38 1.49638 -0.55503 0
M  V30 25001 C 2332.58 1.79668 0.912234 0
M  V30 25002 O 2331.64 1.87174 1.69476 0
M  V30 25003 C 2332.95 2.63429 -1.45003 0
M  V30 25004 C 2334.5 2.77313 -1.45143 0
M  V30 25005 C 2334.97 3.94193 -2.33186 0
M  V30 25006 N 2336.46 4.0147 -2.31032 0
M  V30 25007 C 2337.2 4.91165 -2.95879 0
M  V30 25008 N 2336.69 5.85803 -3.69873 0
M  V30 25009 N 2338.49 4.84362 -2.85219 0
M  V30 25010 H 2330.64 1.10586 -1.81341 0
M  V30 25011 H 2332.9 0.545881 -0.77506 0
M  V30 25012 H 2332.61 2.47996 -2.49381 0
M  V30 25013 H 2332.48 3.59429 -1.14416 0
M  V30 25014 H 2334.87 2.92164 -0.415253 0
M  V30 25015 H 2334.95 1.81998 -1.79751 0
M  V30 25016 H 2334.59 3.80101 -3.36877 0
M  V30 25017 H 2334.52 4.88803 -1.95906 0
M  V30 25018 H 2337.01 3.33756 -1.77244 0
M  V30 25019 H 2337.33 6.50961 -4.16497 0
M  V30 25020 H 2335.67 5.85801 -3.73981 0
M  V30 25021 H 2338.86 4.09401 -2.26955 0
M  V30 25022 H 2339.04 5.5406 -3.36037 0
M  V30 25023 N 2332.44 0.62277 1.44773 0
M  V30 25024 C 2333.85 0.207259 1.85546 0
M  V30 25025 C 2334.2 -1.23942 1.52095 0
M  V30 25026 O 2333.33 -1.9419 0.954954 0
M  V30 25027 C 2333.92 0.369372 3.3678 0
M  V30 25028 C 2332.48 0.00843463 3.76399 0
M  V30 25029 C 2331.63 0.686698 2.68663 0
M  V30 25030 H 2334.58 0.828477 1.35359 0
M  V30 25031 H 2334.6 -0.394095 3.78454 0
M  V30 25032 H 2334.11 1.42237 3.61096 0
M  V30 25033 H 2332.21 -1.04315 3.577 0
M  V30 25034 H 2332.33 0.412668 4.77319 0
M  V30 25035 H 2330.69 0.122822 2.54404 0
M  V30 25036 H 2331.47 1.74213 2.95812 0
M  V30 25037 N 2333.92 -1.53367 0.362817 0
M  V30 25038 C 2334.87 -2.25647 -0.484968 0
M  V30 25039 C 2335.84 -1.26212 -1.0798 0
M  V30 25040 O 2337.02 -1.54988 -1.11281 0
M  V30 25041 C 2334.16 -3.04703 -1.62018 0
M  V30 25042 C 2333.27 -4.19026 -1.05079 0
M  V30 25043 C 2332.41 -4.85529 -2.15488 0
M  V30 25044 C 2331.45 -5.91887 -1.56 0
M  V30 25045 N 2330.59 -6.52093 -2.60229 0
M  V30 25046 H 2335.43 -2.97681 0.137916 0
M  V30 25047 H 2332.96 -1.46883 0.0798319 0
M  V30 25048 H 2334.92 -3.48811 -2.28881 0
M  V30 25049 H 2333.55 -2.34931 -2.21376 0
M  V30 25050 H 2332.6 -3.79423 -0.272524 0
M  V30 25051 H 2333.91 -4.95465 -0.575839 0
M  V30 25052 H 2333.07 -5.32806 -2.90177 0
M  V30 25053 H 2331.81 -4.08556 -2.66333 0
M  V30 25054 H 2330.81 -5.43974 -0.798243 0
M  V30 25055 H 2332.04 -6.70779 -1.05982 0
M  V30 25056 H 2329.98 -5.77974 -3.10294 0
M  V30 25057 H 2329.9 -7.24063 -2.17413 0
M  V30 25058 H 2331.17 -7.0402 -3.34629 0
M  V30 25059 N 2335.4 -0.091913 -1.57332 0
M  V30 25060 C 2336.64 0.567279 -1.95329 0
M  V30 25061 C 2337 1.6599 -0.972895 0
M  V30 25062 O 2336.29 1.916 0.00162888 0
M  V30 25063 C 2336.49 1.17045 -3.37691 0
M  V30 25064 C 2336.32 0.137796 -4.49489 0
M  V30 25065 C 2335.09 -0.284604 -5.04498 0
M  V30 25066 C 2337.28 -0.6328 -5.10392 0
M  V30 25067 N 2335.27 -1.30586 -5.9985 0
M  V30 25068 C 2336.64 -1.50598 -6.01432 0
M  V30 25069 C 2338.69 -0.686667 -4.93142 0
M  V30 25070 C 2337.39 -2.42827 -6.77073 0
M  V30 25071 C 2339.42 -1.59656 -5.69442 0
M  V30 25072 C 2338.78 -2.45736 -6.60146 0
M  V30 25073 H 2334.88 0.178009 -0.76147 0
M  V30 25074 H 2337.47 -0.17374 -1.93923 0
M  V30 25075 H 2335.64 1.88131 -3.39796 0
M  V30 25076 H 2337.37 1.79175 -3.62875 0
M  V30 25077 H 2334.12 0.10251 -4.73489 0
M  V30 25078 H 2334.55 -1.8146 -6.52228 0
M  V30 25079 H 2339.19 -0.0353183 -4.22785 0
M  V30 25080 H 2336.91 -3.08988 -7.46694 0
M  V30 25081 H 2340.49 -1.64333 -5.58109 0
M  V30 25082 H 2339.37 -3.15 -7.18154 0
M  V30 25083 N 2336.88 1.56548 0.181765 0
M  V30 25084 C 2337.82 1.95597 1.22518 0
M  V30 25085 C 2338.79 0.818398 1.44539 0
M  V30 25086 O 2339.98 1.07766 1.57452 0
M  V30 25087 C 2337.12 2.31216 2.56189 0
M  V30 25088 C 2336.23 3.58101 2.41635 0
M  V30 25089 C 2335.37 3.82981 3.68102 0
M  V30 25090 C 2334.41 5.03248 3.48436 0
M  V30 25091 N 2333.54 5.24314 4.66947 0
M  V30 25092 H 2338.38 2.8455 0.885176 0
M  V30 25093 H 2335.92 1.40806 0.425694 0
M  V30 25094 H 2337.88 2.49888 3.34084 0
M  V30 25095 H 2336.51 1.45387 2.88206 0
M  V30 25096 H 2335.56 3.47403 1.5497 0
M  V30 25097 H 2336.87 4.46153 2.23045 0
M  V30 25098 H 2336.03 4.01964 4.54434 0
M  V30 25099 H 2334.76 2.93285 3.8966 0
M  V30 25100 H 2333.77 4.84175 2.6049 0
M  V30 25101 H 2334.99 5.94466 3.2831 0
M  V30 25102 H 2332.94 4.37567 4.88744 0
M  V30 25103 H 2332.86 6.06569 4.51231 0
M  V30 25104 H 2334.13 5.47766 5.54592 0
M  V30 25105 N 2338.35 -0.449957 1.5104 0
M  V30 25106 C 2339.77 -1.03023 1.55702 0
M  V30 25107 C 2340.12 -1.92622 0.372973 0
M  V30 25108 O 2339.24 -2.10262 -0.511734 0
M  V30 25109 C 2339.84 -1.87518 2.82174 0
M  V30 25110 C 2338.4 -2.40617 2.89449 0
M  V30 25111 C 2337.54 -1.195 2.5023 0
M  V30 25112 H 2340.49 -0.231718 1.56999 0
M  V30 25113 H 2340.51 -2.7283 2.65224 0
M  V30 25114 H 2340.03 -1.2228 3.68333 0
M  V30 25115 H 2338.13 -3.09347 2.07691 0
M  V30 25116 H 2338.24 -2.74278 3.92821 0
M  V30 25117 H 2336.6 -1.5364 2.03142 0
M  V30 25118 H 2337.39 -0.558913 3.3872 0
M  V30 25119 N 2339.83 -1.40974 -0.704569 0
M  V30 25120 C 2340.76 -1.38036 -1.82972 0
M  V30 25121 C 2341.78 -0.283959 -1.60304 0
M  V30 25122 O 2342.97 -0.545072 -1.69974 0
M  V30 25123 C 2340.07 -1.12801 -3.19576 0
M  V30 25124 C 2339.24 -2.34309 -3.69348 0
M  V30 25125 C 2338.3 -2.05066 -4.84597 0
M  V30 25126 O 2337.32 -2.78029 -4.96678 0
M  V30 25127 N 2338.53 -1.03538 -5.71192 0
M  V30 25128 H 2341.29 -2.35009 -1.85987 0
M  V30 25129 H 2338.85 -1.3547 -0.886543 0
M  V30 25130 H 2340.84 -0.912057 -3.94289 0
M  V30 25131 H 2339.41 -0.244574 -3.11642 0
M  V30 25132 H 2338.63 -2.71664 -2.85644 0
M  V30 25133 H 2339.92 -3.15287 -3.99339 0
M  V30 25134 H 2339.32 -0.431317 -5.64053 0
M  V30 25135 H 2337.88 -0.879319 -6.45841 0
M  V30 25136 N 2341.31 0.937917 -1.26653 0
M  V30 25137 C 2342.27 2.01865 -1.08549 0
M  V30 25138 C 2343.27 1.60767 -0.032761 0
M  V30 25139 O 2344.46 1.71992 -0.276458 0
M  V30 25140 C 2341.6 3.34611 -0.651769 0
M  V30 25141 H 2342.79 2.19357 -2.04506 0
M  V30 25142 H 2340.34 1.11732 -1.09296 0
M  V30 25143 H 2341.08 3.22818 0.309639 0
M  V30 25144 H 2340.86 3.65795 -1.41195 0
M  V30 25145 H 2342.35 4.14001 -0.547046 0
M  V30 25146 N 2342.79 1.08509 1.14296 0
M  V30 25147 C 2344.04 0.810338 1.84706 0
M  V30 25148 C 2344.35 -0.666238 1.83904 0
M  V30 25149 O 2345.56 -1.05619 2.50114 0
M  V30 25150 C 2344.01 1.39963 3.31569 0
M  V30 25151 C 2343.62 2.90807 3.40786 0
M  V30 25152 C 2345.36 1.20342 4.07085 0
M  V30 25153 C 2343.27 3.42869 4.81866 0
M  V30 25154 H 2342.2 0.299466 0.69198 0
M  V30 25155 H 2344.85 1.30663 1.28838 0
M  V30 25156 H 2343.23 0.831045 3.87182 0
M  V30 25157 H 2344.41 3.53811 2.95219 0
M  V30 25158 H 2342.72 3.09355 2.78727 0
M  V30 25159 H 2345.32 1.56702 5.11223 0
M  V30 25160 H 2345.66 0.14331 4.16053 0
M  V30 25161 H 2346.2 1.739 3.57776 0
M  V30 25162 H 2342.94 4.48457 4.78086 0
M  V30 25163 H 2342.46 2.84624 5.27967 0
M  V30 25164 H 2344.13 3.39519 5.50759 0
M  V30 25165 N 2344.27 -1.31351 0.870907 0
M  V30 25166 C 2345.51 -1.96964 0.483022 0
M  V30 25167 C 2345.85 -1.68674 -0.962433 0
M  V30 25168 O 2345.12 -0.983739 -1.67788 0
M  V30 25169 C 2345.4 -3.52376 0.741814 0
M  V30 25170 C 2345.26 -3.90236 2.23687 0
M  V30 25171 C 2346.58 -4.39604 0.208915 0
M  V30 25172 H 2343.69 -0.715438 0.176967 0
M  V30 25173 H 2346.34 -1.55462 1.09232 0
M  V30 25174 H 2344.49 -3.87858 0.223217 0
M  V30 25175 H 2346.16 -3.64851 2.82279 0
M  V30 25176 H 2344.4 -3.38809 2.70907 0
M  V30 25177 H 2345.07 -4.986 2.36859 0
M  V30 25178 H 2347.55 -4.10951 0.652601 0
M  V30 25179 H 2346.42 -5.47295 0.419432 0
M  V30 25180 H 2346.69 -4.33065 -0.889199 0
M  V30 25181 N 2345.74 -0.630439 -1.44441 0
M  V30 25182 C 2346.99 -0.134652 -2.02052 0
M  V30 25183 C 2347.32 1.24324 -1.49579 0
M  V30 25184 O 2346.57 1.83879 -0.669838 0
M  V30 25185 C 2346.87 -0.0698463 -3.57332 0
M  V30 25186 C 2346.54 -1.38643 -4.29056 0
M  V30 25187 C 2345.2 -1.74702 -4.48367 0
M  V30 25188 C 2347.55 -2.25551 -4.69868 0
M  V30 25189 C 2344.88 -2.97378 -5.0575 0
M  V30 25190 C 2347.23 -3.47497 -5.2861 0
M  V30 25191 C 2345.9 -3.8378 -5.4614 0
M  V30 25192 H 2345.17 -0.0492728 -0.73936 0
M  V30 25193 H 2347.81 -0.816617 -1.73216 0
M  V30 25194 H 2346.12 0.695485 -3.85578 0
M  V30 25195 H 2347.82 0.330273 -3.99638 0
M  V30 25196 H 2344.41 -1.09582 -4.14355 0
M  V30 25197 H 2348.59 -1.98987 -4.54662 0
M  V30 25198 H 2343.85 -3.25567 -5.1751 0
M  V30 25199 H 2348.02 -4.15073 -5.59184 0
M  V30 25200 H 2345.65 -4.78921 -5.90372 0
M  V30 25201 N 2347.22 1.53172 -0.370945 0
M  V30 25202 C 2348.13 2.29621 0.480783 0
M  V30 25203 C 2349.15 1.358 1.08786 0
M  V30 25204 O 2350.32 1.6886 1.09765 0
M  V30 25205 C 2347.39 3.07457 1.60222 0
M  V30 25206 C 2346.45 4.16955 1.02212 0
M  V30 25207 C 2345.68 4.9107 2.09012 0
M  V30 25208 O 2345.91 4.65097 3.30214 0
M  V30 25209 O 2344.84 5.7687 1.71768 0
M  V30 25210 H 2348.67 3.0337 -0.141474 0
M  V30 25211 H 2346.25 1.48787 -0.135172 0
M  V30 25212 H 2348.13 3.56045 2.2541 0
M  V30 25213 H 2346.81 2.36539 2.20978 0
M  V30 25214 H 2345.72 3.72606 0.333998 0
M  V30 25215 H 2347.05 4.90055 0.459044 0
M  V30 25216 N 2348.7 0.100255 1.57281 0
M  V30 25217 C 2349.95 -0.56195 1.93714 0
M  V30 25218 C 2350.26 -1.69016 0.984522 0
M  V30 25219 O 2351.47 -2.41387 1.24277 0
M  V30 25220 C 2349.92 -1.051 3.44212 0
M  V30 25221 C 2349.53 0.0477415 4.47975 0
M  V30 25222 C 2351.28 -1.68564 3.89598 0
M  V30 25223 C 2349.18 -0.456952 5.89632 0
M  V30 25224 H 2348.11 -0.213688 0.723086 0
M  V30 25225 H 2350.76 0.177089 1.82643 0
M  V30 25226 H 2349.15 -1.84388 3.50452 0
M  V30 25227 H 2350.32 0.823412 4.53383 0
M  V30 25228 H 2348.64 0.587888 4.12229 0
M  V30 25229 H 2351.23 -2.07406 4.92836 0
M  V30 25230 H 2351.58 -2.55682 3.28531 0
M  V30 25231 H 2352.11 -0.958494 3.8608 0
M  V30 25232 H 2348.85 0.377731 6.54411 0
M  V30 25233 H 2348.37 -1.19951 5.87683 0
M  V30 25234 H 2350.05 -0.924258 6.40364 0
M  V30 25235 N 2350.18 -1.56643 -0.17346 0
M  V30 25236 C 2351.42 -1.83669 -0.896951 0
M  V30 25237 C 2351.78 -0.680874 -1.79522 0
M  V30 25238 O 2352.98 -0.831533 -2.55615 0
M  V30 25239 C 2351.26 -3.15801 -1.67346 0
M  V30 25240 S 2352.81 -3.64302 -2.446 0
M  V30 25241 H 2349.63 -0.644398 -0.300452 0
M  V30 25242 H 2352.23 -1.94854 -0.158741 0
M  V30 25243 H 2350.94 -3.97916 -1.00455 0
M  V30 25244 H 2350.47 -3.07551 -2.45308 0
M  V30 25245 H 2352.48 -3.31458 -3.69256 0
M  V30 25246 N 2351.66 0.44194 -1.51277 0
M  V30 25247 C 2352.59 1.55588 -1.66936 0
M  V30 25248 C 2353.57 1.54162 -0.516986 0
M  V30 25249 O 2354.75 1.73357 -0.74024 0
M  V30 25250 C 2351.88 2.94171 -1.67872 0
M  V30 25251 C 2350.93 3.13641 -2.89019 0
M  V30 25252 S 2351.76 2.90428 -4.49902 0
M  V30 25253 C 2352.91 4.31301 -4.53575 0
M  V30 25254 H 2353.15 1.42071 -2.61157 0
M  V30 25255 H 2350.68 0.631317 -1.40903 0
M  V30 25256 H 2352.64 3.74055 -1.69095 0
M  V30 25257 H 2351.3 3.05055 -0.74835 0
M  V30 25258 H 2350.49 4.14952 -2.86061 0
M  V30 25259 H 2350.09 2.41575 -2.85513 0
M  V30 25260 H 2352.39 5.24426 -4.28933 0
M  V30 25261 H 2353.33 4.39293 -5.55362 0
M  V30 25262 H 2353.74 4.14741 -3.8295 0
M  V30 25263 N 2353.14 1.41345 0.697083 0
M  V30 25264 C 2354.08 1.43276 1.83234 0
M  V30 25265 C 2355.08 0.310976 1.66521 0
M  V30 25266 O 2356.28 0.48293 1.73401 0
M  V30 25267 H 2352.66 0.448259 0.603794 0
M  V30 25268 H 2354.63 2.38957 1.78723 0
M  V30 25269 C 2353.38 1.33034 3.21243 0
M  V30 25270 H 2352.7 2.18639 3.34719 0
M  V30 25271 H 2354.14 1.38446 4.0076 0
M  V30 25272 C 2352.6 0.0425227 3.36873 0
M  V30 25273 O 2353.13 -0.913352 3.91179 0
M  V30 25274 N 2351.34 -0.0330635 2.90581 0
M  V30 25275 H 2350.88 0.745549 2.46575 0
M  V30 25276 H 2350.84 -0.894146 3.01417 0
M  V30 25277 N 2354.61 -0.931187 1.27148 0
M  V30 25278 C 2355.84 -1.71265 1.16085 0
M  V30 25279 C 2356.26 -1.86671 -0.282739 0
M  V30 25280 O 2355.61 -1.38124 -1.19281 0
M  V30 25281 C 2355.66 -3.11414 1.83585 0
M  V30 25282 O 2355.39 -2.96735 3.22304 0
M  V30 25283 C 2356.89 -4.05729 1.78604 0
M  V30 25284 H 2354.11 -0.535922 0.403768 0
M  V30 25285 H 2356.65 -1.16668 1.67955 0
M  V30 25286 H 2354.81 -3.62882 1.35629 0
M  V30 25287 H 2355.22 -3.85312 3.55858 0
M  V30 25288 H 2356.69 -5.01593 2.30453 0
M  V30 25289 H 2357.17 -4.32668 0.75464 0
M  V30 25290 H 2357.78 -3.60184 2.26158 0
M  V30 25291 N 2356.09 -1.09114 -1.13719 0
M  V30 25292 C 2357.04 -0.727629 -2.1903 0
M  V30 25293 C 2358.01 0.289627 -1.63555 0
M  V30 25294 O 2359.19 0.171992 -1.90023 0
M  V30 25295 C 2356.33 -0.150881 -3.4477 0
M  V30 25296 C 2355.45 -1.22179 -4.14363 0
M  V30 25297 C 2354.58 -0.608135 -5.27707 0
M  V30 25298 C 2353.62 -1.66058 -5.89145 0
M  V30 25299 N 2352.76 -1.06819 -6.93927 0
M  V30 25300 H 2357.6 -1.62996 -2.49472 0
M  V30 25301 H 2355.13 -0.814412 -1.22498 0
M  V30 25302 H 2357.09 0.201284 -4.16714 0
M  V30 25303 H 2355.72 0.714728 -3.14788 0
M  V30 25304 H 2354.77 -1.69128 -3.40734 0
M  V30 25305 H 2356.09 -2.01903 -4.5611 0
M  V30 25306 H 2355.24 -0.20463 -6.06355 0
M  V30 25307 H 2353.98 0.220683 -4.872 0
M  V30 25308 H 2352.98 -2.07366 -5.09195 0
M  V30 25309 H 2354.21 -2.492 -6.31725 0
M  V30 25310 H 2352.16 -0.260591 -6.55482 0
M  V30 25311 H 2352.07 -1.80243 -7.34199 0
M  V30 25312 H 2353.34 -0.69078 -7.76433 0
M  V30 25313 N 2357.57 1.30887 -0.877861 0
M  V30 25314 C 2358.82 1.96414 -0.492731 0
M  V30 25315 C 2359.14 1.69348 0.956641 0
M  V30 25316 O 2358.4 0.986943 1.68991 0
M  V30 25317 C 2358.7 3.50361 -0.705809 0
M  V30 25318 C 2358.36 3.97463 -2.12917 0
M  V30 25319 C 2357.03 4.10036 -2.51842 0
M  V30 25320 C 2359.38 4.22127 -3.05709 0
M  V30 25321 C 2356.71 4.44628 -3.82783 0
M  V30 25322 C 2359.06 4.58186 -4.36174 0
M  V30 25323 C 2357.72 4.68967 -4.75002 0
M  V30 25324 H 2356.99 0.718729 -0.180303 0
M  V30 25325 H 2359.64 1.55881 -1.11236 0
M  V30 25326 H 2357.94 3.918 -0.00309945 0
M  V30 25327 H 2359.64 3.99123 -0.387526 0
M  V30 25328 H 2356.23 3.88179 -1.81701 0
M  V30 25329 H 2360.42 4.11901 -2.7686 0
M  V30 25330 H 2355.67 4.51173 -4.12617 0
M  V30 25331 H 2359.85 4.76222 -5.08119 0
M  V30 25332 H 2357.47 4.95527 -5.76504 0
M  V30 25333 N 2359.05 0.638091 1.44105 0
M  V30 25334 C 2360.32 0.0759664 1.95452 0
M  V30 25335 C 2360.7 -1.40012 1.57987 0
M  V30 25336 O 2360.05 -2.11804 0.857398 0
M  V30 25337 C 2360.26 0.306193 3.47654 0
M  V30 25338 C 2361.61 0.203083 4.24114 0
M  V30 25339 O 2362.63 0.237933 3.55404 0
M  V30 25340 O 2361.49 0.113923 5.46381 0
M  V30 25341 H 2358.59 -0.0183187 0.826797 0
M  V30 25342 H 2361.13 0.710278 1.54121 0
M  V30 25343 H 2359.91 1.33016 3.67998 0
M  V30 25344 H 2359.53 -0.361921 3.95949 0
M  V30 25345 N 2360.53 -1.52973 0.379063 0
M  V30 25346 C 2361.46 -2.22545 -0.504893 0
M  V30 25347 C 2362.44 -1.22233 -1.07228 0
M  V30 25348 O 2363.62 -1.51184 -1.12586 0
M  V30 25349 C 2360.75 -2.93069 -1.69789 0
M  V30 25350 C 2359.79 -4.07565 -1.25671 0
M  V30 25351 S 2360.63 -5.34931 -0.246758 0
M  V30 25352 C 2361.78 -6.08973 -1.44577 0
M  V30 25353 H 2362.02 -2.97176 0.0859188 0
M  V30 25354 H 2359.55 -1.53535 0.16321 0
M  V30 25355 H 2361.51 -3.34313 -2.38213 0
M  V30 25356 H 2360.17 -2.18137 -2.25998 0
M  V30 25357 H 2359.36 -4.55974 -2.14717 0
M  V30 25358 H 2358.96 -3.68281 -0.651519 0
M  V30 25359 H 2361.25 -6.34523 -2.37458 0
M  V30 25360 H 2362.2 -7.00963 -1.0028 0
M  V30 25361 H 2362.61 -5.39604 -1.65794 0
M  V30 25362 N 2362 -0.108595 -1.57225 0
M  V30 25363 C 2363.25 0.551669 -1.94009 0
M  V30 25364 C 2363.57 1.68492 -0.993471 0
M  V30 25365 O 2364.77 2.40724 -1.25555 0
M  V30 25366 C 2363.23 1.03273 -3.44765 0
M  V30 25367 C 2362.84 -0.071498 -4.47943 0
M  V30 25368 C 2364.58 1.66496 -3.90486 0
M  V30 25369 C 2362.49 0.425676 -5.89866 0
M  V30 25370 H 2361.42 0.20985 -0.724209 0
M  V30 25371 H 2364.07 -0.186773 -1.82547 0
M  V30 25372 H 2362.45 1.82527 -3.51425 0
M  V30 25373 H 2363.62 -0.847445 -4.5294 0
M  V30 25374 H 2361.94 -0.609741 -4.11912 0
M  V30 25375 H 2364.54 2.04789 -4.93929 0
M  V30 25376 H 2364.88 2.53936 -3.29882 0
M  V30 25377 H 2365.41 0.938006 -3.86583 0
M  V30 25378 H 2362.15 -0.412431 -6.54201 0
M  V30 25379 H 2361.67 1.16833 -5.88311 0
M  V30 25380 H 2363.35 0.890285 -6.40845 0
M  V30 25381 N 2363.48 1.56732 0.16515 0
M  V30 25382 C 2364.73 1.81534 0.879111 0
M  V30 25383 C 2365.04 0.686874 1.83143 0
M  V30 25384 O 2366.25 0.819989 2.58821 0
M  V30 25385 C 2364.71 3.21689 1.61382 0
M  V30 25386 C 2364.31 4.42421 0.704826 0
M  V30 25387 C 2366.06 3.55778 2.31564 0
M  V30 25388 C 2363.96 5.73598 1.44012 0
M  V30 25389 H 2362.89 0.676963 0.332021 0
M  V30 25390 H 2365.55 1.83025 0.131976 0
M  V30 25391 H 2363.93 3.14533 2.40593 0
M  V30 25392 H 2365.1 4.60772 -0.0507625 0
M  V30 25393 H 2363.42 4.16248 0.112346 0
M  V30 25394 H 2366.01 4.51033 2.87182 0
M  V30 25395 H 2366.36 2.80956 3.07196 0
M  V30 25396 H 2366.89 3.64515 1.5929 0
M  V30 25397 H 2363.63 6.51467 0.726005 0
M  V30 25398 H 2363.15 5.59213 2.16888 0
M  V30 25399 H 2364.83 6.15767 1.98595 0
M  V30 25400 N 2364.96 -0.433911 1.51509 0
M  V30 25401 C 2365.89 -1.54701 1.67758 0
M  V30 25402 C 2366.87 -1.53886 0.525154 0
M  V30 25403 O 2368.05 -1.72962 0.749423 0
M  V30 25404 C 2365.18 -2.93277 1.69429 0
M  V30 25405 C 2364.23 -3.12103 2.90678 0
M  V30 25406 S 2365.06 -2.88038 4.51436 0
M  V30 25407 C 2366.22 -4.28889 4.55856 0
M  V30 25408 H 2366.45 -1.40684 2.61907 0
M  V30 25409 H 2363.98 -0.623835 1.41236 0
M  V30 25410 H 2365.94 -3.73153 1.71077 0
M  V30 25411 H 2364.6 -3.04654 0.764517 0
M  V30 25412 H 2363.8 -4.13429 2.88258 0
M  V30 25413 H 2363.4 -2.40057 2.8679 0
M  V30 25414 H 2365.69 -5.22144 4.31708 0
M  V30 25415 H 2366.63 -4.36342 5.57684 0
M  V30 25416 H 2367.04 -4.12704 3.85144 0
M  V30 25417 N 2366.44 -1.41713 -0.689577 0
M  V30 25418 C 2367.37 -1.4681 -1.81574 0
M  V30 25419 C 2368.35 -0.326134 -1.66944 0
M  V30 25420 O 2369.53 -0.53841 -1.86587 0
M  V30 25421 C 2366.66 -1.35541 -3.19759 0
M  V30 25422 C 2365.62 -2.47611 -3.49103 0
M  V30 25423 C 2364.94 -2.21405 -4.86707 0
M  V30 25424 C 2366.24 -3.89945 -3.47477 0
M  V30 25425 H 2367.94 -2.41061 -1.77566 0
M  V30 25426 H 2365.48 -1.16027 -0.852866 0
M  V30 25427 H 2367.44 -1.37717 -3.98261 0
M  V30 25428 H 2366.16 -0.377765 -3.24408 0
M  V30 25429 H 2364.82 -2.44727 -2.72955 0
M  V30 25430 H 2364.47 -1.21969 -4.87988 0
M  V30 25431 H 2364.17 -2.96506 -5.07304 0
M  V30 25432 H 2365.69 -2.25307 -5.67511 0
M  V30 25433 H 2367.11 -3.94512 -4.15973 0
M  V30 25434 H 2365.5 -4.64778 -3.79607 0
M  V30 25435 H 2366.57 -4.1767 -2.46333 0
M  V30 25436 N 2367.92 0.924431 -1.2764 0
M  V30 25437 C 2369.16 1.67247 -1.1417 0
M  V30 25438 C 2369.49 1.91984 0.311829 0
M  V30 25439 O 2368.75 1.51055 1.24422 0
M  V30 25440 C 2369.05 3.04321 -1.87412 0
M  V30 25441 C 2368.71 2.99283 -3.37255 0
M  V30 25442 C 2367.37 2.97616 -3.78125 0
M  V30 25443 C 2369.73 2.90328 -4.3285 0
M  V30 25444 C 2367.05 2.84781 -5.12949 0
M  V30 25445 C 2369.41 2.79035 -5.67735 0
M  V30 25446 C 2368.07 2.75719 -6.07894 0
M  V30 25447 H 2367.34 0.611999 -0.417777 0
M  V30 25448 H 2369.99 1.07783 -1.58288 0
M  V30 25449 H 2368.29 3.67508 -1.35812 0
M  V30 25450 H 2369.99 3.61082 -1.74415 0
M  V30 25451 H 2366.58 3.01369 -3.04753 0
M  V30 25452 H 2370.76 2.90712 -4.02244 0
M  V30 25453 H 2366.02 2.80603 -5.43205 0
M  V30 25454 H 2370.19 2.71072 -6.41477 0
M  V30 25455 H 2367.82 2.65531 -7.12318 0
M  V30 25456 N 2369.39 1.09715 1.13139 0
M  V30 25457 C 2370.64 0.829883 1.83836 0
M  V30 25458 C 2370.96 -0.646696 1.846 0
M  V30 25459 O 2372.16 -1.0296 2.5122 0
M  V30 25460 C 2370.62 1.43472 3.30066 0
M  V30 25461 C 2370.23 2.94405 3.37682 0
M  V30 25462 C 2371.97 1.24652 4.05786 0
M  V30 25463 C 2369.88 3.4796 4.78202 0
M  V30 25464 H 2368.81 0.306789 0.688765 0
M  V30 25465 H 2371.46 1.32023 1.27445 0
M  V30 25466 H 2369.84 0.872064 3.86278 0
M  V30 25467 H 2371.01 3.56923 2.91449 0
M  V30 25468 H 2369.33 3.12293 2.7543 0
M  V30 25469 H 2371.93 1.62115 5.09532 0
M  V30 25470 H 2372.27 0.18743 4.15878 0
M  V30 25471 H 2372.8 1.77685 3.55912 0
M  V30 25472 H 2369.54 4.53503 4.73303 0
M  V30 25473 H 2369.06 2.90208 5.24919 0
M  V30 25474 H 2370.74 3.45341 5.47127 0
M  V30 25475 N 2370.87 -1.30419 0.88479 0
M  V30 25476 C 2372.12 -1.95762 0.502146 0
M  V30 25477 C 2372.44 -1.70194 -0.951785 0
M  V30 25478 O 2371.71 -1.02543 -1.66918 0
M  V30 25479 H 2370.29 -0.724312 0.182707 0
M  V30 25480 H 2372.95 -1.58953 1.12782 0
M  V30 25481 H 2372.05 -3.04774 0.672242 0
M  V30 25482 N 2372.35 -0.645724 -1.43764 0
M  V30 25483 C 2373.28 0.0370066 -2.33471 0
M  V30 25484 C 2374.26 0.819753 -1.49044 0
M  V30 25485 O 2375.45 0.782727 -1.77727 0
M  V30 25486 C 2372.58 1.00924 -3.32313 0
M  V30 25487 C 2371.53 0.337126 -4.2667 0
M  V30 25488 C 2370.86 1.42028 -5.15492 0
M  V30 25489 C 2372.16 -0.765797 -5.16655 0
M  V30 25490 H 2373.85 -0.71212 -2.90808 0
M  V30 25491 H 2371.4 -0.343901 -1.39833 0
M  V30 25492 H 2373.35 1.49571 -3.93962 0
M  V30 25493 H 2372.07 1.78943 -2.73216 0
M  V30 25494 H 2370.73 -0.128836 -3.66374 0
M  V30 25495 H 2370.38 2.19172 -4.52739 0
M  V30 25496 H 2370.08 0.975864 -5.7944 0
M  V30 25497 H 2371.6 1.90827 -5.80015 0
M  V30 25498 H 2373.02 -0.361802 -5.72157 0
M  V30 25499 H 2371.42 -1.13423 -5.89284 0
M  V30 25500 H 2372.49 -1.62691 -4.56793 0
M  V30 25501 N 2373.83 1.5277 -0.38717 0
M  V30 25502 C 2374.78 2.27927 0.463912 0
M  V30 25503 C 2375.77 1.31743 1.0649 0
M  V30 25504 O 2376.98 1.49289 1.00562 0
M  V30 25505 H 2373.35 0.732912 0.168357 0
M  V30 25506 H 2375.32 2.97785 -0.191462 0
M  V30 25507 C 2374.07 3.09715 1.58024 0
M  V30 25508 H 2373.39 3.83583 1.12711 0
M  V30 25509 H 2374.83 3.65445 2.15002 0
M  V30 25510 C 2373.29 2.21894 2.53505 0
M  V30 25511 O 2373.82 1.84428 3.5686 0
M  V30 25512 N 2372.03 1.86097 2.23196 0
M  V30 25513 H 2371.58 2.16763 1.39181 0
M  V30 25514 H 2371.53 1.27626 2.87331 0
M  V30 25515 N 2375.31 0.116931 1.57166 0
M  V30 25516 C 2376.24 -0.871254 2.10913 0
M  V30 25517 C 2377.22 -1.26222 1.02502 0
M  V30 25518 O 2378.4 -1.36364 1.30143 0
M  V30 25519 C 2375.53 -2.1657 2.60414 0
M  V30 25520 C 2374.57 -1.92295 3.8069 0
M  V30 25521 S 2375.41 -1.1411 5.23201 0
M  V30 25522 C 2376.56 -2.44738 5.76068 0
M  V30 25523 H 2376.8 -0.414086 2.94402 0
M  V30 25524 H 2374.33 -0.0968019 1.54096 0
M  V30 25525 H 2376.29 -2.90945 2.89588 0
M  V30 25526 H 2374.95 -2.59405 1.7711 0
M  V30 25527 H 2374.14 -2.88203 4.13467 0
M  V30 25528 H 2373.74 -1.26041 3.52122 0
M  V30 25529 H 2376.04 -3.40589 5.85666 0
M  V30 25530 H 2376.98 -2.16509 6.74188 0
M  V30 25531 H 2377.39 -2.54011 5.04122 0
M  V30 25532 N 2376.78 -1.56818 -0.156836 0
M  V30 25533 C 2377.71 -2.00553 -1.19586 0
M  V30 25534 C 2378.7 -0.883452 -1.45359 0
M  V30 25535 O 2379.88 -1.15057 -1.56447 0
M  V30 25536 C 2377.01 -2.37777 -2.53139 0
M  V30 25537 C 2375.96 -3.53079 -2.41907 0
M  V30 25538 C 2375.29 -3.76088 -3.80082 0
M  V30 25539 C 2376.59 -4.86065 -1.91149 0
M  V30 25540 H 2378.28 -2.87601 -0.832243 0
M  V30 25541 H 2375.83 -1.38365 -0.398894 0
M  V30 25542 H 2377.78 -2.66972 -3.26042 0
M  V30 25543 H 2376.51 -1.47655 -2.91317 0
M  V30 25544 H 2375.17 -3.24034 -1.71457 0
M  V30 25545 H 2374.81 -2.83233 -4.15678 0
M  V30 25546 H 2374.51 -4.53677 -3.73431 0
M  V30 25547 H 2376.04 -4.07698 -4.54549 0
M  V30 25548 H 2377.45 -5.14042 -2.53837 0
M  V30 25549 H 2375.85 -5.67392 -1.95412 0
M  V30 25550 H 2376.92 -4.77094 -0.866589 0
M  V30 25551 N 2378.26 0.425871 -1.51737 0
M  V30 25552 C 2379.49 1.19647 -1.68796 0
M  V30 25553 C 2379.91 1.84724 -0.390197 0
M  V30 25554 O 2379.26 1.71195 0.632346 0
M  V30 25555 C 2379.31 2.27203 -2.81178 0
M  V30 25556 O 2379.03 1.64786 -4.05928 0
M  V30 25557 C 2380.54 3.17269 -3.09605 0
M  V30 25558 H 2377.76 0.360184 -0.566135 0
M  V30 25559 H 2380.3 0.503214 -1.98212 0
M  V30 25560 H 2378.45 2.92225 -2.54329 0
M  V30 25561 H 2378.87 2.35959 -4.68427 0
M  V30 25562 H 2380.34 3.88847 -3.91793 0
M  V30 25563 H 2380.82 3.78684 -2.22474 0
M  V30 25564 H 2381.43 2.57935 -3.38156 0
M  V30 25565 N 2379.74 1.42077 0.682052 0
M  V30 25566 C 2380.67 1.39413 1.80663 0
M  V30 25567 C 2381.65 0.259418 1.60517 0
M  V30 25568 O 2382.84 0.448488 1.83087 0
M  V30 25569 C 2379.96 1.17801 3.17554 0
M  V30 25570 C 2379.01 2.3417 3.56464 0
M  V30 25571 S 2379.84 3.96687 3.59722 0
M  V30 25572 C 2381 3.77404 4.99317 0
M  V30 25573 H 2381.23 2.34579 1.82648 0
M  V30 25574 H 2378.76 1.28762 0.852039 0
M  V30 25575 H 2380.72 1.06019 3.96573 0
M  V30 25576 H 2379.38 0.242334 3.13164 0
M  V30 25577 H 2378.58 2.14778 4.55946 0
M  V30 25578 H 2378.18 2.4243 2.84787 0
M  V30 25579 H 2380.47 3.37946 5.87196 0
M  V30 25580 H 2381.41 4.76536 5.23755 0
M  V30 25581 H 2381.82 3.10411 4.71493 0
M  V30 25582 N 2381.22 -0.917649 1.28129 0
M  V30 25583 C 2382.45 -1.70024 1.17895 0
M  V30 25584 C 2382.86 -1.8696 -0.262925 0
M  V30 25585 O 2382.22 -1.39382 -1.17809 0
M  V30 25586 C 2382.27 -3.09449 1.86878 0
M  V30 25587 O 2381.99 -2.933 3.25433 0
M  V30 25588 C 2383.49 -4.03811 1.82897 0
M  V30 25589 H 2380.71 -0.531609 0.409429 0
M  V30 25590 H 2383.26 -1.1488 1.69183 0
M  V30 25591 H 2381.41 -3.61423 1.3947 0
M  V30 25592 H 2381.83 -3.81516 3.59924 0
M  V30 25593 H 2383.3 -4.9912 2.3576 0
M  V30 25594 H 2383.78 -4.31844 0.800488 0
M  V30 25595 H 2384.38 -3.57765 2.29965 0
M  V30 25596 N 2382.7 -1.10314 -1.12555 0
M  V30 25597 C 2383.63 -0.772837 -2.20339 0
M  V30 25598 C 2384.61 0.25362 -1.68199 0
M  V30 25599 O 2385.79 0.119665 -1.93831 0
M  V30 25600 C 2382.92 -0.202504 -3.46709 0
M  V30 25601 C 2381.88 -1.15951 -4.11994 0
M  V30 25602 C 2381.2 -0.450438 -5.32799 0
M  V30 25603 C 2382.5 -2.5056 -4.58276 0
M  V30 25604 H 2384.2 -1.67405 -2.48226 0
M  V30 25605 H 2381.74 -0.806347 -1.19307 0
M  V30 25606 H 2383.7 0.0407012 -4.2138 0
M  V30 25607 H 2382.42 0.733945 -3.18246 0
M  V30 25608 H 2381.08 -1.38814 -3.39302 0
M  V30 25609 H 2380.73 0.490443 -5.00603 0
M  V30 25610 H 2380.43 -1.08862 -5.77428 0
M  V30 25611 H 2381.95 -0.215749 -6.10219 0
M  V30 25612 H 2383.37 -2.31852 -5.24326 0
M  V30 25613 H 2381.76 -3.10251 -5.13677 0
M  V30 25614 H 2382.83 -3.1065 -3.72323 0
M  V30 25615 N 2384.18 1.29948 -0.891694 0
M  V30 25616 C 2385.45 1.90739 -0.43334 0
M  V30 25617 C 2385.83 1.80997 1.08643 0
M  V30 25618 O 2385.18 1.23151 1.92474 0
M  V30 25619 C 2385.39 3.36132 -0.938955 0
M  V30 25620 C 2386.74 4.13185 -0.977902 0
M  V30 25621 O 2387.76 3.45003 -0.886076 0
M  V30 25622 O 2386.62 5.35013 -1.11462 0
M  V30 25623 H 2383.72 0.816119 -0.133713 0
M  V30 25624 H 2386.26 1.38469 -0.981035 0
M  V30 25625 H 2385.03 3.3734 -1.98287 0
M  V30 25626 H 2384.66 3.95867 -0.370809 0
M  V30 25627 N 2385.65 0.653339 1.4342 0
M  V30 25628 C 2386.6 -0.0605179 2.2792 0
M  V30 25629 C 2387.59 -0.794653 1.39907 0
M  V30 25630 O 2388.78 -0.677099 1.63537 0
M  V30 25631 C 2385.91 -1.02614 3.27605 0
M  V30 25632 C 2384.99 -0.290476 4.23104 0
M  V30 25633 N 2385.39 0.693055 5.01029 0
M  V30 25634 C 2383.68 -0.531906 4.42817 0
M  V30 25635 C 2384.38 1.12973 5.70624 0
M  V30 25636 N 2383.36 0.463962 5.41616 0
M  V30 25637 H 2387.16 0.694194 2.85584 0
M  V30 25638 H 2384.68 0.480629 1.55125 0
M  V30 25639 H 2386.67 -1.55235 3.86921 0
M  V30 25640 H 2385.33 -1.78092 2.71502 0
M  V30 25641 H 2386.34 1.07178 5.06689 0
M  V30 25642 H 2383.02 -1.26784 3.97784 0
M  V30 25643 H 2384.41 1.94354 6.43177 0
M  V30 25644 N 2387.13 -1.52563 0.395266 0
M  V30 25645 C 2388.36 -2.05773 -0.184639 0
M  V30 25646 C 2388.77 -1.26637 -1.40569 0
M  V30 25647 O 2388.11 -0.307722 -1.81104 0
M  V30 25648 C 2388.17 -3.54227 -0.613488 0
M  V30 25649 C 2387.84 -4.54312 0.494919 0
M  V30 25650 C 2388.84 -5.01954 1.35419 0
M  V30 25651 C 2386.52 -4.97897 0.663653 0
M  V30 25652 C 2388.51 -5.9181 2.36727 0
M  V30 25653 C 2386.2 -5.87552 1.68006 0
M  V30 25654 C 2387.2 -6.34402 2.53028 0
M  V30 25655 O 2386.89 -7.22285 3.5293 0
M  V30 25656 H 2386.62 -0.675331 -0.0300651 0
M  V30 25657 H 2389.17 -1.97598 0.560742 0
M  V30 25658 H 2387.4 -3.60041 -1.41094 0
M  V30 25659 H 2389.09 -3.9015 -1.11974 0
M  V30 25660 H 2389.86 -4.69008 1.23517 0
M  V30 25661 H 2385.74 -4.60999 0.0115723 0
M  V30 25662 H 2389.28 -6.283 3.03124 0
M  V30 25663 H 2385.18 -6.19912 1.79944 0
M  V30 25664 H 2385.95 -7.40361 3.49009 0
M  V30 25665 N 2388.61 -0.125265 -1.57101 0
M  V30 25666 C 2389.56 0.822617 -2.15642 0
M  V30 25667 C 2390.53 1.25925 -1.08315 0
M  V30 25668 O 2391.71 1.33565 -1.36254 0
M  V30 25669 C 2388.85 2.06489 -2.76508 0
M  V30 25670 C 2387.96 1.67605 -3.98161 0
M  V30 25671 C 2387.1 2.86846 -4.47094 0
M  V30 25672 C 2386.14 2.44232 -5.61264 0
M  V30 25673 N 2385.28 3.56408 -6.04911 0
M  V30 25674 H 2390.12 0.316573 -2.96314 0
M  V30 25675 H 2387.65 0.144562 -1.46388 0
M  V30 25676 H 2389.61 2.79284 -3.0993 0
M  V30 25677 H 2388.24 2.54541 -1.98516 0
M  V30 25678 H 2387.29 0.846595 -3.7086 0
M  V30 25679 H 2388.6 1.32292 -4.80937 0
M  V30 25680 H 2387.76 3.67859 -4.82457 0
M  V30 25681 H 2386.5 3.2539 -3.63281 0
M  V30 25682 H 2385.5 1.61654 -5.25498 0
M  V30 25683 H 2386.73 2.06799 -6.46847 0
M  V30 25684 H 2384.67 3.94613 -5.24038 0
M  V30 25685 H 2384.59 3.25039 -6.82558 0
M  V30 25686 H 2385.86 4.37841 -6.44915 0
M  V30 25687 N 2390.09 1.56899 0.148518 0
M  V30 25688 C 2391.02 1.94752 1.20849 0
M  V30 25689 C 2392.03 0.843176 1.39264 0
M  V30 25690 O 2393.22 1.12159 1.38862 0
M  V30 25691 C 2390.32 2.205 2.57358 0
M  V30 25692 C 2389.49 3.51781 2.59941 0
M  V30 25693 C 2388.55 3.66087 3.77977 0
M  V30 25694 O 2387.58 4.38494 3.62921 0
M  V30 25695 N 2388.78 3.02637 4.95369 0
M  V30 25696 H 2391.55 2.86281 0.886754 0
M  V30 25697 H 2389.11 1.5833 0.338094 0
M  V30 25698 H 2391.1 2.27313 3.34829 0
M  V30 25699 H 2389.67 1.35243 2.8183 0
M  V30 25700 H 2388.89 3.56422 1.68396 0
M  V30 25701 H 2390.18 4.38125 2.58696 0
M  V30 25702 H 2389.58 2.43724 5.10505 0
M  V30 25703 H 2388.13 3.15014 5.70622 0
M  V30 25704 N 2391.57 -0.417818 1.51961 0
M  V30 25705 C 2392.79 -1.1875 1.69428 0
M  V30 25706 C 2393.21 -1.84514 0.399988 0
M  V30 25707 O 2392.57 -1.71528 -0.623258 0
M  V30 25708 C 2392.62 -2.25709 2.82379 0
M  V30 25709 O 2392.34 -1.62631 4.06796 0
M  V30 25710 C 2393.84 -3.15623 3.11283 0
M  V30 25711 H 2391.06 -0.357176 0.568037 0
M  V30 25712 H 2393.6 -0.492695 1.98476 0
M  V30 25713 H 2391.76 -2.90872 2.55875 0
M  V30 25714 H 2392.17 -2.33471 4.69672 0
M  V30 25715 H 2393.65 -3.86764 3.9385 0
M  V30 25716 H 2394.12 -3.77499 2.24479 0
M  V30 25717 H 2394.73 -2.56138 3.39519 0
M  V30 25718 N 2393.04 -1.42436 -0.674508 0
M  V30 25719 C 2393.95 -1.4834 -1.81748 0
M  V30 25720 C 2394.97 -0.372129 -1.69974 0
M  V30 25721 O 2396.15 -0.623074 -1.9152 0
M  V30 25722 C 2393.21 -1.38367 -3.17892 0
M  V30 25723 C 2392.27 -2.59988 -3.41621 0
M  V30 25724 C 2391.5 -2.50481 -4.71269 0
M  V30 25725 O 2391.73 -1.54084 -5.49194 0
M  V30 25726 O 2390.66 -3.40619 -4.96248 0
M  V30 25727 H 2394.49 -2.44813 -1.79723 0
M  V30 25728 H 2392.07 -1.24204 -0.83029 0
M  V30 25729 H 2393.95 -1.35168 -3.99133 0
M  V30 25730 H 2392.63 -0.450201 -3.20554 0
M  V30 25731 H 2391.54 -2.68762 -2.60227 0
M  V30 25732 H 2392.87 -3.52235 -3.43789 0
M  V30 25733 N 2394.52 0.910841 -1.28614 0
M  V30 25734 C 2395.75 1.69397 -1.18795 0
M  V30 25735 C 2396.16 1.87097 0.253006 0
M  V30 25736 O 2395.52 1.40005 1.17068 0
M  V30 25737 C 2395.57 3.08454 -1.88516 0
M  V30 25738 O 2395.29 2.9157 -3.26984 0
M  V30 25739 C 2396.79 4.02836 -1.85036 0
M  V30 25740 H 2394.01 0.529431 -0.412243 0
M  V30 25741 H 2396.56 1.13981 -1.6979 0
M  V30 25742 H 2394.71 3.60679 -1.41385 0
M  V30 25743 H 2395.13 3.79602 -3.61943 0
M  V30 25744 H 2396.6 4.97863 -2.38404 0
M  V30 25745 H 2397.08 4.31413 -0.823379 0
M  V30 25746 H 2397.68 3.56541 -2.31859 0
M  V30 25747 N 2396 1.10909 1.11969 0
M  V30 25748 C 2397.25 0.85454 1.83586 0
M  V30 25749 C 2397.58 -0.619867 1.84358 0
M  V30 25750 O 2396.83 -1.47329 1.28812 0
M  V30 25751 C 2397.13 1.35431 3.30746 0
M  V30 25752 C 2396.8 2.84099 3.50141 0
M  V30 25753 C 2395.46 3.24696 3.55142 0
M  V30 25754 C 2397.81 3.79878 3.5685 0
M  V30 25755 C 2395.14 4.59813 3.64402 0
M  V30 25756 C 2397.49 5.14804 3.67641 0
M  V30 25757 C 2396.15 5.54968 3.709 0
M  V30 25758 H 2395.42 0.312698 0.671789 0
M  V30 25759 H 2398.07 1.38654 1.32088 0
M  V30 25760 H 2396.38 0.742429 3.84701 0
M  V30 25761 H 2398.07 1.13377 3.84638 0
M  V30 25762 H 2394.66 2.51691 3.46914 0
M  V30 25763 H 2398.85 3.49617 3.52252 0
M  V30 25764 H 2394.1 4.90346 3.652 0
M  V30 25765 H 2398.28 5.8886 3.71776 0
M  V30 25766 H 2395.9 6.59659 3.77828 0
M  V30 25767 N 2397.48 -1.29474 0.898573 0
M  V30 25768 C 2398.7 -2.00285 0.538596 0
M  V30 25769 C 2399.13 -1.66818 -0.869106 0
M  V30 25770 O 2398.49 -0.892172 -1.57829 0
M  V30 25771 C 2398.53 -3.52998 0.736537 0
M  V30 25772 O 2397.64 -4.11857 -0.211465 0
M  V30 25773 H 2396.98 -0.629726 0.210574 0
M  V30 25774 H 2399.51 -1.64996 1.20985 0
M  V30 25775 H 2399.52 -4.02937 0.640756 0
M  V30 25776 H 2398.19 -3.76693 1.76283 0
M  V30 25777 H 2396.77 -3.72838 -0.0682336 0
M  V30 25778 N 2398.96 -0.660936 -1.43071 0
M  V30 25779 C 2399.9 0.0259478 -2.30785 0
M  V30 25780 C 2400.87 0.806862 -1.45186 0
M  V30 25781 O 2402.06 0.781912 -1.74042 0
M  V30 25782 C 2399.2 0.981009 -3.30863 0
M  V30 25783 C 2398.31 0.195382 -4.31558 0
M  V30 25784 C 2397.45 1.14494 -5.18714 0
M  V30 25785 C 2396.49 0.350192 -6.11097 0
M  V30 25786 N 2395.62 1.25174 -6.90852 0
M  V30 25787 H 2400.46 -0.727897 -2.88973 0
M  V30 25788 H 2398 -0.370707 -1.42352 0
M  V30 25789 H 2399.96 1.54842 -3.87401 0
M  V30 25790 H 2398.59 1.70164 -2.74307 0
M  V30 25791 H 2397.64 -0.48844 -3.77251 0
M  V30 25792 H 2398.95 -0.422263 -4.97009 0
M  V30 25793 H 2398.11 1.78273 -5.79917 0
M  V30 25794 H 2396.84 1.79648 -4.53407 0
M  V30 25795 H 2395.85 -0.300905 -5.48976 0
M  V30 25796 H 2397.07 -0.29706 -6.7845 0
M  V30 25797 H 2395.02 1.88994 -6.28186 0
M  V30 25798 H 2394.94 0.688839 -7.52855 0
M  V30 25799 H 2396.21 1.87744 -7.56553 0
M  V30 25800 N 2400.43 1.52351 -0.403352 0
M  V30 25801 C 2401.68 2.02047 0.17457 0
M  V30 25802 C 2402.01 1.2887 1.4528 0
M  V30 25803 O 2401.29 0.393291 1.90482 0
M  V30 25804 C 2401.57 3.57545 0.428175 0
M  V30 25805 C 2401.42 4.41378 -0.866326 0
M  V30 25806 C 2402.74 4.23059 1.2128 0
M  V30 25807 H 2399.86 0.73439 0.0619722 0
M  V30 25808 H 2402.5 1.82292 -0.535682 0
M  V30 25809 H 2400.65 3.74509 1.03321 0
M  V30 25810 H 2402.33 4.36138 -1.50272 0
M  V30 25811 H 2400.57 4.07824 -1.47858 0
M  V30 25812 H 2401.24 5.48238 -0.643345 0
M  V30 25813 H 2403.72 4.10159 0.700631 0
M  V30 25814 H 2402.59 5.31811 1.35899 0
M  V30 25815 H 2402.85 3.81629 2.23186 0
M  V30 25816 N 2401.91 0.133594 1.57033 0
M  V30 25817 C 2402.84 -0.807528 2.19092 0
M  V30 25818 C 2403.82 -1.26679 1.13519 0
M  V30 25819 O 2405.01 -1.32677 1.41812 0
M  V30 25820 C 2402.14 -2.05207 2.80191 0
M  V30 25821 C 2401.09 -1.73008 3.91475 0
M  V30 25822 C 2400.42 -3.04614 4.39448 0
M  V30 25823 C 2401.72 -0.987077 5.12888 0
M  V30 25824 H 2403.41 -0.290351 2.97989 0
M  V30 25825 H 2400.96 -0.138214 1.43335 0
M  V30 25826 H 2402.91 -2.71515 3.22269 0
M  V30 25827 H 2401.64 -2.59275 1.98606 0
M  V30 25828 H 2400.29 -1.09083 3.49995 0
M  V30 25829 H 2399.94 -3.56645 3.54702 0
M  V30 25830 H 2399.64 -2.83838 5.145 0
M  V30 25831 H 2401.17 -3.72016 4.84187 0
M  V30 25832 H 2402.58 -1.55198 5.51894 0
M  V30 25833 H 2400.98 -0.879746 5.93616 0
M  V30 25834 H 2402.05 0.0236139 4.84894 0
M  V30 25835 N 2403.39 -1.56975 -0.140195 0
M  V30 25836 C 2404.67 -1.74649 -0.880739 0
M  V30 25837 C 2405.05 -0.703439 -1.99035 0
M  V30 25838 O 2404.4 0.27644 -2.26822 0
M  V30 25839 C 2404.61 -3.18942 -1.41694 0
M  V30 25840 C 2405.95 -3.80826 -1.87767 0
M  V30 25841 O 2406.98 -3.22413 -1.51421 0
M  V30 25842 O 2405.84 -4.83456 -2.54819 0
M  V30 25843 H 2402.93 -0.714345 -0.416701 0
M  V30 25844 H 2405.48 -1.69235 -0.125588 0
M  V30 25845 H 2404.25 -3.8636 -0.619834 0
M  V30 25846 H 2403.87 -3.28809 -2.23541 0
M  V30 25847 N 2404.87 0.409753 -1.5218 0
M  V30 25848 C 2406.1 1.1785 -1.70056 0
M  V30 25849 C 2406.51 1.843 -0.409767 0
M  V30 25850 O 2405.87 1.71856 0.614153 0
M  V30 25851 C 2405.92 2.24208 -2.83572 0
M  V30 25852 O 2405.64 1.60471 -4.07653 0
M  V30 25853 C 2407.14 3.13968 -3.12952 0
M  V30 25854 H 2404.36 0.354159 -0.569923 0
M  V30 25855 H 2406.91 0.482163 -1.98735 0
M  V30 25856 H 2405.06 2.89511 -2.57414 0
M  V30 25857 H 2405.47 2.30977 -4.70903 0
M  V30 25858 H 2406.95 3.8467 -3.95896 0
M  V30 25859 H 2407.43 3.76303 -2.26478 0
M  V30 25860 H 2408.03 2.54334 -3.40873 0
M  V30 25861 N 2406.35 1.42792 0.666944 0
M  V30 25862 C 2407.28 1.4968 1.79216 0
M  V30 25863 C 2408.26 0.352652 1.66404 0
M  V30 25864 O 2409.44 0.568026 1.85707 0
M  V30 25865 C 2406.57 1.40611 3.17562 0
M  V30 25866 C 2405.53 2.53133 3.45119 0
M  V30 25867 C 2404.85 2.2912 4.83123 0
M  V30 25868 C 2406.15 3.95424 3.41229 0
M  V30 25869 H 2407.85 2.43856 1.73709 0
M  V30 25870 H 2405.39 1.17369 0.834299 0
M  V30 25871 H 2407.35 1.44036 3.9602 0
M  V30 25872 H 2406.07 0.429327 3.23766 0
M  V30 25873 H 2404.73 2.49039 2.69027 0
M  V30 25874 H 2404.38 1.29717 4.85986 0
M  V30 25875 H 2404.08 3.0454 5.02523 0
M  V30 25876 H 2405.6 2.34307 5.63855 0
M  V30 25877 H 2407.01 4.0108 4.09644 0
M  V30 25878 H 2405.41 4.70758 3.72165 0
M  V30 25879 H 2406.48 4.21536 2.39657 0
M  V30 25880 N 2407.82 -0.904008 1.29095 0
M  V30 25881 C 2408.77 -2.02899 1.13731 0
M  V30 25882 C 2409.77 -1.69314 0.054015 0
M  V30 25883 O 2410.97 -1.78729 0.213501 0
M  V30 25884 H 2407.35 -0.664963 0.351182 0
M  V30 25885 H 2409.32 -2.12997 2.08985 0
M  V30 25886 C 2408.07 -3.37743 0.826126 0
M  V30 25887 H 2407.39 -3.64086 1.6517 0
M  V30 25888 H 2408.83 -4.17158 0.758633 0
M  V30 25889 C 2407.29 -3.33599 -0.470483 0
M  V30 25890 O 2407.82 -3.7273 -1.49785 0
M  V30 25891 N 2406.03 -2.86696 -0.474762 0
M  V30 25892 H 2405.57 -2.55047 0.361737 0
M  V30 25893 H 2405.53 -2.84305 -1.34231 0
M  V30 25894 N 2409.3 -1.11501 -1.11379 0
M  V30 25895 C 2410.23 -0.796163 -2.19507 0
M  V30 25896 C 2411.21 0.235766 -1.68458 0
M  V30 25897 O 2412.4 0.0991003 -1.93947 0
M  V30 25898 C 2409.53 -0.239266 -3.46475 0
M  V30 25899 C 2408.48 -1.20314 -4.10741 0
M  V30 25900 C 2407.81 -0.506924 -5.32292 0
M  V30 25901 C 2409.11 -2.55407 -4.55593 0
M  V30 25902 H 2410.8 -1.70028 -2.46436 0
M  V30 25903 H 2408.35 -0.818956 -1.18445 0
M  V30 25904 H 2410.3 -0.00399414 -4.214 0
M  V30 25905 H 2409.03 0.70015 -3.19007 0
M  V30 25906 H 2407.68 -1.42405 -3.37811 0
M  V30 25907 H 2407.33 0.43732 -5.01095 0
M  V30 25908 H 2407.03 -1.1498 -5.76241 0
M  V30 25909 H 2408.56 -0.280459 -6.09956 0
M  V30 25910 H 2409.97 -2.374 -5.21837 0
M  V30 25911 H 2408.37 -3.15682 -5.10358 0
M  V30 25912 H 2409.44 -3.14581 -3.69007 0
M  V30 25913 N 2410.78 1.28995 -0.905426 0
M  V30 25914 C 2412.03 1.94606 -0.530225 0
M  V30 25915 C 2412.34 1.72122 0.929155 0
M  V30 25916 O 2413.55 2.31886 1.41214 0
M  V30 25917 C 2412.01 3.48532 -0.897394 0
M  V30 25918 C 2411.61 3.79807 -2.37593 0
M  V30 25919 C 2413.36 4.20346 -0.592378 0
M  V30 25920 C 2411.26 5.27004 -2.68366 0
M  V30 25921 H 2410.19 0.728463 -0.19457 0
M  V30 25922 H 2412.85 1.46634 -1.10321 0
M  V30 25923 H 2411.23 3.95189 -0.253283 0
M  V30 25924 H 2412.4 3.43989 -3.06608 0
M  V30 25925 H 2410.72 3.21146 -2.65055 0
M  V30 25926 H 2413.31 5.28696 -0.799068 0
M  V30 25927 H 2413.66 4.13645 0.469401 0
M  V30 25928 H 2414.19 3.7944 -1.19458 0
M  V30 25929 H 2410.93 5.38775 -3.73365 0
M  V30 25930 H 2410.45 5.64049 -2.03981 0
M  V30 25931 H 2412.13 5.94658 -2.54933 0
M  V30 25932 N 2412.26 0.668514 1.42719 0
M  V30 25933 C 2413.51 0.188176 2.01624 0
M  V30 25934 C 2413.83 -1.20315 1.52822 0
M  V30 25935 O 2413.09 -1.82039 0.718355 0
M  V30 25936 C 2413.39 0.164562 3.57021 0
M  V30 25937 C 2413.05 1.4997 4.25229 0
M  V30 25938 C 2411.72 1.86528 4.43577 0
M  V30 25939 C 2414.07 2.37929 4.63723 0
M  V30 25940 C 2411.4 3.10682 4.97688 0
M  V30 25941 C 2413.75 3.6139 5.19211 0
M  V30 25942 C 2412.41 3.98125 5.35773 0
M  V30 25943 H 2411.68 0.0688583 0.737794 0
M  V30 25944 H 2414.33 0.862255 1.7099 0
M  V30 25945 H 2412.63 -0.593011 3.87286 0
M  V30 25946 H 2414.33 -0.224201 4.00373 0
M  V30 25947 H 2410.92 1.20529 4.11304 0
M  V30 25948 H 2415.11 2.10972 4.49227 0
M  V30 25949 H 2410.36 3.39173 5.08696 0
M  V30 25950 H 2414.54 4.29753 5.47983 0
M  V30 25951 H 2412.16 4.94405 5.77467 0
M  V30 25952 N 2413.74 -1.52135 0.411426 0
M  V30 25953 C 2414.99 -2.01024 -0.164974 0
M  V30 25954 C 2415.3 -1.30135 -1.46028 0
M  V30 25955 O 2416.51 -1.69853 -2.11807 0
M  V30 25956 C 2414.96 -3.58247 -0.344555 0
M  V30 25957 C 2414.57 -4.38053 0.938793 0
M  V30 25958 C 2416.31 -4.15361 -0.876122 0
M  V30 25959 C 2414.22 -5.86924 0.726275 0
M  V30 25960 H 2413.15 -0.751156 -0.0654275 0
M  V30 25961 H 2415.8 -1.7546 0.537223 0
M  V30 25962 H 2414.18 -3.8015 -1.10914 0
M  V30 25963 H 2415.36 -4.27909 1.7097 0
M  V30 25964 H 2413.67 -3.92268 1.39695 0
M  V30 25965 H 2416.27 -5.24265 -1.05119 0
M  V30 25966 H 2416.61 -3.72863 -1.85145 0
M  V30 25967 H 2417.15 -3.97434 -0.170537 0
M  V30 25968 H 2413.88 -6.33785 1.67323 0
M  V30 25969 H 2413.4 -5.998 -0.0052974 0
M  V30 25970 H 2415.08 -6.45945 0.369345 0
M  V30 25971 N 2415.22 -0.14192 -1.5696 0
M  V30 25972 C 2416.46 0.511214 -1.96251 0
M  V30 25973 C 2416.79 1.64849 -1.02657 0
M  V30 25974 O 2416.07 1.94381 -0.0680017 0
M  V30 25975 C 2416.35 1.02221 -3.45287 0
M  V30 25976 C 2416.21 -0.113217 -4.49657 0
M  V30 25977 C 2417.52 1.90567 -3.96702 0
M  V30 25978 H 2414.64 0.184355 -0.71357 0
M  V30 25979 H 2417.29 -0.22212 -1.88697 0
M  V30 25980 H 2415.44 1.64713 -3.51855 0
M  V30 25981 H 2417.11 -0.749382 -4.55172 0
M  V30 25982 H 2415.35 -0.773101 -4.26855 0
M  V30 25983 H 2416.02 0.285956 -5.51259 0
M  V30 25984 H 2418.5 1.37911 -3.92581 0
M  V30 25985 H 2417.37 2.23232 -5.01457 0
M  V30 25986 H 2417.63 2.84073 -3.38755 0
M  V30 25987 N 2416.69 1.57047 0.131868 0
M  V30 25988 C 2417.94 1.83358 0.840408 0
M  V30 25989 C 2418.26 0.725567 1.81645 0
M  V30 25990 O 2419.46 0.874704 2.57024 0
M  V30 25991 C 2417.92 3.2504 1.54522 0
M  V30 25992 C 2417.53 4.43816 0.610823 0
M  V30 25993 C 2419.27 3.6061 2.23965 0
M  V30 25994 C 2417.18 5.76523 1.31813 0
M  V30 25995 H 2416.11 0.683853 0.317587 0
M  V30 25996 H 2418.76 1.83264 0.0931239 0
M  V30 25997 H 2417.14 3.19565 2.33867 0
M  V30 25998 H 2418.31 4.60561 -0.148488 0
M  V30 25999 H 2416.63 4.16393 0.0240284 0
M  V30 26000 H 2419.23 4.57023 2.7755 0
M  V30 26001 H 2419.57 2.87409 3.01168 0
M  V30 26002 H 2420.1 3.67812 1.51522 0
M  V30 26003 H 2416.84 6.52861 0.587656 0
M  V30 26004 H 2416.36 5.63688 2.04977 0
M  V30 26005 H 2418.04 6.19841 1.85489 0
M  V30 26006 N 2418.17 -0.401677 1.52395 0
M  V30 26007 C 2419.42 -1.14793 1.6682 0
M  V30 26008 C 2419.75 -1.90304 0.401805 0
M  V30 26009 O 2419 -1.8577 -0.615454 0
M  V30 26010 C 2419.3 -2.16212 2.84582 0
M  V30 26011 C 2418.97 -1.57453 4.22516 0
M  V30 26012 C 2417.63 -1.41153 4.60032 0
M  V30 26013 C 2419.98 -1.14613 5.08442 0
M  V30 26014 C 2417.31 -0.805418 5.81145 0
M  V30 26015 C 2419.66 -0.554169 6.30168 0
M  V30 26016 C 2418.32 -0.378364 6.66427 0
M  V30 26017 H 2417.59 -0.420058 0.610436 0
M  V30 26018 H 2420.24 -0.434179 1.86513 0
M  V30 26019 H 2418.55 -2.9376 2.59254 0
M  V30 26020 H 2420.24 -2.7384 2.92938 0
M  V30 26021 H 2416.83 -1.71125 3.92956 0
M  V30 26022 H 2421.02 -1.26012 4.80036 0
M  V30 26023 H 2416.27 -0.657292 6.07857 0
M  V30 26024 H 2420.45 -0.21386 6.96072 0
M  V30 26025 H 2418.07 0.0933942 7.60143 0
M  V30 26026 N 2419.65 -1.43144 -0.659362 0
M  V30 26027 C 2420.87 -1.48075 -1.45219 0
M  V30 26028 C 2421.3 -0.098028 -1.87844 0
M  V30 26029 O 2420.66 0.906913 -1.56987 0
M  V30 26030 C 2420.71 -2.42652 -2.66744 0
M  V30 26031 O 2419.81 -1.90854 -3.6558 0
M  V30 26032 H 2419.15 -0.501095 -0.43566 0
M  V30 26033 H 2421.68 -1.87995 -0.807399 0
M  V30 26034 H 2421.69 -2.59751 -3.14632 0
M  V30 26035 H 2420.37 -3.43103 -2.35061 0
M  V30 26036 H 2418.94 -1.83387 -3.2469 0
M  V30 26037 N 2421.13 0.897149 -1.29572 0
M  V30 26038 C 2422.35 1.68654 -1.20708 0
M  V30 26039 C 2422.78 1.86706 0.22855 0
M  V30 26040 O 2422.14 1.38922 1.16492 0
M  V30 26041 C 2422.18 3.04714 -1.92826 0
M  V30 26042 O 2421.29 3.93094 -1.24704 0
M  V30 26043 H 2420.63 0.515809 -0.418135 0
M  V30 26044 H 2423.16 1.12057 -1.71185 0
M  V30 26045 H 2423.17 3.54839 -2.01378 0
M  V30 26046 H 2421.84 2.90894 -2.97244 0
M  V30 26047 H 2420.42 3.51529 -1.24426 0
M  V30 26048 N 2422.61 1.1209 1.10786 0
M  V30 26049 C 2423.52 0.798377 2.20597 0
M  V30 26050 C 2424.53 -0.21132 1.72712 0
M  V30 26051 O 2425.71 -0.0458123 2.01348 0
M  V30 26052 C 2422.77 0.253734 3.4577 0
M  V30 26053 C 2421.83 1.3229 4.08409 0
M  V30 26054 C 2421.07 0.804153 5.27607 0
M  V30 26055 O 2421.29 -0.363378 5.69241 0
M  V30 26056 O 2420.22 1.57208 5.81007 0
M  V30 26057 H 2424.05 1.71545 2.50611 0
M  V30 26058 H 2421.63 0.897296 1.19453 0
M  V30 26059 H 2423.52 -0.045295 4.21376 0
M  V30 26060 H 2422.19 -0.635949 3.17392 0
M  V30 26061 H 2421.1 1.67505 3.34504 0
M  V30 26062 H 2422.43 2.18622 4.40982 0
M  V30 26063 N 2424.08 -1.28513 0.912254 0
M  V30 26064 C 2425.32 -1.96813 0.551712 0
M  V30 26065 C 2425.69 -1.70242 -0.887795 0
M  V30 26066 O 2426.89 -2.321 -1.35584 0
M  V30 26067 C 2425.16 -3.4713 0.850616 0
M  V30 26068 S 2426.72 -4.3473 0.596267 0
M  V30 26069 H 2423.54 -0.681045 0.204203 0
M  V30 26070 H 2426.14 -1.5607 1.17738 0
M  V30 26071 H 2424.84 -3.63964 1.89626 0
M  V30 26072 H 2424.37 -3.9282 0.21354 0
M  V30 26073 H 2426.39 -4.93108 -0.553067 0
M  V30 26074 N 2425.56 -0.676073 -1.42362 0
M  V30 26075 C 2426.49 -0.0125243 -2.33497 0
M  V30 26076 C 2427.47 0.787954 -1.50749 0
M  V30 26077 O 2428.66 0.744852 -1.79348 0
M  V30 26078 C 2425.79 0.938523 -3.34379 0
M  V30 26079 C 2424.74 0.246547 -4.27289 0
M  V30 26080 C 2424.07 1.31062 -5.18389 0
M  V30 26081 C 2425.37 -0.875215 -5.14915 0
M  V30 26082 H 2427.06 -0.773644 -2.89232 0
M  V30 26083 H 2424.61 -0.373484 -1.39072 0
M  V30 26084 H 2426.56 1.41181 -3.97046 0
M  V30 26085 H 2425.29 1.73108 -2.7695 0
M  V30 26086 H 2423.94 -0.20652 -3.66018 0
M  V30 26087 H 2423.59 2.0952 -4.57286 0
M  V30 26088 H 2423.29 0.852737 -5.8138 0
M  V30 26089 H 2424.82 1.78481 -5.83932 0
M  V30 26090 H 2426.23 -0.483084 -5.71261 0
M  V30 26091 H 2424.63 -1.25897 -5.86745 0
M  V30 26092 H 2425.7 -1.72343 -4.53239 0
M  V30 26093 N 2427.04 1.51915 -0.419488 0
M  V30 26094 C 2427.97 2.23805 0.445712 0
M  V30 26095 C 2428.95 1.25033 1.03949 0
M  V30 26096 O 2430.14 1.54116 1.08538 0
M  V30 26097 C 2427.26 2.97468 1.61959 0
M  V30 26098 C 2426.31 4.10753 1.14821 0
M  V30 26099 S 2427.14 5.35397 0.104844 0
M  V30 26100 C 2428.3 6.12592 1.28381 0
M  V30 26101 H 2428.53 2.96844 -0.16468 0
M  V30 26102 H 2426.06 1.53048 -0.20386 0
M  V30 26103 H 2428.02 3.40511 2.29265 0
M  V30 26104 H 2426.68 2.24052 2.20135 0
M  V30 26105 H 2425.88 4.61507 2.02553 0
M  V30 26106 H 2425.48 3.69879 0.553647 0
M  V30 26107 H 2427.77 6.40596 2.20552 0
M  V30 26108 H 2428.71 7.03376 0.8166 0
M  V30 26109 H 2429.12 5.4381 1.51429 0
M  V30 26110 N 2428.52 0.150242 1.56882 0
M  V30 26111 C 2429.47 -0.788206 2.16924 0
M  V30 26112 C 2430.44 -1.24185 1.10305 0
M  V30 26113 O 2431.62 -1.3138 1.38361 0
M  V30 26114 C 2428.76 -2.02064 2.79758 0
M  V30 26115 C 2427.87 -1.6125 4.00777 0
M  V30 26116 C 2427.01 -2.79697 4.516 0
M  V30 26117 C 2426.05 -2.35272 5.65078 0
M  V30 26118 N 2425.18 -3.46739 6.10505 0
M  V30 26119 H 2430.02 -0.269392 2.9678 0
M  V30 26120 H 2427.56 -0.121254 1.46599 0
M  V30 26121 H 2429.52 -2.74318 3.14334 0
M  V30 26122 H 2428.15 -2.51351 2.02541 0
M  V30 26123 H 2427.2 -0.787488 3.7216 0
M  V30 26124 H 2428.51 -1.24624 4.82981 0
M  V30 26125 H 2427.67 -3.60136 4.88248 0
M  V30 26126 H 2426.41 -3.19569 3.68411 0
M  V30 26127 H 2425.41 -1.53273 5.28003 0
M  V30 26128 H 2426.64 -1.96482 6.50055 0
M  V30 26129 H 2424.58 -3.86226 5.3025 0
M  V30 26130 H 2424.5 -3.14139 6.87643 0
M  V30 26131 H 2425.77 -4.27526 6.51799 0
M  V30 26132 N 2430 -1.57115 -0.123538 0
M  V30 26133 C 2431.25 -1.83801 -0.830672 0
M  V30 26134 C 2431.56 -0.73519 -1.81258 0
M  V30 26135 O 2432.76 -0.888323 -2.56556 0
M  V30 26136 C 2431.22 -3.25855 -1.52796 0
M  V30 26137 C 2430.83 -4.44134 -0.587278 0
M  V30 26138 C 2432.57 -3.61793 -2.2205 0
M  V30 26139 C 2430.48 -5.77214 -1.28754 0
M  V30 26140 H 2429.41 -0.685528 -0.313955 0
M  V30 26141 H 2432.06 -1.8331 -0.0834037 0
M  V30 26142 H 2430.44 -3.20801 -2.32169 0
M  V30 26143 H 2431.62 -4.60475 0.17291 0
M  V30 26144 H 2429.93 -4.164 -0.00194572 0
M  V30 26145 H 2432.53 -4.58488 -2.75123 0
M  V30 26146 H 2432.87 -2.89002 -2.99639 0
M  V30 26147 H 2433.4 -3.68611 -1.4957 0
M  V30 26148 H 2430.14 -6.53163 -0.553025 0
M  V30 26149 H 2429.66 -5.64767 -2.01985 0
M  V30 26150 H 2431.34 -6.20816 -1.82199 0
M  V30 26151 N 2431.47 0.393589 -1.52606 0
M  V30 26152 C 2432.72 1.13907 -1.67426 0
M  V30 26153 C 2433.05 1.90089 -0.411892 0
M  V30 26154 O 2432.3 1.86094 0.605594 0
M  V30 26155 C 2432.6 2.147 -2.85725 0
M  V30 26156 C 2432.27 1.5521 -4.23345 0
M  V30 26157 C 2430.93 1.38712 -4.60774 0
M  V30 26158 C 2433.28 1.11915 -5.09043 0
M  V30 26159 C 2430.61 0.774587 -5.81564 0
M  V30 26160 C 2432.96 0.520742 -6.30453 0
M  V30 26161 C 2431.63 0.343017 -6.66618 0
M  V30 26162 H 2430.9 0.416815 -0.612655 0
M  V30 26163 H 2433.54 0.424282 -1.86741 0
M  V30 26164 H 2431.85 2.92381 -2.60808 0
M  V30 26165 H 2433.55 2.72282 -2.94386 0
M  V30 26166 H 2430.14 1.69038 -3.93858 0
M  V30 26167 H 2434.32 1.23465 -4.80698 0
M  V30 26168 H 2429.58 0.625047 -6.08197 0
M  V30 26169 H 2433.75 0.176943 -6.96175 0
M  V30 26170 H 2431.38 -0.133705 -7.60082 0
M  V30 26171 N 2432.95 1.43492 0.651762 0
M  V30 26172 C 2433.92 1.48432 1.74644 0
M  V30 26173 C 2434.92 0.368845 1.56513 0
M  V30 26174 O 2436.11 0.630651 1.62384 0
M  V30 26175 C 2433.24 1.33833 3.13531 0
M  V30 26176 H 2434.43 2.45923 1.71644 0
M  V30 26177 H 2431.98 1.30279 0.86355 0
M  V30 26178 H 2432.72 0.373546 3.22141 0
M  V30 26179 H 2432.5 2.14697 3.28097 0
M  V30 26180 H 2433.99 1.40225 3.93353 0
M  V30 26181 N 2434.43 -0.890264 1.30046 0
M  V30 26182 C 2435.36 -2.0117 1.18545 0
M  V30 26183 C 2436.34 -1.69924 0.0773655 0
M  V30 26184 O 2437.53 -1.92472 0.258484 0
M  V30 26185 C 2434.66 -3.36201 0.871 0
M  V30 26186 C 2433.61 -3.81688 1.93644 0
M  V30 26187 C 2432.94 -5.1395 1.47509 0
M  V30 26188 C 2434.24 -4.00988 3.34673 0
M  V30 26189 H 2435.93 -2.1105 2.12363 0
M  V30 26190 H 2433.48 -1.01405 1.0224 0
M  V30 26191 H 2435.43 -4.14171 0.777214 0
M  V30 26192 H 2434.15 -3.26438 -0.102868 0
M  V30 26193 H 2432.81 -3.05943 2.01977 0
M  V30 26194 H 2432.46 -5.00611 0.489639 0
M  V30 26195 H 2432.16 -5.45356 2.1877 0
M  V30 26196 H 2433.68 -5.94451 1.39499 0
M  V30 26197 H 2435.1 -4.69412 3.29128 0
M  V30 26198 H 2433.5 -4.43762 4.03974 0
M  V30 26199 H 2434.57 -3.05014 3.76954 0
M  V30 26200 N 2435.91 -1.12676 -1.1019 0
M  V30 26201 C 2437.32 -0.86334 -1.34233 0
M  V30 26202 C 2437.52 0.505243 -1.95063 0
M  V30 26203 O 2436.58 1.25341 -2.19194 0
M  V30 26204 C 2437.89 -1.98176 -2.26156 0
M  V30 26205 C 2439.44 -2.01294 -2.39687 0
M  V30 26206 C 2439.92 -3.12376 -3.3494 0
M  V30 26207 N 2441.41 -3.11835 -3.4251 0
M  V30 26208 C 2442.14 -3.94426 -4.16192 0
M  V30 26209 N 2441.64 -4.87012 -4.92738 0
M  V30 26210 N 2443.43 -3.82554 -4.11836 0
M  V30 26211 H 2435.58 -2.00854 -0.690762 0
M  V30 26212 H 2437.85 -0.874181 -0.366759 0
M  V30 26213 H 2437.55 -2.96808 -1.88675 0
M  V30 26214 H 2437.43 -1.88912 -3.26484 0
M  V30 26215 H 2439.81 -1.0328 -2.76437 0
M  V30 26216 H 2439.89 -2.14632 -1.39165 0
M  V30 26217 H 2439.54 -4.10624 -2.98915 0
M  V30 26218 H 2439.47 -2.96277 -4.35348 0
M  V30 26219 H 2441.96 -2.44764 -2.87922 0
M  V30 26220 H 2442.27 -5.46537 -5.46367 0
M  V30 26221 H 2440.62 -4.91024 -4.91854 0
M  V30 26222 H 2443.81 -3.09556 -3.51131 0
M  V30 26223 H 2443.98 -4.47151 -4.68999 0
M  V30 26224 N 2437.39 1.28028 -0.919057 0
M  V30 26225 C 2438.62 1.98576 -0.570178 0
M  V30 26226 C 2439.02 1.68823 0.854143 0
M  V30 26227 O 2438.37 0.940379 1.57805 0
M  V30 26228 C 2438.43 3.52504 -0.705796 0
M  V30 26229 C 2438.09 4.0586 -2.10064 0
M  V30 26230 C 2439.09 4.19292 -3.07392 0
M  V30 26231 C 2436.78 4.40421 -2.41525 0
M  V30 26232 C 2438.77 4.66548 -4.34295 0
M  V30 26233 C 2436.46 4.87369 -3.68666 0
M  V30 26234 C 2437.45 5.0039 -4.64865 0
M  V30 26235 O 2437.14 5.46312 -5.89745 0
M  V30 26236 H 2436.87 0.640696 -0.215603 0
M  V30 26237 H 2439.43 1.6406 -1.23586 0
M  V30 26238 H 2437.66 3.86696 0.0169734 0
M  V30 26239 H 2439.35 4.04271 -0.363243 0
M  V30 26240 H 2440.11 3.9286 -2.84405 0
M  V30 26241 H 2435.99 4.29534 -1.67397 0
M  V30 26242 H 2439.54 4.76626 -5.09386 0
M  V30 26243 H 2435.43 5.13242 -3.91475 0
M  V30 26244 H 2436.2 5.64585 -5.92609 0
M  V30 26245 N 2438.86 0.683613 1.42002 0
M  V30 26246 C 2439.81 -0.0121591 2.27997 0
M  V30 26247 C 2440.8 -0.764797 1.41562 0
M  V30 26248 O 2441.99 -0.642258 1.64936 0
M  V30 26249 C 2439.12 -0.956424 3.29708 0
M  V30 26250 C 2438.21 -0.200664 4.23625 0
M  V30 26251 N 2438.6 0.799175 4.99447 0
M  V30 26252 C 2436.89 -0.437859 4.43845 0
M  V30 26253 C 2437.6 1.25051 5.68099 0
M  V30 26254 N 2436.57 0.578743 5.4051 0
M  V30 26255 H 2440.37 0.754614 2.84047 0
M  V30 26256 H 2437.89 0.513425 1.5407 0
M  V30 26257 H 2439.88 -1.46993 3.90126 0
M  V30 26258 H 2438.54 -1.72293 2.75219 0
M  V30 26259 H 2439.56 1.17902 5.04301 0
M  V30 26260 H 2436.23 -1.18318 4.00384 0
M  V30 26261 H 2437.62 2.07953 6.38909 0
M  V30 26262 N 2440.34 -1.5169 0.427538 0
M  V30 26263 C 2441.57 -2.06119 -0.14095 0
M  V30 26264 C 2441.98 -1.2959 -1.37851 0
M  V30 26265 O 2441.32 -0.346067 -1.80411 0
M  V30 26266 C 2441.39 -3.55448 -0.538213 0
M  V30 26267 C 2441.05 -4.5316 0.591174 0
M  V30 26268 C 2442.05 -4.98969 1.46036 0
M  V30 26269 C 2439.73 -4.96377 0.769115 0
M  V30 26270 C 2441.73 -5.86656 2.49227 0
M  V30 26271 C 2439.41 -5.83856 1.80431 0
M  V30 26272 C 2440.41 -6.28892 2.66428 0
M  V30 26273 O 2440.1 -7.14636 3.68171 0
M  V30 26274 H 2439.83 -0.675817 -0.0157336 0
M  V30 26275 H 2442.39 -1.96364 0.60253 0
M  V30 26276 H 2440.62 -3.62953 -1.33425 0
M  V30 26277 H 2442.3 -3.92437 -1.03673 0
M  V30 26278 H 2443.07 -4.66283 1.33437 0
M  V30 26279 H 2438.95 -4.6087 0.109354 0
M  V30 26280 H 2442.49 -6.21729 3.16383 0
M  V30 26281 H 2438.39 -6.15955 1.93053 0
M  V30 26282 H 2439.16 -7.32792 3.64635 0
M  V30 26283 N 2441.82 -0.15856 -1.568 0
M  V30 26284 C 2443.07 0.489645 -1.96491 0
M  V30 26285 C 2443.4 1.64108 -1.04397 0
M  V30 26286 O 2442.65 1.95554 -0.0754745 0
M  V30 26287 C 2442.95 1.02617 -3.42351 0
M  V30 26288 C 2442.62 -0.00802452 -4.50899 0
M  V30 26289 C 2441.28 -0.292292 -4.80311 0
M  V30 26290 C 2443.63 -0.710675 -5.16332 0
M  V30 26291 C 2440.96 -1.28482 -5.72459 0
M  V30 26292 C 2443.31 -1.6921 -6.0955 0
M  V30 26293 C 2441.97 -1.98394 -6.37335 0
M  V30 26294 H 2441.24 0.179174 -0.719012 0
M  V30 26295 H 2443.89 -0.247831 -1.8989 0
M  V30 26296 H 2442.2 1.84122 -3.45842 0
M  V30 26297 H 2443.89 1.53649 -3.70396 0
M  V30 26298 H 2440.48 0.223715 -4.28016 0
M  V30 26299 H 2444.67 -0.504261 -4.93732 0
M  V30 26300 H 2439.92 -1.51725 -5.92275 0
M  V30 26301 H 2444.1 -2.242 -6.59323 0
M  V30 26302 H 2441.72 -2.75453 -7.08541 0
M  V30 26303 N 2443.3 1.57178 0.115204 0
M  V30 26304 C 2444.55 1.85326 0.823537 0
M  V30 26305 C 2444.88 0.744845 1.79348 0
M  V30 26306 O 2444.15 -0.24899 1.929 0
M  V30 26307 C 2444.44 3.24068 1.57008 0
M  V30 26308 C 2444.29 4.45514 0.619486 0
M  V30 26309 C 2445.61 3.60433 2.52539 0
M  V30 26310 H 2442.73 0.674094 0.297936 0
M  V30 26311 H 2445.37 1.89798 0.0876805 0
M  V30 26312 H 2443.52 3.20387 2.19737 0
M  V30 26313 H 2445.19 4.613 0.000756553 0
M  V30 26314 H 2443.43 4.33746 -0.0686937 0
M  V30 26315 H 2444.11 5.39272 1.17856 0
M  V30 26316 H 2446.58 3.6493 1.99914 0
M  V30 26317 H 2445.46 4.58482 3.01803 0
M  V30 26318 H 2445.72 2.88052 3.35378 0
M  V30 26319 N 2444.78 -0.38549 1.52813 0
M  V30 26320 C 2445.69 -1.49532 1.80769 0
M  V30 26321 C 2446.7 -1.59531 0.694679 0
M  V30 26322 O 2447.88 -1.75801 0.982642 0
M  V30 26323 C 2444.94 -2.85026 1.97386 0
M  V30 26324 C 2444.01 -2.84719 3.213 0
M  V30 26325 C 2443.24 -4.1375 3.37115 0
M  V30 26326 O 2443.46 -5.08889 2.57659 0
M  V30 26327 O 2442.4 -4.20775 4.30386 0
M  V30 26328 H 2446.22 -1.28838 2.75017 0
M  V30 26329 H 2443.81 -0.573673 1.37947 0
M  V30 26330 H 2445.69 -3.65345 2.10003 0
M  V30 26331 H 2444.36 -3.05739 1.06327 0
M  V30 26332 H 2443.27 -2.03168 3.14123 0
M  V30 26333 H 2444.6 -2.68958 4.12217 0
M  V30 26334 N 2446.26 -1.43835 -0.644143 0
M  V30 26335 C 2447.67 -1.40847 -1.22552 0
M  V30 26336 C 2448.02 -0.11715 -1.9585 0
M  V30 26337 O 2447.14 0.78305 -2.01736 0
M  V30 26338 C 2447.74 -2.55147 -2.22903 0
M  V30 26339 C 2446.3 -2.55395 -2.76497 0
M  V30 26340 C 2445.44 -2.32398 -1.51282 0
M  V30 26341 H 2448.39 -1.52605 -0.435604 0
M  V30 26342 H 2448.42 -2.27155 -3.05255 0
M  V30 26343 H 2447.93 -3.49116 -1.69527 0
M  V30 26344 H 2446.03 -1.6533 -3.33911 0
M  V30 26345 H 2446.14 -3.5346 -3.23423 0
M  V30 26346 H 2444.51 -1.8124 -1.78953 0
M  V30 26347 H 2445.29 -3.28465 -0.998279 0
M  V30 26348 N 2447.73 0.883355 -1.30517 0
M  V30 26349 C 2448.98 1.63776 -1.2062 0
M  V30 26350 C 2449.33 1.90942 0.236435 0
M  V30 26351 O 2448.63 1.52041 1.16593 0
M  V30 26352 C 2448.82 2.98205 -1.96999 0
M  V30 26353 C 2448.65 2.84163 -3.48542 0
M  V30 26354 C 2447.42 2.84059 -4.17898 0
M  V30 26355 C 2449.62 2.59994 -4.43743 0
M  V30 26356 N 2447.6 2.60926 -5.5569 0
M  V30 26357 C 2448.97 2.45997 -5.69109 0
M  V30 26358 C 2451.03 2.45231 -4.3332 0
M  V30 26359 C 2449.73 2.1874 -6.85234 0
M  V30 26360 C 2451.76 2.1936 -5.49213 0
M  V30 26361 C 2451.12 2.06141 -6.73562 0
M  V30 26362 H 2447.22 0.604207 -0.496445 0
M  V30 26363 H 2449.8 1.0408 -1.64546 0
M  V30 26364 H 2447.97 3.5593 -1.55461 0
M  V30 26365 H 2449.7 3.62848 -1.79231 0
M  V30 26366 H 2446.46 2.9595 -3.69744 0
M  V30 26367 H 2446.88 2.52367 -6.28204 0
M  V30 26368 H 2451.52 2.54185 -3.37861 0
M  V30 26369 H 2449.24 2.08524 -7.80733 0
M  V30 26370 H 2452.83 2.08757 -5.43058 0
M  V30 26371 H 2451.71 1.86403 -7.61724 0
M  V30 26372 N 2449.21 1.13259 1.09591 0
M  V30 26373 C 2450.16 0.803821 2.18269 0
M  V30 26374 C 2451.15 -0.213119 1.68054 0
M  V30 26375 O 2452.36 -0.0704383 1.79862 0
M  V30 26376 H 2448.73 0.242156 0.711944 0
M  V30 26377 H 2450.71 1.7286 2.43232 0
M  V30 26378 C 2449.45 0.284301 3.46536 0
M  V30 26379 H 2448.78 1.05813 3.85543 0
M  V30 26380 H 2450.22 0.092669 4.23899 0
M  V30 26381 C 2448.68 -0.989627 3.22037 0
M  V30 26382 O 2449.21 -2.06577 3.44512 0
M  V30 26383 N 2447.41 -0.920038 2.75651 0
M  V30 26384 H 2446.96 -0.0441566 2.57562 0
M  V30 26385 H 2446.92 -1.77301 2.59638 0
M  V30 26386 N 2450.69 -1.27539 0.925834 0
M  V30 26387 C 2451.62 -2.29302 0.440788 0
M  V30 26388 C 2452.6 -1.62649 -0.497942 0
M  V30 26389 O 2453.79 -1.89971 -0.403093 0
M  V30 26390 C 2450.92 -3.45923 -0.308987 0
M  V30 26391 C 2449.87 -4.24558 0.541735 0
M  V30 26392 C 2449.2 -5.33636 -0.337097 0
M  V30 26393 C 2450.5 -4.9011 1.80524 0
M  V30 26394 H 2452.19 -2.70124 1.29126 0
M  V30 26395 H 2449.74 -1.29857 0.622346 0
M  V30 26396 H 2451.69 -4.16211 -0.659242 0
M  V30 26397 H 2450.41 -3.04013 -1.19347 0
M  V30 26398 H 2449.07 -3.56013 0.874672 0
M  V30 26399 H 2448.72 -4.87969 -1.22048 0
M  V30 26400 H 2448.42 -5.87155 0.228601 0
M  V30 26401 H 2449.94 -6.06768 -0.682965 0
M  V30 26402 H 2451.36 -5.52696 1.52317 0
M  V30 26403 H 2449.75 -5.53679 2.3143 0
M  V30 26404 H 2450.82 -4.13917 2.52588 0
M  V30 26405 N 2452.17 -0.691135 -1.41637 0
M  V30 26406 C 2453.41 -0.220228 -2.01299 0
M  V30 26407 C 2453.74 1.17868 -1.54717 0
M  V30 26408 O 2453 1.80873 -0.747225 0
M  V30 26409 C 2453.3 -0.22134 -3.56714 0
M  V30 26410 C 2452.96 -1.56716 -4.22789 0
M  V30 26411 C 2451.62 -1.93561 -4.40554 0
M  V30 26412 C 2453.98 -2.45277 -4.59879 0
M  V30 26413 C 2451.3 -3.18561 -4.92682 0
M  V30 26414 C 2453.66 -3.69604 -5.13396 0
M  V30 26415 C 2452.32 -4.06598 -5.29372 0
M  V30 26416 H 2451.59 -0.0805873 -0.736605 0
M  V30 26417 H 2454.24 -0.889349 -1.69596 0
M  V30 26418 H 2452.54 0.531322 -3.88181 0
M  V30 26419 H 2454.24 0.160476 -4.00679 0
M  V30 26420 H 2450.83 -1.27057 -4.09334 0
M  V30 26421 H 2455.01 -2.18092 -4.45813 0
M  V30 26422 H 2450.27 -3.47223 -5.03236 0
M  V30 26423 H 2454.44 -4.38417 -5.41077 0
M  V30 26424 H 2452.07 -5.03529 -5.69528 0
M  V30 26425 N 2453.65 1.51461 -0.435577 0
M  V30 26426 C 2454.92 1.94662 0.19133 0
M  V30 26427 C 2455.3 1.37414 1.60252 0
M  V30 26428 O 2454.65 0.560497 2.21519 0
M  V30 26429 C 2454.86 3.48582 0.170849 0
M  V30 26430 C 2456.21 4.2292 0.377283 0
M  V30 26431 O 2457.23 3.55328 0.249042 0
M  V30 26432 O 2456.09 5.42829 0.632375 0
M  V30 26433 H 2453.19 0.816572 0.130918 0
M  V30 26434 H 2455.73 1.62368 -0.493429 0
M  V30 26435 H 2454.5 3.82701 -0.815805 0
M  V30 26436 H 2454.13 3.87313 0.898591 0
M  V30 26437 N 2455.12 0.166873 1.56714 0
M  V30 26438 C 2456.37 -0.479217 1.96748 0
M  V30 26439 C 2456.7 -1.63552 1.05266 0
M  V30 26440 O 2455.95 -1.95512 0.0858442 0
M  V30 26441 C 2456.25 -1.008 3.42891 0
M  V30 26442 C 2455.92 0.0319367 4.50889 0
M  V30 26443 C 2454.58 0.31776 4.8015 0
M  V30 26444 C 2456.93 0.738047 5.15948 0
M  V30 26445 C 2454.26 1.31516 5.7177 0
M  V30 26446 C 2456.61 1.7244 6.08644 0
M  V30 26447 C 2455.28 2.01771 6.36274 0
M  V30 26448 H 2454.55 -0.175358 0.719952 0
M  V30 26449 H 2457.19 0.257898 1.89755 0
M  V30 26450 H 2455.5 -1.82285 3.46813 0
M  V30 26451 H 2457.2 -1.51683 3.71205 0
M  V30 26452 H 2453.79 -0.201013 4.28128 0
M  V30 26453 H 2457.97 0.530438 4.93457 0
M  V30 26454 H 2453.23 1.54863 5.91462 0
M  V30 26455 H 2457.4 2.27694 6.58125 0
M  V30 26456 H 2455.03 2.79206 7.0707 0
M  V30 26457 N 2456.6 -1.57237 -0.106866 0
M  V30 26458 C 2457.85 -1.8576 -0.813697 0
M  V30 26459 C 2458.18 -0.754346 -1.7895 0
M  V30 26460 O 2457.46 0.238757 -1.93029 0
M  V30 26461 C 2457.74 -3.24897 -1.55288 0
M  V30 26462 C 2457.59 -4.45836 -0.595851 0
M  V30 26463 C 2458.91 -3.61768 -2.50624 0
M  V30 26464 H 2456.03 -0.675665 -0.294357 0
M  V30 26465 H 2458.67 -1.89841 -0.0776138 0
M  V30 26466 H 2456.82 -3.21548 -2.18035 0
M  V30 26467 H 2458.49 -4.61294 0.0237073 0
M  V30 26468 H 2456.74 -4.33703 0.0916953 0
M  V30 26469 H 2457.41 -5.39889 -1.14995 0
M  V30 26470 H 2459.88 -3.65985 -1.97976 0
M  V30 26471 H 2458.76 -4.60076 -2.99368 0
M  V30 26472 H 2459.02 -2.89827 -3.33845 0
M  V30 26473 N 2458.08 0.377381 -1.53015 0
M  V30 26474 C 2459.33 1.12291 -1.68874 0
M  V30 26475 C 2459.66 1.89305 -0.433257 0
M  V30 26476 O 2458.93 1.85984 0.569225 0
M  V30 26477 C 2459.22 2.09173 -2.93119 0
M  V30 26478 C 2459.07 1.35846 -4.28796 0
M  V30 26479 C 2460.39 3.09452 -3.12934 0
M  V30 26480 H 2457.51 0.406851 -0.614525 0
M  V30 26481 H 2460.15 0.404997 -1.85633 0
M  V30 26482 H 2458.3 2.70394 -2.78961 0
M  V30 26483 H 2459.97 0.775002 -4.54743 0
M  V30 26484 H 2458.22 0.660289 -4.28745 0
M  V30 26485 H 2458.89 2.06697 -5.1184 0
M  V30 26486 H 2461.36 2.58328 -3.26199 0
M  V30 26487 H 2460.24 3.74474 -4.01323 0
M  V30 26488 H 2460.5 3.78967 -2.27676 0
M  V30 26489 N 2459.56 1.44175 0.636506 0
M  V30 26490 C 2460.8 1.46892 1.39823 0
M  V30 26491 C 2461.14 0.0990926 1.93947 0
M  V30 26492 O 2460.41 -0.882514 1.73326 0
M  V30 26493 C 2460.7 2.52494 2.56746 0
M  V30 26494 C 2460.55 3.98815 2.08007 0
M  V30 26495 C 2461.87 2.54655 3.58941 0
M  V30 26496 H 2458.99 0.534839 0.507066 0
M  V30 26497 H 2461.63 1.75823 0.720157 0
M  V30 26498 H 2459.78 2.27955 3.14593 0
M  V30 26499 H 2461.45 4.34468 1.55032 0
M  V30 26500 H 2459.69 4.10848 1.39235 0
M  V30 26501 H 2460.36 4.68344 2.92161 0
M  V30 26502 H 2462.84 2.76568 3.10885 0
M  V30 26503 H 2461.72 3.30457 4.3828 0
M  V30 26504 H 2461.98 1.58653 4.12652 0
M  V30 26505 N 2461.04 -0.876421 1.30983 0
M  V30 26506 C 2462.29 -1.6237 1.19661 0
M  V30 26507 C 2462.6 -1.94052 -0.245601 0
M  V30 26508 O 2463.8 -2.67215 -0.480443 0
M  V30 26509 C 2462.26 -2.92684 2.09438 0
M  V30 26510 C 2461.87 -2.6851 3.58617 0
M  V30 26511 C 2463.61 -3.70665 2.06899 0
M  V30 26512 C 2461.52 -3.94691 4.40423 0
M  V30 26513 H 2460.45 -0.609206 0.444279 0
M  V30 26514 H 2463.1 -0.969578 1.55793 0
M  V30 26515 H 2461.48 -3.59436 1.66198 0
M  V30 26516 H 2462.66 -2.10205 4.10061 0
M  V30 26517 H 2460.97 -2.03892 3.63066 0
M  V30 26518 H 2463.57 -4.64261 2.65266 0
M  V30 26519 H 2463.91 -4.02722 1.05455 0
M  V30 26520 H 2464.44 -3.10788 2.48306 0
M  V30 26521 H 2461.18 -3.67789 5.42597 0
M  V30 26522 H 2460.7 -4.5247 3.93739 0
M  V30 26523 H 2462.38 -4.62636 4.52302 0
M  V30 26524 N 2462.51 -1.13839 -1.08989 0
M  V30 26525 C 2463.44 -0.842545 -2.17769 0
M  V30 26526 C 2464.43 0.199981 -1.6892 0
M  V30 26527 O 2465.61 0.0579389 -1.94114 0
M  V30 26528 C 2462.74 -0.312705 -3.45889 0
M  V30 26529 C 2461.69 -1.28999 -4.08097 0
M  V30 26530 C 2461.02 -0.619716 -5.31097 0
M  V30 26531 C 2462.32 -2.65013 -4.50073 0
M  V30 26532 H 2464.01 -1.75217 -2.42774 0
M  V30 26533 H 2461.56 -0.843895 -1.16681 0
M  V30 26534 H 2463.51 -0.0933784 -4.21297 0
M  V30 26535 H 2462.24 0.632326 -3.2042 0
M  V30 26536 H 2460.9 -1.49539 -3.34714 0
M  V30 26537 H 2460.54 0.330931 -5.0191 0
M  V30 26538 H 2460.24 -1.27177 -5.73672 0
M  V30 26539 H 2461.77 -0.409776 -6.09223 0
M  V30 26540 H 2463.18 -2.48416 -5.16684 0
M  V30 26541 H 2461.58 -3.26436 -5.03547 0
M  V30 26542 H 2462.65 -3.22338 -3.62252 0
M  V30 26543 N 2463.99 1.27046 -0.932584 0
M  V30 26544 C 2465.22 1.98786 -0.591509 0
M  V30 26545 C 2465.64 1.69063 0.824571 0
M  V30 26546 O 2465 0.933704 1.55408 0
M  V30 26547 C 2465.05 3.50921 -0.82987 0
M  V30 26548 O 2464.15 4.12273 0.102194 0
M  V30 26549 H 2463.49 0.623922 -0.227196 0
M  V30 26550 H 2466.02 1.61731 -1.25317 0
M  V30 26551 H 2466.03 4.01097 -0.747362 0
M  V30 26552 H 2464.71 3.71886 -1.86208 0
M  V30 26553 H 2463.29 3.72887 -0.0306417 0
M  V30 26554 N 2465.47 0.698636 1.41269 0
M  V30 26555 C 2466.72 0.227984 2.00407 0
M  V30 26556 C 2467.03 -1.1802 1.55983 0
M  V30 26557 O 2468.24 -1.74848 2.07702 0
M  V30 26558 C 2466.69 0.356699 3.58128 0
M  V30 26559 C 2466.3 1.77045 4.11533 0
M  V30 26560 C 2468.05 -0.0540223 4.24466 0
M  V30 26561 C 2465.95 1.85065 5.61698 0
M  V30 26562 H 2464.88 0.0814788 0.749585 0
M  V30 26563 H 2467.53 0.867277 1.61711 0
M  V30 26564 H 2465.92 -0.350896 3.94442 0
M  V30 26565 H 2467.09 2.50705 3.86631 0
M  V30 26566 H 2465.41 2.13112 3.57732 0
M  V30 26567 H 2468 -0.0145783 5.34698 0
M  V30 26568 H 2468.35 -1.09325 4.01689 0
M  V30 26569 H 2468.88 0.603406 3.93197 0
M  V30 26570 H 2465.62 2.87051 5.89307 0
M  V30 26571 H 2465.14 1.15794 5.88517 0
M  V30 26572 H 2466.82 1.61495 6.26521 0
M  V30 26573 N 2466.95 -1.51228 0.443603 0
M  V30 26574 C 2467.88 -2.30784 -0.355102 0
M  V30 26575 C 2468.86 -1.3647 -1.01538 0
M  V30 26576 O 2470.04 -1.65391 -1.01782 0
M  V30 26577 C 2467.17 -3.15442 -1.45306 0
M  V30 26578 C 2466.13 -4.18085 -0.915929 0
M  V30 26579 C 2465.45 -4.91303 -2.11011 0
M  V30 26580 C 2466.75 -5.22272 0.053952 0
M  V30 26581 H 2468.45 -2.97803 0.308819 0
M  V30 26582 H 2465.99 -1.43217 0.149963 0
M  V30 26583 H 2467.95 -3.6988 -2.01908 0
M  V30 26584 H 2466.67 -2.46255 -2.14536 0
M  V30 26585 H 2465.33 -3.64707 -0.372081 0
M  V30 26586 H 2464.98 -4.18614 -2.78875 0
M  V30 26587 H 2464.68 -5.60715 -1.75707 0
M  V30 26588 H 2466.2 -5.48567 -2.68155 0
M  V30 26589 H 2467.62 -5.71745 -0.421969 0
M  V30 26590 H 2466.01 -5.99247 0.319881 0
M  V30 26591 H 2467.08 -4.74714 0.988663 0
M  V30 26592 N 2468.43 -0.175182 -1.56623 0
M  V30 26593 C 2469.67 0.467851 -1.9661 0
M  V30 26594 C 2470 1.63517 -1.06241 0
M  V30 26595 O 2469.27 1.95471 -0.129557 0
M  V30 26596 H 2467.85 0.175832 -0.726011 0
M  V30 26597 H 2470.51 -0.257268 -1.93195 0
M  V30 26598 H 2469.6 0.825289 -3.00991 0
M  V30 26599 N 2469.91 1.57292 0.0985263 0
M  V30 26600 C 2470.84 2.04853 1.1206 0
M  V30 26601 C 2471.82 0.936792 1.4198 0
M  V30 26602 O 2473 1.20784 1.52069 0
M  V30 26603 C 2470.13 2.47008 2.4414 0
M  V30 26604 C 2469.09 3.61814 2.28636 0
M  V30 26605 C 2468.41 3.89935 3.65862 0
M  V30 26606 C 2469.71 4.92825 1.72977 0
M  V30 26607 H 2471.41 2.90491 0.724928 0
M  V30 26608 H 2468.95 1.3975 0.347266 0
M  V30 26609 H 2470.9 2.78889 3.15909 0
M  V30 26610 H 2469.63 1.58365 2.85636 0
M  V30 26611 H 2468.29 3.30174 1.59312 0
M  V30 26612 H 2467.94 2.98465 4.0488 0
M  V30 26613 H 2467.64 4.67224 3.56336 0
M  V30 26614 H 2469.16 4.24288 4.39104 0
M  V30 26615 H 2470.57 5.23109 2.34584 0
M  V30 26616 H 2468.97 5.74254 1.74219 0
M  V30 26617 H 2470.04 4.79981 0.688922 0
M  V30 26618 N 2471.38 -0.369261 1.53213 0
M  V30 26619 C 2472.63 -1.11394 1.69468 0
M  V30 26620 C 2472.96 -1.89073 0.44329 0
M  V30 26621 O 2472.24 -1.86283 -0.559354 0
M  V30 26622 C 2472.52 -2.07616 2.94224 0
M  V30 26623 C 2472.37 -1.3357 4.2951 0
M  V30 26624 C 2473.69 -3.07788 3.1457 0
M  V30 26625 H 2470.81 -0.403586 0.616674 0
M  V30 26626 H 2473.45 -0.395147 1.85846 0
M  V30 26627 H 2471.6 -2.68911 2.80391 0
M  V30 26628 H 2473.28 -0.750875 4.55148 0
M  V30 26629 H 2471.52 -0.637542 4.2909 0
M  V30 26630 H 2472.19 -2.0398 5.12929 0
M  V30 26631 H 2474.67 -2.56595 3.27564 0
M  V30 26632 H 2473.54 -3.72341 4.03303 0
M  V30 26633 H 2473.8 -3.77755 2.29682 0
M  V30 26634 N 2472.86 -1.4451 -0.628851 0
M  V30 26635 C 2473.79 -1.54379 -1.75184 0
M  V30 26636 C 2474.77 -0.396647 -1.65411 0
M  V30 26637 O 2475.96 -0.617063 -1.84136 0
M  V30 26638 C 2473.09 -1.48981 -3.13723 0
M  V30 26639 C 2472.04 -2.62195 -3.38287 0
M  V30 26640 C 2471.37 -2.41849 -4.76879 0
M  V30 26641 C 2472.67 -4.04332 -3.30625 0
M  V30 26642 H 2474.36 -2.48376 -1.67182 0
M  V30 26643 H 2471.91 -1.1954 -0.802888 0
M  V30 26644 H 2473.86 -1.54485 -3.92062 0
M  V30 26645 H 2472.58 -0.515017 -3.22514 0
M  V30 26646 H 2471.24 -2.56084 -2.62329 0
M  V30 26647 H 2470.89 -1.42557 -4.82376 0
M  V30 26648 H 2470.59 -3.17756 -4.94272 0
M  V30 26649 H 2472.12 -2.49174 -5.57445 0
M  V30 26650 H 2473.53 -4.118 -3.98866 0
M  V30 26651 H 2471.93 -4.8046 -3.59553 0
M  V30 26652 H 2473 -4.27742 -2.28397 0
M  V30 26653 N 2474.34 0.869463 -1.31446 0
M  V30 26654 C 2475.56 1.66056 -1.24259 0
M  V30 26655 C 2475.99 1.87149 0.188895 0
M  V30 26656 O 2475.35 1.41362 1.13519 0
M  V30 26657 C 2475.4 3.00555 -1.99246 0
M  V30 26658 O 2474.5 3.9036 -1.33014 0
M  V30 26659 H 2473.84 0.506824 -0.428982 0
M  V30 26660 H 2476.37 1.08401 -1.73523 0
M  V30 26661 H 2476.38 3.50488 -2.0886 0
M  V30 26662 H 2475.06 2.84523 -3.03347 0
M  V30 26663 H 2473.63 3.48811 -1.31854 0
M  V30 26664 N 2475.82 1.14415 1.08383 0
M  V30 26665 C 2477.09 0.823328 1.77428 0
M  V30 26666 C 2477.47 -0.683128 1.99741 0
M  V30 26667 O 2476.82 -1.62402 1.60742 0
M  V30 26668 C 2477.03 1.62232 3.09001 0
M  V30 26669 C 2478.38 1.82184 3.83529 0
M  V30 26670 O 2479.4 1.5892 3.18783 0
M  V30 26671 O 2478.26 2.21075 4.99788 0
M  V30 26672 H 2475.36 0.301725 0.769994 0
M  V30 26673 H 2477.9 1.24936 1.14844 0
M  V30 26674 H 2476.68 2.6456 2.88312 0
M  V30 26675 H 2476.3 1.19193 3.79313 0
M  V30 26676 N 2477.3 -1.26549 0.939309 0
M  V30 26677 C 2478.54 -1.93132 0.581635 0
M  V30 26678 C 2478.86 -1.74525 -0.883193 0
M  V30 26679 O 2480.06 -2.35548 -1.35016 0
M  V30 26680 C 2478.52 -3.46031 0.989486 0
M  V30 26681 C 2478.13 -3.73374 2.4758 0
M  V30 26682 C 2479.87 -4.18628 0.703617 0
M  V30 26683 C 2477.78 -5.19704 2.82245 0
M  V30 26684 H 2476.71 -0.723048 0.213816 0
M  V30 26685 H 2479.36 -1.43658 1.14169 0
M  V30 26686 H 2477.74 -3.94379 0.357972 0
M  V30 26687 H 2478.92 -3.35739 3.1562 0
M  V30 26688 H 2477.23 -3.14005 2.73477 0
M  V30 26689 H 2479.83 -5.26391 0.938961 0
M  V30 26690 H 2480.17 -4.14744 -0.359566 0
M  V30 26691 H 2480.7 -3.76139 1.29476 0
M  V30 26692 H 2477.44 -5.28687 3.87518 0
M  V30 26693 H 2476.96 -5.58443 2.18864 0
M  V30 26694 H 2478.64 -5.8769 2.70609 0
M  V30 26695 N 2478.77 -0.706118 -1.40896 0
M  V30 26696 C 2480.02 -0.238609 -2.00284 0
M  V30 26697 C 2480.34 1.17191 -1.56606 0
M  V30 26698 O 2481.54 1.73744 -2.08627 0
M  V30 26699 C 2480 -0.375686 -3.57934 0
M  V30 26700 C 2479.61 -1.79225 -4.10588 0
M  V30 26701 C 2481.35 0.0315111 -4.24488 0
M  V30 26702 C 2479.26 -1.88041 -5.60709 0
M  V30 26703 H 2478.19 -0.0854529 -0.749142 0
M  V30 26704 H 2480.84 -0.875841 -1.61249 0
M  V30 26705 H 2479.22 0.329973 -3.94623 0
M  V30 26706 H 2480.39 -2.52752 -3.85296 0
M  V30 26707 H 2478.71 -2.15006 -3.56597 0
M  V30 26708 H 2481.31 -0.0137782 -5.34698 0
M  V30 26709 H 2481.65 1.07193 -4.02263 0
M  V30 26710 H 2482.18 -0.62425 -3.92871 0
M  V30 26711 H 2478.92 -2.90172 -5.87776 0
M  V30 26712 H 2478.44 -1.18913 -5.87894 0
M  V30 26713 H 2480.12 -1.64816 -6.25656 0
M  V30 26714 N 2480.25 1.50991 -0.451617 0
M  V30 26715 C 2481.16 2.31846 0.35839 0
M  V30 26716 C 2482.18 1.41375 1.01435 0
M  V30 26717 O 2483.35 1.74441 1.0066 0
M  V30 26718 C 2480.42 3.15518 1.43699 0
M  V30 26719 C 2479.48 4.21786 0.799668 0
M  V30 26720 C 2478.71 5.01459 1.82687 0
M  V30 26721 O 2478.94 4.81947 3.05096 0
M  V30 26722 O 2477.87 5.85164 1.40948 0
M  V30 26723 H 2481.7 3.02194 -0.302085 0
M  V30 26724 H 2479.28 1.47862 -0.213851 0
M  V30 26725 H 2481.16 3.67493 2.0622 0
M  V30 26726 H 2479.84 2.4792 2.08129 0
M  V30 26727 H 2478.74 3.73853 0.136018 0
M  V30 26728 H 2480.08 4.91799 0.198632 0
M  V30 26729 N 2481.73 0.183486 1.56528 0
M  V30 26730 C 2482.68 -0.742016 2.18547 0
M  V30 26731 C 2483.65 -1.21818 1.12914 0
M  V30 26732 O 2484.83 -1.28416 1.41117 0
M  V30 26733 C 2481.97 -1.96084 2.83981 0
M  V30 26734 C 2481.08 -1.52712 4.04108 0
M  V30 26735 C 2480.22 -2.70055 4.57432 0
M  V30 26736 C 2479.26 -2.23233 5.69942 0
M  V30 26737 N 2478.4 -3.33712 6.17722 0
M  V30 26738 H 2483.24 -0.20638 2.97284 0
M  V30 26739 H 2480.77 -0.0901313 1.46824 0
M  V30 26740 H 2482.73 -2.67589 3.20082 0
M  V30 26741 H 2481.36 -2.46998 2.07826 0
M  V30 26742 H 2480.41 -0.70837 3.73746 0
M  V30 26743 H 2481.72 -1.14352 4.85515 0
M  V30 26744 H 2480.88 -3.49699 4.95778 0
M  V30 26745 H 2479.62 -3.11683 3.75107 0
M  V30 26746 H 2478.62 -1.42039 5.31136 0
M  V30 26747 H 2479.85 -1.82649 6.54077 0
M  V30 26748 H 2477.79 -3.74892 5.38323 0
M  V30 26749 H 2477.71 -2.99483 6.94151 0
M  V30 26750 H 2478.98 -4.13604 6.60721 0
M  V30 26751 N 2483.21 -1.57342 -0.0901833 0
M  V30 26752 C 2484.44 -1.90271 -0.805022 0
M  V30 26753 C 2484.85 -0.775872 -1.7256 0
M  V30 26754 O 2484.19 0.260811 -1.81839 0
M  V30 26755 C 2484.25 -3.185 -1.66728 0
M  V30 26756 C 2483.91 -4.47685 -0.918013 0
M  V30 26757 C 2484.91 -5.1932 -0.245583 0
M  V30 26758 C 2482.6 -4.94341 -0.890637 0
M  V30 26759 C 2484.59 -6.3585 0.444199 0
M  V30 26760 C 2482.28 -6.10782 -0.197071 0
M  V30 26761 C 2483.28 -6.81387 0.469164 0
M  V30 26762 O 2482.96 -7.95609 1.1516 0
M  V30 26763 H 2482.7 -0.633789 -0.235132 0
M  V30 26764 H 2485.25 -2.0528 -0.0703444 0
M  V30 26765 H 2483.48 -2.9965 -2.44431 0
M  V30 26766 H 2485.17 -3.37221 -2.25913 0
M  V30 26767 H 2485.93 -4.84312 -0.258161 0
M  V30 26768 H 2481.81 -4.39271 -1.39865 0
M  V30 26769 H 2485.36 -6.90896 0.964788 0
M  V30 26770 H 2481.25 -6.45242 -0.182357 0
M  V30 26771 H 2482.02 -8.1162 1.05899 0
M  V30 26772 N 2484.69 0.36113 -1.53407 0
M  V30 26773 C 2485.93 1.1033 -1.69804 0
M  V30 26774 C 2486.26 1.89172 -0.45212 0
M  V30 26775 O 2485.52 1.87337 0.565984 0
M  V30 26776 C 2485.82 2.08591 -2.90215 0
M  V30 26777 C 2485.48 1.46195 -4.26542 0
M  V30 26778 C 2484.14 1.28907 -4.63612 0
M  V30 26779 C 2486.5 1.01092 -5.11302 0
M  V30 26780 C 2483.82 0.651054 -5.83076 0
M  V30 26781 C 2486.18 0.386896 -6.31416 0
M  V30 26782 C 2484.84 0.20154 -6.67196 0
M  V30 26783 H 2484.11 0.403726 -0.621358 0
M  V30 26784 H 2486.76 0.384576 -1.87599 0
M  V30 26785 H 2485.06 2.86783 -2.66951 0
M  V30 26786 H 2486.76 2.65977 -3.00096 0
M  V30 26787 H 2483.35 1.60646 -3.97355 0
M  V30 26788 H 2487.53 1.13241 -4.83208 0
M  V30 26789 H 2482.79 0.495898 -6.09386 0
M  V30 26790 H 2486.96 0.0292339 -6.96394 0
M  V30 26791 H 2484.59 -0.2949 -7.59628 0
M  V30 26792 N 2486.16 1.44842 0.621179 0
M  V30 26793 C 2487.41 1.48367 1.38257 0
M  V30 26794 C 2487.74 0.119658 1.93831 0
M  V30 26795 O 2487.02 -0.864081 1.74252 0
M  V30 26796 C 2487.3 2.55203 2.54054 0
M  V30 26797 C 2487.15 4.00999 2.03765 0
M  V30 26798 C 2488.47 2.58448 3.5622 0
M  V30 26799 H 2485.59 0.540187 0.501365 0
M  V30 26800 H 2488.23 1.76577 0.701469 0
M  V30 26801 H 2486.38 2.31279 3.12157 0
M  V30 26802 H 2488.06 4.36088 1.50415 0
M  V30 26803 H 2486.3 4.12302 1.34869 0
M  V30 26804 H 2486.97 4.71416 2.87177 0
M  V30 26805 H 2489.45 2.7985 3.07934 0
M  V30 26806 H 2488.32 3.35087 4.3475 0
M  V30 26807 H 2488.58 1.63021 4.10946 0
M  V30 26808 N 2487.64 -0.862479 1.31905 0
M  V30 26809 C 2488.87 -1.65395 1.25137 0
M  V30 26810 C 2489.29 -1.87247 -0.178967 0
M  V30 26811 O 2488.65 -1.41962 -1.12768 0
M  V30 26812 C 2488.7 -2.99494 2.00837 0
M  V30 26813 O 2487.8 -3.89649 1.35082 0
M  V30 26814 H 2487.14 -0.504542 0.431664 0
M  V30 26815 H 2489.67 -1.07479 1.74096 0
M  V30 26816 H 2489.68 -3.49375 2.10715 0
M  V30 26817 H 2488.36 -2.8291 3.04852 0
M  V30 26818 H 2486.94 -3.48106 1.33702 0
M  V30 26819 N 2489.12 -1.14988 -1.07775 0
M  V30 26820 C 2490.53 -0.932156 -1.61764 0
M  V30 26821 C 2490.88 0.527547 -1.88975 0
M  V30 26822 O 2490.01 1.39778 -1.652 0
M  V30 26823 C 2490.6 -1.68569 -2.93888 0
M  V30 26824 C 2489.16 -1.51336 -3.44637 0
M  V30 26825 C 2488.31 -1.70404 -2.18764 0
M  V30 26826 H 2491.26 -1.30076 -0.909178 0
M  V30 26827 H 2491.28 -1.15266 -3.62621 0
M  V30 26828 H 2490.79 -2.74804 -2.74052 0
M  V30 26829 H 2488.89 -0.474767 -3.69563 0
M  V30 26830 H 2489.01 -2.28754 -4.20962 0
M  V30 26831 H 2487.37 -1.13021 -2.28251 0
M  V30 26832 H 2488.15 -2.77996 -2.01428 0
M  V30 26833 N 2490.6 1.26049 -0.946007 0
M  V30 26834 C 2491.83 1.97609 -0.613059 0
M  V30 26835 C 2492.24 1.70399 0.813005 0
M  V30 26836 O 2491.6 0.975006 1.54272 0
M  V30 26837 C 2491.65 3.51325 -0.851651 0
M  V30 26838 O 2491.37 3.77591 -2.22163 0
M  V30 26839 C 2492.87 4.40121 -0.529909 0
M  V30 26840 H 2490.09 0.630129 -0.230604 0
M  V30 26841 H 2492.64 1.60441 -1.26803 0
M  V30 26842 H 2490.79 3.86636 -0.243219 0
M  V30 26843 H 2491.2 4.72096 -2.28528 0
M  V30 26844 H 2492.68 5.46916 -0.747444 0
M  V30 26845 H 2493.16 4.35926 0.535264 0
M  V30 26846 H 2493.76 4.10362 -1.11728 0
M  V30 26847 N 2492.08 0.71358 1.4052 0
M  V30 26848 C 2493.01 0.0744274 2.33381 0
M  V30 26849 C 2493.99 -0.747709 1.52785 0
M  V30 26850 O 2495.17 -0.69704 1.81259 0
M  V30 26851 C 2492.3 -0.849539 3.36749 0
M  V30 26852 C 2491.26 -0.133172 4.27793 0
M  V30 26853 C 2490.58 -1.17272 5.21681 0
M  V30 26854 C 2491.88 1.01143 5.12413 0
M  V30 26855 H 2493.58 0.850057 2.87079 0
M  V30 26856 H 2491.12 0.410226 1.38033 0
M  V30 26857 H 2493.08 -1.30605 4.0065 0
M  V30 26858 H 2491.8 -1.65704 2.81442 0
M  V30 26859 H 2490.46 0.303491 3.65342 0
M  V30 26860 H 2490.11 -1.97322 4.6268 0
M  V30 26861 H 2489.81 -0.698294 5.83436 0
M  V30 26862 H 2491.33 -1.62937 5.88459 0
M  V30 26863 H 2492.74 0.634374 5.69779 0
M  V30 26864 H 2491.14 1.41409 5.83201 0
M  V30 26865 H 2492.21 1.843 4.48511 0
M  V30 26866 N 2493.55 -1.50749 0.459618 0
M  V30 26867 C 2494.48 -2.31148 -0.330604 0
M  V30 26868 C 2495.47 -1.37539 -1.00085 0
M  V30 26869 O 2496.65 -1.66461 -1.00022 0
M  V30 26870 C 2493.78 -3.16965 -1.41952 0
M  V30 26871 C 2492.73 -4.19033 -0.871534 0
M  V30 26872 C 2492.06 -4.93513 -2.05788 0
M  V30 26873 C 2493.36 -5.22186 0.109343 0
M  V30 26874 H 2495.05 -2.97459 0.340388 0
M  V30 26875 H 2492.6 -1.4305 0.165144 0
M  V30 26876 H 2494.55 -3.72001 -1.97973 0
M  V30 26877 H 2493.28 -2.48517 -2.11912 0
M  V30 26878 H 2491.94 -3.65081 -0.333378 0
M  V30 26879 H 2491.58 -4.21548 -2.74419 0
M  V30 26880 H 2491.28 -5.62547 -1.6975 0
M  V30 26881 H 2492.81 -5.5138 -2.62321 0
M  V30 26882 H 2494.22 -5.7216 -0.361304 0
M  V30 26883 H 2492.62 -5.98874 0.383421 0
M  V30 26884 H 2493.69 -4.73639 1.03896 0
M  V30 26885 N 2495.03 -0.191784 -1.56429 0
M  V30 26886 C 2496.45 0.164109 -1.58754 0
M  V30 26887 C 2496.65 1.61286 -1.20785 0
M  V30 26888 O 2495.7 2.34787 -0.92904 0
M  V30 26889 C 2497.02 -0.135248 -3.00396 0
M  V30 26890 C 2498.57 -0.0750901 -3.1291 0
M  V30 26891 C 2499.04 -0.347712 -4.56678 0
M  V30 26892 N 2500.53 -0.296212 -4.62252 0
M  V30 26893 C 2501.27 -0.481048 -5.71379 0
M  V30 26894 N 2500.76 -0.726054 -6.88985 0
M  V30 26895 N 2502.56 -0.415534 -5.60562 0
M  V30 26896 H 2494.71 -1.13721 -1.79391 0
M  V30 26897 H 2496.97 -0.453657 -0.832406 0
M  V30 26898 H 2496.68 -1.13964 -3.32724 0
M  V30 26899 H 2496.55 0.563708 -3.72964 0
M  V30 26900 H 2498.94 0.919899 -2.80396 0
M  V30 26901 H 2499.02 -0.807071 -2.42734 0
M  V30 26902 H 2498.66 -1.34 -4.89904 0
M  V30 26903 H 2498.59 0.40512 -5.25039 0
M  V30 26904 H 2501.08 -0.113326 -3.7773 0
M  V30 26905 H 2501.4 -0.855992 -7.68045 0
M  V30 26906 H 2499.74 -0.762909 -6.908 0
M  V30 26907 H 2502.93 -0.224568 -4.67561 0
M  V30 26908 H 2503.1 -0.563002 -6.4555 0
M  V30 26909 N 2496.51 1.57387 0.0818378 0
M  V30 26910 C 2497.76 1.87031 0.784041 0
M  V30 26911 C 2498.09 0.78272 1.77728 0
M  V30 26912 O 2497.36 -0.208017 1.93384 0
M  V30 26913 C 2497.65 3.27326 1.50099 0
M  V30 26914 C 2497.5 4.46727 0.524847 0
M  V30 26915 C 2498.82 3.65709 2.44837 0
M  V30 26916 H 2495.94 0.680262 0.28357 0
M  V30 26917 H 2498.58 1.89941 0.0474019 0
M  V30 26918 H 2496.73 3.24976 2.12891 0
M  V30 26919 H 2498.4 4.61198 -0.0970922 0
M  V30 26920 H 2496.65 4.33502 -0.160682 0
M  V30 26921 H 2497.32 5.4165 1.06391 0
M  V30 26922 H 2499.79 3.69088 1.92128 0
M  V30 26923 H 2498.67 4.64781 2.9201 0
M  V30 26924 H 2498.93 2.95101 3.29192 0
M  V30 26925 N 2497.99 -0.35299 1.53596 0
M  V30 26926 C 2499.23 -1.0959 1.7064 0
M  V30 26927 C 2499.57 -1.88592 0.463319 0
M  V30 26928 O 2498.84 -1.86866 -0.539564 0
M  V30 26929 C 2499.13 -2.04484 2.96409 0
M  V30 26930 C 2498.98 -1.29007 4.30903 0
M  V30 26931 C 2500.3 -3.04434 3.17817 0
M  V30 26932 H 2497.42 -0.397023 0.62092 0
M  V30 26933 H 2500.06 -0.375413 1.86254 0
M  V30 26934 H 2498.21 -2.65922 2.83228 0
M  V30 26935 H 2499.88 -0.702558 4.55919 0
M  V30 26936 H 2498.12 -0.591996 4.29742 0
M  V30 26937 H 2498.79 -1.98528 5.15064 0
M  V30 26938 H 2501.27 -2.53106 3.30267 0
M  V30 26939 H 2500.15 -3.68042 4.0723 0
M  V30 26940 H 2500.41 -3.75297 2.33676 0
M  V30 26941 N 2499.47 -1.45169 -0.613489 0
M  V30 26942 C 2500.88 -1.29445 -0.933606 0
M  V30 26943 C 2501.08 -0.243137 -2.00028 0
M  V30 26944 O 2500.14 0.364948 -2.49849 0
M  V30 26945 C 2501.45 -2.67157 -1.38013 0
M  V30 26946 C 2503 -2.75007 -1.49466 0
M  V30 26947 C 2503.48 -4.1323 -1.97496 0
M  V30 26948 N 2504.97 -4.15495 -2.04739 0
M  V30 26949 C 2505.7 -5.19311 -2.43112 0
M  V30 26950 N 2505.2 -6.33478 -2.80495 0
M  V30 26951 N 2506.99 -5.06669 -2.43399 0
M  V30 26952 H 2499.14 -2.12202 0.091647 0
M  V30 26953 H 2501.4 -0.947753 -0.0216488 0
M  V30 26954 H 2501.11 -3.45248 -0.670564 0
M  V30 26955 H 2500.98 -2.95226 -2.34779 0
M  V30 26956 H 2503.37 -1.97223 -2.19515 0
M  V30 26957 H 2503.45 -2.50658 -0.510298 0
M  V30 26958 H 2503.1 -4.91497 -1.28036 0
M  V30 26959 H 2503.03 -4.34967 -2.96836 0
M  V30 26960 H 2505.52 -3.33106 -1.78462 0
M  V30 26961 H 2505.83 -7.08492 -3.08639 0
M  V30 26962 H 2504.18 -6.36889 -2.78205 0
M  V30 26963 H 2507.37 -4.16526 -2.13596 0
M  V30 26964 H 2507.54 -5.87696 -2.72979 0
M  V30 26965 N 2500.95 0.855472 -1.32361 0
M  V30 26966 C 2502.19 1.61198 -1.23057 0
M  V30 26967 C 2502.52 1.9309 0.20737 0
M  V30 26968 O 2501.8 1.57278 1.14429 0
M  V30 26969 C 2502.08 2.93284 -2.08942 0
M  V30 26970 C 2501.94 2.68179 -3.6111 0
M  V30 26971 C 2503.25 3.94545 -1.94993 0
M  V30 26972 H 2500.37 0.584919 -0.448374 0
M  V30 26973 H 2503.02 0.987888 -1.62298 0
M  V30 26974 H 2501.17 3.46548 -1.75605 0
M  V30 26975 H 2502.84 2.21475 -4.04656 0
M  V30 26976 H 2501.08 2.02158 -3.83816 0
M  V30 26977 H 2501.75 3.62227 -4.16528 0
M  V30 26978 H 2504.23 3.50536 -2.24196 0
M  V30 26979 H 2503.1 4.84824 -2.57364 0
M  V30 26980 H 2503.36 4.32478 -0.917339 0
M  V30 26981 N 2502.42 1.15558 1.07164 0
M  V30 26982 C 2503.39 0.856682 2.12588 0
M  V30 26983 C 2504.39 -0.144411 1.6015 0
M  V30 26984 O 2505.58 0.0854469 1.7399 0
M  V30 26985 C 2502.71 0.279465 3.39753 0
M  V30 26986 H 2503.9 1.79116 2.40536 0
M  V30 26987 H 2501.45 0.96332 1.23085 0
M  V30 26988 H 2502.19 -0.663119 3.17448 0
M  V30 26989 H 2501.97 1.0007 3.79115 0
M  V30 26990 H 2503.46 0.0879847 4.17507 0
M  V30 26991 N 2503.9 -1.25546 0.952678 0
M  V30 26992 C 2504.85 -2.25961 0.47012 0
M  V30 26993 C 2505.82 -1.59123 -0.476356 0
M  V30 26994 O 2507 -1.86771 -0.390037 0
M  V30 26995 C 2504.14 -3.44209 -0.24782 0
M  V30 26996 C 2503.26 -4.2569 0.735666 0
M  V30 26997 C 2502.39 -5.312 -0.00463723 0
M  V30 26998 C 2501.43 -6.04367 0.969911 0
M  V30 26999 N 2500.57 -7.01616 0.260609 0
M  V30 27000 H 2505.41 -2.66609 1.33131 0
M  V30 27001 H 2502.94 -1.31075 0.667673 0
M  V30 27002 H 2504.9 -4.11611 -0.680622 0
M  V30 27003 H 2503.53 -3.04442 -1.07307 0
M  V30 27004 H 2502.58 -3.57969 1.28695 0
M  V30 27005 H 2503.9 -4.76355 1.47942 0
M  V30 27006 H 2503.05 -6.04668 -0.496169 0
M  V30 27007 H 2501.79 -4.81403 -0.781198 0
M  V30 27008 H 2500.79 -5.29716 1.47246 0
M  V30 27009 H 2502.02 -6.56253 1.74667 0
M  V30 27010 H 2499.97 -6.54113 -0.497249 0
M  V30 27011 H 2499.88 -7.50089 0.943494 0
M  V30 27012 H 2501.15 -7.79219 -0.20945 0
M  V30 27013 N 2505.38 -0.721022 -1.40139 0
M  V30 27014 C 2506.63 -0.263267 -2.01084 0
M  V30 27015 C 2506.96 1.14226 -1.57054 0
M  V30 27016 O 2506.23 1.77597 -0.793058 0
M  V30 27017 C 2506.52 -0.349407 -3.58401 0
M  V30 27018 C 2506.37 -1.7937 -4.12488 0
M  V30 27019 C 2507.69 0.276274 -4.39232 0
M  V30 27020 H 2504.81 -0.0971357 -0.730571 0
M  V30 27021 H 2507.45 -0.914547 -1.66541 0
M  V30 27022 H 2505.6 0.205097 -3.87958 0
M  V30 27023 H 2507.27 -2.40401 -3.93707 0
M  V30 27024 H 2505.51 -2.31964 -3.66572 0
M  V30 27025 H 2506.19 -1.80533 -5.21643 0
M  V30 27026 H 2508.66 -0.196257 -4.15637 0
M  V30 27027 H 2507.54 0.185584 -5.48586 0
M  V30 27028 H 2507.8 1.36052 -4.20645 0
M  V30 27029 N 2506.86 1.50503 -0.467606 0
M  V30 27030 C 2508.11 2.01907 0.0884114 0
M  V30 27031 C 2508.43 1.3519 1.4053 0
M  V30 27032 O 2507.7 0.496112 1.89514 0
M  V30 27033 H 2506.28 0.746148 0.0356634 0
M  V30 27034 H 2508.94 1.84868 -0.617232 0
M  V30 27035 H 2508.03 3.11157 0.242445 0
M  V30 27036 N 2508.34 0.200077 1.56325 0
M  V30 27037 C 2509.75 -0.155688 1.58839 0
M  V30 27038 C 2509.95 -1.60643 1.21639 0
M  V30 27039 O 2509.01 -2.34291 0.941478 0
M  V30 27040 C 2510.32 0.151176 3.0032 0
M  V30 27041 C 2511.87 0.0916834 3.12866 0
M  V30 27042 C 2512.34 0.371926 4.56487 0
M  V30 27043 N 2513.83 0.320722 4.62088 0
M  V30 27044 C 2514.57 0.511343 5.71115 0
M  V30 27045 N 2514.07 0.762582 6.8859 0
M  V30 27046 N 2515.86 0.445256 5.60334 0
M  V30 27047 H 2508.01 1.14671 1.78786 0
M  V30 27048 H 2510.27 0.458065 0.829988 0
M  V30 27049 H 2509.98 1.15726 3.32115 0
M  V30 27050 H 2509.85 -0.543921 3.73258 0
M  V30 27051 H 2512.24 -0.905016 2.8088 0
M  V30 27052 H 2512.32 0.819933 2.42303 0
M  V30 27053 H 2511.96 1.36596 4.89187 0
M  V30 27054 H 2511.89 -0.37727 5.25247 0
M  V30 27055 H 2514.39 0.133356 3.77665 0
M  V30 27056 H 2514.7 0.896711 7.6758 0
M  V30 27057 H 2513.04 0.799533 6.90386 0
M  V30 27058 H 2516.23 0.249361 4.67435 0
M  V30 27059 H 2516.41 0.597229 6.45242 0
M  V30 27060 N 2509.81 -1.57429 -0.0734901 0
M  V30 27061 C 2511.06 -1.87444 -0.774112 0
M  V30 27062 C 2511.39 -0.792134 -1.7731 0
M  V30 27063 O 2510.67 0.197759 -1.93492 0
M  V30 27064 C 2510.95 -3.28117 -1.48361 0
M  V30 27065 C 2510.8 -4.46999 -0.501149 0
M  V30 27066 C 2512.12 -3.67002 -2.42894 0
M  V30 27067 H 2509.24 -0.681757 -0.279959 0
M  V30 27068 H 2511.88 -1.89963 -0.0373282 0
M  V30 27069 H 2510.03 -3.26101 -2.11165 0
M  V30 27070 H 2511.71 -4.6114 0.121549 0
M  V30 27071 H 2509.95 -4.33411 0.18367 0
M  V30 27072 H 2510.62 -5.42207 -1.03517 0
M  V30 27073 H 2513.1 -3.70102 -1.90168 0
M  V30 27074 H 2511.97 -4.66323 -2.89541 0
M  V30 27075 H 2512.23 -2.96843 -3.27623 0
M  V30 27076 N 2511.29 0.344839 -1.53781 0
M  V30 27077 C 2512.22 1.42903 -1.84665 0
M  V30 27078 C 2513.2 1.54953 -0.701675 0
M  V30 27079 O 2514.39 1.69182 -0.953467 0
M  V30 27080 C 2511.52 2.79971 -2.05508 0
M  V30 27081 C 2510.47 2.82728 -3.21323 0
M  V30 27082 C 2509.8 4.22669 -3.27498 0
M  V30 27083 C 2511.1 2.48381 -4.59461 0
M  V30 27084 H 2512.79 1.17306 -2.75463 0
M  V30 27085 H 2510.34 0.562872 -1.32543 0
M  V30 27086 H 2512.29 3.55863 -2.25697 0
M  V30 27087 H 2511.01 3.07 -1.1144 0
M  V30 27088 H 2509.67 2.09289 -3.00988 0
M  V30 27089 H 2509.32 4.46806 -2.31027 0
M  V30 27090 H 2509.02 4.25426 -4.05323 0
M  V30 27091 H 2510.55 5.00405 -3.49895 0
M  V30 27092 H 2511.96 3.13986 -4.79672 0
M  V30 27093 H 2510.36 2.62422 -5.3968 0
M  V30 27094 H 2511.43 1.43572 -4.63158 0
M  V30 27095 N 2512.77 1.45492 0.605781 0
M  V30 27096 C 2514.19 1.29938 0.926728 0
M  V30 27097 C 2514.39 0.253741 1.99896 0
M  V30 27098 O 2513.44 -0.351693 2.50039 0
M  V30 27099 C 2514.75 2.67885 1.36594 0
M  V30 27100 C 2516.3 2.75796 1.48006 0
M  V30 27101 C 2516.78 4.14272 1.95302 0
M  V30 27102 N 2518.27 4.16575 2.02533 0
M  V30 27103 C 2519 5.20593 2.40354 0
M  V30 27104 N 2518.5 6.34957 2.77132 0
M  V30 27105 N 2520.29 5.07952 2.40709 0
M  V30 27106 H 2512.44 2.12151 -0.102899 0
M  V30 27107 H 2514.71 0.947854 0.0166223 0
M  V30 27108 H 2514.41 3.45599 0.652246 0
M  V30 27109 H 2514.29 2.96467 2.3321 0
M  V30 27110 H 2516.67 1.98385 2.18466 0
M  V30 27111 H 2516.75 2.50925 0.496997 0
M  V30 27112 H 2516.4 4.92169 1.25428 0
M  V30 27113 H 2516.33 4.36535 2.94525 0
M  V30 27114 H 2518.82 3.34048 1.76693 0
M  V30 27115 H 2519.13 7.10119 3.04878 0
M  V30 27116 H 2517.48 6.38355 2.74823 0
M  V30 27117 H 2520.67 4.17653 2.11384 0
M  V30 27118 H 2520.84 5.89135 2.69858 0
M  V30 27119 N 2514.25 -0.848441 1.32813 0
M  V30 27120 C 2515.18 -1.97297 1.24885 0
M  V30 27121 C 2516.16 -1.69592 0.131386 0
M  V30 27122 O 2517.34 -1.91552 0.319586 0
M  V30 27123 C 2514.47 -3.33259 0.977518 0
M  V30 27124 C 2513.43 -3.75335 2.05689 0
M  V30 27125 C 2512.75 -5.08997 1.63786 0
M  V30 27126 C 2514.05 -3.90137 3.47261 0
M  V30 27127 H 2515.75 -2.04187 2.1897 0
M  V30 27128 H 2513.29 -0.98101 1.05414 0
M  V30 27129 H 2515.25 -4.11488 0.908585 0
M  V30 27130 H 2513.97 -3.266 0.00103742 0
M  V30 27131 H 2512.63 -2.99362 2.11608 0
M  V30 27132 H 2512.28 -4.988 0.648656 0
M  V30 27133 H 2511.98 -5.3812 2.36009 0
M  V30 27134 H 2513.5 -5.89712 1.58341 0
M  V30 27135 H 2514.92 -4.58703 3.43896 0
M  V30 27136 H 2513.31 -4.30685 4.17888 0
M  V30 27137 H 2514.38 -2.92867 3.86467 0
M  V30 27138 N 2515.73 -1.16125 -1.06549 0
M  V30 27139 C 2516.97 -0.942552 -1.79566 0
M  V30 27140 C 2517.31 0.528514 -1.8687 0
M  V30 27141 O 2516.58 1.39204 -1.3584 0
M  V30 27142 C 2516.86 -1.56752 -3.24192 0
M  V30 27143 C 2516.72 -3.10975 -3.24984 0
M  V30 27144 C 2518.04 -1.26005 -4.21676 0
M  V30 27145 H 2515.15 -0.343839 -0.651877 0
M  V30 27146 H 2517.8 -1.43415 -1.24628 0
M  V30 27147 H 2515.95 -1.14948 -3.71105 0
M  V30 27148 H 2517.62 -3.61742 -2.86252 0
M  V30 27149 H 2515.86 -3.44441 -2.6371 0
M  V30 27150 H 2516.53 -3.49823 -4.26999 0
M  V30 27151 H 2519.01 -1.6218 -3.83193 0
M  V30 27152 H 2517.88 -1.72339 -5.21143 0
M  V30 27153 H 2518.15 -0.178445 -4.4174 0
M  V30 27154 N 2517.2 1.25039 -0.959323 0
M  V30 27155 C 2518.15 2.25709 -0.482097 0
M  V30 27156 C 2519.12 1.59373 0.467911 0
M  V30 27157 O 2520.31 1.86975 0.380126 0
M  V30 27158 C 2517.45 3.44336 0.229562 0
M  V30 27159 C 2516.56 4.25294 -0.758231 0
M  V30 27160 C 2515.69 5.31195 -0.0235337 0
M  V30 27161 C 2514.73 6.03844 -1.00195 0
M  V30 27162 N 2513.87 7.01468 -0.297814 0
M  V30 27163 H 2518.71 2.65899 -1.34543 0
M  V30 27164 H 2516.25 1.30719 -0.674615 0
M  V30 27165 H 2518.21 4.11966 0.658784 0
M  V30 27166 H 2516.84 3.05007 1.05691 0
M  V30 27167 H 2515.89 3.57281 -1.30592 0
M  V30 27168 H 2517.2 4.75564 -1.50467 0
M  V30 27169 H 2516.35 6.04922 0.464095 0
M  V30 27170 H 2515.09 4.8181 0.755657 0
M  V30 27171 H 2514.1 5.28927 -1.50053 0
M  V30 27172 H 2515.32 6.55318 -1.78145 0
M  V30 27173 H 2513.27 6.54367 0.462553 0
M  V30 27174 H 2513.19 7.49579 -0.98326 0
M  V30 27175 H 2514.45 7.79319 0.168123 0
M  V30 27176 N 2518.68 0.728444 1.39755 0
M  V30 27177 C 2519.93 0.272982 2.00248 0
M  V30 27178 C 2520.25 -1.14175 1.58079 0
M  V30 27179 O 2519.52 -1.77632 0.826046 0
M  V30 27180 H 2518.1 0.0979377 0.740552 0
M  V30 27181 H 2520.76 0.936942 1.70902 0
M  V30 27182 H 2519.86 0.316196 3.10494 0
M  V30 27183 N 2520.16 -1.50253 0.475581 0
M  V30 27184 C 2521.12 -2.27162 -0.304976 0
M  V30 27185 C 2522.12 -1.32125 -0.916496 0
M  V30 27186 O 2523.31 -1.55511 -0.784976 0
M  V30 27187 C 2520.45 -3.0923 -1.43491 0
M  V30 27188 H 2521.64 -2.97614 0.369564 0
M  V30 27189 H 2519.19 -1.54602 0.229774 0
M  V30 27190 H 2519.93 -2.43284 -2.14437 0
M  V30 27191 H 2519.71 -3.79077 -1.00217 0
M  V30 27192 H 2521.2 -3.67384 -1.98541 0
M  V30 27193 N 2521.64 -0.208365 -1.56217 0
M  V30 27194 C 2522.59 0.707153 -2.197 0
M  V30 27195 C 2523.56 1.20006 -1.14838 0
M  V30 27196 O 2524.74 1.26155 -1.43142 0
M  V30 27197 C 2521.88 1.91541 -2.87064 0
M  V30 27198 C 2520.99 1.46264 -4.06486 0
M  V30 27199 C 2520.13 2.62744 -4.6167 0
M  V30 27200 C 2519.17 2.14137 -5.73421 0
M  V30 27201 N 2518.3 3.23842 -6.22953 0
M  V30 27202 H 2523.14 0.159059 -2.97575 0
M  V30 27203 H 2520.68 0.0667615 -1.46948 0
M  V30 27204 H 2522.64 2.62462 -3.24298 0
M  V30 27205 H 2521.27 2.4366 -2.1173 0
M  V30 27206 H 2520.32 0.648821 -3.74826 0
M  V30 27207 H 2521.63 1.06613 -4.87273 0
M  V30 27208 H 2520.79 3.41767 -5.01278 0
M  V30 27209 H 2519.53 3.05676 -3.80018 0
M  V30 27210 H 2518.53 1.33571 -5.33328 0
M  V30 27211 H 2519.76 1.7222 -6.569 0
M  V30 27212 H 2517.7 3.6628 -5.44219 0
M  V30 27213 H 2517.62 2.88402 -6.98828 0
M  V30 27214 H 2518.89 4.0304 -6.67217 0
M  V30 27215 N 2523.12 1.57465 0.0651402 0
M  V30 27216 C 2524.36 1.87204 0.761522 0
M  V30 27217 C 2524.69 0.801274 1.77777 0
M  V30 27218 O 2523.96 -0.169336 1.95167 0
M  V30 27219 H 2522.54 0.690809 0.284239 0
M  V30 27220 H 2525.2 1.9486 0.0396485 0
M  V30 27221 H 2524.29 2.84931 1.2736 0
M  V30 27222 N 2524.59 -0.336679 1.53962 0
M  V30 27223 C 2525.84 -1.0736 1.70753 0
M  V30 27224 C 2526.16 -1.89591 0.481094 0
M  V30 27225 O 2527.36 -2.66275 0.530093 0
M  V30 27226 C 2525.82 -1.95813 3.01969 0
M  V30 27227 C 2525.43 -1.18756 4.31973 0
M  V30 27228 C 2527.17 -2.69321 3.28126 0
M  V30 27229 C 2525.08 -2.06279 5.54259 0
M  V30 27230 H 2524.01 -0.404523 0.636299 0
M  V30 27231 H 2526.66 -0.332649 1.8046 0
M  V30 27232 H 2525.04 -2.73755 2.86136 0
M  V30 27233 H 2526.21 -0.456768 4.58531 0
M  V30 27234 H 2524.53 -0.569873 4.12482 0
M  V30 27235 H 2527.13 -3.35087 4.16678 0
M  V30 27236 H 2527.47 -3.36257 2.45432 0
M  V30 27237 H 2528 -1.98448 3.44765 0
M  V30 27238 H 2524.74 -1.43873 6.39516 0
M  V30 27239 H 2524.26 -2.77128 5.3194 0
M  V30 27240 H 2525.94 -2.65172 5.90163 0
M  V30 27241 N 2526.07 -1.45812 -0.598057 0
M  V30 27242 C 2527.49 -1.30428 -0.919824 0
M  V30 27243 C 2527.69 -0.264339 -1.99759 0
M  V30 27244 O 2526.74 0.338428 -2.50222 0
M  V30 27245 C 2528.06 -2.68606 -1.35172 0
M  V30 27246 C 2529.61 -2.76577 -1.46541 0
M  V30 27247 C 2530.08 -4.15302 -1.93102 0
M  V30 27248 N 2531.57 -4.17643 -2.00321 0
M  V30 27249 C 2532.31 -5.21861 -2.3759 0
M  V30 27250 N 2531.8 -6.36417 -2.7376 0
M  V30 27251 N 2533.6 -5.09222 -2.38012 0
M  V30 27252 H 2525.75 -2.12093 0.114149 0
M  V30 27253 H 2528.01 -0.947929 -0.0115954 0
M  V30 27254 H 2527.72 -3.4594 -0.633909 0
M  V30 27255 H 2527.59 -2.977 -2.31635 0
M  V30 27256 H 2529.98 -1.99541 -2.17411 0
M  V30 27257 H 2530.06 -2.51185 -0.483683 0
M  V30 27258 H 2529.7 -4.92827 -1.22816 0
M  V30 27259 H 2529.63 -4.38091 -2.92206 0
M  V30 27260 H 2532.12 -3.3498 -1.74919 0
M  V30 27261 H 2532.44 -7.11726 -3.01107 0
M  V30 27262 H 2530.78 -6.39804 -2.71434 0
M  V30 27263 H 2533.97 -4.18768 -2.09167 0
M  V30 27264 H 2534.14 -5.90558 -2.6673 0
M  V30 27265 N 2527.55 0.841385 -1.33261 0
M  V30 27266 C 2528.78 1.62861 -1.27608 0
M  V30 27267 C 2529.19 1.88175 0.153474 0
M  V30 27268 O 2528.55 1.46013 1.09482 0
M  V30 27269 C 2528.6 2.98028 -2.04602 0
M  V30 27270 O 2528.32 2.73828 -3.4198 0
M  V30 27271 C 2529.82 3.92461 -2.06129 0
M  V30 27272 H 2527.04 0.506834 -0.439727 0
M  V30 27273 H 2529.59 1.04821 -1.75593 0
M  V30 27274 H 2527.74 3.52677 -1.60305 0
M  V30 27275 H 2528.16 3.59883 -3.81556 0
M  V30 27276 H 2529.63 4.84526 -2.64459 0
M  V30 27277 H 2530.11 4.26442 -1.0509 0
M  V30 27278 H 2530.71 3.43749 -2.50433 0
M  V30 27279 N 2529.03 1.16688 1.05932 0
M  V30 27280 C 2529.96 0.899986 2.15459 0
M  V30 27281 C 2530.94 -0.155124 1.69391 0
M  V30 27282 O 2532.13 -0.00645279 1.94199 0
M  V30 27283 C 2529.26 0.404301 3.44939 0
M  V30 27284 C 2528.21 1.39774 4.04533 0
M  V30 27285 C 2527.54 0.760309 5.29267 0
M  V30 27286 C 2528.84 2.76853 4.42888 0
M  V30 27287 H 2530.53 1.81592 2.38043 0
M  V30 27288 H 2528.08 0.874534 1.14402 0
M  V30 27289 H 2530.03 0.205045 4.20901 0
M  V30 27290 H 2528.75 -0.54715 3.21984 0
M  V30 27291 H 2527.41 1.58361 3.30632 0
M  V30 27292 H 2527.06 -0.197743 5.02611 0
M  V30 27293 H 2526.76 1.42342 5.70099 0
M  V30 27294 H 2528.28 0.571157 6.07923 0
M  V30 27295 H 2529.7 2.62028 5.09916 0
M  V30 27296 H 2528.09 3.39672 4.94715 0
M  V30 27297 H 2529.16 3.31829 3.53578 0
M  V30 27298 N 2530.51 -1.24529 0.96594 0
M  V30 27299 C 2531.44 -2.27783 0.513516 0
M  V30 27300 C 2532.42 -1.6415 -0.445945 0
M  V30 27301 O 2533.6 -1.91157 -0.342451 0
M  V30 27302 C 2530.73 -3.46731 -0.198778 0
M  V30 27303 C 2529.69 -4.22619 0.67653 0
M  V30 27304 C 2529.01 -5.34439 -0.167154 0
M  V30 27305 C 2530.31 -4.84119 1.96026 0
M  V30 27306 H 2532.01 -2.65879 1.37654 0
M  V30 27307 H 2529.55 -1.27811 0.663344 0
M  V30 27308 H 2531.51 -4.18098 -0.526493 0
M  V30 27309 H 2530.23 -3.07656 -1.09614 0
M  V30 27310 H 2528.89 -3.5305 0.987492 0
M  V30 27311 H 2528.54 -4.91604 -1.06462 0
M  V30 27312 H 2528.24 -5.86131 0.415284 0
M  V30 27313 H 2529.76 -6.08634 -0.489581 0
M  V30 27314 H 2531.18 -5.4757 1.69823 0
M  V30 27315 H 2529.57 -5.46036 2.48927 0
M  V30 27316 H 2530.64 -4.05672 2.65629 0
M  V30 27317 N 2531.99 -0.735845 -1.39367 0
M  V30 27318 C 2533.23 -0.284159 -2.00496 0
M  V30 27319 C 2533.56 1.12886 -1.58389 0
M  V30 27320 O 2532.82 1.78404 -0.80439 0
M  V30 27321 C 2533.11 -0.334714 -3.55829 0
M  V30 27322 C 2532.78 -1.70087 -4.1759 0
M  V30 27323 C 2531.44 -2.07479 -4.34173 0
M  V30 27324 C 2533.79 -2.59783 -4.51843 0
M  V30 27325 C 2531.12 -3.34074 -4.82298 0
M  V30 27326 C 2533.47 -3.8575 -5.01378 0
M  V30 27327 C 2532.14 -4.23234 -5.16168 0
M  V30 27328 H 2531.41 -0.103981 -0.733668 0
M  V30 27329 H 2534.06 -0.942854 -1.66681 0
M  V30 27330 H 2532.36 0.407557 -3.89675 0
M  V30 27331 H 2534.06 0.0329222 -4.00986 0
M  V30 27332 H 2530.65 -1.40016 -4.05085 0
M  V30 27333 H 2534.83 -2.32165 -4.38649 0
M  V30 27334 H 2530.09 -3.63057 -4.91934 0
M  V30 27335 H 2534.26 -4.55409 -5.26855 0
M  V30 27336 H 2531.89 -5.21394 -5.5322 0
M  V30 27337 N 2533.46 1.49999 -0.483543 0
M  V30 27338 C 2534.43 2.2732 0.292925 0
M  V30 27339 C 2535.43 1.32609 0.909476 0
M  V30 27340 O 2536.62 1.55925 0.776718 0
M  V30 27341 C 2533.75 3.09987 1.41849 0
M  V30 27342 H 2534.94 2.97414 -0.385342 0
M  V30 27343 H 2532.49 1.54478 -0.23797 0
M  V30 27344 H 2533.23 2.44418 2.13144 0
M  V30 27345 H 2533.01 3.79603 0.982048 0
M  V30 27346 H 2534.5 3.68432 1.9659 0
M  V30 27347 N 2534.94 0.216646 1.56104 0
M  V30 27348 C 2535.87 -0.690257 2.23064 0
M  V30 27349 C 2536.85 -1.20483 1.20074 0
M  V30 27350 O 2538.04 -1.24973 1.48645 0
M  V30 27351 C 2535.17 -1.90066 2.90675 0
M  V30 27352 C 2534.12 -1.52013 4.00095 0
M  V30 27353 C 2533.45 -2.80891 4.54977 0
M  V30 27354 C 2534.75 -0.713819 5.17399 0
M  V30 27355 H 2536.44 -0.131985 2.99109 0
M  V30 27356 H 2533.99 -0.0620411 1.43866 0
M  V30 27357 H 2535.94 -2.54051 3.36209 0
M  V30 27358 H 2534.66 -2.48382 2.1207 0
M  V30 27359 H 2533.32 -0.903777 3.55285 0
M  V30 27360 H 2532.97 -3.37342 3.73108 0
M  V30 27361 H 2532.67 -2.56166 5.28822 0
M  V30 27362 H 2534.2 -3.45827 5.03226 0
M  V30 27363 H 2535.61 -1.25725 5.59344 0
M  V30 27364 H 2534.01 -0.563846 5.97445 0
M  V30 27365 H 2535.08 0.280613 4.84087 0
M  V30 27366 N 2536.42 -1.57498 -0.0567885 0
M  V30 27367 C 2537.38 -2.03717 -1.05034 0
M  V30 27368 C 2538.38 -0.9366 -1.30707 0
M  V30 27369 O 2539.57 -1.20105 -1.26176 0
M  V30 27370 C 2536.7 -2.43059 -2.3903 0
M  V30 27371 H 2537.9 -2.92734 -0.651664 0
M  V30 27372 H 2535.45 -1.53337 -0.30292 0
M  V30 27373 H 2536.19 -1.57113 -2.83701 0
M  V30 27374 H 2535.97 -3.23383 -2.21733 0
M  V30 27375 H 2537.46 -2.79341 -3.10416 0
M  V30 27376 N 2537.9 0.328509 -1.54138 0
M  V30 27377 C 2538.83 1.42777 -1.78017 0
M  V30 27378 C 2539.81 1.49903 -0.629915 0
M  V30 27379 O 2540.99 1.67389 -0.866793 0
M  V30 27380 C 2538.12 2.80909 -1.8923 0
M  V30 27381 C 2537.17 2.91338 -3.11488 0
M  V30 27382 S 2538 2.56255 -4.70206 0
M  V30 27383 C 2539.15 3.96467 -4.84319 0
M  V30 27384 H 2539.39 1.22308 -2.70976 0
M  V30 27385 H 2536.92 0.525059 -1.45198 0
M  V30 27386 H 2538.88 3.60481 -1.96376 0
M  V30 27387 H 2537.54 2.98663 -0.972571 0
M  V30 27388 H 2536.73 3.92589 -3.16053 0
M  V30 27389 H 2536.33 2.19731 -3.02646 0
M  V30 27390 H 2538.63 4.91164 -4.66652 0
M  V30 27391 H 2539.57 3.96887 -5.86418 0
M  V30 27392 H 2539.98 3.85192 -4.12659 0
M  V30 27393 N 2539.38 1.46127 0.590316 0
M  V30 27394 C 2540.6 1.54835 1.37988 0
M  V30 27395 C 2541.03 0.187539 1.87163 0
M  V30 27396 O 2540.38 -0.830979 1.61135 0
M  V30 27397 C 2540.43 2.55102 2.54863 0
M  V30 27398 O 2539.54 2.08079 3.56057 0
M  V30 27399 H 2538.88 0.521311 0.411256 0
M  V30 27400 H 2541.41 1.91633 0.716785 0
M  V30 27401 H 2541.42 2.74466 3.01881 0
M  V30 27402 H 2540.09 3.53927 2.18423 0
M  V30 27403 H 2538.67 1.98669 3.15571 0
M  V30 27404 N 2540.85 -0.834306 1.33705 0
M  V30 27405 C 2541.78 -1.95961 1.26971 0
M  V30 27406 C 2542.76 -1.69443 0.149366 0
M  V30 27407 O 2543.95 -1.91203 0.339885 0
M  V30 27408 C 2541.08 -3.32204 1.01281 0
M  V30 27409 C 2540.03 -3.73132 2.09658 0
M  V30 27410 C 2539.36 -5.07232 1.69175 0
M  V30 27411 C 2540.66 -3.86432 3.51379 0
M  V30 27412 H 2542.35 -2.01854 2.21123 0
M  V30 27413 H 2539.9 -0.969775 1.06449 0
M  V30 27414 H 2541.85 -4.10502 0.952178 0
M  V30 27415 H 2540.58 -3.26581 0.0356777 0
M  V30 27416 H 2539.24 -2.97101 2.14771 0
M  V30 27417 H 2538.88 -4.98084 0.701524 0
M  V30 27418 H 2538.58 -5.35587 2.41704 0
M  V30 27419 H 2540.11 -5.88 1.64586 0
M  V30 27420 H 2541.52 -4.5503 3.48742 0
M  V30 27421 H 2539.92 -4.26229 4.22432 0
M  V30 27422 H 2540.99 -2.88752 3.89552 0
M  V30 27423 N 2542.33 -1.17248 -1.05312 0
M  V30 27424 C 2543.74 -0.966258 -1.59751 0
M  V30 27425 C 2544.09 0.487344 -1.90051 0
M  V30 27426 O 2543.22 1.36242 -1.68128 0
M  V30 27427 C 2543.81 -1.74764 -2.90246 0
M  V30 27428 C 2542.37 -1.58612 -3.41349 0
M  V30 27429 C 2541.52 -1.75006 -2.151 0
M  V30 27430 H 2544.47 -1.31975 -0.881383 0
M  V30 27431 H 2544.49 -1.22931 -3.60095 0
M  V30 27432 H 2544 -2.80555 -2.68161 0
M  V30 27433 H 2542.1 -0.55305 -3.68473 0
M  V30 27434 H 2542.22 -2.37631 -4.16015 0
M  V30 27435 H 2540.58 -1.17837 -2.25802 0
M  V30 27436 H 2541.36 -2.82206 -1.95486 0
M  V30 27437 N 2543.81 1.24015 -0.972531 0
M  V30 27438 C 2544.77 2.23421 -0.511442 0
M  V30 27439 C 2545.77 1.55882 0.394651 0
M  V30 27440 O 2546.96 1.73167 0.189438 0
M  V30 27441 C 2544.1 3.39917 0.258709 0
M  V30 27442 H 2545.29 2.65727 -1.39029 0
M  V30 27443 H 2542.84 1.36711 -0.757609 0
M  V30 27444 H 2543.58 3.03056 1.15445 0
M  V30 27445 H 2543.36 3.9014 -0.391591 0
M  V30 27446 H 2544.85 4.13689 0.570172 0
M  V30 27447 N 2545.29 0.743226 1.38974 0
M  V30 27448 C 2546.22 0.123914 2.33171 0
M  V30 27449 C 2547.2 -0.715132 1.54337 0
M  V30 27450 O 2548.38 -0.658435 1.82697 0
M  V30 27451 C 2545.51 -0.777918 3.38476 0
M  V30 27452 C 2544.47 -0.0424006 4.27979 0
M  V30 27453 C 2543.79 -1.0618 5.24051 0
M  V30 27454 C 2545.09 1.11989 5.10153 0
M  V30 27455 H 2546.79 0.91076 2.85211 0
M  V30 27456 H 2544.33 0.439412 1.37132 0
M  V30 27457 H 2546.29 -1.22077 4.0333 0
M  V30 27458 H 2545.01 -1.59697 2.84894 0
M  V30 27459 H 2543.67 0.380917 3.64616 0
M  V30 27460 H 2543.32 -1.87463 4.66762 0
M  V30 27461 H 2543.02 -0.574382 5.84786 0
M  V30 27462 H 2544.54 -1.50418 5.91783 0
M  V30 27463 H 2545.96 0.75509 5.68306 0
M  V30 27464 H 2544.35 1.53748 5.8007 0
M  V30 27465 H 2545.42 1.93772 4.445 0
M  V30 27466 N 2546.77 -1.4974 0.491491 0
M  V30 27467 C 2548.01 -2.02421 -0.05639 0
M  V30 27468 C 2548.34 -1.37195 -1.37869 0
M  V30 27469 O 2547.6 -0.493542 -1.89374 0
M  V30 27470 C 2547.9 -3.56399 -0.267266 0
M  V30 27471 C 2547.56 -4.40213 0.975853 0
M  V30 27472 C 2546.22 -4.62837 1.31664 0
M  V30 27473 C 2548.58 -4.89036 1.80259 0
M  V30 27474 C 2545.9 -5.31528 2.48385 0
M  V30 27475 C 2548.26 -5.5901 2.96126 0
M  V30 27476 C 2546.92 -5.79882 3.30595 0
M  V30 27477 H 2546.19 -0.740713 -0.0206346 0
M  V30 27478 H 2548.84 -1.80141 0.649718 0
M  V30 27479 H 2547.14 -3.77306 -1.05581 0
M  V30 27480 H 2548.84 -3.94745 -0.70548 0
M  V30 27481 H 2545.43 -4.22839 0.700389 0
M  V30 27482 H 2549.61 -4.71394 1.55247 0
M  V30 27483 H 2544.87 -5.45892 2.7534 0
M  V30 27484 H 2549.04 -5.95817 3.6052 0
M  V30 27485 H 2546.67 -6.32884 4.21143 0
M  V30 27486 N 2548.24 -0.224922 -1.55987 0
M  V30 27487 C 2549.19 0.700244 -2.21809 0
M  V30 27488 C 2550.19 1.19712 -1.19856 0
M  V30 27489 O 2551.39 1.15655 -1.37927 0
M  V30 27490 H 2547.77 0.244245 -0.71123 0
M  V30 27491 H 2549.74 0.121696 -2.98152 0
M  V30 27492 C 2548.49 1.89615 -2.91447 0
M  V30 27493 H 2547.81 1.52293 -3.69658 0
M  V30 27494 H 2549.25 2.52119 -3.40899 0
M  V30 27495 C 2547.71 2.75365 -1.94103 0
M  V30 27496 O 2548.24 3.74224 -1.4601 0
M  V30 27497 N 2546.45 2.41471 -1.61679 0
M  V30 27498 H 2545.99 1.61133 -2.00982 0
M  V30 27499 H 2545.95 2.99124 -0.968089 0
M  V30 27500 N 2549.72 1.57526 0.0484352 0
M  V30 27501 C 2550.97 1.87555 0.742032 0
M  V30 27502 C 2551.28 0.820833 1.77543 0
M  V30 27503 O 2552.49 1.00972 2.52026 0
M  V30 27504 C 2550.95 3.32774 1.37075 0
M  V30 27505 C 2550.55 4.4643 0.374707 0
M  V30 27506 C 2552.3 3.71975 2.04535 0
M  V30 27507 C 2550.21 5.827 1.01067 0
M  V30 27508 H 2549.14 0.699726 0.28089 0
M  V30 27509 H 2551.79 1.835 -0.00415102 0
M  V30 27510 H 2550.17 3.31513 2.16599 0
M  V30 27511 H 2551.34 4.59126 -0.392412 0
M  V30 27512 H 2549.66 4.15935 -0.196726 0
M  V30 27513 H 2552.25 4.71093 2.52934 0
M  V30 27514 H 2552.6 3.02969 2.85509 0
M  V30 27515 H 2553.13 3.75327 1.31812 0
M  V30 27516 H 2549.87 6.55058 0.240763 0
M  V30 27517 H 2549.39 5.73761 1.74809 0
M  V30 27518 H 2551.07 6.28802 1.52372 0
M  V30 27519 N 2551.2 -0.32033 1.5431 0
M  V30 27520 C 2552.44 -1.06607 1.74397 0
M  V30 27521 C 2552.8 -1.8514 0.508635 0
M  V30 27522 O 2554.01 -2.62314 0.586902 0
M  V30 27523 C 2552.28 -1.96366 2.98622 0
M  V30 27524 S 2553.84 -2.77848 3.39626 0
M  V30 27525 H 2550.65 -0.359852 0.613211 0
M  V30 27526 H 2553.26 -0.341693 1.92491 0
M  V30 27527 H 2551.96 -1.37514 3.86676 0
M  V30 27528 H 2551.49 -2.73204 2.8306 0
M  V30 27529 H 2553.51 -3.98853 2.95179 0
M  V30 27530 N 2552.68 -1.46438 -0.582558 0
M  V30 27531 C 2553.61 -1.59874 -1.70184 0
M  V30 27532 C 2554.59 -0.449071 -1.64065 0
M  V30 27533 O 2555.77 -0.675332 -1.82079 0
M  V30 27534 C 2552.9 -1.58886 -3.08824 0
M  V30 27535 C 2551.86 -2.72824 -3.29774 0
M  V30 27536 C 2551.18 -2.56898 -4.68943 0
M  V30 27537 C 2552.48 -4.14646 -3.17594 0
M  V30 27538 H 2554.18 -2.53569 -1.59196 0
M  V30 27539 H 2551.72 -1.22033 -0.764451 0
M  V30 27540 H 2553.68 -1.6688 -3.86948 0
M  V30 27541 H 2552.4 -0.617362 -3.20712 0
M  V30 27542 H 2551.06 -2.643 -2.54049 0
M  V30 27543 H 2550.71 -1.57831 -4.77596 0
M  V30 27544 H 2550.41 -3.3332 -4.83913 0
M  V30 27545 H 2551.93 -2.66783 -5.49235 0
M  V30 27546 H 2553.35 -4.24281 -3.85563 0
M  V30 27547 H 2551.74 -4.91656 -3.44085 0
M  V30 27548 H 2552.81 -4.34791 -2.14673 0
M  V30 27549 N 2554.16 0.827204 -1.34146 0
M  V30 27550 C 2555.09 1.95285 -1.28008 0
M  V30 27551 C 2556.07 1.69361 -0.15835 0
M  V30 27552 O 2557.25 1.9102 -0.35002 0
M  V30 27553 C 2554.38 3.31662 -1.03041 0
M  V30 27554 C 2553.34 3.72015 -2.11634 0
M  V30 27555 C 2552.66 5.06327 -1.71863 0
M  V30 27556 C 2553.96 3.84563 -3.53424 0
M  V30 27557 H 2555.66 2.00678 -2.22191 0
M  V30 27558 H 2553.2 0.964116 -1.06962 0
M  V30 27559 H 2555.16 4.09991 -0.973935 0
M  V30 27560 H 2553.88 3.26557 -0.0529965 0
M  V30 27561 H 2552.54 2.95958 -2.16344 0
M  V30 27562 H 2552.19 4.97705 -0.727929 0
M  V30 27563 H 2551.89 5.34297 -2.44541 0
M  V30 27564 H 2553.41 5.87119 -1.67702 0
M  V30 27565 H 2554.82 4.53174 -3.5115 0
M  V30 27566 H 2553.22 4.23983 -4.24687 0
M  V30 27567 H 2554.29 2.86682 -3.91077 0
M  V30 27568 N 2555.63 1.17805 1.04688 0
M  V30 27569 C 2556.56 0.922788 2.14492 0
M  V30 27570 C 2557.55 -0.137149 1.69546 0
M  V30 27571 O 2558.73 0.014145 1.94195 0
M  V30 27572 C 2555.86 0.440864 3.4449 0
M  V30 27573 C 2554.81 1.44057 4.03028 0
M  V30 27574 C 2554.14 0.816403 5.28431 0
M  V30 27575 C 2555.44 2.81535 4.39927 0
M  V30 27576 H 2557.13 1.84107 2.36104 0
M  V30 27577 H 2554.68 0.886619 1.13468 0
M  V30 27578 H 2556.63 0.249676 4.2066 0
M  V30 27579 H 2555.36 -0.512968 3.22546 0
M  V30 27580 H 2554.02 1.61859 3.28934 0
M  V30 27581 H 2553.66 -0.144423 5.02793 0
M  V30 27582 H 2553.36 1.48381 5.68557 0
M  V30 27583 H 2554.89 0.635603 6.07283 0
M  V30 27584 H 2556.3 2.67421 5.07108 0
M  V30 27585 H 2554.7 3.449 4.91084 0
M  V30 27586 H 2555.77 3.35561 3.50039 0
M  V30 27587 N 2557.11 -1.23497 0.979094 0
M  V30 27588 C 2558.36 -1.91877 0.647253 0
M  V30 27589 C 2558.69 -1.76414 -0.819043 0
M  V30 27590 O 2557.94 -1.11811 -1.60614 0
M  V30 27591 C 2558.24 -3.43645 0.981992 0
M  V30 27592 C 2557.91 -3.79287 2.43829 0
M  V30 27593 C 2556.57 -3.88726 2.83629 0
M  V30 27594 C 2558.92 -3.96499 3.38287 0
M  V30 27595 C 2556.25 -4.12804 4.16905 0
M  V30 27596 C 2558.6 -4.22077 4.71205 0
M  V30 27597 C 2557.27 -4.29738 5.10766 0
M  V30 27598 H 2556.54 -0.702129 0.236847 0
M  V30 27599 H 2559.18 -1.46549 1.23271 0
M  V30 27600 H 2557.49 -3.90536 0.314434 0
M  V30 27601 H 2559.18 -3.94781 0.703465 0
M  V30 27602 H 2555.77 -3.72512 2.11973 0
M  V30 27603 H 2559.96 -3.88597 3.08716 0
M  V30 27604 H 2555.21 -4.16958 4.47164 0
M  V30 27605 H 2559.39 -4.34339 5.44355 0
M  V30 27606 H 2557.02 -4.48148 6.14058 0
M  V30 27607 N 2558.59 -0.750586 -1.38578 0
M  V30 27608 C 2559.52 -0.136278 -2.33102 0
M  V30 27609 C 2560.5 0.706937 -1.54714 0
M  V30 27610 O 2561.69 0.648737 -1.83044 0
M  V30 27611 C 2558.82 0.759957 -3.38883 0
M  V30 27612 C 2557.77 0.0197032 -4.27995 0
M  V30 27613 C 2557.1 1.03399 -5.24607 0
M  V30 27614 C 2558.4 -1.14693 -5.09552 0
M  V30 27615 H 2560.09 -0.925872 -2.84724 0
M  V30 27616 H 2557.64 -0.446678 -1.36897 0
M  V30 27617 H 2559.59 1.19936 -4.03972 0
M  V30 27618 H 2558.31 1.58184 -2.85737 0
M  V30 27619 H 2556.97 -0.400248 -3.64409 0
M  V30 27620 H 2556.62 1.84985 -4.67749 0
M  V30 27621 H 2556.32 0.543361 -5.85082 0
M  V30 27622 H 2557.85 1.47278 -5.92572 0
M  V30 27623 H 2559.26 -0.785218 -5.67897 0
M  V30 27624 H 2557.66 -1.56822 -5.79247 0
M  V30 27625 H 2558.73 -1.96126 -4.43466 0
M  V30 27626 N 2560.07 1.49477 -0.499425 0
M  V30 27627 C 2561.32 2.02748 0.0457219 0
M  V30 27628 C 2561.65 1.37848 1.3679 0
M  V30 27629 O 2560.92 0.513634 1.87595 0
M  V30 27630 C 2561.21 3.59545 0.199923 0
M  V30 27631 C 2561.06 4.34975 -1.14527 0
M  V30 27632 C 2562.38 4.29916 0.941295 0
M  V30 27633 H 2559.5 0.736844 0.0151423 0
M  V30 27634 H 2562.14 1.78516 -0.650529 0
M  V30 27635 H 2560.29 3.80322 0.79294 0
M  V30 27636 H 2561.96 4.25698 -1.77705 0
M  V30 27637 H 2560.2 3.97595 -1.73495 0
M  V30 27638 H 2560.88 5.43037 -0.990702 0
M  V30 27639 H 2563.35 4.13784 0.438367 0
M  V30 27640 H 2562.23 5.39377 1.01803 0
M  V30 27641 H 2562.49 3.9505 1.98464 0
M  V30 27642 N 2561.55 0.233191 1.55865 0
M  V30 27643 C 2562.48 -0.712404 2.16795 0
M  V30 27644 C 2563.46 -1.18271 1.11582 0
M  V30 27645 O 2564.64 -1.26334 1.39899 0
M  V30 27646 C 2561.77 -1.96656 2.75761 0
M  V30 27647 C 2560.82 -1.63526 3.93905 0
M  V30 27648 S 2561.65 -0.749856 5.30224 0
M  V30 27649 C 2562.8 -2.01332 5.92635 0
M  V30 27650 H 2563.04 -0.194565 2.96663 0
M  V30 27651 H 2560.57 0.0177696 1.5439 0
M  V30 27652 H 2562.53 -2.68663 3.10372 0
M  V30 27653 H 2561.19 -2.45552 1.95864 0
M  V30 27654 H 2560.38 -2.56739 4.33706 0
M  V30 27655 H 2559.98 -0.99574 3.60501 0
M  V30 27656 H 2562.28 -2.96208 6.09317 0
M  V30 27657 H 2563.22 -1.65903 6.88391 0
M  V30 27658 H 2563.63 -2.15916 5.21575 0
M  V30 27659 N 2563.03 -1.57549 -0.0400806 0
M  V30 27660 C 2564.27 -1.88764 -0.733092 0
M  V30 27661 C 2564.6 -0.829089 -1.75944 0
M  V30 27662 O 2563.86 0.171289 -1.94949 0
M  V30 27663 C 2564.15 -3.26711 -1.44896 0
M  V30 27664 C 2563.82 -4.47414 -0.559629 0
M  V30 27665 C 2562.48 -4.8017 -0.314647 0
M  V30 27666 C 2564.83 -5.21171 0.0550659 0
M  V30 27667 C 2562.16 -5.84079 0.553989 0
M  V30 27668 C 2564.51 -6.26001 0.911339 0
M  V30 27669 C 2563.18 -6.57239 1.16589 0
M  V30 27670 H 2562.45 -0.690738 -0.268257 0
M  V30 27671 H 2565.1 -1.91499 0.00682774 0
M  V30 27672 H 2563.4 -3.19914 -2.26191 0
M  V30 27673 H 2565.1 -3.48108 -1.99052 0
M  V30 27674 H 2561.69 -4.21795 -0.760719 0
M  V30 27675 H 2565.87 -4.96152 -0.121257 0
M  V30 27676 H 2561.13 -6.06663 0.759625 0
M  V30 27677 H 2565.3 -6.82301 1.39422 0
M  V30 27678 H 2562.93 -7.37578 1.84071 0
M  V30 27679 N 2564.5 0.312142 -1.54478 0
M  V30 27680 C 2565.75 1.0463 -1.7244 0
M  V30 27681 C 2566.07 1.88802 -0.511196 0
M  V30 27682 O 2567.27 2.65398 -0.572388 0
M  V30 27683 C 2565.73 1.90984 -3.05046 0
M  V30 27684 C 2565.34 1.11869 -4.33808 0
M  V30 27685 C 2567.08 2.64067 -3.32369 0
M  V30 27686 C 2564.99 1.97435 -5.5747 0
M  V30 27687 H 2563.92 0.394349 -0.642654 0
M  V30 27688 H 2566.57 0.303898 -1.80966 0
M  V30 27689 H 2564.95 2.69168 -2.90455 0
M  V30 27690 H 2566.12 0.383762 -4.59199 0
M  V30 27691 H 2564.44 0.504179 -4.13336 0
M  V30 27692 H 2567.04 3.28415 -4.21957 0
M  V30 27693 H 2567.38 3.3231 -2.5075 0
M  V30 27694 H 2567.91 1.92938 -3.47879 0
M  V30 27695 H 2564.65 1.33681 -6.41724 0
M  V30 27696 H 2564.17 2.68631 -5.36281 0
M  V30 27697 H 2565.85 2.55749 -5.94307 0
M  V30 27698 N 2565.98 1.46745 0.574784 0
M  V30 27699 C 2567.23 1.52465 1.3327 0
M  V30 27700 C 2567.56 0.179606 1.93669 0
M  V30 27701 O 2566.81 -0.825633 1.77431 0
M  V30 27702 C 2567.11 2.57742 2.47596 0
M  V30 27703 C 2566.78 4.01533 2.05139 0
M  V30 27704 C 2565.44 4.40679 1.93276 0
M  V30 27705 C 2567.79 4.91827 1.72497 0
M  V30 27706 C 2565.12 5.67976 1.47039 0
M  V30 27707 C 2567.47 6.19569 1.27737 0
M  V30 27708 C 2566.13 6.57614 1.14456 0
M  V30 27709 H 2565.4 0.557907 0.487669 0
M  V30 27710 H 2568.05 1.8026 0.646425 0
M  V30 27711 H 2566.36 2.23638 3.21704 0
M  V30 27712 H 2568.05 2.59395 3.05802 0
M  V30 27713 H 2564.64 3.70594 2.1531 0
M  V30 27714 H 2568.83 4.62296 1.80544 0
M  V30 27715 H 2564.08 5.96217 1.35407 0
M  V30 27716 H 2568.26 6.88958 1.01535 0
M  V30 27717 H 2565.88 7.56146 0.784057 0
M  V30 27718 N 2567.46 -0.820078 1.34583 0
M  V30 27719 C 2568.42 -1.91273 1.26283 0
M  V30 27720 C 2569.42 -1.59819 0.177372 0
M  V30 27721 O 2570.61 -1.68805 0.430186 0
M  V30 27722 C 2567.74 -3.27384 0.950385 0
M  V30 27723 H 2568.94 -2.00054 2.23425 0
M  V30 27724 H 2566.49 -1.01438 1.18912 0
M  V30 27725 H 2567.23 -3.24295 -0.0177368 0
M  V30 27726 H 2567.01 -3.51598 1.73556 0
M  V30 27727 H 2568.5 -4.07395 0.917564 0
M  V30 27728 N 2568.94 -1.18359 -1.04062 0
M  V30 27729 C 2570.19 -0.973344 -1.7666 0
M  V30 27730 C 2570.5 0.497958 -1.89155 0
M  V30 27731 O 2571.71 0.826716 -2.58607 0
M  V30 27732 C 2570.16 -1.69247 -3.17622 0
M  V30 27733 C 2569.77 -3.20308 -3.1322 0
M  V30 27734 C 2571.51 -1.56504 -3.94597 0
M  V30 27735 C 2569.42 -3.8486 -4.49039 0
M  V30 27736 H 2568.35 -0.360552 -0.662207 0
M  V30 27737 H 2571 -1.41733 -1.16551 0
M  V30 27738 H 2569.38 -1.17626 -3.78127 0
M  V30 27739 H 2570.56 -3.78954 -2.62165 0
M  V30 27740 H 2568.87 -3.33193 -2.49743 0
M  V30 27741 H 2571.47 -2.02093 -4.95038 0
M  V30 27742 H 2571.81 -0.517315 -4.13073 0
M  V30 27743 H 2572.35 -2.05405 -3.40666 0
M  V30 27744 H 2569.08 -4.8968 -4.35768 0
M  V30 27745 H 2568.6 -3.31003 -5.00197 0
M  V30 27746 H 2570.28 -3.87727 -5.17955 0
M  V30 27747 N 2570.42 1.22976 -0.98563 0
M  V30 27748 C 2571.66 1.91531 -0.65742 0
M  V30 27749 C 2571.99 1.76846 0.809676 0
M  V30 27750 O 2571.25 1.12661 1.60019 0
M  V30 27751 C 2571.54 3.43119 -1.0002 0
M  V30 27752 C 2571.21 3.77988 -2.45837 0
M  V30 27753 C 2569.87 3.87217 -2.85686 0
M  V30 27754 C 2572.22 3.94699 -3.40385 0
M  V30 27755 C 2569.55 4.10588 -4.19088 0
M  V30 27756 C 2571.9 4.19572 -4.73437 0
M  V30 27757 C 2570.57 4.27023 -5.13038 0
M  V30 27758 H 2569.84 0.700863 -0.240567 0
M  V30 27759 H 2572.49 1.45893 -1.24046 0
M  V30 27760 H 2570.79 3.90364 -0.335141 0
M  V30 27761 H 2572.49 3.94403 -0.724391 0
M  V30 27762 H 2569.08 3.71383 -2.13945 0
M  V30 27763 H 2573.26 3.86955 -3.10773 0
M  V30 27764 H 2568.52 4.14581 -4.49369 0
M  V30 27765 H 2572.69 4.31446 -5.46651 0
M  V30 27766 H 2570.32 4.44885 -6.16426 0
M  V30 27767 N 2571.89 0.757924 1.38178 0
M  V30 27768 C 2573.14 0.315396 1.99624 0
M  V30 27769 C 2573.46 -1.10796 1.60465 0
M  V30 27770 O 2572.73 -1.7584 0.863538 0
M  V30 27771 H 2571.31 0.113624 0.738308 0
M  V30 27772 H 2573.97 0.972982 1.68876 0
M  V30 27773 H 2573.07 0.381986 3.09754 0
M  V30 27774 N 2573.37 -1.4921 0.507345 0
M  V30 27775 C 2574.31 -2.26023 -0.314469 0
M  V30 27776 C 2575.28 -1.30881 -0.964826 0
M  V30 27777 O 2576.47 -1.60182 -0.993679 0
M  V30 27778 C 2573.59 -3.06404 -1.4434 0
M  V30 27779 C 2572.64 -4.16749 -0.906776 0
M  V30 27780 S 2573.47 -5.35098 0.207487 0
M  V30 27781 C 2574.63 -6.19035 -0.924464 0
M  V30 27782 H 2574.86 -2.95378 0.337468 0
M  V30 27783 H 2572.4 -1.51599 0.292744 0
M  V30 27784 H 2574.35 -3.53298 -2.09023 0
M  V30 27785 H 2573.01 -2.36506 -2.06698 0
M  V30 27786 H 2572.21 -4.72531 -1.75301 0
M  V30 27787 H 2571.81 -3.72478 -0.337055 0
M  V30 27788 H 2574.1 -6.52365 -1.82828 0
M  V30 27789 H 2575.04 -7.0694 -0.405123 0
M  V30 27790 H 2575.45 -5.51714 -1.19466 0
M  V30 27791 N 2574.85 -0.241454 -1.55739 0
M  V30 27792 C 2576.08 0.392076 -2.0366 0
M  V30 27793 C 2576.5 1.51142 -1.11971 0
M  V30 27794 O 2575.86 1.80956 -0.111626 0
M  V30 27795 C 2575.91 0.882309 -3.49639 0
M  V30 27796 O 2575.01 1.99229 -3.61084 0
M  V30 27797 H 2574.35 0.0862006 -0.658381 0
M  V30 27798 H 2576.88 -0.365917 -2.01301 0
M  V30 27799 H 2576.89 1.18695 -3.90353 0
M  V30 27800 H 2575.57 0.063163 -4.15852 0
M  V30 27801 H 2574.14 1.69276 -3.32265 0
M  V30 27802 N 2576.33 1.57568 0.0317248 0
M  V30 27803 C 2577.58 1.89151 0.723071 0
M  V30 27804 C 2577.9 0.838408 1.75502 0
M  V30 27805 O 2577.16 -0.160948 1.95037 0
M  V30 27806 C 2577.46 3.27475 1.43161 0
M  V30 27807 C 2577.12 4.47704 0.535893 0
M  V30 27808 C 2575.79 4.8033 0.289178 0
M  V30 27809 C 2578.14 5.21134 -0.0827041 0
M  V30 27810 C 2575.47 5.83777 -0.584956 0
M  V30 27811 C 2577.82 6.25509 -0.944524 0
M  V30 27812 C 2576.48 6.56612 -1.20073 0
M  V30 27813 H 2575.75 0.692151 0.26459 0
M  V30 27814 H 2578.4 1.91492 -0.0169833 0
M  V30 27815 H 2576.7 3.21109 2.24492 0
M  V30 27816 H 2578.4 3.49159 1.97203 0
M  V30 27817 H 2574.99 4.22193 0.738339 0
M  V30 27818 H 2579.17 4.96209 0.094943 0
M  V30 27819 H 2574.43 6.06251 -0.791787 0
M  V30 27820 H 2578.6 6.81552 -1.43038 0
M  V30 27821 H 2576.23 7.36592 -1.8798 0
M  V30 27822 N 2577.81 -0.303946 1.54641 0
M  V30 27823 C 2579.05 -1.03952 1.73782 0
M  V30 27824 C 2579.38 -1.87364 0.522019 0
M  V30 27825 O 2578.64 -1.89308 -0.496065 0
M  V30 27826 C 2578.94 -1.97676 2.97756 0
M  V30 27827 C 2578.6 -1.30264 4.31674 0
M  V30 27828 C 2577.26 -1.11611 4.68077 0
M  V30 27829 C 2579.62 -0.82046 5.14702 0
M  V30 27830 C 2576.94 -0.434201 5.85091 0
M  V30 27831 C 2579.3 -0.152284 6.32417 0
M  V30 27832 C 2577.96 0.046224 6.67484 0
M  V30 27833 H 2577.23 -0.380387 0.635914 0
M  V30 27834 H 2579.88 -0.314685 1.88897 0
M  V30 27835 H 2578.18 -2.76678 2.77411 0
M  V30 27836 H 2579.88 -2.54656 3.0976 0
M  V30 27837 H 2576.47 -1.45788 4.03043 0
M  V30 27838 H 2580.65 -0.952289 4.87078 0
M  V30 27839 H 2575.91 -0.269387 6.10806 0
M  V30 27840 H 2580.08 0.229248 6.96023 0
M  V30 27841 H 2577.71 0.576627 7.5801 0
M  V30 27842 N 2579.28 -1.47047 -0.566994 0
M  V30 27843 C 2580.22 -1.53329 -1.69013 0
M  V30 27844 C 2581.2 -0.386153 -1.57948 0
M  V30 27845 O 2582.38 -0.59256 -1.78944 0
M  V30 27846 C 2579.51 -1.42663 -3.07189 0
M  V30 27847 C 2578.55 -2.61756 -3.36728 0
M  V30 27848 S 2579.39 -4.24018 -3.27061 0
M  V30 27849 C 2580.54 -4.15889 -4.67747 0
M  V30 27850 H 2580.77 -2.48351 -1.63429 0
M  V30 27851 H 2578.31 -1.35126 -0.747024 0
M  V30 27852 H 2580.27 -1.37197 -3.86894 0
M  V30 27853 H 2578.93 -0.490424 -3.10248 0
M  V30 27854 H 2578.12 -2.5033 -4.37437 0
M  V30 27855 H 2577.72 -2.64294 -2.64622 0
M  V30 27856 H 2580.01 -3.83539 -5.58484 0
M  V30 27857 H 2580.96 -5.1665 -4.8423 0
M  V30 27858 H 2581.36 -3.46897 -4.45335 0
M  V30 27859 N 2580.76 0.812929 -1.35016 0
M  V30 27860 C 2581.71 1.91356 -1.23963 0
M  V30 27861 C 2582.7 1.60321 -0.136334 0
M  V30 27862 O 2583.89 1.73154 -0.366955 0
M  V30 27863 C 2581.02 3.28186 -1.00741 0
M  V30 27864 C 2580.1 3.65307 -2.15433 0
M  V30 27865 N 2580.49 3.73915 -3.40619 0
M  V30 27866 C 2578.79 3.95221 -2.06679 0
M  V30 27867 C 2579.49 4.06593 -4.16001 0
M  V30 27868 N 2578.47 4.20343 -3.44693 0
M  V30 27869 H 2582.27 1.96204 -2.18818 0
M  V30 27870 H 2579.79 1.00716 -1.27397 0
M  V30 27871 H 2581.78 4.06867 -0.909124 0
M  V30 27872 H 2580.44 3.2463 -0.067643 0
M  V30 27873 H 2581.45 3.57154 -3.75049 0
M  V30 27874 H 2578.13 3.99727 -1.20518 0
M  V30 27875 H 2579.52 4.20373 -5.24153 0
M  V30 27876 N 2582.24 1.18909 1.03433 0
M  V30 27877 C 2583.49 0.989829 1.77003 0
M  V30 27878 C 2583.82 -0.478783 1.88205 0
M  V30 27879 O 2583.09 -1.35553 1.39483 0
M  V30 27880 C 2583.38 1.65293 3.19922 0
M  V30 27881 C 2583.23 3.19482 3.16625 0
M  V30 27882 C 2584.55 1.37141 4.18187 0
M  V30 27883 H 2581.67 0.361002 0.642531 0
M  V30 27884 H 2584.31 1.46669 1.20782 0
M  V30 27885 H 2582.46 1.24747 3.67927 0
M  V30 27886 H 2584.13 3.69205 2.7656 0
M  V30 27887 H 2582.38 3.51311 2.54485 0
M  V30 27888 H 2583.05 3.61021 4.17574 0
M  V30 27889 H 2585.52 1.72283 3.78758 0
M  V30 27890 H 2584.4 1.86096 5.16391 0
M  V30 27891 H 2584.66 0.295502 4.41111 0
M  V30 27892 N 2583.72 -1.22452 0.992137 0
M  V30 27893 C 2584.67 -2.24351 0.54177 0
M  V30 27894 C 2585.64 -1.60558 -0.425491 0
M  V30 27895 O 2586.82 -1.87917 -0.33042 0
M  V30 27896 C 2583.96 -3.44823 -0.138187 0
M  V30 27897 C 2583.07 -4.23134 0.870723 0
M  V30 27898 C 2582.21 -5.30946 0.164362 0
M  V30 27899 C 2581.25 -6.00975 1.16169 0
M  V30 27900 N 2580.38 -7.00432 0.483691 0
M  V30 27901 H 2585.22 -2.62238 1.41545 0
M  V30 27902 H 2582.76 -1.28884 0.709036 0
M  V30 27903 H 2584.72 -4.13568 -0.549327 0
M  V30 27904 H 2583.35 -3.07702 -0.975667 0
M  V30 27905 H 2582.4 -3.53693 1.40019 0
M  V30 27906 H 2583.71 -4.71408 1.63022 0
M  V30 27907 H 2582.87 -6.0594 -0.303547 0
M  V30 27908 H 2581.61 -4.83644 -0.627648 0
M  V30 27909 H 2580.61 -5.24763 1.64024 0
M  V30 27910 H 2581.84 -6.50364 1.95457 0
M  V30 27911 H 2579.78 -6.55364 -0.288897 0
M  V30 27912 H 2579.7 -7.46708 1.18165 0
M  V30 27913 H 2580.97 -7.7949 0.0385589 0
M  V30 27914 N 2585.2 -0.765242 -1.37774 0
M  V30 27915 C 2586.61 -0.392851 -1.8252 0
M  V30 27916 C 2586.96 1.08014 -1.63791 0
M  V30 27917 O 2586.08 1.83599 -1.14545 0
M  V30 27918 C 2586.68 -0.706272 -3.31357 0
M  V30 27919 C 2585.24 -0.387018 -3.74405 0
M  V30 27920 C 2584.38 -0.953468 -2.60393 0
M  V30 27921 H 2587.34 -0.960435 -1.26338 0
M  V30 27922 H 2587.36 0.0114037 -3.80498 0
M  V30 27923 H 2586.87 -1.77839 -3.44956 0
M  V30 27924 H 2584.97 0.678048 -3.66379 0
M  V30 27925 H 2585.08 -0.890719 -4.70747 0
M  V30 27926 H 2583.45 -0.378108 -2.51878 0
M  V30 27927 H 2584.23 -2.03085 -2.76787 0
M  V30 27928 N 2586.67 1.48939 -0.515251 0
M  V30 27929 C 2587.62 2.31038 0.269074 0
M  V30 27930 C 2588.62 1.40294 0.949419 0
M  V30 27931 O 2589.82 1.57275 0.875482 0
M  V30 27932 H 2586.2 0.744543 0.105637 0
M  V30 27933 H 2588.17 2.95091 -0.443148 0
M  V30 27934 C 2586.92 3.21994 1.31207 0
M  V30 27935 H 2586.24 3.91756 0.797966 0
M  V30 27936 H 2587.68 3.82352 1.83257 0
M  V30 27937 C 2586.14 2.4258 2.33787 0
M  V30 27938 O 2586.67 2.14009 3.39946 0
M  V30 27939 N 2584.88 2.04343 2.06621 0
M  V30 27940 H 2584.42 2.27779 1.2031 0
M  V30 27941 H 2584.38 1.51519 2.7548 0
M  V30 27942 N 2588.15 0.249709 1.55609 0
M  V30 27943 C 2589.38 -0.381269 2.03865 0
M  V30 27944 C 2589.8 -1.50546 1.12771 0
M  V30 27945 O 2589.16 -1.80894 0.121221 0
M  V30 27946 C 2589.21 -0.863754 3.50102 0
M  V30 27947 O 2588.31 -1.97311 3.62135 0
M  V30 27948 H 2587.65 -0.0827079 0.658829 0
M  V30 27949 H 2590.18 0.376587 2.01104 0
M  V30 27950 H 2590.19 -1.16623 3.90977 0
M  V30 27951 H 2588.87 -0.0411085 4.1588 0
M  V30 27952 H 2587.45 -1.67512 3.33158 0
M  V30 27953 N 2589.63 -1.57583 -0.0233682 0
M  V30 27954 C 2590.88 -1.89157 -0.711621 0
M  V30 27955 C 2591.2 -0.848127 -1.7559 0
M  V30 27956 O 2590.47 0.117532 -1.95547 0
M  V30 27957 H 2589.05 -0.698102 -0.265823 0
M  V30 27958 H 2591.71 -1.94896 0.012029 0
M  V30 27959 H 2590.81 -2.88208 -1.19761 0
M  V30 27960 N 2591.11 0.29574 -1.548 0
M  V30 27961 C 2592.36 1.02795 -1.7354 0
M  V30 27962 C 2592.67 1.88249 -0.531192 0
M  V30 27963 O 2593.88 2.64776 -0.600505 0
M  V30 27964 C 2592.33 1.87738 -3.07054 0
M  V30 27965 C 2591.94 1.07262 -4.3497 0
M  V30 27966 C 2593.69 2.60527 -3.35151 0
M  V30 27967 C 2591.59 1.91511 -5.59533 0
M  V30 27968 H 2590.52 0.387511 -0.646801 0
M  V30 27969 H 2593.17 0.284687 -1.81278 0
M  V30 27970 H 2591.56 2.66073 -2.93294 0
M  V30 27971 H 2592.73 0.335036 -4.5958 0
M  V30 27972 H 2591.04 0.460311 -4.13848 0
M  V30 27973 H 2593.64 3.23922 -4.25416 0
M  V30 27974 H 2593.98 3.29632 -2.54261 0
M  V30 27975 H 2594.52 1.89238 -3.49906 0
M  V30 27976 H 2591.26 1.26867 -6.43106 0
M  V30 27977 H 2590.78 2.62928 -5.391 0
M  V30 27978 H 2592.46 2.49432 -5.96986 0
M  V30 27979 N 2592.59 1.47346 0.559187 0
M  V30 27980 C 2593.86 1.4435 1.31994 0
M  V30 27981 C 2594.24 0.139395 2.10639 0
M  V30 27982 O 2593.59 -0.879116 2.10912 0
M  V30 27983 C 2593.8 2.68783 2.22613 0
M  V30 27984 C 2595.15 3.15915 2.83695 0
M  V30 27985 O 2596.17 2.69497 2.32916 0
M  V30 27986 O 2595.03 3.96606 3.75986 0
M  V30 27987 H 2592.13 0.575158 0.594241 0
M  V30 27988 H 2594.67 1.59544 0.578254 0
M  V30 27989 H 2593.45 3.55234 1.64087 0
M  V30 27990 H 2593.07 2.56166 3.04081 0
M  V30 27991 N 2594.07 -0.805758 1.35445 0
M  V30 27992 C 2595.34 -1.54985 1.19328 0
M  V30 27993 C 2595.72 -2.09873 -0.227257 0
M  V30 27994 O 2595.07 -1.92514 -1.23087 0
M  V30 27995 C 2595.28 -2.65771 2.262 0
M  V30 27996 C 2596.63 -3.34089 2.62049 0
M  V30 27997 O 2597.65 -2.76042 2.2512 0
M  V30 27998 O 2596.51 -4.38953 3.2555 0
M  V30 27999 H 2593.61 -0.684815 0.463635 0
M  V30 28000 H 2596.15 -0.845648 1.47129 0
M  V30 28001 H 2594.92 -2.2309 3.21475 0
M  V30 28002 H 2594.55 -3.43826 1.99673 0
M  V30 28003 N 2595.54 -1.19456 -1.02801 0
M  V30 28004 C 2596.79 -0.999202 -1.76476 0
M  V30 28005 C 2597.12 0.468795 -1.88457 0
M  V30 28006 O 2596.4 1.34812 -1.402 0
M  V30 28007 C 2596.68 -1.66987 -3.19041 0
M  V30 28008 C 2596.53 -3.21157 -3.14926 0
M  V30 28009 C 2597.85 -1.39357 -4.17454 0
M  V30 28010 H 2594.97 -0.364404 -0.640608 0
M  V30 28011 H 2597.61 -1.47307 -1.20002 0
M  V30 28012 H 2595.76 -1.26697 -3.6726 0
M  V30 28013 H 2597.44 -3.70666 -2.74598 0
M  V30 28014 H 2595.68 -3.52656 -2.52619 0
M  V30 28015 H 2596.35 -3.6323 -4.15654 0
M  V30 28016 H 2598.83 -1.74289 -3.77839 0
M  V30 28017 H 2597.7 -1.88832 -5.15397 0
M  V30 28018 H 2597.96 -0.318891 -4.40948 0
M  V30 28019 N 2597.02 1.21924 -0.998617 0
M  V30 28020 C 2598.25 1.94548 -0.695311 0
M  V30 28021 C 2598.66 1.73913 0.745049 0
M  V30 28022 O 2598 1.03883 1.51506 0
M  V30 28023 C 2598.06 3.47301 -0.928546 0
M  V30 28024 C 2597.73 3.91679 -2.3545 0
M  V30 28025 C 2598.73 3.98895 -3.33435 0
M  V30 28026 C 2596.41 4.2417 -2.69045 0
M  V30 28027 C 2598.4 4.37984 -4.63086 0
M  V30 28028 C 2596.09 4.62937 -3.98915 0
M  V30 28029 C 2597.09 4.69813 -4.95746 0
M  V30 28030 O 2596.78 5.077 -6.23294 0
M  V30 28031 H 2596.51 0.625687 -0.255913 0
M  V30 28032 H 2599.06 1.55868 -1.3377 0
M  V30 28033 H 2597.29 3.86021 -0.228985 0
M  V30 28034 H 2598.98 4.01143 -0.619609 0
M  V30 28035 H 2599.75 3.73977 -3.08814 0
M  V30 28036 H 2595.63 4.18019 -1.94375 0
M  V30 28037 H 2599.17 4.43266 -5.38666 0
M  V30 28038 H 2595.07 4.87307 -4.23323 0
M  V30 28039 H 2595.84 5.25755 -6.27315 0
M  V30 28040 N 2598.5 0.772537 1.37367 0
M  V30 28041 C 2599.45 0.147152 2.32134 0
M  V30 28042 C 2600.44 -0.684079 1.54973 0
M  V30 28043 O 2601.65 -0.581053 1.70364 0
M  V30 28044 H 2598.02 0.0287992 0.751448 0
M  V30 28045 H 2599.99 0.962162 2.82462 0
M  V30 28046 C 2598.74 -0.716971 3.40228 0
M  V30 28047 H 2598.07 -0.0867249 3.99706 0
M  V30 28048 H 2599.51 -1.12151 4.08899 0
M  V30 28049 C 2597.96 -1.86792 2.80375 0
M  V30 28050 O 2598.49 -2.96344 2.71188 0
M  V30 28051 N 2596.7 -1.66878 2.37907 0
M  V30 28052 H 2596.25 -0.777716 2.4558 0
M  V30 28053 H 2596.21 -2.44053 1.98206 0
M  V30 28054 N 2599.98 -1.48664 0.523142 0
M  V30 28055 C 2601.22 -2.02496 -0.0134407 0
M  V30 28056 C 2601.55 -1.40088 -1.34928 0
M  V30 28057 O 2600.81 -0.5336 -1.88285 0
M  V30 28058 C 2601.11 -3.56886 -0.191608 0
M  V30 28059 C 2600.77 -4.38045 1.06901 0
M  V30 28060 C 2599.43 -4.5994 1.41451 0
M  V30 28061 C 2601.79 -4.85102 1.90592 0
M  V30 28062 C 2599.11 -5.2614 2.59603 0
M  V30 28063 C 2601.47 -5.52603 3.07916 0
M  V30 28064 C 2600.13 -5.72739 3.42821 0
M  V30 28065 H 2599.4 -0.740984 -0.00491831 0
M  V30 28066 H 2602.05 -1.78723 0.687782 0
M  V30 28067 H 2600.35 -3.79461 -0.975543 0
M  V30 28068 H 2602.05 -3.96153 -0.62159 0
M  V30 28069 H 2598.64 -4.21258 0.789922 0
M  V30 28070 H 2602.82 -4.67995 1.65211 0
M  V30 28071 H 2598.08 -5.39929 2.86857 0
M  V30 28072 H 2602.25 -5.88036 3.73077 0
M  V30 28073 H 2599.88 -6.23809 4.34473 0
M  V30 28074 N 2601.46 -0.257958 -1.55475 0
M  V30 28075 C 2602.39 0.669842 -2.19193 0
M  V30 28076 C 2603.4 1.13048 -1.1715 0
M  V30 28077 O 2604.59 1.05534 -1.43961 0
M  V30 28078 C 2601.69 1.92358 -2.79019 0
M  V30 28079 C 2600.86 1.61258 -4.06589 0
M  V30 28080 C 2599.92 2.71702 -4.50627 0
M  V30 28081 O 2598.95 2.38617 -5.16769 0
M  V30 28082 N 2600.15 4.01423 -4.19332 0
M  V30 28083 H 2602.91 0.124583 -2.99441 0
M  V30 28084 H 2600.48 -0.0783595 -1.6171 0
M  V30 28085 H 2602.47 2.65506 -3.05432 0
M  V30 28086 H 2601.04 2.37833 -2.02865 0
M  V30 28087 H 2600.26 0.715743 -3.87648 0
M  V30 28088 H 2601.55 1.37958 -4.8974 0
M  V30 28089 H 2600.94 4.31131 -3.66255 0
M  V30 28090 H 2599.5 4.71002 -4.50556 0
M  V30 28091 N 2602.93 1.57593 0.0150108 0
M  V30 28092 C 2604.16 1.94176 0.71436 0
M  V30 28093 C 2604.58 0.858871 1.68133 0
M  V30 28094 O 2603.93 -0.163535 1.81766 0
M  V30 28095 C 2603.99 3.30738 1.45927 0
M  V30 28096 O 2603.71 4.34869 0.531091 0
M  V30 28097 C 2605.21 3.8169 2.2545 0
M  V30 28098 H 2602.43 0.640528 0.199912 0
M  V30 28099 H 2604.97 2.04476 -0.0316455 0
M  V30 28100 H 2603.13 3.21793 2.15703 0
M  V30 28101 H 2603.54 5.1378 1.055 0
M  V30 28102 H 2605.01 4.79714 2.73091 0
M  V30 28103 H 2605.49 3.13612 3.0748 0
M  V30 28104 H 2606.1 3.93763 1.6072 0
M  V30 28105 N 2604.41 -0.287527 1.54955 0
M  V30 28106 C 2605.66 -1.02103 1.74875 0
M  V30 28107 C 2605.99 -1.868 0.541862 0
M  V30 28108 O 2605.24 -1.89824 -0.475959 0
M  V30 28109 C 2605.54 -1.94507 2.99836 0
M  V30 28110 C 2605.21 -1.25678 4.33031 0
M  V30 28111 C 2603.87 -1.0664 4.69235 0
M  V30 28112 C 2606.22 -0.765823 5.15543 0
M  V30 28113 C 2603.55 -0.37212 5.85519 0
M  V30 28114 C 2605.9 -0.0851989 6.32543 0
M  V30 28115 C 2604.57 0.117017 6.67397 0
M  V30 28116 H 2603.84 -0.373621 0.639913 0
M  V30 28117 H 2606.48 -0.294632 1.8922 0
M  V30 28118 H 2604.79 -2.7372 2.8033 0
M  V30 28119 H 2606.48 -2.51356 3.12444 0
M  V30 28120 H 2603.07 -1.41505 4.04567 0
M  V30 28121 H 2607.26 -0.900574 4.88061 0
M  V30 28122 H 2602.51 -0.204588 6.11058 0
M  V30 28123 H 2606.69 0.303058 6.9574 0
M  V30 28124 H 2604.32 0.656992 7.57356 0
M  V30 28125 N 2605.89 -1.47641 -0.551365 0
M  V30 28126 C 2607.14 -1.5426 -1.30569 0
M  V30 28127 C 2607.46 -0.208997 -1.93877 0
M  V30 28128 O 2606.73 0.767588 -1.80236 0
M  V30 28129 H 2605.31 -0.56824 -0.484884 0
M  V30 28130 H 2607.97 -1.83975 -0.64337 0
M  V30 28131 H 2607.07 -2.3123 -2.09617 0
M  V30 28132 N 2607.37 0.798563 -1.3587 0
M  V30 28133 C 2608.3 1.91913 -1.25308 0
M  V30 28134 C 2609.31 1.61861 -0.174577 0
M  V30 28135 O 2610.5 1.7328 -0.428529 0
M  V30 28136 C 2607.6 3.26491 -0.908657 0
M  V30 28137 C 2606.78 3.8439 -2.08718 0
M  V30 28138 C 2605.83 4.9739 -1.71726 0
M  V30 28139 O 2604.86 5.14391 -2.43701 0
M  V30 28140 N 2606.06 5.76899 -0.645574 0
M  V30 28141 H 2608.83 2.01498 -2.21853 0
M  V30 28142 H 2606.39 0.976385 -1.29145 0
M  V30 28143 H 2608.38 3.99567 -0.642525 0
M  V30 28144 H 2606.95 3.12583 -0.0326365 0
M  V30 28145 H 2606.17 3.03412 -2.51664 0
M  V30 28146 H 2607.46 4.19804 -2.87475 0
M  V30 28147 H 2606.86 5.6568 -0.0477474 0
M  V30 28148 H 2605.41 6.50318 -0.439244 0
M  V30 28149 N 2608.85 1.19999 1.02166 0
M  V30 28150 C 2610.07 1.03322 1.79831 0
M  V30 28151 C 2610.5 -0.413249 1.83504 0
M  V30 28152 O 2609.85 -1.29741 1.26637 0
M  V30 28153 C 2609.9 1.61539 3.22393 0
M  V30 28154 O 2609.01 0.84959 4.03554 0
M  V30 28155 H 2608.35 0.364719 0.554866 0
M  V30 28156 H 2610.88 1.59181 1.2854 0
M  V30 28157 H 2610.89 1.6506 3.73121 0
M  V30 28158 H 2609.56 2.66814 3.19035 0
M  V30 28159 H 2608.14 0.888193 3.62168 0
M  V30 28160 N 2610.32 -1.21392 1.00507 0
M  V30 28161 C 2611.26 -2.2242 0.510359 0
M  V30 28162 C 2612.24 -1.56646 -0.435972 0
M  V30 28163 O 2613.42 -1.85056 -0.358677 0
M  V30 28164 C 2610.55 -3.37711 -0.258673 0
M  V30 28165 C 2609.59 -4.21739 0.635469 0
M  V30 28166 S 2610.43 -4.92694 2.09792 0
M  V30 28167 C 2611.58 -6.11416 1.33872 0
M  V30 28168 H 2611.81 -2.64039 1.36641 0
M  V30 28169 H 2609.35 -1.31261 0.813014 0
M  V30 28170 H 2611.31 -4.04551 -0.696301 0
M  V30 28171 H 2609.97 -2.94575 -1.09015 0
M  V30 28172 H 2609.16 -5.03982 0.0431075 0
M  V30 28173 H 2608.76 -3.60094 1.01038 0
M  V30 28174 H 2611.05 -6.74724 0.61266 0
M  V30 28175 H 2612 -6.75088 2.13686 0
M  V30 28176 H 2612.4 -5.58115 0.846666 0
M  V30 28177 N 2611.8 -0.779811 -1.36955 0
M  V30 28178 C 2613.05 -0.34444 -1.98737 0
M  V30 28179 C 2613.36 1.08725 -1.62598 0
M  V30 28180 O 2614.57 1.62441 -2.17543 0
M  V30 28181 C 2613.03 -0.564891 -3.55439 0
M  V30 28182 C 2612.63 -2.00737 -4.0051 0
M  V30 28183 C 2614.38 -0.193545 -4.24059 0
M  V30 28184 C 2612.29 -2.17499 -5.49953 0
M  V30 28185 H 2611.22 -0.125043 -0.743559 0
M  V30 28186 H 2613.87 -0.960084 -1.5638 0
M  V30 28187 H 2612.25 0.120328 -3.95817 0
M  V30 28188 H 2613.42 -2.7282 -3.71357 0
M  V30 28189 H 2611.74 -2.33606 -3.44699 0
M  V30 28190 H 2614.33 -0.297191 -5.33873 0
M  V30 28191 H 2614.68 0.857191 -4.07379 0
M  V30 28192 H 2615.21 -0.831625 -3.8901 0
M  V30 28193 H 2611.95 -3.20921 -5.71568 0
M  V30 28194 H 2611.47 -1.49909 -5.80764 0
M  V30 28195 H 2613.15 -1.97748 -6.16039 0
M  V30 28196 N 2613.28 1.48384 -0.531019 0
M  V30 28197 C 2614.21 2.32462 0.219944 0
M  V30 28198 C 2615.19 1.42158 0.934086 0
M  V30 28199 O 2616.38 1.71043 0.919663 0
M  V30 28200 C 2613.51 3.23377 1.26668 0
M  V30 28201 C 2612.46 4.22714 0.670616 0
M  V30 28202 C 2611.79 5.0277 1.82008 0
M  V30 28203 C 2613.09 5.21069 -0.35836 0
M  V30 28204 H 2614.78 2.95496 -0.481922 0
M  V30 28205 H 2612.33 1.42099 -0.233207 0
M  V30 28206 H 2614.28 3.81023 1.79999 0
M  V30 28207 H 2613 2.58345 1.99814 0
M  V30 28208 H 2611.66 3.66256 0.158813 0
M  V30 28209 H 2611.31 4.34161 2.53994 0
M  V30 28210 H 2611.01 5.70005 1.42717 0
M  V30 28211 H 2612.53 5.63268 2.35716 0
M  V30 28212 H 2613.95 5.73233 0.0879074 0
M  V30 28213 H 2612.35 5.96362 -0.668715 0
M  V30 28214 H 2613.42 4.68142 -1.26375 0
M  V30 28215 N 2614.76 0.2662 1.55336 0
M  V30 28216 C 2615.69 -0.618941 2.25147 0
M  V30 28217 C 2616.67 -1.16602 1.23847 0
M  V30 28218 O 2617.85 -1.20181 1.52546 0
M  V30 28219 C 2614.98 -1.80723 2.96575 0
M  V30 28220 C 2613.94 -1.39208 4.04729 0
M  V30 28221 C 2613.26 -2.66275 4.63683 0
M  V30 28222 C 2614.56 -0.548851 5.19408 0
M  V30 28223 H 2616.26 -0.036759 2.99377 0
M  V30 28224 H 2613.8 -0.0162398 1.43991 0
M  V30 28225 H 2615.76 -2.43226 3.44121 0
M  V30 28226 H 2614.48 -2.4151 2.19865 0
M  V30 28227 H 2613.14 -0.790288 3.5798 0
M  V30 28228 H 2612.79 -3.25301 3.83651 0
M  V30 28229 H 2612.49 -2.39213 5.36704 0
M  V30 28230 H 2614.01 -3.29642 5.13973 0
M  V30 28231 H 2615.43 -1.07866 5.63061 0
M  V30 28232 H 2613.82 -0.373488 5.98937 0
M  V30 28233 H 2614.89 0.434479 4.8295 0
M  V30 28234 N 2616.24 -1.57599 -0.0066531 0
M  V30 28235 C 2617.48 -1.90277 -0.692887 0
M  V30 28236 C 2617.81 -0.866223 -1.74146 0
M  V30 28237 O 2617.07 0.129899 -1.95268 0
M  V30 28238 C 2617.37 -3.29711 -1.37933 0
M  V30 28239 C 2617.03 -4.485 -0.4646 0
M  V30 28240 C 2615.69 -4.8073 -0.212725 0
M  V30 28241 C 2618.05 -5.20937 0.165602 0
M  V30 28242 C 2615.37 -5.82772 0.677756 0
M  V30 28243 C 2617.73 -6.23927 1.04392 0
M  V30 28244 C 2616.39 -6.54618 1.30504 0
M  V30 28245 H 2615.66 -0.696273 -0.253545 0
M  V30 28246 H 2618.31 -1.91441 0.0474459 0
M  V30 28247 H 2616.61 -3.24639 -2.19355 0
M  V30 28248 H 2618.31 -3.52252 -1.91623 0
M  V30 28249 H 2614.9 -4.23314 -0.671079 0
M  V30 28250 H 2619.08 -4.96297 -0.0159884 0
M  V30 28251 H 2614.34 -6.04915 0.888136 0
M  V30 28252 H 2618.51 -6.7919 1.53863 0
M  V30 28253 H 2616.14 -7.33508 1.99675 0
M  V30 28254 N 2617.72 0.279305 -1.55105 0
M  V30 28255 C 2618.65 1.36724 -1.83955 0
M  V30 28256 C 2619.66 1.45832 -0.723668 0
M  V30 28257 O 2620.85 1.47761 -1.00144 0
M  V30 28258 C 2617.95 2.74909 -1.98188 0
M  V30 28259 C 2617.12 2.88469 -3.28792 0
M  V30 28260 C 2616.18 4.07289 -3.3317 0
M  V30 28261 O 2615.21 3.98346 -4.06583 0
M  V30 28262 N 2616.41 5.18959 -2.60118 0
M  V30 28263 H 2619.17 1.12323 -2.77855 0
M  V30 28264 H 2616.74 0.469414 -1.54946 0
M  V30 28265 H 2618.73 3.52679 -1.98494 0
M  V30 28266 H 2617.3 2.9216 -1.11183 0
M  V30 28267 H 2616.52 1.97635 -3.41078 0
M  V30 28268 H 2617.81 2.94456 -4.14938 0
M  V30 28269 H 2617.2 5.29111 -2.00145 0
M  V30 28270 H 2615.76 5.94984 -2.66154 0
M  V30 28271 N 2619.19 1.47931 0.543528 0
M  V30 28272 C 2620.13 1.55998 1.66553 0
M  V30 28273 C 2621.1 0.411233 1.57314 0
M  V30 28274 O 2622.29 0.620954 1.77979 0
M  V30 28275 C 2619.42 1.47532 3.0488 0
M  V30 28276 C 2618.46 2.6708 3.32521 0
M  V30 28277 S 2619.29 4.29167 3.20274 0
M  V30 28278 C 2620.45 4.23277 4.61072 0
M  V30 28279 H 2620.68 2.5092 1.59457 0
M  V30 28280 H 2618.22 1.36297 0.725432 0
M  V30 28281 H 2620.17 1.43335 3.84663 0
M  V30 28282 H 2618.84 0.539719 3.09428 0
M  V30 28283 H 2618.03 2.57258 4.33399 0
M  V30 28284 H 2617.63 2.6847 2.60384 0
M  V30 28285 H 2619.92 3.92375 5.52312 0
M  V30 28286 H 2620.87 5.24288 4.75949 0
M  V30 28287 H 2621.27 3.53938 4.39759 0
M  V30 28288 N 2620.67 -0.791347 1.36292 0
M  V30 28289 C 2621.9 -1.58529 1.33729 0
M  V30 28290 C 2622.32 -1.87932 -0.0794603 0
M  V30 28291 O 2621.68 -1.4774 -1.05084 0
M  V30 28292 C 2621.73 -2.88427 2.1643 0
M  V30 28293 O 2620.83 -3.81941 1.55547 0
M  V30 28294 H 2620.17 -0.480951 0.457802 0
M  V30 28295 H 2622.7 -0.980999 1.79548 0
M  V30 28296 H 2622.71 -3.37714 2.28939 0
M  V30 28297 H 2621.39 -2.66353 3.1942 0
M  V30 28298 H 2619.96 -3.4053 1.51967 0
M  V30 28299 N 2622.15 -1.2054 -1.01528 0
M  V30 28300 C 2623.38 -1.04202 -1.78744 0
M  V30 28301 C 2623.79 0.4087 -1.84323 0
M  V30 28302 O 2623.15 1.28374 -1.29716 0
M  V30 28303 C 2623.2 -1.6204 -3.23149 0
M  V30 28304 O 2622.92 -3.01435 -3.17913 0
M  V30 28305 C 2624.42 -1.50673 -4.16908 0
M  V30 28306 H 2621.64 -0.366488 -0.562074 0
M  V30 28307 H 2624.19 -1.59655 -1.27791 0
M  V30 28308 H 2622.34 -1.10704 -3.71246 0
M  V30 28309 H 2622.76 -3.28904 -4.08561 0
M  V30 28310 H 2624.23 -1.95901 -5.16069 0
M  V30 28311 H 2624.71 -0.45944 -4.3679 0
M  V30 28312 H 2625.31 -2.01207 -3.74694 0
M  V30 28313 N 2623.63 1.20858 -1.01149 0
M  V30 28314 C 2624.85 1.94622 -0.716732 0
M  V30 28315 C 2625.28 1.73965 0.715384 0
M  V30 28316 O 2624.64 1.03065 1.49155 0
M  V30 28317 C 2624.68 3.44933 -1.05136 0
M  V30 28318 O 2623.79 4.12089 -0.160204 0
M  V30 28319 H 2623.13 0.60821 -0.266415 0
M  V30 28320 H 2625.66 1.53433 -1.35349 0
M  V30 28321 H 2625.67 3.95532 -1.00093 0
M  V30 28322 H 2624.34 3.59291 -2.09482 0
M  V30 28323 H 2622.92 3.71938 -0.267722 0
M  V30 28324 N 2625.11 0.787064 1.3654 0
M  V30 28325 C 2626.07 0.189818 2.28413 0
M  V30 28326 C 2627.07 -0.611473 1.4872 0
M  V30 28327 O 2628.26 -0.432813 1.68738 0
M  V30 28328 C 2625.39 -0.73758 3.32825 0
M  V30 28329 H 2626.58 0.999881 2.82741 0
M  V30 28330 H 2624.14 0.556324 1.46064 0
M  V30 28331 H 2624.87 -1.57207 2.83648 0
M  V30 28332 H 2624.66 -0.164975 3.91753 0
M  V30 28333 H 2626.15 -1.1504 4.01442 0
M  V30 28334 N 2626.58 -1.48101 0.53888 0
M  V30 28335 C 2627.83 -2.02098 0.00802152 0
M  V30 28336 C 2628.15 -1.41741 -1.33919 0
M  V30 28337 O 2627.42 -0.585967 -1.86931 0
M  V30 28338 H 2626 -0.747 -2.30875e-05 0
M  V30 28339 H 2628.66 -1.81713 0.704732 0
M  V30 28340 H 2627.76 -3.11959 -0.0937124 0
M  V30 28341 N 2628.06 -0.274434 -1.55192 0
M  V30 28342 C 2629.31 0.336044 -2.00605 0
M  V30 28343 C 2629.66 1.53536 -1.1595 0
M  V30 28344 O 2628.96 1.90316 -0.221419 0
M  V30 28345 C 2629.15 0.769397 -3.4902 0
M  V30 28346 C 2628.98 -0.386379 -4.48037 0
M  V30 28347 C 2627.75 -0.869942 -4.97755 0
M  V30 28348 C 2629.95 -1.22263 -4.99556 0
M  V30 28349 N 2627.93 -1.99525 -5.80571 0
M  V30 28350 C 2629.3 -2.19585 -5.79812 0
M  V30 28351 C 2631.35 -1.25605 -4.81796 0
M  V30 28352 C 2630.06 -3.19993 -6.44203 0
M  V30 28353 C 2632.08 -2.24857 -5.46986 0
M  V30 28354 C 2631.45 -3.20912 -6.27053 0
M  V30 28355 H 2627.54 0.0881583 -0.777015 0
M  V30 28356 H 2630.13 -0.3983 -1.90582 0
M  V30 28357 H 2628.3 1.47297 -3.59386 0
M  V30 28358 H 2630.03 1.35715 -3.81266 0
M  V30 28359 H 2626.79 -0.449363 -4.71463 0
M  V30 28360 H 2627.21 -2.56151 -6.2667 0
M  V30 28361 H 2631.85 -0.527231 -4.195 0
M  V30 28362 H 2629.57 -3.93809 -7.05649 0
M  V30 28363 H 2633.16 -2.28184 -5.35185 0
M  V30 28364 H 2632.04 -3.96456 -6.76603 0
M  V30 28365 N 2629.54 1.576 -0.00170483 0
M  V30 28366 C 2630.82 1.8187 0.719919 0
M  V30 28367 C 2631.2 0.87978 1.91893 0
M  V30 28368 O 2630.54 -0.0711021 2.28389 0
M  V30 28369 C 2630.75 3.30403 1.12403 0
M  V30 28370 C 2632.1 3.96185 1.52717 0
M  V30 28371 O 2633.13 3.34736 1.21778 0
M  V30 28372 O 2631.99 5.04435 2.10256 0
M  V30 28373 H 2629.08 0.748961 0.350694 0
M  V30 28374 H 2631.63 1.69678 -0.0272895 0
M  V30 28375 H 2630.4 3.90371 0.269464 0
M  V30 28376 H 2630.02 3.476 1.93029 0
M  V30 28377 N 2631.02 -0.271076 1.55251 0
M  V30 28378 C 2632.27 -1.00044 1.75601 0
M  V30 28379 C 2632.59 -1.86749 0.56122 0
M  V30 28380 O 2631.86 -1.91261 -0.423813 0
M  V30 28381 H 2630.44 -0.372376 0.647569 0
M  V30 28382 H 2633.1 -0.294843 1.92657 0
M  V30 28383 H 2632.19 -1.63626 2.65769 0
M  V30 28384 N 2632.5 -1.48217 -0.535675 0
M  V30 28385 C 2633.74 -1.56175 -1.29372 0
M  V30 28386 C 2634.08 -0.232463 -1.92804 0
M  V30 28387 O 2633.35 0.761017 -1.78994 0
M  V30 28388 C 2633.63 -2.69581 -2.38743 0
M  V30 28389 C 2633.49 -4.12197 -1.80039 0
M  V30 28390 C 2634.81 -2.78777 -3.40546 0
M  V30 28391 H 2631.92 -0.5685 -0.469017 0
M  V30 28392 H 2634.57 -1.80366 -0.597326 0
M  V30 28393 H 2632.72 -2.49085 -2.98142 0
M  V30 28394 H 2634.39 -4.44116 -1.24734 0
M  V30 28395 H 2632.63 -4.19464 -1.10601 0
M  V30 28396 H 2633.3 -4.87358 -2.59204 0
M  V30 28397 H 2635.78 -2.97327 -2.91094 0
M  V30 28398 H 2634.65 -3.59865 -4.14474 0
M  V30 28399 H 2634.92 -1.86703 -4.00742 0
M  V30 28400 N 2633.97 0.784108 -1.3671 0
M  V30 28401 C 2634.9 1.91114 -1.34156 0
M  V30 28402 C 2635.89 1.68772 -0.212151 0
M  V30 28403 O 2637.07 1.89809 -0.410615 0
M  V30 28404 C 2634.2 3.28216 -1.13541 0
M  V30 28405 C 2633.15 3.65094 -2.23362 0
M  V30 28406 C 2632.48 5.00603 -1.87884 0
M  V30 28407 C 2633.78 3.73125 -3.65479 0
M  V30 28408 H 2635.47 1.93508 -2.28463 0
M  V30 28409 H 2633.02 0.929599 -1.09975 0
M  V30 28410 H 2634.97 4.06685 -1.10388 0
M  V30 28411 H 2633.7 3.26223 -0.156861 0
M  V30 28412 H 2632.36 2.88925 -2.2565 0
M  V30 28413 H 2632 4.95137 -0.885902 0
M  V30 28414 H 2631.7 5.26247 -2.61415 0
M  V30 28415 H 2633.23 5.81486 -1.86296 0
M  V30 28416 H 2634.64 4.41773 -3.6539 0
M  V30 28417 H 2633.04 4.10257 -4.3796 0
M  V30 28418 H 2634.11 2.74095 -4 0
M  V30 28419 N 2635.45 1.21076 1.00888 0
M  V30 28420 C 2636.4 0.963513 2.11705 0
M  V30 28421 C 2637.39 -0.0878734 1.69172 0
M  V30 28422 O 2638.6 0.0631731 1.79889 0
M  V30 28423 H 2634.98 0.294299 0.69202 0
M  V30 28424 H 2636.95 1.90426 2.2974 0
M  V30 28425 C 2635.7 0.54057 3.43472 0
M  V30 28426 H 2635.02 1.34121 3.76632 0
M  V30 28427 H 2636.46 0.406851 4.22044 0
M  V30 28428 C 2634.92 -0.748021 3.28491 0
M  V30 28429 O 2635.45 -1.80453 3.58886 0
M  V30 28430 N 2633.65 -0.713032 2.81717 0
M  V30 28431 H 2633.2 0.147018 2.5718 0
M  V30 28432 H 2633.16 -1.57553 2.72074 0
M  V30 28433 N 2636.93 -1.2032 1.01789 0
M  V30 28434 C 2638.18 -1.89346 0.706571 0
M  V30 28435 C 2638.5 -1.79314 -0.766258 0
M  V30 28436 O 2637.77 -1.19638 -1.55124 0
M  V30 28437 H 2636.35 -0.700899 0.258361 0
M  V30 28438 H 2639.01 -1.4612 1.28976 0
M  V30 28439 H 2638.11 -2.95945 0.991118 0
M  V30 28440 N 2638.41 -0.794293 -1.3612 0
M  V30 28441 C 2639.66 -0.365499 -1.98361 0
M  V30 28442 C 2639.97 1.06994 -1.63742 0
M  V30 28443 O 2641.18 1.60125 -2.19254 0
M  V30 28444 C 2639.63 -0.602558 -3.5482 0
M  V30 28445 C 2639.24 -2.04974 -3.98359 0
M  V30 28446 C 2640.98 -0.238511 -4.23829 0
M  V30 28447 C 2638.89 -2.2332 -5.47615 0
M  V30 28448 H 2637.82 -0.132923 -0.742191 0
M  V30 28449 H 2640.47 -0.976617 -1.55353 0
M  V30 28450 H 2638.85 0.0783394 -3.95923 0
M  V30 28451 H 2640.03 -2.76743 -3.68442 0
M  V30 28452 H 2638.34 -2.37249 -3.42202 0
M  V30 28453 H 2640.94 -0.353798 -5.33528 0
M  V30 28454 H 2641.28 0.813935 -4.08266 0
M  V30 28455 H 2641.82 -0.872838 -3.88106 0
M  V30 28456 H 2638.56 -3.26965 -5.68132 0
M  V30 28457 H 2638.08 -1.5606 -5.79142 0
M  V30 28458 H 2639.75 -2.04271 -6.13907 0
M  V30 28459 N 2639.89 1.47813 -0.546727 0
M  V30 28460 C 2641.14 2.01693 -0.0166852 0
M  V30 28461 C 2641.45 1.42754 1.33718 0
M  V30 28462 O 2642.65 1.88233 1.95654 0
M  V30 28463 C 2641.11 3.59894 0.0206137 0
M  V30 28464 C 2640.72 4.27822 -1.32938 0
M  V30 28465 C 2642.46 4.21562 0.4986 0
M  V30 28466 C 2640.37 5.78001 -1.25175 0
M  V30 28467 H 2639.3 0.753996 -0.00246736 0
M  V30 28468 H 2641.95 1.6991 -0.693014 0
M  V30 28469 H 2640.33 3.88592 0.762372 0
M  V30 28470 H 2641.51 4.10778 -2.08802 0
M  V30 28471 H 2639.82 3.78098 -1.74445 0
M  V30 28472 H 2642.42 5.316 0.574906 0
M  V30 28473 H 2642.76 3.88018 1.50823 0
M  V30 28474 H 2643.29 3.97356 -0.187979 0
M  V30 28475 H 2640.03 6.16146 -2.23705 0
M  V30 28476 H 2639.55 5.97412 -0.534745 0
M  V30 28477 H 2641.23 6.39996 -0.949411 0
M  V30 28478 N 2641.36 0.28266 1.55044 0
M  V30 28479 C 2642.31 -0.617438 2.24255 0
M  V30 28480 C 2643.31 -1.15181 1.24217 0
M  V30 28481 O 2644.51 -1.10456 1.42124 0
M  V30 28482 H 2640.89 -0.21768 0.719805 0
M  V30 28483 H 2642.86 -0.0109552 2.98398 0
M  V30 28484 C 2641.61 -1.78667 2.98284 0
M  V30 28485 H 2640.93 -1.38468 3.75055 0
M  V30 28486 H 2642.37 -2.39293 3.50021 0
M  V30 28487 C 2640.83 -2.67971 2.04189 0
M  V30 28488 O 2641.36 -3.68547 1.59799 0
M  V30 28489 N 2639.57 -2.35304 1.7053 0
M  V30 28490 H 2639.11 -1.53563 2.06824 0
M  V30 28491 H 2639.07 -2.95325 1.07844 0
M  V30 28492 N 2642.84 -1.57597 0.0100627 0
M  V30 28493 C 2643.75 -2.12492 -0.994189 0
M  V30 28494 C 2644.77 -1.07256 -1.37011 0
M  V30 28495 O 2645.94 -1.39212 -1.4554 0
M  V30 28496 C 2643.01 -2.62559 -2.26415 0
M  V30 28497 C 2642.07 -3.82436 -1.95042 0
M  V30 28498 C 2641.3 -4.30105 -3.15983 0
M  V30 28499 O 2641.53 -3.77048 -4.28009 0
M  V30 28500 O 2640.46 -5.22156 -2.99393 0
M  V30 28501 H 2644.29 -2.98539 -0.557496 0
M  V30 28502 H 2641.87 -1.47925 -0.209387 0
M  V30 28503 H 2643.75 -2.94915 -3.01004 0
M  V30 28504 H 2642.43 -1.79605 -2.69303 0
M  V30 28505 H 2641.34 -3.55037 -1.17898 0
M  V30 28506 H 2642.67 -4.66494 -1.56984 0
M  V30 28507 N 2644.32 0.262839 -1.55393 0
M  V30 28508 C 2645.23 1.34694 -1.9208 0
M  V30 28509 C 2646.25 1.53506 -0.819254 0
M  V30 28510 O 2647.42 1.67437 -1.11924 0
M  V30 28511 C 2644.49 2.68439 -2.19412 0
M  V30 28512 C 2643.55 2.58286 -3.42909 0
M  V30 28513 C 2642.78 3.85653 -3.68928 0
M  V30 28514 O 2643 4.86805 -2.97283 0
M  V30 28515 O 2641.94 3.85244 -4.62462 0
M  V30 28516 H 2645.76 1.06576 -2.84386 0
M  V30 28517 H 2643.35 0.462239 -1.42069 0
M  V30 28518 H 2645.23 3.47502 -2.38371 0
M  V30 28519 H 2643.91 2.96323 -1.30287 0
M  V30 28520 H 2642.81 1.77564 -3.29275 0
M  V30 28521 H 2644.15 2.3535 -4.32286 0
M  V30 28522 N 2645.8 1.48499 0.527807 0
M  V30 28523 C 2647.08 1.47117 1.28902 0
M  V30 28524 C 2647.46 0.184044 2.10296 0
M  V30 28525 O 2646.8 -0.834181 2.12729 0
M  V30 28526 C 2647.01 2.73445 2.16861 0
M  V30 28527 C 2648.36 3.21861 2.7693 0
M  V30 28528 O 2649.39 2.74377 2.27147 0
M  V30 28529 O 2648.24 4.04492 3.67489 0
M  V30 28530 H 2645.34 0.587633 0.581907 0
M  V30 28531 H 2647.88 1.60735 0.544282 0
M  V30 28532 H 2646.66 3.58635 1.56515 0
M  V30 28533 H 2646.28 2.62558 2.98578 0
M  V30 28534 N 2647.28 -0.776847 1.37123 0
M  V30 28535 C 2648.52 -1.54829 1.33444 0
M  V30 28536 C 2648.88 -1.91825 -0.0818626 0
M  V30 28537 O 2650.08 -2.67696 -0.243333 0
M  V30 28538 C 2648.35 -2.78275 2.24272 0
M  V30 28539 S 2649.91 -3.68393 2.38395 0
M  V30 28540 H 2646.73 -0.530127 0.4738 0
M  V30 28541 H 2649.33 -0.913937 1.72822 0
M  V30 28542 H 2648.04 -2.49167 3.26104 0
M  V30 28543 H 2647.57 -3.46674 1.8596 0
M  V30 28544 H 2649.58 -4.7001 1.59076 0
M  V30 28545 N 2648.76 -1.2161 -1.00244 0
M  V30 28546 C 2650.03 -0.943599 -1.71335 0
M  V30 28547 C 2650.41 0.543907 -2.03973 0
M  V30 28548 O 2649.76 1.50943 -1.71547 0
M  V30 28549 C 2649.97 -1.83133 -2.97091 0
M  V30 28550 C 2651.32 -2.08171 -3.70067 0
M  V30 28551 O 2652.34 -1.80503 -3.07078 0
M  V30 28552 O 2651.2 -2.54979 -4.83371 0
M  V30 28553 H 2648.3 -0.354052 -0.74738 0
M  V30 28554 H 2650.84 -1.32551 -1.05964 0
M  V30 28555 H 2649.61 -2.83793 -2.69402 0
M  V30 28556 H 2649.24 -1.4504 -3.70201 0
M  V30 28557 N 2650.23 1.19778 -1.02425 0
M  V30 28558 C 2651.48 1.89623 -0.719085 0
M  V30 28559 C 2651.81 1.79131 0.750052 0
M  V30 28560 O 2651.09 1.18058 1.54572 0
M  V30 28561 C 2651.37 3.40732 -1.16505 0
M  V30 28562 C 2651.22 3.6012 -2.69506 0
M  V30 28563 C 2652.54 4.33796 -0.742242 0
M  V30 28564 H 2649.66 0.68859 -0.262702 0
M  V30 28565 H 2652.3 1.41016 -1.27336 0
M  V30 28566 H 2650.45 3.82261 -0.693477 0
M  V30 28567 H 2652.13 3.27794 -3.24575 0
M  V30 28568 H 2650.37 3.0333 -3.10118 0
M  V30 28569 H 2651.04 4.66076 -2.95765 0
M  V30 28570 H 2653.52 3.99957 -1.14777 0
M  V30 28571 H 2652.39 5.38126 -1.08223 0
M  V30 28572 H 2652.65 4.40667 0.355669 0
M  V30 28573 N 2651.71 0.801501 1.35697 0
M  V30 28574 C 2653.12 0.441105 1.81414 0
M  V30 28575 C 2653.47 -1.03633 1.66597 0
M  V30 28576 O 2652.6 -1.80497 1.19372 0
M  V30 28577 C 2653.19 0.793877 3.29368 0
M  V30 28578 C 2651.75 0.486149 3.73247 0
M  V30 28579 C 2650.9 1.02217 2.57773 0
M  V30 28580 H 2653.85 0.993593 1.23747 0
M  V30 28581 H 2653.87 0.0894827 3.80395 0
M  V30 28582 H 2653.38 1.86923 3.4012 0
M  V30 28583 H 2651.48 -0.580671 3.68048 0
M  V30 28584 H 2651.6 1.01522 4.6822 0
M  V30 28585 H 2649.96 0.444756 2.50787 0
M  V30 28586 H 2650.74 2.10353 2.71305 0
M  V30 28587 N 2653.19 -1.47521 0.554558 0
M  V30 28588 C 2654.47 -1.95567 -0.036036 0
M  V30 28589 C 2654.85 -1.49713 -1.48826 0
M  V30 28590 O 2654.19 -0.734755 -2.16365 0
M  V30 28591 C 2654.4 -3.48837 0.106692 0
M  V30 28592 C 2655.75 -4.24581 -0.0400153 0
M  V30 28593 O 2656.78 -3.56184 0.0341079 0
M  V30 28594 O 2655.64 -5.46138 -0.199015 0
M  V30 28595 H 2652.73 -0.824393 -0.0656149 0
M  V30 28596 H 2655.28 -1.57934 0.620894 0
M  V30 28597 H 2654.05 -3.75008 1.11734 0
M  V30 28598 H 2653.67 -3.93229 -0.587971 0
M  V30 28599 N 2654.67 -0.290879 -1.54892 0
M  V30 28600 C 2655.62 0.605537 -2.2458 0
M  V30 28601 C 2656.61 1.1452 -1.24826 0
M  V30 28602 O 2657.82 1.09701 -1.42708 0
M  V30 28603 H 2654.19 0.21386 -0.720949 0
M  V30 28604 H 2656.16 -0.00486975 -2.984 0
M  V30 28605 C 2654.91 1.77083 -2.99227 0
M  V30 28606 H 2654.23 1.36477 -3.75784 0
M  V30 28607 H 2655.67 2.37434 -3.51285 0
M  V30 28608 C 2654.13 2.66884 -2.05607 0
M  V30 28609 O 2654.66 3.67695 -1.61751 0
M  V30 28610 N 2652.87 2.34396 -1.71775 0
M  V30 28611 H 2652.42 1.52464 -2.07636 0
M  V30 28612 H 2652.37 2.94749 -1.09409 0
M  V30 28613 N 2656.15 1.57589 -0.0184203 0
M  V30 28614 C 2657.06 2.13017 0.982906 0
M  V30 28615 C 2658.07 1.07981 1.36441 0
M  V30 28616 O 2659.25 1.39982 1.448 0
M  V30 28617 C 2656.31 2.63756 2.25019 0
M  V30 28618 C 2655.37 3.83465 1.93011 0
M  V30 28619 C 2654.61 4.31775 3.13698 0
M  V30 28620 O 2654.83 3.79312 4.26003 0
M  V30 28621 O 2653.76 5.23737 2.9662 0
M  V30 28622 H 2657.59 2.98831 0.541656 0
M  V30 28623 H 2655.17 1.48034 0.201539 0
M  V30 28624 H 2657.06 2.96507 2.99435 0
M  V30 28625 H 2655.73 1.8103 2.68346 0
M  V30 28626 H 2654.64 3.55657 1.16013 0
M  V30 28627 H 2655.97 4.6732 1.54508 0
M  V30 28628 N 2657.62 -0.254594 1.5553 0
M  V30 28629 C 2658.56 -1.34121 1.84626 0
M  V30 28630 C 2659.53 -1.46727 0.700718 0
M  V30 28631 O 2660.72 -1.63062 0.945669 0
M  V30 28632 C 2657.85 -2.7156 2.02417 0
M  V30 28633 C 2656.89 -2.76144 3.25033 0
M  V30 28634 S 2657.72 -2.33529 4.81897 0
M  V30 28635 C 2658.88 -3.72908 5.02683 0
M  V30 28636 H 2659.11 -1.0924 2.76503 0
M  V30 28637 H 2656.65 -0.455185 1.47538 0
M  V30 28638 H 2658.6 -3.50701 2.13351 0
M  V30 28639 H 2657.27 -2.93683 1.11396 0
M  V30 28640 H 2656.46 -3.77063 3.34424 0
M  V30 28641 H 2656.06 -2.05041 3.12785 0
M  V30 28642 H 2658.35 -4.6834 4.89554 0
M  V30 28643 H 2659.3 -3.68457 6.04686 0
M  V30 28644 H 2659.7 -3.65064 4.30567 0
M  V30 28645 N 2659.1 -1.48777 -0.519925 0
M  V30 28646 C 2660.35 -1.56995 -1.27267 0
M  V30 28647 C 2660.67 -0.250074 -1.9339 0
M  V30 28648 O 2659.94 0.729184 -1.81823 0
M  V30 28649 H 2658.52 -0.578397 -0.472722 0
M  V30 28650 H 2661.18 -1.85298 -0.604201 0
M  V30 28651 H 2660.28 -2.35624 -2.04665 0
M  V30 28652 N 2660.58 0.769564 -1.37534 0
M  V30 28653 C 2661.83 1.5282 -1.32862 0
M  V30 28654 C 2662.15 1.94309 0.0862255 0
M  V30 28655 O 2661.41 1.64512 1.05992 0
M  V30 28656 C 2661.71 2.80436 -2.21563 0
M  V30 28657 C 2661.37 2.57989 -3.69801 0
M  V30 28658 C 2660.04 2.51576 -4.10199 0
M  V30 28659 C 2662.39 2.37967 -4.63704 0
M  V30 28660 C 2659.72 2.23134 -5.42612 0
M  V30 28661 C 2662.07 2.11049 -5.96356 0
M  V30 28662 C 2660.73 2.03082 -6.35857 0
M  V30 28663 H 2660 0.559206 -0.486178 0
M  V30 28664 H 2662.65 0.886248 -1.69758 0
M  V30 28665 H 2660.95 3.492 -1.77669 0
M  V30 28666 H 2662.65 3.38325 -2.15261 0
M  V30 28667 H 2659.24 2.63845 -3.37763 0
M  V30 28668 H 2663.43 2.41911 -4.33351 0
M  V30 28669 H 2658.68 2.15462 -5.72177 0
M  V30 28670 H 2662.86 1.94556 -6.68671 0
M  V30 28671 H 2660.48 1.80807 -7.38385 0
M  V30 28672 N 2662.06 1.22139 0.995977 0
M  V30 28673 C 2663.47 1.04138 1.54959 0
M  V30 28674 C 2663.82 -0.396114 1.9216 0
M  V30 28675 O 2662.95 -1.28066 1.74437 0
M  V30 28676 C 2663.54 1.88413 2.81577 0
M  V30 28677 C 2662.1 1.74718 3.33393 0
M  V30 28678 C 2661.25 1.8507 2.06506 0
M  V30 28679 H 2664.2 1.3603 0.817412 0
M  V30 28680 H 2664.22 1.39972 3.53819 0
M  V30 28681 H 2663.73 2.9303 2.5447 0
M  V30 28682 H 2661.83 0.728223 3.65414 0
M  V30 28683 H 2661.94 2.57209 4.04203 0
M  V30 28684 H 2660.31 1.28476 2.19923 0
M  V30 28685 H 2661.09 2.91211 1.81799 0
M  V30 28686 N 2663.54 -1.19233 1.03059 0
M  V30 28687 C 2664.78 -1.88586 0.726614 0
M  V30 28688 C 2665.11 -1.80117 -0.747196 0
M  V30 28689 O 2664.38 -1.21277 -1.53847 0
M  V30 28690 H 2662.96 -0.698119 0.26578 0
M  V30 28691 H 2665.62 -1.44744 1.30519 0
M  V30 28692 H 2664.71 -2.94877 1.02245 0
M  V30 28693 N 2665.01 -0.808686 -1.3527 0
M  V30 28694 C 2665.96 -0.208646 -2.31662 0
M  V30 28695 C 2666.96 0.64275 -1.56733 0
M  V30 28696 O 2668.16 0.535679 -1.71844 0
M  V30 28697 H 2664.54 -0.0487124 -0.750421 0
M  V30 28698 H 2666.51 -1.03671 -2.79812 0
M  V30 28699 C 2665.26 0.626513 -3.42009 0
M  V30 28700 H 2664.58 -0.0192806 -3.99795 0
M  V30 28701 H 2666.02 1.01271 -4.11728 0
M  V30 28702 C 2664.48 1.79293 -2.85229 0
M  V30 28703 O 2665.01 2.8905 -2.7895 0
M  V30 28704 N 2663.22 1.60512 -2.42248 0
M  V30 28705 H 2662.76 0.712331 -2.47555 0
M  V30 28706 H 2662.72 2.38712 -2.04607 0
M  V30 28707 N 2666.49 1.47225 -0.562374 0
M  V30 28708 C 2667.73 2.04355 -0.0426734 0
M  V30 28709 C 2668.1 1.42673 1.28485 0
M  V30 28710 O 2669.3 1.90882 1.89256 0
M  V30 28711 C 2667.57 3.57374 0.0433198 0
M  V30 28712 S 2669.13 4.35845 0.508395 0
M  V30 28713 H 2665.95 0.710463 -0.0276359 0
M  V30 28714 H 2668.55 1.8053 -0.750277 0
M  V30 28715 H 2667.25 3.9979 -0.927142 0
M  V30 28716 H 2666.78 3.85704 0.77432 0
M  V30 28717 H 2668.8 4.63668 1.76711 0
M  V30 28718 N 2667.97 0.299089 1.54736 0
M  V30 28719 C 2669.22 -0.310135 1.99706 0
M  V30 28720 C 2669.54 -1.54557 1.18899 0
M  V30 28721 O 2668.81 -1.93823 0.284479 0
M  V30 28722 H 2667.39 -0.117583 0.737688 0
M  V30 28723 H 2670.05 0.409976 1.90539 0
M  V30 28724 H 2669.15 -0.583496 3.06597 0
M  V30 28725 N 2669.45 -1.57577 0.0267774 0
M  V30 28726 C 2670.4 -2.1123 -0.973886 0
M  V30 28727 C 2671.39 -1.03834 -1.33847 0
M  V30 28728 O 2672.6 -1.22271 -1.32097 0
M  V30 28729 H 2668.97 -0.674827 -0.331832 0
M  V30 28730 H 2670.94 -2.94248 -0.49604 0
M  V30 28731 C 2669.69 -2.65261 -2.24794 0
M  V30 28732 H 2669.01 -3.47547 -1.97614 0
M  V30 28733 H 2670.45 -3.0645 -2.93026 0
M  V30 28734 C 2668.91 -1.57896 -2.97608 0
M  V30 28735 O 2669.44 -0.977419 -3.89627 0
M  V30 28736 N 2667.65 -1.29997 -2.59902 0
M  V30 28737 H 2667.2 -1.791 -1.85151 0
M  V30 28738 H 2667.15 -0.583852 -3.08931 0
M  V30 28739 N 2670.93 0.246342 -1.55663 0
M  V30 28740 C 2672.15 0.996061 -1.81916 0
M  V30 28741 C 2672.58 1.78142 -0.603906 0
M  V30 28742 O 2671.93 1.75702 0.44706 0
M  V30 28743 C 2671.98 1.9092 -3.05912 0
M  V30 28744 O 2671.09 3.001 -2.82866 0
M  V30 28745 H 2670.43 0.283396 -0.600486 0
M  V30 28746 H 2672.96 0.267163 -2.02848 0
M  V30 28747 H 2672.97 2.32374 -3.3536 0
M  V30 28748 H 2671.64 1.33176 -3.94001 0
M  V30 28749 H 2670.22 2.6277 -2.64587 0
M  V30 28750 N 2672.4 1.4905 0.512027 0
M  V30 28751 C 2673.63 1.61671 1.29113 0
M  V30 28752 C 2674.05 0.28382 1.86654 0
M  V30 28753 O 2673.4 -0.729302 1.67294 0
M  V30 28754 C 2673.46 2.67712 2.42925 0
M  V30 28755 O 2673.18 3.9583 1.87751 0
M  V30 28756 C 2674.68 2.90937 3.34471 0
M  V30 28757 H 2671.9 0.544589 0.391999 0
M  V30 28758 H 2674.44 1.95007 0.615847 0
M  V30 28759 H 2672.6 2.37185 3.06304 0
M  V30 28760 H 2673.01 4.54152 2.62385 0
M  V30 28761 H 2674.48 3.68893 4.10636 0
M  V30 28762 H 2674.96 2.00433 3.90798 0
M  V30 28763 H 2675.57 3.22837 2.76869 0
M  V30 28764 N 2673.88 -0.762259 1.3794 0
M  V30 28765 C 2675.13 -1.51645 1.32991 0
M  V30 28766 C 2675.44 -1.95435 -0.0802578 0
M  V30 28767 O 2676.65 -2.70326 -0.252248 0
M  V30 28768 C 2675.11 -2.73881 2.3349 0
M  V30 28769 C 2674.71 -2.37151 3.80084 0
M  V30 28770 C 2676.46 -3.51797 2.37569 0
M  V30 28771 C 2674.37 -3.55945 4.72289 0
M  V30 28772 H 2673.3 -0.569362 0.494311 0
M  V30 28773 H 2675.95 -0.834054 1.6345 0
M  V30 28774 H 2674.33 -3.44058 1.96062 0
M  V30 28775 H 2675.5 -1.74696 4.26401 0
M  V30 28776 H 2673.82 -1.72388 3.7904 0
M  V30 28777 H 2676.41 -4.40109 3.03658 0
M  V30 28778 H 2676.76 -3.92336 1.39206 0
M  V30 28779 H 2677.29 -2.88625 2.73752 0
M  V30 28780 H 2674.03 -3.2048 5.71815 0
M  V30 28781 H 2673.55 -4.17473 4.3067 0
M  V30 28782 H 2675.23 -4.22638 4.89884 0
M  V30 28783 N 2675.36 -1.22666 -0.989486 0
M  V30 28784 C 2676.61 -1.0512 -1.7261 0
M  V30 28785 C 2676.93 0.414097 -1.90552 0
M  V30 28786 O 2676.2 1.2976 -1.46763 0
M  V30 28787 H 2674.78 -0.385988 -0.639548 0
M  V30 28788 H 2677.44 -1.54234 -1.19155 0
M  V30 28789 H 2676.54 -1.5318 -2.71923 0
M  V30 28790 N 2676.84 1.18685 -1.0369 0
M  V30 28791 C 2678.09 1.87899 -0.733268 0
M  V30 28792 C 2678.4 1.80992 0.741713 0
M  V30 28793 O 2679.61 2.45532 1.15871 0
M  V30 28794 C 2678.06 3.37073 -1.26133 0
M  V30 28795 C 2677.67 3.5252 -2.76467 0
M  V30 28796 C 2679.42 4.11713 -1.03406 0
M  V30 28797 C 2677.32 4.95632 -3.2265 0
M  V30 28798 H 2676.25 0.703771 -0.270597 0
M  V30 28799 H 2678.9 1.34131 -1.25224 0
M  V30 28800 H 2677.29 3.90287 -0.670233 0
M  V30 28801 H 2678.46 3.09596 -3.41302 0
M  V30 28802 H 2676.77 2.9128 -2.97565 0
M  V30 28803 H 2679.37 5.17265 -1.35429 0
M  V30 28804 H 2679.71 4.1629 0.0288514 0
M  V30 28805 H 2680.25 3.64661 -1.58957 0
M  V30 28806 H 2676.99 4.96221 -4.28305 0
M  V30 28807 H 2676.51 5.39285 -2.62549 0
M  V30 28808 H 2678.19 5.64328 -3.16454 0
M  V30 28809 N 2678.32 0.815849 1.34839 0
M  V30 28810 C 2679.55 0.41333 2.02729 0
M  V30 28811 C 2679.96 -0.97857 1.6146 0
M  V30 28812 O 2679.32 -1.63211 0.816613 0
M  V30 28813 C 2679.37 0.497739 3.58057 0
M  V30 28814 O 2679.09 1.83477 3.97829 0
M  V30 28815 C 2680.59 0.0892118 4.4321 0
M  V30 28816 H 2677.81 0.16674 0.649953 0
M  V30 28817 H 2680.35 1.10204 1.72265 0
M  V30 28818 H 2678.51 -0.142818 3.87137 0
M  V30 28819 H 2678.92 1.80404 4.92498 0
M  V30 28820 H 2680.4 0.199371 5.5164 0
M  V30 28821 H 2680.87 -0.966496 4.28434 0
M  V30 28822 H 2681.48 0.703288 4.19445 0
M  V30 28823 N 2679.8 -1.46924 0.570174 0
M  V30 28824 C 2681.04 -2.02436 0.0509885 0
M  V30 28825 C 2681.37 -1.4431 -1.30403 0
M  V30 28826 O 2680.63 -0.593231 -1.86492 0
M  V30 28827 C 2680.92 -3.57315 -0.0779708 0
M  V30 28828 C 2680.59 -4.34422 1.20783 0
M  V30 28829 C 2679.25 -4.55207 1.56012 0
M  V30 28830 C 2681.6 -4.78793 2.05929 0
M  V30 28831 C 2678.93 -5.17614 2.76211 0
M  V30 28832 C 2681.28 -5.42527 3.25341 0
M  V30 28833 C 2679.95 -5.61543 3.60868 0
M  V30 28834 H 2679.22 -0.740765 0.018658 0
M  V30 28835 H 2681.87 -1.76444 0.744293 0
M  V30 28836 H 2680.17 -3.82372 -0.854327 0
M  V30 28837 H 2681.87 -3.9793 -0.495242 0
M  V30 28838 H 2678.46 -4.18532 0.923542 0
M  V30 28839 H 2682.64 -4.62502 1.80017 0
M  V30 28840 H 2677.9 -5.30529 3.03889 0
M  V30 28841 H 2682.07 -5.75869 3.91596 0
M  V30 28842 H 2679.7 -6.0967 4.54099 0
M  V30 28843 N 2681.27 -0.307291 -1.54575 0
M  V30 28844 C 2682.2 0.55903 -2.26709 0
M  V30 28845 C 2683.18 1.13277 -1.26895 0
M  V30 28846 O 2684.37 1.16094 -1.55679 0
M  V30 28847 C 2681.5 1.72796 -3.01262 0
M  V30 28848 C 2680.45 1.28428 -4.08277 0
M  V30 28849 C 2679.78 2.53887 -4.7058 0
M  V30 28850 C 2681.08 0.410946 -5.20681 0
M  V30 28851 H 2682.77 -0.0426286 -2.9937 0
M  V30 28852 H 2680.32 -0.0219426 -1.43983 0
M  V30 28853 H 2682.27 2.34017 -3.50448 0
M  V30 28854 H 2681 2.35596 -2.26191 0
M  V30 28855 H 2679.66 0.695098 -3.5995 0
M  V30 28856 H 2679.3 3.15015 -3.92141 0
M  V30 28857 H 2679 2.24899 -5.42858 0
M  V30 28858 H 2680.53 3.15899 -5.22532 0
M  V30 28859 H 2681.94 0.928997 -5.65723 0
M  V30 28860 H 2680.34 0.214559 -5.99716 0
M  V30 28861 H 2681.41 -0.562372 -4.81628 0
M  V30 28862 N 2682.75 1.57561 -0.0351337 0
M  V30 28863 C 2683.68 2.13613 0.942955 0
M  V30 28864 C 2684.66 1.05375 1.33529 0
M  V30 28865 O 2685.85 1.33237 1.41285 0
M  V30 28866 C 2682.98 2.66811 2.22327 0
M  V30 28867 C 2681.93 3.79889 1.9715 0
M  V30 28868 C 2681.26 4.19539 3.31498 0
M  V30 28869 C 2682.56 5.05712 1.30588 0
M  V30 28870 H 2684.25 2.9559 0.476127 0
M  V30 28871 H 2681.8 1.4219 0.227577 0
M  V30 28872 H 2683.75 3.04659 2.91137 0
M  V30 28873 H 2682.47 1.82004 2.71187 0
M  V30 28874 H 2681.13 3.42488 1.30757 0
M  V30 28875 H 2680.78 3.31705 3.78128 0
M  V30 28876 H 2680.48 4.95743 3.15456 0
M  V30 28877 H 2682.01 4.59975 4.01566 0
M  V30 28878 H 2683.42 5.41108 1.89406 0
M  V30 28879 H 2681.82 5.86953 1.24924 0
M  V30 28880 H 2682.89 4.84093 0.279657 0
M  V30 28881 N 2684.23 -0.238084 1.55791 0
M  V30 28882 C 2685.45 -0.9864 1.82442 0
M  V30 28883 C 2685.88 -1.77819 0.613345 0
M  V30 28884 O 2685.24 -1.75936 -0.437736 0
M  V30 28885 C 2685.29 -1.89295 3.0692 0
M  V30 28886 O 2684.39 -2.98596 2.84454 0
M  V30 28887 H 2683.73 -0.280207 0.60198 0
M  V30 28888 H 2686.26 -0.256402 2.02987 0
M  V30 28889 H 2686.27 -2.30593 3.36587 0
M  V30 28890 H 2684.95 -1.31084 3.94702 0
M  V30 28891 H 2683.52 -2.61363 2.65977 0
M  V30 28892 N 2685.71 -1.4932 -0.504115 0
M  V30 28893 C 2686.94 -1.62118 -1.28068 0
M  V30 28894 C 2687.35 -0.290599 -1.86955 0
M  V30 28895 O 2686.69 0.733587 -1.68417 0
M  V30 28896 C 2686.75 -2.62897 -2.45205 0
M  V30 28897 C 2686.41 -4.07324 -2.0721 0
M  V30 28898 C 2687.41 -4.94224 -1.61366 0
M  V30 28899 C 2685.1 -4.53036 -2.16941 0
M  V30 28900 C 2687.09 -6.24872 -1.25752 0
M  V30 28901 C 2684.78 -5.83699 -1.80938 0
M  V30 28902 C 2685.78 -6.69441 -1.35418 0
M  V30 28903 O 2685.46 -7.97668 -0.99901 0
M  V30 28904 H 2685.2 -0.548767 -0.394754 0
M  V30 28905 H 2687.75 -1.96068 -0.612084 0
M  V30 28906 H 2685.98 -2.24121 -3.1513 0
M  V30 28907 H 2687.67 -2.65257 -3.07235 0
M  V30 28908 H 2688.43 -4.60136 -1.53298 0
M  V30 28909 H 2684.31 -3.86468 -2.51324 0
M  V30 28910 H 2687.86 -6.9175 -0.901509 0
M  V30 28911 H 2683.75 -6.17316 -1.88656 0
M  V30 28912 H 2684.52 -8.10652 -1.13075 0
M  V30 28913 N 2687.19 0.754933 -1.38342 0
M  V30 28914 C 2688.12 1.88225 -1.3818 0
M  V30 28915 C 2689.1 1.68284 -0.247902 0
M  V30 28916 O 2690.28 1.88896 -0.450784 0
M  V30 28917 C 2687.41 3.25734 -1.20477 0
M  V30 28918 C 2686.37 3.60274 -2.31056 0
M  V30 28919 C 2685.69 4.96505 -1.9846 0
M  V30 28920 C 2686.99 3.65289 -3.73312 0
M  V30 28921 H 2688.69 1.88618 -2.32516 0
M  V30 28922 H 2686.23 0.906062 -1.11922 0
M  V30 28923 H 2688.18 4.04252 -1.18989 0
M  V30 28924 H 2686.91 3.25817 -0.226023 0
M  V30 28925 H 2685.57 2.84074 -2.31728 0
M  V30 28926 H 2685.22 4.93147 -0.990728 0
M  V30 28927 H 2684.92 5.20584 -2.72519 0
M  V30 28928 H 2686.44 5.77404 -1.98588 0
M  V30 28929 H 2687.85 4.33923 -3.74678 0
M  V30 28930 H 2686.25 4.00875 -4.46564 0
M  V30 28931 H 2687.32 2.65549 -4.05724 0
M  V30 28932 N 2688.66 1.23189 0.982967 0
M  V30 28933 C 2689.91 1.06401 1.72646 0
M  V30 28934 C 2690.24 -0.398528 1.90067 0
M  V30 28935 O 2689.52 -1.29515 1.45107 0
M  V30 28936 C 2689.8 1.78713 3.12624 0
M  V30 28937 C 2689.65 3.32624 3.02789 0
M  V30 28938 C 2690.97 1.54754 4.11994 0
M  V30 28939 H 2688.09 0.387929 0.626642 0
M  V30 28940 H 2690.73 1.5166 1.14452 0
M  V30 28941 H 2688.88 1.4024 3.62305 0
M  V30 28942 H 2690.56 3.80602 2.60652 0
M  V30 28943 H 2688.8 3.61789 2.39356 0
M  V30 28944 H 2689.47 3.78407 4.01886 0
M  V30 28945 H 2691.95 1.88192 3.7111 0
M  V30 28946 H 2690.82 2.0783 5.08033 0
M  V30 28947 H 2691.08 0.482326 4.39461 0
M  V30 28948 N 2690.14 -1.18133 1.04318 0
M  V30 28949 C 2691.39 -1.87508 0.743223 0
M  V30 28950 C 2691.7 -1.81382 -0.732104 0
M  V30 28951 O 2692.91 -2.46143 -1.14567 0
M  V30 28952 C 2691.37 -3.364 1.27919 0
M  V30 28953 C 2690.97 -3.51048 2.78333 0
M  V30 28954 C 2692.72 -4.11159 1.05588 0
M  V30 28955 C 2690.62 -4.93914 3.25274 0
M  V30 28956 H 2689.55 -0.702326 0.274325 0
M  V30 28957 H 2692.21 -1.33465 1.25934 0
M  V30 28958 H 2690.59 -3.89926 0.690922 0
M  V30 28959 H 2691.76 -3.07782 3.42939 0
M  V30 28960 H 2690.08 -2.89698 2.99105 0
M  V30 28961 H 2692.67 -5.1654 1.3817 0
M  V30 28962 H 2693.02 -4.16299 -0.00677412 0
M  V30 28963 H 2693.55 -3.63813 1.60889 0
M  V30 28964 H 2690.29 -4.93943 4.3093 0
M  V30 28965 H 2689.81 -5.37885 2.65405 0
M  V30 28966 H 2691.49 -5.62641 3.19443 0
M  V30 28967 N 2691.62 -0.822988 -1.34405 0
M  V30 28968 C 2692.85 -0.42307 -2.03039 0
M  V30 28969 C 2693.27 0.963168 -1.61569 0
M  V30 28970 O 2692.63 1.62677 -0.800367 0
M  V30 28971 C 2692.68 -0.533272 -3.56635 0
M  V30 28972 O 2691.78 0.446867 -4.09972 0
M  V30 28973 H 2691.12 -0.174183 -0.640747 0
M  V30 28974 H 2693.65 -1.11342 -1.71651 0
M  V30 28975 H 2693.66 -0.409062 -4.05944 0
M  V30 28976 H 2692.34 -1.54432 -3.86165 0
M  V30 28977 H 2690.91 0.281536 -3.71836 0
M  V30 28978 N 2693.1 1.4662 -0.577957 0
M  V30 28979 C 2694.35 2.02406 -0.0617234 0
M  V30 28980 C 2694.67 1.44999 1.29636 0
M  V30 28981 O 2693.93 0.603113 1.86175 0
M  V30 28982 C 2694.23 3.57351 0.0590204 0
M  V30 28983 C 2693.89 4.33775 -1.23085 0
M  V30 28984 C 2692.56 4.54373 -1.58424 0
M  V30 28985 C 2694.91 4.77694 -2.08465 0
M  V30 28986 C 2692.24 5.16142 -2.78952 0
M  V30 28987 C 2694.59 5.40794 -3.28214 0
M  V30 28988 C 2693.25 5.59621 -3.63841 0
M  V30 28989 H 2692.52 0.740656 -0.0225862 0
M  V30 28990 H 2695.17 1.76047 -0.75364 0
M  V30 28991 H 2693.47 3.8282 0.834037 0
M  V30 28992 H 2695.17 3.98187 0.474132 0
M  V30 28993 H 2691.76 4.18036 -0.945725 0
M  V30 28994 H 2695.94 4.6154 -1.82467 0
M  V30 28995 H 2691.2 5.2891 -3.06698 0
M  V30 28996 H 2695.37 5.73785 -3.94644 0
M  V30 28997 H 2693 6.07254 -4.57326 0
M  V30 28998 N 2694.58 0.315484 1.5441 0
M  V30 28999 C 2695.51 -0.546999 2.27003 0
M  V30 29000 C 2696.49 -1.12603 1.27494 0
M  V30 29001 O 2697.67 -1.15267 1.56292 0
M  V30 29002 C 2694.8 -1.71196 3.02174 0
M  V30 29003 C 2693.76 -1.26261 4.08952 0
M  V30 29004 C 2693.08 -2.51388 4.7192 0
M  V30 29005 C 2694.38 -0.383327 5.20891 0
M  V30 29006 H 2696.08 0.0585043 2.99343 0
M  V30 29007 H 2693.62 0.0295781 1.4397 0
M  V30 29008 H 2695.58 -2.32155 3.51685 0
M  V30 29009 H 2694.3 -2.34393 2.27437 0
M  V30 29010 H 2692.96 -0.675999 3.60313 0
M  V30 29011 H 2692.61 -3.12931 3.93806 0
M  V30 29012 H 2692.31 -2.22017 5.44043 0
M  V30 29013 H 2693.83 -3.13124 5.242 0
M  V30 29014 H 2695.24 -0.898983 5.66208 0
M  V30 29015 H 2693.64 -0.182752 5.99822 0
M  V30 29016 H 2694.71 0.587906 4.81323 0
M  V30 29017 N 2696.05 -1.5754 0.0434891 0
M  V30 29018 C 2697.3 -1.91562 -0.63142 0
M  V30 29019 C 2697.62 -0.92295 -1.72456 0
M  V30 29020 O 2698.82 -1.15494 -2.4571 0
M  V30 29021 C 2697.28 -3.402 -1.17441 0
M  V30 29022 C 2696.89 -4.47855 -0.113788 0
M  V30 29023 C 2698.63 -3.83267 -1.825 0
M  V30 29024 C 2696.54 -5.87601 -0.669222 0
M  V30 29025 H 2695.47 -0.714912 -0.239617 0
M  V30 29026 H 2698.12 -1.83163 0.111129 0
M  V30 29027 H 2696.5 -3.43577 -1.96903 0
M  V30 29028 H 2697.67 -4.56057 0.659428 0
M  V30 29029 H 2695.99 -4.14081 0.438894 0
M  V30 29030 H 2698.59 -4.85038 -2.25038 0
M  V30 29031 H 2698.93 -3.191 -2.6736 0
M  V30 29032 H 2699.46 -3.82374 -1.09706 0
M  V30 29033 H 2696.2 -6.55347 0.141564 0
M  V30 29034 H 2695.72 -5.82977 -1.4106 0
M  V30 29035 H 2697.4 -6.36616 -1.15451 0
M  V30 29036 N 2697.53 0.229818 -1.55915 0
M  V30 29037 C 2698.78 0.956836 -1.78809 0
M  V30 29038 C 2699.11 1.84314 -0.611719 0
M  V30 29039 O 2698.39 1.90563 0.389365 0
M  V30 29040 C 2698.67 1.80283 -3.11721 0
M  V30 29041 C 2698.52 0.943571 -4.39792 0
M  V30 29042 C 2699.84 2.78216 -3.41004 0
M  V30 29043 H 2696.96 0.346426 -0.650506 0
M  V30 29044 H 2699.6 0.226219 -1.88648 0
M  V30 29045 H 2697.75 2.42574 -3.03463 0
M  V30 29046 H 2699.42 0.33804 -4.6006 0
M  V30 29047 H 2697.67 0.248629 -4.33087 0
M  V30 29048 H 2698.34 1.5697 -5.29211 0
M  V30 29049 H 2700.81 2.26061 -3.49336 0
M  V30 29050 H 2699.69 3.34518 -4.35188 0
M  V30 29051 H 2699.95 3.55541 -2.6276 0
M  V30 29052 N 2699.01 1.49585 0.49619 0
M  V30 29053 C 2700.26 1.58561 1.24665 0
M  V30 29054 C 2700.57 0.279737 1.93589 0
M  V30 29055 O 2701.78 0.248095 2.70364 0
M  V30 29056 C 2700.23 2.79783 2.26384 0
M  V30 29057 C 2699.84 4.17148 1.63377 0
M  V30 29058 C 2701.59 2.98091 3.02228 0
M  V30 29059 C 2699.49 5.29587 2.63234 0
M  V30 29060 H 2698.42 0.590397 0.468985 0
M  V30 29061 H 2701.07 1.75979 0.519954 0
M  V30 29062 H 2699.46 2.55869 3.02237 0
M  V30 29063 H 2700.63 4.51218 0.934831 0
M  V30 29064 H 2698.95 4.04237 0.99905 0
M  V30 29065 H 2701.54 3.79264 3.76913 0
M  V30 29066 H 2701.89 2.08838 3.60129 0
M  V30 29067 H 2702.42 3.22067 2.3349 0
M  V30 29068 H 2699.16 6.20915 2.10108 0
M  V30 29069 H 2698.68 4.99965 3.31354 0
M  V30 29070 H 2700.36 5.59121 3.25566 0
M  V30 29071 N 2700.49 -0.747586 1.3874 0
M  V30 29072 C 2701.44 -1.88281 1.36577 0
M  V30 29073 C 2702.43 -1.67534 0.250742 0
M  V30 29074 O 2703.64 -1.75029 0.420104 0
M  V30 29075 H 2700.01 -0.619562 0.426201 0
M  V30 29076 H 2701.98 -1.87222 2.32359 0
M  V30 29077 C 2700.73 -3.2583 1.21367 0
M  V30 29078 H 2700.05 -3.42384 2.0643 0
M  V30 29079 H 2701.49 -4.05491 1.23908 0
M  V30 29080 C 2699.95 -3.36807 -0.0789507 0
M  V30 29081 O 2700.48 -3.87632 -1.05378 0
M  V30 29082 N 2698.69 -2.90273 -0.137799 0
M  V30 29083 H 2698.24 -2.49103 0.656172 0
M  V30 29084 H 2698.19 -2.97998 -1.00223 0
M  V30 29085 N 2701.97 -1.23709 -0.97642 0
M  V30 29086 C 2702.9 -0.965009 -2.06792 0
M  V30 29087 C 2703.88 0.0981187 -1.62304 0
M  V30 29088 O 2705.06 -0.0369808 -1.88464 0
M  V30 29089 C 2702.19 -0.454581 -3.35636 0
M  V30 29090 C 2701.23 -1.50492 -3.99067 0
M  V30 29091 S 2702.07 -3.08357 -4.37808 0
M  V30 29092 C 2703.22 -2.58995 -5.698 0
M  V30 29093 H 2703.46 -1.88926 -2.29552 0
M  V30 29094 H 2700.99 -1.06997 -1.11315 0
M  V30 29095 H 2702.95 -0.166698 -4.10161 0
M  V30 29096 H 2701.61 0.448816 -3.10877 0
M  V30 29097 H 2700.8 -1.09801 -4.91894 0
M  V30 29098 H 2700.4 -1.74236 -3.30935 0
M  V30 29099 H 2702.7 -2.01263 -6.46915 0
M  V30 29100 H 2703.64 -3.50377 -6.15338 0
M  V30 29101 H 2704.05 -1.99714 -5.27991 0
M  V30 29102 N 2703.44 1.17579 -1.04943 0
M  V30 29103 C 2704.67 1.91424 -0.777199 0
M  V30 29104 C 2705.08 1.76916 0.670616 0
M  V30 29105 O 2704.43 1.10216 1.46963 0
M  V30 29106 C 2704.49 3.43051 -1.07501 0
M  V30 29107 C 2704.15 3.8134 -2.5185 0
M  V30 29108 C 2705.15 3.84394 -3.50054 0
M  V30 29109 C 2702.83 4.12377 -2.86794 0
M  V30 29110 C 2704.83 4.17948 -4.81246 0
M  V30 29111 C 2702.51 4.45601 -4.1819 0
M  V30 29112 C 2703.51 4.48364 -5.15227 0
M  V30 29113 O 2703.2 4.80807 -6.44267 0
M  V30 29114 H 2702.93 0.61427 -0.28222 0
M  V30 29115 H 2705.49 1.50054 -1.4026 0
M  V30 29116 H 2703.72 3.84703 -0.392504 0
M  V30 29117 H 2705.41 3.98154 -0.78919 0
M  V30 29118 H 2706.17 3.60543 -3.24398 0
M  V30 29119 H 2702.05 4.09398 -2.11929 0
M  V30 29120 H 2705.59 4.2002 -5.56982 0
M  V30 29121 H 2701.49 4.68914 -4.4361 0
M  V30 29122 H 2702.26 4.98675 -6.4905 0
M  V30 29123 N 2704.92 0.830104 1.33967 0
M  V30 29124 C 2706.17 0.417963 1.97322 0
M  V30 29125 C 2706.48 -1.02615 1.66522 0
M  V30 29126 O 2707.69 -1.54255 2.23422 0
M  V30 29127 C 2706.15 0.696421 3.53098 0
M  V30 29128 C 2705.75 2.15463 3.92784 0
M  V30 29129 C 2707.5 0.350798 4.23048 0
M  V30 29130 C 2705.41 2.3776 5.41502 0
M  V30 29131 H 2704.34 0.152554 0.738406 0
M  V30 29132 H 2706.99 1.01746 1.52709 0
M  V30 29133 H 2705.37 0.02666 3.95991 0
M  V30 29134 H 2706.54 2.86415 3.60975 0
M  V30 29135 H 2704.86 2.46238 3.35791 0
M  V30 29136 H 2707.45 0.49513 5.32403 0
M  V30 29137 H 2707.8 -0.705404 4.1028 0
M  V30 29138 H 2708.33 0.97543 3.85656 0
M  V30 29139 H 2705.07 3.41913 5.59264 0
M  V30 29140 H 2704.59 1.7136 5.74801 0
M  V30 29141 H 2706.27 2.20476 6.08276 0
M  V30 29142 N 2706.4 -1.46311 0.585725 0
M  V30 29143 C 2707.36 -2.28798 -0.135633 0
M  V30 29144 C 2708.36 -1.38559 -0.815964 0
M  V30 29145 O 2709.55 -1.60906 -0.667459 0
M  V30 29146 C 2706.69 -3.19022 -1.20158 0
M  V30 29147 H 2707.88 -2.94053 0.589308 0
M  V30 29148 H 2705.43 -1.52472 0.343821 0
M  V30 29149 H 2706.17 -2.58521 -1.958 0
M  V30 29150 H 2705.95 -3.85466 -0.718214 0
M  V30 29151 H 2707.44 -3.81099 -1.70743 0
M  V30 29152 N 2707.88 -0.323668 -1.54241 0
M  V30 29153 C 2709.13 0.279288 -2.00868 0
M  V30 29154 C 2709.46 1.51778 -1.21149 0
M  V30 29155 O 2708.73 1.92268 -0.293813 0
M  V30 29156 C 2709.02 0.613324 -3.54838 0
M  V30 29157 C 2708.87 -0.635882 -4.45283 0
M  V30 29158 C 2710.19 1.43092 -4.16188 0
M  V30 29159 H 2707.31 0.100036 -0.730179 0
M  V30 29160 H 2709.95 -0.440267 -1.84829 0
M  V30 29161 H 2708.1 1.22635 -3.68637 0
M  V30 29162 H 2709.77 -1.27414 -4.43355 0
M  V30 29163 H 2708.01 -1.26474 -4.14954 0
M  V30 29164 H 2708.69 -0.357694 -5.5084 0
M  V30 29165 H 2711.16 0.912743 -4.05966 0
M  V30 29166 H 2710.04 1.63341 -5.24033 0
M  V30 29167 H 2710.3 2.42708 -3.6952 0
M  V30 29168 N 2709.36 1.57515 -0.0518432 0
M  V30 29169 C 2710.61 1.91894 0.621252 0
M  V30 29170 C 2710.92 0.932083 1.71964 0
M  V30 29171 O 2712.13 1.16795 2.45094 0
M  V30 29172 C 2710.58 3.40818 1.15635 0
M  V30 29173 C 2710.19 4.4791 0.0900359 0
M  V30 29174 C 2711.93 3.8423 1.80465 0
M  V30 29175 C 2709.84 5.87948 0.638051 0
M  V30 29176 H 2708.77 0.716173 0.235822 0
M  V30 29177 H 2711.42 1.83102 -0.120841 0
M  V30 29178 H 2709.8 3.44617 1.95078 0
M  V30 29179 H 2710.98 4.55701 -0.683605 0
M  V30 29180 H 2709.29 4.13842 -0.460847 0
M  V30 29181 H 2711.89 4.86225 2.22463 0
M  V30 29182 H 2712.23 3.20513 2.65664 0
M  V30 29183 H 2712.77 3.8295 1.07676 0
M  V30 29184 H 2709.5 6.55263 -0.176317 0
M  V30 29185 H 2709.02 5.83717 1.37966 0
M  V30 29186 H 2710.7 6.37219 1.12074 0
M  V30 29187 N 2710.84 -0.221546 1.56035 0
M  V30 29188 C 2711.77 -1.27776 1.95436 0
M  V30 29189 C 2712.75 -1.48887 0.82259 0
M  V30 29190 O 2713.93 -1.61071 1.08489 0
M  V30 29191 C 2711.06 -2.62755 2.27106 0
M  V30 29192 C 2710.02 -2.563 3.42774 0
M  V30 29193 C 2709.34 -3.95308 3.60049 0
M  V30 29194 C 2710.64 -2.11084 4.77745 0
M  V30 29195 H 2712.34 -0.950454 2.83913 0
M  V30 29196 H 2709.88 -0.455767 1.36597 0
M  V30 29197 H 2711.83 -3.36803 2.53262 0
M  V30 29198 H 2710.56 -2.97173 1.35483 0
M  V30 29199 H 2709.22 -1.84709 3.16667 0
M  V30 29200 H 2708.87 -4.27034 2.65802 0
M  V30 29201 H 2708.57 -3.91871 4.37848 0
M  V30 29202 H 2710.09 -4.71018 3.88554 0
M  V30 29203 H 2711.5 -2.74876 5.03106 0
M  V30 29204 H 2709.9 -2.18707 5.58827 0
M  V30 29205 H 2710.97 -1.06313 4.73102 0
M  V30 29206 N 2712.31 -1.49846 -0.48825 0
M  V30 29207 C 2713.22 -1.7021 -1.61448 0
M  V30 29208 C 2714.24 -0.584875 -1.63876 0
M  V30 29209 O 2715.42 -0.861139 -1.82061 0
M  V30 29210 C 2712.48 -1.77599 -2.97757 0
M  V30 29211 C 2711.54 -3.01249 -3.05856 0
M  V30 29212 C 2710.77 -3.08276 -4.35662 0
M  V30 29213 O 2711 -2.2255 -5.25193 0
M  V30 29214 O 2709.93 -4.00855 -4.48998 0
M  V30 29215 H 2713.76 -2.65645 -1.47194 0
M  V30 29216 H 2711.34 -1.33738 -0.665916 0
M  V30 29217 H 2713.22 -1.84739 -3.78747 0
M  V30 29218 H 2711.9 -0.853454 -3.12246 0
M  V30 29219 H 2710.81 -2.9962 -2.24006 0
M  V30 29220 H 2712.14 -3.93025 -2.96298 0
M  V30 29221 N 2713.79 0.740218 -1.39135 0
M  V30 29222 C 2714.74 1.87554 -1.37573 0
M  V30 29223 C 2715.73 1.67399 -0.259623 0
M  V30 29224 O 2716.94 1.74804 -0.42938 0
M  V30 29225 H 2713.31 0.617293 -0.42948 0
M  V30 29226 H 2715.29 1.85987 -2.33349 0
M  V30 29227 C 2714.03 3.25182 -1.23093 0
M  V30 29228 H 2713.36 3.41284 -2.08243 0
M  V30 29229 H 2714.8 4.04828 -1.26056 0
M  V30 29230 C 2713.26 3.36845 0.0610879 0
M  V30 29231 O 2713.79 3.88185 1.03321 0
M  V30 29232 N 2711.99 2.90342 0.122403 0
M  V30 29233 H 2711.54 2.48751 -0.669373 0
M  V30 29234 H 2711.5 2.98525 0.98641 0
M  V30 29235 N 2715.27 1.24225 0.969846 0
M  V30 29236 C 2716.5 1.10603 1.74501 0
M  V30 29237 C 2716.91 -0.34445 1.86038 0
M  V30 29238 O 2716.25 -1.24958 1.34652 0
M  V30 29239 C 2716.31 1.66941 3.18388 0
M  V30 29240 C 2715.98 3.15804 3.30328 0
M  V30 29241 C 2716.97 4.12978 3.15824 0
M  V30 29242 C 2714.66 3.55721 3.54638 0
M  V30 29243 C 2716.65 5.48051 3.25451 0
M  V30 29244 C 2714.34 4.90936 3.63903 0
M  V30 29245 C 2715.34 5.8691 3.49322 0
M  V30 29246 O 2715.03 7.19667 3.58239 0
M  V30 29247 H 2714.76 0.387216 0.554112 0
M  V30 29248 H 2717.31 1.64766 1.22643 0
M  V30 29249 H 2715.54 1.0721 3.71541 0
M  V30 29250 H 2717.23 1.48641 3.77704 0
M  V30 29251 H 2718 3.83481 2.9693 0
M  V30 29252 H 2713.88 2.81525 3.65054 0
M  V30 29253 H 2717.42 6.22943 3.13987 0
M  V30 29254 H 2713.32 5.20105 3.8231 0
M  V30 29255 H 2714.08 7.27559 3.74967 0
M  V30 29256 N 2716.75 -1.1702 1.05565 0
M  V30 29257 C 2717.97 -1.91828 0.788471 0
M  V30 29258 C 2718.4 -1.765 -0.650325 0
M  V30 29259 O 2717.76 -1.0853 -1.45227 0
M  V30 29260 C 2717.8 -3.40793 1.17866 0
M  V30 29261 O 2716.91 -4.1121 0.313037 0
M  V30 29262 H 2716.25 -0.597903 0.288805 0
M  V30 29263 H 2718.78 -1.48304 1.4095 0
M  V30 29264 H 2718.79 -3.91544 1.14704 0
M  V30 29265 H 2717.46 -3.51269 2.22672 0
M  V30 29266 H 2716.04 -3.70688 0.40558 0
M  V30 29267 N 2718.23 -0.837197 -1.33524 0
M  V30 29268 C 2719.16 -0.226619 -2.28077 0
M  V30 29269 C 2720.17 0.59169 -1.51667 0
M  V30 29270 O 2721.36 0.419034 -1.73512 0
M  V30 29271 C 2718.46 0.699722 -3.31598 0
M  V30 29272 C 2717.63 -0.0788836 -4.37329 0
M  V30 29273 C 2716.69 0.770546 -5.20528 0
M  V30 29274 O 2715.72 0.210353 -5.68811 0
M  V30 29275 N 2716.92 2.08816 -5.41642 0
M  V30 29276 H 2719.68 -1.03902 -2.81113 0
M  V30 29277 H 2717.25 -0.695502 -1.462 0
M  V30 29278 H 2719.24 1.27291 -3.8416 0
M  V30 29279 H 2717.81 1.41284 -2.78851 0
M  V30 29280 H 2717.03 -0.833449 -3.85289 0
M  V30 29281 H 2718.32 -0.614327 -5.05078 0
M  V30 29282 H 2717.71 2.56684 -5.04113 0
M  V30 29283 H 2716.27 2.60987 -5.97268 0
M  V30 29284 N 2719.7 1.45999 -0.593476 0
M  V30 29285 C 2720.67 2.28867 0.123497 0
M  V30 29286 C 2721.67 1.3899 0.808604 0
M  V30 29287 O 2722.86 1.61257 0.658916 0
M  V30 29288 C 2719.99 3.19655 1.18464 0
M  V30 29289 H 2721.18 2.93736 -0.604894 0
M  V30 29290 H 2718.73 1.52287 -0.351902 0
M  V30 29291 H 2719.47 2.59555 1.94426 0
M  V30 29292 H 2719.25 3.85842 0.697762 0
M  V30 29293 H 2720.74 3.82 1.68719 0
M  V30 29294 N 2721.18 0.331843 1.54067 0
M  V30 29295 C 2722.41 -0.26996 2.05131 0
M  V30 29296 C 2722.83 -1.45136 1.20752 0
M  V30 29297 O 2722.18 -1.80914 0.240101 0
M  V30 29298 C 2722.23 -0.696393 3.54729 0
M  V30 29299 O 2721.95 0.438017 4.35905 0
M  V30 29300 C 2723.46 -1.36014 4.21918 0
M  V30 29301 H 2720.68 -0.0541924 0.668808 0
M  V30 29302 H 2723.22 0.480435 1.98776 0
M  V30 29303 H 2721.37 -1.39675 3.61344 0
M  V30 29304 H 2721.79 0.100427 5.24404 0
M  V30 29305 H 2723.26 -1.60938 5.28018 0
M  V30 29306 H 2723.74 -2.31005 3.73542 0
M  V30 29307 H 2724.35 -0.702138 4.19464 0
M  V30 29308 N 2722.66 -1.57485 0.0601958 0
M  V30 29309 C 2723.57 -2.15548 -0.926083 0
M  V30 29310 C 2724.59 -1.11561 -1.3353 0
M  V30 29311 O 2725.76 -1.43772 -1.41037 0
M  V30 29312 C 2722.83 -2.69629 -2.17947 0
M  V30 29313 C 2721.89 -3.88447 -1.82776 0
M  V30 29314 C 2721.12 -4.3994 -3.0214 0
M  V30 29315 O 2721.34 -3.90473 -4.15796 0
M  V30 29316 O 2720.28 -5.31417 -2.8263 0
M  V30 29317 H 2724.1 -3.00162 -0.462236 0
M  V30 29318 H 2721.69 -1.48517 -0.16222 0
M  V30 29319 H 2723.57 -3.04342 -2.91469 0
M  V30 29320 H 2722.25 -1.88081 -2.63452 0
M  V30 29321 H 2721.15 -3.58608 -1.06543 0
M  V30 29322 H 2722.49 -4.71252 -1.42064 0
M  V30 29323 N 2724.14 0.213268 -1.5615 0
M  V30 29324 C 2725.42 0.961251 -1.70351 0
M  V30 29325 C 2725.8 2.021 -0.609827 0
M  V30 29326 O 2725.14 2.25285 0.381948 0
M  V30 29327 C 2725.35 1.56418 -3.11985 0
M  V30 29328 C 2726.7 2.05328 -3.71653 0
M  V30 29329 O 2727.73 1.66296 -3.14998 0
M  V30 29330 O 2726.58 2.77094 -4.71043 0
M  V30 29331 H 2723.68 0.44957 -0.694129 0
M  V30 29332 H 2726.22 0.204397 -1.68465 0
M  V30 29333 H 2725 0.799389 -3.83048 0
M  V30 29334 H 2724.62 2.38636 -3.18023 0
M  V30 29335 N 2725.62 1.50103 0.480296 0
M  V30 29336 C 2726.86 1.60869 1.23486 0
M  V30 29337 C 2727.2 0.303861 1.91808 0
M  V30 29338 O 2726.47 -0.69406 1.81695 0
M  V30 29339 C 2726.75 2.78256 2.28573 0
M  V30 29340 C 2726.61 4.18595 1.64617 0
M  V30 29341 C 2727.93 2.91224 3.29965 0
M  V30 29342 H 2725.04 0.585515 0.447595 0
M  V30 29343 H 2727.69 1.82459 0.529973 0
M  V30 29344 H 2725.84 2.59979 2.88692 0
M  V30 29345 H 2727.51 4.48439 1.08165 0
M  V30 29346 H 2725.75 4.2328 0.94957 0
M  V30 29347 H 2726.42 4.96642 2.40937 0
M  V30 29348 H 2728.9 3.07926 2.79858 0
M  V30 29349 H 2727.77 3.75 4.00832 0
M  V30 29350 H 2728.04 2.01447 3.93537 0
M  V30 29351 N 2727.09 -0.732829 1.39526 0
M  V30 29352 C 2728.03 -1.85716 1.34322 0
M  V30 29353 C 2729.04 -1.60844 0.251604 0
M  V30 29354 O 2730.23 -1.71038 0.510715 0
M  V30 29355 C 2727.33 -3.21784 1.0634 0
M  V30 29356 C 2726.5 -3.73994 2.2682 0
M  V30 29357 C 2725.56 -4.8863 1.95261 0
M  V30 29358 O 2724.59 -5.02178 2.67966 0
M  V30 29359 N 2725.79 -5.73162 0.920085 0
M  V30 29360 H 2728.55 -1.90684 2.31214 0
M  V30 29361 H 2726.11 -0.913657 1.33656 0
M  V30 29362 H 2728.11 -3.96046 0.832432 0
M  V30 29363 H 2726.68 -3.12071 0.181737 0
M  V30 29364 H 2725.9 -2.91059 2.65854 0
M  V30 29365 H 2727.18 -4.0561 3.07177 0
M  V30 29366 H 2726.58 -5.64808 0.317586 0
M  V30 29367 H 2725.14 -6.47482 0.749019 0
M  V30 29368 N 2728.57 -1.24737 -0.963244 0
M  V30 29369 C 2729.48 -1.06085 -2.09244 0
M  V30 29370 C 2730.5 -0.000393686 -1.74 0
M  V30 29371 O 2731.67 -0.199514 -2.00409 0
M  V30 29372 C 2728.74 -0.672558 -3.40114 0
M  V30 29373 C 2727.8 -1.81 -3.89278 0
M  V30 29374 C 2727.03 -1.44013 -5.13903 0
M  V30 29375 O 2727.26 -0.331935 -5.69433 0
M  V30 29376 O 2726.19 -2.26733 -5.57562 0
M  V30 29377 H 2730.02 -2.00763 -2.27877 0
M  V30 29378 H 2727.6 -1.03597 -1.07648 0
M  V30 29379 H 2729.48 -0.467742 -4.18796 0
M  V30 29380 H 2728.16 0.245045 -3.22771 0
M  V30 29381 H 2727.07 -2.0696 -3.11638 0
M  V30 29382 H 2728.4 -2.70653 -4.11105 0
M  V30 29383 N 2730.05 1.16459 -1.06184 0
M  V30 29384 C 2731.3 1.86593 -0.776359 0
M  V30 29385 C 2731.62 1.82034 0.699178 0
M  V30 29386 O 2730.89 1.25313 1.50577 0
M  V30 29387 H 2729.47 0.690827 -0.284196 0
M  V30 29388 H 2732.13 1.41233 -1.34311 0
M  V30 29389 H 2731.23 2.92062 -1.10027 0
M  V30 29390 N 2731.53 0.844266 1.33079 0
M  V30 29391 C 2732.46 0.296533 2.31609 0
M  V30 29392 C 2733.44 -0.598679 1.59216 0
M  V30 29393 O 2734.62 -0.521101 1.87078 0
M  V30 29394 C 2731.75 -0.524702 3.43314 0
M  V30 29395 C 2730.71 0.275181 4.27114 0
M  V30 29396 C 2730.03 -0.670143 5.30484 0
M  V30 29397 C 2731.33 1.49522 5.0044 0
M  V30 29398 H 2733.03 1.11981 2.7767 0
M  V30 29399 H 2730.57 0.539923 1.33495 0
M  V30 29400 H 2732.53 -0.918226 4.11274 0
M  V30 29401 H 2731.25 -1.38124 2.95955 0
M  V30 29402 H 2729.91 0.65033 3.60786 0
M  V30 29403 H 2729.56 -1.52324 4.79381 0
M  V30 29404 H 2729.26 -0.13902 5.87436 0
M  V30 29405 H 2730.78 -1.06107 6.0131 0
M  V30 29406 H 2732.2 1.17456 5.61139 0
M  V30 29407 H 2730.59 1.96353 5.67068 0
M  V30 29408 H 2731.66 2.2621 4.28902 0
M  V30 29409 N 2733.01 -1.45682 0.60121 0
M  V30 29410 C 2734.23 -2.06658 0.100091 0
M  V30 29411 C 2734.65 -1.44693 -1.21282 0
M  V30 29412 O 2734.01 -0.558803 -1.73734 0
M  V30 29413 C 2734.06 -3.61461 -0.0527943 0
M  V30 29414 O 2733.78 -4.21112 1.20817 0
M  V30 29415 C 2735.28 -4.39408 -0.586116 0
M  V30 29416 H 2732.5 -0.667754 0.0659167 0
M  V30 29417 H 2735.04 -1.87026 0.827134 0
M  V30 29418 H 2733.2 -3.80457 -0.730136 0
M  V30 29419 H 2733.61 -5.14211 1.03377 0
M  V30 29420 H 2735.09 -5.48252 -0.642201 0
M  V30 29421 H 2735.56 -4.08742 -1.60705 0
M  V30 29422 H 2736.17 -4.25262 0.0569682 0
M  V30 29423 N 2734.48 -0.340009 -1.53889 0
M  V30 29424 C 2735.76 0.312685 -1.93085 0
M  V30 29425 C 2736.14 1.68531 -1.27123 0
M  V30 29426 O 2735.49 2.24591 -0.420875 0
M  V30 29427 C 2735.7 0.388497 -3.46831 0
M  V30 29428 C 2737.05 0.641014 -4.19733 0
M  V30 29429 O 2738.07 0.470756 -3.53076 0
M  V30 29430 O 2736.93 0.970591 -5.37812 0
M  V30 29431 H 2734.02 0.181725 -0.806787 0
M  V30 29432 H 2736.57 -0.390927 -1.65136 0
M  V30 29433 H 2735.34 -0.574889 -3.87054 0
M  V30 29434 H 2734.97 1.13904 -3.80935 0
M  V30 29435 N 2735.96 1.57451 -0.0685468 0
M  V30 29436 C 2737.24 1.84759 0.642134 0
M  V30 29437 C 2737.62 0.960377 1.87989 0
M  V30 29438 O 2736.97 0.0258296 2.28485 0
M  V30 29439 C 2737.18 3.34874 0.982888 0
M  V30 29440 C 2738.53 4.02306 1.35777 0
M  V30 29441 O 2739.55 3.396 1.07471 0
M  V30 29442 O 2738.41 5.12899 1.88672 0
M  V30 29443 H 2735.5 0.763161 0.318612 0
M  V30 29444 H 2738.05 1.6941 -0.0992313 0
M  V30 29445 H 2736.82 3.91163 0.103652 0
M  V30 29446 H 2736.44 3.55474 1.78112 0
M  V30 29447 N 2737.44 -0.204984 1.56261 0
M  V30 29448 C 2738.72 -0.952203 1.70858 0
M  V30 29449 C 2739.1 -2.01774 0.620536 0
M  V30 29450 O 2738.45 -2.25485 -0.369995 0
M  V30 29451 C 2738.66 -1.54761 3.1281 0
M  V30 29452 C 2740 -2.03354 3.72736 0
M  V30 29453 O 2741.03 -1.64623 3.15876 0
M  V30 29454 O 2739.89 -2.74592 4.72506 0
M  V30 29455 H 2736.98 -0.445883 0.696504 0
M  V30 29456 H 2739.53 -0.19546 1.68571 0
M  V30 29457 H 2738.3 -0.779064 3.83466 0
M  V30 29458 H 2737.92 -2.36946 3.19284 0
M  V30 29459 N 2738.92 -1.50356 -0.472329 0
M  V30 29460 C 2740.15 -1.64798 -1.246 0
M  V30 29461 C 2740.56 -0.330189 -1.86297 0
M  V30 29462 O 2739.9 0.697698 -1.69935 0
M  V30 29463 C 2739.96 -2.68039 -2.39573 0
M  V30 29464 C 2739.63 -4.11628 -1.98524 0
M  V30 29465 C 2740.62 -4.97535 -1.50847 0
M  V30 29466 C 2738.31 -4.57536 -2.07282 0
M  V30 29467 C 2740.3 -6.27399 -1.1247 0
M  V30 29468 C 2737.99 -5.87406 -1.68516 0
M  V30 29469 C 2738.99 -6.72163 -1.21188 0
M  V30 29470 O 2738.68 -7.99608 -0.829588 0
M  V30 29471 H 2738.41 -0.557017 -0.383025 0
M  V30 29472 H 2740.96 -1.97322 -0.570357 0
M  V30 29473 H 2739.19 -2.30755 -3.10305 0
M  V30 29474 H 2740.88 -2.71714 -3.0154 0
M  V30 29475 H 2741.65 -4.63284 -1.43503 0
M  V30 29476 H 2737.53 -3.91712 -2.4307 0
M  V30 29477 H 2741.07 -6.93507 -0.754576 0
M  V30 29478 H 2736.97 -6.21179 -1.75519 0
M  V30 29479 H 2737.73 -8.12868 -0.958546 0
M  V30 29480 N 2740.4 0.725419 -1.39912 0
M  V30 29481 C 2741.67 1.47764 -1.28161 0
M  V30 29482 C 2742.05 2.10841 0.104508 0
M  V30 29483 O 2741.4 1.99363 1.11654 0
M  V30 29484 C 2741.61 2.52131 -2.41311 0
M  V30 29485 C 2742.96 3.18242 -2.81082 0
M  V30 29486 O 2743.98 2.62448 -2.40831 0
M  V30 29487 O 2742.84 4.19225 -3.50589 0
M  V30 29488 H 2739.94 0.656619 -0.502773 0
M  V30 29489 H 2742.48 0.758429 -1.51809 0
M  V30 29490 H 2741.26 2.03968 -3.33935 0
M  V30 29491 H 2740.88 3.316 -2.1938 0
M  V30 29492 N 2741.88 1.25246 0.956615 0
M  V30 29493 C 2742.81 0.997786 2.0523 0
M  V30 29494 C 2743.79 -0.0722852 1.62439 0
M  V30 29495 O 2744.97 0.0669591 1.88381 0
M  V30 29496 C 2742.1 0.50792 3.3487 0
M  V30 29497 C 2741.14 1.56822 3.96622 0
M  V30 29498 S 2741.98 3.15283 4.32847 0
M  V30 29499 C 2743.13 2.68027 5.65608 0
M  V30 29500 H 2743.37 1.92554 2.26518 0
M  V30 29501 H 2740.9 1.08754 1.09599 0
M  V30 29502 H 2742.86 0.23193 4.09844 0
M  V30 29503 H 2741.52 -0.399301 3.11552 0
M  V30 29504 H 2740.71 1.17612 4.90085 0
M  V30 29505 H 2740.31 1.79479 3.28121 0
M  V30 29506 H 2742.6 2.11529 6.43632 0
M  V30 29507 H 2743.55 3.60122 6.09686 0
M  V30 29508 H 2743.96 2.08089 5.24747 0
M  V30 29509 N 2743.35 -1.15894 1.068 0
M  V30 29510 C 2744.58 -1.90163 0.807555 0
M  V30 29511 C 2744.99 -1.77961 -0.642385 0
M  V30 29512 O 2744.33 -1.1254 -1.45191 0
M  V30 29513 C 2744.4 -3.41297 1.12945 0
M  V30 29514 C 2744.06 -3.77285 2.57885 0
M  V30 29515 C 2745.06 -3.78776 3.56125 0
M  V30 29516 C 2742.74 -4.07762 2.93318 0
M  V30 29517 C 2744.74 -4.10239 4.87834 0
M  V30 29518 C 2742.42 -4.38891 4.25227 0
M  V30 29519 C 2743.42 -4.40111 5.22295 0
M  V30 29520 O 2743.11 -4.70497 6.51834 0
M  V30 29521 H 2742.84 -0.609703 0.291957 0
M  V30 29522 H 2745.4 -1.47804 1.4263 0
M  V30 29523 H 2743.63 -3.8403 0.453657 0
M  V30 29524 H 2745.31 -3.96848 0.852433 0
M  V30 29525 H 2746.08 -3.55336 3.30093 0
M  V30 29526 H 2741.96 -4.05975 2.18416 0
M  V30 29527 H 2745.5 -4.11106 5.63593 0
M  V30 29528 H 2741.4 -4.61797 4.51014 0
M  V30 29529 H 2742.17 -4.88286 6.56901 0
M  V30 29530 N 2744.83 -0.851312 -1.32629 0
M  V30 29531 C 2746.06 -0.466257 -2.0127 0
M  V30 29532 C 2746.47 0.940685 -1.64158 0
M  V30 29533 O 2745.81 1.62477 -0.857137 0
M  V30 29534 C 2745.87 -0.521735 -3.55694 0
M  V30 29535 C 2745.54 -1.88698 -4.16224 0
M  V30 29536 C 2746.54 -2.85197 -4.34694 0
M  V30 29537 C 2744.22 -2.18321 -4.52373 0
M  V30 29538 C 2746.21 -4.09474 -4.88477 0
M  V30 29539 C 2743.9 -3.42852 -5.05861 0
M  V30 29540 C 2744.9 -4.38244 -5.23862 0
M  V30 29541 O 2744.59 -5.6057 -5.76209 0
M  V30 29542 H 2744.32 -0.182031 -0.65103 0
M  V30 29543 H 2746.87 -1.14897 -1.70258 0
M  V30 29544 H 2745.1 0.21782 -3.86086 0
M  V30 29545 H 2746.79 -0.152754 -4.05612 0
M  V30 29546 H 2747.56 -2.63614 -4.07103 0
M  V30 29547 H 2743.44 -1.44859 -4.37649 0
M  V30 29548 H 2746.98 -4.8394 -5.02442 0
M  V30 29549 H 2742.88 -3.64286 -5.32885 0
M  V30 29550 H 2743.65 -5.62482 -5.94606 0
M  V30 29551 N 2746.31 1.45361 -0.608928 0
M  V30 29552 C 2747.22 2.34338 0.110928 0
M  V30 29553 C 2748.24 1.51319 0.858981 0
M  V30 29554 O 2749.41 1.84117 0.816264 0
M  V30 29555 C 2746.48 3.28958 1.09488 0
M  V30 29556 C 2745.54 4.27882 0.348643 0
M  V30 29557 C 2744.77 5.17981 1.28573 0
M  V30 29558 O 2744.99 5.11538 2.5236 0
M  V30 29559 O 2743.93 5.96798 0.782067 0
M  V30 29560 H 2747.75 2.97298 -0.62031 0
M  V30 29561 H 2745.34 1.44767 -0.369185 0
M  V30 29562 H 2747.22 3.8726 1.66156 0
M  V30 29563 H 2745.9 2.6856 1.80713 0
M  V30 29564 H 2744.8 3.73192 -0.260531 0
M  V30 29565 H 2746.14 4.91138 -0.323135 0
M  V30 29566 N 2747.79 0.348166 1.53706 0
M  V30 29567 C 2749.04 -0.247957 2.0017 0
M  V30 29568 C 2749.35 -1.51284 1.23986 0
M  V30 29569 O 2750.56 -2.18649 1.6095 0
M  V30 29570 C 2749.01 -0.492396 3.56516 0
M  V30 29571 C 2748.62 0.756854 4.41561 0
M  V30 29572 C 2750.36 -1.04712 4.11382 0
M  V30 29573 C 2748.27 0.48296 5.89425 0
M  V30 29574 H 2747.2 -0.096432 0.747808 0
M  V30 29575 H 2749.85 0.464211 1.77531 0
M  V30 29576 H 2748.23 -1.26538 3.75239 0
M  V30 29577 H 2749.41 1.5313 4.34612 0
M  V30 29578 H 2747.72 1.23355 3.97709 0
M  V30 29579 H 2750.32 -1.26708 5.1947 0
M  V30 29580 H 2750.66 -2.00405 3.64889 0
M  V30 29581 H 2751.2 -0.334731 3.96389 0
M  V30 29582 H 2747.93 1.40973 6.40162 0
M  V30 29583 H 2747.45 -0.253311 5.99265 0
M  V30 29584 H 2749.13 0.10193 6.4692 0
M  V30 29585 N 2749.27 -1.57412 0.0768958 0
M  V30 29586 C 2750.51 -1.94779 -0.585892 0
M  V30 29587 C 2750.87 -0.957012 -1.6691 0
M  V30 29588 O 2750.16 0.0199117 -1.9159 0
M  V30 29589 C 2750.35 -3.36559 -1.20262 0
M  V30 29590 C 2750.18 -4.49337 -0.180681 0
M  V30 29591 C 2748.95 -5.04746 0.23645 0
M  V30 29592 C 2751.15 -5.10973 0.584068 0
M  V30 29593 N 2749.13 -6.01069 1.24856 0
M  V30 29594 C 2750.5 -6.02842 1.44852 0
M  V30 29595 C 2752.56 -4.93775 0.639579 0
M  V30 29596 C 2751.26 -6.79359 2.36355 0
M  V30 29597 C 2753.29 -5.70939 1.54214 0
M  V30 29598 C 2752.65 -6.62461 2.39426 0
M  V30 29599 H 2748.75 -0.759737 -0.185267 0
M  V30 29600 H 2751.33 -1.9408 0.155227 0
M  V30 29601 H 2749.5 -3.37986 -1.91364 0
M  V30 29602 H 2751.24 -3.61149 -1.82629 0
M  V30 29603 H 2747.99 -4.7337 -0.147686 0
M  V30 29604 H 2748.41 -6.5393 1.75228 0
M  V30 29605 H 2753.06 -4.228 -0.00502642 0
M  V30 29606 H 2750.77 -7.49608 3.01849 0
M  V30 29607 H 2754.36 -5.59652 1.59 0
M  V30 29608 H 2753.24 -7.21127 3.08132 0
M  V30 29609 N 2750.74 0.196695 -1.56368 0
M  V30 29610 C 2751.68 1.2678 -1.90943 0
M  V30 29611 C 2752.69 1.41791 -0.799953 0
M  V30 29612 O 2753.88 1.42245 -1.07836 0
M  V30 29613 C 2750.98 2.64017 -2.12482 0
M  V30 29614 C 2750.15 2.70635 -3.43621 0
M  V30 29615 C 2749.21 3.89056 -3.54291 0
M  V30 29616 O 2748.24 3.76233 -4.27126 0
M  V30 29617 N 2749.44 5.04442 -2.87261 0
M  V30 29618 H 2752.2 0.974367 -2.83419 0
M  V30 29619 H 2749.76 0.386621 -1.57216 0
M  V30 29620 H 2751.76 3.41661 -2.1691 0
M  V30 29621 H 2750.33 2.85855 -1.26513 0
M  V30 29622 H 2749.55 1.79277 -3.51075 0
M  V30 29623 H 2750.83 2.72047 -4.29963 0
M  V30 29624 H 2750.23 5.17758 -2.2791 0
M  V30 29625 H 2748.79 5.80039 -2.97318 0
M  V30 29626 N 2752.22 1.50604 0.464349 0
M  V30 29627 C 2753.17 1.70496 1.58221 0
M  V30 29628 C 2754.16 0.570864 1.59491 0
M  V30 29629 O 2755.37 0.751545 1.6356 0
M  V30 29630 H 2751.75 0.538256 0.525152 0
M  V30 29631 H 2753.72 2.64254 1.38608 0
M  V30 29632 C 2752.47 1.82248 2.9611 0
M  V30 29633 H 2751.79 2.68907 2.95854 0
M  V30 29634 H 2753.23 2.00189 3.73765 0
M  V30 29635 C 2751.69 0.575686 3.31945 0
M  V30 29636 O 2752.22 -0.282082 4.00708 0
M  V30 29637 N 2750.42 0.427715 2.87435 0
M  V30 29638 H 2749.97 1.12678 2.3165 0
M  V30 29639 H 2749.93 -0.405325 3.11776 0
M  V30 29640 N 2753.7 -0.717989 1.40295 0
M  V30 29641 C 2754.95 -1.47783 1.38443 0
M  V30 29642 C 2755.28 -1.94495 -0.0140497 0
M  V30 29643 O 2754.53 -1.68332 -0.998135 0
M  V30 29644 C 2754.83 -2.7202 2.31819 0
M  V30 29645 C 2754.5 -2.44086 3.79121 0
M  V30 29646 C 2753.16 -2.36178 4.19253 0
M  V30 29647 C 2755.51 -2.20593 4.72216 0
M  V30 29648 C 2752.84 -2.02842 5.5052 0
M  V30 29649 C 2755.19 -1.8877 6.03779 0
M  V30 29650 C 2753.85 -1.79342 6.42956 0
M  V30 29651 H 2753.12 -0.540777 0.506598 0
M  V30 29652 H 2755.77 -0.822632 1.72931 0
M  V30 29653 H 2754.08 -3.42366 1.90507 0
M  V30 29654 H 2755.77 -3.30102 2.2767 0
M  V30 29655 H 2752.36 -2.51127 3.47323 0
M  V30 29656 H 2756.55 -2.25661 4.4203 0
M  V30 29657 H 2751.8 -1.94078 5.79779 0
M  V30 29658 H 2755.98 -1.69605 6.75431 0
M  V30 29659 H 2753.6 -1.53278 7.44587 0
M  V30 29660 N 2755.18 -1.25752 -0.94996 0
M  V30 29661 C 2756.46 -1.01542 -1.67178 0
M  V30 29662 C 2756.84 0.456906 -2.06096 0
M  V30 29663 O 2756.18 1.43531 -1.77795 0
M  V30 29664 C 2756.39 -1.95569 -2.89057 0
M  V30 29665 C 2757.74 -2.2368 -3.60905 0
M  V30 29666 O 2758.77 -1.93365 -2.99146 0
M  V30 29667 O 2757.62 -2.75251 -4.72122 0
M  V30 29668 H 2754.72 -0.385432 -0.731691 0
M  V30 29669 H 2757.26 -1.36926 -1.00247 0
M  V30 29670 H 2756.04 -2.94964 -2.57123 0
M  V30 29671 H 2755.66 -1.60611 -3.63717 0
M  V30 29672 N 2756.66 1.15326 -1.07413 0
M  V30 29673 C 2758.07 1.67714 -0.82029 0
M  V30 29674 C 2758.42 1.84961 0.654507 0
M  V30 29675 O 2757.54 1.55339 1.50661 0
M  V30 29676 C 2758.14 3.04644 -1.48247 0
M  V30 29677 C 2756.7 3.54107 -1.27612 0
M  V30 29678 C 2755.84 2.29818 -1.55174 0
M  V30 29679 H 2758.8 0.99531 -1.23609 0
M  V30 29680 H 2758.82 3.69604 -0.904049 0
M  V30 29681 H 2758.33 2.9206 -2.55583 0
M  V30 29682 H 2756.43 3.71932 -0.223013 0
M  V30 29683 H 2756.54 4.35508 -1.99675 0
M  V30 29684 H 2754.91 2.35391 -0.972788 0
M  V30 29685 H 2755.69 2.1982 -2.63693 0
M  V30 29686 N 2758.13 0.858334 1.32176 0
M  V30 29687 C 2759.41 0.384658 1.9178 0
M  V30 29688 C 2759.79 -1.13214 1.78173 0
M  V30 29689 O 2759.14 -1.95545 1.18213 0
M  V30 29690 C 2759.35 0.853107 3.38413 0
M  V30 29691 C 2760.7 0.872432 4.1554 0
M  V30 29692 O 2761.72 0.797987 3.47146 0
M  V30 29693 O 2760.58 0.978103 5.37676 0
M  V30 29694 H 2757.67 0.1129 0.819257 0
M  V30 29695 H 2760.22 0.945477 1.40921 0
M  V30 29696 H 2758.99 1.89638 3.42277 0
M  V30 29697 H 2758.62 0.269943 3.96683 0
M  V30 29698 N 2759.61 -1.45036 0.616628 0
M  V30 29699 C 2760.86 -2.01772 0.115138 0
M  V30 29700 C 2761.18 -1.48641 -1.26218 0
M  V30 29701 O 2760.45 -0.684231 -1.83562 0
M  V30 29702 H 2759.03 -0.745951 0.0395738 0
M  V30 29703 H 2761.69 -1.77722 0.800064 0
M  V30 29704 H 2760.79 -3.12017 0.0717822 0
M  V30 29705 N 2761.09 -0.356312 -1.53519 0
M  V30 29706 C 2762.32 0.237291 -2.05535 0
M  V30 29707 C 2762.73 1.43197 -1.23045 0
M  V30 29708 O 2762.09 1.80509 -0.268852 0
M  V30 29709 C 2762.14 0.639871 -3.55792 0
M  V30 29710 O 2761.86 -0.50731 -4.35153 0
M  V30 29711 C 2763.36 1.29284 -4.24029 0
M  V30 29712 H 2760.58 0.0435454 -0.669586 0
M  V30 29713 H 2763.13 -0.511998 -1.97987 0
M  V30 29714 H 2761.28 1.33909 -3.63521 0
M  V30 29715 H 2761.7 -0.183842 -5.24178 0
M  V30 29716 H 2763.17 1.52517 -5.30511 0
M  V30 29717 H 2763.65 2.25033 -3.7717 0
M  V30 29718 H 2764.25 0.635316 -4.20528 0
M  V30 29719 N 2762.57 1.57369 -0.0852427 0
M  V30 29720 C 2763.98 1.57275 0.271408 0
M  V30 29721 C 2764.18 1.09568 1.69107 0
M  V30 29722 O 2763.24 0.767653 2.40548 0
M  V30 29723 C 2764.55 3.00621 0.0688109 0
M  V30 29724 C 2766.1 3.12699 0.137318 0
M  V30 29725 C 2766.58 4.57985 -0.0371637 0
M  V30 29726 N 2768.07 4.63197 0.0179979 0
M  V30 29727 C 2768.8 5.73326 -0.0923961 0
M  V30 29728 N 2768.3 6.92323 -0.25707 0
M  V30 29729 N 2770.09 5.62089 -0.034369 0
M  V30 29730 H 2762.24 1.86692 -1.01292 0
M  V30 29731 H 2764.51 0.861259 -0.396154 0
M  V30 29732 H 2764.21 3.39687 -0.911337 0
M  V30 29733 H 2764.09 3.68282 0.815377 0
M  V30 29734 H 2766.47 2.73511 1.10796 0
M  V30 29735 H 2766.55 2.47649 -0.640575 0
M  V30 29736 H 2766.2 4.97865 -1.00463 0
M  V30 29737 H 2766.13 5.21083 0.760301 0
M  V30 29738 H 2768.62 3.77629 0.143135 0
M  V30 29739 H 2768.93 7.72082 -0.333085 0
M  V30 29740 H 2767.28 6.94384 -0.292609 0
M  V30 29741 H 2770.47 4.68007 0.0930782 0
M  V30 29742 H 2770.64 6.47882 -0.123854 0
M  V30 29743 N 2764.05 -0.188399 1.5647 0
M  V30 29744 C 2765.28 -0.922431 1.84864 0
M  V30 29745 C 2765.68 -1.77074 0.666445 0
M  V30 29746 O 2765.03 -1.79852 -0.374012 0
M  V30 29747 C 2765.09 -1.86319 3.0745 0
M  V30 29748 C 2764.75 -1.19617 4.41068 0
M  V30 29749 C 2765.75 -0.569855 5.16768 0
M  V30 29750 C 2763.44 -1.19803 4.87804 0
M  V30 29751 C 2765.43 0.045706 6.37384 0
M  V30 29752 C 2763.12 -0.578633 6.08354 0
M  V30 29753 C 2764.11 0.042146 6.82987 0
M  V30 29754 O 2763.8 0.651815 8.01253 0
M  V30 29755 H 2763.53 -0.274306 0.617845 0
M  V30 29756 H 2766.09 -0.198577 2.04438 0
M  V30 29757 H 2764.32 -2.62691 2.83778 0
M  V30 29758 H 2766.01 -2.46558 3.22434 0
M  V30 29759 H 2766.77 -0.560517 4.8175 0
M  V30 29760 H 2762.65 -1.67061 4.29665 0
M  V30 29761 H 2766.2 0.530853 6.95577 0
M  V30 29762 H 2762.09 -0.585497 6.42839 0
M  V30 29763 H 2762.86 0.549379 8.16654 0
M  V30 29764 N 2765.53 -1.50848 -0.456355 0
M  V30 29765 C 2766.77 -1.6181 -1.20418 0
M  V30 29766 C 2767.09 -0.330966 -1.9278 0
M  V30 29767 O 2768.29 -0.31969 -2.69611 0
M  V30 29768 C 2766.75 -2.85687 -2.18886 0
M  V30 29769 C 2766.36 -4.21333 -1.52259 0
M  V30 29770 C 2768.1 -3.05999 -2.94219 0
M  V30 29771 C 2766.01 -5.3638 -2.491 0
M  V30 29772 H 2764.94 -0.602624 -0.453167 0
M  V30 29773 H 2767.59 -1.77296 -0.473113 0
M  V30 29774 H 2765.97 -2.63792 -2.95347 0
M  V30 29775 H 2767.15 -4.53538 -0.81487 0
M  V30 29776 H 2765.46 -4.06744 -0.891523 0
M  V30 29777 H 2768.06 -3.89123 -3.66725 0
M  V30 29778 H 2768.4 -2.18312 -3.54465 0
M  V30 29779 H 2768.93 -3.28145 -2.24868 0
M  V30 29780 H 2765.67 -6.26267 -1.93571 0
M  V30 29781 H 2765.19 -5.08574 -3.17982 0
M  V30 29782 H 2766.87 -5.67556 -3.10627 0
M  V30 29783 N 2767 0.710538 -1.40674 0
M  V30 29784 C 2768.42 1.01925 -1.22814 0
M  V30 29785 C 2768.62 2.01216 -0.106905 0
M  V30 29786 O 2767.68 2.46798 0.533571 0
M  V30 29787 C 2768.99 1.55815 -2.57181 0
M  V30 29788 C 2770.54 1.67775 -2.64236 0
M  V30 29789 C 2771.01 2.25069 -3.98883 0
M  V30 29790 N 2772.5 2.32449 -4.00652 0
M  V30 29791 C 2773.24 2.77775 -5.01626 0
M  V30 29792 N 2772.73 3.22815 -6.12994 0
M  V30 29793 N 2774.53 2.77204 -4.88993 0
M  V30 29794 H 2766.68 0.0524927 -2.12335 0
M  V30 29795 H 2768.94 0.0858814 -0.944102 0
M  V30 29796 H 2768.65 0.903189 -3.39905 0
M  V30 29797 H 2768.52 2.54262 -2.78622 0
M  V30 29798 H 2770.91 2.32387 -1.8188 0
M  V30 29799 H 2770.99 0.679134 -2.4662 0
M  V30 29800 H 2770.63 1.61077 -4.81681 0
M  V30 29801 H 2770.56 3.25654 -4.13832 0
M  V30 29802 H 2773.05 2.00645 -3.20235 0
M  V30 29803 H 2773.37 3.55983 -6.85927 0
M  V30 29804 H 2771.71 3.20762 -6.16552 0
M  V30 29805 H 2774.9 2.41356 -4.0108 0
M  V30 29806 H 2775.08 3.12211 -5.67827 0
M  V30 29807 N 2768.48 1.26254 0.943277 0
M  V30 29808 C 2769.71 1.1428 1.72115 0
M  V30 29809 C 2770.12 -0.304911 1.86727 0
M  V30 29810 O 2769.46 -1.22074 1.37272 0
M  V30 29811 C 2769.52 1.73657 3.14775 0
M  V30 29812 C 2769.19 3.2274 3.23555 0
M  V30 29813 C 2770.19 4.19584 3.06993 0
M  V30 29814 C 2767.87 3.63163 3.47013 0
M  V30 29815 C 2769.86 5.54831 3.13753 0
M  V30 29816 C 2767.55 4.98544 3.53408 0
M  V30 29817 C 2768.55 5.94188 3.36794 0
M  V30 29818 O 2768.24 7.27104 3.42893 0
M  V30 29819 H 2767.97 0.398882 0.545774 0
M  V30 29820 H 2770.52 1.6733 1.19121 0
M  V30 29821 H 2768.75 1.15067 3.69184 0
M  V30 29822 H 2770.44 1.56619 3.74467 0
M  V30 29823 H 2771.21 3.89693 2.88729 0
M  V30 29824 H 2767.09 2.89205 3.59001 0
M  V30 29825 H 2770.63 6.29463 3.00703 0
M  V30 29826 H 2766.53 5.28097 3.71192 0
M  V30 29827 H 2767.3 7.35349 3.5945 0
M  V30 29828 N 2769.96 -1.14755 1.08024 0
M  V30 29829 C 2771.24 -1.8185 0.720418 0
M  V30 29830 C 2771.62 -1.95504 -0.796341 0
M  V30 29831 O 2770.96 -1.51182 -1.71337 0
M  V30 29832 C 2771.17 -3.17781 1.44279 0
M  V30 29833 C 2772.52 -3.93328 1.59932 0
M  V30 29834 O 2773.55 -3.27357 1.40412 0
M  V30 29835 O 2772.41 -5.11623 1.92105 0
M  V30 29836 H 2769.5 -0.786003 0.257156 0
M  V30 29837 H 2772.05 -1.21807 1.18158 0
M  V30 29838 H 2770.82 -3.02983 2.47623 0
M  V30 29839 H 2770.44 -3.85514 0.972858 0
M  V30 29840 N 2771.44 -0.865331 -1.31719 0
M  V30 29841 C 2772.37 -0.274946 -2.27545 0
M  V30 29842 C 2773.38 0.559386 -1.52888 0
M  V30 29843 O 2774.57 0.382135 -1.74362 0
M  V30 29844 C 2771.67 0.629228 -3.33007 0
M  V30 29845 C 2770.84 -0.17163 -4.37063 0
M  V30 29846 C 2769.9 0.659961 -5.22045 0
M  V30 29847 O 2768.93 0.0896526 -5.69129 0
M  V30 29848 N 2770.13 1.9728 -5.4595 0
M  V30 29849 H 2772.9 -1.09841 -2.78846 0
M  V30 29850 H 2770.46 -0.726356 -1.44692 0
M  V30 29851 H 2772.45 1.19114 -3.86774 0
M  V30 29852 H 2771.02 1.35337 -2.81785 0
M  V30 29853 H 2770.24 -0.914987 -3.83434 0
M  V30 29854 H 2771.53 -0.721323 -5.03661 0
M  V30 29855 H 2770.93 2.45933 -5.09444 0
M  V30 29856 H 2769.48 2.4826 -6.02669 0
M  V30 29857 N 2772.92 1.44707 -0.624311 0
M  V30 29858 C 2773.85 2.3339 0.0716615 0
M  V30 29859 C 2774.83 1.4781 0.841788 0
M  V30 29860 O 2776.01 1.76546 0.809025 0
M  V30 29861 C 2773.14 3.30778 1.05846 0
M  V30 29862 C 2772.1 4.26123 0.400428 0
M  V30 29863 C 2771.42 5.13327 1.49665 0
M  V30 29864 C 2772.72 5.17735 -0.689015 0
M  V30 29865 H 2774.42 2.91833 -0.668871 0
M  V30 29866 H 2771.96 1.40328 -0.323105 0
M  V30 29867 H 2773.91 3.91699 1.55403 0
M  V30 29868 H 2772.64 2.70529 1.8298 0
M  V30 29869 H 2771.3 3.66524 -0.0744332 0
M  V30 29870 H 2770.95 4.49435 2.25869 0
M  V30 29871 H 2770.65 5.77927 1.06177 0
M  V30 29872 H 2772.17 5.77118 1.99417 0
M  V30 29873 H 2773.58 5.72631 -0.276825 0
M  V30 29874 H 2771.98 5.90902 -1.04663 0
M  V30 29875 H 2773.05 4.59158 -1.55892 0
M  V30 29876 N 2774.39 0.364449 1.53328 0
M  V30 29877 C 2775.62 -0.228997 2.06132 0
M  V30 29878 C 2776.04 -1.41767 1.23628 0
M  V30 29879 O 2775.4 -1.79497 0.25507 0
M  V30 29880 C 2775.45 -0.601678 3.55545 0
M  V30 29881 O 2774.55 -1.69905 3.75774 0
M  V30 29882 H 2773.89 -0.0336097 0.663149 0
M  V30 29883 H 2776.42 0.524724 1.97757 0
M  V30 29884 H 2776.43 -0.873003 3.98551 0
M  V30 29885 H 2775.11 0.267494 4.15039 0
M  V30 29886 H 2773.69 -1.42337 3.44666 0
M  V30 29887 N 2775.87 -1.57322 0.0935872 0
M  V30 29888 C 2776.78 -2.17464 -0.880153 0
M  V30 29889 C 2777.8 -1.14368 -1.31133 0
M  V30 29890 O 2778.97 -1.46732 -1.37956 0
M  V30 29891 C 2776.04 -2.74191 -2.12179 0
M  V30 29892 C 2775.1 -3.92237 -1.74496 0
M  V30 29893 C 2774.33 -4.4625 -2.9274 0
M  V30 29894 O 2774.56 -3.99205 -4.0742 0
M  V30 29895 O 2773.49 -5.37292 -2.71294 0
M  V30 29896 H 2777.32 -3.01075 -0.398463 0
M  V30 29897 H 2774.9 -1.48827 -0.130681 0
M  V30 29898 H 2776.78 -3.10456 -2.84948 0
M  V30 29899 H 2775.46 -1.93627 -2.59404 0
M  V30 29900 H 2774.36 -3.60787 -0.989122 0
M  V30 29901 H 2775.7 -4.7416 -1.32036 0
M  V30 29902 N 2777.35 0.180099 -1.56568 0
M  V30 29903 C 2778.6 0.898135 -1.81493 0
M  V30 29904 C 2778.92 1.82623 -0.669257 0
M  V30 29905 O 2778.18 1.92652 0.344062 0
M  V30 29906 C 2778.48 1.7339 -3.12523 0
M  V30 29907 C 2778.14 0.955489 -4.4066 0
M  V30 29908 C 2776.81 0.740623 -4.75466 0
M  V30 29909 C 2779.16 0.408857 -5.19594 0
M  V30 29910 C 2776.49 -0.0321159 -5.86691 0
M  V30 29911 C 2778.84 -0.350749 -6.31627 0
M  V30 29912 C 2777.5 -0.576495 -6.65006 0
M  V30 29913 H 2776.77 0.328651 -0.664131 0
M  V30 29914 H 2779.42 0.163583 -1.908 0
M  V30 29915 H 2777.72 2.53758 -2.9852 0
M  V30 29916 H 2779.42 2.29235 -3.29017 0
M  V30 29917 H 2776.01 1.13299 -4.13354 0
M  V30 29918 H 2780.2 0.56222 -4.93105 0
M  V30 29919 H 2775.45 -0.216843 -6.11015 0
M  V30 29920 H 2779.63 -0.781619 -6.92 0
M  V30 29921 H 2777.25 -1.17716 -7.51031 0
M  V30 29922 N 2778.83 1.51088 0.448349 0
M  V30 29923 C 2779.76 1.74547 1.55099 0
M  V30 29924 C 2780.74 0.594961 1.59356 0
M  V30 29925 O 2781.92 0.836522 1.7526 0
M  V30 29926 C 2779.05 1.86046 2.93265 0
M  V30 29927 C 2778.01 3.01407 3.03871 0
M  V30 29928 C 2777.33 2.98075 4.43909 0
M  V30 29929 C 2778.63 4.41556 2.78972 0
M  V30 29930 H 2780.33 2.66872 1.3572 0
M  V30 29931 H 2777.87 1.2842 0.651475 0
M  V30 29932 H 2779.83 2.01041 3.70352 0
M  V30 29933 H 2778.55 0.903603 3.13851 0
M  V30 29934 H 2777.21 2.861 2.29222 0
M  V30 29935 H 2776.86 2.0019 4.61447 0
M  V30 29936 H 2776.56 3.75535 4.51937 0
M  V30 29937 H 2778.08 3.15149 5.22985 0
M  V30 29938 H 2779.5 4.57271 3.45797 0
M  V30 29939 H 2777.89 5.20638 2.98422 0
M  V30 29940 H 2778.96 4.52353 1.74655 0
M  V30 29941 N 2780.31 -0.703068 1.41049 0
M  V30 29942 C 2781.58 -1.45706 1.30496 0
M  V30 29943 C 2781.96 -2.10981 -0.0709521 0
M  V30 29944 O 2781.31 -2.01114 -1.08468 0
M  V30 29945 C 2781.52 -2.4826 2.45291 0
M  V30 29946 C 2782.87 -3.1373 2.86109 0
M  V30 29947 O 2783.89 -2.58583 2.44976 0
M  V30 29948 O 2782.75 -4.13595 3.57214 0
M  V30 29949 H 2779.85 -0.648537 0.513155 0
M  V30 29950 H 2782.39 -0.734181 1.52996 0
M  V30 29951 H 2781.16 -1.98629 3.37138 0
M  V30 29952 H 2780.79 -3.28067 2.24628 0
M  V30 29953 N 2781.78 -1.26752 -0.936569 0
M  V30 29954 C 2783.03 -1.12736 -1.68578 0
M  V30 29955 C 2783.36 0.327711 -1.91415 0
M  V30 29956 O 2782.64 1.2404 -1.49814 0
M  V30 29957 C 2782.92 -1.90193 -3.05776 0
M  V30 29958 C 2782.77 -3.43632 -2.90236 0
M  V30 29959 C 2784.09 -1.69939 -4.05967 0
M  V30 29960 H 2781.21 -0.410919 -0.611812 0
M  V30 29961 H 2783.85 -1.55803 -1.08745 0
M  V30 29962 H 2782 -1.5359 -3.56851 0
M  V30 29963 H 2783.68 -3.90014 -2.46347 0
M  V30 29964 H 2781.92 -3.70423 -2.25763 0
M  V30 29965 H 2782.59 -3.93062 -3.87565 0
M  V30 29966 H 2785.07 -2.01836 -3.6387 0
M  V30 29967 H 2783.94 -2.26543 -4.9997 0
M  V30 29968 H 2784.2 -0.645097 -4.37368 0
M  V30 29969 N 2783.26 1.1418 -1.08631 0
M  V30 29970 C 2784.19 2.21462 -0.740042 0
M  V30 29971 C 2785.17 1.67804 0.278562 0
M  V30 29972 O 2786.36 1.93632 0.148427 0
M  V30 29973 C 2783.49 3.46972 -0.151013 0
M  V30 29974 C 2782.44 4.1367 -1.09822 0
M  V30 29975 C 2781.77 5.33409 -0.371294 0
M  V30 29976 C 2783.07 4.61945 -2.4373 0
M  V30 29977 H 2784.76 2.50683 -1.63701 0
M  V30 29978 H 2782.31 1.2049 -0.788547 0
M  V30 29979 H 2784.26 4.21273 0.103251 0
M  V30 29980 H 2782.99 3.17122 0.781108 0
M  V30 29981 H 2781.64 3.41326 -1.33762 0
M  V30 29982 H 2781.29 4.9982 0.564704 0
M  V30 29983 H 2780.99 5.7898 -1.00278 0
M  V30 29984 H 2782.52 6.10472 -0.125138 0
M  V30 29985 H 2783.93 5.2771 -2.24043 0
M  V30 29986 H 2782.33 5.18226 -3.02591 0
M  V30 29987 H 2783.4 3.76894 -3.05089 0
M  V30 29988 N 2784.74 0.872304 1.31258 0
M  V30 29989 C 2785.65 0.333295 2.3222 0
M  V30 29990 C 2786.67 -0.557984 1.64811 0
M  V30 29991 O 2787.84 -0.454141 1.96213 0
M  V30 29992 C 2784.91 -0.454419 3.43709 0
M  V30 29993 C 2783.97 0.465099 4.26773 0
M  V30 29994 C 2783.2 -0.285116 5.32938 0
M  V30 29995 O 2783.42 -1.5129 5.4997 0
M  V30 29996 O 2782.36 0.358232 6.00833 0
M  V30 29997 H 2786.18 1.17021 2.8025 0
M  V30 29998 H 2783.77 0.635748 1.35198 0
M  V30 29999 H 2785.65 -0.90089 4.11658 0
M  V30 30000 H 2784.33 -1.26784 2.97838 0
M  V30 30001 H 2783.23 0.960119 3.6157 0
M  V30 30002 H 2784.57 1.24418 4.76215 0
M  V30 30003 N 2786.22 -1.44374 0.631976 0
M  V30 30004 C 2787.63 -1.8541 0.219069 0
M  V30 30005 C 2787.98 -1.52881 -1.22971 0
M  V30 30006 O 2787.11 -0.9673 -1.93578 0
M  V30 30007 C 2787.7 -3.36538 0.390809 0
M  V30 30008 C 2786.26 -3.76386 0.0324013 0
M  V30 30009 C 2785.41 -2.6822 0.703791 0
M  V30 30010 H 2788.36 -1.34828 0.837079 0
M  V30 30011 H 2788.38 -3.78697 -0.36999 0
M  V30 30012 H 2787.89 -3.60183 1.44534 0
M  V30 30013 H 2785.99 -3.58357 -1.02036 0
M  V30 30014 H 2786.1 -4.77047 0.443052 0
M  V30 30015 H 2784.47 -2.5432 0.139018 0
M  V30 30016 H 2785.25 -2.94697 1.76093 0
M  V30 30017 N 2787.7 -0.372575 -1.53133 0
M  V30 30018 C 2789.11 0.105123 -1.86404 0
M  V30 30019 C 2789.46 1.47574 -1.29292 0
M  V30 30020 O 2788.58 2.07397 -0.617683 0
M  V30 30021 C 2789.18 0.197528 -3.38224 0
M  V30 30022 C 2787.74 0.619491 -3.71267 0
M  V30 30023 C 2786.88 -0.228968 -2.76353 0
M  V30 30024 H 2789.84 -0.591103 -1.47281 0
M  V30 30025 H 2789.86 1.01981 -3.66579 0
M  V30 30026 H 2789.37 -0.800166 -3.79762 0
M  V30 30027 H 2787.47 1.62516 -3.3529 0
M  V30 30028 H 2787.58 0.389248 -4.77516 0
M  V30 30029 H 2785.95 0.303226 -2.52889 0
M  V30 30030 H 2786.73 -1.22433 -3.20726 0
M  V30 30031 N 2789.17 1.5727 -0.101929 0
M  V30 30032 C 2790.1 2.1742 0.851506 0
M  V30 30033 C 2791.09 1.10944 1.2894 0
M  V30 30034 O 2792.27 1.3911 1.35507 0
M  V30 30035 C 2789.4 2.76 2.10811 0
M  V30 30036 C 2788.35 3.87909 1.8086 0
M  V30 30037 C 2787.68 4.33221 3.13406 0
M  V30 30038 C 2788.98 5.10795 1.09021 0
M  V30 30039 H 2790.67 2.97343 0.350329 0
M  V30 30040 H 2788.22 1.43028 0.167065 0
M  V30 30041 H 2790.17 3.16733 2.77953 0
M  V30 30042 H 2788.9 1.93342 2.63223 0
M  V30 30043 H 2787.56 3.47726 1.16113 0
M  V30 30044 H 2787.2 3.47444 3.63719 0
M  V30 30045 H 2786.9 5.08677 2.94146 0
M  V30 30046 H 2788.43 4.76593 3.81695 0
M  V30 30047 H 2789.84 5.48655 1.66286 0
M  V30 30048 H 2788.24 5.91723 0.999166 0
M  V30 30049 H 2789.31 4.84843 0.0740852 0
M  V30 30050 N 2790.65 -0.171793 1.56661 0
M  V30 30051 C 2791.58 -1.23727 1.92936 0
M  V30 30052 C 2792.6 -1.405 0.822409 0
M  V30 30053 O 2793.79 -1.40512 1.10085 0
M  V30 30054 C 2790.89 -2.60603 2.16655 0
M  V30 30055 C 2790.06 -2.65134 3.47883 0
M  V30 30056 C 2789.12 -3.8337 3.60435 0
M  V30 30057 O 2788.14 -3.69391 4.33058 0
M  V30 30058 N 2789.35 -4.99808 2.9525 0
M  V30 30059 H 2792.11 -0.929155 2.84933 0
M  V30 30060 H 2789.67 -0.361561 1.57811 0
M  V30 30061 H 2791.66 -3.38167 2.22318 0
M  V30 30062 H 2790.23 -2.83806 1.31045 0
M  V30 30063 H 2789.45 -1.73669 3.53882 0
M  V30 30064 H 2790.74 -2.65172 4.34236 0
M  V30 30065 H 2790.14 -5.14067 2.36119 0
M  V30 30066 H 2788.7 -5.75235 3.06509 0
M  V30 30067 N 2792.13 -1.51324 -0.44033 0
M  V30 30068 C 2793.38 -1.63078 -1.18695 0
M  V30 30069 C 2793.69 -0.351394 -1.92418 0
M  V30 30070 O 2794.9 -0.348268 -2.69257 0
M  V30 30071 C 2793.35 -2.87992 -2.15844 0
M  V30 30072 C 2792.96 -4.22924 -1.47782 0
M  V30 30073 C 2794.71 -3.09103 -2.90956 0
M  V30 30074 C 2792.61 -5.38991 -2.43397 0
M  V30 30075 H 2791.54 -0.607397 -0.44675 0
M  V30 30076 H 2794.19 -1.77788 -0.454282 0
M  V30 30077 H 2792.58 -2.6691 -2.92532 0
M  V30 30078 H 2793.75 -4.54377 -0.76672 0
M  V30 30079 H 2792.07 -4.07667 -0.848332 0
M  V30 30080 H 2794.66 -3.92991 -3.62577 0
M  V30 30081 H 2795.01 -2.2206 -3.5213 0
M  V30 30082 H 2795.54 -3.30511 -2.21375 0
M  V30 30083 H 2792.28 -6.28285 -1.86918 0
M  V30 30084 H 2791.8 -5.11918 -3.1257 0
M  V30 30085 H 2793.48 -5.70819 -3.0459 0
M  V30 30086 N 2793.61 0.695578 -1.41419 0
M  V30 30087 C 2794.56 1.80162 -1.39734 0
M  V30 30088 C 2795.54 1.58589 -0.271717 0
M  V30 30089 O 2796.73 1.69421 -0.512384 0
M  V30 30090 C 2793.86 3.18467 -1.28193 0
M  V30 30091 C 2792.95 3.45735 -2.45618 0
M  V30 30092 N 2793.34 3.43702 -3.71083 0
M  V30 30093 C 2791.64 3.76283 -2.3943 0
M  V30 30094 C 2792.34 3.69874 -4.48963 0
M  V30 30095 N 2791.32 3.89618 -3.79077 0
M  V30 30096 H 2795.12 1.76953 -2.34659 0
M  V30 30097 H 2792.63 0.895567 -1.35475 0
M  V30 30098 H 2794.63 3.97698 -1.25067 0
M  V30 30099 H 2793.29 3.22888 -0.342525 0
M  V30 30100 H 2794.3 3.24083 -4.03969 0
M  V30 30101 H 2790.98 3.88075 -1.53962 0
M  V30 30102 H 2792.37 3.74438 -5.57894 0
M  V30 30103 N 2795.09 1.27247 0.929833 0
M  V30 30104 C 2796.03 1.09788 2.03015 0
M  V30 30105 C 2797 -0.000427548 1.661 0
M  V30 30106 O 2798.19 0.161495 1.90115 0
M  V30 30107 C 2795.33 0.748875 3.36877 0
M  V30 30108 C 2794.44 1.9246 3.8676 0
M  V30 30109 C 2793.58 1.51767 5.09058 0
M  V30 30110 C 2792.62 2.66101 5.51232 0
M  V30 30111 N 2791.75 2.26011 6.64728 0
M  V30 30112 H 2796.59 2.03943 2.17282 0
M  V30 30113 H 2794.13 1.01526 1.06447 0
M  V30 30114 H 2796.09 0.527356 4.13854 0
M  V30 30115 H 2794.72 -0.155714 3.22424 0
M  V30 30116 H 2793.77 2.25872 3.06082 0
M  V30 30117 H 2795.08 2.78235 4.13989 0
M  V30 30118 H 2794.24 1.25726 5.9353 0
M  V30 30119 H 2792.98 0.630981 4.83601 0
M  V30 30120 H 2791.98 2.92857 4.65311 0
M  V30 30121 H 2793.21 3.55387 5.78686 0
M  V30 30122 H 2791.15 1.39791 6.40933 0
M  V30 30123 H 2791.07 3.05325 6.91601 0
M  V30 30124 H 2792.34 2.03212 7.52546 0
M  V30 30125 N 2796.57 -1.13603 1.09235 0
M  V30 30126 C 2797.98 -1.66388 0.846868 0
M  V30 30127 C 2798.33 -1.85979 -0.624998 0
M  V30 30128 O 2797.45 -1.57716 -1.48171 0
M  V30 30129 C 2798.05 -3.02247 1.53075 0
M  V30 30130 C 2796.61 -3.52032 1.3323 0
M  V30 30131 C 2795.75 -2.2732 1.5881 0
M  V30 30132 H 2798.7 -0.975519 1.25177 0
M  V30 30133 H 2798.73 -3.68119 0.962735 0
M  V30 30134 H 2798.24 -2.87957 2.60197 0
M  V30 30135 H 2796.34 -3.7153 0.282156 0
M  V30 30136 H 2796.45 -4.32276 2.06578 0
M  V30 30137 H 2794.82 -2.33814 1.01011 0
M  V30 30138 H 2795.6 -2.15597 2.67157 0
M  V30 30139 N 2798.04 -0.879253 -1.30793 0
M  V30 30140 C 2798.99 -0.331152 -2.30231 0
M  V30 30141 C 2799.99 0.558766 -1.59919 0
M  V30 30142 O 2801.19 0.443835 -1.74442 0
M  V30 30143 H 2797.57 -0.0884221 -0.746783 0
M  V30 30144 H 2799.54 -1.18358 -2.73923 0
M  V30 30145 C 2798.29 0.444341 -3.44849 0
M  V30 30146 H 2797.61 -0.231176 -3.99131 0
M  V30 30147 H 2799.05 0.793036 -4.16518 0
M  V30 30148 C 2797.51 1.63921 -2.94332 0
M  V30 30149 O 2798.04 2.73857 -2.9388 0
M  V30 30150 N 2796.24 1.47445 -2.50416 0
M  V30 30151 H 2795.79 0.580106 -2.50983 0
M  V30 30152 H 2795.75 2.2753 -2.16973 0
M  V30 30153 N 2799.52 1.44037 -0.639624 0
M  V30 30154 C 2800.47 2.30721 0.0602053 0
M  V30 30155 C 2801.44 1.43972 0.828326 0
M  V30 30156 O 2802.62 1.72863 0.807663 0
M  V30 30157 C 2799.76 3.2937 1.03002 0
M  V30 30158 C 2798.88 4.3122 0.259426 0
M  V30 30159 C 2798.01 5.16958 1.22182 0
M  V30 30160 C 2797.05 6.1051 0.440871 0
M  V30 30161 N 2796.19 6.88917 1.35416 0
M  V30 30162 H 2801.03 2.90022 -0.684918 0
M  V30 30163 H 2798.56 1.42887 -0.349534 0
M  V30 30164 H 2800.52 3.8506 1.60576 0
M  V30 30165 H 2799.15 2.7175 1.74217 0
M  V30 30166 H 2798.2 3.77935 -0.432383 0
M  V30 30167 H 2799.52 4.97582 -0.348435 0
M  V30 30168 H 2798.67 5.77206 1.86863 0
M  V30 30169 H 2797.41 4.5069 1.8636 0
M  V30 30170 H 2796.41 5.49362 -0.219376 0
M  V30 30171 H 2797.64 6.78816 -0.196311 0
M  V30 30172 H 2795.59 6.25311 1.98299 0
M  V30 30173 H 2795.5 7.5175 0.800525 0
M  V30 30174 H 2796.77 7.53683 1.98954 0
M  V30 30175 N 2801 0.380691 1.52933 0
M  V30 30176 C 2802.23 -0.204266 2.05588 0
M  V30 30177 C 2802.64 -1.41771 1.2529 0
M  V30 30178 O 2801.98 -1.8139 0.290426 0
M  V30 30179 C 2802.04 -0.647261 3.53625 0
M  V30 30180 C 2801.71 0.451545 4.54764 0
M  V30 30181 C 2802.7 1.30623 5.03223 0
M  V30 30182 C 2800.39 0.616112 4.98507 0
M  V30 30183 C 2802.38 2.31069 5.94042 0
M  V30 30184 C 2800.07 1.62392 5.89128 0
M  V30 30185 C 2801.07 2.46963 6.36788 0
M  V30 30186 O 2800.76 3.46022 7.2562 0
M  V30 30187 H 2800.49 -0.0365079 0.675013 0
M  V30 30188 H 2803.04 0.541862 1.98124 0
M  V30 30189 H 2801.27 -1.44523 3.58678 0
M  V30 30190 H 2802.96 -1.15691 3.89063 0
M  V30 30191 H 2803.73 1.19036 4.70165 0
M  V30 30192 H 2799.61 -0.0324177 4.60989 0
M  V30 30193 H 2803.15 2.97115 6.31164 0
M  V30 30194 H 2799.05 1.74021 6.216 0
M  V30 30195 H 2799.81 3.41929 7.43658 0
M  V30 30196 N 2802.48 -1.57214 0.110268 0
M  V30 30197 C 2803.42 -2.14848 -0.843157 0
M  V30 30198 C 2804.39 -1.07109 -1.26952 0
M  V30 30199 O 2805.58 -1.34973 -1.34859 0
M  V30 30200 C 2802.72 -2.74525 -2.09118 0
M  V30 30201 C 2801.83 -3.96544 -1.71397 0
M  V30 30202 C 2800.97 -4.44336 -2.911 0
M  V30 30203 C 2800.01 -5.58908 -2.49577 0
M  V30 30204 N 2799.14 -6.01483 -3.62164 0
M  V30 30205 H 2803.98 -2.95998 -0.344834 0
M  V30 30206 H 2801.52 -1.46243 -0.158524 0
M  V30 30207 H 2803.48 -3.07251 -2.82228 0
M  V30 30208 H 2802.11 -1.96078 -2.56424 0
M  V30 30209 H 2801.16 -3.70035 -0.881945 0
M  V30 30210 H 2802.47 -4.79653 -1.36876 0
M  V30 30211 H 2801.63 -4.78925 -3.72445 0
M  V30 30212 H 2800.37 -3.60159 -3.28841 0
M  V30 30213 H 2799.37 -5.23931 -1.66661 0
M  V30 30214 H 2800.6 -6.44844 -2.12962 0
M  V30 30215 H 2798.54 -5.20249 -3.99596 0
M  V30 30216 H 2798.46 -6.79425 -3.31538 0
M  V30 30217 H 2799.73 -6.40707 -4.43975 0
M  V30 30218 N 2803.96 0.163482 -1.5675 0
M  V30 30219 C 2805.2 0.877179 -1.81627 0
M  V30 30220 C 2805.52 1.8307 -0.688823 0
M  V30 30221 O 2806.72 2.58734 -0.822743 0
M  V30 30222 C 2805.18 1.6104 -3.21861 0
M  V30 30223 C 2804.79 0.700118 -4.42496 0
M  V30 30224 C 2806.53 2.31185 -3.56025 0
M  V30 30225 C 2804.44 1.43402 -5.73751 0
M  V30 30226 H 2803.37 0.3313 -0.677316 0
M  V30 30227 H 2806.02 0.130028 -1.83039 0
M  V30 30228 H 2804.4 2.40258 -3.14789 0
M  V30 30229 H 2805.58 -0.0556659 -4.60766 0
M  V30 30230 H 2803.89 0.107916 -4.1626 0
M  V30 30231 H 2806.49 2.86702 -4.51338 0
M  V30 30232 H 2806.83 3.06897 -2.81283 0
M  V30 30233 H 2807.36 1.58902 -3.64685 0
M  V30 30234 H 2804.1 0.719072 -6.51544 0
M  V30 30235 H 2803.62 2.16293 -5.59444 0
M  V30 30236 H 2805.3 1.97939 -6.15978 0
M  V30 30237 N 2805.43 1.51555 0.432299 0
M  V30 30238 C 2806.68 1.64717 1.18306 0
M  V30 30239 C 2807.01 0.364729 1.90744 0
M  V30 30240 O 2806.29 -0.635904 1.83811 0
M  V30 30241 C 2806.57 2.85387 2.19605 0
M  V30 30242 C 2806.42 4.2362 1.51216 0
M  V30 30243 C 2807.74 3.01574 3.20532 0
M  V30 30244 H 2804.86 0.599459 0.42874 0
M  V30 30245 H 2807.5 1.84053 0.471656 0
M  V30 30246 H 2805.65 2.69032 2.80275 0
M  V30 30247 H 2807.33 4.51654 0.938437 0
M  V30 30248 H 2805.57 4.26086 0.814426 0
M  V30 30249 H 2806.24 5.04056 2.25015 0
M  V30 30250 H 2808.72 3.16674 2.6992 0
M  V30 30251 H 2807.59 3.87562 3.88699 0
M  V30 30252 H 2807.85 2.13865 3.86929 0
M  V30 30253 N 2806.91 -0.688069 1.41786 0
M  V30 30254 C 2808.14 -1.48172 1.4512 0
M  V30 30255 C 2808.56 -1.88004 0.0601621 0
M  V30 30256 O 2807.92 -1.55128 -0.938357 0
M  V30 30257 C 2807.97 -2.71579 2.37229 0
M  V30 30258 O 2807.07 -3.69351 1.8345 0
M  V30 30259 H 2806.41 -0.445667 0.492216 0
M  V30 30260 H 2808.94 -0.845112 1.8633 0
M  V30 30261 H 2808.95 -3.19802 2.53359 0
M  V30 30262 H 2807.63 -2.41926 3.38297 0
M  V30 30263 H 2806.2 -3.28319 1.76808 0
M  V30 30264 N 2808.39 -1.27739 -0.923072 0
M  V30 30265 C 2809.32 -1.05185 -2.02513 0
M  V30 30266 C 2810.3 0.0291919 -1.62574 0
M  V30 30267 O 2811.48 -0.116881 -1.88137 0
M  V30 30268 C 2808.61 -0.596527 -3.33406 0
M  V30 30269 C 2807.66 -1.67283 -3.92325 0
M  V30 30270 S 2808.49 -3.26649 -4.24336 0
M  V30 30271 C 2809.65 -2.82929 -5.58303 0
M  V30 30272 H 2809.88 -1.98492 -2.21333 0
M  V30 30273 H 2807.41 -1.11622 -1.06677 0
M  V30 30274 H 2809.37 -0.340512 -4.09085 0
M  V30 30275 H 2808.03 0.316559 -3.12501 0
M  V30 30276 H 2807.22 -1.30565 -4.86794 0
M  V30 30277 H 2806.83 -1.88115 -3.23247 0
M  V30 30278 H 2809.12 -2.2852 -6.37797 0
M  V30 30279 H 2810.06 -3.7616 -5.99924 0
M  V30 30280 H 2810.47 -2.21928 -5.19045 0
M  V30 30281 N 2809.87 1.13022 -1.09836 0
M  V30 30282 C 2811.15 1.80681 -0.749257 0
M  V30 30283 C 2811.53 1.96746 0.765137 0
M  V30 30284 O 2810.87 1.53889 1.6891 0
M  V30 30285 C 2811.08 3.15445 -1.49316 0
M  V30 30286 C 2812.43 3.90734 -1.66169 0
M  V30 30287 O 2813.46 3.25082 -1.45603 0
M  V30 30288 O 2812.31 5.08502 -2.0022 0
M  V30 30289 H 2809.41 0.781812 -0.269628 0
M  V30 30290 H 2811.95 1.19912 -1.2008 0
M  V30 30291 H 2810.73 2.99005 -2.52412 0
M  V30 30292 H 2810.35 3.83918 -1.03407 0
M  V30 30293 N 2811.35 0.886177 1.30325 0
M  V30 30294 C 2812.6 0.501278 1.95372 0
M  V30 30295 C 2812.91 -0.954604 1.70724 0
M  V30 30296 O 2814.11 -1.4464 2.29764 0
M  V30 30297 C 2812.57 0.845555 3.49826 0
M  V30 30298 C 2812.18 2.31929 3.83292 0
M  V30 30299 C 2813.92 0.529912 4.2118 0
M  V30 30300 C 2811.83 2.60513 5.3093 0
M  V30 30301 H 2810.76 0.183735 0.731271 0
M  V30 30302 H 2813.41 1.08132 1.48256 0
M  V30 30303 H 2811.79 0.194589 3.95522 0
M  V30 30304 H 2812.97 3.01467 3.48503 0
M  V30 30305 H 2811.28 2.60259 3.25045 0
M  V30 30306 H 2813.88 0.720494 5.29824 0
M  V30 30307 H 2814.22 -0.530756 4.12903 0
M  V30 30308 H 2814.75 1.13812 3.81171 0
M  V30 30309 H 2811.49 3.65325 5.44259 0
M  V30 30310 H 2811.01 1.95585 5.67015 0
M  V30 30311 H 2812.69 2.46077 5.98377 0
M  V30 30312 N 2812.82 -1.43695 0.647253 0
M  V30 30313 C 2814.24 -1.85168 0.238722 0
M  V30 30314 C 2814.59 -1.54177 -1.21342 0
M  V30 30315 O 2813.71 -0.987777 -1.92541 0
M  V30 30316 C 2814.31 -3.36105 0.426481 0
M  V30 30317 C 2812.87 -3.76331 0.0723202 0
M  V30 30318 C 2812.01 -2.67459 0.7322 0
M  V30 30319 H 2814.96 -1.33933 0.851333 0
M  V30 30320 H 2814.98 -3.79068 -0.329803 0
M  V30 30321 H 2814.5 -3.5863 1.48346 0
M  V30 30322 H 2812.6 -3.59419 -0.982292 0
M  V30 30323 H 2812.71 -4.7655 0.493625 0
M  V30 30324 H 2811.07 -2.54159 0.165984 0
M  V30 30325 H 2811.86 -2.92812 1.79209 0
M  V30 30326 N 2814.3 -0.388796 -1.52729 0
M  V30 30327 C 2815.55 0.194798 -2.00757 0
M  V30 30328 C 2815.86 1.47944 -1.27953 0
M  V30 30329 O 2817.07 2.14305 -1.6669 0
M  V30 30330 C 2815.53 0.397699 -3.57696 0
M  V30 30331 C 2815.13 -0.87366 -4.39399 0
M  V30 30332 C 2816.88 0.937686 -4.14014 0
M  V30 30333 C 2814.79 -0.639065 -5.87937 0
M  V30 30334 H 2813.72 0.0765713 -0.750102 0
M  V30 30335 H 2816.37 -0.511117 -1.76238 0
M  V30 30336 H 2814.75 1.16545 -3.78462 0
M  V30 30337 H 2815.92 -1.64599 -4.304 0
M  V30 30338 H 2814.24 -1.33856 -3.94299 0
M  V30 30339 H 2816.83 1.1289 -5.22647 0
M  V30 30340 H 2817.18 1.9066 -3.70074 0
M  V30 30341 H 2817.71 0.229518 -3.97137 0
M  V30 30342 H 2814.45 -1.57896 -6.36199 0
M  V30 30343 H 2813.97 0.0943376 -5.99726 0
M  V30 30344 H 2815.65 -0.273413 -6.46422 0
M  V30 30345 N 2815.78 1.57153 -0.118604 0
M  V30 30346 C 2817.02 1.97067 0.542583 0
M  V30 30347 C 2817.38 1.00049 1.63873 0
M  V30 30348 O 2818.59 1.28899 2.35878 0
M  V30 30349 C 2816.86 3.4126 1.0619 0
M  V30 30350 S 2818.42 4.03186 1.73167 0
M  V30 30351 H 2815.23 0.688778 0.176367 0
M  V30 30352 H 2817.84 1.94437 -0.20359 0
M  V30 30353 H 2816.54 4.0962 0.252944 0
M  V30 30354 H 2816.07 3.4754 1.84336 0
M  V30 30355 H 2818.09 3.93911 3.01742 0
M  V30 30356 N 2817.26 -0.155167 1.56834 0
M  V30 30357 C 2818.21 -1.1918 1.97648 0
M  V30 30358 C 2819.18 -1.43129 0.842813 0
M  V30 30359 O 2820.36 -1.556 1.10423 0
M  V30 30360 C 2817.5 -2.52228 2.35531 0
M  V30 30361 C 2816.61 -2.35522 3.62151 0
M  V30 30362 C 2815.75 -3.61548 3.89174 0
M  V30 30363 C 2814.79 -3.39844 5.0909 0
M  V30 30364 N 2813.92 -4.5798 5.32164 0
M  V30 30365 H 2818.76 -0.836751 2.86011 0
M  V30 30366 H 2816.3 -0.401733 1.41508 0
M  V30 30367 H 2818.26 -3.29794 2.55522 0
M  V30 30368 H 2816.89 -2.85696 1.50258 0
M  V30 30369 H 2815.94 -1.49051 3.49983 0
M  V30 30370 H 2817.25 -2.1544 4.49875 0
M  V30 30371 H 2816.41 -4.47546 4.09619 0
M  V30 30372 H 2815.15 -3.84626 2.99856 0
M  V30 30373 H 2814.15 -2.52235 4.88526 0
M  V30 30374 H 2815.38 -3.18173 5.99952 0
M  V30 30375 H 2813.32 -4.81247 4.458 0
M  V30 30376 H 2813.24 -4.40871 6.14141 0
M  V30 30377 H 2814.51 -5.45215 5.57101 0
M  V30 30378 N 2818.74 -1.51782 -0.424256 0
M  V30 30379 C 2819.98 -1.64771 -1.17025 0
M  V30 30380 C 2820.31 -0.372557 -1.91408 0
M  V30 30381 O 2819.58 0.612076 -1.86093 0
M  V30 30382 H 2818.16 -0.607289 -0.434981 0
M  V30 30383 H 2820.82 -1.88766 -0.485135 0
M  V30 30384 H 2819.91 -2.48163 -1.89266 0
M  V30 30385 N 2820.21 0.68054 -1.42149 0
M  V30 30386 C 2821.49 1.43612 -1.32797 0
M  V30 30387 C 2821.87 2.11067 0.0373779 0
M  V30 30388 O 2821.22 2.02815 1.05254 0
M  V30 30389 C 2821.43 2.44326 -2.4921 0
M  V30 30390 C 2822.78 3.09139 -2.91064 0
M  V30 30391 O 2823.8 2.54653 -2.49059 0
M  V30 30392 O 2822.66 4.07859 -3.63748 0
M  V30 30393 H 2819.75 0.640291 -0.523408 0
M  V30 30394 H 2822.3 0.709748 -1.54145 0
M  V30 30395 H 2821.07 1.93241 -3.40255 0
M  V30 30396 H 2820.7 3.24452 -2.29818 0
M  V30 30397 N 2821.69 1.28226 0.916285 0
M  V30 30398 C 2822.64 1.11935 2.01839 0
M  V30 30399 C 2823.61 0.0171896 1.66091 0
M  V30 30400 O 2824.79 0.181651 1.89933 0
M  V30 30401 C 2821.93 0.784563 3.36063 0
M  V30 30402 C 2821.05 1.96551 3.84697 0
M  V30 30403 C 2820.18 1.57157 5.0742 0
M  V30 30404 C 2819.22 2.71932 5.48379 0
M  V30 30405 N 2818.36 2.33048 6.62294 0
M  V30 30406 H 2823.2 2.06236 2.15106 0
M  V30 30407 H 2820.74 1.02649 1.05364 0
M  V30 30408 H 2822.69 0.571221 4.13271 0
M  V30 30409 H 2821.32 -0.121508 3.22571 0
M  V30 30410 H 2820.38 2.29106 3.03669 0
M  V30 30411 H 2821.69 2.8261 4.11015 0
M  V30 30412 H 2820.84 1.32015 5.92163 0
M  V30 30413 H 2819.58 0.682238 4.82905 0
M  V30 30414 H 2818.59 2.97776 4.62179 0
M  V30 30415 H 2819.81 3.61504 5.74884 0
M  V30 30416 H 2817.76 1.46581 6.39414 0
M  V30 30417 H 2817.67 3.12643 6.88324 0
M  V30 30418 H 2818.94 2.11183 7.50348 0
M  V30 30419 N 2823.17 -1.12438 1.10433 0
M  V30 30420 C 2824.1 -2.17294 0.697025 0
M  V30 30421 C 2825.08 -1.59778 -0.301645 0
M  V30 30422 O 2826.27 -1.8743 -0.20055 0
M  V30 30423 C 2823.39 -3.38688 0.028469 0
M  V30 30424 C 2822.44 -4.14836 0.990609 0
M  V30 30425 S 2823.27 -4.73142 2.50793 0
M  V30 30426 C 2824.43 -5.9787 1.85209 0
M  V30 30427 H 2824.66 -2.51508 1.58527 0
M  V30 30428 H 2822.19 -1.23898 0.921333 0
M  V30 30429 H 2824.15 -4.08997 -0.350937 0
M  V30 30430 H 2822.81 -3.02754 -0.836576 0
M  V30 30431 H 2822.01 -5.01803 0.470079 0
M  V30 30432 H 2821.61 -3.50235 1.31192 0
M  V30 30433 H 2823.9 -6.67104 1.18229 0
M  V30 30434 H 2824.84 -6.54549 2.70132 0
M  V30 30435 H 2825.25 -5.48931 1.31662 0
M  V30 30436 N 2824.65 -0.893076 -1.29853 0
M  V30 30437 C 2825.9 -0.515619 -1.95825 0
M  V30 30438 C 2826.22 0.936812 -1.70453 0
M  V30 30439 O 2825.48 1.67828 -1.0066 0
M  V30 30440 C 2825.78 -0.74665 -3.49514 0
M  V30 30441 C 2825.44 -2.17542 -3.94951 0
M  V30 30442 C 2824.11 -2.5661 -4.07069 0
M  V30 30443 C 2826.46 -3.10615 -4.18531 0
M  V30 30444 C 2823.79 -3.87946 -4.40131 0
M  V30 30445 C 2826.14 -4.41492 -4.53065 0
M  V30 30446 C 2824.8 -4.80442 -4.63391 0
M  V30 30447 H 2824.07 -0.188678 -0.716576 0
M  V30 30448 H 2826.72 -1.13047 -1.54572 0
M  V30 30449 H 2825.02 -0.048824 -3.9177 0
M  V30 30450 H 2826.72 -0.43408 -3.98644 0
M  V30 30451 H 2823.31 -1.86218 -3.86032 0
M  V30 30452 H 2827.5 -2.81648 -4.08642 0
M  V30 30453 H 2822.75 -4.17854 -4.46327 0
M  V30 30454 H 2826.93 -5.13642 -4.7026 0
M  V30 30455 H 2824.55 -5.82248 -4.88765 0
M  V30 30456 N 2826.13 1.4335 -0.654865 0
M  V30 30457 C 2827.37 2.0367 -0.172549 0
M  V30 30458 C 2827.73 1.50556 1.19151 0
M  V30 30459 O 2828.93 2.02531 1.76733 0
M  V30 30460 C 2827.2 3.56926 -0.184044 0
M  V30 30461 S 2828.76 4.38196 0.230185 0
M  V30 30462 H 2825.58 0.707267 -0.0727628 0
M  V30 30463 H 2828.18 1.75393 -0.863568 0
M  V30 30464 H 2826.89 3.93085 -1.17952 0
M  V30 30465 H 2826.42 3.89848 0.527459 0
M  V30 30466 H 2828.43 4.73967 1.46866 0
M  V30 30467 N 2827.61 0.39689 1.52521 0
M  V30 30468 C 2828.85 -0.183133 2.01971 0
M  V30 30469 C 2829.18 -1.45825 1.28253 0
M  V30 30470 O 2828.46 -1.90647 0.385212 0
M  V30 30471 C 2828.74 -0.443328 3.57361 0
M  V30 30472 C 2828.6 0.847608 4.41742 0
M  V30 30473 C 2829.91 -1.23072 4.22541 0
M  V30 30474 H 2827.03 -0.0650847 0.734121 0
M  V30 30475 H 2829.68 0.52795 1.82518 0
M  V30 30476 H 2827.83 -1.04907 3.74068 0
M  V30 30477 H 2829.5 1.48422 4.36771 0
M  V30 30478 H 2827.74 1.46128 4.08447 0
M  V30 30479 H 2828.41 0.620099 5.48506 0
M  V30 30480 H 2830.89 -0.718012 4.09858 0
M  V30 30481 H 2829.76 -1.38152 5.3123 0
M  V30 30482 H 2830.02 -2.24802 3.80679 0
M  V30 30483 N 2829.08 -1.57088 0.126936 0
M  V30 30484 C 2830.36 -1.87015 -0.57312 0
M  V30 30485 C 2830.74 -1.02949 -1.84295 0
M  V30 30486 O 2830.09 -0.110613 -2.28232 0
M  V30 30487 C 2830.3 -3.38291 -0.857924 0
M  V30 30488 C 2831.65 -4.07068 -1.20752 0
M  V30 30489 O 2832.67 -3.43355 -0.947932 0
M  V30 30490 O 2831.53 -5.19548 -1.69507 0
M  V30 30491 H 2828.62 -0.774461 -0.290068 0
M  V30 30492 H 2831.17 -1.68925 0.162038 0
M  V30 30493 H 2829.94 -3.91278 0.0415974 0
M  V30 30494 H 2829.56 -3.6184 -1.64796 0
M  V30 30495 N 2830.56 0.146848 -1.56914 0
M  V30 30496 C 2831.81 0.857866 -1.82547 0
M  V30 30497 C 2832.12 1.82329 -0.708201 0
M  V30 30498 O 2833.33 2.57847 -0.850139 0
M  V30 30499 C 2831.79 1.57617 -3.23551 0
M  V30 30500 C 2831.39 0.653146 -4.43213 0
M  V30 30501 C 2833.14 2.27396 -3.58457 0
M  V30 30502 C 2831.04 1.37308 -5.75239 0
M  V30 30503 H 2829.97 0.324098 -0.680791 0
M  V30 30504 H 2832.63 0.110607 -1.83166 0
M  V30 30505 H 2831.01 2.36906 -3.17319 0
M  V30 30506 H 2832.18 -0.104533 -4.60681 0
M  V30 30507 H 2830.5 0.0637605 -4.16351 0
M  V30 30508 H 2833.09 2.81899 -4.54354 0
M  V30 30509 H 2833.44 3.03896 -2.84522 0
M  V30 30510 H 2833.97 1.55025 -3.6635 0
M  V30 30511 H 2830.71 0.649927 -6.5227 0
M  V30 30512 H 2830.23 2.10347 -5.61707 0
M  V30 30513 H 2831.91 1.91395 -6.18043 0
M  V30 30514 N 2832.04 1.52005 0.4162 0
M  V30 30515 C 2832.97 1.77797 1.51362 0
M  V30 30516 C 2833.95 0.628628 1.58058 0
M  V30 30517 O 2835.14 0.873509 1.73446 0
M  V30 30518 C 2832.27 1.92224 2.89253 0
M  V30 30519 C 2831.22 3.07785 2.9741 0
M  V30 30520 C 2830.55 3.07424 4.37486 0
M  V30 30521 C 2831.85 4.47374 2.69543 0
M  V30 30522 H 2833.54 2.69691 1.30028 0
M  V30 30523 H 2831.09 1.29773 0.624089 0
M  V30 30524 H 2833.04 2.08851 3.66004 0
M  V30 30525 H 2831.76 0.969972 3.11864 0
M  V30 30526 H 2830.42 2.90897 2.23102 0
M  V30 30527 H 2830.07 2.09933 4.57097 0
M  V30 30528 H 2829.77 3.85037 4.4387 0
M  V30 30529 H 2831.29 3.26171 5.16183 0
M  V30 30530 H 2832.71 4.64503 3.3602 0
M  V30 30531 H 2831.1 5.26851 2.87312 0
M  V30 30532 H 2832.17 4.55956 1.65021 0
M  V30 30533 N 2833.52 -0.672992 1.42508 0
M  V30 30534 C 2834.79 -1.42905 1.33557 0
M  V30 30535 C 2835.17 -2.11084 -0.026184 0
M  V30 30536 O 2834.52 -2.0337 -1.04177 0
M  V30 30537 C 2834.73 -2.43001 2.50502 0
M  V30 30538 C 2836.08 -3.07591 2.92699 0
M  V30 30539 O 2837.1 -2.53329 2.50406 0
M  V30 30540 O 2835.96 -4.05925 3.65906 0
M  V30 30541 H 2833.06 -0.637507 0.526796 0
M  V30 30542 H 2835.6 -0.701563 1.54519 0
M  V30 30543 H 2834.38 -1.91434 3.41275 0
M  V30 30544 H 2834 -3.23229 2.31536 0
M  V30 30545 N 2835 -1.2871 -0.909472 0
M  V30 30546 C 2835.96 -1.13019 -1.99397 0
M  V30 30547 C 2836.96 -0.0685643 -1.60654 0
M  V30 30548 O 2838.15 -0.314701 -1.71334 0
M  V30 30549 C 2835.28 -0.726144 -3.33077 0
M  V30 30550 H 2836.47 -2.09341 -2.14747 0
M  V30 30551 H 2834.03 -1.11758 -1.0927 0
M  V30 30552 H 2834.76 0.237653 -3.23428 0
M  V30 30553 H 2834.55 -1.49308 -3.6256 0
M  V30 30554 H 2836.04 -0.639131 -4.1268 0
M  V30 30555 N 2836.47 1.1185 -1.11028 0
M  V30 30556 C 2837.4 2.19843 -0.786851 0
M  V30 30557 C 2838.38 1.68357 0.242905 0
M  V30 30558 O 2839.57 1.93903 0.107321 0
M  V30 30559 C 2836.7 3.46573 -0.224577 0
M  V30 30560 C 2835.65 4.11248 -1.18572 0
M  V30 30561 C 2834.98 5.32502 -0.484355 0
M  V30 30562 C 2836.28 4.56671 -2.53473 0
M  V30 30563 H 2837.97 2.47155 -1.68982 0
M  V30 30564 H 2835.52 1.18791 -0.813927 0
M  V30 30565 H 2837.47 4.21398 0.0138694 0
M  V30 30566 H 2836.2 3.18707 0.713666 0
M  V30 30567 H 2834.86 3.38412 -1.40972 0
M  V30 30568 H 2834.5 5.00905 0.458558 0
M  V30 30569 H 2834.2 5.76723 -1.12536 0
M  V30 30570 H 2835.73 6.10069 -0.2546 0
M  V30 30571 H 2837.14 5.22839 -2.35186 0
M  V30 30572 H 2835.54 5.11691 -3.13516 0
M  V30 30573 H 2836.61 3.70338 -3.13014 0
M  V30 30574 N 2837.95 0.89995 1.29378 0
M  V30 30575 C 2839.18 0.541421 1.9969 0
M  V30 30576 C 2839.59 -0.873907 1.67357 0
M  V30 30577 O 2838.95 -1.57687 0.918756 0
M  V30 30578 C 2839 0.724442 3.54167 0
M  V30 30579 O 2838.72 2.08406 3.85355 0
M  V30 30580 C 2840.22 0.370896 4.41746 0
M  V30 30581 H 2837.44 0.207737 0.638033 0
M  V30 30582 H 2839.99 1.20937 1.64908 0
M  V30 30583 H 2838.14 0.103675 3.87261 0
M  V30 30584 H 2838.56 2.1136 4.80028 0
M  V30 30585 H 2840.03 0.54979 5.49255 0
M  V30 30586 H 2840.51 -0.692071 4.33713 0
M  V30 30587 H 2841.11 0.968615 4.14123 0
M  V30 30588 N 2839.43 -1.43001 0.662458 0
M  V30 30589 C 2840.38 -2.30788 -0.0234918 0
M  V30 30590 C 2841.35 -1.45272 -0.805317 0
M  V30 30591 O 2842.53 -1.74126 -0.78006 0
M  V30 30592 C 2839.67 -3.30967 -0.977487 0
M  V30 30593 C 2838.79 -4.31578 -0.19079 0
M  V30 30594 C 2837.92 -5.18836 -1.13942 0
M  V30 30595 C 2836.96 -6.11134 -0.343688 0
M  V30 30596 N 2836.1 -6.90984 -1.24438 0
M  V30 30597 H 2840.94 -2.88896 0.730972 0
M  V30 30598 H 2838.47 -1.42313 0.372222 0
M  V30 30599 H 2840.43 -3.87566 -1.5443 0
M  V30 30600 H 2839.06 -2.74487 -1.69872 0
M  V30 30601 H 2838.11 -3.77199 0.492455 0
M  V30 30602 H 2839.43 -4.96964 0.427552 0
M  V30 30603 H 2838.58 -5.80106 -1.77656 0
M  V30 30604 H 2837.32 -4.53598 -1.79166 0
M  V30 30605 H 2836.32 -5.48944 0.306747 0
M  V30 30606 H 2837.55 -6.78418 0.30428 0
M  V30 30607 H 2835.49 -6.28386 -1.88325 0
M  V30 30608 H 2835.41 -7.52928 -0.680827 0
M  V30 30609 H 2836.68 -7.56752 -1.86938 0
M  V30 30610 N 2840.91 -0.404973 -1.52308 0
M  V30 30611 C 2842.19 0.23051 -1.94237 0
M  V30 30612 C 2842.57 1.62988 -1.34157 0
M  V30 30613 O 2841.91 2.22603 -0.515752 0
M  V30 30614 C 2842.12 0.241045 -3.48167 0
M  V30 30615 C 2843.47 0.462414 -4.22075 0
M  V30 30616 O 2844.5 0.320581 -3.54754 0
M  V30 30617 O 2843.35 0.741613 -5.41445 0
M  V30 30618 H 2840.45 0.147343 -0.813768 0
M  V30 30619 H 2842.99 -0.460615 -1.63329 0
M  V30 30620 H 2841.77 -0.738535 -3.84267 0
M  V30 30621 H 2841.39 0.976443 -3.85424 0
M  V30 30622 N 2842.39 1.57018 -0.135265 0
M  V30 30623 C 2843.63 1.95743 0.51876 0
M  V30 30624 C 2843.96 1.01949 1.6564 0
M  V30 30625 O 2843.22 0.046436 1.95645 0
M  V30 30626 C 2843.52 3.4079 1.07688 0
M  V30 30627 C 2843.18 4.50862 0.0589128 0
M  V30 30628 C 2841.84 4.80692 -0.220957 0
M  V30 30629 C 2844.2 5.1733 -0.633947 0
M  V30 30630 C 2841.52 5.74303 -1.19969 0
M  V30 30631 C 2843.88 6.11994 -1.60142 0
M  V30 30632 C 2842.54 6.4021 -1.88911 0
M  V30 30633 H 2841.81 0.716273 0.189828 0
M  V30 30634 H 2844.46 1.90237 -0.219614 0
M  V30 30635 H 2842.76 3.4307 1.89235 0
M  V30 30636 H 2844.46 3.68074 1.59131 0
M  V30 30637 H 2841.05 4.27636 0.287229 0
M  V30 30638 H 2845.23 4.94426 -0.43091 0
M  V30 30639 H 2840.49 5.94462 -1.42916 0
M  V30 30640 H 2844.66 6.62579 -2.14388 0
M  V30 30641 H 2842.29 7.12552 -2.64904 0
M  V30 30642 N 2843.86 -0.138524 1.5699 0
M  V30 30643 C 2845.11 -0.849699 1.83811 0
M  V30 30644 C 2845.44 -1.80785 0.717441 0
M  V30 30645 O 2844.69 -1.93496 -0.292863 0
M  V30 30646 C 2844.99 -1.65043 3.1701 0
M  V30 30647 C 2844.66 -0.83832 4.43038 0
M  V30 30648 C 2843.32 -0.614301 4.77263 0
M  V30 30649 C 2845.67 -0.270952 5.20495 0
M  V30 30650 C 2843 0.187655 5.864 0
M  V30 30651 C 2845.35 0.51809 6.30475 0
M  V30 30652 C 2844.02 0.752607 6.63244 0
M  V30 30653 H 2843.29 -0.310927 0.672611 0
M  V30 30654 H 2845.93 -0.112938 1.91167 0
M  V30 30655 H 2844.24 -2.45754 3.05143 0
M  V30 30656 H 2845.94 -2.20431 3.34979 0
M  V30 30657 H 2842.53 -1.023 4.16212 0
M  V30 30658 H 2846.71 -0.431284 4.94423 0
M  V30 30659 H 2841.97 0.378766 6.10226 0
M  V30 30660 H 2846.14 0.964815 6.89684 0
M  V30 30661 H 2843.77 1.37587 7.47646 0
M  V30 30662 N 2845.34 -1.52224 -0.408133 0
M  V30 30663 C 2846.31 -1.75013 -1.47997 0
M  V30 30664 C 2847.31 -0.620023 -1.48366 0
M  V30 30665 O 2848.5 -0.887908 -1.49873 0
M  V30 30666 C 2845.63 -1.83341 -2.874 0
M  V30 30667 H 2846.82 -2.70699 -1.29082 0
M  V30 30668 H 2844.37 -1.42655 -0.63869 0
M  V30 30669 H 2845.11 -0.895732 -3.11684 0
M  V30 30670 H 2844.89 -2.65499 -2.88535 0
M  V30 30671 H 2846.38 -2.02711 -3.651 0
M  V30 30672 N 2846.82 0.665425 -1.42863 0
M  V30 30673 C 2848.24 0.979665 -1.25995 0
M  V30 30674 C 2848.44 2.00774 -0.170867 0
M  V30 30675 O 2847.49 2.48371 0.454784 0
M  V30 30676 C 2848.81 1.47555 -2.62008 0
M  V30 30677 C 2850.35 1.59283 -2.6944 0
M  V30 30678 C 2850.83 2.12265 -4.05842 0
M  V30 30679 N 2852.32 2.19585 -4.07844 0
M  V30 30680 C 2853.05 2.61675 -5.10209 0
M  V30 30681 N 2852.55 3.0315 -6.22954 0
M  V30 30682 N 2854.34 2.61507 -4.97565 0
M  V30 30683 H 2846.49 -0.0150867 -2.12395 0
M  V30 30684 H 2848.76 0.0558021 -0.946356 0
M  V30 30685 H 2848.46 0.794594 -3.42606 0
M  V30 30686 H 2848.34 2.4527 -2.86571 0
M  V30 30687 H 2850.72 2.26483 -1.89182 0
M  V30 30688 H 2850.81 0.60033 -2.48656 0
M  V30 30689 H 2850.45 1.45672 -4.86562 0
M  V30 30690 H 2850.38 3.12324 -4.23983 0
M  V30 30691 H 2852.87 1.90355 -3.26456 0
M  V30 30692 H 2853.18 3.3398 -6.96905 0
M  V30 30693 H 2851.53 3.00984 -6.26445 0
M  V30 30694 H 2854.72 2.28474 -4.08555 0
M  V30 30695 H 2854.89 2.93988 -5.77473 0
M  V30 30696 N 2848.3 1.29191 0.902633 0
M  V30 30697 C 2849.25 1.1407 2.00641 0
M  V30 30698 C 2850.22 0.0348048 1.66064 0
M  V30 30699 O 2851.4 0.201785 1.8973 0
M  V30 30700 C 2848.54 0.820163 3.35212 0
M  V30 30701 C 2847.65 2.0062 3.82591 0
M  V30 30702 C 2846.79 1.62531 5.05724 0
M  V30 30703 C 2845.83 2.77733 5.45464 0
M  V30 30704 N 2844.96 2.4006 6.59785 0
M  V30 30705 H 2849.8 2.08506 2.12907 0
M  V30 30706 H 2847.34 1.03761 1.04269 0
M  V30 30707 H 2849.3 0.615021 4.12642 0
M  V30 30708 H 2847.93 -0.0872885 3.22682 0
M  V30 30709 H 2846.98 2.32314 3.01222 0
M  V30 30710 H 2848.29 2.86953 4.07994 0
M  V30 30711 H 2847.45 1.38288 5.9073 0
M  V30 30712 H 2846.19 0.733418 4.82154 0
M  V30 30713 H 2845.19 3.02662 4.58995 0
M  V30 30714 H 2846.42 3.67582 5.71017 0
M  V30 30715 H 2844.36 1.53355 6.37823 0
M  V30 30716 H 2844.28 3.19926 6.84969 0
M  V30 30717 H 2845.55 2.19129 7.48066 0
M  V30 30718 N 2849.78 -1.1126 1.1162 0
M  V30 30719 C 2851.02 -1.82677 0.864501 0
M  V30 30720 C 2851.35 -1.85163 -0.611531 0
M  V30 30721 O 2850.62 -1.32354 -1.44427 0
M  V30 30722 H 2849.2 -0.676481 0.316833 0
M  V30 30723 H 2851.86 -1.34664 1.40896 0
M  V30 30724 H 2850.95 -2.8648 1.23837 0
M  V30 30725 N 2851.25 -0.906798 -1.28899 0
M  V30 30726 C 2852.2 -0.379913 -2.29476 0
M  V30 30727 C 2853.2 0.524719 -1.61068 0
M  V30 30728 O 2854.4 0.406734 -1.75344 0
M  V30 30729 H 2850.78 -0.104243 -0.74474 0
M  V30 30730 H 2852.75 -1.24141 -2.71351 0
M  V30 30731 C 2851.5 0.371093 -3.45714 0
M  V30 30732 H 2850.82 -0.315786 -3.98551 0
M  V30 30733 H 2852.26 0.704508 -4.18106 0
M  V30 30734 C 2850.72 1.57641 -2.97743 0
M  V30 30735 O 2851.25 2.67562 -2.99623 0
M  V30 30736 N 2849.46 1.42101 -2.53487 0
M  V30 30737 H 2849 0.526739 -2.52157 0
M  V30 30738 H 2848.96 2.22877 -2.2175 0
M  V30 30739 N 2852.73 1.42648 -0.670032 0
M  V30 30740 C 2854.14 1.84764 -0.26815 0
M  V30 30741 C 2854.49 1.56088 1.18874 0
M  V30 30742 O 2853.62 1.01828 1.90945 0
M  V30 30743 C 2854.21 3.35384 -0.479899 0
M  V30 30744 C 2852.77 3.76168 -0.132182 0
M  V30 30745 C 2851.92 2.6626 -0.774658 0
M  V30 30746 H 2854.87 1.32562 -0.872532 0
M  V30 30747 H 2854.89 3.79545 0.269455 0
M  V30 30748 H 2854.4 3.56224 -1.54033 0
M  V30 30749 H 2852.51 3.60936 0.924987 0
M  V30 30750 H 2852.62 4.75705 -0.569377 0
M  V30 30751 H 2850.98 2.53862 -0.206398 0
M  V30 30752 H 2851.77 2.89924 -1.83844 0
M  V30 30753 N 2854.21 0.413044 1.52091 0
M  V30 30754 C 2855.46 -0.162835 2.01042 0
M  V30 30755 C 2855.77 -1.45889 1.30291 0
M  V30 30756 O 2856.98 -2.11626 1.70078 0
M  V30 30757 C 2855.44 -0.340743 3.58283 0
M  V30 30758 C 2855.04 0.943454 4.37953 0
M  V30 30759 C 2856.79 -0.871701 4.15454 0
M  V30 30760 C 2854.69 0.73252 5.86846 0
M  V30 30761 H 2853.62 -0.0646281 0.751225 0
M  V30 30762 H 2856.28 0.53909 1.75403 0
M  V30 30763 H 2854.66 -1.10509 3.80268 0
M  V30 30764 H 2855.83 1.71425 4.27727 0
M  V30 30765 H 2854.15 1.40112 3.92119 0
M  V30 30766 H 2856.74 -1.04561 5.24377 0
M  V30 30767 H 2857.09 -1.84748 3.7306 0
M  V30 30768 H 2857.62 -0.166308 3.97452 0
M  V30 30769 H 2854.36 1.67997 6.33606 0
M  V30 30770 H 2853.88 0.00108549 5.998 0
M  V30 30771 H 2855.56 0.376219 6.45905 0
M  V30 30772 N 2855.69 -1.56945 0.143591 0
M  V30 30773 C 2856.6 -2.20154 -0.810524 0
M  V30 30774 C 2857.62 -1.18482 -1.27428 0
M  V30 30775 O 2858.79 -1.51046 -1.33218 0
M  V30 30776 C 2855.86 -2.80803 -2.03349 0
M  V30 30777 C 2854.92 -3.9759 -1.61929 0
M  V30 30778 C 2854.15 -4.55337 -2.78395 0
M  V30 30779 O 2854.37 -4.11965 -3.94514 0
M  V30 30780 O 2853.31 -5.45651 -2.54063 0
M  V30 30781 H 2857.13 -3.0219 -0.302477 0
M  V30 30782 H 2854.72 -1.49168 -0.0832663 0
M  V30 30783 H 2856.6 -3.19364 -2.74926 0
M  V30 30784 H 2855.28 -2.01782 -2.53112 0
M  V30 30785 H 2854.18 -3.63751 -0.87384 0
M  V30 30786 H 2855.52 -4.7812 -1.16884 0
M  V30 30787 N 2857.17 0.130197 -1.57061 0
M  V30 30788 C 2858.08 1.17931 -2.02804 0
M  V30 30789 C 2859.09 1.46011 -0.946404 0
M  V30 30790 O 2860.27 1.57349 -1.25711 0
M  V30 30791 C 2857.33 2.48878 -2.41372 0
M  V30 30792 C 2856.4 2.28295 -3.63565 0
M  V30 30793 C 2855.63 3.52998 -4.00285 0
M  V30 30794 O 2855.85 4.59858 -3.37471 0
M  V30 30795 O 2854.79 3.44664 -4.93447 0
M  V30 30796 H 2858.61 0.820906 -2.92395 0
M  V30 30797 H 2856.2 0.340171 -1.45476 0
M  V30 30798 H 2858.08 3.26049 -2.66964 0
M  V30 30799 H 2856.75 2.84215 -1.54931 0
M  V30 30800 H 2855.66 1.49019 -3.43139 0
M  V30 30801 H 2856.99 1.97867 -4.50677 0
M  V30 30802 N 2858.65 1.52438 0.400055 0
M  V30 30803 C 2859.87 1.70803 1.16765 0
M  V30 30804 C 2860.29 0.421494 1.84035 0
M  V30 30805 O 2859.65 -0.603198 1.72243 0
M  V30 30806 C 2859.7 2.84994 2.22398 0
M  V30 30807 O 2859.42 4.08666 1.57872 0
M  V30 30808 C 2860.92 3.14945 3.11969 0
M  V30 30809 H 2858.14 0.572167 0.350523 0
M  V30 30810 H 2860.68 1.99038 0.469499 0
M  V30 30811 H 2858.84 2.59252 2.87866 0
M  V30 30812 H 2859.25 4.72364 2.27974 0
M  V30 30813 H 2860.73 3.98337 3.82141 0
M  V30 30814 H 2861.2 2.2887 3.74854 0
M  V30 30815 H 2861.81 3.42485 2.52159 0
M  V30 30816 N 2860.12 -0.657839 1.43214 0
M  V30 30817 C 2861.37 -1.41988 1.448 0
M  V30 30818 C 2861.7 -1.94073 0.0702901 0
M  V30 30819 O 2860.98 -1.71997 -0.908147 0
M  V30 30820 C 2861.26 -2.60466 2.48655 0
M  V30 30821 C 2861.11 -2.13904 3.95683 0
M  V30 30822 C 2862.43 -3.62682 2.49299 0
M  V30 30823 H 2859.55 -0.51495 0.527253 0
M  V30 30824 H 2862.19 -0.746179 1.74735 0
M  V30 30825 H 2860.34 -3.17942 2.2326 0
M  V30 30826 H 2862.02 -1.61465 4.32119 0
M  V30 30827 H 2860.26 -1.45318 4.08736 0
M  V30 30828 H 2860.93 -2.99081 4.63955 0
M  V30 30829 H 2863.41 -3.14956 2.71922 0
M  V30 30830 H 2862.28 -4.43137 3.23915 0
M  V30 30831 H 2862.54 -4.14962 1.52509 0
M  V30 30832 N 2861.6 -1.29668 -0.895769 0
M  V30 30833 C 2862.51 -1.17028 -2.03327 0
M  V30 30834 C 2863.53 -0.0926267 -1.73753 0
M  V30 30835 O 2864.7 -0.305466 -1.9907 0
M  V30 30836 C 2861.77 -0.8519 -3.36071 0
M  V30 30837 C 2860.83 -2.0138 -3.79137 0
M  V30 30838 C 2860.06 -1.71052 -5.05546 0
M  V30 30839 O 2860.29 -0.633312 -5.66873 0
M  V30 30840 O 2859.22 -2.55969 -5.4476 0
M  V30 30841 H 2863.05 -2.1256 -2.16915 0
M  V30 30842 H 2860.63 -1.09158 -1.02005 0
M  V30 30843 H 2862.51 -0.689079 -4.15728 0
M  V30 30844 H 2861.19 0.0736065 -3.23616 0
M  V30 30845 H 2860.09 -2.23188 -3.0023 0
M  V30 30846 H 2861.43 -2.92065 -3.96181 0
M  V30 30847 N 2863.08 1.10667 -1.12208 0
M  V30 30848 C 2864.01 2.18996 -0.810124 0
M  V30 30849 C 2864.99 1.68605 0.225035 0
M  V30 30850 O 2866.18 1.94006 0.0867489 0
M  V30 30851 C 2863.31 3.46315 -0.261323 0
M  V30 30852 C 2862.26 4.09967 -1.22927 0
M  V30 30853 C 2861.59 5.31958 -0.540806 0
M  V30 30854 C 2862.89 4.53957 -2.58303 0
M  V30 30855 H 2864.58 2.45349 -1.71594 0
M  V30 30856 H 2862.13 1.17921 -0.826481 0
M  V30 30857 H 2864.08 4.21389 -0.0308262 0
M  V30 30858 H 2862.8 3.19446 0.679823 0
M  V30 30859 H 2861.46 3.36897 -1.44553 0
M  V30 30860 H 2861.11 5.01364 0.405404 0
M  V30 30861 H 2860.81 5.75497 -1.18647 0
M  V30 30862 H 2862.33 6.09765 -0.319291 0
M  V30 30863 H 2863.75 5.20315 -2.40718 0
M  V30 30864 H 2862.14 5.08337 -3.18925 0
M  V30 30865 H 2863.21 3.66997 -3.16925 0
M  V30 30866 N 2864.56 0.913621 1.28416 0
M  V30 30867 C 2865.81 0.545628 1.94595 0
M  V30 30868 C 2866.13 -0.913637 1.72272 0
M  V30 30869 O 2865.4 -1.64593 1.06236 0
M  V30 30870 H 2863.98 0.198796 0.720062 0
M  V30 30871 H 2866.64 1.16295 1.56402 0
M  V30 30872 H 2865.73 0.739965 3.03201 0
M  V30 30873 N 2866.04 -1.4229 0.677588 0
M  V30 30874 C 2866.95 -2.346 0.00100389 0
M  V30 30875 C 2867.96 -1.55245 -0.785806 0
M  V30 30876 O 2869.14 -1.87802 -0.72749 0
M  V30 30877 C 2866.2 -3.33807 -0.936688 0
M  V30 30878 C 2865.26 -4.29058 -0.144098 0
M  V30 30879 C 2864.5 -5.23526 -1.03713 0
M  V30 30880 O 2864.72 -5.22996 -2.27666 0
M  V30 30881 O 2863.65 -5.99849 -0.496437 0
M  V30 30882 H 2867.48 -2.93999 0.761448 0
M  V30 30883 H 2865.06 -1.4284 0.437835 0
M  V30 30884 H 2866.95 -3.94746 -1.4749 0
M  V30 30885 H 2865.62 -2.76876 -1.67693 0
M  V30 30886 H 2864.53 -3.71524 0.438289 0
M  V30 30887 H 2865.86 -4.89037 0.557096 0
M  V30 30888 N 2867.51 -0.421104 -1.5187 0
M  V30 30889 C 2868.76 0.150978 -2.02237 0
M  V30 30890 C 2869.09 1.43766 -1.30556 0
M  V30 30891 O 2868.37 1.9001 -0.415494 0
M  V30 30892 C 2868.65 0.386419 -3.58021 0
M  V30 30893 C 2868.5 -0.917777 -4.40337 0
M  V30 30894 C 2869.82 1.16334 -4.24446 0
M  V30 30895 H 2866.94 0.0533973 -0.735063 0
M  V30 30896 H 2869.58 -0.55692 -1.81655 0
M  V30 30897 H 2867.73 0.989428 -3.75689 0
M  V30 30898 H 2869.41 -1.55352 -4.34354 0
M  V30 30899 H 2867.65 -1.52607 -4.06071 0
M  V30 30900 H 2868.32 -0.707283 -5.4745 0
M  V30 30901 H 2870.8 0.652716 -4.10949 0
M  V30 30902 H 2869.67 1.29683 -5.3336 0
M  V30 30903 H 2869.93 2.18717 -3.84207 0
M  V30 30904 N 2868.99 1.56866 -0.151912 0
M  V30 30905 C 2869.92 2.14145 0.81697 0
M  V30 30906 C 2870.94 1.09212 1.20733 0
M  V30 30907 O 2872.13 1.36471 1.15056 0
M  V30 30908 C 2869.23 2.6533 2.1084 0
M  V30 30909 C 2868.4 3.94715 1.88464 0
M  V30 30910 C 2867.46 4.3116 3.01641 0
M  V30 30911 O 2866.48 4.99395 2.73118 0
M  V30 30912 N 2867.69 3.9114 4.2894 0
M  V30 30913 H 2870.45 2.97906 0.327395 0
M  V30 30914 H 2868.01 1.61869 0.0315028 0
M  V30 30915 H 2870 2.8672 2.85611 0
M  V30 30916 H 2868.57 1.86266 2.51045 0
M  V30 30917 H 2867.79 3.819 0.977021 0
M  V30 30918 H 2869.08 4.79255 1.70857 0
M  V30 30919 H 2868.48 3.36169 4.5498 0
M  V30 30920 H 2867.04 4.17572 5.00477 0
M  V30 30921 N 2870.47 -0.121866 1.57128 0
M  V30 30922 C 2871.43 -1.13368 1.99199 0
M  V30 30923 C 2872.43 -1.34469 0.881751 0
M  V30 30924 O 2873.62 -1.31034 1.14785 0
M  V30 30925 C 2870.76 -2.48876 2.32967 0
M  V30 30926 H 2871.95 -0.772153 2.89789 0
M  V30 30927 H 2869.5 -0.366066 1.51953 0
M  V30 30928 H 2870.24 -2.89955 1.45248 0
M  V30 30929 H 2870.02 -2.34915 3.13938 0
M  V30 30930 H 2871.51 -3.21702 2.66266 0
M  V30 30931 N 2871.95 -1.52648 -0.391965 0
M  V30 30932 C 2873.36 -1.41833 -0.731823 0
M  V30 30933 C 2873.56 -0.536395 -1.94229 0
M  V30 30934 O 2872.62 -0.0087101 -2.52498 0
M  V30 30935 C 2873.93 -2.84636 -0.969693 0
M  V30 30936 C 2875.48 -2.94094 -1.07135 0
M  V30 30937 C 2875.96 -4.37902 -1.34187 0
M  V30 30938 N 2877.45 -4.41213 -1.41015 0
M  V30 30939 C 2878.18 -5.49564 -1.63606 0
M  V30 30940 N 2877.68 -6.68005 -1.83687 0
M  V30 30941 N 2879.47 -5.37103 -1.65761 0
M  V30 30942 H 2871.62 -2.08511 0.404584 0
M  V30 30943 H 2873.89 -0.940526 0.118806 0
M  V30 30944 H 2873.59 -3.5137 -0.152403 0
M  V30 30945 H 2873.47 -3.26712 -1.88518 0
M  V30 30946 H 2875.85 -2.2753 -1.87921 0
M  V30 30947 H 2875.93 -2.5545 -0.133842 0
M  V30 30948 H 2875.58 -5.05031 -0.539118 0
M  V30 30949 H 2875.51 -4.74096 -2.29217 0
M  V30 30950 H 2878 -3.55843 -1.27216 0
M  V30 30951 H 2878.31 -7.46358 -2.00424 0
M  V30 30952 H 2876.66 -6.71039 -1.80918 0
M  V30 30953 H 2879.85 -4.43543 -1.49622 0
M  V30 30954 H 2880.02 -6.21615 -1.83027 0
M  V30 30955 N 2873.43 0.650235 -1.43561 0
M  V30 30956 C 2874.84 1.23148 -1.40326 0
M  V30 30957 C 2875.19 1.95898 -0.108847 0
M  V30 30958 O 2874.31 2.01402 0.791595 0
M  V30 30959 C 2874.91 2.23982 -2.54199 0
M  V30 30960 C 2873.47 2.77577 -2.5422 0
M  V30 30961 C 2872.61 1.52266 -2.31755 0
M  V30 30962 H 2875.57 0.442069 -1.52419 0
M  V30 30963 H 2875.59 3.06216 -2.25859 0
M  V30 30964 H 2875.1 1.71005 -3.48395 0
M  V30 30965 H 2873.2 3.34609 -1.63913 0
M  V30 30966 H 2873.31 3.24919 -3.52086 0
M  V30 30967 H 2871.68 1.7972 -1.80479 0
M  V30 30968 H 2872.46 1.01219 -3.28039 0
M  V30 30969 N 2874.9 1.30141 0.88888 0
M  V30 30970 C 2876.18 1.09402 1.62143 0
M  V30 30971 C 2876.56 -0.358055 2.08041 0
M  V30 30972 O 2875.91 -1.34885 1.84441 0
M  V30 30973 C 2876.12 2.09138 2.79396 0
M  V30 30974 C 2877.47 2.40644 3.49822 0
M  V30 30975 O 2878.49 2.07417 2.8958 0
M  V30 30976 O 2877.35 2.97464 4.58451 0
M  V30 30977 H 2874.44 0.419903 0.712468 0
M  V30 30978 H 2876.99 1.41553 0.935999 0
M  V30 30979 H 2875.76 3.06895 2.42757 0
M  V30 30980 H 2875.39 1.77782 3.55639 0
M  V30 30981 N 2876.38 -1.1007 1.12794 0
M  V30 30982 C 2877.29 -2.20084 0.812407 0
M  V30 30983 C 2878.31 -1.72843 -0.200319 0
M  V30 30984 O 2879.48 -2.01373 -0.0329908 0
M  V30 30985 C 2876.55 -3.45602 0.275746 0
M  V30 30986 C 2875.61 -4.07558 1.34888 0
M  V30 30987 C 2874.84 -5.27084 0.837731 0
M  V30 30988 O 2875.07 -5.69461 -0.327124 0
M  V30 30989 O 2874 -5.79994 1.60904 0
M  V30 30990 H 2877.83 -2.49514 1.73137 0
M  V30 30991 H 2875.41 -1.18879 0.904884 0
M  V30 30992 H 2877.29 -4.21396 -0.0184635 0
M  V30 30993 H 2875.97 -3.1779 -0.615727 0
M  V30 30994 H 2874.88 -3.33431 1.69631 0
M  V30 30995 H 2876.21 -4.39581 2.21425 0
M  V30 30996 N 2877.86 -0.920419 -1.2793 0
M  V30 30997 C 2878.82 -0.41862 -2.25345 0
M  V30 30998 C 2879.82 0.458771 -1.54117 0
M  V30 30999 O 2881.01 0.260881 -1.72235 0
M  V30 31000 C 2878.15 0.399044 -3.38556 0
M  V30 31001 H 2879.34 -1.27922 -2.71249 0
M  V30 31002 H 2876.89 -0.700431 -1.39727 0
M  V30 31003 H 2877.63 1.27877 -2.98023 0
M  V30 31004 H 2877.41 -0.229932 -3.91425 0
M  V30 31005 H 2878.9 0.740745 -4.10978 0
M  V30 31006 N 2879.34 1.41929 -0.685124 0
M  V30 31007 C 2880.59 2.00993 -0.211275 0
M  V30 31008 C 2880.91 1.54494 1.18982 0
M  V30 31009 O 2880.18 0.771032 1.80089 0
M  V30 31010 H 2878.76 0.743213 -0.075119 0
M  V30 31011 H 2881.42 1.73702 -0.883946 0
M  V30 31012 H 2880.52 3.1132 -0.220568 0
M  V30 31013 N 2880.82 0.429152 1.51644 0
M  V30 31014 C 2882.05 -0.138756 2.06134 0
M  V30 31015 C 2882.45 -1.37713 1.29737 0
M  V30 31016 O 2881.8 -1.80374 0.347987 0
M  V30 31017 C 2881.86 -0.534431 3.55505 0
M  V30 31018 C 2881.52 0.595996 4.53097 0
M  V30 31019 C 2882.52 1.46567 4.98813 0
M  V30 31020 C 2880.21 0.774397 4.96295 0
M  V30 31021 C 2882.2 2.49851 5.8639 0
M  V30 31022 C 2879.89 1.81052 5.83664 0
M  V30 31023 C 2880.88 2.67097 6.28608 0
M  V30 31024 O 2880.57 3.68932 7.14244 0
M  V30 31025 H 2880.3 -0.0150144 0.675833 0
M  V30 31026 H 2882.86 0.604619 1.963 0
M  V30 31027 H 2881.09 -1.33039 3.63094 0
M  V30 31028 H 2882.78 -1.03255 3.92547 0
M  V30 31029 H 2883.54 1.33933 4.6614 0
M  V30 31030 H 2879.42 0.114259 4.60858 0
M  V30 31031 H 2882.97 3.17045 6.21392 0
M  V30 31032 H 2878.86 1.93708 6.15749 0
M  V30 31033 H 2879.63 3.65415 7.32403 0
M  V30 31034 N 2882.29 -1.56783 0.160229 0
M  V30 31035 C 2883.2 -2.21001 -0.787128 0
M  V30 31036 C 2884.22 -1.19827 -1.26165 0
M  V30 31037 O 2885.4 -1.52451 -1.31608 0
M  V30 31038 C 2882.46 -2.82944 -2.00359 0
M  V30 31039 C 2881.52 -3.99285 -1.57703 0
M  V30 31040 C 2880.76 -4.58264 -2.7355 0
M  V30 31041 O 2880.98 -4.16126 -3.90122 0
M  V30 31042 O 2879.91 -5.48315 -2.48262 0
M  V30 31043 H 2883.74 -3.02494 -0.270409 0
M  V30 31044 H 2881.32 -1.49248 -0.0674404 0
M  V30 31045 H 2883.21 -3.22262 -2.71524 0
M  V30 31046 H 2881.88 -2.04455 -2.50958 0
M  V30 31047 H 2880.79 -3.64657 -0.83521 0
M  V30 31048 H 2882.12 -4.79333 -1.11806 0
M  V30 31049 N 2883.77 0.113531 -1.57191 0
M  V30 31050 C 2885.18 0.670085 -1.74261 0
M  V30 31051 C 2885.54 1.80041 -0.779725 0
M  V30 31052 O 2884.66 2.16351 0.0460973 0
M  V30 31053 C 2885.26 1.22231 -3.15983 0
M  V30 31054 C 2883.81 1.7251 -3.3454 0
M  V30 31055 C 2882.96 0.62705 -2.70117 0
M  V30 31056 H 2885.91 -0.112424 -1.58301 0
M  V30 31057 H 2885.93 2.09191 -3.17835 0
M  V30 31058 H 2885.45 0.399422 -3.86039 0
M  V30 31059 H 2883.55 2.57259 -2.69534 0
M  V30 31060 H 2883.66 1.83078 -4.4274 0
M  V30 31061 H 2882.02 1.062 -2.31503 0
M  V30 31062 H 2882.81 -0.18495 -3.42801 0
M  V30 31063 N 2885.25 1.52854 0.383864 0
M  V30 31064 C 2886.5 1.68397 1.13006 0
M  V30 31065 C 2886.83 0.425229 1.89487 0
M  V30 31066 O 2886.11 -0.577104 1.85741 0
M  V30 31067 C 2886.39 2.92229 2.10414 0
M  V30 31068 C 2886.24 4.28216 1.37662 0
M  V30 31069 C 2887.56 3.11619 3.10776 0
M  V30 31070 H 2884.68 0.612795 0.409452 0
M  V30 31071 H 2887.32 1.8546 0.412863 0
M  V30 31072 H 2885.47 2.77812 2.71574 0
M  V30 31073 H 2887.14 4.54411 0.794272 0
M  V30 31074 H 2885.39 4.28462 0.678458 0
M  V30 31075 H 2886.06 5.10959 2.08865 0
M  V30 31076 H 2888.53 3.25101 2.59709 0
M  V30 31077 H 2887.41 3.99732 3.76172 0
M  V30 31078 H 2887.67 2.26067 3.79929 0
M  V30 31079 N 2886.73 -0.642612 1.43904 0
M  V30 31080 C 2887.95 -1.43481 1.4976 0
M  V30 31081 C 2888.38 -1.87717 0.119944 0
M  V30 31082 O 2887.74 -1.58034 -0.88853 0
M  V30 31083 C 2887.79 -2.63894 2.45749 0
M  V30 31084 O 2886.89 -3.63327 1.95108 0
M  V30 31085 H 2886.23 -0.429782 0.506146 0
M  V30 31086 H 2888.76 -0.785404 1.88925 0
M  V30 31087 H 2888.77 -3.1158 2.63405 0
M  V30 31088 H 2887.45 -2.3104 3.45822 0
M  V30 31089 H 2886.02 -3.22528 1.87163 0
M  V30 31090 N 2888.21 -1.30611 -0.881966 0
M  V30 31091 C 2889.43 -1.22668 -1.67234 0
M  V30 31092 C 2889.86 0.206745 -1.8696 0
M  V30 31093 O 2889.22 1.14863 -1.40272 0
M  V30 31094 C 2889.26 -1.96369 -3.02443 0
M  V30 31095 O 2888.37 -1.29283 -3.91612 0
M  V30 31096 H 2887.71 -0.424126 -0.510894 0
M  V30 31097 H 2890.24 -1.72481 -1.10052 0
M  V30 31098 H 2890.25 -2.05506 -3.52465 0
M  V30 31099 H 2888.92 -3.00618 -2.87405 0
M  V30 31100 H 2887.5 -1.2852 -3.50053 0
M  V30 31101 N 2889.69 1.0947 -1.13376 0
M  V30 31102 C 2890.91 1.854 -0.918384 0
M  V30 31103 C 2891.33 1.81127 0.532778 0
M  V30 31104 O 2890.69 1.2071 1.36877 0
M  V30 31105 C 2890.74 3.33395 -1.39749 0
M  V30 31106 O 2890.46 3.37626 -2.79178 0
M  V30 31107 C 2891.96 4.26168 -1.22049 0
M  V30 31108 H 2889.18 0.585637 -0.327521 0
M  V30 31109 H 2891.72 1.38325 -1.5062 0
M  V30 31110 H 2889.88 3.779 -0.852686 0
M  V30 31111 H 2890.29 4.29929 -3.00435 0
M  V30 31112 H 2891.77 5.28167 -1.60447 0
M  V30 31113 H 2892.24 4.38901 -0.162124 0
M  V30 31114 H 2892.85 3.87478 -1.7533 0
M  V30 31115 N 2891.16 0.92719 1.2744 0
M  V30 31116 C 2892.09 0.443228 2.29255 0
M  V30 31117 C 2893.07 -0.496211 1.62701 0
M  V30 31118 O 2894.26 -0.401071 1.90013 0
M  V30 31119 C 2891.39 -0.305305 3.45955 0
M  V30 31120 C 2890.34 0.546252 4.245 0
M  V30 31121 C 2889.67 -0.331418 5.33672 0
M  V30 31122 C 2890.97 1.81046 4.89918 0
M  V30 31123 H 2892.66 1.29413 2.69986 0
M  V30 31124 H 2890.21 0.623727 1.29791 0
M  V30 31125 H 2892.16 -0.654812 4.16281 0
M  V30 31126 H 2890.89 -1.19023 3.0414 0
M  V30 31127 H 2889.55 0.87846 3.55919 0
M  V30 31128 H 2889.19 -1.21528 4.88098 0
M  V30 31129 H 2888.89 0.234849 5.8713 0
M  V30 31130 H 2890.42 -0.676508 6.06841 0
M  V30 31131 H 2891.83 1.52905 5.52533 0
M  V30 31132 H 2890.23 2.32019 5.53432 0
M  V30 31133 H 2891.3 2.53028 4.13648 0
M  V30 31134 N 2892.64 -1.41564 0.692641 0
M  V30 31135 C 2893.89 -2.02079 0.231444 0
M  V30 31136 C 2894.24 -1.53866 -1.15511 0
M  V30 31137 O 2893.54 -0.738761 -1.76785 0
M  V30 31138 C 2893.73 -3.5669 0.225136 0
M  V30 31139 C 2893.56 -4.19909 1.60955 0
M  V30 31140 C 2892.33 -4.54327 2.21168 0
M  V30 31141 C 2894.53 -4.46311 2.55561 0
M  V30 31142 N 2892.51 -5.02818 3.52204 0
M  V30 31143 C 2893.88 -4.96545 3.71272 0
M  V30 31144 C 2895.93 -4.28319 2.53865 0
M  V30 31145 C 2894.64 -5.30678 4.85565 0
M  V30 31146 C 2896.66 -4.63539 3.67267 0
M  V30 31147 C 2896.03 -5.13942 4.81708 0
M  V30 31148 H 2892.12 -0.771116 0.130014 0
M  V30 31149 H 2894.71 -1.72152 0.909489 0
M  V30 31150 H 2892.88 -3.86096 -0.422385 0
M  V30 31151 H 2894.61 -4.03923 -0.250614 0
M  V30 31152 H 2891.37 -4.40682 1.73482 0
M  V30 31153 H 2891.79 -5.31473 4.19364 0
M  V30 31154 H 2896.43 -3.88591 1.66605 0
M  V30 31155 H 2894.15 -5.69331 5.73487 0
M  V30 31156 H 2897.74 -4.5128 3.67203 0
M  V30 31157 H 2896.62 -5.40685 5.68005 0
M  V30 31158 N 2894.12 -0.437188 -1.51415 0
M  V30 31159 C 2895.54 -0.0894739 -1.59349 0
M  V30 31160 C 2895.74 1.40113 -1.44812 0
M  V30 31161 O 2894.79 2.17104 -1.28928 0
M  V30 31162 C 2896.1 -0.609449 -2.94459 0
M  V30 31163 C 2897.65 -0.569878 -3.07768 0
M  V30 31164 C 2898.13 -1.06683 -4.45402 0
M  V30 31165 N 2899.62 -1.02481 -4.51721 0
M  V30 31166 C 2900.35 -1.38019 -5.56541 0
M  V30 31167 N 2899.85 -1.80843 -6.68781 0
M  V30 31168 N 2901.64 -1.29837 -5.46899 0
M  V30 31169 H 2893.79 -1.40705 -1.59109 0
M  V30 31170 H 2896.06 -0.579804 -0.750021 0
M  V30 31171 H 2895.76 -1.65237 -3.10467 0
M  V30 31172 H 2895.64 -0.0342899 -3.77184 0
M  V30 31173 H 2898.02 0.464056 -2.91428 0
M  V30 31174 H 2898.1 -1.18144 -2.26883 0
M  V30 31175 H 2897.75 -2.09922 -4.62488 0
M  V30 31176 H 2897.68 -0.431805 -5.24827 0
M  V30 31177 H 2900.17 -0.710323 -3.71164 0
M  V30 31178 H 2900.48 -2.06198 -7.44783 0
M  V30 31179 H 2898.83 -1.84769 -6.69989 0
M  V30 31180 H 2902.02 -0.962478 -4.58098 0
M  V30 31181 H 2902.19 -1.57862 -6.28477 0
M  V30 31182 N 2895.6 1.56696 -0.168541 0
M  V30 31183 C 2896.53 2.15 0.794211 0
M  V30 31184 C 2897.54 1.10487 1.19568 0
M  V30 31185 O 2898.73 1.37684 1.13602 0
M  V30 31186 C 2895.83 2.67551 2.08014 0
M  V30 31187 C 2895 3.96692 1.84267 0
M  V30 31188 C 2894.06 4.34335 2.97051 0
M  V30 31189 O 2893.09 5.02263 2.67806 0
M  V30 31190 N 2894.29 3.95667 4.24768 0
M  V30 31191 H 2897.06 2.98237 0.29578 0
M  V30 31192 H 2894.62 1.61894 0.0143326 0
M  V30 31193 H 2896.61 2.89734 2.82554 0
M  V30 31194 H 2895.18 1.88918 2.49056 0
M  V30 31195 H 2894.4 3.82915 0.93646 0
M  V30 31196 H 2895.69 4.8104 1.65765 0
M  V30 31197 H 2895.09 3.40976 4.51389 0
M  V30 31198 H 2893.64 4.22857 4.9602 0
M  V30 31199 N 2897.08 -0.105193 1.57249 0
M  V30 31200 C 2898.49 -0.459127 1.52853 0
M  V30 31201 C 2898.69 -1.81088 0.883706 0
M  V30 31202 O 2897.75 -2.48051 0.471908 0
M  V30 31203 C 2899.06 -0.430908 2.97596 0
M  V30 31204 C 2900.61 -0.513482 3.08759 0
M  V30 31205 C 2901.08 -0.515514 4.5509 0
M  V30 31206 N 2902.57 -0.576558 4.59598 0
M  V30 31207 C 2903.31 -0.599804 5.70254 0
M  V30 31208 N 2902.81 -0.579863 6.90369 0
M  V30 31209 N 2904.6 -0.643855 5.584 0
M  V30 31210 H 2896.75 0.780341 1.97546 0
M  V30 31211 H 2899.01 0.289379 0.902753 0
M  V30 31212 H 2898.72 0.494964 3.482 0
M  V30 31213 H 2898.59 -1.25363 3.55758 0
M  V30 31214 H 2900.98 -1.42977 2.5815 0
M  V30 31215 H 2901.06 0.337192 2.53568 0
M  V30 31216 H 2900.7 0.39679 5.06348 0
M  V30 31217 H 2900.63 -1.38326 5.08108 0
M  V30 31218 H 2903.13 -0.597573 3.73145 0
M  V30 31219 H 2903.44 -0.600606 7.70463 0
M  V30 31220 H 2901.78 -0.54707 6.92844 0
M  V30 31221 H 2904.97 -0.656893 4.63468 0
M  V30 31222 H 2905.15 -0.658503 6.44645 0
M  V30 31223 N 2898.55 -1.53055 -0.375752 0
M  V30 31224 C 2899.46 -1.81717 -1.48378 0
M  V30 31225 C 2900.48 -0.704823 -1.59086 0
M  V30 31226 O 2901.66 -0.993816 -1.75172 0
M  V30 31227 C 2898.72 -1.99197 -2.83763 0
M  V30 31228 C 2897.78 -3.23107 -2.82667 0
M  V30 31229 C 2897.02 -3.39743 -4.11595 0
M  V30 31230 O 2897.24 -2.60894 -5.07238 0
M  V30 31231 O 2896.17 -4.33056 -4.18026 0
M  V30 31232 H 2900 -2.75832 -1.27084 0
M  V30 31233 H 2897.58 -1.38309 -0.564877 0
M  V30 31234 H 2899.47 -2.12325 -3.64 0
M  V30 31235 H 2898.14 -1.08272 -3.05056 0
M  V30 31236 H 2897.05 -3.15411 -2.01164 0
M  V30 31237 H 2898.38 -4.13921 -2.66328 0
M  V30 31238 N 2900.03 0.634971 -1.44242 0
M  V30 31239 C 2900.94 1.77588 -1.53296 0
M  V30 31240 C 2901.96 1.68883 -0.418861 0
M  V30 31241 O 2903.13 1.89728 -0.675652 0
M  V30 31242 C 2900.2 3.13956 -1.47081 0
M  V30 31243 C 2899.26 3.34321 -2.6931 0
M  V30 31244 C 2898.49 4.64183 -2.63382 0
M  V30 31245 O 2898.72 5.44736 -1.69171 0
M  V30 31246 O 2897.65 4.86666 -3.54174 0
M  V30 31247 H 2901.48 1.72904 -2.49676 0
M  V30 31248 H 2899.06 0.795723 -1.26446 0
M  V30 31249 H 2900.94 3.95254 -1.46124 0
M  V30 31250 H 2899.62 3.19191 -0.538429 0
M  V30 31251 H 2898.53 2.52716 -2.75836 0
M  V30 31252 H 2899.86 3.33945 -3.61582 0
M  V30 31253 N 2901.51 1.31076 0.875027 0
M  V30 31254 C 2902.74 1.23243 1.65815 0
M  V30 31255 C 2903.15 -0.205503 1.88081 0
M  V30 31256 O 2902.49 -1.14626 1.4355 0
M  V30 31257 C 2902.55 1.90098 3.05128 0
M  V30 31258 C 2902.22 3.39437 3.05993 0
M  V30 31259 C 2903.21 4.35268 2.84321 0
M  V30 31260 C 2900.9 3.81047 3.27274 0
M  V30 31261 C 2902.89 5.70683 2.83902 0
M  V30 31262 C 2900.58 5.16577 3.26484 0
M  V30 31263 C 2901.58 6.11205 3.04824 0
M  V30 31264 O 2901.27 7.44257 3.03869 0
M  V30 31265 H 2901 0.427252 0.523863 0
M  V30 31266 H 2903.55 1.73409 1.10083 0
M  V30 31267 H 2901.78 1.34474 3.62565 0
M  V30 31268 H 2903.47 1.76249 3.65638 0
M  V30 31269 H 2904.24 4.0445 2.67666 0
M  V30 31270 H 2900.12 3.07828 3.43166 0
M  V30 31271 H 2903.66 6.44517 2.66914 0
M  V30 31272 H 2899.56 5.47031 3.42677 0
M  V30 31273 H 2900.33 7.53369 3.19966 0
M  V30 31274 N 2902.99 -1.08867 1.13955 0
M  V30 31275 C 2904.23 -1.82768 0.91516 0
M  V30 31276 C 2904.59 -1.83995 -0.548614 0
M  V30 31277 O 2905.79 -2.53611 -0.890772 0
M  V30 31278 C 2904.06 -3.24682 1.49387 0
M  V30 31279 S 2905.62 -4.15516 1.41038 0
M  V30 31280 H 2902.44 -0.629921 0.329727 0
M  V30 31281 H 2905.04 -1.30892 1.45215 0
M  V30 31282 H 2903.75 -3.21368 2.55247 0
M  V30 31283 H 2903.28 -3.81631 0.955076 0
M  V30 31284 H 2905.29 -4.94644 0.392704 0
M  V30 31285 N 2904.47 -0.933936 -1.26946 0
M  V30 31286 C 2905.43 -0.442497 -2.24888 0
M  V30 31287 C 2906.43 0.442399 -1.54595 0
M  V30 31288 O 2907.62 0.242599 -1.72502 0
M  V30 31289 C 2904.75 0.363114 -3.38961 0
M  V30 31290 H 2905.94 -1.30792 -2.69877 0
M  V30 31291 H 2903.5 -0.715211 -1.38976 0
M  V30 31292 H 2904.23 1.24709 -2.99363 0
M  V30 31293 H 2904.02 -0.271435 -3.91159 0
M  V30 31294 H 2905.51 0.697114 -4.1174 0
M  V30 31295 N 2905.94 1.41194 -0.700139 0
M  V30 31296 C 2907.36 1.55201 -0.372142 0
M  V30 31297 C 2907.56 1.67472 1.1205 0
M  V30 31298 O 2906.62 1.65569 1.90639 0
M  V30 31299 C 2907.93 2.78876 -1.12467 0
M  V30 31300 C 2909.48 2.92677 -1.10946 0
M  V30 31301 C 2909.95 4.19245 -1.84383 0
M  V30 31302 N 2911.44 4.26213 -1.81375 0
M  V30 31303 C 2912.18 5.23017 -2.35033 0
M  V30 31304 N 2911.67 6.25824 -2.97181 0
M  V30 31305 N 2913.47 5.14988 -2.25263 0
M  V30 31306 H 2905.62 1.31474 -1.66818 0
M  V30 31307 H 2907.88 0.634632 -0.704235 0
M  V30 31308 H 2907.59 2.76033 -2.17942 0
M  V30 31309 H 2907.46 3.7053 -0.706217 0
M  V30 31310 H 2909.85 2.95033 -0.0629628 0
M  V30 31311 H 2909.93 2.02184 -1.56701 0
M  V30 31312 H 2909.57 4.17651 -2.89015 0
M  V30 31313 H 2909.5 5.08719 -1.36059 0
M  V30 31314 H 2911.99 3.52553 -1.36069 0
M  V30 31315 H 2912.31 6.96088 -3.3568 0
M  V30 31316 H 2910.65 6.26312 -3.0126 0
M  V30 31317 H 2913.84 4.33599 -1.76379 0
M  V30 31318 H 2914.02 5.90263 -2.67383 0
M  V30 31319 N 2907.42 0.445212 1.51181 0
M  V30 31320 C 2908.35 -0.352645 2.30822 0
M  V30 31321 C 2909.33 -1.01393 1.36578 0
M  V30 31322 O 2910.52 -1.01606 1.65499 0
M  V30 31323 C 2907.65 -1.4497 3.15596 0
M  V30 31324 C 2906.6 -0.911479 4.18182 0
M  V30 31325 C 2905.93 -2.10488 4.91527 0
M  V30 31326 C 2907.23 0.0595098 5.22266 0
M  V30 31327 H 2908.92 0.311988 2.9777 0
M  V30 31328 H 2906.47 0.151487 1.43201 0
M  V30 31329 H 2908.42 -2.01514 3.70095 0
M  V30 31330 H 2907.15 -2.14274 2.46484 0
M  V30 31331 H 2905.8 -0.3682 3.64746 0
M  V30 31332 H 2905.45 -2.78429 4.18911 0
M  V30 31333 H 2905.15 -1.7511 5.60901 0
M  V30 31334 H 2906.68 -2.67571 5.48852 0
M  V30 31335 H 2908.09 -0.415884 5.7179 0
M  V30 31336 H 2906.49 0.326258 5.99212 0
M  V30 31337 H 2907.56 0.993714 4.74609 0
M  V30 31338 N 2908.9 -1.56605 0.176849 0
M  V30 31339 C 2910.15 -1.96224 -0.466799 0
M  V30 31340 C 2910.46 -1.06579 -1.64013 0
M  V30 31341 O 2911.67 -1.35902 -2.35038 0
M  V30 31342 C 2910.12 -3.48929 -0.881859 0
M  V30 31343 C 2909.73 -4.47209 0.266181 0
M  V30 31344 C 2911.48 -3.97356 -1.49361 0
M  V30 31345 C 2909.38 -5.91159 -0.16882 0
M  V30 31346 H 2908.31 -0.732648 -0.178165 0
M  V30 31347 H 2910.96 -1.81562 0.265961 0
M  V30 31348 H 2909.35 -3.59029 -1.67076 0
M  V30 31349 H 2910.52 -4.48828 1.04357 0
M  V30 31350 H 2908.84 -4.08871 0.78825 0
M  V30 31351 H 2911.43 -5.02365 -1.83121 0
M  V30 31352 H 2911.78 -3.4061 -2.39354 0
M  V30 31353 H 2912.31 -3.90295 -0.769046 0
M  V30 31354 H 2909.05 -6.5179 0.696465 0
M  V30 31355 H 2908.57 -5.92834 -0.911448 0
M  V30 31356 H 2910.25 -6.4411 -0.610825 0
M  V30 31357 N 2910.38 0.0968524 -1.57302 0
M  V30 31358 C 2911.31 1.14381 -1.9862 0
M  V30 31359 C 2912.32 1.36416 -0.888507 0
M  V30 31360 O 2913.51 1.35099 -1.16664 0
M  V30 31361 C 2910.61 2.49969 -2.28842 0
M  V30 31362 C 2909.79 2.48234 -3.60137 0
M  V30 31363 C 2908.84 3.65737 -3.78316 0
M  V30 31364 O 2907.87 3.48308 -4.50189 0
M  V30 31365 N 2909.07 4.85152 -3.1876 0
M  V30 31366 H 2911.84 0.792151 -2.89042 0
M  V30 31367 H 2909.4 0.285855 -1.59356 0
M  V30 31368 H 2911.39 3.27175 -2.38199 0
M  V30 31369 H 2909.96 2.77231 -1.44436 0
M  V30 31370 H 2909.18 1.56587 -3.61765 0
M  V30 31371 H 2910.47 2.44152 -4.46394 0
M  V30 31372 H 2909.87 5.02216 -2.60377 0
M  V30 31373 H 2908.42 5.59956 -3.33605 0
M  V30 31374 N 2911.86 1.53252 0.36763 0
M  V30 31375 C 2912.8 1.80213 1.47058 0
M  V30 31376 C 2913.8 0.671139 1.55538 0
M  V30 31377 O 2915 0.854042 1.58449 0
M  V30 31378 H 2911.38 0.570564 0.489858 0
M  V30 31379 H 2913.35 2.72534 1.21522 0
M  V30 31380 C 2912.1 2.00711 2.8392 0
M  V30 31381 H 2911.42 2.87177 2.78153 0
M  V30 31382 H 2912.86 2.23553 3.60277 0
M  V30 31383 C 2911.32 0.785625 3.27612 0
M  V30 31384 O 2911.85 -0.0266753 4.01691 0
M  V30 31385 N 2910.06 0.609647 2.84133 0
M  V30 31386 H 2909.6 1.27182 2.24015 0
M  V30 31387 H 2909.56 -0.206226 3.13723 0
M  V30 31388 N 2913.34 -0.627313 1.44577 0
M  V30 31389 C 2914.3 -1.721 1.51375 0
M  V30 31390 C 2915.3 -1.55864 0.395357 0
M  V30 31391 O 2916.49 -1.6129 0.658122 0
M  V30 31392 C 2913.62 -3.11214 1.39135 0
M  V30 31393 H 2914.81 -1.67445 2.48801 0
M  V30 31394 H 2912.37 -0.841313 1.31726 0
M  V30 31395 H 2913.1 -3.21461 0.42817 0
M  V30 31396 H 2912.89 -3.24406 2.20235 0
M  V30 31397 H 2914.38 -3.90916 1.46881 0
M  V30 31398 N 2914.81 -1.31539 -0.868063 0
M  V30 31399 C 2916.06 -1.22523 -1.62357 0
M  V30 31400 C 2916.41 0.214135 -1.91205 0
M  V30 31401 O 2915.71 1.14811 -1.53392 0
M  V30 31402 C 2915.9 -2.00466 -2.95886 0
M  V30 31403 C 2915.73 -3.51835 -2.80076 0
M  V30 31404 C 2914.5 -4.21184 -2.79163 0
M  V30 31405 C 2916.7 -4.46747 -2.54797 0
M  V30 31406 N 2914.68 -5.58697 -2.54423 0
M  V30 31407 C 2916.05 -5.71941 -2.39339 0
M  V30 31408 C 2918.11 -4.36152 -2.40157 0
M  V30 31409 C 2916.81 -6.8774 -2.10728 0
M  V30 31410 C 2918.84 -5.51736 -2.12935 0
M  V30 31411 C 2918.2 -6.75921 -1.98267 0
M  V30 31412 H 2914.3 -0.503462 -0.598372 0
M  V30 31413 H 2916.88 -1.6575 -1.02153 0
M  V30 31414 H 2915.05 -1.59605 -3.54092 0
M  V30 31415 H 2916.78 -1.83453 -3.60731 0
M  V30 31416 H 2913.54 -3.73173 -2.91614 0
M  V30 31417 H 2913.96 -6.31106 -2.45018 0
M  V30 31418 H 2918.6 -3.40804 -2.50225 0
M  V30 31419 H 2916.32 -7.83113 -1.99398 0
M  V30 31420 H 2919.91 -5.45457 -2.02405 0
M  V30 31421 H 2918.79 -7.63848 -1.775 0
M  V30 31422 N 2916.29 1.08262 -1.1453 0
M  V30 31423 C 2917.71 1.32749 -0.886 0
M  V30 31424 C 2917.91 1.95892 0.472062 0
M  V30 31425 O 2916.96 2.2129 1.21602 0
M  V30 31426 C 2918.28 2.2276 -2.01986 0
M  V30 31427 C 2919.82 2.36236 -2.05333 0
M  V30 31428 C 2920.3 3.2959 -3.18016 0
M  V30 31429 N 2921.79 3.37168 -3.17604 0
M  V30 31430 C 2922.53 4.09437 -4.01434 0
M  V30 31431 N 2922.02 4.84401 -4.95306 0
M  V30 31432 N 2923.81 4.05283 -3.89489 0
M  V30 31433 H 2915.97 0.656572 -2.01997 0
M  V30 31434 H 2918.23 0.351869 -0.88028 0
M  V30 31435 H 2917.93 1.8361 -2.99967 0
M  V30 31436 H 2917.81 3.23231 -1.94426 0
M  V30 31437 H 2920.2 2.74644 -1.07957 0
M  V30 31438 H 2920.28 1.35502 -2.16963 0
M  V30 31439 H 2919.92 2.91903 -4.15638 0
M  V30 31440 H 2919.85 4.30256 -3.03623 0
M  V30 31441 H 2922.34 2.83726 -2.49615 0
M  V30 31442 H 2922.65 5.37012 -5.55732 0
M  V30 31443 H 2921 4.83449 -4.99302 0
M  V30 31444 H 2924.19 3.45826 -3.15471 0
M  V30 31445 H 2924.36 4.61342 -4.55047 0
M  V30 31446 N 2917.77 0.940655 1.26449 0
M  V30 31447 C 2918.72 0.448537 2.264 0
M  V30 31448 C 2919.69 -0.491518 1.58661 0
M  V30 31449 O 2920.87 -0.407841 1.8639 0
M  V30 31450 C 2918.01 -0.280654 3.43957 0
M  V30 31451 C 2917.12 0.695012 4.26373 0
M  V30 31452 C 2916.26 -0.0553253 5.31171 0
M  V30 31453 C 2915.3 0.912197 6.05265 0
M  V30 31454 N 2914.44 0.193647 7.01833 0
M  V30 31455 H 2919.28 1.30581 2.67867 0
M  V30 31456 H 2916.81 0.655136 1.31706 0
M  V30 31457 H 2918.77 -0.719868 4.10943 0
M  V30 31458 H 2917.4 -1.10207 3.03405 0
M  V30 31459 H 2916.45 1.25274 3.59181 0
M  V30 31460 H 2917.76 1.4339 4.77745 0
M  V30 31461 H 2916.92 -0.553845 6.04167 0
M  V30 31462 H 2915.66 -0.827099 4.80635 0
M  V30 31463 H 2914.66 1.42185 5.31097 0
M  V30 31464 H 2915.89 1.68397 6.5789 0
M  V30 31465 H 2913.83 -0.559644 6.53608 0
M  V30 31466 H 2913.75 0.871876 7.50956 0
M  V30 31467 H 2915.02 -0.283795 7.78983 0
M  V30 31468 N 2919.25 -1.40821 0.707617 0
M  V30 31469 C 2920.2 -2.27985 0.0265409 0
M  V30 31470 C 2921.18 -1.42839 -0.74066 0
M  V30 31471 O 2922.37 -1.66003 -0.614171 0
M  V30 31472 C 2919.5 -3.31284 -0.900324 0
M  V30 31473 C 2918.59 -4.23905 -0.128733 0
M  V30 31474 N 2918.98 -4.98018 0.883831 0
M  V30 31475 C 2917.28 -4.44525 -0.362461 0
M  V30 31476 C 2917.98 -5.65895 1.34676 0
M  V30 31477 N 2916.95 -5.3945 0.670401 0
M  V30 31478 H 2920.76 -2.82725 0.802717 0
M  V30 31479 H 2918.27 -1.53177 0.539502 0
M  V30 31480 H 2920.27 -3.92565 -1.4035 0
M  V30 31481 H 2918.93 -2.78103 -1.67596 0
M  V30 31482 H 2919.94 -5.02227 1.26444 0
M  V30 31483 H 2916.62 -4.02334 -1.11505 0
M  V30 31484 H 2918.01 -6.35288 2.18767 0
M  V30 31485 N 2920.73 -0.453223 -1.50943 0
M  V30 31486 C 2921.67 0.350157 -2.28128 0
M  V30 31487 C 2922.64 1.00297 -1.324 0
M  V30 31488 O 2923.83 1.01884 -1.61321 0
M  V30 31489 C 2920.97 1.43643 -3.13784 0
M  V30 31490 C 2920.08 0.80018 -4.24525 0
M  V30 31491 C 2919.22 1.86284 -4.97465 0
M  V30 31492 C 2918.25 1.20587 -6.00104 0
M  V30 31493 N 2917.39 2.21059 -6.66391 0
M  V30 31494 H 2922.23 -0.314392 -2.96337 0
M  V30 31495 H 2919.77 -0.166889 -1.4615 0
M  V30 31496 H 2921.73 2.0777 -3.61784 0
M  V30 31497 H 2920.36 2.07039 -2.47658 0
M  V30 31498 H 2919.41 0.0467982 -3.80371 0
M  V30 31499 H 2920.72 0.280689 -4.9801 0
M  V30 31500 H 2919.87 2.58035 -5.49093 0
M  V30 31501 H 2918.61 2.4161 -4.23646 0
M  V30 31502 H 2917.62 0.473903 -5.47754 0
M  V30 31503 H 2918.84 0.65974 -6.75888 0
M  V30 31504 H 2916.79 2.75435 -5.95375 0
M  V30 31505 H 2916.71 1.74046 -7.35693 0
M  V30 31506 H 2917.97 2.92245 -7.22643 0
M  V30 31507 N 2922.2 1.56509 -0.185151 0
M  V30 31508 C 2923.14 2.1583 0.771363 0
M  V30 31509 C 2924.15 1.11749 1.1839 0
M  V30 31510 O 2925.34 1.38881 1.12135 0
M  V30 31511 C 2922.44 2.69742 2.05164 0
M  V30 31512 C 2921.61 3.98624 1.80049 0
M  V30 31513 C 2920.67 4.37461 2.92428 0
M  V30 31514 O 2919.7 5.05075 2.62464 0
M  V30 31515 N 2920.9 4.0015 4.20547 0
M  V30 31516 H 2923.66 2.98534 0.264131 0
M  V30 31517 H 2921.22 1.619 -0.00283914 0
M  V30 31518 H 2923.22 2.92714 2.79465 0
M  V30 31519 H 2921.79 1.91549 2.47038 0
M  V30 31520 H 2921.01 3.83887 0.895795 0
M  V30 31521 H 2922.29 4.82771 1.60653 0
M  V30 31522 H 2921.69 3.45744 4.47747 0
M  V30 31523 H 2920.25 4.28094 4.91507 0
M  V30 31524 N 2923.68 -0.0885089 1.57351 0
M  V30 31525 C 2924.61 -1.13326 1.99223 0
M  V30 31526 C 2925.63 -1.35943 0.895729 0
M  V30 31527 O 2926.82 -1.34479 1.17379 0
M  V30 31528 C 2923.92 -2.48752 2.30165 0
M  V30 31529 C 2923.09 -2.46321 3.61448 0
M  V30 31530 C 2922.15 -3.63725 3.8025 0
M  V30 31531 O 2921.17 -3.45916 4.5203 0
M  V30 31532 N 2922.38 -4.83454 3.21329 0
M  V30 31533 H 2925.14 -0.776811 2.89458 0
M  V30 31534 H 2922.7 -0.2774 1.59506 0
M  V30 31535 H 2924.69 -3.25907 2.39931 0
M  V30 31536 H 2923.26 -2.76461 1.45904 0
M  V30 31537 H 2922.48 -1.54666 3.62591 0
M  V30 31538 H 2923.77 -2.41781 4.47682 0
M  V30 31539 H 2923.17 -5.00828 2.63036 0
M  V30 31540 H 2921.73 -5.58179 3.3657 0
M  V30 31541 N 2925.16 -1.53445 -0.359498 0
M  V30 31542 C 2926.58 -1.43353 -0.701574 0
M  V30 31543 C 2926.78 -0.577473 -1.93048 0
M  V30 31544 O 2925.83 -0.0622668 -2.52423 0
M  V30 31545 C 2927.14 -2.86628 -0.909099 0
M  V30 31546 C 2928.69 -2.963 -1.00873 0
M  V30 31547 C 2929.17 -4.40649 -1.24868 0
M  V30 31548 N 2930.66 -4.44105 -1.31624 0
M  V30 31549 C 2931.39 -5.52911 -1.51912 0
M  V30 31550 N 2930.89 -6.71751 -1.69477 0
M  V30 31551 N 2932.68 -5.40498 -1.54331 0
M  V30 31552 H 2924.83 -2.07606 0.448721 0
M  V30 31553 H 2927.1 -0.937794 0.138729 0
M  V30 31554 H 2926.8 -3.51614 -0.0778379 0
M  V30 31555 H 2926.68 -3.30638 -1.81545 0
M  V30 31556 H 2929.06 -2.31464 -1.83053 0
M  V30 31557 H 2929.14 -2.55676 -0.0796272 0
M  V30 31558 H 2928.79 -5.06061 -0.431872 0
M  V30 31559 H 2928.72 -4.78851 -2.19109 0
M  V30 31560 H 2931.21 -3.58462 -1.1964 0
M  V30 31561 H 2931.52 -7.50441 -1.84547 0
M  V30 31562 H 2929.87 -6.74726 -1.66643 0
M  V30 31563 H 2933.06 -4.46617 -1.4018 0
M  V30 31564 H 2933.23 -6.25357 -1.69801 0
M  V30 31565 N 2926.64 0.619637 -1.44908 0
M  V30 31566 C 2927.88 1.38099 -1.48514 0
M  V30 31567 C 2928.22 1.93818 -0.12172 0
M  V30 31568 O 2927.49 1.74344 0.862226 0
M  V30 31569 C 2927.77 2.53782 -2.55473 0
M  V30 31570 C 2927.63 2.03338 -4.01215 0
M  V30 31571 C 2928.95 3.55945 -2.58827 0
M  V30 31572 H 2926.07 0.50079 -0.540721 0
M  V30 31573 H 2928.71 0.699589 -1.76651 0
M  V30 31574 H 2926.86 3.11911 -2.31611 0
M  V30 31575 H 2928.53 1.49951 -4.36248 0
M  V30 31576 H 2926.77 1.3443 -4.12445 0
M  V30 31577 H 2927.44 2.86675 -4.71722 0
M  V30 31578 H 2929.92 3.07636 -2.80177 0
M  V30 31579 H 2928.8 4.34393 -3.3555 0
M  V30 31580 H 2929.06 4.10772 -1.63458 0
M  V30 31581 N 2928.12 1.31997 0.861075 0
M  V30 31582 C 2929.36 1.2195 1.6116 0
M  V30 31583 C 2929.69 -0.220317 1.93751 0
M  V30 31584 O 2928.96 -1.14338 1.59071 0
M  V30 31585 H 2927.54 0.448364 0.597477 0
M  V30 31586 H 2930.2 1.65438 1.03036 0
M  V30 31587 H 2929.29 1.79756 2.55135 0
M  V30 31588 N 2929.59 -1.07653 1.15103 0
M  V30 31589 C 2930.82 -1.83916 0.947763 0
M  V30 31590 C 2931.24 -1.81951 -0.503895 0
M  V30 31591 O 2930.59 -1.22873 -1.34939 0
M  V30 31592 C 2930.65 -3.3113 1.45035 0
M  V30 31593 O 2930.37 -3.33141 2.84514 0
M  V30 31594 C 2931.87 -4.24172 1.28814 0
M  V30 31595 H 2929.09 -0.580352 0.336797 0
M  V30 31596 H 2931.63 -1.35912 1.52801 0
M  V30 31597 H 2929.79 -3.76495 0.912698 0
M  V30 31598 H 2930.2 -4.25095 3.07237 0
M  V30 31599 H 2931.67 -5.25548 1.68829 0
M  V30 31600 H 2932.15 -4.38587 0.231928 0
M  V30 31601 H 2932.76 -3.8464 1.81472 0
M  V30 31602 N 2931.07 -0.947348 -1.25949 0
M  V30 31603 C 2932.35 -0.515857 -1.88675 0
M  V30 31604 C 2932.73 1.00671 -1.85549 0
M  V30 31605 O 2932.08 1.86938 -1.31402 0
M  V30 31606 C 2932.29 -1.08421 -3.31732 0
M  V30 31607 C 2933.64 -1.15662 -4.08543 0
M  V30 31608 O 2934.66 -1.03523 -3.40825 0
M  V30 31609 O 2933.52 -1.34617 -5.29661 0
M  V30 31610 H 2930.61 -0.169069 -0.809534 0
M  V30 31611 H 2933.16 -1.04031 -1.34073 0
M  V30 31612 H 2931.93 -2.12766 -3.284 0
M  V30 31613 H 2931.55 -0.542568 -3.93881 0
M  V30 31614 N 2932.55 1.40444 -0.715075 0
M  V30 31615 C 2933.5 2.32544 -0.0510382 0
M  V30 31616 C 2934.49 1.52012 0.747576 0
M  V30 31617 O 2935.7 1.67815 0.651001 0
M  V30 31618 H 2932.07 0.751996 0.00229792 0
M  V30 31619 H 2934.04 2.86199 -0.84454 0
M  V30 31620 C 2932.79 3.36972 0.857042 0
M  V30 31621 H 2932.12 3.99005 0.25193 0
M  V30 31622 H 2933.56 4.03911 1.28964 0
M  V30 31623 C 2932.02 2.72412 1.98226 0
M  V30 31624 O 2932.55 2.58703 3.07304 0
M  V30 31625 N 2930.75 2.30803 1.76573 0
M  V30 31626 H 2930.3 2.42154 0.878598 0
M  V30 31627 H 2930.26 1.87945 2.5204 0
M  V30 31628 N 2934.03 0.461222 1.507 0
M  V30 31629 C 2934.94 -0.34362 2.3207 0
M  V30 31630 C 2935.95 -1.00533 1.42018 0
M  V30 31631 O 2937.13 -0.995468 1.75078 0
M  V30 31632 C 2934.2 -1.41687 3.16426 0
M  V30 31633 C 2933.26 -0.772795 4.22287 0
M  V30 31634 C 2932.49 -1.7949 5.02612 0
M  V30 31635 O 2932.71 -3.02021 4.8388 0
M  V30 31636 O 2931.65 -1.37219 5.8605 0
M  V30 31637 H 2935.47 0.321321 3.01995 0
M  V30 31638 H 2933.06 0.223261 1.47722 0
M  V30 31639 H 2934.94 -2.03876 3.68799 0
M  V30 31640 H 2933.61 -2.06546 2.4924 0
M  V30 31641 H 2932.52 -0.112211 3.73932 0
M  V30 31642 H 2933.85 -0.167313 4.91916 0
M  V30 31643 N 2935.51 -1.56408 0.193449 0
M  V30 31644 C 2936.42 -2.22621 -0.740073 0
M  V30 31645 C 2937.43 -1.22476 -1.23594 0
M  V30 31646 O 2938.61 -1.55208 -1.28345 0
M  V30 31647 C 2935.67 -2.8713 -1.94312 0
M  V30 31648 C 2934.73 -4.0254 -1.49198 0
M  V30 31649 C 2933.97 -4.63964 -2.63768 0
M  V30 31650 O 2934.19 -4.24308 -3.81208 0
M  V30 31651 O 2933.12 -5.53458 -2.36575 0
M  V30 31652 H 2936.95 -3.02999 -0.206184 0
M  V30 31653 H 2934.54 -1.49357 -0.0357676 0
M  V30 31654 H 2936.42 -3.27949 -2.64627 0
M  V30 31655 H 2935.09 -2.09732 -2.46564 0
M  V30 31656 H 2934 -3.66347 -0.757673 0
M  V30 31657 H 2935.33 -4.81597 -1.01614 0
M  V30 31658 N 2936.98 0.0801629 -1.57396 0
M  V30 31659 C 2937.89 1.11419 -2.06453 0
M  V30 31660 C 2938.91 1.42926 -0.992377 0
M  V30 31661 O 2940.09 1.5327 -1.30653 0
M  V30 31662 C 2937.15 2.41073 -2.49168 0
M  V30 31663 C 2936.21 2.16613 -3.70644 0
M  V30 31664 C 2935.45 3.40085 -4.11313 0
M  V30 31665 O 2935.67 4.48889 -3.5193 0
M  V30 31666 O 2934.6 3.28791 -5.04163 0
M  V30 31667 H 2938.43 0.727467 -2.94859 0
M  V30 31668 H 2936.01 0.293717 -1.46484 0
M  V30 31669 H 2937.9 3.17391 -2.77202 0
M  V30 31670 H 2936.57 2.79142 -1.63895 0
M  V30 31671 H 2935.48 1.38027 -3.47706 0
M  V30 31672 H 2936.81 1.83429 -4.56743 0
M  V30 31673 N 2938.46 1.53634 0.351355 0
M  V30 31674 C 2939.41 1.81074 1.43112 0
M  V30 31675 C 2940.38 0.655939 1.526 0
M  V30 31676 O 2941.56 0.89958 1.68262 0
M  V30 31677 C 2938.7 2.01908 2.7987 0
M  V30 31678 C 2937.82 3.29623 2.79236 0
M  V30 31679 C 2936.95 3.40567 4.07661 0
M  V30 31680 C 2935.99 4.62261 4.01225 0
M  V30 31681 N 2935.13 4.7028 5.21326 0
M  V30 31682 H 2939.97 2.73203 1.19012 0
M  V30 31683 H 2937.51 1.35325 0.576667 0
M  V30 31684 H 2939.46 2.11975 3.59336 0
M  V30 31685 H 2938.09 1.13099 3.02338 0
M  V30 31686 H 2937.15 3.28436 1.91921 0
M  V30 31687 H 2938.46 4.19177 2.70356 0
M  V30 31688 H 2937.61 3.50024 4.95548 0
M  V30 31689 H 2936.35 2.49055 4.19313 0
M  V30 31690 H 2935.36 4.52889 3.11724 0
M  V30 31691 H 2936.58 5.55129 3.91164 0
M  V30 31692 H 2934.53 3.81675 5.33536 0
M  V30 31693 H 2934.44 5.53759 5.14672 0
M  V30 31694 H 2935.71 4.84038 6.11005 0
M  V30 31695 N 2939.94 -0.611943 1.45234 0
M  V30 31696 C 2941.35 -1.19384 1.43542 0
M  V30 31697 C 2941.7 -1.9554 0.160747 0
M  V30 31698 O 2940.83 -2.0343 -0.737919 0
M  V30 31699 C 2941.42 -2.17164 2.60049 0
M  V30 31700 C 2939.98 -2.70739 2.6149 0
M  V30 31701 C 2939.13 -1.46068 2.3571 0
M  V30 31702 H 2942.08 -0.401502 1.53537 0
M  V30 31703 H 2942.1 -3.0012 2.33898 0
M  V30 31704 H 2941.61 -1.61708 3.52806 0
M  V30 31705 H 2939.71 -3.30146 1.72727 0
M  V30 31706 H 2939.83 -3.15469 3.60577 0
M  V30 31707 H 2938.19 -1.74872 1.85181 0
M  V30 31708 H 2938.97 -0.924864 3.30607 0
M  V30 31709 N 2941.42 -1.32452 -0.854063 0
M  V30 31710 C 2942.33 -1.23437 -1.995 0
M  V30 31711 C 2943.34 -0.147858 -1.73371 0
M  V30 31712 O 2944.52 -0.368644 -1.97997 0
M  V30 31713 C 2941.59 -0.958387 -3.3319 0
M  V30 31714 C 2940.65 -2.1334 -3.72538 0
M  V30 31715 C 2939.88 -1.87049 -4.99848 0
M  V30 31716 O 2940.1 -0.813338 -5.64571 0
M  V30 31717 O 2939.04 -2.73171 -5.36341 0
M  V30 31718 H 2942.86 -2.19353 -2.10042 0
M  V30 31719 H 2940.45 -1.12348 -0.984804 0
M  V30 31720 H 2942.33 -0.820991 -4.13325 0
M  V30 31721 H 2941 -0.0293868 -3.23687 0
M  V30 31722 H 2939.91 -2.32627 -2.92977 0
M  V30 31723 H 2941.24 -3.04521 -3.86688 0
M  V30 31724 N 2942.9 1.07041 -1.15672 0
M  V30 31725 C 2944.12 1.8395 -0.957978 0
M  V30 31726 C 2944.55 1.81639 0.488775 0
M  V30 31727 O 2943.91 1.21164 1.34866 0
M  V30 31728 C 2943.95 3.28797 -1.4807 0
M  V30 31729 O 2943.06 4.06722 -0.681993 0
M  V30 31730 H 2942.4 0.569473 -0.341463 0
M  V30 31731 H 2944.93 1.35012 -1.5373 0
M  V30 31732 H 2944.94 3.79627 -1.4949 0
M  V30 31733 H 2943.61 3.29794 -2.53394 0
M  V30 31734 H 2942.19 3.65531 -0.737676 0
M  V30 31735 N 2944.38 0.954014 1.25445 0
M  V30 31736 C 2945.62 0.607261 1.92761 0
M  V30 31737 C 2945.94 -0.858368 1.75092 0
M  V30 31738 O 2945.21 -1.6113 1.11418 0
M  V30 31739 H 2943.79 0.221604 0.713373 0
M  V30 31740 H 2946.46 1.21212 1.52623 0
M  V30 31741 H 2945.55 0.836051 3.00694 0
M  V30 31742 N 2945.85 -1.40063 0.722513 0
M  V30 31743 C 2947.08 -2.05589 0.273483 0
M  V30 31744 C 2947.5 -1.54095 -1.07872 0
M  V30 31745 O 2946.86 -0.679282 -1.68094 0
M  V30 31746 C 2946.91 -3.5958 0.271087 0
M  V30 31747 O 2946.01 -4.05607 -0.745427 0
M  V30 31748 H 2945.35 -0.651767 0.126867 0
M  V30 31749 H 2947.88 -1.79332 0.984938 0
M  V30 31750 H 2947.89 -4.07849 0.111156 0
M  V30 31751 H 2946.57 -3.96423 1.25783 0
M  V30 31752 H 2945.15 -3.68782 -0.552655 0
M  V30 31753 N 2947.33 -0.469207 -1.50453 0
M  V30 31754 C 2948.75 -0.123254 -1.59123 0
M  V30 31755 C 2948.95 1.3701 -1.47751 0
M  V30 31756 O 2948 2.1432 -1.33504 0
M  V30 31757 C 2949.32 -0.671771 -2.931 0
M  V30 31758 C 2950.86 -0.635032 -3.0649 0
M  V30 31759 C 2951.34 -1.16106 -4.43039 0
M  V30 31760 N 2952.83 -1.12039 -4.49446 0
M  V30 31761 C 2953.57 -1.49794 -5.53488 0
M  V30 31762 N 2953.06 -1.94988 -6.64794 0
M  V30 31763 N 2954.85 -1.41408 -5.44022 0
M  V30 31764 H 2947.01 -1.44049 -1.56089 0
M  V30 31765 H 2949.27 -0.595582 -0.737554 0
M  V30 31766 H 2948.97 -1.71785 -3.06892 0
M  V30 31767 H 2948.85 -0.114289 -3.77027 0
M  V30 31768 H 2951.24 0.402135 -2.92347 0
M  V30 31769 H 2951.32 -1.2293 -2.24326 0
M  V30 31770 H 2950.96 -2.19685 -4.57931 0
M  V30 31771 H 2950.89 -0.543031 -5.23793 0
M  V30 31772 H 2953.38 -0.788893 -3.69574 0
M  V30 31773 H 2953.69 -2.21949 -7.40242 0
M  V30 31774 H 2952.04 -1.98939 -6.65919 0
M  V30 31775 H 2955.23 -1.05943 -4.55954 0
M  V30 31776 H 2955.4 -1.71158 -6.24987 0
M  V30 31777 N 2948.81 1.56303 -0.201741 0
M  V30 31778 C 2950.04 2.02152 0.440688 0
M  V30 31779 C 2950.45 1.08182 1.54733 0
M  V30 31780 O 2949.81 0.0878517 1.82288 0
M  V30 31781 C 2949.86 3.47656 0.990823 0
M  V30 31782 O 2949.58 4.38041 -0.0716707 0
M  V30 31783 C 2951.08 4.09055 1.70847 0
M  V30 31784 H 2948.3 0.661926 0.109975 0
M  V30 31785 H 2950.85 2.021 -0.312394 0
M  V30 31786 H 2949 3.48387 1.69426 0
M  V30 31787 H 2949.42 5.23405 0.3388 0
M  V30 31788 H 2950.89 5.12697 2.04563 0
M  V30 31789 H 2951.37 3.52899 2.61456 0
M  V30 31790 H 2951.97 4.12116 1.05072 0
M  V30 31791 N 2950.29 -0.0718147 1.57436 0
M  V30 31792 C 2951.7 -0.623647 1.75976 0
M  V30 31793 C 2952.05 -1.7791 0.827186 0
M  V30 31794 O 2951.17 -2.16397 0.0112805 0
M  V30 31795 C 2951.77 -1.1381 3.19112 0
M  V30 31796 C 2950.33 -1.6358 3.38996 0
M  V30 31797 C 2949.48 -0.555213 2.71685 0
M  V30 31798 H 2952.43 0.154356 1.57948 0
M  V30 31799 H 2952.45 -2.00691 3.2327 0
M  V30 31800 H 2951.96 -0.29693 3.86962 0
M  V30 31801 H 2950.06 -2.50022 2.7626 0
M  V30 31802 H 2950.17 -1.71276 4.47439 0
M  V30 31803 H 2948.54 -1.00025 2.34237 0
M  V30 31804 H 2949.32 0.275772 3.42191 0
M  V30 31805 N 2951.77 -1.53818 -0.343203 0
M  V30 31806 C 2952.68 -1.84824 -1.4449 0
M  V30 31807 C 2953.69 -0.738409 -1.57555 0
M  V30 31808 O 2954.87 -1.03075 -1.73025 0
M  V30 31809 C 2951.93 -2.05171 -2.79474 0
M  V30 31810 C 2950.99 -3.2903 -2.7575 0
M  V30 31811 C 2950.23 -3.48397 -4.04296 0
M  V30 31812 O 2950.45 -2.71595 -5.0159 0
M  V30 31813 O 2949.38 -4.41826 -4.08746 0
M  V30 31814 H 2953.21 -2.78466 -1.21204 0
M  V30 31815 H 2950.79 -1.39476 -0.535413 0
M  V30 31816 H 2952.68 -2.19998 -3.59415 0
M  V30 31817 H 2951.35 -1.14718 -3.0269 0
M  V30 31818 H 2950.26 -3.19607 -1.94429 0
M  V30 31819 H 2951.59 -4.19477 -2.57488 0
M  V30 31820 N 2953.24 0.604233 -1.45557 0
M  V30 31821 C 2954.21 1.6967 -1.54094 0
M  V30 31822 C 2955.21 1.55215 -0.420103 0
M  V30 31823 O 2956.4 1.60222 -0.683699 0
M  V30 31824 C 2953.53 3.08961 -1.44068 0
M  V30 31825 H 2954.72 1.63466 -2.51434 0
M  V30 31826 H 2952.27 0.82025 -1.33047 0
M  V30 31827 H 2953.01 3.20739 -0.479258 0
M  V30 31828 H 2952.79 3.20861 -2.25368 0
M  V30 31829 H 2954.28 3.8853 -1.53082 0
M  V30 31830 N 2954.72 1.32903 0.847027 0
M  V30 31831 C 2955.97 1.23652 1.59858 0
M  V30 31832 C 2956.29 -0.199754 1.93974 0
M  V30 31833 O 2955.56 -1.12645 1.60275 0
M  V30 31834 H 2954.14 0.454676 0.592688 0
M  V30 31835 H 2956.8 1.66521 1.01275 0
M  V30 31836 H 2955.9 1.82452 2.53214 0
M  V30 31837 N 2956.2 -1.06426 1.16238 0
M  V30 31838 C 2957.45 -1.78846 0.941202 0
M  V30 31839 C 2957.77 -1.8759 -0.532447 0
M  V30 31840 O 2957.04 -1.38361 -1.38683 0
M  V30 31841 H 2955.62 -0.662434 0.345239 0
M  V30 31842 H 2958.28 -1.28567 1.46481 0
M  V30 31843 H 2957.38 -2.8097 1.35876 0
M  V30 31844 N 2957.68 -0.960653 -1.24937 0
M  V30 31845 C 2959.09 -0.65856 -1.74699 0
M  V30 31846 C 2959.44 0.825927 -1.77969 0
M  V30 31847 O 2958.57 1.64632 -1.40447 0
M  V30 31848 C 2959.16 -1.18873 -3.17261 0
M  V30 31849 C 2957.72 -0.936678 -3.64559 0
M  V30 31850 C 2956.87 -1.32822 -2.43421 0
M  V30 31851 H 2959.82 -1.13678 -1.10739 0
M  V30 31852 H 2959.84 -0.551655 -3.7648 0
M  V30 31853 H 2959.35 -2.26917 -3.1485 0
M  V30 31854 H 2957.45 0.128542 -3.72378 0
M  V30 31855 H 2957.56 -1.57737 -4.52389 0
M  V30 31856 H 2955.93 -0.746591 -2.43512 0
M  V30 31857 H 2956.71 -2.418 -2.43696 0
M  V30 31858 N 2959.16 1.39677 -0.729931 0
M  V30 31859 C 2960.4 2.00219 -0.275112 0
M  V30 31860 C 2960.73 1.58201 1.14007 0
M  V30 31861 O 2960 0.827935 1.77544 0
M  V30 31862 H 2958.58 0.740447 -0.0987258 0
M  V30 31863 H 2961.24 1.70802 -0.93876 0
M  V30 31864 H 2960.33 3.1046 -0.3195 0
M  V30 31865 N 2960.63 0.47718 1.50202 0
M  V30 31866 C 2961.86 -0.0754622 2.07263 0
M  V30 31867 C 2962.28 -1.32206 1.33803 0
M  V30 31868 O 2961.64 -1.7711 0.387513 0
M  V30 31869 C 2961.69 -0.336285 3.59029 0
M  V30 31870 O 2960.79 -1.41563 3.87342 0
M  V30 31871 H 2960.14 0.0156737 0.663815 0
M  V30 31872 H 2962.67 0.66997 1.9332 0
M  V30 31873 H 2962.68 -0.574963 4.03928 0
M  V30 31874 H 2961.35 0.574623 4.11911 0
M  V30 31875 H 2959.93 -1.16379 3.54275 0
M  V30 31876 N 2962.11 -1.56194 0.210027 0
M  V30 31877 C 2963.06 -2.19775 -0.704815 0
M  V30 31878 C 2964.03 -1.14966 -1.19884 0
M  V30 31879 O 2965.21 -1.43276 -1.26002 0
M  V30 31880 C 2962.35 -2.87268 -1.91236 0
M  V30 31881 C 2961.47 -4.06641 -1.45831 0
M  V30 31882 C 2960.6 -4.61949 -2.62252 0
M  V30 31883 C 2959.64 -5.73649 -2.13527 0
M  V30 31884 N 2958.78 -6.23298 -3.23179 0
M  V30 31885 H 2963.62 -2.97592 -0.155892 0
M  V30 31886 H 2961.16 -1.46955 -0.0651977 0
M  V30 31887 H 2963.11 -3.24577 -2.62117 0
M  V30 31888 H 2961.74 -2.11989 -2.43435 0
M  V30 31889 H 2960.8 -3.74895 -0.644831 0
M  V30 31890 H 2962.11 -4.87386 -1.06094 0
M  V30 31891 H 2961.26 -5.01642 -3.41234 0
M  V30 31892 H 2960 -3.80343 -3.05271 0
M  V30 31893 H 2959.01 -5.3347 -1.33004 0
M  V30 31894 H 2960.23 -6.57082 -1.71521 0
M  V30 31895 H 2958.18 -5.44609 -3.65701 0
M  V30 31896 H 2958.09 -6.99134 -2.87658 0
M  V30 31897 H 2959.36 -6.67646 -4.0233 0
M  V30 31898 N 2963.59 0.0634645 -1.57472 0
M  V30 31899 C 2964.87 0.794507 -1.78737 0
M  V30 31900 C 2965.25 1.95367 -0.79968 0
M  V30 31901 O 2964.6 2.279 0.165481 0
M  V30 31902 C 2964.81 1.2597 -3.25473 0
M  V30 31903 C 2966.15 1.68969 -3.89531 0
M  V30 31904 O 2967.18 1.35515 -3.29415 0
M  V30 31905 O 2966.04 2.30935 -4.95309 0
M  V30 31906 H 2963.13 0.381363 -0.733819 0
M  V30 31907 H 2965.68 0.042896 -1.69646 0
M  V30 31908 H 2964.45 0.430652 -3.88923 0
M  V30 31909 H 2964.07 2.07237 -3.39321 0
M  V30 31910 N 2965.07 1.53998 0.33504 0
M  V30 31911 C 2966 1.78906 1.43267 0
M  V30 31912 C 2967.01 0.670624 1.48346 0
M  V30 31913 O 2968.2 0.947521 1.51276 0
M  V30 31914 C 2965.3 1.88149 2.81875 0
M  V30 31915 C 2964.48 3.18179 3.00135 0
M  V30 31916 C 2963.53 3.1827 4.19035 0
M  V30 31917 O 2962.56 3.91958 4.12744 0
M  V30 31918 N 2963.76 2.4124 5.28 0
M  V30 31919 H 2966.53 2.73625 1.22267 0
M  V30 31920 H 2964.09 1.53153 0.524969 0
M  V30 31921 H 2966.08 1.85651 3.59605 0
M  V30 31922 H 2964.65 1.00578 2.95978 0
M  V30 31923 H 2963.87 3.33731 2.09802 0
M  V30 31924 H 2965.16 4.04053 3.09223 0
M  V30 31925 H 2964.56 1.8094 5.35983 0
M  V30 31926 H 2963.11 2.44531 6.04192 0
M  V30 31927 N 2966.55 -0.596505 1.45875 0
M  V30 31928 C 2967.77 -1.38643 1.54249 0
M  V30 31929 C 2968.2 -1.87241 0.179604 0
M  V30 31930 O 2967.55 -1.60781 -0.837803 0
M  V30 31931 C 2967.6 -2.55942 2.5402 0
M  V30 31932 O 2966.71 -3.56936 2.06568 0
M  V30 31933 H 2966.05 -0.413462 0.519563 0
M  V30 31934 H 2968.58 -0.724902 1.91328 0
M  V30 31935 H 2968.59 -3.03042 2.73184 0
M  V30 31936 H 2967.26 -2.19921 3.52998 0
M  V30 31937 H 2965.84 -3.1641 1.9733 0
M  V30 31938 N 2968.02 -1.3335 -0.839967 0
M  V30 31939 C 2969.44 -1.22218 -1.41137 0
M  V30 31940 C 2969.79 0.159364 -1.95552 0
M  V30 31941 O 2968.91 1.0589 -1.88723 0
M  V30 31942 C 2969.51 -2.21274 -2.56561 0
M  V30 31943 C 2968.07 -2.13985 -3.09657 0
M  V30 31944 C 2967.21 -2.08821 -1.82453 0
M  V30 31945 H 2970.16 -1.44965 -0.645828 0
M  V30 31946 H 2970.18 -1.81982 -3.3416 0
M  V30 31947 H 2969.7 -3.21815 -2.16926 0
M  V30 31948 H 2967.8 -1.16742 -3.53839 0
M  V30 31949 H 2967.91 -3.04479 -3.69905 0
M  V30 31950 H 2966.27 -1.5428 -2.02657 0
M  V30 31951 H 2967.06 -3.11168 -1.45016 0
M  V30 31952 N 2969.5 1.05808 -1.16801 0
M  V30 31953 C 2970.73 1.82385 -0.976903 0
M  V30 31954 C 2971.15 1.8273 0.474885 0
M  V30 31955 O 2970.5 1.25004 1.32967 0
M  V30 31956 C 2970.55 3.28781 -1.50285 0
M  V30 31957 O 2970.27 3.28573 -2.89778 0
M  V30 31958 C 2971.78 4.22069 -1.35545 0
M  V30 31959 H 2969 0.574921 -0.345987 0
M  V30 31960 H 2971.54 1.33464 -1.54944 0
M  V30 31961 H 2969.69 3.74995 -0.97248 0
M  V30 31962 H 2970.11 4.20153 -3.13961 0
M  V30 31963 H 2971.58 5.22795 -1.77169 0
M  V30 31964 H 2972.06 4.38163 -0.301675 0
M  V30 31965 H 2972.67 3.81704 -1.87568 0
M  V30 31966 N 2970.98 0.967265 1.24426 0
M  V30 31967 C 2972.26 0.545809 1.8783 0
M  V30 31968 C 2972.64 -0.977066 1.87127 0
M  V30 31969 O 2971.99 -1.84823 1.3436 0
M  V30 31970 C 2972.2 1.13684 3.29965 0
M  V30 31971 C 2973.54 1.22147 4.06651 0
M  V30 31972 O 2974.57 1.08932 3.39134 0
M  V30 31973 O 2973.43 1.43027 5.27452 0
M  V30 31974 H 2970.52 0.181926 0.806741 0
M  V30 31975 H 2973.07 1.06151 1.32401 0
M  V30 31976 H 2971.84 2.17963 3.24973 0
M  V30 31977 H 2971.46 0.605163 3.92968 0
M  V30 31978 N 2972.46 -1.39288 0.737328 0
M  V30 31979 C 2973.68 -2.05287 0.295273 0
M  V30 31980 C 2974.11 -1.5523 -1.06232 0
M  V30 31981 O 2973.47 -0.697072 -1.67364 0
M  V30 31982 C 2973.52 -3.59272 0.30921 0
M  V30 31983 O 2972.62 -4.06375 -0.702365 0
M  V30 31984 H 2971.96 -0.650385 0.133773 0
M  V30 31985 H 2974.49 -1.78278 1.0039 0
M  V30 31986 H 2974.5 -4.07708 0.154408 0
M  V30 31987 H 2973.18 -3.95067 1.29981 0
M  V30 31988 H 2971.75 -3.69347 -0.513509 0
M  V30 31989 N 2973.94 -0.485139 -1.49947 0
M  V30 31990 C 2975.16 0.0644695 -2.073 0
M  V30 31991 C 2975.59 1.31494 -1.34502 0
M  V30 31992 O 2974.95 1.76902 -0.396901 0
M  V30 31993 C 2974.99 0.31724 -3.59202 0
M  V30 31994 O 2974.1 1.39507 -3.88087 0
M  V30 31995 H 2973.44 -0.0191938 -0.663723 0
M  V30 31996 H 2975.97 -0.680212 -1.92962 0
M  V30 31997 H 2975.98 0.553533 -4.04228 0
M  V30 31998 H 2974.65 -0.59646 -4.11601 0
M  V30 31999 H 2973.23 1.14498 -3.54887 0
M  V30 32000 N 2975.42 1.56081 -0.218307 0
M  V30 32001 C 2976.36 2.2151 0.70964 0
M  V30 32002 C 2977.36 1.19348 1.20219 0
M  V30 32003 O 2978.56 1.37436 1.16239 0
M  V30 32004 H 2974.94 0.710188 0.247258 0
M  V30 32005 H 2976.91 2.98097 0.134334 0
M  V30 32006 C 2975.66 2.90641 1.90848 0
M  V30 32007 H 2974.98 3.69009 1.53859 0
M  V30 32008 H 2976.42 3.39827 2.53562 0
M  V30 32009 C 2974.88 1.92934 2.76185 0
M  V30 32010 O 2975.41 1.44423 3.7484 0
M  V30 32011 N 2973.62 1.60654 2.42154 0
M  V30 32012 H 2973.16 2.00297 1.61984 0
M  V30 32013 H 2973.12 0.9554 2.99532 0
M  V30 32014 N 2976.89 -0.0551124 1.57504 0
M  V30 32015 C 2977.86 -1.04817 2.03828 0
M  V30 32016 C 2978.86 -1.30608 0.937991 0
M  V30 32017 O 2980.05 -1.26048 1.2024 0
M  V30 32018 C 2977.18 -2.38771 2.43313 0
M  V30 32019 H 2978.37 -0.648548 2.92803 0
M  V30 32020 H 2975.92 -0.301288 1.53369 0
M  V30 32021 H 2976.66 -2.83533 1.57415 0
M  V30 32022 H 2976.44 -2.21389 3.23619 0
M  V30 32023 H 2977.93 -3.10119 2.79671 0
M  V30 32024 N 2978.37 -1.54173 -0.326869 0
M  V30 32025 C 2979.79 -1.44809 -0.671008 0
M  V30 32026 C 2979.99 -0.618291 -1.9178 0
M  V30 32027 O 2979.04 -0.115795 -2.52234 0
M  V30 32028 C 2980.36 -2.88492 -0.848097 0
M  V30 32029 C 2981.9 -2.98373 -0.94565 0
M  V30 32030 C 2982.38 -4.43199 -1.15493 0
M  V30 32031 N 2983.87 -4.46797 -1.22175 0
M  V30 32032 C 2984.61 -5.56009 -1.4015 0
M  V30 32033 N 2984.1 -6.75195 -1.5519 0
M  V30 32034 N 2985.89 -5.4365 -1.42832 0
M  V30 32035 H 2978.05 -2.06607 0.492657 0
M  V30 32036 H 2980.31 -0.934641 0.15859 0
M  V30 32037 H 2980.01 -3.517 -0.00323787 0
M  V30 32038 H 2979.89 -3.34414 -1.74491 0
M  V30 32039 H 2982.28 -2.35295 -1.78102 0
M  V30 32040 H 2982.36 -2.55787 -0.0253766 0
M  V30 32041 H 2982 -5.06863 -0.324432 0
M  V30 32042 H 2981.93 -4.83391 -2.08903 0
M  V30 32043 H 2984.42 -3.60919 -1.12009 0
M  V30 32044 H 2984.73 -7.54187 -1.68588 0
M  V30 32045 H 2983.08 -6.78109 -1.52294 0
M  V30 32046 H 2986.27 -4.4949 -1.30675 0
M  V30 32047 H 2986.44 -6.28818 -1.56498 0
M  V30 32048 N 2979.85 0.58876 -1.4619 0
M  V30 32049 C 2980.78 1.71262 -1.52322 0
M  V30 32050 C 2981.79 1.57497 -0.412124 0
M  V30 32051 O 2982.98 1.65033 -0.680175 0
M  V30 32052 C 2980.08 3.09455 -1.38169 0
M  V30 32053 C 2979.26 3.49281 -2.6329 0
M  V30 32054 C 2978.32 4.6651 -2.43423 0
M  V30 32055 O 2977.34 4.72676 -3.17121 0
M  V30 32056 N 2978.54 5.61 -1.49197 0
M  V30 32057 H 2981.31 1.66458 -2.49222 0
M  V30 32058 H 2978.87 0.774576 -1.42169 0
M  V30 32059 H 2980.86 3.85664 -1.2266 0
M  V30 32060 H 2979.43 3.0866 -0.494733 0
M  V30 32061 H 2978.65 2.6284 -2.93783 0
M  V30 32062 H 2979.94 3.72653 -3.4642 0
M  V30 32063 H 2979.34 5.58748 -0.884125 0
M  V30 32064 H 2977.89 6.36663 -1.39653 0
M  V30 32065 N 2981.33 1.33794 0.832883 0
M  V30 32066 C 2982.56 1.28642 1.62046 0
M  V30 32067 C 2982.97 -0.141489 1.88269 0
M  V30 32068 O 2982.33 -1.0855 1.46708 0
M  V30 32069 C 2982.38 2.06495 2.96719 0
M  V30 32070 O 2982.1 3.43716 2.71644 0
M  V30 32071 C 2983.6 2.08624 3.91141 0
M  V30 32072 H 2980.82 0.442945 0.504024 0
M  V30 32073 H 2983.36 1.76257 1.037 0
M  V30 32074 H 2981.52 1.62547 3.51649 0
M  V30 32075 H 2981.93 3.83839 3.57446 0
M  V30 32076 H 2983.41 2.67539 4.82832 0
M  V30 32077 H 2983.88 1.07804 4.25764 0
M  V30 32078 H 2984.49 2.52617 3.42147 0
M  V30 32079 N 2982.81 -1.05187 1.1736 0
M  V30 32080 C 2983.72 -2.16441 0.905022 0
M  V30 32081 C 2984.73 -1.73537 -0.12683 0
M  V30 32082 O 2985.91 -2.01332 0.052448 0
M  V30 32083 C 2982.97 -3.44121 0.422079 0
M  V30 32084 C 2982.03 -4.0147 1.52053 0
M  V30 32085 C 2981.27 -5.23057 1.06053 0
M  V30 32086 O 2981.49 -5.70336 -0.085302 0
M  V30 32087 O 2980.42 -5.72648 1.85359 0
M  V30 32088 H 2984.25 -2.41946 1.83564 0
M  V30 32089 H 2981.83 -1.14934 0.95449 0
M  V30 32090 H 2983.72 -4.21095 0.160282 0
M  V30 32091 H 2982.39 -3.20116 -0.480387 0
M  V30 32092 H 2981.3 -3.25936 1.8362 0
M  V30 32093 H 2982.63 -4.29794 2.3987 0
M  V30 32094 N 2984.28 -0.97385 -1.23911 0
M  V30 32095 C 2985.53 -0.634674 -1.91454 0
M  V30 32096 C 2985.85 0.834728 -1.76894 0
M  V30 32097 O 2987.05 1.28469 -2.39182 0
M  V30 32098 C 2985.51 -1.08453 -3.4317 0
M  V30 32099 C 2985.12 -2.57782 -3.66405 0
M  V30 32100 C 2986.86 -0.818795 -4.16529 0
M  V30 32101 C 2984.77 -2.96469 -5.11723 0
M  V30 32102 H 2983.7 -0.233674 -0.716877 0
M  V30 32103 H 2986.35 -1.18088 -1.40455 0
M  V30 32104 H 2984.73 -0.466594 -3.93242 0
M  V30 32105 H 2985.9 -3.24759 -3.26907 0
M  V30 32106 H 2984.22 -2.82032 -3.06344 0
M  V30 32107 H 2986.82 -1.08377 -5.23602 0
M  V30 32108 H 2987.16 0.245055 -4.15578 0
M  V30 32109 H 2987.69 -1.398 -3.72426 0
M  V30 32110 H 2984.43 -4.0195 -5.17799 0
M  V30 32111 H 2983.95 -2.34181 -5.52195 0
M  V30 32112 H 2985.63 -2.86713 -5.80004 0
M  V30 32113 N 2985.76 1.38895 -0.744705 0
M  V30 32114 C 2986.69 2.33158 -0.126396 0
M  V30 32115 C 2987.67 1.54413 0.71349 0
M  V30 32116 O 2988.86 1.82767 0.65649 0
M  V30 32117 C 2985.99 3.38558 0.774316 0
M  V30 32118 C 2984.94 4.27983 0.0378461 0
M  V30 32119 C 2984.27 5.24164 1.05622 0
M  V30 32120 C 2985.57 5.10033 -1.12532 0
M  V30 32121 H 2987.26 2.85114 -0.913794 0
M  V30 32122 H 2984.81 1.37085 -0.440871 0
M  V30 32123 H 2986.76 4.0346 1.21648 0
M  V30 32124 H 2985.48 2.85063 1.59394 0
M  V30 32125 H 2984.14 3.64575 -0.384797 0
M  V30 32126 H 2983.79 4.66961 1.86967 0
M  V30 32127 H 2983.49 5.84847 0.568158 0
M  V30 32128 H 2985.02 5.91942 1.49788 0
M  V30 32129 H 2986.43 5.68225 -0.761137 0
M  V30 32130 H 2984.83 5.79906 -1.54365 0
M  V30 32131 H 2985.9 4.44294 -1.94245 0
M  V30 32132 N 2987.24 0.493084 1.49688 0
M  V30 32133 C 2988.49 -0.0543162 2.02727 0
M  V30 32134 C 2988.82 -1.37373 1.37267 0
M  V30 32135 O 2988.09 -1.87811 0.505677 0
M  V30 32136 C 2988.38 -0.215162 3.59457 0
M  V30 32137 C 2988.23 1.12682 4.35457 0
M  V30 32138 C 2989.55 -0.959511 4.29513 0
M  V30 32139 H 2986.67 -0.0182657 0.736774 0
M  V30 32140 H 2989.31 0.642956 1.78791 0
M  V30 32141 H 2987.46 -0.809055 3.79982 0
M  V30 32142 H 2989.13 1.75899 4.26447 0
M  V30 32143 H 2987.38 1.71808 3.98327 0
M  V30 32144 H 2988.05 0.967673 5.43452 0
M  V30 32145 H 2990.52 -0.455904 4.13595 0
M  V30 32146 H 2989.4 -1.04088 5.3894 0
M  V30 32147 H 2989.66 -2.00137 3.94205 0
M  V30 32148 N 2988.72 -1.55963 0.226582 0
M  V30 32149 C 2989.63 -2.24141 -0.692685 0
M  V30 32150 C 2990.64 -1.2507 -1.20969 0
M  V30 32151 O 2991.82 -1.57895 -1.25024 0
M  V30 32152 C 2988.89 -2.91187 -1.88178 0
M  V30 32153 C 2987.95 -4.05614 -1.40626 0
M  V30 32154 C 2987.18 -4.69454 -2.53867 0
M  V30 32155 O 2987.4 -4.32298 -3.72122 0
M  V30 32156 O 2986.34 -5.58352 -2.24782 0
M  V30 32157 H 2990.16 -3.03368 -0.141867 0
M  V30 32158 H 2987.75 -1.49399 -0.00407864 0
M  V30 32159 H 2989.63 -3.33488 -2.57611 0
M  V30 32160 H 2988.3 -2.14915 -2.4206 0
M  V30 32161 H 2987.21 -3.67872 -0.679795 0
M  V30 32162 H 2988.54 -4.83644 -0.913753 0
M  V30 32163 N 2990.2 0.0467589 -1.57531 0
M  V30 32164 C 2991.42 0.757089 -1.93088 0
M  V30 32165 C 2991.85 1.69035 -0.825146 0
M  V30 32166 O 2991.2 1.79955 0.220417 0
M  V30 32167 C 2991.25 1.50544 -3.27672 0
M  V30 32168 O 2990.36 2.61767 -3.18672 0
M  V30 32169 H 2989.7 0.204881 -0.631601 0
M  V30 32170 H 2992.23 0.00751636 -2.04599 0
M  V30 32171 H 2992.24 1.87926 -3.62143 0
M  V30 32172 H 2990.91 0.820859 -4.07719 0
M  V30 32173 H 2989.49 2.27059 -2.95802 0
M  V30 32174 N 2991.67 1.54344 0.318688 0
M  V30 32175 C 2992.95 1.63439 1.07458 0
M  V30 32176 C 2993.33 0.471346 2.05771 0
M  V30 32177 O 2992.68 -0.533871 2.22176 0
M  V30 32178 C 2992.89 3.00657 1.77219 0
M  V30 32179 C 2994.24 3.5687 2.30063 0
M  V30 32180 O 2995.26 3.02994 1.87278 0
M  V30 32181 O 2994.12 4.51164 3.08405 0
M  V30 32182 H 2991.21 0.662038 0.495615 0
M  V30 32183 H 2993.76 1.6669 0.318189 0
M  V30 32184 H 2992.53 3.76744 1.05736 0
M  V30 32185 H 2992.16 3.01105 2.59656 0
M  V30 32186 N 2993.15 -0.580999 1.465 0
M  V30 32187 C 2994.4 -1.3365 1.51598 0
M  V30 32188 C 2994.72 -1.94258 0.169893 0
M  V30 32189 O 2993.99 -1.78653 -0.803745 0
M  V30 32190 H 2992.57 -0.496234 0.558355 0
M  V30 32191 H 2995.23 -0.680306 1.82641 0
M  V30 32192 H 2994.33 -2.14233 2.26959 0
M  V30 32193 N 2994.63 -1.34234 -0.825776 0
M  V30 32194 C 2995.88 -1.2643 -1.58183 0
M  V30 32195 C 2996.21 0.166499 -1.93786 0
M  V30 32196 O 2995.46 1.12704 -1.59988 0
M  V30 32197 C 2995.76 -2.09777 -2.89358 0
M  V30 32198 C 2995.43 -3.58816 -2.7306 0
M  V30 32199 C 2994.09 -3.99445 -2.68322 0
M  V30 32200 C 2996.44 -4.53467 -2.56938 0
M  V30 32201 C 2993.77 -5.32922 -2.4538 0
M  V30 32202 C 2996.12 -5.8712 -2.35528 0
M  V30 32203 C 2994.78 -6.26916 -2.29201 0
M  V30 32204 H 2994.05 -0.462639 -0.578832 0
M  V30 32205 H 2996.7 -1.65949 -0.955685 0
M  V30 32206 H 2995.01 -1.63078 -3.56248 0
M  V30 32207 H 2996.7 -2.01088 -3.46936 0
M  V30 32208 H 2993.29 -3.26564 -2.77586 0
M  V30 32209 H 2997.48 -4.22977 -2.59623 0
M  V30 32210 H 2992.73 -5.62778 -2.38937 0
M  V30 32211 H 2996.91 -6.60054 -2.2204 0
M  V30 32212 H 2994.53 -7.30277 -2.11185 0
M  V30 32213 N 2996.11 1.04563 -1.17917 0
M  V30 32214 C 2997.35 1.7794 -0.972894 0
M  V30 32215 C 2997.69 1.8774 0.49672 0
M  V30 32216 O 2996.96 1.38183 1.36878 0
M  V30 32217 C 2997.25 3.21485 -1.62232 0
M  V30 32218 C 2997.1 3.19659 -3.16446 0
M  V30 32219 C 2998.42 4.19477 -1.33144 0
M  V30 32220 H 2995.54 0.645947 -0.354854 0
M  V30 32221 H 2998.18 1.22176 -1.4551 0
M  V30 32222 H 2996.33 3.69101 -1.21231 0
M  V30 32223 H 2998 2.80071 -3.66549 0
M  V30 32224 H 2996.24 2.57826 -3.48867 0
M  V30 32225 H 2996.91 4.21 -3.5702 0
M  V30 32226 H 2999.39 3.80385 -1.68661 0
M  V30 32227 H 2998.27 5.18143 -1.8116 0
M  V30 32228 H 2998.53 4.41373 -0.253396 0
M  V30 32229 N 2997.59 0.980408 1.23393 0
M  V30 32230 C 2998.81 0.667321 1.95843 0
M  V30 32231 C 2999.23 -0.765705 1.72576 0
M  V30 32232 O 2998.59 -1.51525 1.01718 0
M  V30 32233 C 2998.64 0.948212 3.48843 0
M  V30 32234 O 2998.36 2.32492 3.71321 0
M  V30 32235 C 2999.86 0.651079 4.38493 0
M  V30 32236 H 2997.08 0.247893 0.62353 0
M  V30 32237 H 2999.62 1.31179 1.56883 0
M  V30 32238 H 2997.78 0.349749 3.85818 0
M  V30 32239 H 2998.19 2.4146 4.65615 0
M  V30 32240 H 2999.67 0.897983 5.44647 0
M  V30 32241 H 3000.14 -0.414845 4.37236 0
M  V30 32242 H 3000.75 1.23002 4.07125 0
M  V30 32243 N 2999.06 -1.38498 0.75206 0
M  V30 32244 C 3000.01 -2.3047 0.123328 0
M  V30 32245 C 3000.98 -1.50099 -0.711299 0
M  V30 32246 O 3002.17 -1.78734 -0.667743 0
M  V30 32247 C 2999.31 -3.36514 -0.765026 0
M  V30 32248 C 2998.42 -4.31918 0.0840645 0
M  V30 32249 C 2997.55 -5.25032 -0.807151 0
M  V30 32250 C 2996.59 -6.12083 0.0456659 0
M  V30 32251 N 2995.73 -6.975 -0.802424 0
M  V30 32252 H 3000.57 -2.83662 0.913219 0
M  V30 32253 H 2998.11 -1.39657 0.461974 0
M  V30 32254 H 3000.07 -3.96602 -1.29469 0
M  V30 32255 H 2998.7 -2.84735 -1.52072 0
M  V30 32256 H 2997.75 -3.73304 0.731342 0
M  V30 32257 H 2999.06 -4.93239 0.742737 0
M  V30 32258 H 2998.21 -5.9023 -1.40404 0
M  V30 32259 H 2996.95 -4.64074 -1.49956 0
M  V30 32260 H 2995.96 -5.45882 0.655233 0
M  V30 32261 H 2997.18 -6.7511 0.735113 0
M  V30 32262 H 2995.13 -6.39091 -1.47981 0
M  V30 32263 H 2995.05 -7.55734 -0.200614 0
M  V30 32264 H 2996.31 -7.67109 -1.38433 0
M  V30 32265 N 3000.54 -0.501015 -1.49424 0
M  V30 32266 C 3001.49 0.291108 -2.30771 0
M  V30 32267 C 3002.48 0.962763 -1.39382 0
M  V30 32268 O 3003.69 0.89045 -1.56432 0
M  V30 32269 H 3000.07 0.112737 -0.743501 0
M  V30 32270 H 3002.04 -0.414969 -2.95501 0
M  V30 32271 C 3000.79 1.34274 -3.20727 0
M  V30 32272 H 3000.11 0.835311 -3.90976 0
M  V30 32273 H 3001.55 1.86897 -3.80586 0
M  V30 32274 C 3000.01 2.36091 -2.40339 0
M  V30 32275 O 3000.54 3.41972 -2.10755 0
M  V30 32276 N 2998.74 2.08561 -2.02362 0
M  V30 32277 H 2998.29 1.22478 -2.26621 0
M  V30 32278 H 2998.25 2.76914 -1.48883 0
M  V30 32279 N 3002.02 1.5584 -0.234849 0
M  V30 32280 C 3003.27 1.98253 0.392448 0
M  V30 32281 C 3003.59 1.12406 1.59342 0
M  V30 32282 O 3002.86 0.204089 1.94834 0
M  V30 32283 H 3001.44 0.732195 0.147986 0
M  V30 32284 H 3004.1 1.92072 -0.330838 0
M  V30 32285 H 3003.2 3.03922 0.709776 0
M  V30 32286 N 3003.5 -0.038404 1.57553 0
M  V30 32287 C 3004.45 -1.04956 2.02406 0
M  V30 32288 C 3005.43 -1.32576 0.911729 0
M  V30 32289 O 3006.63 -1.32317 1.17564 0
M  V30 32290 C 3003.75 -2.35352 2.49928 0
M  V30 32291 C 3002.84 -2.10863 3.67964 0
M  V30 32292 N 3003.23 -1.56402 4.81011 0
M  V30 32293 C 3001.53 -2.4119 3.75158 0
M  V30 32294 C 3002.23 -1.47502 5.62688 0
M  V30 32295 N 3001.21 -1.94733 5.07523 0
M  V30 32296 H 3005.01 -0.622348 2.87235 0
M  V30 32297 H 3002.52 -0.244888 1.60543 0
M  V30 32298 H 3004.52 -3.0859 2.80317 0
M  V30 32299 H 3003.18 -2.7876 1.66501 0
M  V30 32300 H 3004.19 -1.24801 5.02638 0
M  V30 32301 H 3000.87 -2.87737 3.02512 0
M  V30 32302 H 3002.26 -1.05965 6.63492 0
M  V30 32303 N 3004.98 -1.54511 -0.310498 0
M  V30 32304 C 3005.92 -1.84804 -1.38261 0
M  V30 32305 C 3006.89 -0.696168 -1.50807 0
M  V30 32306 O 3008.08 -0.943875 -1.65818 0
M  V30 32307 C 3005.22 -2.09257 -2.74419 0
M  V30 32308 C 3004.33 -3.3691 -2.70399 0
M  V30 32309 C 3003.47 -3.51255 -3.98489 0
M  V30 32310 C 3002.51 -4.72736 -3.88828 0
M  V30 32311 N 3001.64 -4.83937 -5.08674 0
M  V30 32312 H 3006.48 -2.76263 -1.11727 0
M  V30 32313 H 3004.02 -1.36807 -0.540585 0
M  V30 32314 H 3005.98 -2.21428 -3.5359 0
M  V30 32315 H 3004.61 -1.21076 -2.99233 0
M  V30 32316 H 3003.66 -3.33409 -1.83146 0
M  V30 32317 H 3004.97 -4.26197 -2.59147 0
M  V30 32318 H 3004.13 -3.63039 -4.86094 0
M  V30 32319 H 3002.87 -2.60084 -4.12562 0
M  V30 32320 H 3001.87 -4.60995 -2.99606 0
M  V30 32321 H 3003.1 -5.65305 -3.76308 0
M  V30 32322 H 3001.04 -3.95686 -5.23229 0
M  V30 32323 H 3000.96 -5.6721 -4.99809 0
M  V30 32324 H 3002.23 -5.00067 -5.97957 0
M  V30 32325 N 3006.46 0.573222 -1.46806 0
M  V30 32326 C 3007.7 1.33305 -1.52832 0
M  V30 32327 C 3008.03 1.93333 -0.183321 0
M  V30 32328 O 3007.31 1.76999 0.806323 0
M  V30 32329 C 3007.59 2.45526 -2.63418 0
M  V30 32330 C 3007.45 1.90471 -4.07481 0
M  V30 32331 C 3008.76 3.4753 -2.7002 0
M  V30 32332 H 3005.88 0.483333 -0.556379 0
M  V30 32333 H 3008.53 0.643035 -1.78788 0
M  V30 32334 H 3006.68 3.04385 -2.41417 0
M  V30 32335 H 3008.35 1.35996 -4.40798 0
M  V30 32336 H 3006.59 1.21241 -4.16513 0
M  V30 32337 H 3007.26 2.71523 -4.80603 0
M  V30 32338 H 3009.74 2.98567 -2.89823 0
M  V30 32339 H 3008.61 4.23498 -3.492 0
M  V30 32340 H 3008.87 4.05364 -1.76444 0
M  V30 32341 N 3007.93 1.3467 0.818645 0
M  V30 32342 C 3009.18 1.27455 1.57743 0
M  V30 32343 C 3009.51 -0.154043 1.93588 0
M  V30 32344 O 3008.79 -1.10048 1.60373 0
M  V30 32345 C 3009.07 2.1695 2.8741 0
M  V30 32346 C 3008.92 3.68368 2.58119 0
M  V30 32347 C 3010.24 2.05799 3.89018 0
M  V30 32348 H 3007.36 0.464334 0.572331 0
M  V30 32349 H 3010 1.64961 0.942755 0
M  V30 32350 H 3008.15 1.85095 3.41573 0
M  V30 32351 H 3009.83 4.1061 2.10232 0
M  V30 32352 H 3008.07 3.89245 1.91496 0
M  V30 32353 H 3008.74 4.26359 3.50602 0
M  V30 32354 H 3011.22 2.33777 3.4422 0
M  V30 32355 H 3010.09 2.70637 4.77543 0
M  V30 32356 H 3010.35 1.03625 4.29784 0
M  V30 32357 N 3009.41 -1.03936 1.1847 0
M  V30 32358 C 3010.66 -1.76557 0.975224 0
M  V30 32359 C 3010.97 -1.89208 -0.495944 0
M  V30 32360 O 3012.18 -2.58695 -0.823964 0
M  V30 32361 C 3010.64 -3.17441 1.69585 0
M  V30 32362 C 3010.24 -3.12879 3.20642 0
M  V30 32363 C 3011.99 -3.9443 1.56924 0
M  V30 32364 C 3009.89 -4.4863 3.85338 0
M  V30 32365 H 3008.82 -0.661823 0.361256 0
M  V30 32366 H 3011.48 -1.164 1.41857 0
M  V30 32367 H 3009.86 -3.78002 1.18029 0
M  V30 32368 H 3011.03 -2.61761 3.79233 0
M  V30 32369 H 3009.35 -2.49388 3.33458 0
M  V30 32370 H 3011.94 -4.94823 2.0262 0
M  V30 32371 H 3012.29 -4.13018 0.521711 0
M  V30 32372 H 3012.82 -3.40447 2.05768 0
M  V30 32373 H 3009.56 -4.35247 4.90143 0
M  V30 32374 H 3009.08 -4.99845 3.31535 0
M  V30 32375 H 3010.76 -5.17542 3.88278 0
M  V30 32376 N 3010.89 -0.986938 -1.22871 0
M  V30 32377 C 3011.84 -0.503586 -2.22369 0
M  V30 32378 C 3012.82 0.424971 -1.55186 0
M  V30 32379 O 3014.02 0.252761 -1.75186 0
M  V30 32380 C 3011.14 0.186294 -3.42794 0
M  V30 32381 C 3010.23 -0.762216 -4.17194 0
M  V30 32382 N 3010.62 -1.90758 -4.6845 0
M  V30 32383 C 3008.92 -0.576875 -4.42253 0
M  V30 32384 C 3009.62 -2.50244 -5.25122 0
M  V30 32385 N 3008.6 -1.78569 -5.13434 0
M  V30 32386 H 3012.4 -1.37722 -2.59634 0
M  V30 32387 H 3009.91 -0.848439 -1.38475 0
M  V30 32388 H 3011.91 0.54992 -4.13257 0
M  V30 32389 H 3010.57 1.05614 -3.07044 0
M  V30 32390 H 3011.58 -2.28856 -4.64591 0
M  V30 32391 H 3008.26 0.247401 -4.16766 0
M  V30 32392 H 3009.65 -3.47007 -5.75357 0
M  V30 32393 N 3012.37 1.38098 -0.759394 0
M  V30 32394 C 3013.59 2.04792 -0.327895 0
M  V30 32395 C 3014.02 1.56901 1.03749 0
M  V30 32396 O 3013.38 0.72361 1.66233 0
M  V30 32397 C 3013.42 3.58734 -0.366327 0
M  V30 32398 O 3012.53 4.07441 0.637626 0
M  V30 32399 H 3011.87 0.648175 -0.144103 0
M  V30 32400 H 3014.4 1.76658 -1.03214 0
M  V30 32401 H 3014.41 4.0741 -0.219251 0
M  V30 32402 H 3013.08 3.92949 -1.36249 0
M  V30 32403 H 3011.66 3.70118 0.454684 0
M  V30 32404 N 3013.85 0.508932 1.49156 0
M  V30 32405 C 3015.26 0.1654 1.58741 0
M  V30 32406 C 3015.46 -1.33045 1.51332 0
M  V30 32407 O 3014.52 -2.10705 1.39139 0
M  V30 32408 C 3015.83 0.749246 2.91216 0
M  V30 32409 C 3017.38 0.716069 3.04699 0
M  V30 32410 C 3017.85 1.27812 4.39805 0
M  V30 32411 N 3019.34 1.23916 4.46317 0
M  V30 32412 C 3020.08 1.64416 5.49322 0
M  V30 32413 N 3019.58 2.12545 6.59391 0
M  V30 32414 N 3021.37 1.55783 5.40082 0
M  V30 32415 H 3013.52 1.48136 1.52215 0
M  V30 32416 H 3015.78 0.614928 0.721504 0
M  V30 32417 H 3015.49 1.79862 3.0223 0
M  V30 32418 H 3015.36 0.21421 3.76591 0
M  V30 32419 H 3017.75 -0.324483 2.93311 0
M  V30 32420 H 3017.83 1.28834 2.20987 0
M  V30 32421 H 3017.47 2.31749 4.51946 0
M  V30 32422 H 3017.4 0.681714 5.22169 0
M  V30 32423 H 3019.9 0.886602 3.67352 0
M  V30 32424 H 3020.21 2.41497 7.34097 0
M  V30 32425 H 3018.55 2.16525 6.6041 0
M  V30 32426 H 3021.74 1.17995 4.52984 0
M  V30 32427 H 3021.92 1.87668 6.2023 0
M  V30 32428 N 3015.32 -1.55714 0.243111 0
M  V30 32429 C 3016.55 -2.03702 -0.389908 0
M  V30 32430 C 3016.97 -1.12132 -1.51023 0
M  V30 32431 O 3016.33 -0.113551 -1.80944 0
M  V30 32432 C 3016.38 -3.49733 -0.878588 0
M  V30 32433 O 3015.48 -3.61296 -1.98845 0
M  V30 32434 H 3014.82 -0.658472 -0.0854999 0
M  V30 32435 H 3017.35 -2.01262 0.368059 0
M  V30 32436 H 3017.36 -3.90479 -1.1828 0
M  V30 32437 H 3016.04 -4.15859 -0.0587376 0
M  V30 32438 H 3014.62 -3.32445 -1.68922 0
M  V30 32439 N 3016.8 0.030048 -1.57571 0
M  V30 32440 C 3018.21 0.576771 -1.77568 0
M  V30 32441 C 3018.56 1.75655 -0.874065 0
M  V30 32442 O 3017.69 2.16291 -0.0686504 0
M  V30 32443 C 3018.28 1.0531 -3.22018 0
M  V30 32444 C 3016.84 1.54534 -3.43214 0
M  V30 32445 C 3015.99 0.482985 -2.73061 0
M  V30 32446 H 3018.94 -0.196178 -1.57483 0
M  V30 32447 H 3018.96 1.92049 -3.28477 0
M  V30 32448 H 3018.47 0.194229 -3.87614 0
M  V30 32449 H 3016.58 2.4261 -2.82792 0
M  V30 32450 H 3016.69 1.59352 -4.51823 0
M  V30 32451 H 3015.05 0.937793 -2.36807 0
M  V30 32452 H 3015.84 -0.366401 -3.41339 0
M  V30 32453 N 3018.28 1.54674 0.3023 0
M  V30 32454 C 3019.51 1.78207 1.061 0
M  V30 32455 C 3019.93 0.539292 1.80203 0
M  V30 32456 O 3019.29 -0.510112 1.73976 0
M  V30 32457 C 3019.34 2.9883 2.01824 0
M  V30 32458 O 3018.44 2.71864 3.10103 0
M  V30 32459 H 3017.78 0.589879 0.304859 0
M  V30 32460 H 3020.31 2.01753 0.340118 0
M  V30 32461 H 3020.32 3.26764 2.44313 0
M  V30 32462 H 3019 3.88944 1.47293 0
M  V30 32463 H 3017.57 2.54942 2.72138 0
M  V30 32464 N 3019.76 -0.565428 1.47108 0
M  V30 32465 C 3021.01 -1.31926 1.52572 0
M  V30 32466 C 3021.32 -1.94684 0.189127 0
M  V30 32467 O 3022.53 -2.71227 0.121705 0
M  V30 32468 C 3020.98 -2.39189 2.68918 0
M  V30 32469 C 3020.59 -1.82658 4.09072 0
M  V30 32470 C 3022.33 -3.15805 2.83668 0
M  V30 32471 C 3020.24 -2.87652 5.16731 0
M  V30 32472 H 3019.17 -0.496015 0.567877 0
M  V30 32473 H 3021.82 -0.601479 1.73362 0
M  V30 32474 H 3020.2 -3.13844 2.41491 0
M  V30 32475 H 3021.38 -1.1443 4.46366 0
M  V30 32476 H 3019.69 -1.18653 3.99137 0
M  V30 32477 H 3022.29 -3.94194 3.61268 0
M  V30 32478 H 3022.63 -3.69478 1.91811 0
M  V30 32479 H 3023.17 -2.48259 3.10825 0
M  V30 32480 H 3019.91 -2.38843 6.10438 0
M  V30 32481 H 3019.43 -3.54316 4.83963 0
M  V30 32482 H 3021.1 -3.51293 5.43325 0
M  V30 32483 N 3021.24 -1.35102 -0.811492 0
M  V30 32484 C 3022.48 -1.27847 -1.56523 0
M  V30 32485 C 3022.81 0.148255 -1.94436 0
M  V30 32486 O 3022.08 1.08356 -1.63205 0
M  V30 32487 H 3020.66 -0.47023 -0.580425 0
M  V30 32488 H 3023.32 -1.69148 -0.968247 0
M  V30 32489 H 3022.41 -1.89102 -2.48288 0
M  V30 32490 N 3022.71 1.03306 -1.19019 0
M  V30 32491 C 3023.94 1.80809 -1.01602 0
M  V30 32492 C 3024.36 1.83102 0.43074 0
M  V30 32493 O 3023.72 1.25393 1.30943 0
M  V30 32494 C 3023.77 3.2392 -1.58455 0
M  V30 32495 O 3022.87 4.04346 -0.811043 0
M  V30 32496 H 3022.22 0.558321 -0.359408 0
M  V30 32497 H 3024.75 1.30053 -1.57948 0
M  V30 32498 H 3024.76 3.74679 -1.61492 0
M  V30 32499 H 3023.43 3.21566 -2.63758 0
M  V30 32500 H 3022.01 3.62999 -0.853593 0
M  V30 32501 N 3024.19 0.99344 1.22346 0
M  V30 32502 C 3025.14 0.544157 2.24293 0
M  V30 32503 C 3026.11 -0.423782 1.60603 0
M  V30 32504 O 3027.29 -0.32842 1.87952 0
M  V30 32505 C 3024.43 -0.134518 3.44838 0
M  V30 32506 C 3023.55 0.875226 4.23041 0
M  V30 32507 C 3022.68 0.170012 5.30928 0
M  V30 32508 C 3021.72 1.16809 6.00851 0
M  V30 32509 N 3020.86 0.491144 7.0038 0
M  V30 32510 H 3025.7 1.41824 2.62087 0
M  V30 32511 H 3023.24 0.710407 1.28809 0
M  V30 32512 H 3025.19 -0.544925 4.13626 0
M  V30 32513 H 3023.82 -0.972392 3.07806 0
M  V30 32514 H 3022.88 1.40395 3.53544 0
M  V30 32515 H 3024.19 1.63524 4.71234 0
M  V30 32516 H 3023.34 -0.297099 6.05972 0
M  V30 32517 H 3022.08 -0.6225 4.83711 0
M  V30 32518 H 3021.09 1.64582 5.24588 0
M  V30 32519 H 3022.31 1.96149 6.50156 0
M  V30 32520 H 3020.26 -0.281922 6.55394 0
M  V30 32521 H 3020.17 1.1896 7.46582 0
M  V30 32522 H 3021.44 0.0468539 7.79486 0
M  V30 32523 N 3025.67 -1.37693 0.766707 0
M  V30 32524 C 3026.6 -2.28946 0.107838 0
M  V30 32525 C 3027.62 -1.48389 -0.669675 0
M  V30 32526 O 3028.8 -1.71101 -0.508599 0
M  V30 32527 C 3025.9 -3.27515 -0.871026 0
M  V30 32528 C 3025.08 -4.37148 -0.148394 0
M  V30 32529 C 3024.14 -5.15822 -1.03989 0
M  V30 32530 O 3023.16 -5.66951 -0.505539 0
M  V30 32531 N 3024.36 -5.30064 -2.36669 0
M  V30 32532 H 3027.13 -2.86131 0.891591 0
M  V30 32533 H 3024.69 -1.49615 0.618619 0
M  V30 32534 H 3026.68 -3.77029 -1.47075 0
M  V30 32535 H 3025.25 -2.71135 -1.55578 0
M  V30 32536 H 3024.47 -3.89098 0.632185 0
M  V30 32537 H 3025.76 -5.07587 0.351134 0
M  V30 32538 H 3025.16 -4.90099 -2.82524 0
M  V30 32539 H 3023.72 -5.82904 -2.9166 0
M  V30 32540 N 3027.15 -0.516835 -1.48884 0
M  V30 32541 C 3028.11 0.242216 -2.27917 0
M  V30 32542 C 3029.11 0.879711 -1.34602 0
M  V30 32543 O 3030.3 0.741792 -1.57617 0
M  V30 32544 C 3027.43 1.34909 -3.13069 0
M  V30 32545 H 3028.63 -0.451496 -2.96482 0
M  V30 32546 H 3026.18 -0.272321 -1.53909 0
M  V30 32547 H 3026.91 2.07646 -2.49105 0
M  V30 32548 H 3026.7 0.897246 -3.81696 0
M  V30 32549 H 3028.19 1.88334 -3.7272 0
M  V30 32550 N 3028.63 1.55583 -0.251365 0
M  V30 32551 C 3029.9 1.90978 0.422695 0
M  V30 32552 C 3030.28 1.17268 1.75532 0
M  V30 32553 O 3029.63 0.291628 2.26631 0
M  V30 32554 C 3029.84 3.44039 0.586388 0
M  V30 32555 C 3031.19 4.15376 0.880221 0
M  V30 32556 O 3032.21 3.49802 0.672087 0
M  V30 32557 O 3031.07 5.31375 1.27685 0
M  V30 32558 H 3028.17 0.795062 0.227608 0
M  V30 32559 H 3030.71 1.67103 -0.295762 0
M  V30 32560 H 3029.48 3.8971 -0.352395 0
M  V30 32561 H 3029.11 3.73791 1.35522 0
M  V30 32562 N 3030.1 -0.0216912 1.57585 0
M  V30 32563 C 3031.35 -0.712065 1.89888 0
M  V30 32564 C 3031.68 -1.7461 0.850002 0
M  V30 32565 O 3030.96 -1.94038 -0.134036 0
M  V30 32566 C 3031.24 -1.37493 3.32818 0
M  V30 32567 C 3031.09 -0.353914 4.48405 0
M  V30 32568 C 3032.41 -2.30696 3.7479 0
M  V30 32569 H 3029.53 -0.257393 0.690593 0
M  V30 32570 H 3032.17 0.0251479 1.89983 0
M  V30 32571 H 3030.32 -2.00329 3.32867 0
M  V30 32572 H 3032 0.273096 4.60491 0
M  V30 32573 H 3030.24 0.326066 4.32573 0
M  V30 32574 H 3030.91 -0.856344 5.45317 0
M  V30 32575 H 3033.39 -1.77897 3.76154 0
M  V30 32576 H 3032.26 -2.74053 4.7559 0
M  V30 32577 H 3032.52 -3.17686 3.07454 0
M  V30 32578 O 3031.62 -1.60661 -0.164392 0
M  V30 32579 H 3032.31 -1.76391 -0.800372 0
M  V30 END ATOM
M  V30 BEGIN BOND
M  V30 END BOND
M  V30 END CTAB
M  END
$$$$
