drugbank_target|Q86SZ2 Trafficking protein particle complex subunit 6B (DB08342)
 OpenBabel12092120503D

  0  0  0     0  0            999 V3000
M  V30 BEGIN CTAB
M  V30 COUNTS 2545 2564 0 0 0
M  V30 BEGIN ATOM
M  V30 1 H -0.908 1.98254 -0.117106 0
M  V30 2 N 0 1.576 0 0
M  V30 3 C 0.933 2.03868 1.02534 0
M  V30 4 C 1.911 0.928543 1.3348 0
M  V30 5 O 3.095 1.19667 1.45644 0
M  V30 6 C 0.222 2.43627 2.35294 0
M  V30 7 C -0.732 3.65373 2.2001 0
M  V30 8 S 0.101 5.13292 1.52614 0
M  V30 9 C 1.257 5.56322 2.86805 0
M  V30 10 H 1.49 2.90518 0.631377 0
M  V30 11 H -0.977 1.52953 0.210867 0
M  V30 12 H 0.981 2.67203 3.11629 0
M  V30 13 H -0.358 1.57376 2.7183 0
M  V30 14 H -1.165 3.90944 3.18086 0
M  V30 15 H -1.563 3.418 1.51819 0
M  V30 16 H 0.729 5.58782 3.83104 0
M  V30 17 H 1.672 6.56266 2.65933 0
M  V30 18 H 2.08 4.83886 2.90714 0
M  V30 19 N 1.4781 -0.272755 1.55222 0
M  V30 20 C 2.4411 -1.32041 1.87344 0
M  V30 21 C 3.4411 -1.42342 0.74803 0
M  V30 22 O 4.6311 -1.41488 1.0162 0
M  V30 23 C 1.7631 -2.70173 2.07893 0
M  V30 24 H 2.9561 -1.04789 2.80997 0
M  V30 25 H 0.5091 -0.51083 1.47717 0
M  V30 26 H 1.2441 -3.02605 1.16622 0
M  V30 27 H 1.0291 -2.64082 2.89833 0
M  V30 28 H 2.5191 -3.45869 2.34017 0
M  V30 29 N 2.9562 -1.48159 -0.537278 0
M  V30 30 C 4.2332 -1.46291 -1.29839 0
M  V30 31 C 4.6132 -0.170613 -2.10409 0
M  V30 32 O 3.9612 0.847746 -2.12192 0
M  V30 33 C 4.1712 -2.72055 -2.18603 0
M  V30 34 C 5.5192 -3.20087 -2.7898 0
M  V30 35 O 6.5432 -2.72921 -2.28894 0
M  V30 36 O 5.4022 -4.02138 -3.70064 0
M  V30 37 H 2.4962 -0.583906 -0.585647 0
M  V30 38 H 5.0422 -1.60384 -0.554534 0
M  V30 39 H 3.8142 -3.57628 -1.58801 0
M  V30 40 H 3.4372 -2.60646 -3.00249 0
M  V30 41 N 4.4343 0.785586 -1.36625 0
M  V30 42 C 5.3443 1.92964 -1.33425 0
M  V30 43 C 6.3603 1.72394 -0.235851 0
M  V30 44 O 7.5363 1.95866 -0.468878 0
M  V30 45 C 4.6013 3.27884 -1.12662 0
M  V30 46 C 3.6623 3.61204 -2.32013 0
M  V30 47 C 2.8953 4.89687 -2.12231 0
M  V30 48 O 3.1183 5.59704 -1.09945 0
M  V30 49 O 2.0523 5.21752 -3.00098 0
M  V30 50 H 5.8783 1.98613 -2.29753 0
M  V30 51 H 3.4633 0.926384 -1.17211 0
M  V30 52 H 5.3453 4.08614 -1.03016 0
M  V30 53 H 4.0203 3.23118 -0.193991 0
M  V30 54 H 2.9273 2.80765 -2.47228 0
M  V30 55 H 4.2603 3.70698 -3.23796 0
M  V30 56 N 5.9124 1.20967 1.01018 0
M  V30 57 C 6.8754 0.965918 2.07853 0
M  V30 58 C 7.8754 -0.0610545 1.60684 0
M  V30 59 O 9.0654 0.175681 1.73312 0
M  V30 60 C 6.1974 0.455513 3.37843 0
M  V30 61 H 7.3904 1.91365 2.3091 0
M  V30 62 H 4.9434 1.02594 1.17916 0
M  V30 63 H 5.6784 -0.497381 3.20463 0
M  V30 64 H 5.4634 1.19622 3.73407 0
M  V30 65 H 6.9534 0.304667 4.16487 0
M  V30 66 N 7.3905 -1.2043 1.01659 0
M  V30 67 C 8.3205 -2.25466 0.607226 0
M  V30 68 C 9.3015 -1.65853 -0.377716 0
M  V30 69 O 10.4865 -1.92409 -0.263149 0
M  V30 70 C 7.6165 -3.47256 -0.0552949 0
M  V30 71 C 6.5705 -4.19462 0.850632 0
M  V30 72 C 5.8965 -5.34673 0.0538859 0
M  V30 73 C 7.1965 -4.75603 2.15868 0
M  V30 74 H 8.8905 -2.59962 1.48526 0
M  V30 75 H 6.4365 -1.2496 0.715605 0
M  V30 76 H 8.3895 -4.19917 -0.353233 0
M  V30 77 H 7.1135 -3.11924 -0.968045 0
M  V30 78 H 5.7725 -3.48667 1.13257 0
M  V30 79 H 5.4205 -4.95585 -0.860514 0
M  V30 80 H 5.1205 -5.83913 0.657192 0
M  V30 81 H 6.6445 -6.10138 -0.237598 0
M  V30 82 H 8.0585 -5.40083 1.92311 0
M  V30 83 H 6.4555 -5.3528 2.71284 0
M  V30 84 H 7.5255 -3.94346 2.82169 0
M  V30 85 N 8.8686 -0.792821 -1.36206 0
M  V30 86 C 10.1156 -0.366786 -1.99151 0
M  V30 87 C 10.4436 1.06243 -1.62919 0
M  V30 88 O 9.6986 1.74927 -0.877442 0
M  V30 89 C 9.9976 -0.481501 -3.54142 0
M  V30 90 C 9.6636 -1.87202 -4.10203 0
M  V30 91 C 8.3256 -2.25248 -4.25226 0
M  V30 92 C 10.6776 -2.78237 -4.40719 0
M  V30 93 C 8.0056 -3.53723 -4.68078 0
M  V30 94 C 10.3576 -4.06144 -4.85005 0
M  V30 95 C 9.0216 -4.44207 -4.98234 0
M  V30 96 H 8.2916 -0.134217 -0.728743 0
M  V30 97 H 10.9386 -1.01094 -1.62641 0
M  V30 98 H 9.2436 0.246146 -3.91026 0
M  V30 99 H 10.9406 -0.132844 -4.0078 0
M  V30 100 H 7.5306 -1.56639 -3.98951 0
M  V30 101 H 11.7146 -2.50097 -4.28679 0
M  V30 102 H 6.9706 -3.8308 -4.76508 0
M  V30 103 H 11.1446 -4.76796 -5.07581 0
M  V30 104 H 8.7716 -5.43814 -5.31197 0
M  V30 105 N 10.3467 1.47872 -0.545128 0
M  V30 106 C 11.2767 2.32661 0.197793 0
M  V30 107 C 12.2577 1.43041 0.920504 0
M  V30 108 O 13.4427 1.71912 0.90333 0
M  V30 109 C 10.5727 3.24569 1.23582 0
M  V30 110 C 9.5267 4.23333 0.630323 0
M  V30 111 C 8.8527 5.0448 1.77211 0
M  V30 112 C 10.1527 5.20704 -0.407974 0
M  V30 113 H 11.8467 2.95024 -0.510045 0
M  V30 114 H 9.3927 1.4187 -0.246731 0
M  V30 115 H 11.3457 3.8272 1.76362 0
M  V30 116 H 10.0697 2.60236 1.97344 0
M  V30 117 H 8.7287 3.6639 0.123922 0
M  V30 118 H 8.3767 4.36561 2.49847 0
M  V30 119 H 8.0767 5.71339 1.37281 0
M  V30 120 H 9.6007 5.65487 2.3034 0
M  V30 121 H 11.0147 5.7329 0.033305 0
M  V30 122 H 9.4117 5.95699 -0.725486 0
M  V30 123 H 10.4817 4.66917 -1.30828 0
M  V30 124 N 11.8248 0.280983 1.55075 0
M  V30 125 C 12.7548 -0.597469 2.25727 0
M  V30 126 C 13.7358 -1.15417 1.24952 0
M  V30 127 O 14.9208 -1.18722 1.53684 0
M  V30 128 C 12.0508 -1.7789 2.98283 0
M  V30 129 C 11.0048 -1.35347 4.06036 0
M  V30 130 C 10.3308 -2.61846 4.66198 0
M  V30 131 C 11.6308 -0.499354 5.19907 0
M  V30 132 H 13.3248 -0.00824265 2.99399 0
M  V30 133 H 10.8708 -0.0025244 1.44 0
M  V30 134 H 12.8238 -2.39937 3.46422 0
M  V30 135 H 11.5478 -2.39405 2.22155 0
M  V30 136 H 10.2068 -0.756156 3.58717 0
M  V30 137 H 9.8548 -3.21632 3.86732 0
M  V30 138 H 9.5548 -2.3409 5.38958 0
M  V30 139 H 11.0788 -3.24732 5.1709 0
M  V30 140 H 12.4928 -1.02498 5.64063 0
M  V30 141 H 10.8898 -0.316424 5.99265 0
M  V30 142 H 11.9598 0.480459 4.82514 0
M  V30 143 N 13.3029 -1.57598 0.00835791 0
M  V30 144 C 14.2329 -2.1198 -0.979113 0
M  V30 145 C 15.2139 -1.03091 -1.35301 0
M  V30 146 O 16.3989 -1.30818 -1.43528 0
M  V30 147 C 13.5289 -2.62995 -2.26828 0
M  V30 148 C 12.4829 -3.76485 -2.03576 0
M  V30 149 C 11.8089 -4.13846 -3.38579 0
M  V30 150 C 13.1089 -5.0342 -1.39161 0
M  V30 151 H 14.8029 -2.94738 -0.526281 0
M  V30 152 H 12.3489 -1.41783 -0.251704 0
M  V30 153 H 14.3019 -2.99669 -2.96271 0
M  V30 154 H 13.0259 -1.7737 -2.7424 0
M  V30 155 H 11.6849 -3.40217 -1.36557 0
M  V30 156 H 11.3329 -3.25232 -3.83709 0
M  V30 157 H 11.0329 -4.90312 -3.23834 0
M  V30 158 H 12.5569 -4.53086 -4.09323 0
M  V30 159 H 13.9709 -5.37812 -1.98573 0
M  V30 160 H 12.3679 -5.84746 -1.34878 0
M  V30 161 H 13.4379 -4.83548 -0.361868 0
M  V30 162 N 14.781 0.264519 -1.55364 0
M  V30 163 C 15.731 1.32966 -1.85214 0
M  V30 164 C 16.715 1.44306 -0.711653 0
M  V30 165 O 17.907 1.47844 -0.973192 0
M  V30 166 C 15.036 2.68839 -2.13495 0
M  V30 167 C 14.122 2.61575 -3.33825 0
M  V30 168 N 14.513 2.23933 -4.53528 0
M  V30 169 C 12.811 2.92621 -3.36584 0
M  V30 170 C 13.512 2.26868 -5.35636 0
M  V30 171 N 12.488 2.65677 -4.74254 0
M  V30 172 H 16.29 1.02884 -2.75304 0
M  V30 173 H 13.804 0.473157 -1.55354 0
M  V30 174 H 15.801 3.45685 -2.33039 0
M  V30 175 H 14.461 2.99802 -1.24694 0
M  V30 176 H 15.472 1.95769 -4.79474 0
M  V30 177 H 12.149 3.2824 -2.58002 0
M  V30 178 H 13.539 2.00254 -6.41364 0
M  V30 179 N 16.2591 1.48442 0.529413 0
M  V30 180 C 17.2071 1.63452 1.65487 0
M  V30 181 C 18.2011 0.500955 1.61823 0
M  V30 182 O 19.4071 0.679695 1.66674 0
M  V30 183 H 15.7821 0.514905 0.548066 0
M  V30 184 H 17.7531 2.57975 1.49971 0
M  V30 185 C 16.5021 1.69196 3.03756 0
M  V30 186 H 15.8251 2.55784 3.07269 0
M  V30 187 H 17.2651 1.83743 3.82119 0
M  V30 188 C 15.7241 0.430765 3.34135 0
M  V30 189 O 16.2541 -0.4561 3.99102 0
M  V30 190 N 14.4601 0.302293 2.89023 0
M  V30 191 H 14.0071 1.02496 2.36331 0
M  V30 192 H 13.9651 -0.540546 3.09718 0
M  V30 193 N 17.7372 -0.778329 1.37039 0
M  V30 194 C 18.6472 -1.92253 1.34446 0
M  V30 195 C 19.6632 -1.72267 0.244991 0
M  V30 196 O 20.8392 -1.95615 0.479258 0
M  V30 197 C 17.9042 -3.27282 1.144 0
M  V30 198 C 16.9652 -3.59969 2.33925 0
M  V30 199 C 16.1982 -4.88555 2.14825 0
M  V30 200 O 16.4212 -5.59113 1.12912 0
M  V30 201 O 15.3552 -5.20153 3.02861 0
M  V30 202 H 19.1812 -1.97392 2.30803 0
M  V30 203 H 16.7662 -0.920154 1.17701 0
M  V30 204 H 18.6482 -4.08062 1.05182 0
M  V30 205 H 17.3232 -3.23011 0.211124 0
M  V30 206 H 16.2302 -2.7945 2.48714 0
M  V30 207 H 17.5632 -3.68976 3.25757 0
M  V30 208 N 19.2153 -1.21501 -1.00376 0
M  V30 209 C 20.1483 -0.918669 -2.08892 0
M  V30 210 C 21.1263 0.134277 -1.62045 0
M  V30 211 O 22.3103 0.00504255 -1.88499 0
M  V30 212 C 19.4373 -0.379645 -3.36566 0
M  V30 213 C 18.4833 -1.41559 -4.02323 0
M  V30 214 S 19.3163 -2.98521 -4.44574 0
M  V30 215 C 20.4723 -2.46228 -5.75433 0
M  V30 216 H 20.7053 -1.83761 -2.33707 0
M  V30 217 H 18.2383 -1.04489 -1.13673 0
M  V30 218 H 20.1963 -0.0752195 -4.10431 0
M  V30 219 H 18.8573 0.518008 -3.09799 0
M  V30 220 H 18.0503 -0.988076 -4.9422 0
M  V30 221 H 17.6523 -1.66815 -3.34737 0
M  V30 222 H 19.9443 -1.86791 -6.51241 0
M  V30 223 H 20.8873 -3.36572 -6.22997 0
M  V30 224 H 21.2953 -1.87894 -5.32312 0
M  V30 225 N 20.6934 1.19889 -1.02296 0
M  V30 226 C 21.9394 1.89701 -0.717033 0
M  V30 227 C 22.2724 1.7905 0.751989 0
M  V30 228 O 21.5474 1.17891 1.547 0
M  V30 229 C 21.8304 3.40858 -1.16136 0
M  V30 230 C 21.6834 3.60411 -2.69117 0
M  V30 231 C 23.0024 4.33876 -0.737549 0
M  V30 232 H 20.1214 0.688874 -0.261957 0
M  V30 233 H 22.7634 1.41154 -1.27183 0
M  V30 234 H 20.9134 3.82335 -0.689342 0
M  V30 235 H 22.5854 3.28145 -3.2422 0
M  V30 236 H 20.8284 3.03665 -3.0979 0
M  V30 237 H 21.4994 4.66396 -2.95261 0
M  V30 238 H 23.9754 4.00081 -1.14344 0
M  V30 239 H 22.8514 5.38242 -1.0764 0
M  V30 240 H 23.1124 4.40628 0.360436 0
M  V30 241 N 22.1715 0.800033 1.35784 0
M  V30 242 C 23.3965 0.388511 2.03729 0
M  V30 243 C 23.8215 -0.990481 1.5991 0
M  V30 244 O 23.1795 -1.64013 0.772612 0
M  V30 245 C 23.2275 0.4726 3.5749 0
M  V30 246 O 22.3315 -0.51646 4.09153 0
M  V30 247 H 21.6725 0.163271 0.643614 0
M  V30 248 H 24.2025 1.0841 1.73518 0
M  V30 249 H 24.2125 0.34003 4.06581 0
M  V30 250 H 22.8875 1.47848 3.88734 0
M  V30 251 H 21.4645 -0.344673 3.71304 0
M  V30 252 N 23.6496 -1.47581 0.552962 0
M  V30 253 C 24.8976 -2.02082 0.0272703 0
M  V30 254 C 25.2186 -1.4301 -1.32563 0
M  V30 255 O 24.4886 -0.603745 -1.86365 0
M  V30 256 H 23.0686 -0.746966 0.00709182 0
M  V30 257 H 25.7306 -1.81033 0.722008 0
M  V30 258 H 24.8266 -3.12034 -0.0639951 0
M  V30 259 N 25.1277 -0.289203 -1.54924 0
M  V30 260 C 26.3737 0.323998 -2.00195 0
M  V30 261 C 26.7067 1.54441 -1.17735 0
M  V30 262 O 25.9817 1.92875 -0.250878 0
M  V30 263 C 26.2647 0.692276 -3.53383 0
M  V30 264 C 26.1177 -0.536457 -4.46589 0
M  V30 265 C 27.4367 1.52335 -4.12895 0
M  V30 266 H 24.5557 0.116289 -0.727768 0
M  V30 267 H 27.1977 -0.398954 -1.85764 0
M  V30 268 H 25.3477 1.30822 -3.65811 0
M  V30 269 H 27.0197 -1.17499 -4.46085 0
M  V30 270 H 25.2627 -1.17192 -4.1767 0
M  V30 271 H 25.9337 -0.234806 -5.515 0
M  V30 272 H 28.4097 1.00302 -4.0383 0
M  V30 273 H 27.2857 1.74982 -5.20262 0
M  V30 274 H 27.5467 2.50886 -3.64018 0
M  V30 275 N 26.6058 1.57591 -0.0167156 0
M  V30 276 C 27.8358 1.95292 0.674149 0
M  V30 277 C 28.2438 0.891097 1.66901 0
M  V30 278 O 27.5868 -0.136908 1.83189 0
M  V30 279 C 27.6488 3.29072 1.44747 0
M  V30 280 C 27.3128 4.52879 0.612331 0
M  V30 281 C 28.3098 5.1979 -0.107126 0
M  V30 282 C 25.9948 4.99242 0.553381 0
M  V30 283 C 27.9888 6.31375 -0.874339 0
M  V30 284 C 25.6758 6.10713 -0.217546 0
M  V30 285 C 26.6738 6.76637 -0.930123 0
M  V30 286 O 26.3618 7.85969 -1.68844 0
M  V30 287 H 26.0938 0.648275 0.191615 0
M  V30 288 H 28.6478 2.05284 -0.0690148 0
M  V30 289 H 26.8778 3.15535 2.2355 0
M  V30 290 H 28.5668 3.51764 2.02526 0
M  V30 291 H 29.3328 4.84948 -0.0708392 0
M  V30 292 H 25.2118 4.47744 1.09757 0
M  V30 293 H 28.7558 6.82764 -1.43106 0
M  V30 294 H 24.6528 6.44994 -0.255593 0
M  V30 295 H 25.4208 8.02571 -1.6069 0
M  V30 296 N 28.0839 -0.256276 1.55502 0
M  V30 297 C 29.0309 -1.31714 1.89526 0
M  V30 298 C 30.0009 -1.4828 0.748479 0
M  V30 299 O 31.1859 -1.62416 1.00128 0
M  V30 300 C 28.3259 -2.66933 2.18725 0
M  V30 301 C 27.4389 -2.58452 3.4616 0
M  V30 302 C 26.5739 -3.85961 3.64976 0
M  V30 303 C 25.6129 -3.72059 4.86044 0
M  V30 304 N 24.7499 -4.9144 5.01429 0
M  V30 305 H 29.5899 -1.01998 2.80001 0
M  V30 306 H 27.1269 -0.492413 1.38613 0
M  V30 307 H 29.0849 -3.4563 2.33657 0
M  V30 308 H 27.7149 -2.94816 1.31466 0
M  V30 309 H 26.7669 -1.71374 3.3961 0
M  V30 310 H 28.0789 -2.44085 4.34999 0
M  V30 311 H 27.2329 -4.73101 3.79816 0
M  V30 312 H 25.9719 -4.03215 2.74353 0
M  V30 313 H 24.9769 -2.83302 4.7119 0
M  V30 314 H 26.2019 -3.56309 5.78118 0
M  V30 315 H 24.1479 -5.09072 4.13741 0
M  V30 316 H 24.0649 -4.79668 5.84341 0
M  V30 317 H 25.3329 -5.80104 5.20672 0
M  V30 318 N 29.562 -1.4872 -0.521534 0
M  V30 319 C 30.787 -1.61101 -1.30618 0
M  V30 320 C 31.212 -0.274611 -1.86085 0
M  V30 321 O 30.57 0.754937 -1.64834 0
M  V30 322 C 30.618 -2.66709 -2.4269 0
M  V30 323 O 29.722 -2.24456 -3.45967 0
M  V30 324 H 29.063 -0.539921 -0.386499 0
M  V30 325 H 31.593 -1.94767 -0.626645 0
M  V30 326 H 31.603 -2.88245 -2.88754 0
M  V30 327 H 30.278 -3.63727 -2.01682 0
M  V30 328 H 28.855 -2.13168 -3.05964 0
M  V30 329 N 31.0401 0.771051 -1.3745 0
M  V30 330 C 32.0031 1.86598 -1.33093 0
M  V30 331 C 33.0031 1.59076 -0.234845 0
M  V30 332 O 34.1931 1.67145 -0.490732 0
M  V30 333 C 31.3251 3.23747 -1.06773 0
M  V30 334 H 32.5181 1.91873 -2.30488 0
M  V30 335 H 30.0711 0.970876 -1.2249 0
M  V30 336 H 30.8061 3.24148 -0.099129 0
M  V30 337 H 30.5911 3.45115 -1.86112 0
M  V30 338 H 32.0811 4.03824 -1.06377 0
M  V30 339 N 32.5182 1.22032 0.997298 0
M  V30 340 C 33.4282 1.00271 2.12092 0
M  V30 341 C 34.4442 -0.047621 1.73935 0
M  V30 342 O 35.6202 0.144136 2.00884 0
M  V30 343 C 32.6852 0.578449 3.4184 0
M  V30 344 C 31.7462 1.70189 3.94125 0
M  V30 345 C 30.9792 1.29778 5.17681 0
M  V30 346 O 31.2022 0.174676 5.70132 0
M  V30 347 O 30.1362 2.11261 5.63607 0
M  V30 348 H 33.9622 1.94398 2.3333 0
M  V30 349 H 31.5472 1.00587 1.10465 0
M  V30 350 H 33.4292 0.351998 4.19927 0
M  V30 351 H 32.1042 -0.334019 3.21972 0
M  V30 352 H 31.0112 1.98282 3.1723 0
M  V30 353 H 32.3442 2.59206 4.18417 0
M  V30 354 N 33.9963 -1.19345 1.0293 0
M  V30 355 C 34.9283 -2.22036 0.56857 0
M  V30 356 C 35.9413 -1.58865 -0.355779 0
M  V30 357 O 37.1303 -1.77851 -0.152103 0
M  V30 358 C 34.2303 -3.38363 -0.190752 0
M  V30 359 C 33.4033 -4.31118 0.738643 0
M  V30 360 C 32.4623 -5.26194 0.0246497 0
M  V30 361 O 31.4883 -5.65461 0.651354 0
M  V30 362 N 32.6903 -5.66971 -1.24594 0
M  V30 363 H 35.4553 -2.6219 1.45177 0
M  V30 364 H 33.0163 -1.34015 0.908381 0
M  V30 365 H 35.0083 -3.98981 -0.677961 0
M  V30 366 H 33.5783 -2.96994 -0.975366 0
M  V30 367 H 32.7983 -3.68276 1.40593 0
M  V30 368 H 34.0863 -4.90001 1.37029 0
M  V30 369 H 33.4843 -5.37104 -1.77583 0
M  V30 370 H 32.0413 -6.2984 -1.67764 0
M  V30 371 N 35.4744 -0.807222 -1.35358 0
M  V30 372 C 36.7224 -0.387122 -1.98358 0
M  V30 373 C 37.0434 1.04942 -1.64354 0
M  V30 374 O 36.3134 1.72615 -0.926339 0
M  V30 375 H 34.8934 -0.140154 -0.733734 0
M  V30 376 H 37.5554 -1.0332 -1.6526 0
M  V30 377 H 36.6514 -0.493352 -3.08176 0
M  V30 378 N 36.9525 1.47285 -0.560781 0
M  V30 379 C 37.8625 2.33846 0.187954 0
M  V30 380 C 38.8785 1.48412 0.908293 0
M  V30 381 O 40.0545 1.81332 0.876388 0
M  V30 382 C 37.1195 3.25178 1.2025 0
M  V30 383 C 36.1805 4.26504 0.489208 0
M  V30 384 C 35.4135 5.13472 1.45542 0
M  V30 385 O 35.6365 5.02959 2.6905 0
M  V30 386 O 34.5705 5.93902 0.977963 0
M  V30 387 H 38.3965 2.99177 -0.522177 0
M  V30 388 H 35.9815 1.45903 -0.321364 0
M  V30 389 H 37.8635 3.81584 1.78805 0
M  V30 390 H 36.5385 2.6247 1.89449 0
M  V30 391 H 35.4455 3.73847 -0.137627 0
M  V30 392 H 36.7785 4.91935 -0.161399 0
M  V30 393 N 38.4306 0.297415 1.54768 0
M  V30 394 C 39.6766 -0.313376 2.00364 0
M  V30 395 C 40.0096 -1.53815 1.18553 0
M  V30 396 O 39.2846 -1.92739 0.261103 0
M  V30 397 C 39.5676 -0.673525 3.53745 0
M  V30 398 C 39.4206 0.560133 4.46299 0
M  V30 399 C 40.7396 -1.50143 4.13697 0
M  V30 400 H 37.8586 -0.112428 0.728374 0
M  V30 401 H 40.5006 0.4088 1.8555 0
M  V30 402 H 38.6506 -1.28881 3.665 0
M  V30 403 H 40.3226 1.19863 4.45455 0
M  V30 404 H 38.5656 1.19405 4.17043 0
M  V30 405 H 39.2366 0.26405 5.51368 0
M  V30 406 H 41.7126 -0.981588 4.04356 0
M  V30 407 H 40.5886 -1.72221 5.21182 0
M  V30 408 H 40.8496 -2.48952 3.65343 0
M  V30 409 N 39.9087 -1.5758 0.0250728 0
M  V30 410 C 40.8187 -2.1343 -0.973905 0
M  V30 411 C 41.8347 -1.08556 -1.35984 0
M  V30 412 O 43.0107 -1.40592 -1.44207 0
M  V30 413 C 40.0757 -2.64703 -2.23904 0
M  V30 414 C 39.1367 -3.84276 -1.91391 0
M  V30 415 C 38.3697 -4.33095 -3.11873 0
M  V30 416 O 38.5927 -3.81107 -4.24398 0
M  V30 417 O 37.5267 -5.24984 -2.94406 0
M  V30 418 H 41.3527 -2.99057 -0.529036 0
M  V30 419 H 38.9377 -1.48118 -0.195288 0
M  V30 420 H 40.8197 -2.97769 -2.98181 0
M  V30 421 H 39.4947 -1.82161 -2.6758 0
M  V30 422 H 38.4017 -3.56143 -1.14511 0
M  V30 423 H 39.7347 -4.67968 -1.52534 0
M  V30 424 N 41.3868 0.248026 -1.55636 0
M  V30 425 C 42.3348 1.32683 -1.91045 0
M  V30 426 C 43.3288 1.49883 -0.789401 0
M  V30 427 O 44.5348 1.51371 -0.974007 0
M  V30 428 H 40.9098 0.444272 -0.606734 0
M  V30 429 H 42.8808 1.00085 -2.81115 0
M  V30 430 C 41.6298 2.6755 -2.22064 0
M  V30 431 H 40.9528 2.55114 -3.07826 0
M  V30 432 H 42.3928 3.41912 -2.50743 0
M  V30 433 C 40.8518 3.20556 -1.0366 0
M  V30 434 O 41.3818 4.00695 -0.284016 0
M  V30 435 N 39.5878 2.78568 -0.82753 0
M  V30 436 H 39.1348 2.1351 -1.44123 0
M  V30 437 H 39.0928 3.14378 -0.0369803 0
M  V30 438 N 42.8649 1.48995 0.513639 0
M  V30 439 C 44.1129 1.57531 1.26604 0
M  V30 440 C 44.4339 0.258236 1.93283 0
M  V30 441 O 43.7039 -0.721502 1.8213 0
M  V30 442 H 42.2839 0.580387 0.470276 0
M  V30 443 H 44.9459 1.85552 0.596373 0
M  V30 444 H 44.0419 2.36486 2.03669 0
M  V30 445 N 44.343 -0.763751 1.37857 0
M  V30 446 C 45.759 -1.06542 1.18832 0
M  V30 447 C 45.959 -2.01478 0.0299722 0
M  V30 448 O 45.015 -2.4458 -0.627447 0
M  V30 449 C 46.328 -1.65525 2.51042 0
M  V30 450 C 47.876 -1.77745 2.57635 0
M  V30 451 C 48.351 -2.4014 3.89996 0
M  V30 452 N 49.842 -2.47582 3.91481 0
M  V30 453 C 50.577 -2.96732 4.9065 0
M  V30 454 N 50.073 -3.45993 6.00217 0
M  V30 455 N 51.866 -2.95679 4.78048 0
M  V30 456 H 44.017 -0.133556 2.1198 0
M  V30 457 H 46.28 -0.121879 0.940133 0
M  V30 458 H 45.986 -1.03236 3.36207 0
M  V30 459 H 45.86 -2.64719 2.68707 0
M  V30 460 H 48.247 -2.39164 1.72872 0
M  V30 461 H 48.328 -0.772836 2.43846 0
M  V30 462 H 47.972 -1.79358 4.75177 0
M  V30 463 H 47.902 -3.41223 4.01092 0
M  V30 464 H 50.393 -2.1273 3.12337 0
M  V30 465 H 50.706 -3.81922 6.7183 0
M  V30 466 H 49.051 -3.44077 6.03851 0
M  V30 467 H 52.242 -2.56499 3.91568 0
M  V30 468 H 52.415 -3.33672 5.55488 0
M  V30 469 N 45.8211 -1.22559 -0.990812 0
M  V30 470 C 47.0611 -1.06302 -1.74583 0
M  V30 471 C 47.4251 0.394737 -1.87898 0
M  V30 472 O 48.6261 0.678214 -2.60103 0
M  V30 473 C 46.8971 -1.75699 -3.11231 0
M  V30 474 S 48.4561 -1.74882 -4.02445 0
M  V30 475 H 45.2741 -0.380639 -0.600529 0
M  V30 476 H 47.8761 -1.55532 -1.18449 0
M  V30 477 H 46.5801 -2.80923 -2.99183 0
M  V30 478 H 46.1111 -1.26708 -3.72436 0
M  V30 479 H 48.1261 -0.799997 -4.89709 0
M  V30 480 N 47.2992 1.18797 -1.03562 0
M  V30 481 C 48.5482 1.87978 -0.731235 0
M  V30 482 C 48.8612 1.80911 0.743671 0
M  V30 483 O 50.0672 2.45407 1.16137 0
M  V30 484 C 48.5232 3.3721 -1.25768 0
M  V30 485 C 48.1312 3.52818 -2.76085 0
M  V30 486 C 49.8752 4.11825 -1.0296 0
M  V30 487 C 47.7822 4.9598 -3.22114 0
M  V30 488 H 46.7122 0.704063 -0.269835 0
M  V30 489 H 49.3632 1.34266 -1.25079 0
M  V30 490 H 47.7452 3.90359 -0.666011 0
M  V30 491 H 48.9192 3.09965 -3.40966 0
M  V30 492 H 47.2342 2.91602 -2.97249 0
M  V30 493 H 49.8312 5.17411 -1.34869 0
M  V30 494 H 50.1742 4.16287 0.0333546 0
M  V30 495 H 50.7072 3.64833 -1.58562 0
M  V30 496 H 47.4462 4.96684 -4.27768 0
M  V30 497 H 46.9662 5.39569 -2.61965 0
M  V30 498 H 48.6452 5.6467 -3.15844 0
M  V30 499 N 48.7773 0.814389 1.34928 0
M  V30 500 C 50.0053 0.411136 2.02774 0
M  V30 501 C 50.4203 -0.980316 1.61354 0
M  V30 502 O 49.7773 -1.63299 0.814847 0
M  V30 503 C 49.8283 0.493865 3.58111 0
M  V30 504 O 49.5493 1.83047 3.98027 0
M  V30 505 C 51.0503 0.0844174 4.4322 0
M  V30 506 H 48.2703 0.166037 0.650133 0
M  V30 507 H 50.8143 1.10018 1.72384 0
M  V30 508 H 48.9693 -0.147006 3.87121 0
M  V30 509 H 49.3833 1.79872 4.92693 0
M  V30 510 H 50.8573 0.193404 5.51661 0
M  V30 511 H 51.3343 -0.97113 4.28329 0
M  V30 512 H 51.9403 0.69875 4.19521 0
M  V30 513 N 50.2554 -1.46986 0.568584 0
M  V30 514 C 51.2024 -2.30153 -0.172707 0
M  V30 515 C 52.1724 -1.39759 -0.897586 0
M  V30 516 O 53.3574 -1.68716 -0.891044 0
M  V30 517 C 50.4974 -3.23952 -1.1895 0
M  V30 518 C 49.6104 -4.29441 -0.469517 0
M  V30 519 C 48.7454 -5.1038 -1.47259 0
M  V30 520 C 47.7844 -6.07632 -0.738225 0
M  V30 521 N 46.9214 -6.8149 -1.68868 0
M  V30 522 H 51.7614 -2.93019 0.542596 0
M  V30 523 H 49.2984 -1.44422 0.279401 0
M  V30 524 H 51.2564 -3.76767 -1.79173 0
M  V30 525 H 49.8864 -2.62926 -1.87269 0
M  V30 526 H 48.9384 -3.79594 0.247467 0
M  V30 527 H 50.2504 -4.98689 0.105241 0
M  V30 528 H 49.4044 -5.67402 -2.14803 0
M  V30 529 H 48.1434 -4.4106 -2.08128 0
M  V30 530 H 47.1484 -5.49778 -0.0489293 0
M  V30 531 H 48.3734 -6.78966 -0.135129 0
M  V30 532 H 46.3194 -6.14891 -2.28573 0
M  V30 533 H 46.2364 -7.46948 -1.16636 0
M  V30 534 H 47.5044 -7.43078 -2.3549 0
M  V30 535 N 51.7335 -0.305618 -1.54608 0
M  V30 536 C 52.6635 0.561482 -2.26649 0
M  V30 537 C 53.6445 1.13415 -1.26772 0
M  V30 538 O 54.8295 1.16262 -1.55553 0
M  V30 539 C 51.9595 1.73122 -3.01075 0
M  V30 540 C 50.9135 1.2887 -4.08138 0
M  V30 541 C 50.2395 2.54396 -4.70305 0
M  V30 542 C 51.5395 0.416578 -5.20636 0
M  V30 543 H 53.2335 -0.0393902 -2.99374 0
M  V30 544 H 50.7795 -0.020385 -1.43986 0
M  V30 545 H 52.7325 2.34396 -3.50195 0
M  V30 546 H 51.4565 2.3584 -2.25936 0
M  V30 547 H 50.1155 0.698991 -3.59875 0
M  V30 548 H 49.7635 3.15439 -3.918 0
M  V30 549 H 49.4635 2.25486 -5.42614 0
M  V30 550 H 50.9875 3.16464 -5.2219 0
M  V30 551 H 52.4015 0.935116 -5.65622 0
M  V30 552 H 50.7985 0.221046 -5.99693 0
M  V30 553 H 51.8685 -0.557162 -4.81688 0
M  V30 554 N 53.2116 1.57565 -0.0334293 0
M  V30 555 C 54.1216 2.13943 0.962572 0
M  V30 556 C 55.1376 1.09276 1.35406 0
M  V30 557 O 56.3136 1.41355 1.4346 0
M  V30 558 C 53.3786 2.65887 2.22497 0
M  V30 559 C 52.4396 3.85286 1.8935 0
M  V30 560 C 51.6726 4.34743 3.09571 0
M  V30 561 O 51.8956 3.83352 4.22371 0
M  V30 562 O 50.8296 5.26538 2.91618 0
M  V30 563 H 54.6556 2.99333 0.513169 0
M  V30 564 H 52.2406 1.4822 0.18743 0
M  V30 565 H 54.1226 2.99346 2.96598 0
M  V30 566 H 52.7976 1.83578 2.6661 0
M  V30 567 H 51.7046 3.56746 1.1262 0
M  V30 568 H 53.0376 4.68771 1.5005 0
M  V30 569 N 54.6897 -0.239769 1.55765 0
M  V30 570 C 55.6377 -1.31668 1.91745 0
M  V30 571 C 56.6317 -1.49462 0.797338 0
M  V30 572 O 57.8377 -1.50852 0.982021 0
M  V30 573 H 54.2127 -0.441048 0.609082 0
M  V30 574 H 56.1837 -0.985923 2.81642 0
M  V30 575 C 54.9327 -2.66368 2.2348 0
M  V30 576 H 54.2557 -2.53478 3.09175 0
M  V30 577 H 55.6957 -3.40578 2.52553 0
M  V30 578 C 54.1547 -3.20002 1.05359 0
M  V30 579 O 54.6847 -4.00538 0.305261 0
M  V30 580 N 52.8907 -2.78126 0.842292 0
M  V30 581 H 52.4377 -2.12742 1.45253 0
M  V30 582 H 52.3957 -3.14354 0.053652 0
M  V30 583 N 56.1678 -1.49265 -0.50573 0
M  V30 584 C 57.1008 -1.60183 -1.62532 0
M  V30 585 C 58.0788 -0.451107 -1.56217 0
M  V30 586 O 59.2628 -0.666016 -1.76342 0
M  V30 587 C 56.3898 -1.55238 -3.01029 0
M  V30 588 C 55.4358 -2.7545 -3.25621 0
M  V30 589 S 56.2688 -4.37174 -3.09256 0
M  V30 590 C 57.4248 -4.34866 -4.50158 0
M  V30 591 H 57.6578 -2.54894 -1.53025 0
M  V30 592 H 55.1908 -1.38098 -0.690535 0
M  V30 593 H 57.1488 -1.53071 -3.80893 0
M  V30 594 H 55.8098 -0.618238 -3.07956 0
M  V30 595 H 55.0028 -2.68197 -4.26716 0
M  V30 596 H 54.6048 -2.75005 -2.53472 0
M  V30 597 H 56.8968 -4.06295 -5.42154 0
M  V30 598 H 57.8398 -5.36223 -4.62462 0
M  V30 599 H 58.2478 -3.65007 -4.30616 0
M  V30 600 N 57.6459 0.756429 -1.3826 0
M  V30 601 C 58.8939 1.51248 -1.34047 0
M  V30 602 C 59.2149 1.94875 0.0698372 0
M  V30 603 O 58.4849 1.67436 1.01696 0
M  V30 604 H 57.0649 0.561018 -0.493222 0
M  V30 605 H 59.7269 0.899347 -1.7291 0
M  V30 606 H 58.8229 2.40472 -1.98947 0
M  V30 607 N 59.124 1.23083 0.984299 0
M  V30 608 C 60.371 1.06057 1.72505 0
M  V30 609 C 60.699 -0.403105 1.90277 0
M  V30 610 O 59.954 -1.3149 1.44944 0
M  V30 611 C 60.253 1.72673 3.1292 0
M  V30 612 C 59.919 3.22586 3.15038 0
M  V30 613 C 58.581 3.63489 3.15324 0
M  V30 614 C 60.933 4.185 3.10657 0
M  V30 615 C 58.261 4.98772 3.08939 0
M  V30 616 C 60.613 5.53769 3.05814 0
M  V30 617 C 59.277 5.94041 3.04419 0
M  V30 618 H 58.547 0.388091 0.631242 0
M  V30 619 H 61.194 1.52963 1.15215 0
M  V30 620 H 59.499 1.18116 3.73572 0
M  V30 621 H 61.196 1.56982 3.68996 0
M  V30 622 H 57.786 2.90022 3.15571 0
M  V30 623 H 61.97 3.87911 3.09579 0
M  V30 624 H 57.226 5.29193 3.0621 0
M  V30 625 H 61.4 6.27808 3.0138 0
M  V30 626 H 59.027 6.98833 2.99227 0
M  V30 627 N 60.6021 -1.18246 1.0419 0
M  V30 628 C 62.0181 -1.40269 0.761366 0
M  V30 629 C 62.2181 -1.90777 -0.648578 0
M  V30 630 O 61.2741 -2.0929 -1.41258 0
M  V30 631 C 62.5871 -2.40237 1.8085 0
M  V30 632 C 64.1351 -2.53961 1.82955 0
M  V30 633 C 64.6101 -3.57194 2.86664 0
M  V30 634 N 66.1011 -3.64702 2.85563 0
M  V30 635 C 66.8361 -4.44309 3.6246 0
M  V30 636 N 66.3321 -5.27514 4.49111 0
M  V30 637 N 68.1251 -4.39084 3.50944 0
M  V30 638 H 60.2761 -0.837882 1.95175 0
M  V30 639 H 62.5391 -0.430608 0.84456 0
M  V30 640 H 62.2451 -2.10176 2.81991 0
M  V30 641 H 62.1191 -3.39601 1.64168 0
M  V30 642 H 64.5061 -2.83338 0.824855 0
M  V30 643 H 64.5871 -1.54706 2.03715 0
M  V30 644 H 64.2311 -3.28558 3.87314 0
M  V30 645 H 64.1611 -4.5613 2.6316 0
M  V30 646 H 66.6521 -3.05289 2.22727 0
M  V30 647 H 66.9651 -5.85411 5.04493 0
M  V30 648 H 65.3101 -5.2693 4.53178 0
M  V30 649 H 68.5011 -3.7313 2.82651 0
M  V30 650 H 68.6741 -5.00883 4.11121 0
M  V30 651 N 62.0802 -0.821533 -1.34494 0
M  V30 652 C 63.3262 -0.409552 -1.98622 0
M  V30 653 C 63.6592 1.0244 -1.64984 0
M  V30 654 O 62.9342 1.71325 -0.920758 0
M  V30 655 C 63.2172 -0.610458 -3.54888 0
M  V30 656 C 63.0702 -2.09043 -3.98273 0
M  V30 657 C 64.3892 -0.0455379 -4.40076 0
M  V30 658 H 61.5082 -0.15028 -0.721516 0
M  V30 659 H 64.1502 -1.03384 -1.59411 0
M  V30 660 H 62.3002 -0.079044 -3.8842 0
M  V30 661 H 63.9722 -2.68537 -3.75081 0
M  V30 662 H 62.2152 -2.58139 -3.48635 0
M  V30 663 H 62.8862 -2.18182 -5.07051 0
M  V30 664 H 65.3622 -0.499557 -4.1309 0
M  V30 665 H 64.2382 -0.215922 -5.48475 0
M  V30 666 H 64.4992 1.04939 -4.29465 0
M  V30 667 N 63.5583 1.46682 -0.576371 0
M  V30 668 C 64.8063 2.02013 -0.0594163 0
M  V30 669 C 65.1273 1.45101 1.30271 0
M  V30 670 O 64.3973 0.633317 1.8538 0
M  V30 671 H 62.9773 0.746759 -0.0189745 0
M  V30 672 H 65.6393 1.79862 -0.750717 0
M  V30 673 H 64.7353 3.12097 0.014345 0
M  V30 674 N 65.0364 0.313813 1.54444 0
M  V30 675 C 65.9684 -0.590425 2.21465 0
M  V30 676 C 66.9814 -1.08753 1.21147 0
M  V30 677 O 68.1704 -1.00278 1.4767 0
M  V30 678 C 65.2704 -1.82179 2.85769 0
M  V30 679 C 64.4434 -1.46502 4.12136 0
M  V30 680 C 63.5024 -2.55288 4.60124 0
M  V30 681 O 62.5284 -2.19842 5.25032 0
M  V30 682 N 63.7304 -3.86053 4.33525 0
M  V30 683 H 66.4954 -0.0166033 2.99695 0
M  V30 684 H 64.0564 0.136578 1.61323 0
M  V30 685 H 66.0484 -2.54328 3.14801 0
M  V30 686 H 64.6184 -2.30369 2.11303 0
M  V30 687 H 63.8384 -0.575595 3.89975 0
M  V30 688 H 65.1264 -1.20221 4.94393 0
M  V30 689 H 64.5244 -4.17654 3.81552 0
M  V30 690 H 63.0814 -4.54461 4.67235 0
M  V30 691 N 66.5145 -1.57545 0.0417849 0
M  V30 692 C 67.7625 -1.91937 -0.632829 0
M  V30 693 C 68.0835 -0.919978 -1.71934 0
M  V30 694 O 67.3535 0.0366064 -1.95866 0
M  V30 695 H 65.9335 -0.708493 -0.236742 0
M  V30 696 H 68.5955 -1.9468 0.0925745 0
M  V30 697 H 67.6915 -2.92912 -1.07746 0
M  V30 698 N 67.9926 0.231505 -1.5589 0
M  V30 699 C 68.9226 1.29022 -1.94617 0
M  V30 700 C 69.9036 1.4941 -0.813067 0
M  V30 701 O 71.0886 1.6176 -1.07459 0
M  V30 702 C 68.2186 2.64199 -2.25424 0
M  V30 703 C 67.1726 2.58484 -3.41131 0
M  V30 704 C 66.4986 3.97599 -3.57518 0
M  V30 705 C 67.7986 2.1413 -4.76388 0
M  V30 706 H 69.4926 0.968563 -2.83301 0
M  V30 707 H 67.0386 0.464479 -1.36303 0
M  V30 708 H 68.9916 3.38413 -2.51107 0
M  V30 709 H 67.7156 2.98032 -1.33583 0
M  V30 710 H 66.3746 1.86727 -3.15481 0
M  V30 711 H 66.0226 4.28723 -2.6307 0
M  V30 712 H 65.7226 3.94659 -4.35337 0
M  V30 713 H 67.2466 4.7349 -3.85538 0
M  V30 714 H 68.6606 2.78083 -5.01341 0
M  V30 715 H 67.0576 2.2227 -5.57419 0
M  V30 716 H 68.1276 1.09331 -4.72414 0
M  V30 717 N 69.4707 1.49531 0.497807 0
M  V30 718 C 70.7197 1.58426 1.24837 0
M  V30 719 C 71.0327 0.277643 1.93619 0
M  V30 720 O 72.2387 0.24517 2.70391 0
M  V30 721 C 70.6947 2.79538 2.26686 0
M  V30 722 C 70.3027 4.16971 1.63828 0
M  V30 723 C 72.0467 2.97764 3.0255 0
M  V30 724 C 69.9537 5.29301 2.63807 0
M  V30 725 H 68.8837 0.58989 0.469623 0
M  V30 726 H 71.5347 1.75923 0.521857 0
M  V30 727 H 69.9167 2.55542 3.02514 0
M  V30 728 H 71.0907 4.51116 0.939711 0
M  V30 729 H 69.4057 4.04129 1.00342 0
M  V30 730 H 72.0027 3.78856 3.77323 0
M  V30 731 H 72.3457 2.08448 3.60354 0
M  V30 732 H 72.8787 3.21815 2.33838 0
M  V30 733 H 69.6177 6.20687 2.10779 0
M  V30 734 H 69.1377 4.99606 3.31894 0
M  V30 735 H 70.8167 5.58768 3.2617 0
M  V30 736 N 70.9488 -0.749086 1.3866 0
M  V30 737 C 71.8588 -1.89358 1.38494 0
M  V30 738 C 72.8748 -1.71708 0.281476 0
M  V30 739 O 74.0508 -1.94554 0.520643 0
M  V30 740 C 71.1158 -3.24782 1.21316 0
M  V30 741 C 70.1768 -3.54926 2.41508 0
M  V30 742 C 69.4098 -4.83888 2.2514 0
M  V30 743 O 69.6328 -5.56592 1.24746 0
M  V30 744 O 68.5668 -5.13612 3.13826 0
M  V30 745 H 72.3928 -1.92452 2.34938 0
M  V30 746 H 69.9778 -0.894981 1.19626 0
M  V30 747 H 71.8598 -4.05739 1.13814 0
M  V30 748 H 70.5348 -3.2249 0.279592 0
M  V30 749 H 69.4418 -2.74112 2.54585 0
M  V30 750 H 70.7748 -3.61983 3.3351 0
M  V30 751 N 72.4269 -1.23603 -0.977757 0
M  V30 752 C 73.8429 -0.999251 -1.24447 0
M  V30 753 C 74.0429 0.298053 -1.99283 0
M  V30 754 O 73.0989 1.01681 -2.31122 0
M  V30 755 C 74.4119 -2.20784 -2.04144 0
M  V30 756 C 75.9599 -2.25303 -2.17273 0
M  V30 757 C 76.4349 -3.45755 -3.00362 0
M  V30 758 N 77.9259 -3.4601 -3.07947 0
M  V30 759 C 78.6609 -4.35868 -3.72568 0
M  V30 760 N 78.1569 -5.35966 -4.38991 0
M  V30 761 N 79.9499 -4.23605 -3.6948 0
M  V30 762 H 72.1009 -2.06986 -0.476483 0
M  V30 763 H 74.3639 -0.907801 -0.273134 0
M  V30 764 H 74.0699 -3.14945 -1.56533 0
M  V30 765 H 73.9439 -2.22085 -3.04891 0
M  V30 766 H 76.3309 -1.3168 -2.64092 0
M  V30 767 H 76.4119 -2.28033 -1.15907 0
M  V30 768 H 76.0559 -4.39687 -2.5424 0
M  V30 769 H 75.9859 -3.40266 -4.01904 0
M  V30 770 H 78.4769 -2.73588 -2.60688 0
M  V30 771 H 78.7899 -6.00783 -4.86086 0
M  V30 772 H 77.1349 -5.39863 -4.37691 0
M  V30 773 H 80.3259 -3.44647 -3.16759 0
M  V30 774 H 80.4989 -4.93836 -4.1956 0
M  V30 775 N 73.905 1.17692 -1.04816 0
M  V30 776 C 75.152 1.87859 -0.75599 0
M  V30 777 C 75.48 1.80812 0.716752 0
M  V30 778 O 74.735 1.20819 1.53952 0
M  V30 779 C 75.034 3.37462 -1.17703 0
M  V30 780 C 74.7 3.64713 -2.65133 0
M  V30 781 C 73.362 3.71859 -3.05408 0
M  V30 782 C 75.714 3.76492 -3.60421 0
M  V30 783 C 73.042 3.88271 -4.39843 0
M  V30 784 C 75.394 3.94421 -4.94585 0
M  V30 785 C 74.058 3.99806 -5.3452 0
M  V30 786 H 73.328 0.687425 -0.276636 0
M  V30 787 H 75.975 1.39255 -1.31455 0
M  V30 788 H 74.28 3.88097 -0.537395 0
M  V30 789 H 75.977 3.90109 -0.928218 0
M  V30 790 H 72.567 3.59772 -2.32942 0
M  V30 791 H 76.751 3.70295 -3.30447 0
M  V30 792 H 72.007 3.90687 -4.70291 0
M  V30 793 H 76.181 4.02477 -5.68318 0
M  V30 794 H 73.808 4.12276 -6.38696 0
M  V30 795 N 75.3831 0.828654 1.34056 0
M  V30 796 C 76.6111 0.43262 2.02326 0
M  V30 797 C 77.0261 -0.963147 1.62385 0
M  V30 798 O 76.3831 -1.62425 0.832121 0
M  V30 799 C 76.4341 0.53182 3.57567 0
M  V30 800 O 76.1551 1.87258 3.96063 0
M  V30 801 C 77.6561 0.131422 4.43105 0
M  V30 802 H 74.8761 0.172923 0.648335 0
M  V30 803 H 77.4201 1.1184 1.71208 0
M  V30 804 H 75.5751 -0.105938 3.87255 0
M  V30 805 H 75.9891 1.85087 4.90758 0
M  V30 806 H 77.4631 0.251904 5.51425 0
M  V30 807 H 77.9401 -0.925645 4.29335 0
M  V30 808 H 78.5461 0.743207 4.18756 0
M  V30 809 N 76.8612 -1.46375 0.584142 0
M  V30 810 C 77.8082 -2.30323 -0.148286 0
M  V30 811 C 78.7782 -1.40703 -0.882713 0
M  V30 812 O 79.9632 -1.69651 -0.873099 0
M  V30 813 C 77.1032 -3.25196 -1.15507 0
M  V30 814 C 76.2162 -4.29915 -0.423943 0
M  V30 815 C 75.3512 -5.11914 -1.41838 0
M  V30 816 C 74.3902 -6.08381 -0.673736 0
M  V30 817 N 73.5272 -6.83242 -1.6163 0
M  V30 818 H 78.3672 -2.92427 0.573644 0
M  V30 819 H 75.9042 -1.44118 0.294703 0
M  V30 820 H 77.8622 -3.78646 -1.75166 0
M  V30 821 H 76.4922 -2.64898 -1.8447 0
M  V30 822 H 75.5442 -3.7931 0.287714 0
M  V30 823 H 76.8562 -4.98549 0.158128 0
M  V30 824 H 76.0102 -5.69648 -2.08773 0
M  V30 825 H 74.7492 -4.43243 -2.03438 0
M  V30 826 H 73.7542 -5.49799 0.00938483 0
M  V30 827 H 74.9792 -6.79071 -0.0631082 0
M  V30 828 H 72.9252 -6.1728 -2.22038 0
M  V30 829 H 72.8422 -7.48144 -1.08707 0
M  V30 830 H 74.1102 -7.45534 -2.27596 0
M  V30 831 N 78.3393 -0.321999 -1.54275 0
M  V30 832 C 79.6163 0.335232 -1.92706 0
M  V30 833 C 79.9963 1.70006 -1.25145 0
M  V30 834 O 79.3443 2.25067 -0.394596 0
M  V30 835 C 79.5543 0.429008 -3.46353 0
M  V30 836 C 80.9023 0.690029 -4.18956 0
M  V30 837 O 81.9263 0.511992 -3.52501 0
M  V30 838 O 80.7853 1.03338 -5.36641 0
M  V30 839 H 77.8793 0.191143 -0.804608 0
M  V30 840 H 80.4253 -0.3716 -1.65581 0
M  V30 841 H 79.1973 -0.529611 -3.87699 0
M  V30 842 H 78.8203 1.18348 -3.79578 0
M  V30 843 N 79.8174 1.5752 -0.0501392 0
M  V30 844 C 81.0454 1.96963 0.633492 0
M  V30 845 C 81.4604 0.927631 1.6444 0
M  V30 846 O 80.8174 -0.0882665 1.82286 0
M  V30 847 C 80.8684 3.36487 1.32132 0
M  V30 848 O 80.5894 4.36693 0.350894 0
M  V30 849 C 82.0904 3.90682 2.09481 0
M  V30 850 H 79.3104 0.648244 0.173266 0
M  V30 851 H 81.8544 2.0417 -0.116134 0
M  V30 852 H 80.0094 3.30434 2.02218 0
M  V30 853 H 80.4234 5.17702 0.841735 0
M  V30 854 H 81.8974 4.90591 2.5303 0
M  V30 855 H 82.3744 3.26053 2.94255 0
M  V30 856 H 82.9804 4.00069 1.44307 0
M  V30 857 N 81.2955 -0.223234 1.56011 0
M  V30 858 C 82.2585 -1.26014 1.9145 0
M  V30 859 C 83.2585 -1.3989 0.792937 0
M  V30 860 O 84.4485 -1.38184 1.0607 0
M  V30 861 C 81.5805 -2.63422 2.16383 0
M  V30 862 H 82.7735 -0.95796 2.84189 0
M  V30 863 H 80.3265 -0.463576 1.49267 0
M  V30 864 H 81.0615 -2.98741 1.2619 0
M  V30 865 H 80.8465 -2.54728 2.98088 0
M  V30 866 H 82.3365 -3.38249 2.44903 0
M  V30 867 N 82.7736 -1.49793 -0.48987 0
M  V30 868 C 84.1896 -1.36803 -0.822022 0
M  V30 869 C 84.3896 -0.409652 -1.97292 0
M  V30 870 O 83.4456 0.154614 -2.52026 0
M  V30 871 C 84.7586 -2.77768 -1.15175 0
M  V30 872 C 86.3066 -2.86549 -1.25931 0
M  V30 873 C 86.7816 -4.28306 -1.62228 0
M  V30 874 N 88.2726 -4.31169 -1.69256 0
M  V30 875 C 89.0076 -5.37832 -1.98807 0
M  V30 876 N 88.5036 -6.54726 -2.26507 0
M  V30 877 N 90.2966 -5.25258 -2.00152 0
M  V30 878 H 82.4476 -2.10691 0.268881 0
M  V30 879 H 84.7106 -0.946241 0.057728 0
M  V30 880 H 84.4166 -3.49648 -0.379335 0
M  V30 881 H 84.2906 -3.13836 -2.09253 0
M  V30 882 H 86.6776 -2.14899 -2.02243 0
M  V30 883 H 86.7586 -2.54049 -0.298776 0
M  V30 884 H 86.4026 -5.00486 -0.864622 0
M  V30 885 H 86.3326 -4.58279 -2.594 0
M  V30 886 H 88.8236 -3.4687 -1.49965 0
M  V30 887 H 89.1366 -7.31833 -2.48276 0
M  V30 888 H 87.4816 -6.57933 -2.23939 0
M  V30 889 H 90.6726 -4.32938 -1.77996 0
M  V30 890 H 90.8456 -6.08476 -2.22848 0
M  V30 891 N 84.2517 0.741722 -1.39055 0
M  V30 892 C 85.4987 1.50114 -1.35912 0
M  V30 893 C 85.8267 1.94443 0.0470937 0
M  V30 894 O 85.0817 1.66612 1.02659 0
M  V30 895 C 85.3807 2.7592 -2.27163 0
M  V30 896 C 85.0467 2.50493 -3.74919 0
M  V30 897 C 83.7087 2.43267 -4.1518 0
M  V30 898 C 86.0607 2.28585 -4.684 0
M  V30 899 C 83.3887 2.12166 -5.46994 0
M  V30 900 C 85.7407 1.99002 -6.00484 0
M  V30 901 C 84.4047 1.90241 -6.39816 0
M  V30 902 H 83.6747 0.549306 -0.497336 0
M  V30 903 H 86.3217 0.851896 -1.71508 0
M  V30 904 H 84.6267 3.45553 -1.84663 0
M  V30 905 H 86.3237 3.33923 -2.22028 0
M  V30 906 H 82.9137 2.56992 -3.43006 0
M  V30 907 H 87.0977 2.33139 -4.38132 0
M  V30 908 H 82.3537 2.03901 -5.76398 0
M  V30 909 H 86.5277 1.81057 -6.72452 0
M  V30 910 H 84.1547 1.65907 -7.41875 0
M  V30 911 N 85.7298 1.2412 0.971189 0
M  V30 912 C 86.6768 1.0305 2.06517 0
M  V30 913 C 87.6468 -0.0550666 1.66009 0
M  V30 914 O 88.8318 0.0988688 1.90544 0
M  V30 915 C 85.9718 0.637653 3.39158 0
M  V30 916 C 85.0848 1.79633 3.92882 0
M  V30 917 C 84.2198 1.34939 5.13775 0
M  V30 918 C 83.2588 2.47823 5.59687 0
M  V30 919 N 82.3958 2.04022 6.71803 0
M  V30 920 H 87.2358 1.96685 2.23873 0
M  V30 921 H 84.7728 0.979694 1.09729 0
M  V30 922 H 86.7308 0.390931 4.15364 0
M  V30 923 H 85.3608 -0.261693 3.21737 0
M  V30 924 H 84.4128 2.15681 3.13346 0
M  V30 925 H 85.7248 2.64466 4.22918 0
M  V30 926 H 84.8788 1.06134 5.97345 0
M  V30 927 H 83.6178 0.471557 4.85415 0
M  V30 928 H 82.6228 2.77392 4.74693 0
M  V30 929 H 83.8478 3.36158 5.90063 0
M  V30 930 H 81.7938 1.18632 6.45184 0
M  V30 931 H 81.7108 2.82409 7.01271 0
M  V30 932 H 82.9788 1.78347 7.58823 0
M  V30 933 N 87.2079 -1.17134 1.05439 0
M  V30 934 C 88.4849 -1.83411 0.679699 0
M  V30 935 C 88.8649 -1.9368 -0.839726 0
M  V30 936 O 88.2129 -1.47325 -1.74664 0
M  V30 937 C 88.4229 -3.20918 1.37159 0
M  V30 938 C 89.7709 -3.96796 1.51123 0
M  V30 939 O 90.7949 -3.30406 1.3308 0
M  V30 940 O 89.6539 -5.15778 1.80651 0
M  V30 941 H 86.7479 -0.79154 0.239569 0
M  V30 942 H 89.2939 -1.24411 1.15413 0
M  V30 943 H 88.0659 -3.08428 2.40807 0
M  V30 944 H 87.6889 -3.87587 0.886674 0
M  V30 945 N 88.686 -0.835752 -1.33615 0
M  V30 946 C 89.596 -0.269088 -2.33052 0
M  V30 947 C 90.612 0.603251 -1.63208 0
M  V30 948 O 91.788 0.508112 -1.94885 0
M  V30 949 C 88.853 0.549091 -3.42324 0
M  V30 950 C 87.914 -0.347156 -4.27894 0
M  V30 951 C 87.147 0.43207 -5.31948 0
M  V30 952 O 87.37 1.66409 -5.45586 0
M  V30 953 O 86.304 -0.192298 -6.01593 0
M  V30 954 H 90.13 -1.09243 -2.83372 0
M  V30 955 H 87.715 -0.598198 -1.36901 0
M  V30 956 H 89.597 1.01414 -4.09015 0
M  V30 957 H 88.272 1.34955 -2.94226 0
M  V30 958 H 87.179 -0.859979 -3.64081 0
M  V30 959 H 88.512 -1.1123 -4.79467 0
M  V30 960 N 90.1641 1.46063 -0.591896 0
M  V30 961 C 91.0941 2.33172 0.123673 0
M  V30 962 C 92.0751 1.45897 0.87453 0
M  V30 963 O 93.2601 1.74698 0.848181 0
M  V30 964 C 90.3901 3.28336 1.13194 0
M  V30 965 C 89.3441 4.25124 0.495324 0
M  V30 966 C 88.6701 5.09863 1.61071 0
M  V30 967 C 89.9701 5.19143 -0.573425 0
M  V30 968 H 91.6641 2.93252 -0.603646 0
M  V30 969 H 89.2101 1.41014 -0.291741 0
M  V30 970 H 91.1631 3.88137 1.64097 0
M  V30 971 H 89.8871 2.66383 1.88965 0
M  V30 972 H 88.5461 3.66599 0.00729452 0
M  V30 973 H 88.1941 4.44288 2.35832 0
M  V30 974 H 87.8941 5.75417 1.19035 0
M  V30 975 H 89.4181 5.72529 2.12233 0
M  V30 976 H 90.8321 5.73106 -0.1491 0
M  V30 977 H 89.2291 5.93089 -0.914636 0
M  V30 978 H 90.2991 4.62519 -1.45617 0
M  V30 979 N 91.6422 0.330177 1.54103 0
M  V30 980 C 92.9192 -0.325007 1.92881 0
M  V30 981 C 93.2992 -1.6934 1.26045 0
M  V30 982 O 92.6472 -2.24855 0.406526 0
M  V30 983 C 92.8572 -0.410634 3.46576 0
M  V30 984 C 94.2052 -0.667801 4.19316 0
M  V30 985 O 95.2292 -0.49329 3.52768 0
M  V30 986 O 94.0882 -1.00491 5.37181 0
M  V30 987 H 91.1822 -0.186873 0.80561 0
M  V30 988 H 93.7282 0.380376 1.65382 0
M  V30 989 H 92.5002 0.550164 3.87413 0
M  V30 990 H 92.1232 -1.16333 3.802 0
M  V30 991 N 93.1203 -1.57491 0.0584922 0
M  V30 992 C 94.3693 -1.92155 -0.613146 0
M  V30 993 C 94.6823 -0.939334 -1.71569 0
M  V30 994 O 95.8883 -1.17829 -2.44599 0
M  V30 995 C 94.3443 -3.41303 -1.14195 0
M  V30 996 C 93.9523 -4.47944 -0.0711265 0
M  V30 997 C 95.6963 -3.84988 -1.78841 0
M  V30 998 C 93.6033 -5.88212 -0.613225 0
M  V30 999 H 92.5333 -0.717162 -0.232796 0
M  V30 1000 H 95.1843 -1.83049 0.12857 0
M  V30 1001 H 93.5663 -3.45437 -1.93621 0
M  V30 1002 H 94.7403 -4.55408 0.702836 0
M  V30 1003 H 93.0553 -4.13644 0.478313 0
M  V30 1004 H 95.6523 -4.87159 -2.20408 0
M  V30 1005 H 95.9953 -3.21632 -2.64308 0
M  V30 1006 H 96.5283 -3.83401 -1.06059 0
M  V30 1007 H 93.2673 -6.55183 0.203978 0
M  V30 1008 H 92.7873 -5.84294 -1.35501 0
M  V30 1009 H 94.4663 -6.37687 -1.09383 0
M  V30 1010 N 94.5984 0.214957 -1.56127 0
M  V30 1011 C 95.5314 1.29382 -1.87977 0
M  V30 1012 C 96.5094 1.44897 -0.737807 0
M  V30 1013 O 97.6934 1.60605 -0.986833 0
M  V30 1014 C 94.8204 2.66325 -2.09258 0
M  V30 1015 C 93.8664 2.67789 -3.31951 0
M  V30 1016 S 94.6994 2.21198 -4.8768 0
M  V30 1017 C 95.8554 3.60003 -5.12004 0
M  V30 1018 H 96.0884 1.02173 -2.79192 0
M  V30 1019 H 93.6214 0.417516 -1.48648 0
M  V30 1020 H 95.5794 3.45162 -2.22201 0
M  V30 1021 H 94.2404 2.90755 -1.18829 0
M  V30 1022 H 93.4334 3.68436 -3.43906 0
M  V30 1023 H 93.0354 1.9702 -3.17898 0
M  V30 1024 H 95.3274 4.55739 -5.01307 0
M  V30 1025 H 96.2704 3.52959 -6.13861 0
M  V30 1026 H 96.6784 3.53996 -4.39712 0
M  V30 1027 N 96.0765 1.50051 0.48192 0
M  V30 1028 C 97.0235 1.68122 1.58125 0
M  V30 1029 C 97.9935 0.522545 1.57666 0
M  V30 1030 O 99.1785 0.751844 1.75362 0
M  V30 1031 C 96.3185 1.77142 2.96167 0
M  V30 1032 C 95.4315 3.0444 3.06497 0
M  V30 1033 C 94.5665 3.04321 4.35387 0
M  V30 1034 C 93.6055 4.26118 4.3942 0
M  V30 1035 N 92.7425 4.238 5.59766 0
M  V30 1036 H 97.5825 2.6198 1.42022 0
M  V30 1037 H 95.1195 1.29877 0.690687 0
M  V30 1038 H 97.0775 1.80352 3.76203 0
M  V30 1039 H 95.7075 0.867329 3.1093 0
M  V30 1040 H 94.7595 3.10752 2.19402 0
M  V30 1041 H 96.0715 3.94426 3.05336 0
M  V30 1042 H 95.2255 3.062 5.23762 0
M  V30 1043 H 93.9645 2.12147 4.39141 0
M  V30 1044 H 92.9695 4.24463 3.49444 0
M  V30 1045 H 94.1945 5.19507 4.37366 0
M  V30 1046 H 92.1405 3.34474 5.64326 0
M  V30 1047 H 92.0575 5.07542 5.60301 0
M  V30 1048 H 93.3255 4.2981 6.50295 0
M  V30 1049 N 97.5546 -0.734337 1.39446 0
M  V30 1050 C 98.8016 -1.49391 1.36706 0
M  V30 1051 C 99.1296 -1.94465 -0.0367813 0
M  V30 1052 O 98.3846 -1.67154 -1.01774 0
M  V30 1053 C 98.6836 -2.74711 2.28623 0
M  V30 1054 C 98.3496 -2.48501 3.76242 0
M  V30 1055 C 97.0116 -2.41062 4.16464 0
M  V30 1056 C 99.3636 -2.26098 4.69606 0
M  V30 1057 C 96.6916 -2.09262 5.48112 0
M  V30 1058 C 99.0436 -1.95814 6.01531 0
M  V30 1059 C 97.7076 -1.86845 6.40816 0
M  V30 1060 H 96.9776 -0.546661 0.500243 0
M  V30 1061 H 99.6246 -0.842788 1.71957 0
M  V30 1062 H 97.9296 -3.44569 1.86492 0
M  V30 1063 H 99.6266 -3.32741 2.23796 0
M  V30 1064 H 96.2166 -2.55169 3.44364 0
M  V30 1065 H 100.401 -2.30812 4.39363 0
M  V30 1066 H 95.6566 -2.00841 5.77471 0
M  V30 1067 H 99.8306 -1.77488 6.73403 0
M  V30 1068 H 97.4576 -1.6197 7.42745 0
M  V30 1069 N 99.0327 -1.24633 -0.964593 0
M  V30 1070 C 100.282 -1.08188 -1.7023 0
M  V30 1071 C 100.595 0.37873 -1.91898 0
M  V30 1072 O 101.801 0.663427 -2.6327 0
M  V30 1073 C 100.257 -1.88773 -3.06419 0
M  V30 1074 C 99.8647 -3.39263 -2.92582 0
M  V30 1075 C 101.609 -1.80867 -3.84041 0
M  V30 1076 C 99.5157 -4.1218 -4.24101 0
M  V30 1077 H 98.4457 -0.401245 -0.638372 0
M  V30 1078 H 101.097 -1.48742 -1.07462 0
M  V30 1079 H 99.4787 -1.41035 -3.70034 0
M  V30 1080 H 100.653 -3.94603 -2.37961 0
M  V30 1081 H 98.9677 -3.48154 -2.28424 0
M  V30 1082 H 101.565 -2.32646 -4.81435 0
M  V30 1083 H 101.908 -0.774543 -4.09031 0
M  V30 1084 H 102.441 -2.26301 -3.27159 0
M  V30 1085 H 99.1797 -5.15965 -4.04303 0
M  V30 1086 H 98.6997 -3.61626 -4.78526 0
M  V30 1087 H 100.379 -4.19349 -4.92702 0
M  V30 1088 N 100.511 1.16574 -1.06058 0
M  V30 1089 C 101.751 1.88723 -0.78504 0
M  V30 1090 C 102.115 1.79706 0.676006 0
M  V30 1091 O 103.316 2.46757 1.06603 0
M  V30 1092 C 101.587 3.34338 -1.26304 0
M  V30 1093 S 103.146 4.24366 -1.1162 0
M  V30 1094 H 99.9638 0.651448 -0.284846 0
M  V30 1095 H 102.566 1.40732 -1.35701 0
M  V30 1096 H 101.27 3.38439 -2.32136 0
M  V30 1097 H 100.801 3.87378 -0.685719 0
M  V30 1098 H 102.816 4.96179 -0.0456539 0
M  V30 1099 N 101.989 0.842826 1.3317 0
M  V30 1100 C 102.936 0.276885 2.29133 0
M  V30 1101 C 103.906 -0.609527 1.54512 0
M  V30 1102 O 105.091 -0.546955 1.82792 0
M  V30 1103 C 102.231 -0.538707 3.40869 0
M  V30 1104 C 101.344 0.372169 4.30394 0
M  V30 1105 C 100.479 -0.454908 5.29249 0
M  V30 1106 C 99.5179 0.45411 6.10413 0
M  V30 1107 N 98.6549 -0.335075 7.013 0
M  V30 1108 H 103.495 1.10052 2.76934 0
M  V30 1109 H 101.032 0.554161 1.36262 0
M  V30 1110 H 102.99 -1.02709 4.0436 0
M  V30 1111 H 101.62 -1.32727 2.9425 0
M  V30 1112 H 100.672 0.97888 3.6759 0
M  V30 1113 H 101.984 1.0703 4.87182 0
M  V30 1114 H 101.138 -1.00695 5.98285 0
M  V30 1115 H 99.8769 -1.18646 4.73048 0
M  V30 1116 H 98.8819 1.01813 5.40291 0
M  V30 1117 H 100.107 1.18409 6.68697 0
M  V30 1118 H 98.0529 -1.04994 6.47543 0
M  V30 1119 H 97.9699 0.304262 7.55387 0
M  V30 1120 H 99.2379 -0.869224 7.74638 0
M  V30 1121 N 103.467 -1.45747 0.599634 0
M  V30 1122 C 104.744 -1.95585 0.0240846 0
M  V30 1123 C 105.124 -1.54217 -1.44154 0
M  V30 1124 O 104.472 -0.800903 -2.14004 0
M  V30 1125 C 104.682 -3.48344 0.21385 0
M  V30 1126 C 106.03 -4.24504 0.0904902 0
M  V30 1127 O 107.054 -3.55911 0.143558 0
M  V30 1128 O 105.913 -5.46491 -0.0310766 0
M  V30 1129 H 103.007 -0.82602 -0.0402478 0
M  V30 1130 H 105.553 -1.55951 0.669139 0
M  V30 1131 H 104.325 -3.71397 1.23206 0
M  V30 1132 H 103.948 -3.9485 -0.466842 0
M  V30 1133 N 104.945 -0.338344 -1.53925 0
M  V30 1134 C 106.192 0.259758 -2.00827 0
M  V30 1135 C 106.52 1.50973 -1.22628 0
M  V30 1136 O 105.775 1.93379 -0.300509 0
M  V30 1137 C 106.074 0.62448 -3.51902 0
M  V30 1138 C 105.74 -0.528006 -4.47798 0
M  V30 1139 C 104.402 -0.844298 -4.73735 0
M  V30 1140 C 106.754 -1.30143 -5.0469 0
M  V30 1141 C 104.082 -1.93648 -5.53821 0
M  V30 1142 C 106.434 -2.38382 -5.85967 0
M  V30 1143 C 105.098 -2.70576 -6.10201 0
M  V30 1144 H 104.368 0.0950523 -0.734878 0
M  V30 1145 H 107.015 -0.465182 -1.85764 0
M  V30 1146 H 105.32 1.43006 -3.64769 0
M  V30 1147 H 107.017 1.09905 -3.85645 0
M  V30 1148 H 103.607 -0.271421 -4.2774 0
M  V30 1149 H 107.791 -1.07033 -4.84621 0
M  V30 1150 H 103.047 -2.19021 -5.70824 0
M  V30 1151 H 107.221 -2.98746 -6.29066 0
M  V30 1152 H 104.848 -3.55333 -6.72044 0
M  V30 1153 N 106.423 1.57458 -0.0668435 0
M  V30 1154 C 107.669 1.94401 0.598316 0
M  V30 1155 C 108.024 0.946335 1.67518 0
M  V30 1156 O 107.317 -0.0321442 1.91573 0
M  V30 1157 C 107.511 3.35784 1.22409 0
M  V30 1158 C 107.34 4.49212 0.209367 0
M  V30 1159 C 106.11 5.04887 -0.204218 0
M  V30 1160 C 108.308 5.11335 -0.551431 0
M  V30 1161 N 106.29 6.01854 -1.21016 0
M  V30 1162 C 107.661 6.03754 -1.41 0
M  V30 1163 C 109.716 4.94173 -0.608038 0
M  V30 1164 C 108.419 6.80854 -2.32013 0
M  V30 1165 C 110.445 5.71912 -1.50566 0
M  V30 1166 C 109.807 6.63976 -2.35191 0
M  V30 1167 H 105.906 0.758538 0.190114 0
M  V30 1168 H 108.49 1.94175 -0.142832 0
M  V30 1169 H 106.661 3.36757 1.93518 0
M  V30 1170 H 108.393 3.59976 1.84931 0
M  V30 1171 H 105.148 4.73266 0.177908 0
M  V30 1172 H 105.572 6.55035 -1.71049 0
M  V30 1173 H 110.214 4.22788 0.032022 0
M  V30 1174 H 107.932 7.5152 -2.97057 0
M  V30 1175 H 111.518 5.60656 -1.55423 0
M  V30 1176 H 110.398 7.2308 -3.03522 0
M  V30 1177 N 107.901 -0.206675 1.56239 0
M  V30 1178 C 109.129 -0.945345 1.8404 0
M  V30 1179 C 109.544 -1.77336 0.647885 0
M  V30 1180 O 108.901 -1.78425 -0.383511 0
M  V30 1181 C 108.952 -1.8509 3.10522 0
M  V30 1182 O 108.673 -1.05634 4.25174 0
M  V30 1183 C 110.174 -2.70222 3.51418 0
M  V30 1184 H 107.394 -0.276372 0.61144 0
M  V30 1185 H 109.938 -0.217417 2.03341 0
M  V30 1186 H 108.093 -2.53259 2.93153 0
M  V30 1187 H 108.507 -1.67238 4.97124 0
M  V30 1188 H 109.981 -3.29438 4.42916 0
M  V30 1189 H 110.458 -3.43358 2.73864 0
M  V30 1190 H 111.064 -2.07443 3.71278 0
M  V30 1191 N 109.379 -1.50304 -0.473955 0
M  V30 1192 C 110.607 -1.64902 -1.24959 0
M  V30 1193 C 111.022 -0.331198 -1.85872 0
M  V30 1194 O 110.379 0.68652 -1.69095 0
M  V30 1195 C 110.43 -2.73803 -2.36038 0
M  V30 1196 O 110.151 -4.00477 -1.77624 0
M  V30 1197 C 111.652 -2.99349 -3.26964 0
M  V30 1198 H 108.872 -0.554383 -0.378022 0
M  V30 1199 H 111.416 -1.9651 -0.566054 0
M  V30 1200 H 109.571 -2.44898 -3.00173 0
M  V30 1201 H 109.985 -4.60678 -2.5075 0
M  V30 1202 H 111.459 -3.79217 -4.01121 0
M  V30 1203 H 111.936 -2.10307 -3.85574 0
M  V30 1204 H 112.542 -3.29774 -2.68569 0
M  V30 1205 N 110.857 0.726932 -1.39834 0
M  V30 1206 C 112.103 1.48884 -1.377 0
M  V30 1207 C 112.436 1.94185 0.0244852 0
M  V30 1208 O 111.711 1.67361 0.990986 0
M  V30 1209 C 111.994 2.72288 -2.3565 0
M  V30 1210 C 111.847 2.32956 -3.84775 0
M  V30 1211 C 113.166 3.74414 -2.31306 0
M  V30 1212 H 110.285 0.540062 -0.5015 0
M  V30 1213 H 112.927 0.830547 -1.70886 0
M  V30 1214 H 111.077 3.28457 -2.07481 0
M  V30 1215 H 112.749 1.82356 -4.23726 0
M  V30 1216 H 110.992 1.65088 -4.01159 0
M  V30 1217 H 111.663 3.21362 -4.4881 0
M  V30 1218 H 114.139 3.27849 -2.56231 0
M  V30 1219 H 113.015 4.58414 -3.01907 0
M  V30 1220 H 113.276 4.21909 -1.32081 0
M  V30 1221 N 112.336 1.25143 0.95797 0
M  V30 1222 C 113.583 1.09692 1.70217 0
M  V30 1223 C 113.911 -0.362654 1.91089 0
M  V30 1224 O 113.166 -1.28386 1.47701 0
M  V30 1225 C 113.465 1.79272 3.09187 0
M  V30 1226 C 113.131 3.29196 3.08125 0
M  V30 1227 C 111.793 3.70096 3.07543 0
M  V30 1228 C 114.145 4.24995 3.0171 0
M  V30 1229 C 111.473 5.05213 2.9829 0
M  V30 1230 C 113.825 5.60132 2.93999 0
M  V30 1231 C 112.489 6.00365 2.9175 0
M  V30 1232 H 111.759 0.401393 0.622868 0
M  V30 1233 H 114.406 1.55372 1.11945 0
M  V30 1234 H 112.711 1.26014 3.70982 0
M  V30 1235 H 114.408 1.64773 3.65583 0
M  V30 1236 H 110.998 2.96651 3.09348 0
M  V30 1237 H 115.182 3.9439 3.01281 0
M  V30 1238 H 110.438 5.35569 2.94916 0
M  V30 1239 H 114.612 6.3406 2.87996 0
M  V30 1240 H 112.239 7.05023 2.84336 0
M  V30 1241 N 113.814 -1.1601 1.06675 0
M  V30 1242 C 114.761 -2.20525 0.680967 0
M  V30 1243 C 115.731 -1.62904 -0.324283 0
M  V30 1244 O 116.916 -1.89615 -0.212294 0
M  V30 1245 C 114.056 -3.45013 0.0776551 0
M  V30 1246 C 113.169 -4.16863 1.13355 0
M  V30 1247 C 112.304 -5.2888 0.49597 0
M  V30 1248 C 111.343 -5.92537 1.53513 0
M  V30 1249 N 110.48 -6.96038 0.920631 0
M  V30 1250 H 115.32 -2.52876 1.57663 0
M  V30 1251 H 112.857 -1.24199 0.788223 0
M  V30 1252 H 114.815 -4.16193 -0.289704 0
M  V30 1253 H 113.445 -3.132 -0.781393 0
M  V30 1254 H 112.497 -3.44248 1.61857 0
M  V30 1255 H 113.809 -4.60294 1.92174 0
M  V30 1256 H 112.963 -6.06653 0.0758604 0
M  V30 1257 H 111.702 -4.86622 -0.324062 0
M  V30 1258 H 110.707 -5.13482 1.9651 0
M  V30 1259 H 111.932 -6.36873 2.35733 0
M  V30 1260 H 109.878 -6.55888 0.12138 0
M  V30 1261 H 109.795 -7.3786 1.64616 0
M  V30 1262 H 111.063 -7.77725 0.525795 0
M  V30 1263 N 115.292 -0.849877 -1.32721 0
M  V30 1264 C 116.239 -0.289033 -2.28983 0
M  V30 1265 C 117.209 0.601324 -1.54833 0
M  V30 1266 O 118.394 0.537253 -1.8308 0
M  V30 1267 C 115.534 0.520623 -3.4115 0
M  V30 1268 C 114.647 -0.394989 -4.3019 0
M  V30 1269 C 113.782 0.426834 -5.29482 0
M  V30 1270 C 112.821 -0.486476 -6.10164 0
M  V30 1271 N 111.958 0.297879 -7.01468 0
M  V30 1272 H 116.798 -1.11519 -2.76347 0
M  V30 1273 H 114.335 -0.56138 -1.35967 0
M  V30 1274 H 116.293 1.00563 -4.04899 0
M  V30 1275 H 114.923 1.31165 -2.9495 0
M  V30 1276 H 113.975 -0.99836 -3.67065 0
M  V30 1277 H 115.287 -1.09612 -4.86607 0
M  V30 1278 H 114.441 0.975205 -5.98811 0
M  V30 1279 H 113.18 1.16136 -4.73671 0
M  V30 1280 H 112.185 -1.04677 -5.39743 0
M  V30 1281 H 113.41 -1.21953 -6.6806 0
M  V30 1282 H 111.356 1.01558 -6.48091 0
M  V30 1283 H 111.273 -0.344318 -7.55216 0
M  V30 1284 H 112.541 0.828131 -7.75089 0
M  V30 1285 N 116.77 1.45427 -0.607355 0
M  V30 1286 C 117.702 2.2871 0.149752 0
M  V30 1287 C 118.715 1.39937 0.831958 0
M  V30 1288 O 119.904 1.64313 0.697385 0
M  V30 1289 C 117.004 3.15673 1.23304 0
M  V30 1290 C 116.177 4.32722 0.637996 0
M  V30 1291 C 115.236 5.00895 1.61215 0
M  V30 1292 O 114.262 5.57697 1.13854 0
M  V30 1293 N 115.464 5.00159 2.94655 0
M  V30 1294 H 118.229 2.94328 -0.564882 0
M  V30 1295 H 115.79 1.55612 -0.446823 0
M  V30 1296 H 117.782 3.58144 1.88454 0
M  V30 1297 H 116.352 2.51965 1.8502 0
M  V30 1298 H 115.572 3.93734 -0.191572 0
M  V30 1299 H 116.86 5.08321 0.220665 0
M  V30 1300 H 116.258 4.553 3.35735 0
M  V30 1301 H 114.815 5.46495 3.55228 0
M  V30 1302 N 118.248 0.346503 1.53744 0
M  V30 1303 C 119.497 -0.250122 2.00143 0
M  V30 1304 C 119.81 -1.51418 1.23822 0
M  V30 1305 O 121.016 -2.18823 1.60713 0
M  V30 1306 C 119.472 -0.496252 3.56462 0
M  V30 1307 C 119.08 0.752077 4.41642 0
M  V30 1308 C 120.824 -1.05157 4.11269 0
M  V30 1309 C 118.731 0.476583 5.89477 0
M  V30 1310 H 117.661 -0.0972409 0.747703 0
M  V30 1311 H 120.312 0.46229 1.77581 0
M  V30 1312 H 118.694 -1.26944 3.75102 0
M  V30 1313 H 119.868 1.5266 4.34778 0
M  V30 1314 H 118.183 1.22925 3.97842 0
M  V30 1315 H 120.78 -1.27269 5.19333 0
M  V30 1316 H 121.123 -2.00799 3.64672 0
M  V30 1317 H 121.656 -0.339019 3.96353 0
M  V30 1318 H 118.395 1.4028 6.40314 0
M  V30 1319 H 117.915 -0.259794 5.99237 0
M  V30 1320 H 119.594 0.0949315 6.4693 0
M  V30 1321 N 119.726 -1.57421 0.075193 0
M  V30 1322 C 121.003 -1.85029 -0.634329 0
M  V30 1323 C 121.383 -0.968305 -1.87582 0
M  V30 1324 O 120.731 -0.0354749 -2.28472 0
M  V30 1325 C 120.941 -3.35286 -0.968742 0
M  V30 1326 C 122.289 -4.02875 -1.34077 0
M  V30 1327 O 123.313 -3.40051 -1.06037 0
M  V30 1328 O 122.172 -5.13691 -1.86506 0
M  V30 1329 H 119.266 -0.7645 -0.315387 0
M  V30 1330 H 121.812 -1.69366 0.106382 0
M  V30 1331 H 120.584 -3.91203 -0.0871376 0
M  V30 1332 H 120.207 -3.56223 -1.7661 0
M  V30 1333 N 121.204 0.198386 -1.56346 0
M  V30 1334 C 122.152 1.26538 -1.95169 0
M  V30 1335 C 123.146 1.47295 -0.836685 0
M  V30 1336 O 124.352 1.48195 -1.02167 0
M  V30 1337 H 120.727 0.424744 -0.620561 0
M  V30 1338 H 122.698 0.910904 -2.84157 0
M  V30 1339 C 121.447 2.6035 -2.30463 0
M  V30 1340 H 120.77 2.45192 -3.15786 0
M  V30 1341 H 122.21 3.33762 -2.61494 0
M  V30 1342 C 120.669 3.17096 -1.13806 0
M  V30 1343 O 121.199 3.99588 -0.41135 0
M  V30 1344 N 119.405 2.75795 -0.915736 0
M  V30 1345 H 118.952 2.08816 -1.50843 0
M  V30 1346 H 118.91 3.14101 -0.136979 0
M  V30 1347 N 122.682 1.50554 0.465978 0
M  V30 1348 C 123.612 1.72722 1.57128 0
M  V30 1349 C 124.593 0.576294 1.6004 0
M  V30 1350 O 125.778 0.81598 1.76225 0
M  V30 1351 C 122.908 1.82605 2.95419 0
M  V30 1352 C 121.862 2.97835 3.07373 0
M  V30 1353 C 121.188 2.92867 4.47363 0
M  V30 1354 C 122.488 4.38265 2.84114 0
M  V30 1355 H 124.182 2.65267 1.38829 0
M  V30 1356 H 121.728 1.2765 0.666441 0
M  V30 1357 H 123.681 1.96698 3.72677 0
M  V30 1358 H 122.405 0.866858 3.14886 0
M  V30 1359 H 121.064 2.83401 2.3255 0
M  V30 1360 H 120.712 1.94783 4.63755 0
M  V30 1361 H 120.412 3.70227 4.56296 0
M  V30 1362 H 121.936 3.09015 5.26633 0
M  V30 1363 H 123.35 4.53198 3.51118 0
M  V30 1364 H 121.747 5.17115 3.04487 0
M  V30 1365 H 122.817 4.50281 1.7993 0
M  V30 1366 N 124.16 -0.719506 1.40217 0
M  V30 1367 C 125.576 -1.02707 1.22161 0
M  V30 1368 C 125.776 -2.0128 0.0940557 0
M  V30 1369 O 124.832 -2.46452 -0.549318 0
M  V30 1370 C 126.145 -1.57454 2.56181 0
M  V30 1371 C 127.693 -1.69458 2.63159 0
M  V30 1372 C 128.168 -2.27611 3.97438 0
M  V30 1373 N 129.659 -2.35002 3.99159 0
M  V30 1374 C 130.394 -2.80972 4.99842 0
M  V30 1375 N 129.89 -3.26723 6.10921 0
M  V30 1376 N 131.683 -2.80321 4.87213 0
M  V30 1377 H 123.834 -0.0660492 2.12297 0
M  V30 1378 H 126.097 -0.0919077 0.943534 0
M  V30 1379 H 125.803 -0.924873 3.39321 0
M  V30 1380 H 125.677 -2.56036 2.76993 0
M  V30 1381 H 128.064 -2.33543 1.80393 0
M  V30 1382 H 128.145 -0.694867 2.46181 0
M  V30 1383 H 127.789 -1.6415 4.80643 0
M  V30 1384 H 127.719 -3.2829 4.11744 0
M  V30 1385 H 130.21 -2.02685 3.18947 0
M  V30 1386 H 130.523 -3.60355 6.8364 0
M  V30 1387 H 128.868 -3.24692 6.14492 0
M  V30 1388 H 132.059 -2.43912 3.9953 0
M  V30 1389 H 132.232 -3.15831 5.65822 0
M  V30 1390 N 125.638 -1.25649 -0.95132 0
M  V30 1391 C 126.866 -1.13343 -1.73092 0
M  V30 1392 C 127.281 0.312434 -1.86197 0
M  V30 1393 O 126.638 1.21465 -1.36207 0
M  V30 1394 C 126.689 -1.78602 -3.14299 0
M  V30 1395 O 126.41 -3.17537 -3.01831 0
M  V30 1396 C 127.911 -1.72119 -4.08522 0
M  V30 1397 H 125.131 -0.395181 -0.542285 0
M  V30 1398 H 127.675 -1.66076 -1.19328 0
M  V30 1399 H 125.83 -1.29832 -3.64996 0
M  V30 1400 H 126.244 -3.49676 -3.90931 0
M  V30 1401 H 127.718 -2.22435 -5.052 0
M  V30 1402 H 128.195 -0.685635 -4.33815 0
M  V30 1403 H 128.801 -2.20393 -3.63741 0
M  V30 1404 N 127.117 1.15442 -1.07289 0
M  V30 1405 C 128.065 2.22225 -0.686952 0
M  V30 1406 C 129.059 1.66688 0.30193 0
M  V30 1407 O 130.265 1.79236 0.165712 0
M  V30 1408 H 126.64 0.723783 -0.204064 0
M  V30 1409 H 128.611 2.52056 -1.5972 0
M  V30 1410 C 127.36 3.47556 -0.100149 0
M  V30 1411 H 126.683 3.90612 -0.852211 0
M  V30 1412 H 128.123 4.23794 0.132235 0
M  V30 1413 C 126.582 3.16337 1.159 0
M  V30 1414 O 127.112 3.33074 2.24555 0
M  V30 1415 N 125.318 2.70385 1.06491 0
M  V30 1416 H 124.865 2.56966 0.180668 0
M  V30 1417 H 124.823 2.49871 1.90819 0
M  V30 1418 N 128.595 0.856903 1.32268 0
M  V30 1419 C 129.545 0.274899 2.26337 0
M  V30 1420 C 130.529 -0.580543 1.50062 0
M  V30 1421 O 131.721 -0.429559 1.71708 0
M  V30 1422 C 128.85 -0.533841 3.39124 0
M  V30 1423 C 127.936 0.334114 4.22782 0
M  V30 1424 N 128.327 1.42143 4.85416 0
M  V30 1425 C 126.625 0.124256 4.45827 0
M  V30 1426 C 127.326 1.95559 5.47843 0
M  V30 1427 N 126.302 1.25444 5.28928 0
M  V30 1428 H 130.104 1.10612 2.72291 0
M  V30 1429 H 127.618 0.703258 1.46383 0
M  V30 1430 H 129.615 -0.96722 4.05525 0
M  V30 1431 H 128.275 -1.36283 2.94715 0
M  V30 1432 H 129.286 1.80436 4.85451 0
M  V30 1433 H 125.963 -0.669837 4.12092 0
M  V30 1434 H 127.353 2.86714 6.07655 0
M  V30 1435 N 130.073 -1.45103 0.615059 0
M  V30 1436 C 131.005 -2.28786 -0.13762 0
M  V30 1437 C 132.018 -1.40376 -0.824525 0
M  V30 1438 O 133.207 -1.64681 -0.688662 0
M  V30 1439 C 130.307 -3.16322 -1.21628 0
M  V30 1440 C 129.48 -4.33054 -0.615039 0
M  V30 1441 C 128.539 -5.01743 -1.58556 0
M  V30 1442 O 127.565 -5.58293 -1.10895 0
M  V30 1443 N 128.767 -5.01714 -2.91998 0
M  V30 1444 H 131.532 -2.94025 0.580483 0
M  V30 1445 H 129.093 -1.55373 0.45507 0
M  V30 1446 H 131.085 -3.59139 -1.86552 0
M  V30 1447 H 129.655 -2.52943 -1.83681 0
M  V30 1448 H 128.875 -3.93627 0.21245 0
M  V30 1449 H 130.163 -5.08431 -0.193704 0
M  V30 1450 H 129.561 -4.57075 -3.33316 0
M  V30 1451 H 128.118 -5.48371 -3.52325 0
M  V30 1452 N 131.551 -0.354651 -1.53558 0
M  V30 1453 C 132.799 0.237972 -2.00694 0
M  V30 1454 C 133.12 1.50173 -1.24391 0
M  V30 1455 O 132.39 1.92673 -0.354135 0
M  V30 1456 H 130.97 0.0909256 -0.741446 0
M  V30 1457 H 133.632 -0.478368 -1.88938 0
M  V30 1458 H 132.728 0.47264 -3.085 0
M  V30 1459 N 133.029 1.57378 -0.0835403 0
M  V30 1460 C 134.278 1.93106 0.582498 0
M  V30 1461 C 134.591 0.96651 1.70053 0
M  V30 1462 O 135.797 1.21705 2.42693 0
M  V30 1463 C 134.253 3.43076 1.08751 0
M  V30 1464 C 133.861 4.48 -0.000146404 0
M  V30 1465 C 135.605 3.87785 1.72694 0
M  V30 1466 C 133.512 5.89113 0.519568 0
M  V30 1467 H 132.442 0.720775 0.221358 0
M  V30 1468 H 135.093 1.82821 -0.157675 0
M  V30 1469 H 133.475 3.48474 1.88101 0
M  V30 1470 H 134.649 4.54233 -0.775199 0
M  V30 1471 H 132.964 4.1283 -0.54406 0
M  V30 1472 H 135.561 4.90604 2.1263 0
M  V30 1473 H 135.904 3.25796 2.59158 0
M  V30 1474 H 136.437 3.8504 0.999457 0
M  V30 1475 H 133.176 6.54775 -0.308186 0
M  V30 1476 H 132.696 5.86376 1.26188 0
M  V30 1477 H 134.375 6.39346 0.992237 0
M  V30 1478 N 134.507 -0.190092 1.56449 0
M  V30 1479 C 135.737 -0.92443 1.84764 0
M  V30 1480 C 136.145 -1.77146 0.664529 0
M  V30 1481 O 135.488 -1.79812 -0.375957 0
M  V30 1482 C 135.55 -1.86651 3.07248 0
M  V30 1483 C 135.214 -1.20094 4.40938 0
M  V30 1484 C 136.211 -0.575445 5.16706 0
M  V30 1485 C 133.896 -1.2033 4.87674 0
M  V30 1486 C 135.89 0.0388111 6.37388 0
M  V30 1487 C 133.577 -0.585214 6.08291 0
M  V30 1488 C 134.575 0.0347578 6.82991 0
M  V30 1489 O 134.263 0.643147 8.01323 0
M  V30 1490 H 133.995 -0.274974 0.617548 0
M  V30 1491 H 136.549 -0.200788 2.04416 0
M  V30 1492 H 134.779 -2.62998 2.83494 0
M  V30 1493 H 136.468 -2.46907 3.22167 0
M  V30 1494 H 137.234 -0.565728 4.81689 0
M  V30 1495 H 133.113 -1.67526 4.29484 0
M  V30 1496 H 136.657 0.523329 6.95634 0
M  V30 1497 H 132.554 -0.592451 6.42775 0
M  V30 1498 H 133.322 0.540545 8.16713 0
M  V30 1499 N 135.985 -1.50799 -0.457987 0
M  V30 1500 C 137.231 -1.62683 -1.21088 0
M  V30 1501 C 137.564 -0.332268 -1.91336 0
M  V30 1502 O 136.839 0.667043 -1.82704 0
M  V30 1503 C 137.122 -2.81615 -2.24422 0
M  V30 1504 C 136.975 -4.20989 -1.58392 0
M  V30 1505 C 138.294 -2.96085 -3.2561 0
M  V30 1506 H 135.413 -0.592087 -0.438864 0
M  V30 1507 H 138.055 -1.83225 -0.50286 0
M  V30 1508 H 136.205 -2.64231 -2.84806 0
M  V30 1509 H 137.877 -4.49994 -1.01504 0
M  V30 1510 H 136.12 -4.24641 -0.886704 0
M  V30 1511 H 136.791 -5.0016 -2.33547 0
M  V30 1512 H 139.267 -3.12042 -2.75262 0
M  V30 1513 H 138.143 -3.80902 -3.95228 0
M  V30 1514 H 138.404 -2.0726 -3.90507 0
M  V30 1515 N 137.463 0.71206 -1.40597 0
M  V30 1516 C 138.393 1.83889 -1.43899 0
M  V30 1517 C 139.374 1.67442 -0.299504 0
M  V30 1518 O 140.559 1.87421 -0.508624 0
M  V30 1519 C 137.689 3.21877 -1.30431 0
M  V30 1520 C 136.643 3.53002 -2.42019 0
M  V30 1521 C 135.969 4.90172 -2.13626 0
M  V30 1522 C 137.269 3.53643 -3.84362 0
M  V30 1523 H 138.963 1.81383 -2.38203 0
M  V30 1524 H 136.509 0.871237 -1.14654 0
M  V30 1525 H 138.462 4.00404 -1.31357 0
M  V30 1526 H 137.186 3.24968 -0.326049 0
M  V30 1527 H 135.845 2.76818 -2.40349 0
M  V30 1528 H 135.493 4.89869 -1.14182 0
M  V30 1529 H 135.193 5.11962 -2.88389 0
M  V30 1530 H 136.717 5.71028 -2.1624 0
M  V30 1531 H 138.131 4.22203 -3.87837 0
M  V30 1532 H 136.528 3.86961 -4.58673 0
M  V30 1533 H 137.598 2.52954 -4.13693 0
M  V30 1534 N 138.941 1.26152 0.944643 0
M  V30 1535 C 139.873 1.03199 2.04652 0
M  V30 1536 C 140.886 -0.00642356 1.62799 0
M  V30 1537 O 142.075 0.233263 1.76969 0
M  V30 1538 C 139.175 0.540111 3.34568 0
M  V30 1539 C 138.348 1.64697 4.05208 0
M  V30 1540 C 137.407 1.15374 5.13396 0
M  V30 1541 O 136.433 1.85013 5.38293 0
M  V30 1542 N 137.635 0.00031529 5.805 0
M  V30 1543 H 140.4 1.9808 2.2491 0
M  V30 1544 H 137.961 1.17491 1.11389 0
M  V30 1545 H 139.953 0.194401 4.04233 0
M  V30 1546 H 138.523 -0.315021 3.11009 0
M  V30 1547 H 137.743 2.16379 3.29506 0
M  V30 1548 H 139.031 2.3903 4.49157 0
M  V30 1549 H 138.429 -0.581336 5.62705 0
M  V30 1550 H 136.986 -0.286346 6.51171 0
M  V30 1551 N 140.419 -1.14872 1.07899 0
M  V30 1552 C 141.696 -1.81928 0.71845 0
M  V30 1553 C 142.076 -1.95417 -0.798455 0
M  V30 1554 O 141.424 -1.50997 -1.715 0
M  V30 1555 C 141.634 -3.17937 1.43935 0
M  V30 1556 C 142.982 -3.93501 1.59506 0
M  V30 1557 O 144.006 -3.27509 1.40058 0
M  V30 1558 O 142.865 -5.1183 1.91551 0
M  V30 1559 H 139.959 -0.78628 0.256305 0
M  V30 1560 H 142.505 -1.21934 1.18026 0
M  V30 1561 H 141.277 -3.0325 2.47295 0
M  V30 1562 H 140.9 -3.85619 0.968687 0
M  V30 1563 N 141.898 -0.863906 -1.31812 0
M  V30 1564 C 142.846 -0.30422 -2.30602 0
M  V30 1565 C 143.84 0.577419 -1.59255 0
M  V30 1566 O 145.046 0.464194 -1.73912 0
M  V30 1567 H 141.421 -0.0796877 -0.747766 0
M  V30 1568 H 143.392 -1.15148 -2.75288 0
M  V30 1569 C 142.141 0.484617 -3.44306 0
M  V30 1570 H 141.464 -0.18451 -3.99374 0
M  V30 1571 H 142.904 0.841664 -4.15562 0
M  V30 1572 C 141.363 1.6735 -2.92396 0
M  V30 1573 O 141.893 2.77273 -2.90659 0
M  V30 1574 N 140.099 1.50362 -2.48676 0
M  V30 1575 H 139.646 0.609402 -2.50288 0
M  V30 1576 H 139.604 2.30051 -2.14299 0
M  V30 1577 N 143.376 1.44774 -0.622745 0
M  V30 1578 C 144.323 2.30635 0.0871679 0
M  V30 1579 C 145.293 1.42994 0.845097 0
M  V30 1580 O 146.478 1.71907 0.827812 0
M  V30 1581 C 143.618 3.28144 1.06844 0
M  V30 1582 C 142.731 4.30888 0.309809 0
M  V30 1583 C 141.866 5.15494 1.28215 0
M  V30 1584 C 140.905 6.09953 0.512198 0
M  V30 1585 N 140.042 6.87287 1.43458 0
M  V30 1586 H 144.882 2.90803 -0.650974 0
M  V30 1587 H 142.419 1.43286 -0.33281 0
M  V30 1588 H 144.377 3.83157 1.65066 0
M  V30 1589 H 143.007 2.69695 1.77382 0
M  V30 1590 H 142.059 3.78414 -0.388181 0
M  V30 1591 H 143.371 4.97955 -0.290254 0
M  V30 1592 H 142.525 5.74983 1.93596 0
M  V30 1593 H 141.264 4.48481 1.91614 0
M  V30 1594 H 140.269 5.49581 -0.155151 0
M  V30 1595 H 141.494 6.78999 -0.116958 0
M  V30 1596 H 139.44 6.2295 2.05594 0
M  V30 1597 H 139.357 7.50763 0.888335 0
M  V30 1598 H 140.625 7.51306 2.07749 0
M  V30 1599 N 144.854 0.36279 1.53368 0
M  V30 1600 C 146.101 -0.227776 2.01215 0
M  V30 1601 C 146.429 -1.49003 1.25014 0
M  V30 1602 O 145.684 -1.92876 0.331236 0
M  V30 1603 C 145.983 -0.568417 3.52851 0
M  V30 1604 C 145.649 0.59918 4.46901 0
M  V30 1605 C 144.311 0.919559 4.72332 0
M  V30 1606 C 146.663 1.38156 5.02556 0
M  V30 1607 C 143.991 2.02434 5.5067 0
M  V30 1608 C 146.343 2.47674 5.821 0
M  V30 1609 C 145.007 2.8025 6.05819 0
M  V30 1610 H 144.277 -0.083349 0.736297 0
M  V30 1611 H 146.924 0.494677 1.85001 0
M  V30 1612 H 145.229 -1.37185 3.66998 0
M  V30 1613 H 146.926 -1.03756 3.87344 0
M  V30 1614 H 143.516 0.339437 4.27254 0
M  V30 1615 H 147.7 1.14729 4.82857 0
M  V30 1616 H 142.956 2.28075 5.67267 0
M  V30 1617 H 147.13 3.08716 6.24234 0
M  V30 1618 H 144.757 3.65979 6.66306 0
M  V30 1619 N 146.332 -1.57332 0.0918853 0
M  V30 1620 C 147.748 -1.57389 -0.264766 0
M  V30 1621 C 147.948 -1.10281 -1.68643 0
M  V30 1622 O 147.004 -0.777801 -2.40222 0
M  V30 1623 C 148.317 -3.00648 -0.0561195 0
M  V30 1624 C 149.865 -3.12754 -0.124116 0
M  V30 1625 C 150.34 -4.57965 0.0564972 0
M  V30 1626 N 151.831 -4.632 0.00155611 0
M  V30 1627 C 152.566 -5.73281 0.116598 0
M  V30 1628 N 152.062 -6.92208 0.286294 0
M  V30 1629 N 153.855 -5.6207 0.0580973 0
M  V30 1630 H 146.006 -1.86262 1.02079 0
M  V30 1631 H 148.269 -0.859579 0.399786 0
M  V30 1632 H 147.975 -3.393 0.925669 0
M  V30 1633 H 147.849 -3.68623 -0.799823 0
M  V30 1634 H 150.236 -2.73976 -1.09641 0
M  V30 1635 H 150.317 -2.47377 0.651024 0
M  V30 1636 H 149.961 -4.97436 1.02564 0
M  V30 1637 H 149.891 -5.21399 -0.738297 0
M  V30 1638 H 152.382 -3.77686 -0.127192 0
M  V30 1639 H 152.695 -7.71934 0.365676 0
M  V30 1640 H 151.04 -6.94254 0.32192 0
M  V30 1641 H 154.231 -4.68043 -0.0733204 0
M  V30 1642 H 154.404 -6.47824 0.151203 0
M  V30 1643 N 147.81 0.181792 -1.56548 0
M  V30 1644 C 148.74 1.22765 -1.98623 0
M  V30 1645 C 149.721 1.46747 -0.860189 0
M  V30 1646 O 150.906 1.58259 -1.12551 0
M  V30 1647 C 148.036 2.56894 -2.33715 0
M  V30 1648 C 146.99 2.475 -3.49182 0
M  V30 1649 C 146.316 3.86023 -3.69986 0
M  V30 1650 C 147.616 1.98866 -4.82959 0
M  V30 1651 H 149.31 0.877942 -2.86239 0
M  V30 1652 H 146.856 0.42088 -1.37712 0
M  V30 1653 H 148.809 3.30253 -2.61746 0
M  V30 1654 H 147.533 2.93632 -1.42997 0
M  V30 1655 H 146.192 1.76596 -3.21262 0
M  V30 1656 H 145.84 4.20136 -2.76576 0
M  V30 1657 H 145.54 3.80609 -4.47672 0
M  V30 1658 H 147.064 4.60984 -4.00407 0
M  V30 1659 H 148.478 2.61992 -5.09934 0
M  V30 1660 H 146.875 2.04424 -5.64208 0
M  V30 1661 H 147.945 0.942465 -4.75653 0
M  V30 1662 N 149.288 1.51039 0.449983 0
M  V30 1663 C 150.218 1.74379 1.55288 0
M  V30 1664 C 151.199 0.593236 1.5942 0
M  V30 1665 O 152.384 0.834625 1.7535 0
M  V30 1666 C 149.514 1.85728 2.93466 0
M  V30 1667 C 148.468 3.01078 3.04197 0
M  V30 1668 C 147.794 2.97595 4.44231 0
M  V30 1669 C 149.094 4.41254 2.7945 0
M  V30 1670 H 150.788 2.66725 1.36008 0
M  V30 1671 H 148.334 1.2835 0.652864 0
M  V30 1672 H 150.287 2.0064 3.70569 0
M  V30 1673 H 149.011 0.900207 3.13949 0
M  V30 1674 H 147.67 2.85851 2.29531 0
M  V30 1675 H 147.318 1.99691 4.61663 0
M  V30 1676 H 147.018 3.75046 4.52343 0
M  V30 1677 H 148.542 3.14583 5.23326 0
M  V30 1678 H 149.956 4.56897 3.46292 0
M  V30 1679 H 148.353 5.20315 2.98985 0
M  V30 1680 H 149.423 4.52164 1.75144 0
M  V30 1681 N 150.766 -0.704594 1.40972 0
M  V30 1682 C 151.994 -1.49354 1.43182 0
M  V30 1683 C 152.409 -1.88768 0.0345508 0
M  V30 1684 O 151.766 -1.56184 -0.944081 0
M  V30 1685 C 151.817 -2.76187 2.33244 0
M  V30 1686 O 151.538 -2.38436 3.67532 0
M  V30 1687 C 153.039 -3.7 2.44162 0
M  V30 1688 H 150.259 -0.460559 0.487982 0
M  V30 1689 H 152.803 -0.868261 1.85153 0
M  V30 1690 H 150.958 -3.34974 1.94606 0
M  V30 1691 H 151.372 -3.20126 4.15475 0
M  V30 1692 H 152.846 -4.55803 3.11364 0
M  V30 1693 H 153.323 -4.13867 1.47006 0
M  V30 1694 H 153.929 -3.17121 2.83398 0
M  V30 1695 N 152.244 -1.26651 -0.937939 0
M  V30 1696 C 153.176 -1.04283 -2.04102 0
M  V30 1697 C 154.189 -0.00221014 -1.628 0
M  V30 1698 O 155.378 -0.242645 -1.76843 0
M  V30 1699 C 152.478 -0.557846 -3.34277 0
M  V30 1700 C 151.651 -1.66843 -4.04329 0
M  V30 1701 C 150.71 -1.18095 -5.12777 0
M  V30 1702 O 149.736 -1.87865 -5.37304 0
M  V30 1703 N 150.938 -0.0311006 -5.80492 0
M  V30 1704 H 153.703 -1.9927 -2.23856 0
M  V30 1705 H 151.264 -1.1808 -1.10764 0
M  V30 1706 H 153.256 -0.215836 -4.04124 0
M  V30 1707 H 151.826 0.298523 -3.11171 0
M  V30 1708 H 151.046 -2.18123 -3.28353 0
M  V30 1709 H 152.334 -2.41408 -4.47883 0
M  V30 1710 H 151.732 0.551486 -5.63005 0
M  V30 1711 H 150.289 0.251809 -6.51313 0
M  V30 1712 N 153.722 1.14298 -1.08507 0
M  V30 1713 C 154.655 2.18447 -0.660004 0
M  V30 1714 C 155.633 1.59242 0.328749 0
M  V30 1715 O 156.817 1.87062 0.232367 0
M  V30 1716 C 153.944 3.38688 0.0290807 0
M  V30 1717 C 152.99 4.1646 -0.919982 0
M  V30 1718 S 153.823 4.77334 -2.42718 0
M  V30 1719 C 154.979 6.00931 -1.75024 0
M  V30 1720 H 155.212 2.54166 -1.54231 0
M  V30 1721 H 152.745 1.25446 -0.900149 0
M  V30 1722 H 154.703 4.08342 0.420378 0
M  V30 1723 H 153.364 3.01289 0.887895 0
M  V30 1724 H 152.557 5.02529 -0.384751 0
M  V30 1725 H 152.159 3.52414 -1.25223 0
M  V30 1726 H 154.451 6.69017 -1.06877 0
M  V30 1727 H 155.394 6.59044 -2.58971 0
M  V30 1728 H 155.802 5.51089 -1.22317 0
M  V30 1729 N 155.201 0.870884 1.31352 0
M  V30 1730 C 156.426 0.495957 2.01383 0
M  V30 1731 C 156.851 -0.904324 1.64935 0
M  V30 1732 O 156.209 -1.59687 0.858466 0
M  V30 1733 C 156.257 0.661433 3.54482 0
M  V30 1734 O 155.361 -0.298851 4.11316 0
M  V30 1735 H 154.702 0.197158 0.634054 0
M  V30 1736 H 157.232 1.17455 1.67527 0
M  V30 1737 H 157.242 0.555072 4.04207 0
M  V30 1738 H 155.917 1.68246 3.8035 0
M  V30 1739 H 154.494 -0.147368 3.72609 0
M  V30 1740 N 156.679 -1.44442 0.630414 0
M  V30 1741 C 157.642 -2.29107 -0.0652523 0
M  V30 1742 C 158.642 -1.41002 -0.772995 0
M  V30 1743 O 159.832 -1.62881 -0.617692 0
M  V30 1744 C 156.964 -3.22564 -1.10296 0
M  V30 1745 H 158.157 -2.92103 0.679401 0
M  V30 1746 H 155.71 -1.51343 0.390517 0
M  V30 1747 H 156.445 -2.64416 -1.87762 0
M  V30 1748 H 156.23 -3.87491 -0.59941 0
M  V30 1749 H 157.72 -3.86167 -1.5895 0
M  V30 1750 N 158.157 -0.370918 -1.53173 0
M  V30 1751 C 159.405 0.216673 -2.00935 0
M  V30 1752 C 159.726 1.48845 -1.25977 0
M  V30 1753 O 158.996 1.92286 -0.374551 0
M  V30 1754 H 157.576 0.0830565 -0.742368 0
M  V30 1755 H 160.238 -0.49838 -1.8842 0
M  V30 1756 H 159.334 0.439893 -3.08984 0
M  V30 1757 N 159.635 1.57281 -0.100228 0
M  V30 1758 C 160.582 2.14305 0.856858 0
M  V30 1759 C 161.552 1.06296 1.27634 0
M  V30 1760 O 162.737 1.34109 1.35718 0
M  V30 1761 C 159.877 2.73184 2.10866 0
M  V30 1762 C 158.99 3.95442 1.73925 0
M  V30 1763 C 158.125 4.42468 2.93931 0
M  V30 1764 C 157.164 5.57303 2.5314 0
M  V30 1765 N 156.301 5.99158 3.65997 0
M  V30 1766 H 161.141 2.95772 0.363726 0
M  V30 1767 H 158.678 1.46139 0.167858 0
M  V30 1768 H 160.636 3.05442 2.84185 0
M  V30 1769 H 159.266 1.94437 2.57671 0
M  V30 1770 H 158.318 3.69464 0.905554 0
M  V30 1771 H 159.63 4.78769 1.39935 0
M  V30 1772 H 158.784 4.76537 3.75496 0
M  V30 1773 H 157.523 3.58052 3.31134 0
M  V30 1774 H 156.528 5.22857 1.70003 0
M  V30 1775 H 157.753 6.43471 2.17075 0
M  V30 1776 H 155.699 5.17687 4.02909 0
M  V30 1777 H 155.616 6.77295 3.35869 0
M  V30 1778 H 156.884 6.3786 4.48057 0
M  V30 1779 N 161.113 -0.173488 1.56642 0
M  V30 1780 C 162.045 -1.23935 1.92802 0
M  V30 1781 C 163.058 -1.40589 0.820889 0
M  V30 1782 O 164.247 -1.40631 1.09933 0
M  V30 1783 C 161.347 -2.60837 2.16373 0
M  V30 1784 C 160.52 -2.6551 3.47596 0
M  V30 1785 C 159.579 -3.8376 3.60021 0
M  V30 1786 O 158.605 -3.69859 4.32658 0
M  V30 1787 N 159.807 -5.00127 2.94709 0
M  V30 1788 H 162.572 -0.932236 2.84832 0
M  V30 1789 H 160.133 -0.363268 1.57772 0
M  V30 1790 H 162.125 -3.38407 2.21952 0
M  V30 1791 H 160.695 -2.83948 1.30738 0
M  V30 1792 H 159.915 -1.74052 3.53694 0
M  V30 1793 H 161.203 -2.65641 4.33949 0
M  V30 1794 H 160.601 -5.14322 2.35563 0
M  V30 1795 H 159.158 -5.75567 3.05886 0
M  V30 1796 N 162.591 -1.51276 -0.441967 0
M  V30 1797 C 163.821 -1.67273 -1.21257 0
M  V30 1798 C 164.229 -0.367624 -1.85594 0
M  V30 1799 O 163.572 0.663349 -1.71305 0
M  V30 1800 C 163.634 -2.72807 -2.34129 0
M  V30 1801 C 163.298 -4.1554 -1.90198 0
M  V30 1802 C 164.295 -5.00471 -1.40801 0
M  V30 1803 C 161.98 -4.61616 -1.9803 0
M  V30 1804 C 163.974 -6.29536 -0.998174 0
M  V30 1805 C 161.661 -5.90679 -1.56658 0
M  V30 1806 C 162.659 -6.74466 -1.07633 0
M  V30 1807 O 162.347 -8.01116 -0.668459 0
M  V30 1808 H 162.079 -0.564614 -0.371734 0
M  V30 1809 H 164.633 -1.9843 -0.530521 0
M  V30 1810 H 162.863 -2.36954 -3.05597 0
M  V30 1811 H 164.552 -2.77729 -2.96009 0
M  V30 1812 H 165.318 -4.66079 -1.34148 0
M  V30 1813 H 161.197 -3.96526 -2.35135 0
M  V30 1814 H 164.741 -6.94885 -0.61482 0
M  V30 1815 H 160.638 -6.24586 -1.62979 0
M  V30 1816 H 161.406 -8.14633 -0.794722 0
M  V30 1817 N 164.069 0.697108 -1.41344 0
M  V30 1818 C 164.999 1.82353 -1.45841 0
M  V30 1819 C 165.98 1.67115 -0.317247 0
M  V30 1820 O 167.165 1.86871 -0.528474 0
M  V30 1821 C 164.295 3.20476 -1.33838 0
M  V30 1822 C 163.249 3.50415 -2.4575 0
M  V30 1823 C 162.575 4.87878 -2.18813 0
M  V30 1824 C 163.875 3.49546 -3.88091 0
M  V30 1825 H 165.569 1.78846 -2.40113 0
M  V30 1826 H 163.115 0.859028 -1.15571 0
M  V30 1827 H 165.068 3.98988 -1.35596 0
M  V30 1828 H 163.792 3.24604 -0.360498 0
M  V30 1829 H 162.451 2.74253 -2.43271 0
M  V30 1830 H 162.099 4.8863 -1.19371 0
M  V30 1831 H 161.799 5.08875 -2.93803 0
M  V30 1832 H 163.323 5.68702 -2.22284 0
M  V30 1833 H 164.737 4.18066 -3.92293 0
M  V30 1834 H 163.134 3.82075 -4.62751 0
M  V30 1835 H 164.204 2.48552 -4.16353 0
M  V30 1836 N 165.547 1.27147 0.931209 0
M  V30 1837 C 166.457 1.11372 2.06478 0
M  V30 1838 C 167.473 0.044645 1.73943 0
M  V30 1839 O 168.649 0.250417 1.99837 0
M  V30 1840 C 165.714 0.758838 3.38294 0
M  V30 1841 C 164.775 1.90841 3.84549 0
M  V30 1842 C 164.008 1.57036 5.10074 0
M  V30 1843 O 164.231 0.476645 5.68405 0
M  V30 1844 O 163.165 2.40839 5.51616 0
M  V30 1845 H 166.991 2.06493 2.22698 0
M  V30 1846 H 164.576 1.06301 1.04978 0
M  V30 1847 H 166.458 0.574098 4.17471 0
M  V30 1848 H 165.133 -0.162879 3.2329 0
M  V30 1849 H 164.04 2.14819 3.06274 0
M  V30 1850 H 165.373 2.81021 4.04089 0
M  V30 1851 N 167.025 -1.13721 1.09112 0
M  V30 1852 C 167.975 -2.17082 0.697091 0
M  V30 1853 C 168.959 -1.58321 -0.286923 0
M  V30 1854 O 170.151 -1.7673 -0.0978008 0
M  V30 1855 C 167.28 -3.43105 0.115729 0
M  V30 1856 C 166.366 -4.0888 1.12596 0
M  V30 1857 N 166.757 -4.4987 2.31195 0
M  V30 1858 C 165.055 -4.35471 0.963366 0
M  V30 1859 C 165.756 -5.01094 2.95431 0
M  V30 1860 N 164.732 -4.95751 2.23006 0
M  V30 1861 H 168.534 -2.46524 1.6001 0
M  V30 1862 H 166.048 -1.30481 0.966869 0
M  V30 1863 H 168.045 -4.16491 -0.184555 0
M  V30 1864 H 166.705 -3.15138 -0.78217 0
M  V30 1865 H 167.716 -4.42678 2.68806 0
M  V30 1866 H 164.393 -4.17328 0.119878 0
M  V30 1867 H 165.783 -5.4263 3.96236 0
M  V30 1868 N 168.503 -0.877838 -1.30888 0
M  V30 1869 C 169.466 -0.344265 -2.266 0
M  V30 1870 C 170.466 0.50922 -1.52524 0
M  V30 1871 O 171.656 0.317398 -1.71284 0
M  V30 1872 C 168.788 0.510198 -3.37061 0
M  V30 1873 H 169.981 -1.1893 -2.7531 0
M  V30 1874 H 167.534 -0.654088 -1.41956 0
M  V30 1875 H 168.269 1.37612 -2.93655 0
M  V30 1876 H 168.054 -0.101047 -3.9197 0
M  V30 1877 H 169.544 0.875537 -4.08319 0
M  V30 1878 N 169.982 1.44106 -0.638065 0
M  V30 1879 C 171.207 2.0685 -0.150916 0
M  V30 1880 C 171.632 1.47417 1.16833 0
M  V30 1881 O 170.99 0.578264 1.71831 0
M  V30 1882 C 171.038 3.60555 -0.05708 0
M  V30 1883 O 170.142 4.00465 0.984972 0
M  V30 1884 H 169.483 0.658151 -0.0879399 0
M  V30 1885 H 172.013 1.84865 -0.876707 0
M  V30 1886 H 172.023 4.07789 0.131232 0
M  V30 1887 H 170.698 4.03193 -1.02021 0
M  V30 1888 H 169.275 3.64849 0.770672 0
M  V30 1889 N 171.46 0.379036 1.52974 0
M  V30 1890 C 172.407 -0.461048 2.26148 0
M  V30 1891 C 173.377 -1.06637 1.27349 0
M  V30 1892 O 174.562 -1.09633 1.56157 0
M  V30 1893 C 171.702 -1.58782 3.06402 0
M  V30 1894 C 170.815 -1.00636 4.20115 0
M  V30 1895 C 169.95 -2.10334 4.87784 0
M  V30 1896 C 168.989 -1.49724 5.93506 0
M  V30 1897 N 168.126 -2.5331 6.54812 0
M  V30 1898 H 172.966 0.169429 2.97518 0
M  V30 1899 H 170.503 0.0953806 1.4679 0
M  V30 1900 H 172.461 -2.25174 3.51215 0
M  V30 1901 H 171.091 -2.18876 2.37261 0
M  V30 1902 H 170.143 -0.232332 3.7969 0
M  V30 1903 H 171.455 -0.523343 4.96047 0
M  V30 1904 H 170.609 -2.84519 5.35849 0
M  V30 1905 H 169.348 -2.61992 4.11353 0
M  V30 1906 H 168.353 -0.740598 5.44789 0
M  V30 1907 H 169.578 -0.988732 6.71864 0
M  V30 1908 H 167.524 -3.04156 5.81227 0
M  V30 1909 H 167.441 -2.09734 7.26325 0
M  V30 1910 H 168.709 -3.27155 7.07524 0
M  V30 1911 N 172.938 -1.57226 0.108567 0
M  V30 1912 C 174.168 -1.9889 -0.559142 0
M  V30 1913 C 174.576 -0.986889 -1.61422 0
M  V30 1914 O 173.919 0.0298705 -1.83676 0
M  V30 1915 C 173.981 -3.36952 -1.25315 0
M  V30 1916 C 173.645 -4.55679 -0.347248 0
M  V30 1917 C 174.642 -5.18281 0.409996 0
M  V30 1918 C 172.327 -5.0162 -0.261367 0
M  V30 1919 C 174.321 -6.25203 1.24096 0
M  V30 1920 C 172.008 -6.08405 0.573238 0
M  V30 1921 C 173.006 -6.70063 1.32304 0
M  V30 1922 O 172.694 -7.74788 2.14381 0
M  V30 1923 H 172.426 -0.658343 -0.153492 0
M  V30 1924 H 174.98 -2.04532 0.188584 0
M  V30 1925 H 173.21 -3.28032 -2.04773 0
M  V30 1926 H 174.899 -3.62974 -1.81673 0
M  V30 1927 H 175.665 -4.8371 0.353457 0
M  V30 1928 H 171.544 -4.53381 -0.834656 0
M  V30 1929 H 175.088 -6.73259 1.82669 0
M  V30 1930 H 170.985 -6.42406 0.631208 0
M  V30 1931 H 171.753 -7.91837 2.07209 0
M  V30 1932 N 174.416 0.165178 -1.56732 0
M  V30 1933 C 175.346 1.20651 -1.99914 0
M  V30 1934 C 176.327 1.45827 -0.875705 0
M  V30 1935 O 177.512 1.57057 -1.14223 0
M  V30 1936 C 174.642 2.54401 -2.36427 0
M  V30 1937 C 173.596 2.43782 -3.51787 0
M  V30 1938 C 172.922 3.82078 -3.7406 0
M  V30 1939 C 174.222 1.93732 -4.85041 0
M  V30 1940 H 175.916 0.847534 -2.87154 0
M  V30 1941 H 173.462 0.40625 -1.38151 0
M  V30 1942 H 175.415 3.27458 -2.65234 0
M  V30 1943 H 174.139 2.92098 -1.46103 0
M  V30 1944 H 172.798 1.73178 -3.23117 0
M  V30 1945 H 172.446 4.17179 -2.81017 0
M  V30 1946 H 172.146 3.7584 -4.51684 0
M  V30 1947 H 173.67 4.56712 -4.05274 0
M  V30 1948 H 175.084 2.56569 -5.12684 0
M  V30 1949 H 173.481 1.98428 -5.66345 0
M  V30 1950 H 174.551 0.891962 -4.76626 0
M  V30 1951 N 175.894 1.51508 0.433938 0
M  V30 1952 C 176.857 1.72473 1.50949 0
M  V30 1953 C 177.857 0.594725 1.49398 0
M  V30 1954 O 179.047 0.862315 1.5136 0
M  V30 1955 C 176.179 1.78431 2.90474 0
M  V30 1956 H 177.372 2.68467 1.33662 0
M  V30 1957 H 174.925 1.41549 0.662836 0
M  V30 1958 H 175.66 0.842645 3.13161 0
M  V30 1959 H 175.445 2.60558 2.93005 0
M  V30 1960 H 176.935 1.96479 3.68491 0
M  V30 1961 N 177.372 -0.689602 1.41712 0
M  V30 1962 C 178.619 -1.44966 1.4139 0
M  V30 1963 C 178.947 -1.94484 0.025105 0
M  V30 1964 O 178.202 -1.70307 -0.964048 0
M  V30 1965 C 178.501 -2.67298 2.37247 0
M  V30 1966 C 178.167 -2.36405 3.83958 0
M  V30 1967 C 176.829 -2.27691 4.23923 0
M  V30 1968 C 179.181 -2.11043 4.76561 0
M  V30 1969 C 176.509 -1.91719 5.54492 0
M  V30 1970 C 178.861 -1.76578 6.07456 0
M  V30 1971 C 177.525 -1.66363 6.46436 0
M  V30 1972 H 176.795 -0.53047 0.517381 0
M  V30 1973 H 179.442 -0.787655 1.74552 0
M  V30 1974 H 177.747 -3.38461 1.9736 0
M  V30 1975 H 179.444 -3.25452 2.34269 0
M  V30 1976 H 176.034 -2.44085 3.52308 0
M  V30 1977 H 180.218 -2.16717 4.46483 0
M  V30 1978 H 175.474 -1.82367 5.83568 0
M  V30 1979 H 179.648 -1.55974 6.78708 0
M  V30 1980 H 177.275 -1.38258 7.47522 0
M  V30 1981 N 178.85 -1.27639 -0.924453 0
M  V30 1982 C 180.078 -1.16989 -1.70649 0
M  V30 1983 C 180.493 0.272869 -1.86818 0
M  V30 1984 O 179.85 1.18549 -1.38753 0
M  V30 1985 C 179.901 -1.85229 -3.10439 0
M  V30 1986 O 179.622 -3.23868 -2.95028 0
M  V30 1987 C 181.123 -1.80746 -4.04779 0
M  V30 1988 H 178.343 -0.406595 -0.53378 0
M  V30 1989 H 180.887 -1.68569 -1.15778 0
M  V30 1990 H 179.042 -1.37545 -3.6216 0
M  V30 1991 H 179.456 -3.57889 -3.83426 0
M  V30 1992 H 180.93 -2.33101 -5.00368 0
M  V30 1993 H 181.407 -0.777499 -4.32263 0
M  V30 1994 H 182.013 -2.28059 -3.58984 0
M  V30 1995 N 180.328 1.1314 -1.09713 0
M  V30 1996 C 181.568 1.8613 -0.844683 0
M  V30 1997 C 181.932 1.81765 0.618491 0
M  V30 1998 O 183.133 2.50024 0.98699 0
M  V30 1999 C 181.404 3.30151 -1.36877 0
M  V30 2000 S 182.963 4.206 -1.25064 0
M  V30 2001 H 179.781 0.642056 -0.305427 0
M  V30 2002 H 182.383 1.36343 -1.4011 0
M  V30 2003 H 181.087 3.30883 -2.42786 0
M  V30 2004 H 180.618 3.85 -0.808614 0
M  V30 2005 H 182.633 4.95783 -0.203486 0
M  V30 2006 N 181.806 0.884767 1.30421 0
M  V30 2007 C 183.054 0.502112 1.95763 0
M  V30 2008 C 183.375 -0.951815 1.70192 0
M  V30 2009 O 182.645 -1.6692 1.0254 0
M  V30 2010 H 181.225 0.182694 0.724315 0
M  V30 2011 H 183.887 1.1278 1.58955 0
M  V30 2012 H 182.983 0.672188 3.04775 0
M  V30 2013 N 183.284 -1.43765 0.645699 0
M  V30 2014 C 184.214 -2.33471 -0.0370477 0
M  V30 2015 C 185.195 -1.49042 -0.819779 0
M  V30 2016 O 186.38 -1.77726 -0.782758 0
M  V30 2017 C 183.51 -3.32311 -1.0093 0
M  V30 2018 C 182.464 -4.2667 -0.337201 0
M  V30 2019 C 181.79 -5.1549 -1.42037 0
M  V30 2020 C 183.09 -5.16657 0.765706 0
M  V30 2021 H 184.784 -2.90809 0.712069 0
M  V30 2022 H 182.33 -1.39834 0.343876 0
M  V30 2023 H 184.283 -3.9396 -1.49578 0
M  V30 2024 H 183.007 -2.73213 -1.78948 0
M  V30 2025 H 181.666 -3.66374 0.128771 0
M  V30 2026 H 181.314 -4.52735 -2.1918 0
M  V30 2027 H 181.014 -5.79438 -0.975966 0
M  V30 2028 H 182.538 -5.80012 -1.90838 0
M  V30 2029 H 183.952 -5.72158 0.361702 0
M  V30 2030 H 182.349 -5.89286 1.13413 0
M  V30 2031 H 183.419 -4.56796 1.62683 0
M  V30 2032 N 184.763 -0.387143 -1.52771 0
M  V30 2033 C 186.012 0.19697 -2.00736 0
M  V30 2034 C 186.325 1.48082 -1.27793 0
M  V30 2035 O 187.531 2.14485 -1.66458 0
M  V30 2036 C 185.987 0.401568 -3.57653 0
M  V30 2037 C 185.595 -0.868907 -4.39493 0
M  V30 2038 C 187.339 0.942164 -4.13912 0
M  V30 2039 C 185.246 -0.632705 -5.88006 0
M  V30 2040 H 184.176 0.0773827 -0.750019 0
M  V30 2041 H 186.827 -0.50921 -1.76293 0
M  V30 2042 H 185.209 1.16954 -3.78335 0
M  V30 2043 H 186.383 -1.64133 -4.30577 0
M  V30 2044 H 184.698 -1.33429 -3.94443 0
M  V30 2045 H 187.295 1.13455 -5.22525 0
M  V30 2046 H 187.638 1.9106 -3.69867 0
M  V30 2047 H 188.171 0.233814 -3.97112 0
M  V30 2048 H 184.91 -1.57208 -6.36369 0
M  V30 2049 H 184.43 0.100825 -5.99715 0
M  V30 2050 H 186.109 -0.26642 -6.46451 0
M  V30 2051 N 186.241 1.57166 -0.116904 0
M  V30 2052 C 187.657 1.5779 0.239693 0
M  V30 2053 C 187.857 1.1295 1.66867 0
M  V30 2054 O 186.913 0.81592 2.38954 0
M  V30 2055 C 188.226 3.00699 0.00828202 0
M  V30 2056 C 189.774 3.12912 0.0743438 0
M  V30 2057 C 190.249 4.57817 -0.129348 0
M  V30 2058 N 191.74 4.63139 -0.075247 0
M  V30 2059 C 192.475 5.73023 -0.207788 0
M  V30 2060 N 191.971 6.91665 -0.396382 0
M  V30 2061 N 193.764 5.61906 -0.14751 0
M  V30 2062 H 185.915 1.84615 -1.05029 0
M  V30 2063 H 188.178 0.85311 -0.41341 0
M  V30 2064 H 187.884 3.37784 -0.979531 0
M  V30 2065 H 187.758 3.69848 0.741077 0
M  V30 2066 H 190.145 2.75686 1.05268 0
M  V30 2067 H 190.226 2.4631 -0.690297 0
M  V30 2068 H 189.87 4.95742 -1.10465 0
M  V30 2069 H 189.8 5.22507 0.655253 0
M  V30 2070 H 192.291 3.7784 0.0670898 0
M  V30 2071 H 192.604 7.71255 -0.488437 0
M  V30 2072 H 190.949 6.93654 -0.432329 0
M  V30 2073 H 194.14 4.681 -0.00115036 0
M  V30 2074 H 194.313 6.47501 -0.254247 0
M  V30 2075 N 187.719 -0.156864 1.56817 0
M  V30 2076 C 188.967 -0.869404 1.82444 0
M  V30 2077 C 189.288 -1.82147 0.69623 0
M  V30 2078 O 188.558 -1.93847 -0.28287 0
M  V30 2079 H 187.138 -0.324043 0.673056 0
M  V30 2080 H 189.8 -0.153224 1.94297 0
M  V30 2081 H 188.896 -1.43761 2.77019 0
M  V30 2082 N 189.197 -1.51736 -0.425897 0
M  V30 2083 C 190.445 -1.64644 -1.17204 0
M  V30 2084 C 190.766 -0.370486 -1.91448 0
M  V30 2085 O 190.036 0.614088 -1.86026 0
M  V30 2086 H 188.616 -0.606819 -0.435638 0
M  V30 2087 H 191.278 -1.88713 -0.487177 0
M  V30 2088 H 190.374 -2.47958 -1.89534 0
M  V30 2089 N 190.675 0.682077 -1.42076 0
M  V30 2090 C 191.605 1.80796 -1.47767 0
M  V30 2091 C 192.586 1.6677 -0.334954 0
M  V30 2092 O 193.771 1.863 -0.548264 0
M  V30 2093 C 190.901 3.19038 -1.37229 0
M  V30 2094 C 189.855 3.47789 -2.49453 0
M  V30 2095 C 189.181 4.8553 -2.23975 0
M  V30 2096 C 190.481 3.45411 -3.91776 0
M  V30 2097 H 192.175 1.7629 -2.41997 0
M  V30 2098 H 189.721 0.846721 -1.16476 0
M  V30 2099 H 191.674 3.97528 -1.39821 0
M  V30 2100 H 190.398 3.24204 -0.394907 0
M  V30 2101 H 189.057 2.71657 -2.46166 0
M  V30 2102 H 188.705 4.87337 -1.24547 0
M  V30 2103 H 188.405 5.0573 -2.99184 0
M  V30 2104 H 189.929 5.66312 -2.28304 0
M  V30 2105 H 191.343 4.13882 -3.96705 0
M  V30 2106 H 189.74 3.77145 -4.66778 0
M  V30 2107 H 190.81 2.44122 -4.18966 0
M  V30 2108 N 192.153 1.28127 0.917671 0
M  V30 2109 C 193.378 1.18007 1.70555 0
M  V30 2110 C 193.803 -0.258257 1.86319 0
M  V30 2111 O 193.161 -1.1869 1.37049 0
M  V30 2112 C 193.209 1.87948 3.07746 0
M  V30 2113 O 192.313 1.18427 3.9503 0
M  V30 2114 H 191.654 0.409867 0.522403 0
M  V30 2115 H 194.184 1.69379 1.1477 0
M  V30 2116 H 194.194 1.95701 3.58001 0
M  V30 2117 H 192.869 2.92573 2.95591 0
M  V30 2118 H 191.446 1.18811 3.53466 0
M  V30 2119 N 193.631 -1.12557 1.10312 0
M  V30 2120 C 194.579 -2.20325 0.745629 0
M  V30 2121 C 195.573 -1.67429 -0.25763 0
M  V30 2122 O 196.779 -1.79612 -0.118132 0
M  V30 2123 H 193.154 -0.718118 0.223182 0
M  V30 2124 H 195.125 -2.47733 1.66346 0
M  V30 2125 C 193.874 -3.47168 0.192262 0
M  V30 2126 H 193.197 -3.88215 0.955475 0
M  V30 2127 H 194.637 -4.23995 -0.0198274 0
M  V30 2128 C 193.096 -3.19298 -1.07472 0
M  V30 2129 O 193.626 -3.3891 -2.15645 0
M  V30 2130 N 191.832 -2.73113 -0.992847 0
M  V30 2131 H 191.379 -2.57354 -0.112474 0
M  V30 2132 H 191.337 -2.54842 -1.84127 0
M  V30 2133 N 195.109 -0.891671 -1.2995 0
M  V30 2134 C 196.039 -0.379797 -2.30391 0
M  V30 2135 C 197.02 0.540919 -1.6127 0
M  V30 2136 O 198.205 0.453352 -1.88834 0
M  V30 2137 C 195.335 0.400654 -3.44981 0
M  V30 2138 C 194.289 -0.428905 -4.25846 0
M  V30 2139 C 193.615 0.478557 -5.32554 0
M  V30 2140 C 194.915 -1.67458 -4.94727 0
M  V30 2141 H 196.609 -1.21914 -2.73454 0
M  V30 2142 H 194.155 -0.587675 -1.31462 0
M  V30 2143 H 196.108 0.769434 -4.14316 0
M  V30 2144 H 194.832 1.27371 -3.0074 0
M  V30 2145 H 193.491 -0.779911 -3.58208 0
M  V30 2146 H 193.139 1.34951 -4.84559 0
M  V30 2147 H 192.839 -0.0727433 -5.87555 0
M  V30 2148 H 194.363 0.843705 -6.04743 0
M  V30 2149 H 195.777 -1.376 -5.56542 0
M  V30 2150 H 194.174 -2.16659 -5.59624 0
M  V30 2151 H 195.244 -2.41518 -4.20473 0
M  V30 2152 N 196.587 1.43421 -0.653314 0
M  V30 2153 C 197.835 2.01414 -0.166415 0
M  V30 2154 C 198.156 1.51803 1.22397 0
M  V30 2155 O 197.426 0.730693 1.81763 0
M  V30 2156 H 196.006 0.744703 -0.0585319 0
M  V30 2157 H 198.668 1.75629 -0.845003 0
M  V30 2158 H 197.764 3.11734 -0.151111 0
M  V30 2159 N 198.065 0.39524 1.52563 0
M  V30 2160 C 199.314 -0.186321 2.00838 0
M  V30 2161 C 199.627 -1.47402 1.28577 0
M  V30 2162 O 200.833 -2.13599 1.67593 0
M  V30 2163 C 199.289 -0.382595 3.57861 0
M  V30 2164 C 198.897 0.892202 4.39026 0
M  V30 2165 C 200.641 -0.9202 4.14406 0
M  V30 2166 C 198.548 0.66388 5.87662 0
M  V30 2167 H 197.478 -0.0734041 0.750418 0
M  V30 2168 H 200.129 0.518552 1.76021 0
M  V30 2169 H 198.511 -1.14946 3.7895 0
M  V30 2170 H 199.685 1.66414 4.29701 0
M  V30 2171 H 198 1.35519 3.9373 0
M  V30 2172 H 200.597 -1.10683 5.23119 0
M  V30 2173 H 200.94 -1.89096 3.70875 0
M  V30 2174 H 201.473 -0.212751 3.97231 0
M  V30 2175 H 198.212 1.6058 6.35527 0
M  V30 2176 H 197.732 -0.0690193 5.9976 0
M  V30 2177 H 199.411 0.300699 6.46301 0
M  V30 2178 N 199.544 -1.57102 0.125237 0
M  V30 2179 C 200.491 -2.15641 -0.822655 0
M  V30 2180 C 201.461 -1.08313 -1.25927 0
M  V30 2181 O 202.646 -1.36251 -1.33567 0
M  V30 2182 C 199.786 -2.76504 -2.06494 0
M  V30 2183 C 198.899 -3.98158 -1.67612 0
M  V30 2184 C 198.034 -4.47088 -2.86854 0
M  V30 2185 C 197.073 -5.6126 -2.44242 0
M  V30 2186 N 196.21 -6.04905 -3.56419 0
M  V30 2187 H 201.05 -2.96313 -0.316625 0
M  V30 2188 H 198.587 -1.46388 -0.144588 0
M  V30 2189 H 200.545 -3.09925 -2.79289 0
M  V30 2190 H 199.175 -1.98512 -2.54545 0
M  V30 2191 H 198.227 -3.70858 -0.846661 0
M  V30 2192 H 199.539 -4.80934 -1.32301 0
M  V30 2193 H 198.693 -4.82451 -3.67867 0
M  V30 2194 H 197.432 -3.63275 -3.25396 0
M  V30 2195 H 196.437 -5.25495 -1.61663 0
M  V30 2196 H 197.662 -6.46843 -2.0681 0
M  V30 2197 H 195.608 -5.24032 -3.94623 0
M  V30 2198 H 195.525 -6.82552 -3.25051 0
M  V30 2199 H 196.793 -6.44907 -4.37853 0
M  V30 2200 N 201.022 0.148545 -1.56898 0
M  V30 2201 C 202.247 0.880385 -1.87787 0
M  V30 2202 C 202.672 1.74018 -0.714093 0
M  V30 2203 O 202.03 1.78153 0.336343 0
M  V30 2204 C 202.078 1.71422 -3.17249 0
M  V30 2205 O 201.182 2.8183 -3.01074 0
M  V30 2206 H 200.523 0.245301 -0.617028 0
M  V30 2207 H 203.053 0.139826 -2.04122 0
M  V30 2208 H 203.063 2.10954 -3.49231 0
M  V30 2209 H 201.738 1.08284 -4.01556 0
M  V30 2210 H 200.315 2.45715 -2.80497 0
M  V30 2211 N 202.5 1.5196 0.417844 0
M  V30 2212 C 203.749 1.6482 1.16264 0
M  V30 2213 C 204.062 0.379886 1.91876 0
M  V30 2214 O 205.268 0.388154 2.68711 0
M  V30 2215 C 203.724 2.91161 2.1155 0
M  V30 2216 C 203.332 4.25068 1.41495 0
M  V30 2217 C 205.076 3.13383 2.86341 0
M  V30 2218 C 202.983 5.42541 2.35379 0
M  V30 2219 H 201.913 0.613954 0.437694 0
M  V30 2220 H 204.564 1.78442 0.427871 0
M  V30 2221 H 202.946 2.71218 2.88543 0
M  V30 2222 H 204.12 4.55463 0.699263 0
M  V30 2223 H 202.435 4.0888 0.787792 0
M  V30 2224 H 205.032 3.98324 3.5671 0
M  V30 2225 H 205.375 2.27256 3.48798 0
M  V30 2226 H 205.908 3.33757 2.1645 0
M  V30 2227 H 202.647 6.30987 1.77582 0
M  V30 2228 H 202.167 5.16497 3.04945 0
M  V30 2229 H 203.846 5.75272 2.96093 0
M  V30 2230 N 203.978 -0.674533 1.42435 0
M  V30 2231 C 205.224 -1.43671 1.43131 0
M  V30 2232 C 205.557 -1.94142 0.0476021 0
M  V30 2233 O 204.832 -1.70924 -0.928188 0
M  V30 2234 C 205.115 -2.63355 2.45594 0
M  V30 2235 C 204.968 -2.18514 3.93156 0
M  V30 2236 C 206.287 -3.65571 2.45043 0
M  V30 2237 H 203.406 -0.521077 0.521198 0
M  V30 2238 H 206.048 -0.766551 1.7385 0
M  V30 2239 H 204.198 -3.2053 2.19528 0
M  V30 2240 H 205.87 -1.66504 4.30202 0
M  V30 2241 H 204.113 -1.50086 4.07009 0
M  V30 2242 H 204.784 -3.04484 4.60428 0
M  V30 2243 H 207.26 -3.18113 2.68223 0
M  V30 2244 H 206.136 -4.46893 3.18713 0
M  V30 2245 H 206.397 -4.16716 1.47649 0
M  V30 2246 N 205.456 -1.28612 -0.910864 0
M  V30 2247 C 206.684 -1.18792 -1.69399 0
M  V30 2248 C 207.099 0.253039 -1.87097 0
M  V30 2249 O 206.456 1.17071 -1.40003 0
M  V30 2250 C 206.507 -1.88511 -3.08457 0
M  V30 2251 O 206.228 -3.26979 -2.91576 0
M  V30 2252 C 207.729 -1.85029 -4.02839 0
M  V30 2253 H 204.949 -0.412233 -0.529438 0
M  V30 2254 H 207.493 -1.69788 -1.13984 0
M  V30 2255 H 205.648 -1.41379 -3.60681 0
M  V30 2256 H 206.062 -3.61936 -3.79608 0
M  V30 2257 H 207.536 -2.38395 -4.97867 0
M  V30 2258 H 208.013 -0.823303 -4.31414 0
M  V30 2259 H 208.619 -2.31853 -3.56545 0
M  V30 2260 N 206.934 1.1197 -1.10907 0
M  V30 2261 C 207.897 2.16031 -0.765707 0
M  V30 2262 C 208.897 1.59393 0.212235 0
M  V30 2263 O 210.087 1.74196 -0.0115441 0
M  V30 2264 C 207.219 3.40632 -0.135053 0
M  V30 2265 H 208.412 2.47919 -1.68748 0
M  V30 2266 H 205.965 1.27061 -0.910226 0
M  V30 2267 H 206.7 3.14348 0.797218 0
M  V30 2268 H 206.485 3.8302 -0.838937 0
M  V30 2269 H 207.975 4.17505 0.0892469 0
M  V30 2270 N 208.412 0.89855 1.29475 0
M  V30 2271 C 209.322 0.379974 2.31502 0
M  V30 2272 C 210.338 -0.524695 1.659 0
M  V30 2273 O 211.514 -0.414551 1.97087 0
M  V30 2274 C 208.579 -0.385138 3.44554 0
M  V30 2275 C 207.64 0.550914 4.2575 0
M  V30 2276 C 206.873 -0.177778 5.33404 0
M  V30 2277 O 207.096 -1.40189 5.52904 0
M  V30 2278 O 206.03 0.479106 5.9999 0
M  V30 2279 H 209.856 1.22639 2.77837 0
M  V30 2280 H 207.441 0.662834 1.33891 0
M  V30 2281 H 209.323 -0.817841 4.13388 0
M  V30 2282 H 207.998 -1.20763 3.0033 0
M  V30 2283 H 206.905 1.03271 3.59564 0
M  V30 2284 H 208.238 1.33979 4.73614 0
M  V30 2285 N 209.89 -1.43072 0.660911 0
M  V30 2286 C 211.136 -2.0202 0.177708 0
M  V30 2287 C 211.469 -1.52066 -1.20787 0
M  V30 2288 O 210.744 -0.716987 -1.80802 0
M  V30 2289 C 211.027 -3.59561 0.197019 0
M  V30 2290 C 210.88 -4.19727 1.61706 0
M  V30 2291 C 212.199 -4.37664 -0.462396 0
M  V30 2292 H 209.318 -0.734034 0.0660494 0
M  V30 2293 H 211.96 -1.70272 0.843058 0
M  V30 2294 H 210.11 -3.86739 -0.369527 0
M  V30 2295 H 211.782 -4.03553 2.23479 0
M  V30 2296 H 210.025 -3.76084 2.16201 0
M  V30 2297 H 210.696 -5.28834 1.58237 0
M  V30 2298 H 213.172 -4.16095 0.0197215 0
M  V30 2299 H 212.048 -5.47305 -0.418188 0
M  V30 2300 H 212.309 -4.14493 -1.53778 0
M  V30 2301 N 211.368 -0.403325 -1.52352 0
M  V30 2302 C 212.593 0.176499 -2.06648 0
M  V30 2303 C 213.018 1.38577 -1.27193 0
M  V30 2304 O 212.376 1.7879 -0.300637 0
M  V30 2305 C 212.424 0.511061 -3.5696 0
M  V30 2306 O 211.528 1.60294 -3.79973 0
M  V30 2307 H 210.869 0.0167337 -0.663789 0
M  V30 2308 H 213.399 -0.574848 -1.96359 0
M  V30 2309 H 213.409 0.771362 -4.00642 0
M  V30 2310 H 212.084 -0.37296 -4.14224 0
M  V30 2311 H 210.661 1.33526 -3.48174 0
M  V30 2312 N 212.846 1.57033 -0.133567 0
M  V30 2313 C 214.071 2.00475 0.531477 0
M  V30 2314 C 214.496 1.01291 1.58499 0
M  V30 2315 O 213.854 -0.0133279 1.81295 0
M  V30 2316 C 213.902 3.42729 1.12113 0
M  V30 2317 O 213.006 3.46498 2.23636 0
M  V30 2318 H 212.347 0.650876 0.131362 0
M  V30 2319 H 214.877 2.03344 -0.22634 0
M  V30 2320 H 214.887 3.81246 1.4531 0
M  V30 2321 H 213.562 4.14428 0.349557 0
M  V30 2322 H 212.139 3.19811 1.91769 0
M  V30 2323 N 214.325 -0.140222 1.56975 0
M  V30 2324 C 215.258 -1.20266 1.93936 0
M  V30 2325 C 216.236 -1.41212 0.806099 0
M  V30 2326 O 217.42 -1.55713 1.06234 0
M  V30 2327 C 214.547 -2.56037 2.21726 0
M  V30 2328 C 213.593 -2.51646 3.44349 0
M  V30 2329 S 214.426 -1.97678 4.97678 0
M  V30 2330 C 215.582 -3.35165 5.28597 0
M  V30 2331 H 215.815 -0.887358 2.83749 0
M  V30 2332 H 213.348 -0.346119 1.50471 0
M  V30 2333 H 215.306 -3.34167 2.38416 0
M  V30 2334 H 213.967 -2.84755 1.32566 0
M  V30 2335 H 213.16 -3.51608 3.61092 0
M  V30 2336 H 212.762 -1.81628 3.26936 0
M  V30 2337 H 215.054 -4.31302 5.2248 0
M  V30 2338 H 215.997 -3.23269 6.30002 0
M  V30 2339 H 216.405 -3.32614 4.56101 0
M  V30 2340 N 215.803 -1.52179 -0.40978 0
M  V30 2341 C 217.214 -1.58377 -0.988615 0
M  V30 2342 C 217.565 -0.423879 -1.91566 0
M  V30 2343 O 216.69 0.455844 -2.11544 0
M  V30 2344 C 217.285 -2.87044 -1.79976 0
M  V30 2345 C 215.844 -2.95722 -2.32863 0
M  V30 2346 C 214.991 -2.53309 -1.12828 0
M  V30 2347 H 217.942 -1.57558 -0.190039 0
M  V30 2348 H 217.963 -2.7236 -2.65707 0
M  V30 2349 H 217.475 -3.71444 -1.12478 0
M  V30 2350 H 215.576 -2.15814 -3.03735 0
M  V30 2351 H 215.689 -3.99951 -2.63773 0
M  V30 2352 H 214.053 -2.07142 -1.48204 0
M  V30 2353 H 214.836 -3.40082 -0.46897 0
M  V30 2354 N 217.281 0.66697 -1.42791 0
M  V30 2355 C 218.244 1.76211 -1.46568 0
M  V30 2356 C 219.244 1.56896 -0.352196 0
M  V30 2357 O 220.434 1.63044 -0.613364 0
M  V30 2358 C 217.566 3.14935 -1.30494 0
M  V30 2359 H 218.759 1.74247 -2.44086 0
M  V30 2360 H 216.312 0.877342 -1.29354 0
M  V30 2361 H 217.047 3.2252 -0.339301 0
M  V30 2362 H 216.832 3.30359 -2.11199 0
M  V30 2363 H 218.322 3.94821 -1.36038 0
M  V30 2364 N 218.759 1.29093 0.90403 0
M  V30 2365 C 219.999 1.18076 1.66845 0
M  V30 2366 C 220.363 -0.26436 1.90171 0
M  V30 2367 O 221.564 -0.497423 2.64157 0
M  V30 2368 C 219.835 1.96722 2.98388 0
M  V30 2369 S 221.394 2.0219 3.89441 0
M  V30 2370 H 218.212 0.421104 0.572881 0
M  V30 2371 H 220.814 1.63322 1.07453 0
M  V30 2372 H 219.518 3.00866 2.7912 0
M  V30 2373 H 219.049 1.52064 3.62823 0
M  V30 2374 H 221.064 1.13545 4.83034 0
M  V30 2375 N 220.237 -1.11381 1.11499 0
M  V30 2376 C 221.184 -2.17439 0.773887 0
M  V30 2377 C 222.154 -1.64132 -0.254899 0
M  V30 2378 O 223.339 -1.90345 -0.13168 0
M  V30 2379 C 220.479 -3.44373 0.223917 0
M  V30 2380 C 219.592 -4.1168 1.30934 0
M  V30 2381 C 218.727 -5.263 0.71984 0
M  V30 2382 C 217.766 -5.85493 1.78507 0
M  V30 2383 N 216.903 -6.91507 1.21502 0
M  V30 2384 H 221.743 -2.45962 1.68246 0
M  V30 2385 H 219.28 -1.20744 0.840191 0
M  V30 2386 H 221.238 -4.17047 -0.112921 0
M  V30 2387 H 219.868 -3.16232 -0.647851 0
M  V30 2388 H 218.92 -3.37073 1.76312 0
M  V30 2389 H 220.232 -4.51729 2.11524 0
M  V30 2390 H 219.386 -6.05785 0.333094 0
M  V30 2391 H 218.125 -4.87559 -0.117377 0
M  V30 2392 H 217.13 -5.04686 2.18111 0
M  V30 2393 H 218.355 -6.26301 2.62533 0
M  V30 2394 H 216.301 -6.54783 0.399455 0
M  V30 2395 H 216.218 -7.30214 1.95763 0
M  V30 2396 H 217.486 -7.74795 0.855181 0
M  V30 2397 N 221.715 -0.905404 -1.28997 0
M  V30 2398 C 222.962 -0.534248 -1.95325 0
M  V30 2399 C 223.29 0.920535 -1.71337 0
M  V30 2400 O 222.545 1.66861 -1.02254 0
M  V30 2401 C 222.844 -0.779906 -3.48787 0
M  V30 2402 C 222.51 -2.21293 -3.92861 0
M  V30 2403 C 221.172 -2.60475 -4.04606 0
M  V30 2404 C 223.524 -3.14587 -4.15553 0
M  V30 2405 C 220.852 -3.9212 -4.36416 0
M  V30 2406 C 223.204 -4.45787 -4.48839 0
M  V30 2407 C 221.868 -4.84834 -4.58794 0
M  V30 2408 H 221.138 -0.195495 -0.714747 0
M  V30 2409 H 223.785 -1.14514 -1.53488 0
M  V30 2410 H 222.09 -0.0861365 -3.91705 0
M  V30 2411 H 223.787 -0.472029 -3.98212 0
M  V30 2412 H 220.377 -1.89887 -3.84241 0
M  V30 2413 H 224.561 -2.85528 -4.0594 0
M  V30 2414 H 219.817 -4.22086 -4.42327 0
M  V30 2415 H 223.991 -5.18098 -4.65346 0
M  V30 2416 H 221.618 -5.86877 -4.83197 0
M  V30 2417 N 223.193 1.4272 -0.668489 0
M  V30 2418 C 224.125 2.2914 0.052613 0
M  V30 2419 C 225.138 1.43339 0.771857 0
M  V30 2420 O 226.327 1.67123 0.627067 0
M  V30 2421 C 223.427 3.20618 1.09804 0
M  V30 2422 C 222.6 4.35039 0.45389 0
M  V30 2423 C 221.659 5.07282 1.39825 0
M  V30 2424 O 220.685 5.62024 0.900978 0
M  V30 2425 N 221.887 5.12206 2.73176 0
M  V30 2426 H 224.652 2.91668 -0.689209 0
M  V30 2427 H 222.213 1.53577 -0.512422 0
M  V30 2428 H 224.205 3.65815 1.73094 0
M  V30 2429 H 222.775 2.59585 1.74167 0
M  V30 2430 H 221.995 3.92567 -0.358396 0
M  V30 2431 H 223.283 5.088 0.00486972 0
M  V30 2432 H 222.681 4.6913 3.16122 0
M  V30 2433 H 221.238 5.61069 3.31729 0
M  V30 2434 N 224.671 0.411399 1.52136 0
M  V30 2435 C 225.917 -0.163888 2.02137 0
M  V30 2436 C 226.25 -1.44597 1.29636 0
M  V30 2437 O 225.525 -1.90272 0.403353 0
M  V30 2438 C 225.808 -0.40927 3.57767 0
M  V30 2439 C 225.661 0.889643 4.40914 0
M  V30 2440 C 226.98 -1.19042 4.23694 0
M  V30 2441 H 224.099 -0.0580896 0.734707 0
M  V30 2442 H 226.741 0.54531 1.82007 0
M  V30 2443 H 224.891 -1.0134 3.7505 0
M  V30 2444 H 226.563 1.52575 4.35337 0
M  V30 2445 H 224.806 1.50011 4.07037 0
M  V30 2446 H 225.477 0.672314 5.4789 0
M  V30 2447 H 227.953 -0.678942 4.10524 0
M  V30 2448 H 226.829 -1.33086 5.32522 0
M  V30 2449 H 227.09 -2.21166 3.82803 0
M  V30 2450 N 226.149 -1.5696 0.141893 0
M  V30 2451 C 227.082 -2.12271 -0.837627 0
M  V30 2452 C 228.06 -1.04495 -1.24578 0
M  V30 2453 O 229.244 -1.32293 -1.34278 0
M  V30 2454 C 226.371 -2.63822 -2.12404 0
M  V30 2455 C 225.417 -3.83698 -1.86221 0
M  V30 2456 S 226.25 -5.24948 -1.05781 0
M  V30 2457 C 227.406 -5.79884 -2.35552 0
M  V30 2458 H 227.639 -2.95023 -0.367249 0
M  V30 2459 H 225.172 -1.54231 -0.0723014 0
M  V30 2460 H 227.13 -2.94175 -2.86307 0
M  V30 2461 H 225.791 -1.8121 -2.56557 0
M  V30 2462 H 224.984 -4.17995 -2.81596 0
M  V30 2463 H 224.586 -3.5408 -1.20429 0
M  V30 2464 H 226.878 -5.91005 -3.31239 0
M  V30 2465 H 227.821 -6.77544 -2.05767 0
M  V30 2466 H 228.229 -5.08095 -2.45967 0
M  V30 2467 N 227.627 0.131896 -1.57047 0
M  V30 2468 C 228.876 0.84044 -1.83356 0
M  V30 2469 C 229.189 1.81646 -0.725535 0
M  V30 2470 O 230.395 2.57025 -0.874659 0
M  V30 2471 C 228.851 1.54528 -3.25037 0
M  V30 2472 C 228.459 0.610902 -4.43815 0
M  V30 2473 C 230.203 2.23972 -3.60606 0
M  V30 2474 C 228.11 1.31823 -5.76521 0
M  V30 2475 H 227.04 0.317599 -0.683847 0
M  V30 2476 H 229.691 0.0931561 -1.83263 0
M  V30 2477 H 228.073 2.33873 -3.19561 0
M  V30 2478 H 229.247 -0.148407 -4.60561 0
M  V30 2479 H 227.562 0.0241016 -4.16393 0
M  V30 2480 H 230.159 2.77558 -4.57018 0
M  V30 2481 H 230.502 3.01173 -2.87403 0
M  V30 2482 H 231.035 1.51529 -3.6781 0
M  V30 2483 H 227.774 0.587771 -6.52859 0
M  V30 2484 H 227.294 2.04987 -5.63685 0
M  V30 2485 H 228.973 1.855 -6.19838 0
M  V30 2486 N 229.106 1.52395 0.401703 0
M  V30 2487 C 230.038 1.72505 1.50912 0
M  V30 2488 C 231.051 0.605468 1.51122 0
M  V30 2489 O 232.24 0.880828 1.55254 0
M  V30 2490 C 229.34 1.75711 2.89791 0
M  V30 2491 C 228.513 3.04824 3.1369 0
M  V30 2492 C 227.572 2.99743 4.32482 0
M  V30 2493 O 226.598 3.73635 4.29402 0
M  V30 2494 N 227.8 2.18047 5.37992 0
M  V30 2495 H 230.565 2.68049 1.34052 0
M  V30 2496 H 228.126 1.50724 0.591084 0
M  V30 2497 H 230.118 1.69834 3.6734 0
M  V30 2498 H 228.688 0.876092 3.00072 0
M  V30 2499 H 227.908 3.2429 2.24119 0
M  V30 2500 H 229.196 3.90221 3.26504 0
M  V30 2501 H 228.594 1.57456 5.43345 0
M  V30 2502 H 227.151 2.18021 6.14256 0
M  V30 2503 N 230.584 -0.659388 1.43143 0
M  V30 2504 C 231.531 -1.77249 1.47822 0
M  V30 2505 C 232.501 -1.62818 0.328558 0
M  V30 2506 O 233.686 -1.83151 0.534838 0
M  V30 2507 C 230.826 -3.15371 1.40126 0
M  V30 2508 C 229.939 -3.4098 2.65249 0
M  V30 2509 C 229.074 -4.68915 2.49584 0
M  V30 2510 C 228.113 -4.87608 3.70006 0
M  V30 2511 N 227.25 -6.06796 3.53189 0
M  V30 2512 H 232.09 -1.72584 2.42938 0
M  V30 2513 H 229.627 -0.842297 1.20598 0
M  V30 2514 H 231.585 -3.9521 1.33659 0
M  V30 2515 H 230.215 -3.19121 0.485964 0
M  V30 2516 H 229.267 -2.55282 2.8202 0
M  V30 2517 H 230.579 -3.50681 3.54717 0
M  V30 2518 H 229.733 -5.56871 2.4079 0
M  V30 2519 H 228.472 -4.61524 1.5763 0
M  V30 2520 H 227.477 -3.9809 3.79215 0
M  V30 2521 H 228.702 -4.96834 4.62961 0
M  V30 2522 H 226.648 -6.00549 2.63965 0
M  V30 2523 H 226.565 -6.17428 4.36255 0
M  V30 2524 H 227.833 -6.9739 3.48236 0
M  V30 2525 N 232.062 -1.29571 -0.897171 0
M  V30 2526 C 232.992 -1.17473 -2.01798 0
M  V30 2527 C 233.973 -0.068323 -1.69963 0
M  V30 2528 O 235.158 -0.248239 -1.92607 0
M  V30 2529 C 232.288 -0.853099 -3.36659 0
M  V30 2530 C 231.242 -1.9161 -3.82713 0
M  V30 2531 C 230.568 -1.44773 -5.14728 0
M  V30 2532 C 231.868 -3.32535 -4.02763 0
M  V30 2533 H 233.562 -2.11237 -2.12177 0
M  V30 2534 H 231.108 -1.01699 -1.01948 0
M  V30 2535 H 233.061 -0.755165 -4.14578 0
M  V30 2536 H 231.785 0.120236 -3.26379 0
M  V30 2537 H 230.444 -2.00346 -3.07013 0
M  V30 2538 H 230.092 -0.462995 -5.00865 0
M  V30 2539 H 229.792 -2.15865 -5.46513 0
M  V30 2540 H 231.316 -1.36334 -5.95185 0
M  V30 2541 H 232.73 -3.26626 -4.71156 0
M  V30 2542 H 231.127 -4.01607 -4.45905 0
M  V30 2543 H 232.197 -3.75326 -3.07016 0
M  V30 2544 O 233.579 1.03276 -1.24162 0
M  V30 2545 H 234.27 1.64832 -1.01735 0
M  V30 END ATOM
M  V30 BEGIN BOND
M  V30 END BOND
M  V30 END CTAB
M  END
$$$$
