drugbank_target|Q86T13 C-type lectin domain family 14 member A (DB02709)
 OpenBabel12092121023D

  0  0  0     0  0            999 V3000
M  V30 BEGIN CTAB
M  V30 COUNTS 7171 7254 0 0 0
M  V30 BEGIN ATOM
M  V30 1 H -0.908 1.98254 -0.117106 0
M  V30 2 N 0 1.576 0 0
M  V30 3 C 0.933 2.03868 1.02534 0
M  V30 4 C 1.911 0.928543 1.3348 0
M  V30 5 O 3.095 1.19667 1.45644 0
M  V30 6 C 0.222 2.43627 2.35294 0
M  V30 7 C -0.732 3.65373 2.2001 0
M  V30 8 S 0.101 5.13292 1.52614 0
M  V30 9 C 1.257 5.56322 2.86805 0
M  V30 10 H 1.49 2.90518 0.631377 0
M  V30 11 H -0.977 1.52953 0.210867 0
M  V30 12 H 0.981 2.67203 3.11629 0
M  V30 13 H -0.358 1.57376 2.7183 0
M  V30 14 H -1.165 3.90944 3.18086 0
M  V30 15 H -1.563 3.418 1.51819 0
M  V30 16 H 0.729 5.58782 3.83104 0
M  V30 17 H 1.672 6.56266 2.65933 0
M  V30 18 H 2.08 4.83886 2.90714 0
M  V30 19 N 1.4781 -0.272755 1.55222 0
M  V30 20 C 2.8941 -0.619959 1.47067 0
M  V30 21 C 3.0941 -1.895 0.684978 0
M  V30 22 O 2.1501 -2.51675 0.203931 0
M  V30 23 C 3.4631 -0.746693 2.91282 0
M  V30 24 C 5.0111 -0.840731 3.01497 0
M  V30 25 C 5.4861 -0.99924 4.46967 0
M  V30 26 N 6.9771 -1.06476 4.50796 0
M  V30 27 C 7.7121 -1.20621 5.6057 0
M  V30 28 N 7.2081 -1.31483 6.80209 0
M  V30 29 N 9.0011 -1.23733 5.48312 0
M  V30 30 H 1.1521 0.564606 2.04758 0
M  V30 31 H 3.4151 0.191177 0.928523 0
M  V30 32 H 3.1211 0.119753 3.51496 0
M  V30 33 H 2.9951 -1.6269 3.40311 0
M  V30 34 H 5.3821 -1.69764 2.41379 0
M  V30 35 H 5.4631 0.0640874 2.5572 0
M  V30 36 H 5.1071 -0.146984 5.07687 0
M  V30 37 H 5.0371 -1.91871 4.90401 0
M  V30 38 H 7.5281 -0.993196 3.64615 0
M  V30 39 H 7.8411 -1.42111 7.59621 0
M  V30 40 H 6.1861 -1.28487 6.8302 0
M  V30 41 H 9.3771 -1.14877 4.53785 0
M  V30 42 H 9.5501 -1.34412 6.33906 0
M  V30 43 N 2.9562 -1.48159 -0.537278 0
M  V30 44 C 4.3672 -1.49429 -1.11928 0
M  V30 45 C 4.7182 -0.26 -1.9447 0
M  V30 46 O 3.8432 0.633489 -2.0692 0
M  V30 47 C 4.4382 -2.70758 -2.03656 0
M  V30 48 C 2.9972 -2.74923 -2.57088 0
M  V30 49 C 2.1442 -2.42835 -1.3389 0
M  V30 50 H 5.0952 -1.55381 -0.322886 0
M  V30 51 H 5.1162 -2.48861 -2.87834 0
M  V30 52 H 4.6282 -3.60575 -1.43553 0
M  V30 53 H 2.7292 -1.89296 -3.20933 0
M  V30 54 H 2.8422 -3.76157 -2.9672 0
M  V30 55 H 1.2062 -1.93836 -1.65226 0
M  V30 56 H 1.9892 -3.34884 -0.755504 0
M  V30 57 N 4.4343 0.785586 -1.36625 0
M  V30 58 C 5.3973 1.87999 -1.31107 0
M  V30 59 C 6.3973 1.59316 -0.217959 0
M  V30 60 O 7.5873 1.67656 -0.472977 0
M  V30 61 C 4.7193 3.24861 -1.03334 0
M  V30 62 H 5.9123 1.94307 -2.2844 0
M  V30 63 H 3.4653 0.983813 -1.21453 0
M  V30 64 H 4.2003 3.24235 -0.0647432 0
M  V30 65 H 3.9853 3.4707 -1.82441 0
M  V30 66 H 5.4753 4.04929 -1.02088 0
M  V30 67 N 5.9124 1.20967 1.01018 0
M  V30 68 C 7.1594 1.02374 1.74716 0
M  V30 69 C 7.4874 -0.443375 1.89379 0
M  V30 70 O 6.7424 -1.34535 1.42123 0
M  V30 71 C 7.0414 1.65997 3.16512 0
M  V30 72 C 6.7074 3.15831 3.2181 0
M  V30 73 C 5.3694 3.56719 3.22963 0
M  V30 74 C 7.7214 4.11816 3.19464 0
M  V30 75 C 5.0494 4.92107 3.19449 0
M  V30 76 C 7.4014 5.47158 3.17491 0
M  V30 77 C 6.0654 5.87451 3.16951 0
M  V30 78 H 5.3354 0.374614 0.639332 0
M  V30 79 H 7.9824 1.50485 1.18434 0
M  V30 80 H 6.2874 1.10166 3.75993 0
M  V30 81 H 7.9844 1.49119 3.72242 0
M  V30 82 H 4.5744 2.83263 3.21652 0
M  V30 83 H 8.7584 3.81257 3.17737 0
M  V30 84 H 4.0144 5.22579 3.17366 0
M  V30 85 H 8.1884 6.21274 3.14629 0
M  V30 86 H 5.8154 6.92329 3.13983 0
M  V30 87 N 7.3905 -1.2043 1.01659 0
M  V30 88 C 8.3535 -2.21433 0.591616 0
M  V30 89 C 9.3535 -1.57203 -0.338226 0
M  V30 90 O 10.5435 -1.73737 -0.126918 0
M  V30 91 C 7.6755 -3.40628 -0.136058 0
M  V30 92 H 8.8685 -2.60545 1.48514 0
M  V30 93 H 6.4215 -1.33893 0.806379 0
M  V30 94 H 7.1565 -3.07019 -1.04449 0
M  V30 95 H 6.9415 -3.88475 0.531917 0
M  V30 96 H 8.4315 -4.15475 -0.420735 0
M  V30 97 N 8.8686 -0.792821 -1.36206 0
M  V30 98 C 9.7986 -0.207853 -2.32573 0
M  V30 99 C 10.7796 0.659055 -1.56813 0
M  V30 100 O 11.9646 0.592176 -1.84951 0
M  V30 101 C 9.0946 0.655449 -3.41059 0
M  V30 102 C 8.0486 -0.111842 -4.27854 0
M  V30 103 C 7.3746 0.872274 -5.27537 0
M  V30 104 C 8.6746 -1.30299 -5.05786 0
M  V30 105 H 10.3686 -1.01294 -2.81744 0
M  V30 106 H 7.9146 -0.48854 -1.3546 0
M  V30 107 H 9.8676 1.07464 -4.07467 0
M  V30 108 H 8.5916 1.49328 -2.90463 0
M  V30 109 H 7.2506 -0.512053 -3.63006 0
M  V30 110 H 6.8986 1.70523 -4.73214 0
M  V30 111 H 6.5986 0.363291 -5.86476 0
M  V30 112 H 8.1226 1.28996 -5.96818 0
M  V30 113 H 9.5366 -0.959379 -5.65216 0
M  V30 114 H 7.9336 -1.7455 -5.74154 0
M  V30 115 H 9.0036 -2.09663 -4.37229 0
M  V30 116 N 10.3467 1.47872 -0.545128 0
M  V30 117 C 11.5867 2.04391 -0.0187854 0
M  V30 118 C 11.9507 1.41162 1.30144 0
M  V30 119 O 13.1517 1.88656 1.91474 0
M  V30 120 C 11.4227 3.57299 0.0850867 0
M  V30 121 S 12.9817 4.35221 0.559302 0
M  V30 122 H 9.7997 0.710737 -0.0193301 0
M  V30 123 H 12.4017 1.81395 -0.729125 0
M  V30 124 H 11.1057 4.00847 -0.880351 0
M  V30 125 H 10.6367 3.84773 0.819348 0
M  V30 126 H 12.6517 4.61571 1.82118 0
M  V30 127 N 11.8248 0.280983 1.55075 0
M  V30 128 C 12.7548 -0.597469 2.25727 0
M  V30 129 C 13.7358 -1.15417 1.24952 0
M  V30 130 O 14.9208 -1.18722 1.53684 0
M  V30 131 C 12.0508 -1.7789 2.98283 0
M  V30 132 C 11.0048 -1.35347 4.06036 0
M  V30 133 C 10.3308 -2.61846 4.66198 0
M  V30 134 C 11.6308 -0.499354 5.19907 0
M  V30 135 H 13.3248 -0.00824265 2.99399 0
M  V30 136 H 10.8708 -0.0025244 1.44 0
M  V30 137 H 12.8238 -2.39937 3.46422 0
M  V30 138 H 11.5478 -2.39405 2.22155 0
M  V30 139 H 10.2068 -0.756156 3.58717 0
M  V30 140 H 9.8548 -3.21632 3.86732 0
M  V30 141 H 9.5548 -2.3409 5.38958 0
M  V30 142 H 11.0788 -3.24732 5.1709 0
M  V30 143 H 12.4928 -1.02498 5.64063 0
M  V30 144 H 10.8898 -0.316424 5.99265 0
M  V30 145 H 11.9598 0.480459 4.82514 0
M  V30 146 N 13.3029 -1.57598 0.00835791 0
M  V30 147 C 14.2329 -2.1198 -0.979113 0
M  V30 148 C 15.2139 -1.03091 -1.35301 0
M  V30 149 O 16.3989 -1.30818 -1.43528 0
M  V30 150 C 13.5289 -2.62995 -2.26828 0
M  V30 151 C 12.4829 -3.76485 -2.03576 0
M  V30 152 C 11.8089 -4.13846 -3.38579 0
M  V30 153 C 13.1089 -5.0342 -1.39161 0
M  V30 154 H 14.8029 -2.94738 -0.526281 0
M  V30 155 H 12.3489 -1.41783 -0.251704 0
M  V30 156 H 14.3019 -2.99669 -2.96271 0
M  V30 157 H 13.0259 -1.7737 -2.7424 0
M  V30 158 H 11.6849 -3.40217 -1.36557 0
M  V30 159 H 11.3329 -3.25232 -3.83709 0
M  V30 160 H 11.0329 -4.90312 -3.23834 0
M  V30 161 H 12.5569 -4.53086 -4.09323 0
M  V30 162 H 13.9709 -5.37812 -1.98573 0
M  V30 163 H 12.3679 -5.84746 -1.34878 0
M  V30 164 H 13.4379 -4.83548 -0.361868 0
M  V30 165 N 14.781 0.264519 -1.55364 0
M  V30 166 C 16.027 0.992314 -1.77552 0
M  V30 167 C 16.382 1.83626 -0.574379 0
M  V30 168 O 15.675 1.86648 0.432782 0
M  V30 169 C 15.869 1.9004 -3.02687 0
M  V30 170 C 15.698 1.14583 -4.34857 0
M  V30 171 C 14.468 0.858068 -4.97961 0
M  V30 172 C 16.666 0.532069 -5.1154 0
M  V30 173 N 14.648 0.0775974 -6.13851 0
M  V30 174 C 16.019 -0.113823 -6.19896 0
M  V30 175 C 18.074 0.440763 -4.95945 0
M  V30 176 C 16.777 -0.842231 -7.14352 0
M  V30 177 C 18.803 -0.274072 -5.90765 0
M  V30 178 C 18.165 -0.90867 -6.98515 0
M  V30 179 H 14.264 0.344811 -0.701875 0
M  V30 180 H 16.848 0.267141 -1.92859 0
M  V30 181 H 15.019 2.59775 -2.88741 0
M  V30 182 H 16.751 2.56243 -3.13243 0
M  V30 183 H 13.506 1.16547 -4.59036 0
M  V30 184 H 13.93 -0.300216 -6.76334 0
M  V30 185 H 18.572 0.917064 -4.12735 0
M  V30 186 H 16.29 -1.33019 -7.97077 0
M  V30 187 H 19.876 -0.345151 -5.80775 0
M  V30 188 H 18.756 -1.45299 -7.70622 0
M  V30 189 N 16.2591 1.48442 0.529413 0
M  V30 190 C 17.1911 1.59095 1.64989 0
M  V30 191 C 18.2041 0.475212 1.5571 0
M  V30 192 O 19.3931 0.746081 1.6216 0
M  V30 193 C 16.4931 1.50518 3.0364 0
M  V30 194 C 15.6661 2.77142 3.38395 0
M  V30 195 C 14.7251 2.62012 4.56329 0
M  V30 196 O 13.7511 3.35898 4.59522 0
M  V30 197 N 14.9531 1.71667 5.54536 0
M  V30 198 H 17.7181 2.55723 1.56287 0
M  V30 199 H 15.2791 1.45173 0.716697 0
M  V30 200 H 17.2711 1.38091 3.80412 0
M  V30 201 H 15.8411 0.618627 3.06418 0
M  V30 202 H 15.0611 3.0413 2.50796 0
M  V30 203 H 16.3491 3.61146 3.58401 0
M  V30 204 H 15.7471 1.10841 5.54735 0
M  V30 205 H 14.3041 1.65178 6.30523 0
M  V30 206 N 17.7372 -0.778329 1.37039 0
M  V30 207 C 18.7002 -1.87301 1.32102 0
M  V30 208 C 19.7002 -1.59198 0.226405 0
M  V30 209 O 20.8902 -1.67403 0.481861 0
M  V30 210 C 18.0222 -3.24309 1.05055 0
M  V30 211 H 19.2152 -1.93093 2.29467 0
M  V30 212 H 16.7682 -0.977358 1.21973 0
M  V30 213 H 17.5032 -3.24196 0.0819373 0
M  V30 214 H 17.2882 -3.46098 1.84279 0
M  V30 215 H 18.7782 -4.04382 1.04234 0
M  V30 216 N 19.2153 -1.21501 -1.00376 0
M  V30 217 C 20.1453 -0.999478 -2.11028 0
M  V30 218 C 21.1263 0.0759671 -1.6993 0
M  V30 219 O 22.3113 -0.0841106 -1.94018 0
M  V30 220 C 19.4413 -0.564709 -3.42678 0
M  V30 221 C 18.3953 -1.58486 -3.97576 0
M  V30 222 C 17.7213 -1.00628 -5.25146 0
M  V30 223 C 19.0213 -2.97204 -4.29496 0
M  V30 224 H 20.7153 -1.92495 -2.29317 0
M  V30 225 H 18.2613 -0.92693 -1.102 0
M  V30 226 H 20.2143 -0.401091 -4.19487 0
M  V30 227 H 18.9383 0.396411 -3.24185 0
M  V30 228 H 17.5973 -1.73606 -3.22888 0
M  V30 229 H 17.2453 -0.0368439 -5.02987 0
M  V30 230 H 16.9453 -1.68771 -5.62841 0
M  V30 231 H 18.4693 -0.854015 -6.04598 0
M  V30 232 H 19.8833 -2.8552 -4.97143 0
M  V30 233 H 18.2803 -3.62372 -4.78338 0
M  V30 234 H 19.3503 -3.47956 -3.3772 0
M  V30 235 N 20.6934 1.19889 -1.02296 0
M  V30 236 C 21.9394 1.89973 -0.726759 0
M  V30 237 C 22.2944 1.7776 0.73614 0
M  V30 238 O 21.5874 1.15523 1.52856 0
M  V30 239 C 21.7814 3.39883 -1.10518 0
M  V30 240 C 21.6104 3.66684 -2.60332 0
M  V30 241 C 20.3804 3.85045 -3.27213 0
M  V30 242 C 22.5784 3.68727 -3.58532 0
M  V30 243 N 20.5604 3.99422 -4.66192 0
M  V30 244 C 21.9314 3.88604 -4.83101 0
M  V30 245 C 23.9864 3.51722 -3.52414 0
M  V30 246 C 22.6894 3.9324 -6.02292 0
M  V30 247 C 24.7154 3.57632 -4.71013 0
M  V30 248 C 24.0774 3.77988 -5.94394 0
M  V30 249 H 20.1764 0.714551 -0.317712 0
M  V30 250 H 22.7604 1.44123 -1.30907 0
M  V30 251 H 20.9314 3.8447 -0.551142 0
M  V30 252 H 22.6634 3.97464 -0.761853 0
M  V30 253 H 19.4184 3.83689 -2.77632 0
M  V30 254 H 19.8424 4.10473 -5.38368 0
M  V30 255 H 24.4844 3.34945 -2.58015 0
M  V30 256 H 22.2024 4.08811 -6.97065 0
M  V30 257 H 25.7884 3.45773 -4.67902 0
M  V30 258 H 24.6684 3.82428 -6.8463 0
M  V30 259 N 22.1715 0.800033 1.35784 0
M  V30 260 C 23.5825 0.439142 1.81462 0
M  V30 261 C 23.9335 -1.03813 1.66485 0
M  V30 262 O 23.0585 -1.80626 1.19177 0
M  V30 263 C 23.6535 0.790314 3.29453 0
M  V30 264 C 22.2125 0.482111 3.733 0
M  V30 265 C 21.3595 1.01938 2.57883 0
M  V30 266 H 24.3105 0.992254 1.23855 0
M  V30 267 H 24.3315 0.0853677 3.80404 0
M  V30 268 H 23.8435 1.86554 3.40322 0
M  V30 269 H 21.9445 -0.584652 3.67984 0
M  V30 270 H 22.0575 1.01015 4.6833 0
M  V30 271 H 20.4215 0.442043 2.50835 0
M  V30 272 H 21.2045 2.10059 2.71533 0
M  V30 273 N 23.6496 -1.47581 0.552962 0
M  V30 274 C 24.8976 -2.02082 0.0272703 0
M  V30 275 C 25.2186 -1.4301 -1.32563 0
M  V30 276 O 24.4886 -0.603745 -1.86365 0
M  V30 277 H 23.0686 -0.746966 0.00709182 0
M  V30 278 H 25.7306 -1.81033 0.722008 0
M  V30 279 H 24.8266 -3.12034 -0.0639951 0
M  V30 280 N 25.1277 -0.289203 -1.54924 0
M  V30 281 C 26.5387 0.205791 -1.85562 0
M  V30 282 C 26.8897 1.54351 -1.2112 0
M  V30 283 O 26.0147 2.10435 -0.504601 0
M  V30 284 C 26.6097 0.380177 -3.3666 0
M  V30 285 C 25.1687 0.819395 -3.67373 0
M  V30 286 C 24.3157 -0.079159 -2.77187 0
M  V30 287 H 27.2667 -0.510577 -1.50262 0
M  V30 288 H 27.2877 1.21659 -3.60526 0
M  V30 289 H 26.7997 -0.593589 -3.83534 0
M  V30 290 H 24.9007 1.80413 -3.26009 0
M  V30 291 H 25.0137 0.646957 -4.74712 0
M  V30 292 H 23.3777 0.439565 -2.50878 0
M  V30 293 H 24.1607 -1.04906 -3.26878 0
M  V30 294 N 26.6058 1.57591 -0.0167156 0
M  V30 295 C 27.8538 1.90906 0.663285 0
M  V30 296 C 28.1748 0.892509 1.73376 0
M  V30 297 O 27.4448 -0.0677623 1.95783 0
M  V30 298 H 26.0248 0.704637 0.247983 0
M  V30 299 H 28.6868 1.94803 -0.0615909 0
M  V30 300 H 27.7828 2.9116 1.12393 0
M  V30 301 N 28.0839 -0.256276 1.55502 0
M  V30 302 C 29.3319 -0.983672 1.76545 0
M  V30 303 C 29.6529 -1.86206 0.578982 0
M  V30 304 O 28.9229 -1.91656 -0.405577 0
M  V30 305 H 27.5029 -0.366191 0.651086 0
M  V30 306 H 30.1649 -0.276479 1.92929 0
M  V30 307 H 29.2609 -1.61087 2.67315 0
M  V30 308 N 29.562 -1.4872 -0.521534 0
M  V30 309 C 30.81 -1.56857 -1.27437 0
M  V30 310 C 31.131 -0.247982 -1.93417 0
M  V30 311 O 30.401 0.731151 -1.81744 0
M  V30 312 H 28.981 -0.577885 -0.473347 0
M  V30 313 H 31.643 -1.85233 -0.606205 0
M  V30 314 H 30.739 -2.35402 -2.0492 0
M  V30 315 N 31.0401 0.771051 -1.3745 0
M  V30 316 C 31.9501 1.91538 -1.35464 0
M  V30 317 C 32.9661 1.72134 -0.254123 0
M  V30 318 O 34.1421 1.95358 -0.489626 0
M  V30 319 C 31.2071 3.26671 -1.16134 0
M  V30 320 C 30.2681 3.58723 -2.35831 0
M  V30 321 C 29.5011 4.87409 -2.17413 0
M  V30 322 O 29.7241 5.58506 -1.15876 0
M  V30 323 O 28.6581 5.18539 -3.05615 0
M  V30 324 H 32.4841 1.96165 -2.31847 0
M  V30 325 H 30.0691 0.9139 -1.18187 0
M  V30 326 H 31.9511 4.07499 -1.07345 0
M  V30 327 H 30.6261 3.22894 -0.228251 0
M  V30 328 H 29.5331 2.78127 -2.50192 0
M  V30 329 H 30.8661 3.67243 -3.27709 0
M  V30 330 N 32.5182 1.22032 0.997298 0
M  V30 331 C 33.4682 0.953838 2.07089 0
M  V30 332 C 34.4522 -0.0938669 1.60626 0
M  V30 333 O 35.6442 0.116078 1.76619 0
M  V30 334 C 32.7732 0.528726 3.39204 0
M  V30 335 C 31.8592 1.61092 3.92314 0
M  V30 336 N 32.2502 2.83768 4.18699 0
M  V30 337 C 30.5482 1.48158 4.20672 0
M  V30 338 C 31.2492 3.53715 4.61802 0
M  V30 339 N 30.2252 2.81174 4.65233 0
M  V30 340 H 34.0272 1.88577 2.25424 0
M  V30 341 H 31.5412 1.11719 1.17867 0
M  V30 342 H 33.5382 0.31915 4.15677 0
M  V30 343 H 32.1982 -0.39635 3.22272 0
M  V30 344 H 33.2092 3.20238 4.07023 0
M  V30 345 H 29.8862 0.622369 4.12835 0
M  V30 346 H 31.2762 4.58793 4.90875 0
M  V30 347 N 33.9963 -1.19345 1.0293 0
M  V30 348 C 35.4073 -1.70725 0.755633 0
M  V30 349 C 35.7583 -1.82326 -0.724676 0
M  V30 350 O 34.8833 -1.49471 -1.56484 0
M  V30 351 C 35.4783 -3.10084 1.36503 0
M  V30 352 C 34.0373 -3.58723 1.13994 0
M  V30 353 C 33.1843 -2.35577 1.46283 0
M  V30 354 H 36.1353 -1.0418 1.19718 0
M  V30 355 H 36.1563 -3.72787 0.762217 0
M  V30 356 H 35.6683 -3.01609 2.44241 0
M  V30 357 H 33.7693 -3.72512 0.0807901 0
M  V30 358 H 33.8823 -4.42816 1.82894 0
M  V30 359 H 32.2463 -2.38935 0.88217 0
M  V30 360 H 33.0293 -2.29731 2.55105 0
M  V30 361 N 35.4744 -0.807222 -1.35358 0
M  V30 362 C 36.7024 -0.400377 -2.02989 0
M  V30 363 C 37.1174 0.988859 -1.60832 0
M  V30 364 O 36.4744 1.63729 -0.806175 0
M  V30 365 C 36.5254 -0.474867 -3.58368 0
M  V30 366 O 36.2464 -1.80933 -3.98992 0
M  V30 367 C 37.7474 -0.0609112 -4.43258 0
M  V30 368 H 34.9674 -0.162587 -0.651004 0
M  V30 369 H 37.5114 -1.09102 -1.72965 0
M  V30 370 H 35.6664 0.167534 -3.87038 0
M  V30 371 H 36.0804 -1.77256 -4.9364 0
M  V30 372 H 37.5544 -0.164145 -5.51756 0
M  V30 373 H 38.0314 0.993831 -4.27808 0
M  V30 374 H 38.6374 -0.676492 -4.19885 0
M  V30 375 N 36.9525 1.47285 -0.560781 0
M  V30 376 C 37.9155 2.28535 0.174488 0
M  V30 377 C 38.9155 1.37153 0.839388 0
M  V30 378 O 40.1055 1.59748 0.694702 0
M  V30 379 C 37.2375 3.16934 1.25561 0
M  V30 380 H 38.4305 2.95012 -0.539262 0
M  V30 381 H 35.9835 1.53034 -0.317865 0
M  V30 382 H 36.7185 2.55157 2.00164 0
M  V30 383 H 36.5035 3.8419 0.783604 0
M  V30 384 H 37.9935 3.78143 1.77193 0
M  V30 385 N 38.4306 0.297415 1.54768 0
M  V30 386 C 39.7076 -0.365847 1.92148 0
M  V30 387 C 40.0876 -1.71975 1.22424 0
M  V30 388 O 39.4356 -2.25666 0.358739 0
M  V30 389 C 39.6456 -0.484056 3.45627 0
M  V30 390 C 40.9936 -0.756594 4.17805 0
M  V30 391 O 42.0176 -0.568007 3.51642 0
M  V30 392 O 40.8766 -1.11863 5.34929 0
M  V30 393 H 37.9706 -0.203919 0.801465 0
M  V30 394 H 40.5166 0.34521 1.66152 0
M  V30 395 H 39.2886 0.467865 3.88493 0
M  V30 396 H 38.9116 -1.24372 3.77647 0
M  V30 397 N 39.9087 -1.5758 0.0250728 0
M  V30 398 C 41.3247 -1.56124 -0.331282 0
M  V30 399 C 41.5247 -1.03029 -1.73169 0
M  V30 400 O 40.5807 -0.675215 -2.43305 0
M  V30 401 C 41.8937 -3.00139 -0.183584 0
M  V30 402 C 43.4417 -3.11946 -0.256654 0
M  V30 403 C 43.9167 -4.57793 -0.137792 0
M  V30 404 N 45.4077 -4.6279 -0.194904 0
M  V30 405 C 46.1427 -5.7326 -0.126655 0
M  V30 406 N 45.6387 -6.928 -0.00755288 0
M  V30 407 N 47.4317 -5.61811 -0.180348 0
M  V30 408 H 39.5827 -1.90424 0.94087 0
M  V30 409 H 41.8457 -0.875761 0.362968 0
M  V30 410 H 41.5517 -3.4292 0.780927 0
M  V30 411 H 41.4257 -3.64899 -0.955448 0
M  V30 412 H 43.8127 -2.69079 -1.21162 0
M  V30 413 H 43.8937 -2.49915 0.545517 0
M  V30 414 H 43.5377 -5.01339 0.813739 0
M  V30 415 H 43.4677 -5.17798 -0.958775 0
M  V30 416 H 45.9587 -3.76807 -0.287267 0
M  V30 417 H 46.2717 -7.72791 0.0379428 0
M  V30 418 H 44.6167 -6.94995 0.0271731 0
M  V30 419 H 47.8077 -4.6731 -0.271767 0
M  V30 420 H 47.9807 -6.47882 -0.123697 0
M  V30 421 N 41.3868 0.248026 -1.55636 0
M  V30 422 C 42.3498 1.29044 -1.89421 0
M  V30 423 C 43.3498 1.41134 -0.770581 0
M  V30 424 O 44.5398 1.39854 -1.03858 0
M  V30 425 C 41.6718 2.66831 -2.12165 0
M  V30 426 H 42.8648 1.00305 -2.82629 0
M  V30 427 H 40.4178 0.487265 -1.48511 0
M  V30 428 H 41.1528 3.00711 -1.21422 0
M  V30 429 H 40.9378 2.59438 -2.93997 0
M  V30 430 H 42.4278 3.42103 -2.3949 0
M  V30 431 N 42.8649 1.48995 0.513639 0
M  V30 432 C 44.1129 1.57531 1.26604 0
M  V30 433 C 44.4339 0.258236 1.93283 0
M  V30 434 O 43.7039 -0.721502 1.8213 0
M  V30 435 H 42.2839 0.580387 0.470276 0
M  V30 436 H 44.9459 1.85552 0.596373 0
M  V30 437 H 44.0419 2.36486 2.03669 0
M  V30 438 N 44.343 -0.763751 1.37857 0
M  V30 439 C 45.583 -1.53551 1.34913 0
M  V30 440 C 45.947 -1.91895 -0.0635882 0
M  V30 441 O 47.148 -2.67916 -0.217825 0
M  V30 442 C 45.419 -2.76126 2.26912 0
M  V30 443 S 46.978 -3.66105 2.41893 0
M  V30 444 H 43.796 -0.52559 0.478828 0
M  V30 445 H 46.398 -0.897435 1.73685 0
M  V30 446 H 45.102 -2.4605 3.28463 0
M  V30 447 H 44.633 -3.44887 1.89253 0
M  V30 448 H 46.648 -4.68473 1.63545 0
M  V30 449 N 45.8211 -1.22559 -0.990812 0
M  V30 450 C 47.0461 -1.07862 -1.77145 0
M  V30 451 C 47.4711 0.366447 -1.84496 0
M  V30 452 O 46.8291 1.26478 -1.29896 0
M  V30 453 C 46.8771 -1.69686 -3.18181 0
M  V30 454 O 45.9811 -0.951946 -4.01263 0
M  V30 455 H 45.3221 -0.378712 -0.545411 0
M  V30 456 H 47.8521 -1.62399 -1.2445 0
M  V30 457 H 47.8621 -1.74496 -3.68802 0
M  V30 458 H 46.5371 -2.74841 -3.12146 0
M  V30 459 H 45.1141 -0.980011 -3.59792 0
M  V30 460 N 47.2992 1.18797 -1.03562 0
M  V30 461 C 48.2622 2.20464 -0.626769 0
M  V30 462 C 49.2622 1.57721 0.313173 0
M  V30 463 O 50.4522 1.73917 0.0992615 0
M  V30 464 C 47.5842 3.40802 0.0818498 0
M  V30 465 H 48.7772 2.58149 -1.5264 0
M  V30 466 H 46.3302 1.32593 -0.827578 0
M  V30 467 H 47.0652 3.08642 0.995518 0
M  V30 468 H 46.8502 3.8758 -0.593652 0
M  V30 469 H 48.3402 4.16092 0.354584 0
M  V30 470 N 48.7773 0.814389 1.34928 0
M  V30 471 C 50.0023 0.410097 2.03305 0
M  V30 472 C 50.4273 -0.973464 1.60951 0
M  V30 473 O 49.7853 -1.63185 0.789964 0
M  V30 474 C 49.8333 0.51049 3.56968 0
M  V30 475 O 48.9373 -0.473035 4.09678 0
M  V30 476 H 48.2783 0.170088 0.641846 0
M  V30 477 H 50.8083 1.10244 1.72358 0
M  V30 478 H 50.8183 0.383135 4.06197 0
M  V30 479 H 49.4933 1.51963 3.87144 0
M  V30 480 H 48.0703 -0.305272 3.71648 0
M  V30 481 N 50.2554 -1.46986 0.568584 0
M  V30 482 C 51.5034 -2.02041 0.0487022 0
M  V30 483 C 51.8244 -1.44408 -1.31039 0
M  V30 484 O 51.0944 -0.623477 -1.85714 0
M  V30 485 H 49.6744 -0.746849 0.015014 0
M  V30 486 H 52.3364 -1.80257 0.741168 0
M  V30 487 H 51.4324 -3.12085 -0.0308961 0
M  V30 488 N 51.7335 -0.305618 -1.54608 0
M  V30 489 C 52.6965 0.555591 -2.22364 0
M  V30 490 C 53.6965 1.05768 -1.21119 0
M  V30 491 O 54.8865 0.952972 -1.45822 0
M  V30 492 C 52.0185 1.76974 -2.91364 0
M  V30 493 H 53.2115 -0.0364572 -2.99878 0
M  V30 494 H 50.7645 -0.0565007 -1.56198 0
M  V30 495 H 51.4995 2.40151 -2.17941 0
M  V30 496 H 51.2845 1.41732 -3.65588 0
M  V30 497 H 52.7745 2.38148 -3.43038 0
M  V30 498 N 53.2116 1.57565 -0.0334293 0
M  V30 499 C 54.4516 1.93844 0.648379 0
M  V30 500 C 54.8156 0.910387 1.69044 0
M  V30 501 O 56.0166 1.15952 2.42505 0
M  V30 502 C 54.2876 3.35017 1.24492 0
M  V30 503 S 55.8466 3.93229 1.94721 0
M  V30 504 H 52.6646 0.678231 0.213364 0
M  V30 505 H 55.2666 1.95254 -0.0981253 0
M  V30 506 H 53.9706 4.07652 0.474128 0
M  V30 507 H 53.5016 3.37061 2.02864 0
M  V30 508 H 55.5166 3.77014 3.22606 0
M  V30 509 N 54.6897 -0.239769 1.55765 0
M  V30 510 C 55.9197 -0.982743 1.8173 0
M  V30 511 C 56.3277 -1.7917 0.607835 0
M  V30 512 O 55.6707 -1.78525 -0.432973 0
M  V30 513 C 55.7327 -1.96332 3.01155 0
M  V30 514 C 55.3967 -1.34062 4.36894 0
M  V30 515 C 56.3937 -0.739539 5.14613 0
M  V30 516 C 54.0787 -1.35784 4.83599 0
M  V30 517 C 56.0727 -0.163989 6.37189 0
M  V30 518 C 53.7597 -0.778441 6.06122 0
M  V30 519 C 54.7577 -0.182548 6.82756 0
M  V30 520 O 54.4457 0.387887 8.02964 0
M  V30 521 H 54.1777 -0.294481 0.608487 0
M  V30 522 H 56.7317 -0.26572 2.03674 0
M  V30 523 H 54.9617 -2.71884 2.74984 0
M  V30 524 H 56.6507 -2.57032 3.14149 0
M  V30 525 H 57.4167 -0.718687 4.79646 0
M  V30 526 H 53.2957 -1.81105 4.23936 0
M  V30 527 H 56.8397 0.301753 6.96947 0
M  V30 528 H 52.7367 -0.796645 6.40565 0
M  V30 529 H 53.5047 0.28044 8.18019 0
M  V30 530 N 56.1678 -1.49265 -0.50573 0
M  V30 531 C 57.3928 -1.62478 -1.28902 0
M  V30 532 C 57.8178 -0.294332 -1.85783 0
M  V30 533 O 57.1758 0.737412 -1.65626 0
M  V30 534 C 57.2238 -2.69268 -2.39848 0
M  V30 535 O 56.3278 -2.28113 -3.43567 0
M  V30 536 H 55.6688 -0.54399 -0.380751 0
M  V30 537 H 58.1988 -1.95421 -0.605952 0
M  V30 538 H 58.2088 -2.91291 -2.85681 0
M  V30 539 H 56.8838 -3.65846 -1.97812 0
M  V30 540 H 55.4608 -2.16401 -3.03685 0
M  V30 541 N 57.6459 0.756429 -1.3826 0
M  V30 542 C 58.5759 1.88374 -1.37976 0
M  V30 543 C 59.5569 1.68311 -0.246082 0
M  V30 544 O 60.7419 1.88944 -0.44874 0
M  V30 545 C 57.8719 3.25864 -1.20125 0
M  V30 546 C 56.8259 3.60523 -2.30666 0
M  V30 547 C 56.1519 4.9672 -1.97923 0
M  V30 548 C 57.4519 3.65692 -3.72916 0
M  V30 549 H 59.1459 1.88869 -2.32312 0
M  V30 550 H 56.6919 0.907272 -1.11824 0
M  V30 551 H 58.6449 4.0438 -1.18552 0
M  V30 552 H 57.3689 3.25841 -0.222498 0
M  V30 553 H 56.0279 2.84324 -2.3142 0
M  V30 554 H 55.6759 4.93253 -0.985393 0
M  V30 555 H 55.3759 5.20878 -2.71955 0
M  V30 556 H 56.8999 5.77618 -1.97964 0
M  V30 557 H 58.3139 4.34328 -3.74208 0
M  V30 558 H 56.7109 4.01358 -4.4613 0
M  V30 559 H 57.7809 2.65987 -4.05436 0
M  V30 560 N 59.124 1.23083 0.984299 0
M  V30 561 C 60.074 0.975749 2.06066 0
M  V30 562 C 61.058 -0.0768251 1.60716 0
M  V30 563 O 62.25 0.134805 1.76486 0
M  V30 564 C 59.379 0.564673 3.38624 0
M  V30 565 C 58.465 1.65244 3.90583 0
M  V30 566 N 58.856 2.88193 4.15666 0
M  V30 567 C 57.154 1.52612 4.19077 0
M  V30 568 C 57.855 3.58593 4.58024 0
M  V30 569 N 56.831 2.86093 4.62225 0
M  V30 570 H 60.633 1.90957 2.23411 0
M  V30 571 H 58.147 1.12963 1.16675 0
M  V30 572 H 60.144 0.36322 4.15315 0
M  V30 573 H 58.804 -0.362147 3.22674 0
M  V30 574 H 59.815 3.24537 4.03604 0
M  V30 575 H 56.492 0.666121 4.12152 0
M  V30 576 H 57.882 4.63974 4.85982 0
M  V30 577 N 60.6021 -1.18246 1.0419 0
M  V30 578 C 61.5521 -2.19843 0.604392 0
M  V30 579 C 62.5361 -1.56962 -0.353814 0
M  V30 580 O 63.7281 -1.76156 -0.17267 0
M  V30 581 C 60.8571 -3.43287 -0.0298975 0
M  V30 582 C 59.9431 -4.13288 0.951531 0
M  V30 583 N 60.3341 -4.59271 2.11906 0
M  V30 584 C 58.6321 -4.39165 0.7778 0
M  V30 585 C 59.3331 -5.13173 2.73912 0
M  V30 586 N 58.3091 -5.04763 2.01779 0
M  V30 587 H 62.1111 -2.53089 1.4941 0
M  V30 588 H 59.6251 -1.34465 0.910658 0
M  V30 589 H 61.6221 -4.15334 -0.361037 0
M  V30 590 H 60.2821 -3.11537 -0.915127 0
M  V30 591 H 61.2931 -4.5368 2.49789 0
M  V30 592 H 57.9701 -4.17461 -0.0572331 0
M  V30 593 H 59.3601 -5.58947 3.72864 0
M  V30 594 N 62.0802 -0.821533 -1.34494 0
M  V30 595 C 63.0432 -0.247847 -2.27856 0
M  V30 596 C 64.0432 0.573453 -1.50227 0
M  V30 597 O 65.2332 0.389759 -1.69784 0
M  V30 598 C 62.3652 0.652698 -3.34593 0
M  V30 599 H 63.5582 -1.07146 -2.80107 0
M  V30 600 H 61.1112 -0.593291 -1.44602 0
M  V30 601 H 61.8462 1.49943 -2.87555 0
M  V30 602 H 61.6312 0.065292 -3.92046 0
M  V30 603 H 63.1212 1.04793 -4.04238 0
M  V30 604 N 63.5583 1.46682 -0.576371 0
M  V30 605 C 64.7863 2.06798 -0.0649635 0
M  V30 606 C 65.2013 1.42612 1.23723 0
M  V30 607 O 64.5583 0.529203 1.74659 0
M  V30 608 C 64.6093 3.6132 0.114202 0
M  V30 609 O 64.3303 4.23104 -1.13644 0
M  V30 610 C 65.8313 4.38349 0.66069 0
M  V30 611 H 63.0513 0.668778 -0.0545616 0
M  V30 612 H 65.5953 1.88404 -0.795237 0
M  V30 613 H 63.7503 3.79162 0.794673 0
M  V30 614 H 64.1643 5.15894 -0.946253 0
M  V30 615 H 65.6383 5.47081 0.73526 0
M  V30 616 H 66.1153 4.05953 1.67627 0
M  V30 617 H 66.7213 4.25297 0.0152951 0
M  V30 618 N 65.0364 0.313813 1.54444 0
M  V30 619 C 65.9694 -0.598866 2.20202 0
M  V30 620 C 66.9474 -1.12318 1.17573 0
M  V30 621 O 68.1314 -1.18899 1.46271 0
M  V30 622 C 65.2584 -1.82071 2.85601 0
M  V30 623 C 64.3044 -1.42851 4.01865 0
M  V30 624 S 65.1374 -0.473512 5.33402 0
M  V30 625 C 66.2934 -1.70286 6.0229 0
M  V30 626 H 66.5264 -0.0402532 2.97273 0
M  V30 627 H 64.0594 0.0979165 1.54089 0
M  V30 628 H 66.0174 -2.52184 3.23904 0
M  V30 629 H 64.6784 -2.3505 2.08351 0
M  V30 630 H 63.8714 -2.33871 4.46453 0
M  V30 631 H 63.4734 -0.807198 3.65185 0
M  V30 632 H 65.7654 -2.64168 6.23876 0
M  V30 633 H 66.7084 -1.29932 6.96077 0
M  V30 634 H 67.1164 -1.88541 5.32083 0
M  V30 635 N 66.5145 -1.57545 0.0417849 0
M  V30 636 C 67.4615 -2.10977 -0.935805 0
M  V30 637 C 68.4315 -1.01486 -1.31491 0
M  V30 638 O 69.6165 -1.2898 -1.40602 0
M  V30 639 C 66.7565 -2.65169 -2.2086 0
M  V30 640 C 65.8695 -3.88714 -1.88482 0
M  V30 641 C 65.0045 -4.31254 -3.1015 0
M  V30 642 C 64.0435 -5.47524 -2.7365 0
M  V30 643 N 63.1805 -5.85162 -3.87982 0
M  V30 644 H 68.0205 -2.94218 -0.473249 0
M  V30 645 H 65.5575 -1.45415 -0.221981 0
M  V30 646 H 67.5155 -2.94685 -2.95325 0
M  V30 647 H 66.1455 -1.8474 -2.64709 0
M  V30 648 H 65.1975 -3.65849 -1.04205 0
M  V30 649 H 66.5095 -4.73245 -1.57608 0
M  V30 650 H 65.6635 -4.62273 -3.92923 0
M  V30 651 H 64.4025 -3.45516 -3.44195 0
M  V30 652 H 63.4075 -5.16187 -1.89291 0
M  V30 653 H 64.6325 -6.34971 -2.40807 0
M  V30 654 H 62.5785 -5.02377 -4.21846 0
M  V30 655 H 62.4955 -6.64362 -3.60775 0
M  V30 656 H 63.7635 -6.20791 -4.71422 0
M  V30 657 N 67.9926 0.231505 -1.5589 0
M  V30 658 C 69.4086 0.580748 -1.48659 0
M  V30 659 C 69.6086 1.87617 -0.73498 0
M  V30 660 O 68.6646 2.51046 -0.270586 0
M  V30 661 C 69.9776 0.669202 -2.93159 0
M  V30 662 C 71.5256 0.760499 -3.03621 0
M  V30 663 C 72.0006 0.880383 -4.49459 0
M  V30 664 N 73.4916 0.944861 -4.53461 0
M  V30 665 C 74.2266 1.05716 -5.63571 0
M  V30 666 N 73.7226 1.13403 -6.83456 0
M  V30 667 N 75.5156 1.09152 -5.514 0
M  V30 668 H 67.6666 -0.618695 -2.03189 0
M  V30 669 H 69.9296 -0.215728 -0.923128 0
M  V30 670 H 69.6356 -0.212904 -3.51055 0
M  V30 671 H 69.5096 1.5361 -3.44505 0
M  V30 672 H 71.8966 1.63305 -2.45796 0
M  V30 673 H 71.9776 -0.131864 -2.5546 0
M  V30 674 H 71.6216 0.0123284 -5.07899 0
M  V30 675 H 71.5516 1.78802 -4.95316 0
M  V30 676 H 74.0426 0.896176 -3.6712 0
M  V30 677 H 74.3556 1.21921 -7.63122 0
M  V30 678 H 72.7006 1.10333 -6.86186 0
M  V30 679 H 75.8916 1.02805 -4.56671 0
M  V30 680 H 76.0646 1.17558 -6.37247 0
M  V30 681 N 69.4707 1.49531 0.497807 0
M  V30 682 C 70.4027 1.62559 1.61578 0
M  V30 683 C 71.4157 0.508134 1.54667 0
M  V30 684 O 72.6047 0.780309 1.60541 0
M  V30 685 C 69.7047 1.56925 3.00379 0
M  V30 686 C 68.8777 2.84257 3.3244 0
M  V30 687 C 67.9367 2.71632 4.50669 0
M  V30 688 O 66.9627 3.4557 4.52294 0
M  V30 689 N 68.1647 1.83391 5.5077 0
M  V30 690 H 70.9297 2.58981 1.50828 0
M  V30 691 H 68.4907 1.4666 0.685743 0
M  V30 692 H 70.4827 1.46129 3.77397 0
M  V30 693 H 69.0527 0.683483 3.05037 0
M  V30 694 H 68.2727 3.09381 2.44289 0
M  V30 695 H 69.5607 3.68666 3.5066 0
M  V30 696 H 68.9587 1.22583 5.52259 0
M  V30 697 H 67.5157 1.78515 6.26878 0
M  V30 698 N 70.9488 -0.749086 1.3866 0
M  V30 699 C 71.9118 -1.84457 1.36045 0
M  V30 700 C 72.9118 -1.58682 0.260122 0
M  V30 701 O 74.1018 -1.66343 0.517261 0
M  V30 702 C 71.2338 -3.22008 1.11911 0
M  V30 703 H 72.4268 -1.88182 2.33512 0
M  V30 704 H 69.9798 -0.951266 1.24019 0
M  V30 705 H 70.7148 -3.2395 0.150686 0
M  V30 706 H 70.4998 -3.42111 1.91579 0
M  V30 707 H 71.9898 -4.0208 1.12788 0
M  V30 708 N 72.4269 -1.23603 -0.977757 0
M  V30 709 C 73.3899 -1.02069 -2.05218 0
M  V30 710 C 74.3899 0.0184305 -1.60789 0
M  V30 711 O 75.5799 -0.221569 -1.72785 0
M  V30 712 C 72.7119 -0.544926 -3.36517 0
M  V30 713 H 73.9049 -1.9742 -2.25755 0
M  V30 714 H 71.4579 -1.05684 -1.15155 0
M  V30 715 H 72.1929 0.412241 -3.21669 0
M  V30 716 H 71.9779 -1.2948 -3.70105 0
M  V30 717 H 73.4679 -0.414985 -4.15533 0
M  V30 718 N 73.905 1.17692 -1.04816 0
M  V30 719 C 74.815 2.25229 -0.65643 0
M  V30 720 C 75.831 1.71018 0.320761 0
M  V30 721 O 77.007 2.00649 0.173805 0
M  V30 722 C 74.072 3.46684 -0.0332629 0
M  V30 723 C 73.133 4.15997 -1.06042 0
M  V30 724 C 72.366 5.31654 -0.466893 0
M  V30 725 O 72.589 5.65777 0.724758 0
M  V30 726 O 71.523 5.89831 -1.1993 0
M  V30 727 H 75.349 2.61016 -1.55255 0
M  V30 728 H 72.934 1.24919 -0.81949 0
M  V30 729 H 74.816 4.20234 0.313256 0
M  V30 730 H 73.491 3.12703 0.836566 0
M  V30 731 H 72.398 3.44482 -1.45886 0
M  V30 732 H 73.731 4.53996 -1.90127 0
M  V30 733 N 75.3831 0.828654 1.34056 0
M  V30 734 C 76.2931 0.256725 2.33191 0
M  V30 735 C 77.3091 -0.611898 1.62886 0
M  V30 736 O 78.4851 -0.51844 1.94613 0
M  V30 737 C 75.5501 -0.567238 3.42028 0
M  V30 738 C 74.6111 0.324458 4.28072 0
M  V30 739 C 73.8441 -0.460274 5.31712 0
M  V30 740 O 74.0671 -1.693 5.44696 0
M  V30 741 O 73.0011 0.160391 6.01686 0
M  V30 742 H 76.8271 1.07739 2.83947 0
M  V30 743 H 74.4121 0.59093 1.37217 0
M  V30 744 H 76.2941 -1.03582 4.08471 0
M  V30 745 H 74.9691 -1.36513 2.93506 0
M  V30 746 H 73.8761 0.840659 3.64532 0
M  V30 747 H 75.2091 1.08685 4.8005 0
M  V30 748 N 76.8612 -1.46375 0.584142 0
M  V30 749 C 77.8242 -2.28784 -0.138108 0
M  V30 750 C 78.8242 -1.38471 -0.817462 0
M  V30 751 O 80.0142 -1.60833 -0.669199 0
M  V30 752 C 77.1462 -3.18892 -1.20503 0
M  V30 753 H 78.3392 -2.94117 0.586127 0
M  V30 754 H 75.8922 -1.52509 0.342171 0
M  V30 755 H 76.6272 -2.58309 -1.96079 0
M  V30 756 H 76.4122 -3.85388 -0.722384 0
M  V30 757 H 77.9022 -3.80914 -1.71155 0
M  V30 758 N 78.3393 -0.321999 -1.54275 0
M  V30 759 C 79.5793 0.281657 -2.0245 0
M  V30 760 C 79.9433 1.49468 -1.20513 0
M  V30 761 O 81.1443 2.17109 -1.58484 0
M  V30 762 C 79.4153 0.609014 -3.52173 0
M  V30 763 S 80.9743 1.19255 -4.22284 0
M  V30 764 H 77.7923 0.0852825 -0.705867 0
M  V30 765 H 80.3943 -0.454758 -1.90137 0
M  V30 766 H 79.0983 -0.281982 -4.0943 0
M  V30 767 H 78.6293 1.37567 -3.68563 0
M  V30 768 H 80.6443 2.47944 -4.29812 0
M  V30 769 N 79.8174 1.5752 -0.0501392 0
M  V30 770 C 81.0664 1.91827 0.623328 0
M  V30 771 C 81.3794 0.930222 1.72065 0
M  V30 772 O 82.5854 1.1653 2.4522 0
M  V30 773 C 81.0414 3.40692 1.16003 0
M  V30 774 C 80.6494 4.479 0.0948811 0
M  V30 775 C 82.3934 3.84034 1.80881 0
M  V30 776 C 80.3004 5.87879 0.644411 0
M  V30 777 H 79.2304 0.715918 0.236596 0
M  V30 778 H 81.8814 1.83115 -0.118861 0
M  V30 779 H 80.2634 3.44405 1.9545 0
M  V30 780 H 81.4374 4.55775 -0.678675 0
M  V30 781 H 79.7524 4.13892 -0.45637 0
M  V30 782 H 82.3494 4.85984 2.22988 0
M  V30 783 H 82.6924 3.20225 2.6601 0
M  V30 784 H 83.2254 3.82833 1.0809 0
M  V30 785 H 79.9644 6.55282 -0.169229 0
M  V30 786 H 79.4844 5.83567 1.38598 0
M  V30 787 H 81.1634 6.37098 1.12763 0
M  V30 788 N 81.2955 -0.223234 1.56011 0
M  V30 789 C 82.2255 -1.27988 1.95298 0
M  V30 790 C 83.2065 -1.48976 0.820979 0
M  V30 791 O 84.3915 -1.61188 1.08315 0
M  V30 792 C 81.5215 -2.63 2.26822 0
M  V30 793 C 80.4755 -2.56671 3.42497 0
M  V30 794 C 79.8015 -3.95697 3.59622 0
M  V30 795 C 81.1015 -2.11601 4.77517 0
M  V30 796 H 82.7955 -0.953525 2.8381 0
M  V30 797 H 80.3415 -0.457244 1.36548 0
M  V30 798 H 82.2945 -3.37077 2.52898 0
M  V30 799 H 81.0185 -2.9732 1.35161 0
M  V30 800 H 79.6775 -1.85051 3.16467 0
M  V30 801 H 79.3255 -4.27322 2.6534 0
M  V30 802 H 79.0255 -3.92345 4.37424 0
M  V30 803 H 80.5495 -4.71438 3.88044 0
M  V30 804 H 81.9635 -2.7542 5.02809 0
M  V30 805 H 80.3605 -2.19311 5.5859 0
M  V30 806 H 81.4305 -1.06824 4.72987 0
M  V30 807 N 82.7736 -1.49793 -0.48987 0
M  V30 808 C 84.1896 -1.36803 -0.822022 0
M  V30 809 C 84.3896 -0.409652 -1.97292 0
M  V30 810 O 83.4456 0.154614 -2.52026 0
M  V30 811 C 84.7586 -2.77768 -1.15175 0
M  V30 812 C 86.3066 -2.86549 -1.25931 0
M  V30 813 C 86.7816 -4.28306 -1.62228 0
M  V30 814 N 88.2726 -4.31169 -1.69256 0
M  V30 815 C 89.0076 -5.37832 -1.98807 0
M  V30 816 N 88.5036 -6.54726 -2.26507 0
M  V30 817 N 90.2966 -5.25258 -2.00152 0
M  V30 818 H 82.4476 -2.10691 0.268881 0
M  V30 819 H 84.7106 -0.946241 0.057728 0
M  V30 820 H 84.4166 -3.49648 -0.379335 0
M  V30 821 H 84.2906 -3.13836 -2.09253 0
M  V30 822 H 86.6776 -2.14899 -2.02243 0
M  V30 823 H 86.7586 -2.54049 -0.298776 0
M  V30 824 H 86.4026 -5.00486 -0.864622 0
M  V30 825 H 86.3326 -4.58279 -2.594 0
M  V30 826 H 88.8236 -3.4687 -1.49965 0
M  V30 827 H 89.1366 -7.31833 -2.48276 0
M  V30 828 H 87.4816 -6.57933 -2.23939 0
M  V30 829 H 90.6726 -4.32938 -1.77996 0
M  V30 830 H 90.8456 -6.08476 -2.22848 0
M  V30 831 N 84.2517 0.741722 -1.39055 0
M  V30 832 C 85.4997 1.49818 -1.35643 0
M  V30 833 C 85.8207 1.94938 0.0491642 0
M  V30 834 O 85.0907 1.68505 0.999141 0
M  V30 835 H 83.6707 0.555755 -0.499144 0
M  V30 836 H 86.3327 0.880957 -1.73854 0
M  V30 837 H 85.4287 2.38348 -2.01486 0
M  V30 838 N 85.7298 1.2412 0.971189 0
M  V30 839 C 86.9778 1.07668 1.71032 0
M  V30 840 C 87.2988 -0.385797 1.91146 0
M  V30 841 O 86.5688 -1.27569 1.4867 0
M  V30 842 H 85.1488 0.395429 0.633755 0
M  V30 843 H 87.8108 1.55984 1.16855 0
M  V30 844 H 86.9068 1.57195 2.69622 0
M  V30 845 N 87.2079 -1.17134 1.05439 0
M  V30 846 C 88.1709 -2.19439 0.661764 0
M  V30 847 C 89.1709 -1.58199 -0.288042 0
M  V30 848 O 90.3609 -1.74053 -0.0715803 0
M  V30 849 C 87.4929 -3.40889 -0.0276209 0
M  V30 850 H 88.6859 -2.55688 1.56728 0
M  V30 851 H 86.2389 -1.31259 0.848567 0
M  V30 852 H 86.9739 -3.10187 -0.94629 0
M  V30 853 H 86.7589 -3.86586 0.655238 0
M  V30 854 H 88.2489 -4.16603 -0.288342 0
M  V30 855 N 88.686 -0.835752 -1.33615 0
M  V30 856 C 89.616 -0.281739 -2.31794 0
M  V30 857 C 90.597 0.608833 -1.58831 0
M  V30 858 O 91.782 0.533035 -1.86741 0
M  V30 859 C 88.912 0.546612 -3.42971 0
M  V30 860 C 87.866 -0.247904 -4.27281 0
M  V30 861 C 87.192 0.704001 -5.30045 0
M  V30 862 C 88.492 -1.46324 -5.01385 0
M  V30 863 H 90.186 -1.10206 -2.78379 0
M  V30 864 H 87.732 -0.531388 -1.33837 0
M  V30 865 H 89.685 0.944467 -4.1068 0
M  V30 866 H 88.409 1.40011 -2.95067 0
M  V30 867 H 87.068 -0.627281 -3.61194 0
M  V30 868 H 86.716 1.55381 -4.78399 0
M  V30 869 H 86.416 0.176524 -5.87335 0
M  V30 870 H 87.94 1.09944 -6.0062 0
M  V30 871 H 89.354 -1.13871 -5.61877 0
M  V30 872 H 87.751 -1.92728 -5.6831 0
M  V30 873 H 88.821 -2.23467 -4.30338 0
M  V30 874 N 90.1641 1.46063 -0.591896 0
M  V30 875 C 91.3891 2.07226 -0.0850314 0
M  V30 876 C 91.8141 1.43625 1.21463 0
M  V30 877 O 91.1721 0.523305 1.73583 0
M  V30 878 C 91.2201 3.60554 0.0576567 0
M  V30 879 O 90.3241 3.97128 1.11188 0
M  V30 880 H 89.6651 0.660615 -0.0669568 0
M  V30 881 H 92.1951 1.8756 -0.81745 0
M  V30 882 H 92.2051 4.07165 0.2609 0
M  V30 883 H 90.8801 4.06235 -0.891416 0
M  V30 884 H 89.4571 3.62213 0.886356 0
M  V30 885 N 91.6422 0.330177 1.54103 0
M  V30 886 C 92.8702 -0.272179 2.05102 0
M  V30 887 C 93.2852 -1.45267 1.20595 0
M  V30 888 O 92.6422 -1.8094 0.238144 0
M  V30 889 C 92.6932 -0.70023 3.54653 0
M  V30 890 O 92.4142 0.433301 4.35952 0
M  V30 891 C 93.9152 -1.3647 4.21771 0
M  V30 892 H 91.1352 -0.0549159 0.668749 0
M  V30 893 H 93.6792 0.478285 1.98828 0
M  V30 894 H 91.8342 -1.40066 3.61193 0
M  V30 895 H 92.2482 0.0947539 5.24414 0
M  V30 896 H 93.7222 -1.61509 5.27843 0
M  V30 897 H 94.1992 -2.31409 3.73292 0
M  V30 898 H 94.8052 -0.706675 4.19388 0
M  V30 899 N 93.1203 -1.57491 0.0584922 0
M  V30 900 C 94.3663 -1.93264 -0.614558 0
M  V30 901 C 94.6993 -0.937717 -1.7006 0
M  V30 902 O 93.9743 0.0351652 -1.94468 0
M  V30 903 C 94.2573 -3.3938 -1.20386 0
M  V30 904 C 94.1103 -4.49625 -0.125375 0
M  V30 905 C 95.4293 -3.86039 -2.11334 0
M  V30 906 H 92.5483 -0.702791 -0.221933 0
M  V30 907 H 95.1903 -1.8961 0.12175 0
M  V30 908 H 93.3403 -3.42626 -1.83139 0
M  V30 909 H 95.0123 -4.58506 0.506971 0
M  V30 910 H 93.2553 -4.30354 0.545672 0
M  V30 911 H 93.9263 -5.48967 -0.577861 0
M  V30 912 H 96.4023 -3.84716 -1.58534 0
M  V30 913 H 95.2783 -4.88914 -2.49507 0
M  V30 914 H 95.5393 -3.23215 -3.01636 0
M  V30 915 N 94.5984 0.214957 -1.56127 0
M  V30 916 C 96.0144 0.564948 -1.49267 0
M  V30 917 C 96.2144 1.86827 -0.754838 0
M  V30 918 O 95.2704 2.50745 -0.297198 0
M  V30 919 C 96.5834 0.638071 -2.93852 0
M  V30 920 C 98.1314 0.728253 -3.0441 0
M  V30 921 C 98.6064 0.832663 -4.50367 0
M  V30 922 N 100.097 0.896712 -4.54437 0
M  V30 923 C 100.832 0.997324 -5.6466 0
M  V30 924 N 100.328 1.06147 -6.8462 0
M  V30 925 N 102.121 1.03297 -5.52527 0
M  V30 926 H 94.2724 -0.640211 -2.02522 0
M  V30 927 H 96.5354 -0.225507 -0.920788 0
M  V30 928 H 96.2414 -0.250126 -3.50809 0
M  V30 929 H 96.1154 1.49947 -3.46115 0
M  V30 930 H 98.5024 1.60689 -2.47514 0
M  V30 931 H 98.5834 -0.158952 -2.55306 0
M  V30 932 H 98.2274 -0.0415417 -5.07883 0
M  V30 933 H 98.1574 1.73538 -4.97184 0
M  V30 934 H 100.648 0.857188 -3.6805 0
M  V30 935 H 100.961 1.1382 -7.64372 0
M  V30 936 H 99.3064 1.03049 -6.87318 0
M  V30 937 H 102.497 0.979558 -4.57736 0
M  V30 938 H 102.67 1.10793 -6.38458 0
M  V30 939 N 96.0765 1.50051 0.48192 0
M  V30 940 C 97.0395 1.67584 1.5636 0
M  V30 941 C 98.0395 0.546894 1.51214 0
M  V30 942 O 99.2295 0.813725 1.54026 0
M  V30 943 C 96.3615 1.691 2.96003 0
M  V30 944 H 97.5545 2.64078 1.42136 0
M  V30 945 H 95.1075 1.39369 0.707533 0
M  V30 946 H 95.8425 0.742589 3.15684 0
M  V30 947 H 95.6275 2.51105 3.01146 0
M  V30 948 H 97.1175 1.84656 3.74556 0
M  V30 949 N 97.5546 -0.734337 1.39446 0
M  V30 950 C 98.8026 -1.49096 1.36436 0
M  V30 951 C 99.1236 -1.94961 -0.0388255 0
M  V30 952 O 98.3936 -1.69033 -0.990191 0
M  V30 953 H 96.9736 -0.5531 0.502085 0
M  V30 954 H 99.6356 -0.871725 1.74319 0
M  V30 955 H 98.7316 -2.37276 2.02747 0
M  V30 956 N 99.0327 -1.24633 -0.964593 0
M  V30 957 C 99.9957 -1.0424 -2.04124 0
M  V30 958 C 100.996 0.00137563 -1.608 0
M  V30 959 O 102.186 -0.239883 -1.7254 0
M  V30 960 C 99.3177 -0.580588 -3.3592 0
M  V30 961 H 100.511 -1.99803 -2.23649 0
M  V30 962 H 98.0637 -1.06899 -1.14027 0
M  V30 963 H 98.7987 0.3781 -3.22088 0
M  V30 964 H 98.5837 -1.33398 -3.6871 0
M  V30 965 H 100.074 -0.459034 -4.15069 0
M  V30 966 N 100.511 1.16574 -1.06058 0
M  V30 967 C 101.421 2.2452 -0.680282 0
M  V30 968 C 102.437 1.71348 0.302604 0
M  V30 969 O 103.613 2.00822 0.152513 0
M  V30 970 C 100.678 3.46629 -0.0700315 0
M  V30 971 C 99.7388 4.14849 -1.10448 0
M  V30 972 C 98.9718 5.31129 -0.523256 0
M  V30 973 O 99.1948 5.66514 0.664709 0
M  V30 974 O 98.1288 5.88526 -1.26179 0
M  V30 975 H 101.955 2.59355 -1.58015 0
M  V30 976 H 99.5398 1.24043 -0.832694 0
M  V30 977 H 101.422 4.20543 0.268667 0
M  V30 978 H 100.097 3.13573 0.803353 0
M  V30 979 H 99.0038 3.42916 -1.49532 0
M  V30 980 H 100.337 4.51954 -1.94931 0
M  V30 981 N 101.989 0.842826 1.3317 0
M  V30 982 C 102.919 0.294028 2.31641 0
M  V30 983 C 103.9 -0.600401 1.59151 0
M  V30 984 O 105.085 -0.523124 1.87022 0
M  V30 985 C 102.215 -0.528416 3.43257 0
M  V30 986 C 101.169 0.27056 4.27144 0
M  V30 987 C 100.495 -0.675881 5.30411 0
M  V30 988 C 101.795 1.48981 5.00602 0
M  V30 989 H 103.489 1.11681 2.77791 0
M  V30 990 H 101.035 0.538478 1.33553 0
M  V30 991 H 102.988 -0.922674 4.11175 0
M  V30 992 H 101.712 -1.38445 2.95805 0
M  V30 993 H 100.371 0.646427 3.60856 0
M  V30 994 H 100.019 -1.52842 4.79216 0
M  V30 995 H 99.7189 -0.145374 5.8742 0
M  V30 996 H 101.243 -1.06757 6.01195 0
M  V30 997 H 102.657 1.16849 5.61266 0
M  V30 998 H 101.054 1.95739 5.6728 0
M  V30 999 H 102.124 2.25746 4.29147 0
M  V30 1000 N 103.467 -1.45747 0.599634 0
M  V30 1001 C 104.883 -1.57424 0.26264 0
M  V30 1002 C 105.083 -1.59222 -1.23493 0
M  V30 1003 O 104.139 -1.51825 -2.01756 0
M  V30 1004 C 105.452 -2.86061 0.926795 0
M  V30 1005 C 107 -2.99722 0.901967 0
M  V30 1006 C 107.475 -4.31119 1.54598 0
M  V30 1007 N 108.966 -4.37858 1.5111 0
M  V30 1008 C 109.701 -5.3818 1.97863 0
M  V30 1009 N 109.197 -6.45083 2.52666 0
M  V30 1010 N 110.99 -5.29487 1.88679 0
M  V30 1011 H 103.141 -1.42823 1.57211 0
M  V30 1012 H 105.404 -0.68235 0.658105 0
M  V30 1013 H 105.11 -2.90605 1.98095 0
M  V30 1014 H 104.984 -3.74563 0.445238 0
M  V30 1015 H 107.371 -2.9475 -0.143617 0
M  V30 1016 H 107.452 -2.12652 1.42171 0
M  V30 1017 H 107.096 -4.36849 2.59085 0
M  V30 1018 H 107.026 -5.16992 1.00132 0
M  V30 1019 H 109.517 -3.61209 1.11068 0
M  V30 1020 H 109.83 -7.17869 2.86155 0
M  V30 1021 H 108.175 -6.45856 2.56701 0
M  V30 1022 H 111.366 -4.44877 1.4561 0
M  V30 1023 H 111.539 -6.07524 2.25429 0
M  V30 1024 N 104.945 -0.338344 -1.53925 0
M  V30 1025 C 105.908 0.508299 -2.23493 0
M  V30 1026 C 106.908 1.03175 -1.23335 0
M  V30 1027 O 108.098 0.921826 -1.47811 0
M  V30 1028 C 105.23 1.70754 -2.95052 0
M  V30 1029 H 106.423 -0.100058 -2.99733 0
M  V30 1030 H 103.976 -0.0896198 -1.56043 0
M  V30 1031 H 104.711 2.35474 -2.22986 0
M  V30 1032 H 104.496 1.33946 -3.68512 0
M  V30 1033 H 105.986 2.30818 -3.48013 0
M  V30 1034 N 106.423 1.57458 -0.0668435 0
M  V30 1035 C 107.669 1.93587 0.6043 0
M  V30 1036 C 108.002 0.946722 1.69561 0
M  V30 1037 O 107.277 -0.0248516 1.94484 0
M  V30 1038 C 107.56 3.40014 1.18585 0
M  V30 1039 C 107.413 4.49685 0.101529 0
M  V30 1040 C 108.732 3.87154 2.09284 0
M  V30 1041 H 105.851 0.703958 0.218202 0
M  V30 1042 H 108.493 1.89542 -0.131804 0
M  V30 1043 H 106.643 3.43592 1.81319 0
M  V30 1044 H 108.315 4.5823 -0.531279 0
M  V30 1045 H 106.558 4.30059 -0.568487 0
M  V30 1046 H 107.229 5.49266 0.54874 0
M  V30 1047 H 109.705 3.85551 1.56491 0
M  V30 1048 H 108.581 4.90231 2.46911 0
M  V30 1049 H 108.842 3.2481 2.99918 0
M  V30 1050 N 107.901 -0.206675 1.56239 0
M  V30 1051 C 108.831 -1.25909 1.96645 0
M  V30 1052 C 109.812 -1.48097 0.836734 0
M  V30 1053 O 110.997 -1.6003 1.10019 0
M  V30 1054 C 108.127 -2.6058 2.29599 0
M  V30 1055 C 107.081 -2.53024 3.452 0
M  V30 1056 C 106.407 -3.91861 3.63798 0
M  V30 1057 C 107.707 -2.06524 4.79734 0
M  V30 1058 H 109.401 -0.923369 2.84806 0
M  V30 1059 H 106.947 -0.442735 1.37025 0
M  V30 1060 H 108.9 -3.34375 2.56459 0
M  V30 1061 H 107.624 -2.95869 1.38307 0
M  V30 1062 H 106.283 -1.81684 3.18412 0
M  V30 1063 H 105.931 -4.24483 2.69857 0
M  V30 1064 H 105.631 -3.87683 4.4156 0
M  V30 1065 H 107.155 -4.67296 3.93022 0
M  V30 1066 H 108.569 -2.70072 5.05702 0
M  V30 1067 H 106.966 -2.13374 5.60885 0
M  V30 1068 H 108.036 -1.01802 4.74093 0
M  V30 1069 N 109.379 -1.50304 -0.473955 0
M  V30 1070 C 110.342 -1.6841 -1.55469 0
M  V30 1071 C 111.342 -0.554905 -1.50922 0
M  V30 1072 O 112.532 -0.821882 -1.53593 0
M  V30 1073 C 109.664 -1.70667 -2.95102 0
M  V30 1074 H 110.857 -2.64828 -1.40733 0
M  V30 1075 H 108.41 -1.39742 -0.700132 0
M  V30 1076 H 109.145 -0.75932 -3.15285 0
M  V30 1077 H 108.93 -2.52698 -2.9981 0
M  V30 1078 H 110.42 -1.8664 -3.73571 0
M  V30 1079 N 110.857 0.726932 -1.39834 0
M  V30 1080 C 111.787 1.85405 -1.41941 0
M  V30 1081 C 112.768 1.67751 -0.281728 0
M  V30 1082 O 113.953 1.8795 -0.488717 0
M  V30 1083 C 111.083 3.23243 -1.2701 0
M  V30 1084 C 110.037 3.55549 -2.38262 0
M  V30 1085 C 109.363 4.9241 -2.08415 0
M  V30 1086 C 110.663 3.577 -3.80589 0
M  V30 1087 H 112.357 1.83899 -2.36266 0
M  V30 1088 H 109.903 0.883349 -1.13723 0
M  V30 1089 H 111.856 4.01775 -1.27103 0
M  V30 1090 H 110.58 3.25296 -0.291564 0
M  V30 1091 H 109.239 2.79351 -2.37399 0
M  V30 1092 H 108.887 4.91052 -1.0898 0
M  V30 1093 H 108.587 5.14992 -2.82943 0
M  V30 1094 H 110.111 5.73289 -2.10171 0
M  V30 1095 H 111.525 4.26293 -3.83337 0
M  V30 1096 H 109.922 3.91804 -4.54543 0
M  V30 1097 H 110.992 2.57328 -4.10987 0
M  V30 1098 N 112.336 1.25143 0.95797 0
M  V30 1099 C 113.266 1.07711 2.07173 0
M  V30 1100 C 114.247 -0.0128462 1.70095 0
M  V30 1101 O 115.432 0.156061 1.93572 0
M  V30 1102 C 112.562 0.691503 3.40346 0
M  V30 1103 C 111.516 1.73132 3.9142 0
M  V30 1104 C 110.842 1.20049 5.21049 0
M  V30 1105 C 112.142 3.1294 4.1817 0
M  V30 1106 H 113.836 2.00873 2.22014 0
M  V30 1107 H 111.382 0.967191 1.06684 0
M  V30 1108 H 113.335 0.556505 4.17709 0
M  V30 1109 H 112.059 -0.275819 3.25433 0
M  V30 1110 H 110.718 1.8547 3.16222 0
M  V30 1111 H 110.366 0.223499 5.02503 0
M  V30 1112 H 110.066 1.89545 5.56189 0
M  V30 1113 H 111.59 1.07782 6.01012 0
M  V30 1114 H 113.004 3.03775 4.86203 0
M  V30 1115 H 111.401 3.79875 4.64559 0
M  V30 1116 H 112.471 3.6025 3.24573 0
M  V30 1117 N 113.814 -1.1601 1.06675 0
M  V30 1118 C 115.23 -1.38622 0.790948 0
M  V30 1119 C 115.43 -1.92109 -0.607965 0
M  V30 1120 O 114.486 -2.12239 -1.36787 0
M  V30 1121 C 115.799 -2.36347 1.85905 0
M  V30 1122 C 117.347 -2.50023 1.88301 0
M  V30 1123 C 117.822 -3.51033 2.94176 0
M  V30 1124 N 119.313 -3.58563 2.93235 0
M  V30 1125 C 120.048 -4.36521 3.71803 0
M  V30 1126 N 119.544 -5.17869 4.602 0
M  V30 1127 N 121.337 -4.31541 3.60178 0
M  V30 1128 H 113.488 -0.796294 1.96908 0
M  V30 1129 H 115.751 -0.412597 0.853503 0
M  V30 1130 H 115.457 -2.04147 2.86386 0
M  V30 1131 H 115.331 -3.36042 1.71334 0
M  V30 1132 H 117.718 -2.81524 0.884769 0
M  V30 1133 H 117.799 -1.5035 2.06951 0
M  V30 1134 H 117.443 -3.20268 3.94196 0
M  V30 1135 H 117.373 -4.50445 2.72776 0
M  V30 1136 H 119.864 -3.00496 2.29152 0
M  V30 1137 H 120.177 -5.74578 5.16797 0
M  V30 1138 H 118.522 -5.17199 4.64253 0
M  V30 1139 H 121.713 -3.67051 2.90502 0
M  V30 1140 H 121.886 -4.9205 4.21653 0
M  V30 1141 N 115.292 -0.849877 -1.32721 0
M  V30 1142 C 116.255 -0.296122 -2.27279 0
M  V30 1143 C 117.255 0.541458 -1.5141 0
M  V30 1144 O 118.445 0.353658 -1.70572 0
M  V30 1145 C 115.577 0.581579 -3.35902 0
M  V30 1146 H 116.77 -1.13064 -2.77771 0
M  V30 1147 H 114.323 -0.62383 -1.43311 0
M  V30 1148 H 115.058 1.43809 -2.9067 0
M  V30 1149 H 114.843 -0.0178814 -3.92096 0
M  V30 1150 H 116.333 0.961951 -4.0637 0
M  V30 1151 N 116.77 1.45427 -0.607355 0
M  V30 1152 C 118.018 2.01841 -0.102253 0
M  V30 1153 C 118.339 1.47832 1.27164 0
M  V30 1154 O 117.609 0.672497 1.83995 0
M  V30 1155 H 116.189 0.746188 -0.0348101 0
M  V30 1156 H 118.851 1.78229 -0.7887 0
M  V30 1157 H 117.947 3.12057 -0.0518585 0
M  V30 1158 N 118.248 0.346503 1.53744 0
M  V30 1159 C 119.659 -0.136779 1.86198 0
M  V30 1160 C 120.01 -1.49749 1.26766 0
M  V30 1161 O 119.135 -2.08417 0.582355 0
M  V30 1162 C 119.73 -0.254966 3.37839 0
M  V30 1163 C 118.289 -0.682482 3.70161 0
M  V30 1164 C 117.436 0.181981 2.76702 0
M  V30 1165 H 120.387 0.565994 1.48264 0
M  V30 1166 H 120.408 -1.08195 3.64793 0
M  V30 1167 H 119.92 0.735526 3.81066 0
M  V30 1168 H 118.021 -1.68189 3.3248 0
M  V30 1169 H 118.134 -0.470326 4.76786 0
M  V30 1170 H 116.498 -0.34615 2.52337 0
M  V30 1171 H 117.281 1.16966 3.2276 0
M  V30 1172 N 119.726 -1.57421 0.075193 0
M  V30 1173 C 120.974 -1.93236 -0.591974 0
M  V30 1174 C 121.295 -0.956241 -1.69944 0
M  V30 1175 O 120.565 -0.00494792 -1.95899 0
M  V30 1176 H 119.145 -0.713355 -0.22166 0
M  V30 1177 H 121.807 -1.9444 0.133848 0
M  V30 1178 H 120.903 -2.95131 -1.01509 0
M  V30 1179 N 121.204 0.198386 -1.56346 0
M  V30 1180 C 122.615 0.763358 -1.70381 0
M  V30 1181 C 122.966 1.83995 -0.681203 0
M  V30 1182 O 122.091 2.15785 0.16305 0
M  V30 1183 C 122.686 1.39143 -3.08909 0
M  V30 1184 C 121.245 1.90352 -3.2472 0
M  V30 1185 C 120.392 0.772233 -2.6633 0
M  V30 1186 H 123.343 -0.0266377 -1.58678 0
M  V30 1187 H 123.364 2.26076 -3.06055 0
M  V30 1188 H 122.876 0.607638 -3.83314 0
M  V30 1189 H 120.977 2.71461 -2.55225 0
M  V30 1190 H 121.09 2.06757 -4.3219 0
M  V30 1191 H 119.454 1.18566 -2.2542 0
M  V30 1192 H 120.237 0.00073556 -3.433 0
M  V30 1193 N 122.682 1.50554 0.465978 0
M  V30 1194 C 123.93 1.61479 1.21528 0
M  V30 1195 C 124.251 0.319596 1.92363 0
M  V30 1196 O 123.521 -0.663194 1.84333 0
M  V30 1197 H 122.101 0.595055 0.451573 0
M  V30 1198 H 124.763 1.87355 0.53704 0
M  V30 1199 H 123.859 2.42846 1.96042 0
M  V30 1200 N 124.16 -0.719506 1.40217 0
M  V30 1201 C 125.408 -1.47641 1.3801 0
M  V30 1202 C 125.729 -1.94992 -0.018145 0
M  V30 1203 O 124.999 -1.70073 -0.972207 0
M  V30 1204 H 123.579 -0.547744 0.507923 0
M  V30 1205 H 126.241 -0.853187 1.75233 0
M  V30 1206 H 125.337 -2.35112 2.05253 0
M  V30 1207 N 125.638 -1.25649 -0.95132 0
M  V30 1208 C 126.886 -1.10375 -1.69298 0
M  V30 1209 C 127.207 0.355339 -1.91735 0
M  V30 1210 O 126.477 1.25188 -1.50681 0
M  V30 1211 H 125.057 -0.405461 -0.627384 0
M  V30 1212 H 127.719 -1.57823 -1.14358 0
M  V30 1213 H 126.815 -1.61465 -2.67087 0
M  V30 1214 N 127.117 1.15442 -1.07289 0
M  V30 1215 C 128.342 1.90638 -0.816828 0
M  V30 1216 C 128.767 1.77445 0.624083 0
M  V30 1217 O 128.125 1.10671 1.43602 0
M  V30 1218 C 128.173 3.39008 -1.22906 0
M  V30 1219 O 127.277 4.10701 -0.373975 0
M  V30 1220 H 126.618 0.593555 -0.297638 0
M  V30 1221 H 129.148 1.46198 -1.43134 0
M  V30 1222 H 129.158 3.89801 -1.20497 0
M  V30 1223 H 127.833 3.47929 -2.27856 0
M  V30 1224 H 126.41 3.70046 -0.460499 0
M  V30 1225 N 128.595 0.856903 1.32268 0
M  V30 1226 C 129.542 0.301172 2.28827 0
M  V30 1227 C 130.512 -0.593104 1.5515 0
M  V30 1228 O 131.697 -0.527537 1.83362 0
M  V30 1229 C 128.837 -0.502523 3.41422 0
M  V30 1230 C 127.95 0.417797 4.29975 0
M  V30 1231 C 127.085 -0.398749 5.29701 0
M  V30 1232 C 126.124 0.518827 6.09897 0
M  V30 1233 N 125.261 -0.260674 7.01616 0
M  V30 1234 H 130.101 1.12983 2.75751 0
M  V30 1235 H 127.638 0.568582 1.35667 0
M  V30 1236 H 129.596 -0.984141 4.05426 0
M  V30 1237 H 128.226 -1.29599 2.95642 0
M  V30 1238 H 127.278 1.01781 3.66531 0
M  V30 1239 H 128.59 1.12191 4.86019 0
M  V30 1240 H 127.744 -0.943435 5.9932 0
M  V30 1241 H 126.483 -1.13622 4.7428 0
M  V30 1242 H 125.488 1.07538 5.39181 0
M  V30 1243 H 126.713 1.25495 6.67404 0
M  V30 1244 H 124.659 -0.981198 6.4862 0
M  V30 1245 H 124.576 0.384364 7.55022 0
M  V30 1246 H 125.844 -0.787014 7.75517 0
M  V30 1247 N 130.073 -1.45103 0.615059 0
M  V30 1248 C 131.35 -1.95549 0.0448276 0
M  V30 1249 C 131.73 -1.55737 -1.4251 0
M  V30 1250 O 131.078 -0.823556 -2.13143 0
M  V30 1251 C 131.288 -3.48098 0.250785 0
M  V30 1252 C 132.636 -4.24384 0.135509 0
M  V30 1253 O 133.66 -3.55738 0.181299 0
M  V30 1254 O 132.519 -5.46493 0.0268878 0
M  V30 1255 H 129.613 -0.8264 -0.0314845 0
M  V30 1256 H 132.159 -1.55232 0.685642 0
M  V30 1257 H 130.931 -3.7007 1.27139 0
M  V30 1258 H 130.554 -3.95323 -0.424937 0
M  V30 1259 N 131.551 -0.354651 -1.53558 0
M  V30 1260 C 132.481 0.489091 -2.2832 0
M  V30 1261 C 133.462 1.09324 -1.30316 0
M  V30 1262 O 134.647 1.11255 -1.59173 0
M  V30 1263 C 131.777 1.63456 -3.0643 0
M  V30 1264 C 130.731 1.1582 -4.12031 0
M  V30 1265 C 130.057 2.39305 -4.7816 0
M  V30 1266 C 131.357 0.250731 -5.21698 0
M  V30 1267 H 133.051 -0.134614 -2.99097 0
M  V30 1268 H 130.597 -0.0661826 -1.43848 0
M  V30 1269 H 132.55 2.23136 -3.57475 0
M  V30 1270 H 131.274 2.28533 -2.33325 0
M  V30 1271 H 129.933 0.584146 -3.61916 0
M  V30 1272 H 129.581 3.02814 -4.01637 0
M  V30 1273 H 129.281 2.08109 -5.49513 0
M  V30 1274 H 130.805 2.99691 -5.31994 0
M  V30 1275 H 132.219 0.754695 -5.68311 0
M  V30 1276 H 130.616 0.0301468 -6.00092 0
M  V30 1277 H 131.686 -0.710125 -4.79672 0
M  V30 1278 N 133.029 1.57378 -0.0835403 0
M  V30 1279 C 133.959 2.1641 0.87686 0
M  V30 1280 C 134.94 1.09429 1.30228 0
M  V30 1281 O 136.125 1.37516 1.37124 0
M  V30 1282 C 133.255 2.73517 2.14022 0
M  V30 1283 C 132.209 3.85769 1.85381 0
M  V30 1284 C 131.535 4.29529 3.18448 0
M  V30 1285 C 132.835 5.09486 1.14984 0
M  V30 1286 H 134.529 2.96914 0.385059 0
M  V30 1287 H 132.075 1.42823 0.18377 0
M  V30 1288 H 134.028 3.13463 2.81636 0
M  V30 1289 H 132.752 1.90252 2.65465 0
M  V30 1290 H 131.411 3.46345 1.20169 0
M  V30 1291 H 131.059 3.43169 3.67755 0
M  V30 1292 H 130.759 5.05204 3.00071 0
M  V30 1293 H 132.283 4.72099 3.8724 0
M  V30 1294 H 133.697 5.46674 1.72687 0
M  V30 1295 H 132.094 5.90515 1.06826 0
M  V30 1296 H 133.164 4.84724 0.130749 0
M  V30 1297 N 134.507 -0.190092 1.56449 0
M  V30 1298 C 135.754 -0.909705 1.80916 0
M  V30 1299 C 136.082 -1.83047 0.657583 0
M  V30 1300 O 135.337 -1.92428 -0.356356 0
M  V30 1301 C 135.636 -1.75382 3.1141 0
M  V30 1302 C 135.302 -0.983606 4.40041 0
M  V30 1303 C 133.964 -0.770967 4.74984 0
M  V30 1304 C 136.316 -0.442024 5.19322 0
M  V30 1305 C 133.644 -0.0053448 5.867 0
M  V30 1306 C 135.996 0.310412 6.31838 0
M  V30 1307 C 134.66 0.534023 6.6536 0
M  V30 1308 H 133.93 -0.332885 0.662019 0
M  V30 1309 H 136.577 -0.175762 1.90692 0
M  V30 1310 H 134.882 -2.55659 2.96893 0
M  V30 1311 H 136.579 -2.31331 3.27547 0
M  V30 1312 H 133.169 -1.15936 4.12622 0
M  V30 1313 H 137.353 -0.593693 4.92736 0
M  V30 1314 H 132.609 0.177825 6.11141 0
M  V30 1315 H 136.783 0.737419 6.92485 0
M  V30 1316 H 134.41 1.12918 7.51767 0
M  V30 1317 N 135.985 -1.50799 -0.457987 0
M  V30 1318 C 137.231 -1.63648 -1.20792 0
M  V30 1319 C 137.586 -0.338662 -1.89396 0
M  V30 1320 O 136.879 0.664291 -1.79716 0
M  V30 1321 C 137.073 -2.76358 -2.2663 0
M  V30 1322 C 136.902 -4.16974 -1.68411 0
M  V30 1323 C 135.672 -4.83199 -1.47807 0
M  V30 1324 C 137.87 -5.00774 -1.17176 0
M  V30 1325 N 135.852 -6.07991 -0.849692 0
M  V30 1326 C 137.223 -6.16397 -0.667403 0
M  V30 1327 C 139.278 -4.86452 -1.06155 0
M  V30 1328 C 137.981 -7.19272 -0.0636908 0
M  V30 1329 C 140.007 -5.89515 -0.471759 0
M  V30 1330 C 139.369 -7.04397 0.0221557 0
M  V30 1331 H 135.468 -0.652888 -0.43042 0
M  V30 1332 H 138.052 -1.87962 -0.507785 0
M  V30 1333 H 136.223 -2.53744 -2.94056 0
M  V30 1334 H 137.955 -2.78496 -2.93636 0
M  V30 1335 H 134.71 -4.40714 -1.73403 0
M  V30 1336 H 135.134 -6.74733 -0.553537 0
M  V30 1337 H 139.776 -3.97907 -1.42932 0
M  V30 1338 H 137.494 -8.07481 0.316253 0
M  V30 1339 H 141.08 -5.805 -0.388671 0
M  V30 1340 H 139.96 -7.82782 0.471375 0
M  V30 1341 N 137.463 0.71206 -1.40597 0
M  V30 1342 C 138.709 1.47416 -1.39271 0
M  V30 1343 C 139.042 1.942 0.00388791 0
M  V30 1344 O 138.317 1.68403 0.973179 0
M  V30 1345 C 138.6 2.69774 -2.38525 0
M  V30 1346 C 138.453 2.28861 -3.87224 0
M  V30 1347 C 139.772 3.71939 -2.35264 0
M  V30 1348 H 136.891 0.534713 -0.5072 0
M  V30 1349 H 139.533 0.812375 -1.71757 0
M  V30 1350 H 137.683 3.26238 -2.10953 0
M  V30 1351 H 139.355 1.77852 -4.25636 0
M  V30 1352 H 137.598 1.60824 -4.02887 0
M  V30 1353 H 138.269 3.16584 -4.52193 0
M  V30 1354 H 140.745 3.25113 -2.59694 0
M  V30 1355 H 139.621 4.55186 -3.06753 0
M  V30 1356 H 139.882 4.20484 -1.36549 0
M  V30 1357 N 138.941 1.26152 0.944643 0
M  V30 1358 C 139.904 1.07474 2.0244 0
M  V30 1359 C 140.904 0.0242064 1.60782 0
M  V30 1360 O 142.094 0.267302 1.72137 0
M  V30 1361 C 139.226 0.633956 3.34953 0
M  V30 1362 H 140.419 2.03336 2.20442 0
M  V30 1363 H 137.972 1.087 1.12312 0
M  V30 1364 H 138.707 -0.326811 3.22649 0
M  V30 1365 H 138.492 1.39247 3.66542 0
M  V30 1366 H 139.982 0.52501 4.14287 0
M  V30 1367 N 140.419 -1.14872 1.07899 0
M  V30 1368 C 141.349 -2.2193 0.725887 0
M  V30 1369 C 142.33 -1.67622 -0.28927 0
M  V30 1370 O 143.515 -1.93533 -0.160787 0
M  V30 1371 C 140.645 -3.47061 0.128856 0
M  V30 1372 C 139.599 -4.14363 1.07178 0
M  V30 1373 C 138.925 -5.33636 0.337229 0
M  V30 1374 C 140.225 -4.63492 2.40775 0
M  V30 1375 H 141.919 -2.51724 1.62097 0
M  V30 1376 H 139.465 -1.20991 0.780838 0
M  V30 1377 H 141.418 -4.21199 -0.130147 0
M  V30 1378 H 140.142 -3.16617 -0.80134 0
M  V30 1379 H 138.801 -3.42173 1.3158 0
M  V30 1380 H 138.449 -4.99449 -0.596606 0
M  V30 1381 H 138.149 -5.79609 0.965788 0
M  V30 1382 H 139.673 -6.10539 0.0861567 0
M  V30 1383 H 141.087 -5.2913 2.20669 0
M  V30 1384 H 139.484 -5.20148 2.99276 0
M  V30 1385 H 140.554 -3.78834 3.02676 0
M  V30 1386 N 141.898 -0.863906 -1.31812 0
M  V30 1387 C 142.808 -0.318461 -2.32428 0
M  V30 1388 C 143.824 0.568496 -1.64451 0
M  V30 1389 O 145 0.46666 -1.95919 0
M  V30 1390 C 142.065 0.476355 -3.43412 0
M  V30 1391 C 141.126 -0.43784 -4.27061 0
M  V30 1392 C 140.359 0.319138 -5.32745 0
M  V30 1393 O 140.582 1.54799 -5.48993 0
M  V30 1394 O 139.516 -0.319861 -6.01049 0
M  V30 1395 H 143.342 -1.15229 -2.80991 0
M  V30 1396 H 140.927 -0.627103 -1.35602 0
M  V30 1397 H 142.809 0.927156 -4.11074 0
M  V30 1398 H 141.484 1.28683 -2.97022 0
M  V30 1399 H 140.391 -0.937013 -3.62175 0
M  V30 1400 H 141.724 -1.21375 -4.77 0
M  V30 1401 N 143.376 1.44774 -0.622745 0
M  V30 1402 C 144.792 1.56986 -0.287652 0
M  V30 1403 C 144.992 1.61167 1.20944 0
M  V30 1404 O 144.048 1.55015 1.99315 0
M  V30 1405 C 145.361 2.84551 -0.972188 0
M  V30 1406 C 146.909 2.9825 -0.949536 0
M  V30 1407 C 147.384 4.28605 -1.61437 0
M  V30 1408 N 148.875 4.35399 -1.58057 0
M  V30 1409 C 149.61 5.34964 -2.064 0
M  V30 1410 N 149.106 6.40981 -2.62897 0
M  V30 1411 N 150.899 5.26419 -1.97078 0
M  V30 1412 H 143.05 1.40304 -1.59463 0
M  V30 1413 H 145.313 0.671794 -0.668878 0
M  V30 1414 H 145.019 2.87417 -2.02693 0
M  V30 1415 H 144.893 3.73807 -0.504771 0
M  V30 1416 H 147.28 2.94941 0.0967067 0
M  V30 1417 H 147.361 2.10364 -1.45536 0
M  V30 1418 H 147.005 4.32672 -2.66002 0
M  V30 1419 H 146.935 5.15334 -1.08344 0
M  V30 1420 H 149.426 3.59397 -1.16801 0
M  V30 1421 H 149.739 7.13225 -2.97539 0
M  V30 1422 H 148.084 6.4169 -2.66943 0
M  V30 1423 H 151.275 4.42504 -1.52669 0
M  V30 1424 H 151.448 6.03861 -2.35066 0
M  V30 1425 N 144.854 0.36279 1.53368 0
M  V30 1426 C 146.27 0.0116182 1.59596 0
M  V30 1427 C 146.47 -1.47012 1.37803 0
M  V30 1428 O 145.526 -2.23136 1.18181 0
M  V30 1429 C 146.839 0.465052 2.97082 0
M  V30 1430 C 148.387 0.419033 3.10182 0
M  V30 1431 C 148.862 0.848235 4.50077 0
M  V30 1432 N 150.353 0.803183 4.56183 0
M  V30 1433 C 151.088 1.107 5.62613 0
M  V30 1434 N 150.584 1.47996 6.76808 0
M  V30 1435 N 152.377 1.02998 5.52583 0
M  V30 1436 H 144.528 1.32775 1.65785 0
M  V30 1437 H 146.791 0.542518 0.777417 0
M  V30 1438 H 146.497 1.49892 3.18159 0
M  V30 1439 H 146.371 -0.149786 3.76902 0
M  V30 1440 H 148.758 -0.605696 2.88817 0
M  V30 1441 H 148.839 1.06933 2.32377 0
M  V30 1442 H 148.483 1.87107 4.7218 0
M  V30 1443 H 148.413 0.175218 5.26308 0
M  V30 1444 H 150.904 0.52838 3.74188 0
M  V30 1445 H 151.217 1.69613 7.53957 0
M  V30 1446 H 149.562 1.51859 6.78206 0
M  V30 1447 H 152.753 0.737817 4.62249 0
M  V30 1448 H 152.926 1.2701 6.35431 0
M  V30 1449 N 146.332 -1.57332 0.0918853 0
M  V30 1450 C 147.748 -1.57389 -0.264766 0
M  V30 1451 C 147.948 -1.10281 -1.68643 0
M  V30 1452 O 147.004 -0.777801 -2.40222 0
M  V30 1453 C 148.317 -3.00648 -0.0561195 0
M  V30 1454 C 149.865 -3.12754 -0.124116 0
M  V30 1455 C 150.34 -4.57965 0.0564972 0
M  V30 1456 N 151.831 -4.632 0.00155611 0
M  V30 1457 C 152.566 -5.73281 0.116598 0
M  V30 1458 N 152.062 -6.92208 0.286294 0
M  V30 1459 N 153.855 -5.6207 0.0580973 0
M  V30 1460 H 146.006 -1.86262 1.02079 0
M  V30 1461 H 148.269 -0.859579 0.399786 0
M  V30 1462 H 147.975 -3.393 0.925669 0
M  V30 1463 H 147.849 -3.68623 -0.799823 0
M  V30 1464 H 150.236 -2.73976 -1.09641 0
M  V30 1465 H 150.317 -2.47377 0.651024 0
M  V30 1466 H 149.961 -4.97436 1.02564 0
M  V30 1467 H 149.891 -5.21399 -0.738297 0
M  V30 1468 H 152.382 -3.77686 -0.127192 0
M  V30 1469 H 152.695 -7.71934 0.365676 0
M  V30 1470 H 151.04 -6.94254 0.32192 0
M  V30 1471 H 154.231 -4.68043 -0.0733204 0
M  V30 1472 H 154.404 -6.47824 0.151203 0
M  V30 1473 N 147.81 0.181792 -1.56548 0
M  V30 1474 C 149.035 0.920019 -1.85877 0
M  V30 1475 C 149.46 1.75494 -0.677021 0
M  V30 1476 O 148.818 1.77399 0.374056 0
M  V30 1477 C 148.866 1.78112 -3.13542 0
M  V30 1478 O 147.97 2.88152 -2.95029 0
M  V30 1479 H 147.311 0.258334 -0.611686 0
M  V30 1480 H 149.841 0.183092 -2.03779 0
M  V30 1481 H 149.851 2.18314 -3.44678 0
M  V30 1482 H 148.526 1.16777 -3.99169 0
M  V30 1483 H 147.103 2.51609 -2.75222 0
M  V30 1484 N 149.288 1.51039 0.449983 0
M  V30 1485 C 150.238 1.67824 1.54335 0
M  V30 1486 C 151.222 0.5324 1.51836 0
M  V30 1487 O 152.414 0.787762 1.58503 0
M  V30 1488 C 149.543 1.7951 2.92628 0
M  V30 1489 C 148.629 2.99838 2.9993 0
M  V30 1490 N 149.02 4.23207 2.77001 0
M  V30 1491 C 147.318 2.98832 3.31082 0
M  V30 1492 C 148.019 5.04361 2.89818 0
M  V30 1493 N 146.995 4.38746 3.2094 0
M  V30 1494 H 150.797 2.60884 1.35339 0
M  V30 1495 H 148.311 1.48513 0.657085 0
M  V30 1496 H 150.308 1.89642 3.7127 0
M  V30 1497 H 148.968 0.876227 3.12654 0
M  V30 1498 H 149.979 4.5236 2.52172 0
M  V30 1499 H 146.656 2.16527 3.56963 0
M  V30 1500 H 148.046 6.12528 2.76151 0
M  V30 1501 N 150.766 -0.704594 1.40972 0
M  V30 1502 C 152.006 -1.47691 1.41304 0
M  V30 1503 C 152.37 -1.91992 0.0178582 0
M  V30 1504 O 153.571 -2.68599 -0.103996 0
M  V30 1505 C 151.842 -2.66254 2.38419 0
M  V30 1506 S 153.401 -3.55516 2.57204 0
M  V30 1507 H 150.219 -0.504808 0.500689 0
M  V30 1508 H 152.821 -0.822962 1.77335 0
M  V30 1509 H 151.525 -2.31897 3.38603 0
M  V30 1510 H 151.056 -3.3655 2.03711 0
M  V30 1511 H 153.071 -4.61115 1.83268 0
M  V30 1512 N 152.244 -1.26651 -0.937939 0
M  V30 1513 C 153.472 -1.15173 -1.7188 0
M  V30 1514 C 153.887 0.292668 -1.86518 0
M  V30 1515 O 153.244 1.20014 -1.37488 0
M  V30 1516 C 153.295 -1.81925 -3.12387 0
M  V30 1517 O 153.016 -3.2072 -2.98446 0
M  V30 1518 C 154.517 -1.76442 -4.06673 0
M  V30 1519 H 151.737 -0.400911 -0.538063 0
M  V30 1520 H 154.281 -1.67332 -1.1756 0
M  V30 1521 H 152.436 -1.33696 -3.63599 0
M  V30 1522 H 152.85 -3.53802 -3.872 0
M  V30 1523 H 154.324 -2.27781 -5.02812 0
M  V30 1524 H 154.801 -0.731608 -4.33064 0
M  V30 1525 H 155.407 -2.24238 -3.61382 0
M  V30 1526 N 153.722 1.14298 -1.08507 0
M  V30 1527 C 154.652 2.21542 -0.737646 0
M  V30 1528 C 155.633 1.67773 0.280377 0
M  V30 1529 O 156.818 1.93616 0.150521 0
M  V30 1530 C 153.948 3.46988 -0.147259 0
M  V30 1531 C 152.902 4.13789 -1.09374 0
M  V30 1532 C 152.228 5.33449 -0.365524 0
M  V30 1533 C 153.528 4.62208 -2.4323 0
M  V30 1534 H 155.222 2.5086 -1.6343 0
M  V30 1535 H 152.768 1.20576 -0.787243 0
M  V30 1536 H 154.721 4.21262 0.107808 0
M  V30 1537 H 153.445 3.17037 0.784538 0
M  V30 1538 H 152.104 3.4147 -1.33393 0
M  V30 1539 H 151.752 4.99759 0.57011 0
M  V30 1540 H 151.452 5.79088 -0.996512 0
M  V30 1541 H 152.976 6.10485 -0.118534 0
M  V30 1542 H 154.39 5.27952 -2.23472 0
M  V30 1543 H 152.787 5.18553 -3.02031 0
M  V30 1544 H 153.857 3.77224 -3.04681 0
M  V30 1545 N 155.201 0.870884 1.31352 0
M  V30 1546 C 156.111 0.330783 2.32256 0
M  V30 1547 C 157.127 -0.559767 1.6475 0
M  V30 1548 O 158.303 -0.456263 1.96164 0
M  V30 1549 C 155.368 -0.458137 3.4366 0
M  V30 1550 C 154.429 0.460482 4.26823 0
M  V30 1551 C 153.662 -0.290881 5.32907 0
M  V30 1552 O 153.885 -1.51885 5.49806 0
M  V30 1553 O 152.819 0.351732 6.00871 0
M  V30 1554 H 156.645 1.16718 2.80376 0
M  V30 1555 H 154.23 0.634285 1.35267 0
M  V30 1556 H 156.112 -0.905343 4.1156 0
M  V30 1557 H 154.787 -1.27106 2.97701 0
M  V30 1558 H 153.694 0.956207 3.61673 0
M  V30 1559 H 155.027 1.23903 4.7635 0
M  V30 1560 N 156.679 -1.44442 0.630414 0
M  V30 1561 C 157.627 -2.32437 -0.0871428 0
M  V30 1562 C 158.621 -1.47304 -0.836525 0
M  V30 1563 O 159.827 -1.63653 -0.749506 0
M  V30 1564 H 156.202 -0.750533 -0.0469495 0
M  V30 1565 H 158.173 -2.90709 0.673096 0
M  V30 1566 C 156.922 -3.31288 -1.05563 0
M  V30 1567 H 156.245 -3.96805 -0.488426 0
M  V30 1568 H 157.685 -3.9554 -1.52721 0
M  V30 1569 C 156.144 -2.6016 -2.14052 0
M  V30 1570 O 156.674 -2.39997 -3.22124 0
M  V30 1571 N 154.88 -2.19911 -1.89967 0
M  V30 1572 H 154.427 -2.36509 -1.02085 0
M  V30 1573 H 154.385 -1.72646 -2.62756 0
M  V30 1574 N 158.157 -0.370918 -1.53173 0
M  V30 1575 C 159.067 0.480823 -2.2962 0
M  V30 1576 C 160.083 1.08789 -1.35798 0
M  V30 1577 O 161.259 1.09768 -1.68858 0
M  V30 1578 C 158.324 1.60227 -3.07454 0
M  V30 1579 C 157.385 1.0222 -4.16953 0
M  V30 1580 C 156.618 2.0902 -4.91066 0
M  V30 1581 O 156.841 3.30222 -4.65091 0
M  V30 1582 O 155.775 1.71778 -5.76867 0
M  V30 1583 H 159.601 -0.141421 -3.03371 0
M  V30 1584 H 157.186 -0.135146 -1.48787 0
M  V30 1585 H 159.068 2.25417 -3.56041 0
M  V30 1586 H 157.743 2.20982 -2.36535 0
M  V30 1587 H 156.65 0.334064 -3.72605 0
M  V30 1588 H 157.983 0.459131 -4.90054 0
M  V30 1589 N 159.635 1.57281 -0.100228 0
M  V30 1590 C 161.046 1.81725 0.428107 0
M  V30 1591 C 161.397 1.01619 1.67833 0
M  V30 1592 O 160.522 0.247098 2.14985 0
M  V30 1593 C 161.117 3.29617 0.78347 0
M  V30 1594 C 159.676 3.54808 1.25653 0
M  V30 1595 C 158.823 2.76118 0.255752 0
M  V30 1596 H 161.774 1.55324 -0.325608 0
M  V30 1597 H 161.795 3.4322 1.64256 0
M  V30 1598 H 161.307 3.87893 -0.12665 0
M  V30 1599 H 159.408 3.01868 2.18418 0
M  V30 1600 H 159.521 4.63443 1.21482 0
M  V30 1601 H 157.885 2.43745 0.738956 0
M  V30 1602 H 158.668 3.37145 -0.647136 0
M  V30 1603 N 161.113 -0.173488 1.56642 0
M  V30 1604 C 162.043 -1.2171 1.99271 0
M  V30 1605 C 163.024 -1.46289 0.867959 0
M  V30 1606 O 164.209 -1.5766 1.13388 0
M  V30 1607 C 161.339 -2.55651 2.35074 0
M  V30 1608 C 160.293 -2.45645 3.50489 0
M  V30 1609 C 159.619 -3.84056 3.72028 0
M  V30 1610 C 160.919 -1.96302 4.84007 0
M  V30 1611 H 162.613 -0.86275 2.867 0
M  V30 1612 H 160.159 -0.413571 1.37933 0
M  V30 1613 H 162.112 -3.2886 2.63494 0
M  V30 1614 H 160.836 -2.92869 1.44552 0
M  V30 1615 H 159.495 -1.7489 3.22194 0
M  V30 1616 H 159.143 -4.18664 2.788 0
M  V30 1617 H 158.843 -3.7823 4.49684 0
M  V30 1618 H 160.367 -4.58854 4.02846 0
M  V30 1619 H 161.781 -2.59284 5.11317 0
M  V30 1620 H 160.178 -2.01429 5.65284 0
M  V30 1621 H 161.248 -0.917226 4.76146 0
M  V30 1622 N 162.591 -1.51276 -0.441967 0
M  V30 1623 C 164.007 -1.39349 -0.778083 0
M  V30 1624 C 164.207 -0.472212 -1.95889 0
M  V30 1625 O 163.263 0.0743551 -2.5239 0
M  V30 1626 C 164.576 -2.81292 -1.0628 0
M  V30 1627 C 166.124 -2.9041 -1.16751 0
M  V30 1628 C 166.599 -4.33251 -1.48519 0
M  V30 1629 N 168.09 -4.36336 -1.55453 0
M  V30 1630 C 168.825 -5.43885 -1.81596 0
M  V30 1631 N 168.321 -6.61601 -2.05562 0
M  V30 1632 N 170.114 -5.3136 -1.8334 0
M  V30 1633 H 162.265 -2.09729 0.335774 0
M  V30 1634 H 164.528 -0.943925 0.0878028 0
M  V30 1635 H 164.234 -3.50678 -0.267905 0
M  V30 1636 H 164.108 -3.20334 -1.99163 0
M  V30 1637 H 166.495 -2.21225 -1.95304 0
M  V30 1638 H 166.576 -2.54871 -0.217801 0
M  V30 1639 H 166.22 -5.02984 -0.704958 0
M  V30 1640 H 166.15 -4.66299 -2.44689 0
M  V30 1641 H 168.641 -3.51466 -1.38853 0
M  V30 1642 H 168.954 -7.39361 -2.24867 0
M  V30 1643 H 167.299 -6.64725 -2.02894 0
M  V30 1644 H 170.49 -4.38382 -1.64132 0
M  V30 1645 H 170.663 -6.15258 -2.03377 0
M  V30 1646 N 164.069 0.697108 -1.41344 0
M  V30 1647 C 165.317 1.45426 -1.40341 0
M  V30 1648 C 165.638 1.94996 -0.0128787 0
M  V30 1649 O 164.908 1.71599 0.945027 0
M  V30 1650 H 163.488 0.539594 -0.516573 0
M  V30 1651 H 166.15 0.825201 -1.76569 0
M  V30 1652 H 165.246 2.31817 -2.08967 0
M  V30 1653 N 165.547 1.27147 0.931209 0
M  V30 1654 C 166.794 1.13278 1.67852 0
M  V30 1655 C 167.122 -0.32204 1.91815 0
M  V30 1656 O 166.377 -1.25224 1.50391 0
M  V30 1657 C 166.676 1.8579 3.05314 0
M  V30 1658 C 166.342 3.35657 3.01073 0
M  V30 1659 C 165.004 3.76536 2.99623 0
M  V30 1660 C 167.356 4.31299 2.92627 0
M  V30 1661 C 164.684 5.11426 2.87506 0
M  V30 1662 C 167.036 5.66242 2.82051 0
M  V30 1663 C 165.7 6.06418 2.7895 0
M  V30 1664 H 164.97 0.414515 0.614214 0
M  V30 1665 H 167.617 1.57712 1.08624 0
M  V30 1666 H 165.922 1.33854 3.68226 0
M  V30 1667 H 167.619 1.72491 3.62005 0
M  V30 1668 H 164.209 3.03146 3.02986 0
M  V30 1669 H 168.393 4.00692 2.92848 0
M  V30 1670 H 163.649 5.41705 2.83489 0
M  V30 1671 H 167.823 6.40026 2.74481 0
M  V30 1672 H 165.45 7.10895 2.69318 0
M  V30 1673 N 167.025 -1.13721 1.09112 0
M  V30 1674 C 168.25 -1.89314 0.847053 0
M  V30 1675 C 168.675 -1.78416 -0.595774 0
M  V30 1676 O 168.033 -1.12942 -1.41823 0
M  V30 1677 C 168.081 -3.3701 1.28284 0
M  V30 1678 O 167.185 -4.10054 0.439267 0
M  V30 1679 H 166.526 -0.588745 0.307044 0
M  V30 1680 H 169.056 -1.43902 1.45442 0
M  V30 1681 H 169.066 -3.87834 1.26683 0
M  V30 1682 H 167.741 -3.4426 2.33363 0
M  V30 1683 H 166.318 -3.69266 0.519312 0
M  V30 1684 N 168.503 -0.877838 -1.30888 0
M  V30 1685 C 169.749 -0.502773 -1.97088 0
M  V30 1686 C 170.104 0.936274 -1.68082 0
M  V30 1687 O 169.397 1.65162 -0.971196 0
M  V30 1688 C 169.591 -0.705748 -3.50363 0
M  V30 1689 C 169.42 -2.16297 -3.94266 0
M  V30 1690 C 168.19 -2.80614 -4.20219 0
M  V30 1691 C 170.388 -3.13606 -4.07622 0
M  V30 1692 N 168.37 -4.17007 -4.50532 0
M  V30 1693 C 169.741 -4.35051 -4.41736 0
M  V30 1694 C 171.796 -3.09491 -3.90026 0
M  V30 1695 C 170.499 -5.52911 -4.60089 0
M  V30 1696 C 172.525 -4.26616 -4.09576 0
M  V30 1697 C 171.887 -5.46825 -4.44029 0
M  V30 1698 H 167.986 -0.233168 -0.746429 0
M  V30 1699 H 170.57 -1.13408 -1.58261 0
M  V30 1700 H 168.741 -0.103976 -3.88261 0
M  V30 1701 H 170.473 -0.298291 -4.03599 0
M  V30 1702 H 167.228 -2.3152 -4.13153 0
M  V30 1703 H 167.652 -4.87426 -4.69834 0
M  V30 1704 H 172.294 -2.17657 -3.62471 0
M  V30 1705 H 170.012 -6.45255 -4.86489 0
M  V30 1706 H 173.598 -4.24894 -3.97438 0
M  V30 1707 H 172.478 -6.35947 -4.58848 0
M  V30 1708 N 169.982 1.44106 -0.638065 0
M  V30 1709 C 170.912 2.33448 0.0494287 0
M  V30 1710 C 171.893 1.48606 0.827672 0
M  V30 1711 O 173.078 1.77308 0.792173 0
M  V30 1712 C 170.208 3.31771 1.02691 0
M  V30 1713 C 169.162 4.26485 0.359823 0
M  V30 1714 C 168.488 5.14729 1.44769 0
M  V30 1715 C 169.788 5.17056 -0.738296 0
M  V30 1716 H 171.482 2.91183 -0.696636 0
M  V30 1717 H 169.028 1.40014 -0.336456 0
M  V30 1718 H 170.981 3.93161 1.51666 0
M  V30 1719 H 169.705 2.7226 1.80395 0
M  V30 1720 H 168.364 3.66437 -0.10934 0
M  V30 1721 H 168.012 4.51566 2.21578 0
M  V30 1722 H 167.712 5.78913 1.00668 0
M  V30 1723 H 169.236 5.78991 1.93911 0
M  V30 1724 H 170.65 5.72342 -0.331354 0
M  V30 1725 H 169.047 5.89879 -1.10286 0
M  V30 1726 H 170.117 4.57652 -1.60258 0
M  V30 1727 N 171.46 0.379036 1.52974 0
M  V30 1728 C 172.685 -0.209353 2.06341 0
M  V30 1729 C 173.11 -1.40583 1.24972 0
M  V30 1730 O 172.468 -1.79246 0.272155 0
M  V30 1731 C 172.516 -0.567786 3.56102 0
M  V30 1732 O 171.62 -1.66318 3.77375 0
M  V30 1733 H 170.961 -0.0272919 0.663439 0
M  V30 1734 H 173.491 0.543536 1.97248 0
M  V30 1735 H 173.501 -0.835003 3.99364 0
M  V30 1736 H 172.176 0.307013 4.14765 0
M  V30 1737 H 170.753 -1.39048 3.46006 0
M  V30 1738 N 172.938 -1.57226 0.108567 0
M  V30 1739 C 174.163 -1.99604 -0.563303 0
M  V30 1740 C 174.588 -0.987563 -1.6009 0
M  V30 1741 O 173.946 0.0421687 -1.81251 0
M  V30 1742 C 173.994 -3.40902 -1.17552 0
M  V30 1743 O 173.098 -3.42896 -2.2912 0
M  V30 1744 H 172.439 -0.648704 -0.1417 0
M  V30 1745 H 174.969 -2.03679 0.193961 0
M  V30 1746 H 174.979 -3.78886 -1.51357 0
M  V30 1747 H 173.654 -4.1382 -0.415445 0
M  V30 1748 H 172.231 -3.1672 -1.96832 0
M  V30 1749 N 174.416 0.165178 -1.56732 0
M  V30 1750 C 175.693 0.908443 -1.73224 0
M  V30 1751 C 176.073 2.0013 -0.67165 0
M  V30 1752 O 175.421 2.26353 0.31253 0
M  V30 1753 C 175.631 1.46756 -3.16644 0
M  V30 1754 C 176.979 1.93809 -3.77787 0
M  V30 1755 O 178.003 1.56537 -3.1996 0
M  V30 1756 O 176.862 2.62486 -4.79336 0
M  V30 1757 H 173.956 0.428025 -0.707618 0
M  V30 1758 H 176.502 0.152526 -1.69013 0
M  V30 1759 H 175.274 0.68129 -3.85323 0
M  V30 1760 H 174.897 2.28749 -3.25207 0
M  V30 1761 N 175.894 1.51508 0.433938 0
M  V30 1762 C 177.305 1.56784 1.01369 0
M  V30 1763 C 177.656 0.393349 1.92217 0
M  V30 1764 O 176.781 -0.489441 2.10792 0
M  V30 1765 C 177.376 2.84144 1.8452 0
M  V30 1766 C 175.935 2.9198 2.37539 0
M  V30 1767 C 175.082 2.51482 1.16843 0
M  V30 1768 H 178.033 1.57236 0.215081 0
M  V30 1769 H 178.054 2.68098 2.70007 0
M  V30 1770 H 177.566 3.69607 1.18373 0
M  V30 1771 H 175.667 2.10955 3.0713 0
M  V30 1772 H 175.78 3.95704 2.70103 0
M  V30 1773 H 174.144 2.04758 1.51481 0
M  V30 1774 H 174.927 3.39293 0.523015 0
M  V30 1775 N 177.372 -0.689602 1.41712 0
M  V30 1776 C 178.62 -1.4468 1.4111 0
M  V30 1777 C 178.941 -1.94986 0.0232196 0
M  V30 1778 O 178.211 -1.72097 -0.935913 0
M  V30 1779 H 176.791 -0.536847 0.519427 0
M  V30 1780 H 179.453 -0.815825 1.77004 0
M  V30 1781 H 178.549 -2.30706 2.10193 0
M  V30 1782 N 178.85 -1.27639 -0.924453 0
M  V30 1783 C 180.098 -1.13941 -1.66918 0
M  V30 1784 C 180.419 0.314589 -1.92446 0
M  V30 1785 O 179.689 1.21964 -1.53303 0
M  V30 1786 H 178.269 -0.418678 -0.618642 0
M  V30 1787 H 180.931 -1.60213 -1.10985 0
M  V30 1788 H 180.027 -1.67094 -2.63602 0
M  V30 1789 N 180.328 1.1314 -1.09713 0
M  V30 1790 C 181.258 2.20748 -0.761102 0
M  V30 1791 C 182.239 1.68061 0.262566 0
M  V30 1792 O 183.424 1.93765 0.129977 0
M  V30 1793 C 180.554 3.46812 -0.184054 0
M  V30 1794 C 179.508 4.12606 -1.13757 0
M  V30 1795 C 178.834 5.33031 -0.422083 0
M  V30 1796 C 180.134 4.59603 -2.48118 0
M  V30 1797 H 181.828 2.49113 -1.66082 0
M  V30 1798 H 179.374 1.19734 -0.799987 0
M  V30 1799 H 181.327 4.21353 0.0631215 0
M  V30 1800 H 180.051 3.17851 0.750868 0
M  V30 1801 H 178.71 3.40036 -1.37007 0
M  V30 1802 H 178.358 5.00335 0.517072 0
M  V30 1803 H 178.058 5.77999 -1.05788 0
M  V30 1804 H 179.582 6.10325 -0.183277 0
M  V30 1805 H 180.996 5.25552 -2.29059 0
M  V30 1806 H 179.393 5.15321 -3.07514 0
M  V30 1807 H 180.463 3.73971 -3.08665 0
M  V30 1808 N 181.806 0.884767 1.30421 0
M  V30 1809 C 182.716 0.355398 2.31892 0
M  V30 1810 C 183.732 -0.542261 1.65335 0
M  V30 1811 O 184.908 -0.435432 1.96637 0
M  V30 1812 C 181.973 -0.421661 3.44126 0
M  V30 1813 C 181.034 0.505727 4.26311 0
M  V30 1814 C 180.267 -0.234343 5.33185 0
M  V30 1815 O 180.49 -1.46045 5.51386 0
M  V30 1816 O 179.424 0.415443 6.00465 0
M  V30 1817 H 183.25 1.19685 2.79122 0
M  V30 1818 H 180.835 0.648596 1.34587 0
M  V30 1819 H 182.717 -0.861641 4.12497 0
M  V30 1820 H 181.392 -1.23942 2.99032 0
M  V30 1821 H 180.299 0.994513 3.60639 0
M  V30 1822 H 181.632 1.28948 4.75009 0
M  V30 1823 N 183.284 -1.43765 0.645699 0
M  V30 1824 C 184.509 -2.06767 0.161883 0
M  V30 1825 C 184.934 -1.48034 -1.16049 0
M  V30 1826 O 184.292 -0.587369 -1.71522 0
M  V30 1827 C 184.34 -3.60519 0.0762003 0
M  V30 1828 O 183.444 -4.00982 -0.963721 0
M  V30 1829 H 182.785 -0.657675 0.091429 0
M  V30 1830 H 185.315 -1.84397 0.886499 0
M  V30 1831 H 185.325 -4.07853 -0.109604 0
M  V30 1832 H 184 -4.02646 1.04157 0
M  V30 1833 H 182.577 -3.65253 -0.751312 0
M  V30 1834 N 184.763 -0.387143 -1.52771 0
M  V30 1835 C 186.04 0.253197 -1.93954 0
M  V30 1836 C 186.42 1.64545 -1.32243 0
M  V30 1837 O 185.768 2.23191 -0.489699 0
M  V30 1838 C 185.978 0.281722 -3.47861 0
M  V30 1839 C 187.326 0.511715 -4.21505 0
M  V30 1840 O 188.35 0.362023 -3.54356 0
M  V30 1841 O 187.209 0.804847 -5.40541 0
M  V30 1842 H 184.303 0.156845 -0.811991 0
M  V30 1843 H 186.849 -0.441494 -1.63856 0
M  V30 1844 H 185.621 -0.693571 -3.85104 0
M  V30 1845 H 185.244 1.02142 -3.84256 0
M  V30 1846 N 186.241 1.57166 -0.116904 0
M  V30 1847 C 187.469 1.99473 0.549383 0
M  V30 1848 C 187.884 0.996541 1.60357 0
M  V30 1849 O 187.241 -0.0108731 1.82497 0
M  V30 1850 C 187.292 3.41788 1.17741 0
M  V30 1851 O 187.013 4.37788 0.165362 0
M  V30 1852 C 188.514 3.99216 1.92722 0
M  V30 1853 H 185.734 0.655009 0.145616 0
M  V30 1854 H 188.278 2.03494 -0.202625 0
M  V30 1855 H 186.433 3.38713 1.88021 0
M  V30 1856 H 186.847 5.20806 0.621403 0
M  V30 1857 H 188.321 5.00882 2.31995 0
M  V30 1858 H 188.798 3.3824 2.80161 0
M  V30 1859 H 189.404 4.0583 1.27209 0
M  V30 1860 N 187.719 -0.156864 1.56817 0
M  V30 1861 C 188.649 -1.19589 2.00551 0
M  V30 1862 C 189.63 -1.4536 0.883426 0
M  V30 1863 O 190.815 -1.56449 1.15054 0
M  V30 1864 C 187.945 -2.53143 2.37773 0
M  V30 1865 C 186.899 -2.41913 3.53075 0
M  V30 1866 C 186.225 -3.80088 3.76081 0
M  V30 1867 C 187.525 -1.91157 4.86062 0
M  V30 1868 H 189.219 -0.832293 2.87599 0
M  V30 1869 H 186.765 -0.398918 1.38364 0
M  V30 1870 H 188.718 -3.26047 2.66967 0
M  V30 1871 H 187.442 -2.91319 1.4765 0
M  V30 1872 H 186.101 -1.71462 3.24031 0
M  V30 1873 H 185.749 -4.15683 2.83225 0
M  V30 1874 H 185.449 -3.73439 4.53671 0
M  V30 1875 H 186.973 -4.54556 4.0769 0
M  V30 1876 H 188.387 -2.53846 5.14038 0
M  V30 1877 H 186.784 -1.95422 5.67389 0
M  V30 1878 H 187.854 -0.866673 4.77092 0
M  V30 1879 N 189.197 -1.51736 -0.425897 0
M  V30 1880 C 190.129 -1.70083 -1.53638 0
M  V30 1881 C 191.142 -0.581349 -1.52066 0
M  V30 1882 O 192.331 -0.856017 -1.56635 0
M  V30 1883 C 189.431 -1.71078 -2.9255 0
M  V30 1884 C 188.604 -2.99795 -3.185 0
M  V30 1885 C 187.663 -2.92825 -4.37196 0
M  V30 1886 O 186.689 -3.66756 -4.35291 0
M  V30 1887 N 187.891 -2.0946 -5.41393 0
M  V30 1888 H 190.656 -2.65882 -1.383 0
M  V30 1889 H 188.217 -1.49765 -0.614988 0
M  V30 1890 H 190.209 -1.63969 -3.69995 0
M  V30 1891 H 188.779 -0.828242 -3.01428 0
M  V30 1892 H 187.999 -3.20684 -2.2925 0
M  V30 1893 H 189.287 -3.84977 -3.32671 0
M  V30 1894 H 188.685 -1.48792 -5.45781 0
M  V30 1895 H 187.242 -2.08221 -6.17647 0
M  V30 1896 N 190.675 0.682077 -1.42076 0
M  V30 1897 C 191.921 1.44283 -1.43366 0
M  V30 1898 C 192.276 1.92344 -0.0465775 0
M  V30 1899 O 191.569 1.67517 0.929973 0
M  V30 1900 C 191.763 2.66036 -2.38662 0
M  V30 1901 C 191.592 2.29889 -3.86499 0
M  V30 1902 C 190.362 2.19599 -4.55087 0
M  V30 1903 C 192.56 1.91999 -4.77117 0
M  V30 1904 N 190.542 1.76478 -5.87987 0
M  V30 1905 C 191.913 1.59741 -5.99068 0
M  V30 1906 C 193.968 1.78927 -4.64639 0
M  V30 1907 C 192.671 1.15723 -7.0993 0
M  V30 1908 C 194.697 1.36314 -5.75476 0
M  V30 1909 C 194.059 1.04975 -6.96534 0
M  V30 1910 H 190.158 0.524739 -0.579805 0
M  V30 1911 H 192.742 0.787834 -1.78048 0
M  V30 1912 H 190.913 3.29237 -2.06053 0
M  V30 1913 H 192.645 3.32588 -2.30581 0
M  V30 1914 H 189.4 2.38433 -4.09202 0
M  V30 1915 H 189.824 1.57362 -6.58458 0
M  V30 1916 H 194.466 2.01805 -3.7153 0
M  V30 1917 H 192.184 0.91591 -8.02893 0
M  V30 1918 H 195.77 1.26731 -5.6783 0
M  V30 1919 H 194.65 0.725017 -7.80841 0
M  V30 1920 N 192.153 1.28127 0.917671 0
M  V30 1921 C 193.399 1.15223 1.66888 0
M  V30 1922 C 193.732 -0.299293 1.9188 0
M  V30 1923 O 193.007 -1.21805 1.51637 0
M  V30 1924 C 193.29 1.94706 3.02922 0
M  V30 1925 C 193.143 3.47898 2.85109 0
M  V30 1926 C 194.462 1.75939 4.03402 0
M  V30 1927 H 191.581 0.419946 0.605652 0
M  V30 1928 H 194.223 1.57398 1.06423 0
M  V30 1929 H 192.373 1.58864 3.54534 0
M  V30 1930 H 194.045 3.93624 2.40537 0
M  V30 1931 H 192.288 3.7373 2.20246 0
M  V30 1932 H 192.959 3.98765 3.81694 0
M  V30 1933 H 195.435 2.07209 3.60837 0
M  V30 1934 H 194.311 2.33931 4.96556 0
M  V30 1935 H 194.572 0.709877 4.36364 0
M  V30 1936 N 193.631 -1.12557 1.10312 0
M  V30 1937 C 194.541 -2.21841 0.763142 0
M  V30 1938 C 195.557 -1.72354 -0.238801 0
M  V30 1939 O 196.733 -2.01249 -0.0778746 0
M  V30 1940 C 193.798 -3.46131 0.198632 0
M  V30 1941 C 192.859 -4.10464 1.25769 0
M  V30 1942 C 192.092 -5.28821 0.72002 0
M  V30 1943 O 192.315 -5.6859 -0.453993 0
M  V30 1944 O 191.249 -5.83437 1.47935 0
M  V30 1945 H 195.075 -2.53312 1.67532 0
M  V30 1946 H 192.66 -1.20867 0.878157 0
M  V30 1947 H 194.542 -4.2125 -0.112401 0
M  V30 1948 H 193.217 -3.16338 -0.686419 0
M  V30 1949 H 192.124 -3.3713 1.62156 0
M  V30 1950 H 193.457 -4.44408 2.11571 0
M  V30 1951 N 195.109 -0.891671 -1.2995 0
M  V30 1952 C 196.019 -0.367691 -2.31701 0
M  V30 1953 C 197.035 0.533486 -1.6562 0
M  V30 1954 O 198.211 0.424997 -1.96865 0
M  V30 1955 C 195.276 0.403406 -3.44345 0
M  V30 1956 C 194.337 -0.528328 -4.26037 0
M  V30 1957 C 193.57 0.206063 -5.33302 0
M  V30 1958 O 193.793 1.43119 -5.52153 0
M  V30 1959 O 192.727 -0.447281 -6.00236 0
M  V30 1960 H 196.553 -1.21163 -2.78484 0
M  V30 1961 H 194.138 -0.655725 -1.34241 0
M  V30 1962 H 196.02 0.839753 -4.12948 0
M  V30 1963 H 194.695 1.22354 -2.99685 0
M  V30 1964 H 193.602 -1.01362 -3.60106 0
M  V30 1965 H 194.935 -1.31465 -4.74318 0
M  V30 1966 N 196.587 1.43421 -0.653314 0
M  V30 1967 C 197.998 1.85065 -0.246537 0
M  V30 1968 C 198.349 1.54688 1.2069 0
M  V30 1969 O 197.474 0.995896 1.92122 0
M  V30 1970 C 198.069 3.35922 -0.440666 0
M  V30 1971 C 196.628 3.76297 -0.0882064 0
M  V30 1972 C 195.775 2.67147 -0.743484 0
M  V30 1973 H 198.726 1.33572 -0.856979 0
M  V30 1974 H 198.747 3.79204 0.313798 0
M  V30 1975 H 198.259 3.58 -1.49858 0
M  V30 1976 H 196.36 3.5983 0.96711 0
M  V30 1977 H 196.473 4.76338 -0.513738 0
M  V30 1978 H 194.837 2.54086 -0.176712 0
M  V30 1979 H 195.62 2.92053 -1.80443 0
M  V30 1980 N 198.065 0.39524 1.52563 0
M  V30 1981 C 198.997 -0.472201 2.24283 0
M  V30 1982 C 200.01 -1.02178 1.26742 0
M  V30 1983 O 201.199 -0.923097 1.52778 0
M  V30 1984 C 198.299 -1.66775 2.95024 0
M  V30 1985 C 197.472 -1.2445 4.19322 0
M  V30 1986 C 196.531 -2.30539 4.7301 0
M  V30 1987 O 195.557 -1.91702 5.35947 0
M  V30 1988 N 196.759 -3.6253 4.53379 0
M  V30 1989 H 199.524 0.142282 2.99362 0
M  V30 1990 H 197.085 0.2219 1.60372 0
M  V30 1991 H 199.077 -2.37283 3.27839 0
M  V30 1992 H 197.647 -2.18845 2.23217 0
M  V30 1993 H 196.867 -0.368069 3.92478 0
M  V30 1994 H 198.155 -0.938457 5.0007 0
M  V30 1995 H 197.553 -3.96841 4.03154 0
M  V30 1996 H 196.11 -4.29055 4.90668 0
M  V30 1997 N 199.544 -1.57102 0.125237 0
M  V30 1998 C 200.96 -1.57915 -0.231322 0
M  V30 1999 C 201.16 -1.13833 -1.66266 0
M  V30 2000 O 200.216 -0.828581 -2.38518 0
M  V30 2001 C 201.529 -3.00699 0.00766489 0
M  V30 2002 C 203.077 -3.12947 -0.0577483 0
M  V30 2003 C 203.552 -4.57742 0.153626 0
M  V30 2004 N 205.043 -4.63092 0.0998073 0
M  V30 2005 C 205.778 -5.72905 0.238174 0
M  V30 2006 N 205.274 -6.91445 0.433057 0
M  V30 2007 N 207.067 -5.6182 0.177308 0
M  V30 2008 H 199.218 -1.84055 1.06007 0
M  V30 2009 H 201.481 -0.850905 0.417929 0
M  V30 2010 H 201.187 -3.3726 0.997431 0
M  V30 2011 H 201.061 -3.70236 -0.721452 0
M  V30 2012 H 203.448 -2.7624 -1.03804 0
M  V30 2013 H 203.529 -2.4594 0.70335 0
M  V30 2014 H 203.173 -4.95149 1.13092 0
M  V30 2015 H 203.103 -5.22848 -0.627534 0
M  V30 2016 H 205.594 -3.77871 -0.047051 0
M  V30 2017 H 205.907 -7.70985 0.529332 0
M  V30 2018 H 204.252 -6.93415 0.469109 0
M  V30 2019 H 207.443 -4.68093 0.0259748 0
M  V30 2020 H 207.616 -6.47357 0.288582 0
M  V30 2021 N 201.022 0.148545 -1.56898 0
M  V30 2022 C 202.247 0.880385 -1.87787 0
M  V30 2023 C 202.672 1.74018 -0.714093 0
M  V30 2024 O 202.03 1.78153 0.336343 0
M  V30 2025 C 202.078 1.71422 -3.17249 0
M  V30 2026 O 201.182 2.8183 -3.01074 0
M  V30 2027 H 200.523 0.245301 -0.617028 0
M  V30 2028 H 203.053 0.139826 -2.04122 0
M  V30 2029 H 203.063 2.10954 -3.49231 0
M  V30 2030 H 201.738 1.08284 -4.01556 0
M  V30 2031 H 200.315 2.45715 -2.80497 0
M  V30 2032 N 202.5 1.5196 0.417844 0
M  V30 2033 C 203.74 1.67262 1.17486 0
M  V30 2034 C 204.104 0.38983 1.88001 0
M  V30 2035 O 205.305 0.418845 2.65517 0
M  V30 2036 C 203.576 2.85526 2.14965 0
M  V30 2037 S 205.135 3.21263 2.98891 0
M  V30 2038 H 201.953 0.589077 0.398132 0
M  V30 2039 H 204.555 1.89927 0.463452 0
M  V30 2040 H 203.259 3.77145 1.61833 0
M  V30 2041 H 202.79 2.65107 2.90657 0
M  V30 2042 H 204.805 2.69208 4.16823 0
M  V30 2043 N 203.978 -0.674533 1.42435 0
M  V30 2044 C 205.206 -1.46283 1.46317 0
M  V30 2045 C 205.621 -1.88653 0.0745836 0
M  V30 2046 O 204.978 -1.58151 -0.91074 0
M  V30 2047 C 205.029 -2.71178 2.3905 0
M  V30 2048 O 204.75 -2.30586 3.72507 0
M  V30 2049 C 206.251 -3.64738 2.51955 0
M  V30 2050 H 203.471 -0.450104 0.497642 0
M  V30 2051 H 206.015 -0.828792 1.86953 0
M  V30 2052 H 204.17 -3.3077 2.01667 0
M  V30 2053 H 204.584 -3.11241 4.22172 0
M  V30 2054 H 206.058 -4.49096 3.20962 0
M  V30 2055 H 206.535 -4.10656 1.55752 0
M  V30 2056 H 207.141 -3.11038 2.90061 0
M  V30 2057 N 205.456 -1.28612 -0.910864 0
M  V30 2058 C 206.419 -1.12803 -1.9952 0
M  V30 2059 C 207.419 -0.0668264 -1.60661 0
M  V30 2060 O 208.609 -0.312847 -1.71368 0
M  V30 2061 C 205.741 -0.72254 -3.33155 0
M  V30 2062 H 206.934 -2.09109 -2.14973 0
M  V30 2063 H 204.487 -1.11639 -1.09391 0
M  V30 2064 H 205.222 0.241152 -3.23402 0
M  V30 2065 H 205.007 -1.48916 -3.62721 0
M  V30 2066 H 206.497 -0.634666 -4.12749 0
M  V30 2067 N 206.934 1.1197 -1.10907 0
M  V30 2068 C 208.35 1.35591 -0.841852 0
M  V30 2069 C 208.55 1.94233 0.536246 0
M  V30 2070 O 207.606 2.1717 1.28816 0
M  V30 2071 C 208.919 2.29284 -1.94549 0
M  V30 2072 C 210.467 2.42862 -1.97451 0
M  V30 2073 C 210.942 3.39873 -3.07002 0
M  V30 2074 N 212.433 3.47433 -3.06341 0
M  V30 2075 C 213.168 4.22421 -3.87748 0
M  V30 2076 N 212.664 5.00432 -4.79103 0
M  V30 2077 N 214.457 4.17876 -3.75946 0
M  V30 2078 H 206.608 0.722664 -1.99728 0
M  V30 2079 H 208.871 0.380635 -0.868229 0
M  V30 2080 H 208.577 1.93378 -2.93765 0
M  V30 2081 H 208.451 3.29452 -1.83688 0
M  V30 2082 H 210.838 2.78046 -0.988645 0
M  V30 2083 H 210.919 1.42566 -2.12388 0
M  V30 2084 H 210.563 3.05417 -4.05811 0
M  V30 2085 H 210.493 4.40011 -2.89306 0
M  V30 2086 H 212.984 2.91784 -2.40147 0
M  V30 2087 H 213.297 5.55002 -5.37766 0
M  V30 2088 H 211.642 4.99612 -4.83128 0
M  V30 2089 H 214.833 3.56016 -3.03924 0
M  V30 2090 H 215.006 4.76061 -4.39624 0
M  V30 2091 N 208.412 0.89855 1.29475 0
M  V30 2092 C 209.828 0.594483 1.48115 0
M  V30 2093 C 210.028 -0.86431 1.82022 0
M  V30 2094 O 209.084 -1.64457 1.91599 0
M  V30 2095 C 210.397 1.51932 2.59494 0
M  V30 2096 C 211.945 1.5244 2.7337 0
M  V30 2097 C 212.42 2.43548 3.87877 0
M  V30 2098 N 213.911 2.41589 3.95208 0
M  V30 2099 C 214.646 3.08789 4.83153 0
M  V30 2100 N 214.142 3.85265 5.75798 0
M  V30 2101 N 215.935 2.97952 4.76635 0
M  V30 2102 H 208.086 1.84207 1.05742 0
M  V30 2103 H 210.349 0.789251 0.525154 0
M  V30 2104 H 210.055 2.55865 2.41301 0
M  V30 2105 H 209.929 1.23899 3.56271 0
M  V30 2106 H 212.316 0.492518 2.90961 0
M  V30 2107 H 212.397 1.8451 1.77172 0
M  V30 2108 H 212.041 3.46829 3.71041 0
M  V30 2109 H 211.971 2.08788 4.83441 0
M  V30 2110 H 214.462 1.86025 3.28943 0
M  V30 2111 H 214.775 4.33598 6.39697 0
M  V30 2112 H 213.12 3.89371 5.75687 0
M  V30 2113 H 216.311 2.37723 4.03244 0
M  V30 2114 H 216.484 3.50599 5.44962 0
M  V30 2115 N 209.89 -1.43072 0.660911 0
M  V30 2116 C 211.13 -2.03596 0.181146 0
M  V30 2117 C 211.494 -1.51057 -1.18515 0
M  V30 2118 O 212.695 -2.03275 -1.75877 0
M  V30 2119 C 210.966 -3.56845 0.19911 0
M  V30 2120 S 212.525 -4.38289 -0.211684 0
M  V30 2121 H 209.343 -0.706954 0.0757479 0
M  V30 2122 H 211.945 -1.75027 0.870965 0
M  V30 2123 H 210.649 -3.92583 1.1961 0
M  V30 2124 H 210.18 -3.90067 -0.510996 0
M  V30 2125 H 212.195 -4.74583 -1.44863 0
M  V30 2126 N 211.368 -0.403325 -1.52352 0
M  V30 2127 C 212.331 0.413051 -2.25447 0
M  V30 2128 C 213.331 0.978513 -1.276 0
M  V30 2129 O 214.521 0.858305 -1.51587 0
M  V30 2130 C 211.653 1.58087 -3.02029 0
M  V30 2131 H 212.846 -0.227094 -2.99039 0
M  V30 2132 H 210.399 -0.155722 -1.55522 0
M  V30 2133 H 211.134 2.25804 -2.32772 0
M  V30 2134 H 210.919 1.18195 -3.73861 0
M  V30 2135 H 212.409 2.1585 -3.57489 0
M  V30 2136 N 212.846 1.57033 -0.133567 0
M  V30 2137 C 214.092 1.95976 0.521649 0
M  V30 2138 C 214.425 1.01779 1.65393 0
M  V30 2139 O 213.7 0.0576581 1.94415 0
M  V30 2140 C 213.983 3.44738 1.04057 0
M  V30 2141 C 213.836 4.49711 -0.0892897 0
M  V30 2142 C 215.155 3.95682 1.92675 0
M  V30 2143 H 212.274 0.712579 0.188149 0
M  V30 2144 H 214.916 1.88813 -0.212076 0
M  V30 2145 H 213.066 3.50973 1.66583 0
M  V30 2146 H 214.738 4.55565 -0.725152 0
M  V30 2147 H 212.981 4.27261 -0.750378 0
M  V30 2148 H 213.652 5.51099 0.315284 0
M  V30 2149 H 216.128 3.91841 1.39998 0
M  V30 2150 H 215.004 5.00262 2.25897 0
M  V30 2151 H 215.265 3.37239 2.85872 0
M  V30 2152 N 214.325 -0.140222 1.56975 0
M  V30 2153 C 215.255 -1.17456 2.01808 0
M  V30 2154 C 216.236 -1.44415 0.898794 0
M  V30 2155 O 217.421 -1.5522 1.16707 0
M  V30 2156 C 214.551 -2.50607 2.40444 0
M  V30 2157 C 213.505 -2.38155 3.55621 0
M  V30 2158 C 212.831 -3.76078 3.80091 0
M  V30 2159 C 214.131 -1.85991 4.88062 0
M  V30 2160 H 215.825 -0.801743 2.88466 0
M  V30 2161 H 213.371 -0.38422 1.38779 0
M  V30 2162 H 215.324 -3.23197 2.7041 0
M  V30 2163 H 214.048 -2.89737 1.50732 0
M  V30 2164 H 212.707 -1.68016 3.25832 0
M  V30 2165 H 212.355 -4.12656 2.87618 0
M  V30 2166 H 212.055 -3.68606 4.57606 0
M  V30 2167 H 213.579 -4.50206 4.12488 0
M  V30 2168 H 214.993 -2.4838 5.16701 0
M  V30 2169 H 213.39 -1.89393 5.6943 0
M  V30 2170 H 214.46 -0.816023 4.77984 0
M  V30 2171 N 215.803 -1.52179 -0.40978 0
M  V30 2172 C 216.735 -1.71703 -1.51825 0
M  V30 2173 C 217.748 -0.597445 -1.51441 0
M  V30 2174 O 218.937 -0.872582 -1.55719 0
M  V30 2175 C 216.037 -1.74171 -2.90719 0
M  V30 2176 C 215.21 -3.03156 -3.15302 0
M  V30 2177 C 214.269 -2.97445 -4.34065 0
M  V30 2178 O 213.295 -3.71352 -4.31377 0
M  V30 2179 N 214.497 -2.15191 -5.39141 0
M  V30 2180 H 217.262 -2.67334 -1.35472 0
M  V30 2181 H 214.823 -1.50409 -0.599069 0
M  V30 2182 H 216.815 -1.67884 -3.68235 0
M  V30 2183 H 215.385 -0.860166 -3.00533 0
M  V30 2184 H 214.605 -3.23097 -2.25836 0
M  V30 2185 H 215.893 -3.88484 -3.28569 0
M  V30 2186 H 215.291 -1.54573 -5.44173 0
M  V30 2187 H 213.848 -2.1476 -6.15403 0
M  V30 2188 N 217.281 0.66697 -1.42791 0
M  V30 2189 C 218.244 1.76211 -1.46568 0
M  V30 2190 C 219.244 1.56896 -0.352196 0
M  V30 2191 O 220.434 1.63044 -0.613364 0
M  V30 2192 C 217.566 3.14935 -1.30494 0
M  V30 2193 H 218.759 1.74247 -2.44086 0
M  V30 2194 H 216.312 0.877342 -1.29354 0
M  V30 2195 H 217.047 3.2252 -0.339301 0
M  V30 2196 H 216.832 3.30359 -2.11199 0
M  V30 2197 H 218.322 3.94821 -1.36038 0
M  V30 2198 N 218.759 1.29093 0.90403 0
M  V30 2199 C 219.987 1.19689 1.68766 0
M  V30 2200 C 220.402 -0.243113 1.87228 0
M  V30 2201 O 219.759 -1.16326 1.40621 0
M  V30 2202 C 219.81 1.90144 3.07453 0
M  V30 2203 O 219.531 3.2852 2.89838 0
M  V30 2204 C 221.032 1.87162 4.01852 0
M  V30 2205 H 218.252 0.415035 0.527244 0
M  V30 2206 H 220.796 1.7039 1.13082 0
M  V30 2207 H 218.951 1.43289 3.59926 0
M  V30 2208 H 219.365 3.63944 3.77684 0
M  V30 2209 H 220.839 2.41032 4.96596 0
M  V30 2210 H 221.316 0.84617 4.30972 0
M  V30 2211 H 221.922 2.33741 3.5531 0
M  V30 2212 N 220.237 -1.11381 1.11499 0
M  V30 2213 C 221.485 -1.8277 0.862524 0
M  V30 2214 C 221.806 -1.85097 -0.613534 0
M  V30 2215 O 221.076 -1.32198 -1.4457 0
M  V30 2216 H 219.656 -0.676823 0.316101 0
M  V30 2217 H 222.318 -1.34816 1.4075 0
M  V30 2218 H 221.414 -2.86614 1.23527 0
M  V30 2219 N 221.715 -0.905404 -1.28997 0
M  V30 2220 C 222.963 -0.533192 -1.9494 0
M  V30 2221 C 223.284 0.924618 -1.71685 0
M  V30 2222 O 222.554 1.65268 -1.05183 0
M  V30 2223 H 221.134 -0.194194 -0.721317 0
M  V30 2224 H 223.796 -1.15294 -1.57141 0
M  V30 2225 H 222.892 -0.72059 -3.03667 0
M  V30 2226 N 223.193 1.4272 -0.668489 0
M  V30 2227 C 224.439 2.01923 -0.188419 0
M  V30 2228 C 224.772 1.52704 1.19979 0
M  V30 2229 O 224.047 0.726566 1.8042 0
M  V30 2230 C 224.33 3.59451 -0.216085 0
M  V30 2231 C 224.183 4.18864 -1.6393 0
M  V30 2232 C 225.502 4.37903 0.439179 0
M  V30 2233 H 222.621 0.733674 -0.0699412 0
M  V30 2234 H 225.263 1.69822 -0.852076 0
M  V30 2235 H 223.413 3.86929 0.349012 0
M  V30 2236 H 225.085 4.02362 -2.25616 0
M  V30 2237 H 223.328 3.74933 -2.18193 0
M  V30 2238 H 223.999 5.27987 -1.61039 0
M  V30 2239 H 226.475 4.16079 -0.0417878 0
M  V30 2240 H 225.351 5.47519 0.389157 0
M  V30 2241 H 225.612 4.15303 1.51577 0
M  V30 2242 N 224.671 0.411399 1.52136 0
M  V30 2243 C 225.581 -0.419774 2.30814 0
M  V30 2244 C 226.597 -1.0515 1.38634 0
M  V30 2245 O 227.773 -1.05252 1.71709 0
M  V30 2246 C 224.838 -1.52019 3.11594 0
M  V30 2247 C 223.899 -0.91129 4.19516 0
M  V30 2248 C 223.132 -1.95927 4.96436 0
M  V30 2249 O 223.355 -3.17775 4.73683 0
M  V30 2250 O 222.289 -1.56423 5.81219 0
M  V30 2251 H 226.115 0.221805 3.02889 0
M  V30 2252 H 223.7 0.174547 1.48377 0
M  V30 2253 H 225.582 -2.15898 3.61892 0
M  V30 2254 H 224.257 -2.14633 2.42311 0
M  V30 2255 H 223.164 -0.235157 3.7336 0
M  V30 2256 H 224.497 -0.32904 4.91099 0
M  V30 2257 N 226.149 -1.5696 0.141893 0
M  V30 2258 C 227.56 -1.82797 -0.379776 0
M  V30 2259 C 227.911 -1.06033 -1.6508 0
M  V30 2260 O 227.036 -0.304011 -2.14254 0
M  V30 2261 C 227.631 -3.31578 -0.695802 0
M  V30 2262 C 226.19 -3.58014 -1.16201 0
M  V30 2263 C 225.337 -2.76699 -0.182455 0
M  V30 2264 H 228.288 -1.54406 0.366675 0
M  V30 2265 H 228.309 -3.47454 -1.55099 0
M  V30 2266 H 227.821 -3.87421 0.229449 0
M  V30 2267 H 225.922 -3.07553 -2.10338 0
M  V30 2268 H 226.035 -4.66501 -1.09151 0
M  V30 2269 H 224.399 -2.45618 -0.674072 0
M  V30 2270 H 225.182 -3.35311 0.736297 0
M  V30 2271 N 227.627 0.131896 -1.57047 0
M  V30 2272 C 228.59 1.14638 -1.98471 0
M  V30 2273 C 229.59 1.35029 -0.873148 0
M  V30 2274 O 230.78 1.31764 -1.13946 0
M  V30 2275 C 227.912 2.50358 -2.31373 0
M  V30 2276 H 229.105 0.79064 -2.8929 0
M  V30 2277 H 226.658 0.375761 -1.51716 0
M  V30 2278 H 227.393 2.90876 -1.43393 0
M  V30 2279 H 227.178 2.36915 -3.12432 0
M  V30 2280 H 228.668 3.23395 -2.64207 0
M  V30 2281 N 229.106 1.52395 0.401703 0
M  V30 2282 C 230.354 1.66488 1.14569 0
M  V30 2283 C 230.675 0.400897 1.90835 0
M  V30 2284 O 229.945 -0.584415 1.8698 0
M  V30 2285 H 228.525 0.613672 0.425929 0
M  V30 2286 H 231.187 1.89464 0.457093 0
M  V30 2287 H 230.283 2.50942 1.85566 0
M  V30 2288 N 230.584 -0.659388 1.43143 0
M  V30 2289 C 231.83 -1.41984 1.45644 0
M  V30 2290 C 232.185 -1.92245 0.0771718 0
M  V30 2291 O 231.478 -1.68976 -0.903205 0
M  V30 2292 C 231.672 -2.62206 2.42864 0
M  V30 2293 C 231.501 -2.23711 3.90107 0
M  V30 2294 C 230.271 -2.12332 4.58523 0
M  V30 2295 C 232.469 -1.84384 4.80112 0
M  V30 2296 N 230.451 -1.67102 5.9072 0
M  V30 2297 C 231.822 -1.5019 6.01534 0
M  V30 2298 C 233.877 -1.71512 4.67427 0
M  V30 2299 C 232.58 -1.04414 7.11681 0
M  V30 2300 C 234.606 -1.27142 5.77572 0
M  V30 2301 C 233.968 -0.938808 6.98116 0
M  V30 2302 H 230.067 -0.515448 0.588079 0
M  V30 2303 H 232.651 -0.759409 1.79279 0
M  V30 2304 H 230.822 -3.25917 2.11265 0
M  V30 2305 H 232.554 -3.28877 2.35843 0
M  V30 2306 H 229.309 -2.31893 4.12944 0
M  V30 2307 H 229.733 -1.46866 6.60878 0
M  V30 2308 H 234.375 -1.95868 3.74694 0
M  V30 2309 H 232.093 -0.788061 8.04248 0
M  V30 2310 H 235.679 -1.17681 5.69774 0
M  V30 2311 H 234.559 -0.6007 7.81896 0
M  V30 2312 N 232.062 -1.29571 -0.897171 0
M  V30 2313 C 233.009 -1.14916 -2.00158 0
M  V30 2314 C 233.979 -0.0418149 -1.66047 0
M  V30 2315 O 235.164 -0.209793 -1.89643 0
M  V30 2316 C 232.304 -0.834307 -3.34863 0
M  V30 2317 C 231.417 -2.02234 -3.8174 0
M  V30 2318 C 230.552 -1.64664 -5.05034 0
M  V30 2319 C 229.591 -2.80033 -5.44286 0
M  V30 2320 N 228.728 -2.42843 -6.58765 0
M  V30 2321 H 233.568 -2.09403 -2.12025 0
M  V30 2322 H 231.105 -1.042 -1.0383 0
M  V30 2323 H 233.063 -0.632436 -4.12379 0
M  V30 2324 H 231.693 0.0736656 -3.22716 0
M  V30 2325 H 230.745 -2.33583 -3.00238 0
M  V30 2326 H 232.057 -2.88673 -4.06779 0
M  V30 2327 H 231.211 -1.4078 -5.9014 0
M  V30 2328 H 229.95 -0.753766 -4.8184 0
M  V30 2329 H 228.955 -3.04596 -4.57713 0
M  V30 2330 H 230.18 -3.69989 -5.6946 0
M  V30 2331 H 228.126 -1.56046 -6.3717 0
M  V30 2332 H 228.043 -3.22815 -6.83613 0
M  V30 2333 H 229.311 -2.22285 -7.47134 0
M  V30 2334 N 233.54 1.10788 -1.12088 0
M  V30 2335 C 234.45 2.20599 -0.798338 0
M  V30 2336 C 235.466 1.72712 0.21135 0
M  V30 2337 O 236.642 2.01348 0.0458477 0
M  V30 2338 C 233.707 3.45771 -0.253674 0
M  V30 2339 C 232.768 4.08411 -1.32283 0
M  V30 2340 C 232.001 5.27608 -0.80406 0
M  V30 2341 O 232.224 5.69241 0.363478 0
M  V30 2342 O 231.158 5.8101 -1.57198 0
M  V30 2343 H 234.984 2.50614 -1.7154 0
M  V30 2344 H 232.569 1.19454 -0.897275 0
M  V30 2345 H 234.451 4.21376 0.0453691 0
M  V30 2346 H 233.126 3.1739 0.636005 0
M  V30 2347 H 232.033 3.34507 -1.67499 0
M  V30 2348 H 233.366 4.40986 -2.18614 0
M  V30 2349 N 235.018 0.912232 1.28515 0
M  V30 2350 C 235.951 0.343928 2.25593 0
M  V30 2351 C 236.929 -0.550994 1.5298 0
M  V30 2352 O 238.113 -0.494991 1.81885 0
M  V30 2353 C 235.24 -0.508525 3.34861 0
M  V30 2354 C 234.286 0.320808 4.25292 0
M  V30 2355 S 235.119 1.72658 5.06902 0
M  V30 2356 C 236.275 0.881394 6.19663 0
M  V30 2357 H 236.508 1.16674 2.73449 0
M  V30 2358 H 234.041 0.713384 1.36931 0
M  V30 2359 H 235.999 -0.994539 3.9827 0
M  V30 2360 H 234.66 -1.30571 2.85675 0
M  V30 2361 H 233.853 -0.330941 5.02912 0
M  V30 2362 H 233.455 0.74042 3.66598 0
M  V30 2363 H 235.747 0.110359 6.7741 0
M  V30 2364 H 236.69 1.63009 6.89082 0
M  V30 2365 H 237.098 0.430239 5.62858 0
M  V30 2366 N 236.496 -1.42363 0.676048 0
M  V30 2367 C 237.912 -1.55811 0.345718 0
M  V30 2368 C 238.112 -1.65544 -1.14879 0
M  V30 2369 O 237.168 -1.62306 -1.93424 0
M  V30 2370 C 238.481 -2.80746 1.07713 0
M  V30 2371 C 240.029 -2.9452 1.05958 0
M  V30 2372 C 240.504 -4.22318 1.77233 0
M  V30 2373 N 241.995 -4.29233 1.74108 0
M  V30 2374 C 242.73 -5.26935 2.26113 0
M  V30 2375 N 242.226 -6.30783 2.86505 0
M  V30 2376 N 244.019 -5.18741 2.1648 0
M  V30 2377 H 236.17 -1.34289 1.6456 0
M  V30 2378 H 238.433 -0.646506 0.69335 0
M  V30 2379 H 238.139 -2.79696 2.13221 0
M  V30 2380 H 238.013 -3.71676 0.64316 0
M  V30 2381 H 240.4 -2.95097 0.0128255 0
M  V30 2382 H 240.481 -2.04817 1.53244 0
M  V30 2383 H 240.125 -4.22502 2.81877 0
M  V30 2384 H 240.055 -5.10958 1.27396 0
M  V30 2385 H 242.546 -3.54814 1.30059 0
M  V30 2386 H 242.859 -7.01691 3.23805 0
M  V30 2387 H 241.204 -6.31341 2.90575 0
M  V30 2388 H 244.395 -4.36533 1.68987 0
M  V30 2389 H 244.568 -5.94721 2.57316 0
M  V30 2390 N 237.974 -0.419461 -1.51915 0
M  V30 2391 C 239.214 0.152336 -2.03832 0
M  V30 2392 C 239.578 1.41501 -1.29775 0
M  V30 2393 O 240.779 2.06591 -1.7197 0
M  V30 2394 C 239.05 0.383812 -3.55333 0
M  V30 2395 S 240.609 0.921577 -4.29013 0
M  V30 2396 H 237.427 0.0402193 -0.709862 0
M  V30 2397 H 240.029 -0.574758 -1.8686 0
M  V30 2398 H 238.733 -0.541794 -4.06808 0
M  V30 2399 H 238.264 1.13849 -3.76566 0
M  V30 2400 H 240.279 2.20108 -4.4471 0
M  V30 2401 N 239.452 1.56882 -0.150215 0
M  V30 2402 C 240.402 2.13501 0.800071 0
M  V30 2403 C 241.386 1.06368 1.20726 0
M  V30 2404 O 242.578 1.32538 1.17314 0
M  V30 2405 C 239.707 2.76271 2.03787 0
M  V30 2406 C 238.793 3.90533 1.65364 0
M  V30 2407 N 239.184 4.96259 0.977794 0
M  V30 2408 C 237.482 4.013 1.94613 0
M  V30 2409 C 238.183 5.76286 0.791794 0
M  V30 2410 N 237.159 5.27163 1.32666 0
M  V30 2411 H 240.961 2.92615 0.274517 0
M  V30 2412 H 238.475 1.62319 0.0512144 0
M  V30 2413 H 240.472 3.15197 2.72867 0
M  V30 2414 H 239.132 1.98631 2.56857 0
M  V30 2415 H 240.143 5.13953 0.638193 0
M  V30 2416 H 236.82 3.3474 2.4951 0
M  V30 2417 H 238.21 6.71401 0.258894 0
M  V30 2418 N 240.93 -0.123565 1.57115 0
M  V30 2419 C 241.86 -1.15309 2.03042 0
M  V30 2420 C 242.841 -1.43454 0.914061 0
M  V30 2421 O 244.026 -1.53973 1.18347 0
M  V30 2422 C 241.156 -2.48043 2.43089 0
M  V30 2423 C 240.11 -2.3437 3.58127 0
M  V30 2424 C 239.436 -3.72026 3.84059 0
M  V30 2425 C 240.736 -1.80804 4.90007 0
M  V30 2426 H 242.43 -0.771102 2.893 0
M  V30 2427 H 239.976 -0.369479 1.39179 0
M  V30 2428 H 241.929 -3.20311 2.73823 0
M  V30 2429 H 240.653 -2.88122 1.53796 0
M  V30 2430 H 239.312 -1.64551 3.27595 0
M  V30 2431 H 238.96 -4.09582 2.91979 0
M  V30 2432 H 238.66 -3.63732 4.6149 0
M  V30 2433 H 240.184 -4.45806 4.1724 0
M  V30 2434 H 241.598 -2.42886 5.19307 0
M  V30 2435 H 239.995 -1.83343 5.71407 0
M  V30 2436 H 241.065 -0.76528 4.78823 0
M  V30 2437 N 242.408 -1.52605 -0.393616 0
M  V30 2438 C 243.824 -1.41753 -0.733357 0
M  V30 2439 C 244.024 -0.534293 -1.94287 0
M  V30 2440 O 243.08 -0.0059787 -2.52499 0
M  V30 2441 C 244.393 -2.84531 -0.972772 0
M  V30 2442 C 245.941 -2.93978 -1.07453 0
M  V30 2443 C 246.416 -4.37756 -1.3466 0
M  V30 2444 N 247.907 -4.4106 -1.41492 0
M  V30 2445 C 248.642 -5.49387 -1.642 0
M  V30 2446 N 248.138 -6.67806 -1.8441 0
M  V30 2447 N 249.931 -5.36923 -1.66342 0
M  V30 2448 H 242.082 -2.08555 0.402328 0
M  V30 2449 H 244.345 -0.940654 0.117789 0
M  V30 2450 H 244.051 -3.51353 -0.156204 0
M  V30 2451 H 243.925 -3.26508 -1.88871 0
M  V30 2452 H 246.312 -2.27326 -1.88167 0
M  V30 2453 H 246.393 -2.55435 -0.136605 0
M  V30 2454 H 246.037 -5.04972 -0.544581 0
M  V30 2455 H 245.967 -4.73848 -2.2973 0
M  V30 2456 H 248.458 -3.55705 -1.27601 0
M  V30 2457 H 248.771 -7.46141 -2.01231 0
M  V30 2458 H 247.116 -6.70843 -1.81644 0
M  V30 2459 H 250.307 -4.43381 -1.50102 0
M  V30 2460 H 250.48 -6.21416 -1.837 0
M  V30 2461 N 243.887 0.651787 -1.4349 0
M  V30 2462 C 244.85 1.74647 -1.48429 0
M  V30 2463 C 245.85 1.56513 -0.368817 0
M  V30 2464 O 247.04 1.62385 -0.630623 0
M  V30 2465 C 244.172 3.13533 -1.33827 0
M  V30 2466 H 245.365 1.71649 -2.4592 0
M  V30 2467 H 242.918 0.863573 -1.30277 0
M  V30 2468 H 243.653 3.22142 -0.37349 0
M  V30 2469 H 243.438 3.28101 -2.14691 0
M  V30 2470 H 244.928 3.93356 -1.40218 0
M  V30 2471 N 245.365 1.30045 0.890287 0
M  V30 2472 C 246.313 1.15873 2.01683 0
M  V30 2473 C 247.307 0.0719403 1.69247 0
M  V30 2474 O 248.513 0.232414 1.78493 0
M  V30 2475 H 244.888 0.358203 0.661207 0
M  V30 2476 H 246.859 2.11229 2.10772 0
M  V30 2477 C 245.608 0.861842 3.36849 0
M  V30 2478 H 244.931 1.69016 3.62317 0
M  V30 2479 H 246.371 0.802762 4.16331 0
M  V30 2480 C 244.83 -0.435132 3.34078 0
M  V30 2481 O 245.36 -1.4583 3.74295 0
M  V30 2482 N 243.566 -0.444377 2.87182 0
M  V30 2483 H 243.113 0.388723 2.5465 0
M  V30 2484 H 243.071 -1.31213 2.85711 0
M  V30 2485 N 246.843 -1.10192 1.12674 0
M  V30 2486 C 248.091 -1.81845 0.881861 0
M  V30 2487 C 248.412 -1.85737 -0.593867 0
M  V30 2488 O 247.682 -1.33724 -1.4316 0
M  V30 2489 H 246.262 -0.673432 0.323261 0
M  V30 2490 H 248.924 -1.33316 1.42172 0
M  V30 2491 H 248.02 -2.85288 1.2656 0
M  V30 2492 N 248.321 -0.919034 -1.28029 0
M  V30 2493 C 249.551 -0.570143 -1.98577 0
M  V30 2494 C 249.959 0.854172 -1.68821 0
M  V30 2495 O 249.302 1.57807 -0.940351 0
M  V30 2496 C 249.364 -0.705734 -3.52505 0
M  V30 2497 C 249.028 -2.10057 -4.05863 0
M  V30 2498 C 250.025 -3.07385 -4.19298 0
M  V30 2499 C 247.71 -2.41517 -4.40426 0
M  V30 2500 C 249.704 -4.34287 -4.66555 0
M  V30 2501 C 247.391 -3.68657 -4.87376 0
M  V30 2502 C 248.389 -4.64856 -5.00398 0
M  V30 2503 O 248.077 -5.89735 -5.46322 0
M  V30 2504 H 247.809 -0.215592 -0.6407 0
M  V30 2505 H 250.363 -1.23583 -1.64062 0
M  V30 2506 H 248.593 0.0170414 -3.86696 0
M  V30 2507 H 250.282 -0.363172 -4.04272 0
M  V30 2508 H 251.048 -2.84398 -3.92865 0
M  V30 2509 H 246.927 -1.67389 -4.29537 0
M  V30 2510 H 250.471 -5.09377 -4.76635 0
M  V30 2511 H 246.368 -3.91466 -5.13249 0
M  V30 2512 H 247.136 -5.92599 -5.64596 0
M  V30 2513 N 249.799 1.42003 -0.683588 0
M  V30 2514 C 250.729 2.33487 -0.024866 0
M  V30 2515 C 251.71 1.51163 0.779975 0
M  V30 2516 O 252.895 1.79739 0.735362 0
M  V30 2517 C 250.025 3.3487 0.920836 0
M  V30 2518 C 248.979 4.27414 0.223958 0
M  V30 2519 C 248.305 5.19074 1.2832 0
M  V30 2520 C 249.605 5.14445 -0.90242 0
M  V30 2521 H 251.299 2.88819 -0.788921 0
M  V30 2522 H 248.845 1.38873 -0.38083 0
M  V30 2523 H 250.798 3.97787 1.39081 0
M  V30 2524 H 249.522 2.77861 1.71642 0
M  V30 2525 H 248.181 3.65904 -0.225864 0
M  V30 2526 H 247.829 4.58387 2.071 0
M  V30 2527 H 247.529 5.81822 0.821995 0
M  V30 2528 H 249.053 5.84867 1.75392 0
M  V30 2529 H 250.467 5.70998 -0.513272 0
M  V30 2530 H 248.864 5.86072 -1.28997 0
M  V30 2531 H 249.934 4.52322 -1.74737 0
M  V30 2532 N 251.277 0.427512 1.51691 0
M  V30 2533 C 252.517 -0.141524 2.03909 0
M  V30 2534 C 252.881 -1.40811 1.30523 0
M  V30 2535 O 254.082 -2.05676 1.73063 0
M  V30 2536 C 252.353 -0.364962 3.55532 0
M  V30 2537 S 253.912 -0.898812 4.29496 0
M  V30 2538 H 250.73 -0.0364542 0.710065 0
M  V30 2539 H 253.332 0.584659 1.86553 0
M  V30 2540 H 252.036 0.56336 4.06515 0
M  V30 2541 H 251.567 -1.1185 3.77164 0
M  V30 2542 H 253.582 -2.17747 4.45871 0
M  V30 2543 N 252.755 -1.56801 0.158532 0
M  V30 2544 C 253.702 -2.17337 -0.776729 0
M  V30 2545 C 254.672 -1.1096 -1.23601 0
M  V30 2546 O 255.857 -1.39054 -1.30647 0
M  V30 2547 C 252.997 -2.80822 -2.00582 0
M  V30 2548 C 252.11 -4.01624 -1.59129 0
M  V30 2549 C 251.245 -4.53072 -2.77306 0
M  V30 2550 C 250.284 -5.66314 -2.32282 0
M  V30 2551 N 249.421 -6.12329 -3.43508 0
M  V30 2552 H 254.261 -2.96918 -0.253701 0
M  V30 2553 H 251.798 -1.46661 -0.113504 0
M  V30 2554 H 253.756 -3.15779 -2.72652 0
M  V30 2555 H 252.386 -2.03866 -2.50277 0
M  V30 2556 H 251.438 -3.72571 -0.767806 0
M  V30 2557 H 252.75 -4.83633 -1.2207 0
M  V30 2558 H 251.904 -4.90145 -3.57551 0
M  V30 2559 H 250.643 -3.70095 -3.17617 0
M  V30 2560 H 249.648 -5.28806 -1.5048 0
M  V30 2561 H 250.873 -6.51085 -1.93043 0
M  V30 2562 H 248.819 -5.32284 -3.83418 0
M  V30 2563 H 248.736 -6.89293 -3.105 0
M  V30 2564 H 250.004 -6.5405 -4.24075 0
M  V30 2565 N 254.233 0.115231 -1.57178 0
M  V30 2566 C 255.463 0.835224 -1.88964 0
M  V30 2567 C 255.871 1.73774 -0.74829 0
M  V30 2568 O 255.214 1.81401 0.289739 0
M  V30 2569 C 255.276 1.7178 -3.15804 0
M  V30 2570 C 254.94 0.989198 -4.46166 0
M  V30 2571 C 255.937 0.328263 -5.18863 0
M  V30 2572 C 253.622 0.969256 -4.9286 0
M  V30 2573 C 255.616 -0.342873 -6.36477 0
M  V30 2574 C 253.303 0.294324 -6.10391 0
M  V30 2575 C 254.301 -0.360582 -6.82048 0
M  V30 2576 O 253.989 -1.02474 -7.97342 0
M  V30 2577 H 253.721 0.245197 -0.629964 0
M  V30 2578 H 256.275 0.10303 -2.05141 0
M  V30 2579 H 254.505 2.49173 -2.95719 0
M  V30 2580 H 256.194 2.31255 -3.33581 0
M  V30 2581 H 256.96 0.335263 -4.8384 0
M  V30 2582 H 252.839 1.46844 -4.36987 0
M  V30 2583 H 256.383 -0.854629 -6.92345 0
M  V30 2584 H 252.28 0.285099 -6.4487 0
M  V30 2585 H 253.048 -0.929594 -8.13204 0
M  V30 2586 N 255.711 1.52812 0.385517 0
M  V30 2587 C 256.643 1.74096 1.49074 0
M  V30 2588 C 257.656 0.621462 1.50472 0
M  V30 2589 O 258.845 0.897245 1.54311 0
M  V30 2590 C 255.945 1.78774 2.87911 0
M  V30 2591 C 255.118 3.08134 3.10439 0
M  V30 2592 C 254.177 3.04313 4.29278 0
M  V30 2593 O 253.203 3.78168 4.25415 0
M  V30 2594 N 254.405 2.23741 5.35649 0
M  V30 2595 H 257.17 2.69455 1.31202 0
M  V30 2596 H 254.731 1.51343 0.575065 0
M  V30 2597 H 256.723 1.73721 3.65518 0
M  V30 2598 H 255.293 0.907869 2.99126 0
M  V30 2599 H 254.513 3.26649 2.20667 0
M  V30 2600 H 255.801 3.93662 3.22347 0
M  V30 2601 H 255.199 1.63211 5.41645 0
M  V30 2602 H 253.756 2.24524 6.11909 0
M  V30 2603 N 257.189 -0.644168 1.43834 0
M  V30 2604 C 258.436 -1.40395 1.4593 0
M  V30 2605 C 258.764 -1.94305 0.0869658 0
M  V30 2606 O 258.019 -1.73288 -0.909378 0
M  V30 2607 C 258.318 -2.59615 2.45631 0
M  V30 2608 C 257.984 -2.2407 3.91284 0
M  V30 2609 C 256.646 -2.14089 4.30952 0
M  V30 2610 C 258.998 -1.95775 4.83034 0
M  V30 2611 C 256.326 -1.73981 5.6031 0
M  V30 2612 C 258.678 -1.57163 6.12766 0
M  V30 2613 C 257.342 -1.45713 6.51402 0
M  V30 2614 H 256.612 -0.513741 0.533995 0
M  V30 2615 H 259.259 -0.731724 1.76969 0
M  V30 2616 H 257.564 -3.32011 2.08028 0
M  V30 2617 H 259.261 -3.17834 2.44504 0
M  V30 2618 H 255.851 -2.32753 3.59895 0
M  V30 2619 H 260.035 -2.02403 4.53152 0
M  V30 2620 H 255.291 -1.63709 5.89075 0
M  V30 2621 H 259.465 -1.34303 6.83327 0
M  V30 2622 H 257.092 -1.14406 7.51542 0
M  V30 2623 N 258.668 -1.30515 -0.883378 0
M  V30 2624 C 259.578 -1.18959 -2.02203 0
M  V30 2625 C 260.594 -0.109172 -1.73657 0
M  V30 2626 O 261.77 -0.324413 -1.9877 0
M  V30 2627 C 258.835 -0.883871 -3.35244 0
M  V30 2628 C 257.896 -2.04982 -3.77201 0
M  V30 2629 C 257.129 -1.75859 -5.03894 0
M  V30 2630 O 257.352 -0.687276 -5.66244 0
M  V30 2631 O 256.286 -2.61146 -5.42297 0
M  V30 2632 H 260.112 -2.14616 -2.1488 0
M  V30 2633 H 257.697 -1.10124 -1.0096 0
M  V30 2634 H 259.579 -0.728644 -4.15053 0
M  V30 2635 H 258.254 0.0427798 -3.23672 0
M  V30 2636 H 257.161 -2.26038 -2.9809 0
M  V30 2637 H 258.494 -2.95825 -3.93381 0
M  V30 2638 N 260.146 1.09593 -1.13257 0
M  V30 2639 C 261.392 1.82003 -0.89458 0
M  V30 2640 C 261.725 1.85402 0.577906 0
M  V30 2641 O 261 1.32099 1.42759 0
M  V30 2642 C 261.283 3.28237 -1.48096 0
M  V30 2643 C 261.136 3.3312 -3.02244 0
M  V30 2644 C 262.455 4.24871 -1.14774 0
M  V30 2645 H 259.574 0.66077 -0.326424 0
M  V30 2646 H 262.216 1.28389 -1.40058 0
M  V30 2647 H 260.366 3.74024 -1.05062 0
M  V30 2648 H 262.038 2.95748 -3.54021 0
M  V30 2649 H 260.281 2.72756 -3.37323 0
M  V30 2650 H 260.952 4.3613 -3.38371 0
M  V30 2651 H 263.428 3.87361 -1.51957 0
M  V30 2652 H 262.304 5.25532 -1.58452 0
M  V30 2653 H 262.565 4.42058 -0.0611849 0
M  V30 2654 N 261.624 0.925811 1.2754 0
M  V30 2655 C 262.554 0.440748 2.29303 0
M  V30 2656 C 263.535 -0.497971 1.62648 0
M  V30 2657 O 264.72 -0.403126 1.8997 0
M  V30 2658 C 261.85 -0.309048 3.45922 0
M  V30 2659 C 260.804 0.54166 4.24559 0
M  V30 2660 C 260.13 -0.337191 5.33636 0
M  V30 2661 C 261.43 1.80516 4.90114 0
M  V30 2662 H 263.124 1.29121 2.70126 0
M  V30 2663 H 260.67 0.622323 1.29858 0
M  V30 2664 H 262.623 -0.659315 4.1621 0
M  V30 2665 H 261.347 -1.19352 3.04011 0
M  V30 2666 H 260.006 0.874609 3.56014 0
M  V30 2667 H 259.654 -1.22056 4.87966 0
M  V30 2668 H 259.354 0.228497 5.87156 0
M  V30 2669 H 260.878 -0.683072 6.06767 0
M  V30 2670 H 262.292 1.52307 5.52698 0
M  V30 2671 H 260.689 2.3142 5.53683 0
M  V30 2672 H 261.759 2.52581 4.13921 0
M  V30 2673 N 263.102 -1.41638 0.69111 0
M  V30 2674 C 264.342 -2.03166 0.224291 0
M  V30 2675 C 264.706 -1.53537 -1.15284 0
M  V30 2676 O 265.907 -2.0696 -1.71525 0
M  V30 2677 C 264.178 -3.56342 0.274758 0
M  V30 2678 S 265.737 -4.3864 -0.118669 0
M  V30 2679 H 262.555 -0.705188 0.0907263 0
M  V30 2680 H 265.157 -1.7314 0.907895 0
M  V30 2681 H 263.861 -3.89958 1.2791 0
M  V30 2682 H 263.392 -3.91063 -0.428142 0
M  V30 2683 H 265.407 -4.77549 -1.34764 0
M  V30 2684 N 264.58 -0.43555 -1.51462 0
M  V30 2685 C 265.991 0.0279871 -1.86679 0
M  V30 2686 C 266.342 1.42104 -1.35281 0
M  V30 2687 O 265.467 2.04667 -0.702878 0
M  V30 2688 C 266.062 0.0575626 -3.38751 0
M  V30 2689 C 264.621 0.465507 -3.7351 0
M  V30 2690 C 263.768 -0.342996 -2.75171 0
M  V30 2691 H 266.719 -0.651473 -1.44712 0
M  V30 2692 H 266.74 0.867421 -3.70481 0
M  V30 2693 H 266.252 -0.956448 -3.7613 0
M  V30 2694 H 264.353 1.48519 -3.41721 0
M  V30 2695 H 264.466 0.191546 -4.78717 0
M  V30 2696 H 262.83 0.198442 -2.53926 0
M  V30 2697 H 263.613 -1.35585 -3.15391 0
M  V30 2698 N 266.058 1.56714 -0.166846 0
M  V30 2699 C 267.021 2.16539 0.751232 0
M  V30 2700 C 268.021 1.11228 1.16125 0
M  V30 2701 O 269.211 1.36765 1.07894 0
M  V30 2702 C 266.343 2.74462 2.02196 0
M  V30 2703 H 267.536 2.99013 0.230499 0
M  V30 2704 H 265.089 1.56081 0.0826982 0
M  V30 2705 H 265.824 1.95709 2.58589 0
M  V30 2706 H 265.609 3.51527 1.73698 0
M  V30 2707 H 267.099 3.20489 2.67725 0
M  V30 2708 N 267.536 -0.106894 1.57237 0
M  V30 2709 C 268.947 -0.662723 1.74542 0
M  V30 2710 C 269.298 -1.7971 0.787319 0
M  V30 2711 O 268.423 -2.16368 -0.0369636 0
M  V30 2712 C 269.018 -1.20896 3.16496 0
M  V30 2713 C 267.577 -1.71096 3.35266 0
M  V30 2714 C 266.724 -0.615642 2.7038 0
M  V30 2715 H 269.675 0.119106 1.58252 0
M  V30 2716 H 269.696 -2.07847 3.18716 0
M  V30 2717 H 269.208 -0.383122 3.86204 0
M  V30 2718 H 267.309 -2.56119 2.70618 0
M  V30 2719 H 267.422 -1.81208 4.43509 0
M  V30 2720 H 265.786 -1.05222 2.31949 0
M  V30 2721 H 266.569 0.199419 3.4272 0
M  V30 2722 N 269.014 -1.53014 -0.377408 0
M  V30 2723 C 270.43 -1.42523 -0.718281 0
M  V30 2724 C 270.63 -0.55487 -1.9371 0
M  V30 2725 O 269.686 -0.0327593 -2.52479 0
M  V30 2726 C 270.999 -2.85546 -0.942539 0
M  V30 2727 C 272.547 -2.95101 -1.04329 0
M  V30 2728 C 273.022 -4.3916 -1.3001 0
M  V30 2729 N 274.513 -4.42536 -1.36806 0
M  V30 2730 C 275.248 -5.51097 -1.58364 0
M  V30 2731 N 274.744 -6.69724 -1.77317 0
M  V30 2732 N 276.537 -5.38657 -1.60638 0
M  V30 2733 H 268.688 -2.08116 0.424426 0
M  V30 2734 H 270.951 -0.939352 0.127759 0
M  V30 2735 H 270.657 -3.51499 -0.118929 0
M  V30 2736 H 270.531 -3.28493 -1.85397 0
M  V30 2737 H 272.918 -2.29309 -1.85745 0
M  V30 2738 H 272.999 -2.55566 -0.109505 0
M  V30 2739 H 272.643 -5.05521 -0.490991 0
M  V30 2740 H 272.573 -4.76258 -2.24691 0
M  V30 2741 H 275.064 -3.57039 -1.23821 0
M  V30 2742 H 275.377 -7.48233 -1.93306 0
M  V30 2743 H 273.722 -6.72732 -1.74518 0
M  V30 2744 H 276.913 -4.44948 -1.45391 0
M  V30 2745 H 277.086 -6.2333 -1.77098 0
M  V30 2746 N 270.492 0.636531 -1.44174 0
M  V30 2747 C 271.903 1.21806 -1.41493 0
M  V30 2748 C 272.254 1.95785 -0.1275 0
M  V30 2749 O 271.379 2.02147 0.772376 0
M  V30 2750 C 271.974 2.21551 -2.56321 0
M  V30 2751 C 270.533 2.75143 -2.56853 0
M  V30 2752 C 269.68 1.50052 -2.33195 0
M  V30 2753 H 272.631 0.427531 -1.52833 0
M  V30 2754 H 272.652 3.0405 -2.28765 0
M  V30 2755 H 272.164 1.67679 -3.50008 0
M  V30 2756 H 270.265 3.33033 -1.67093 0
M  V30 2757 H 270.378 3.2155 -3.55165 0
M  V30 2758 H 268.742 1.77993 -1.82183 0
M  V30 2759 H 269.525 0.980903 -3.28988 0
M  V30 2760 N 271.97 1.30982 0.876444 0
M  V30 2761 C 273.218 1.20058 1.62575 0
M  V30 2762 C 273.539 -0.242947 1.93481 0
M  V30 2763 O 272.809 -1.1619 1.57724 0
M  V30 2764 H 271.389 0.44135 0.602677 0
M  V30 2765 H 274.051 1.64222 1.04962 0
M  V30 2766 H 273.147 1.76762 2.57219 0
M  V30 2767 N 273.449 -1.08991 1.13837 0
M  V30 2768 C 274.412 -2.13925 0.822715 0
M  V30 2769 C 275.412 -1.599 -0.1699 0
M  V30 2770 O 276.602 -1.74104 0.0577251 0
M  V30 2771 C 273.734 -3.40155 0.225318 0
M  V30 2772 H 274.927 -2.43358 1.75262 0
M  V30 2773 H 272.48 -1.24603 0.943594 0
M  V30 2774 H 273.215 -3.16352 -0.713594 0
M  V30 2775 H 273 -3.80661 0.940193 0
M  V30 2776 H 274.49 -4.17594 0.0214784 0
M  V30 2777 N 274.927 -0.932562 -1.27047 0
M  V30 2778 C 275.89 -0.440064 -2.24936 0
M  V30 2779 C 276.89 0.444071 -1.54547 0
M  V30 2780 O 278.08 0.244465 -1.72476 0
M  V30 2781 C 275.212 0.36678 -3.38921 0
M  V30 2782 H 276.405 -1.305 -2.70018 0
M  V30 2783 H 273.958 -0.713707 -1.39054 0
M  V30 2784 H 274.693 1.25033 -2.99228 0
M  V30 2785 H 274.478 -0.267204 -3.91188 0
M  V30 2786 H 275.968 0.701567 -4.11665 0
M  V30 2787 N 276.405 1.4127 -0.698611 0
M  V30 2788 C 277.63 2.06024 -0.238512 0
M  V30 2789 C 278.055 1.5224 1.10475 0
M  V30 2790 O 277.413 0.650623 1.69223 0
M  V30 2791 C 277.461 3.59988 -0.209952 0
M  V30 2792 O 276.565 4.04282 0.814235 0
M  V30 2793 H 275.906 0.653829 -0.115775 0
M  V30 2794 H 278.436 1.8098 -0.954326 0
M  V30 2795 H 278.446 4.07979 -0.0418436 0
M  V30 2796 H 277.121 3.98503 -1.1903 0
M  V30 2797 H 275.698 3.6779 0.615234 0
M  V30 2798 N 277.883 0.443576 1.51229 0
M  V30 2799 C 278.831 -0.37904 2.29491 0
M  V30 2800 C 279.825 -1.0153 1.35603 0
M  V30 2801 O 281.031 -0.94955 1.52917 0
M  V30 2802 H 277.406 -0.141053 0.738653 0
M  V30 2803 H 279.377 0.301799 2.9687 0
M  V30 2804 C 278.126 -1.46426 3.15364 0
M  V30 2805 H 277.449 -0.984037 3.87501 0
M  V30 2806 H 278.889 -2.01297 3.7317 0
M  V30 2807 C 277.348 -2.45099 2.31146 0
M  V30 2808 O 277.878 -3.49773 1.9754 0
M  V30 2809 N 276.084 -2.16139 1.94249 0
M  V30 2810 H 275.631 -1.31044 2.21777 0
M  V30 2811 H 275.589 -2.82398 1.38198 0
M  V30 2812 N 279.361 -1.56624 0.175154 0
M  V30 2813 C 280.291 -2.21155 -0.749195 0
M  V30 2814 C 281.272 -1.16836 -1.23626 0
M  V30 2815 O 282.457 -1.45277 -1.28873 0
M  V30 2816 C 279.587 -2.8553 -1.97711 0
M  V30 2817 C 278.541 -3.95921 -1.62575 0
M  V30 2818 C 277.867 -4.47365 -2.92864 0
M  V30 2819 C 279.167 -5.15323 -0.850838 0
M  V30 2820 H 280.861 -2.98653 -0.211295 0
M  V30 2821 H 278.407 -1.43651 -0.100188 0
M  V30 2822 H 280.36 -3.2935 -2.62881 0
M  V30 2823 H 279.084 -2.05406 -2.53921 0
M  V30 2824 H 277.743 -3.52762 -0.997719 0
M  V30 2825 H 277.391 -3.64027 -3.47122 0
M  V30 2826 H 277.091 -5.21839 -2.70106 0
M  V30 2827 H 278.615 -4.93873 -3.59056 0
M  V30 2828 H 280.029 -5.55812 -1.40521 0
M  V30 2829 H 278.426 -5.95739 -0.722154 0
M  V30 2830 H 279.496 -4.84661 0.152082 0
M  V30 2831 N 280.839 0.0985539 -1.57292 0
M  V30 2832 C 282.064 0.820196 -1.90493 0
M  V30 2833 C 282.489 1.71658 -0.769094 0
M  V30 2834 O 281.847 1.79133 0.279495 0
M  V30 2835 C 281.895 1.61242 -3.22542 0
M  V30 2836 O 280.999 2.72108 -3.09888 0
M  V30 2837 H 280.34 0.225547 -0.62452 0
M  V30 2838 H 282.87 0.0748159 -2.04463 0
M  V30 2839 H 282.88 1.99737 -3.55766 0
M  V30 2840 H 281.555 0.954535 -4.04798 0
M  V30 2841 H 280.132 2.36667 -2.88172 0
M  V30 2842 N 282.317 1.53212 0.369288 0
M  V30 2843 C 283.547 1.72868 1.13139 0
M  V30 2844 C 283.955 0.455754 1.83629 0
M  V30 2845 O 283.298 -0.580861 1.74275 0
M  V30 2846 C 283.36 2.83667 2.20847 0
M  V30 2847 C 283.024 4.24142 1.70155 0
M  V30 2848 C 284.021 5.06619 1.16763 0
M  V30 2849 C 281.706 4.70539 1.7578 0
M  V30 2850 C 283.7 6.33581 0.696678 0
M  V30 2851 C 281.387 5.97481 1.28297 0
M  V30 2852 C 282.385 6.78833 0.753307 0
M  V30 2853 O 282.073 8.03393 0.285475 0
M  V30 2854 H 281.805 0.581707 0.344373 0
M  V30 2855 H 284.359 2.00736 0.435243 0
M  V30 2856 H 282.589 2.51265 2.93944 0
M  V30 2857 H 284.278 2.91536 2.82421 0
M  V30 2858 H 285.044 4.71948 1.11758 0
M  V30 2859 H 280.923 4.07293 2.15949 0
M  V30 2860 H 284.467 6.97027 0.282581 0
M  V30 2861 H 280.364 6.31651 1.32994 0
M  V30 2862 H 281.132 8.17497 0.405145 0
M  V30 2863 N 283.795 -0.628877 1.44509 0
M  V30 2864 C 285.211 -0.947305 1.28446 0
M  V30 2865 C 285.411 -2.00275 0.221872 0
M  V30 2866 O 284.467 -2.49447 -0.391471 0
M  V30 2867 C 285.78 -1.40843 2.65676 0
M  V30 2868 C 287.328 -1.52379 2.73404 0
M  V30 2869 C 287.803 -2.01875 4.11109 0
M  V30 2870 N 289.294 -2.09142 4.13296 0
M  V30 2871 C 290.029 -2.48615 5.16699 0
M  V30 2872 N 289.525 -2.87209 6.30462 0
M  V30 2873 N 291.318 -2.48768 5.04054 0
M  V30 2874 H 283.469 0.0690977 2.12288 0
M  V30 2875 H 285.732 -0.0317164 0.947469 0
M  V30 2876 H 285.438 -0.707206 3.44516 0
M  V30 2877 H 285.312 -2.37902 2.92716 0
M  V30 2878 H 287.699 -2.21598 1.9488 0
M  V30 2879 H 287.78 -0.536898 2.50102 0
M  V30 2880 H 287.424 -1.3325 4.90109 0
M  V30 2881 H 287.354 -3.0144 4.31789 0
M  V30 2882 H 289.845 -1.81991 3.31191 0
M  V30 2883 H 290.158 -3.16149 7.05174 0
M  V30 2884 H 288.503 -2.84955 6.33897 0
M  V30 2885 H 291.694 -2.18009 4.14234 0
M  V30 2886 H 291.867 -2.79207 5.84763 0
M  V30 2887 N 285.273 -1.31445 -0.869486 0
M  V30 2888 C 286.236 -1.19094 -1.9583 0
M  V30 2889 C 287.236 -0.117906 -1.60367 0
M  V30 2890 O 288.426 -0.367208 -1.70286 0
M  V30 2891 C 285.558 -0.828165 -3.30688 0
M  V30 2892 H 286.751 -2.15842 -2.08212 0
M  V30 2893 H 284.304 -1.15063 -1.05784 0
M  V30 2894 H 285.039 0.138142 -3.24006 0
M  V30 2895 H 284.824 -1.6038 -3.578 0
M  V30 2896 H 286.314 -0.765658 -4.10521 0
M  V30 2897 N 286.751 1.08385 -1.14413 0
M  V30 2898 C 288.162 1.62258 -0.923535 0
M  V30 2899 C 288.513 1.88691 0.537595 0
M  V30 2900 O 287.638 1.64454 1.40655 0
M  V30 2901 C 288.233 2.94781 -1.67002 0
M  V30 2902 C 286.792 3.45437 -1.495 0
M  V30 2903 C 285.939 2.19668 -1.69238 0
M  V30 2904 H 288.89 0.916086 -1.2959 0
M  V30 2905 H 288.911 3.63229 -1.13334 0
M  V30 2906 H 288.423 2.7551 -2.73342 0
M  V30 2907 H 286.524 3.6981 -0.455097 0
M  V30 2908 H 286.637 4.22173 -2.2651 0
M  V30 2909 H 285.001 2.28849 -1.11804 0
M  V30 2910 H 285.784 2.02905 -2.7692 0
M  V30 2911 N 288.23 0.939286 1.26551 0
M  V30 2912 C 289.477 0.585847 1.9384 0
M  V30 2913 C 289.805 -0.874784 1.73718 0
M  V30 2914 O 289.06 -1.64092 1.06642 0
M  V30 2915 C 289.359 0.872106 3.46596 0
M  V30 2916 C 289.025 2.31632 3.86856 0
M  V30 2917 C 287.687 2.71111 3.97558 0
M  V30 2918 C 290.039 3.25494 4.07066 0
M  V30 2919 C 287.367 4.03553 4.25866 0
M  V30 2920 C 289.719 4.57531 4.36862 0
M  V30 2921 C 288.383 4.96828 4.45778 0
M  V30 2922 H 287.653 0.214377 0.709312 0
M  V30 2923 H 290.3 1.18544 1.50398 0
M  V30 2924 H 288.605 0.18996 3.91339 0
M  V30 2925 H 290.302 0.577442 3.96821 0
M  V30 2926 H 286.892 2.00008 3.79071 0
M  V30 2927 H 291.076 2.9619 3.98227 0
M  V30 2928 H 286.332 4.33665 4.30981 0
M  V30 2929 H 290.506 5.30254 4.51446 0
M  V30 2930 H 288.133 5.99482 4.67468 0
M  V30 2931 N 289.708 -1.40897 0.706093 0
M  V30 2932 C 290.64 -2.29199 0.00815776 0
M  V30 2933 C 291.653 -1.45336 -0.733582 0
M  V30 2934 O 292.842 -1.68727 -0.582537 0
M  V30 2935 C 289.942 -3.23417 -1.01265 0
M  V30 2936 C 289.115 -4.36089 -0.338387 0
M  V30 2937 C 288.174 -5.10811 -1.26326 0
M  V30 2938 O 287.2 -5.64215 -0.751651 0
M  V30 2939 N 288.402 -5.19269 -2.595 0
M  V30 2940 H 291.167 -2.89738 0.766297 0
M  V30 2941 H 288.728 -1.52164 0.55296 0
M  V30 2942 H 290.72 -3.70276 -1.63334 0
M  V30 2943 H 289.29 -2.64112 -1.67223 0
M  V30 2944 H 288.51 -3.91479 0.462352 0
M  V30 2945 H 289.798 -5.08634 0.130031 0
M  V30 2946 H 289.196 -4.77347 -3.03573 0
M  V30 2947 H 287.753 -5.69667 -3.16737 0
M  V30 2948 N 291.186 -0.45159 -1.50991 0
M  V30 2949 C 292.116 0.342898 -2.30969 0
M  V30 2950 C 293.097 1.00815 -1.37005 0
M  V30 2951 O 294.282 1.00907 -1.65926 0
M  V30 2952 C 291.412 1.43637 -3.16205 0
M  V30 2953 C 290.366 0.893818 -4.18563 0
M  V30 2954 C 289.692 2.08411 -4.92411 0
M  V30 2955 C 290.992 -0.0815568 -5.22236 0
M  V30 2956 H 292.686 -0.324556 -2.97636 0
M  V30 2957 H 290.232 -0.157531 -1.43136 0
M  V30 2958 H 292.185 1.9995 -3.70942 0
M  V30 2959 H 290.909 2.13232 -2.47386 0
M  V30 2960 H 289.568 0.352798 -3.64898 0
M  V30 2961 H 289.216 2.76658 -4.20082 0
M  V30 2962 H 288.916 1.72741 -5.61636 0
M  V30 2963 H 290.44 2.65251 -5.49976 0
M  V30 2964 H 291.854 0.391742 -5.7196 0
M  V30 2965 H 290.251 -0.351551 -5.99069 0
M  V30 2966 H 291.321 -1.01374 -4.74185 0
M  V30 2967 N 292.664 1.56529 -0.183458 0
M  V30 2968 C 293.614 2.1515 0.754605 0
M  V30 2969 C 294.598 1.08904 1.18443 0
M  V30 2970 O 295.79 1.34997 1.14476 0
M  V30 2971 C 292.919 2.80531 1.97881 0
M  V30 2972 C 292.005 3.93952 1.57043 0
M  V30 2973 N 292.396 4.98221 0.87231 0
M  V30 2974 C 290.694 4.05338 1.86057 0
M  V30 2975 C 291.395 5.77836 0.669377 0
M  V30 2976 N 290.371 5.29858 1.21454 0
M  V30 2977 H 294.173 2.93132 0.212387 0
M  V30 2978 H 291.687 1.62391 0.0167725 0
M  V30 2979 H 293.684 3.20914 2.6612 0
M  V30 2980 H 292.344 2.04035 2.52586 0
M  V30 2981 H 293.355 5.15191 0.529033 0
M  V30 2982 H 290.032 3.39957 2.42354 0
M  V30 2983 H 291.422 6.71799 0.116422 0
M  V30 2984 N 294.142 -0.090211 1.57342 0
M  V30 2985 C 295.367 -0.810082 1.90925 0
M  V30 2986 C 295.792 -1.71248 0.778187 0
M  V30 2987 O 295.15 -1.79278 -0.269991 0
M  V30 2988 C 295.198 -1.59529 3.23393 0
M  V30 2989 O 294.302 -2.70461 3.11327 0
M  V30 2990 H 293.643 -0.222231 0.625707 0
M  V30 2991 H 296.173 -0.0639716 2.045 0
M  V30 2992 H 296.183 -1.97847 3.5682 0
M  V30 2993 H 294.858 -0.933055 4.05299 0
M  V30 2994 H 293.435 -2.35135 2.89423 0
M  V30 2995 N 295.62 -1.53406 -0.361157 0
M  V30 2996 C 296.583 -1.79479 -1.42548 0
M  V30 2997 C 297.583 -0.665327 -1.4639 0
M  V30 2998 O 298.773 -0.933549 -1.47073 0
M  V30 2999 C 295.905 -1.92087 -2.8163 0
M  V30 3000 H 297.098 -2.74538 -1.20701 0
M  V30 3001 H 294.651 -1.4455 -0.594546 0
M  V30 3002 H 295.386 -0.991099 -3.08784 0
M  V30 3003 H 295.171 -2.74241 -2.80239 0
M  V30 3004 H 296.661 -2.13836 -3.58697 0
M  V30 3005 N 297.098 0.621204 -1.44841 0
M  V30 3006 C 298.061 1.71459 -1.521 0
M  V30 3007 C 299.061 1.55696 -0.401933 0
M  V30 3008 O 300.251 1.61011 -0.664925 0
M  V30 3009 C 297.383 3.10624 -1.40447 0
M  V30 3010 H 298.576 1.66394 -2.49506 0
M  V30 3011 H 296.129 0.835745 -1.3208 0
M  V30 3012 H 296.864 3.21277 -0.441737 0
M  V30 3013 H 296.649 3.23473 -2.21602 0
M  V30 3014 H 298.139 3.90293 -1.4853 0
M  V30 3015 N 298.576 1.31904 0.862503 0
M  V30 3016 C 299.506 1.22782 1.98612 0
M  V30 3017 C 300.487 0.113362 1.69722 0
M  V30 3018 O 301.672 0.299218 1.91881 0
M  V30 3019 C 298.802 0.942058 3.34279 0
M  V30 3020 C 297.756 2.0169 3.77499 0
M  V30 3021 C 297.082 1.58369 5.10709 0
M  V30 3022 C 298.382 3.43096 3.93805 0
M  V30 3023 H 300.076 2.16788 2.06502 0
M  V30 3024 H 297.622 1.04366 0.992154 0
M  V30 3025 H 299.575 0.864818 4.1243 0
M  V30 3026 H 298.299 -0.0336603 3.26583 0
M  V30 3027 H 296.958 2.08416 3.01593 0
M  V30 3028 H 296.606 0.595628 4.99461 0
M  V30 3029 H 296.306 2.30279 5.40597 0
M  V30 3030 H 297.83 1.52067 5.91361 0
M  V30 3031 H 299.244 3.39003 4.62331 0
M  V30 3032 H 297.641 4.13288 4.35101 0
M  V30 3033 H 298.711 3.83334 2.96957 0
M  V30 3034 N 300.054 -1.07777 1.14986 0
M  V30 3035 C 301.331 -1.7699 0.832695 0
M  V30 3036 C 301.711 -2.001 -0.672561 0
M  V30 3037 O 301.059 -1.61598 -1.6155 0
M  V30 3038 C 301.269 -3.08139 1.63863 0
M  V30 3039 C 302.617 -3.8256 1.84208 0
M  V30 3040 O 303.641 -3.17939 1.60603 0
M  V30 3041 O 302.5 -4.98612 2.23714 0
M  V30 3042 H 299.594 -0.768389 0.305791 0
M  V30 3043 H 302.14 -1.14182 1.25541 0
M  V30 3044 H 300.912 -2.86909 2.6608 0
M  V30 3045 H 300.535 -3.78678 1.21197 0
M  V30 3046 N 301.532 -0.945985 -1.26051 0
M  V30 3047 C 302.779 -0.596118 -1.93527 0
M  V30 3048 C 303.107 0.865559 -1.74179 0
M  V30 3049 O 302.362 1.63524 -1.0751 0
M  V30 3050 C 302.661 -0.890475 -3.46129 0
M  V30 3051 C 302.327 -2.3368 -3.85622 0
M  V30 3052 C 300.989 -2.73216 -3.96114 0
M  V30 3053 C 303.341 -3.27648 -4.05334 0
M  V30 3054 C 300.669 -4.05806 -4.2372 0
M  V30 3055 C 303.021 -4.59841 -4.3443 0
M  V30 3056 C 301.685 -4.99185 -4.43137 0
M  V30 3057 H 300.955 -0.218135 -0.708165 0
M  V30 3058 H 303.602 -1.1934 -1.49768 0
M  V30 3059 H 301.907 -0.210711 -3.91233 0
M  V30 3060 H 303.604 -0.598478 -3.96509 0
M  V30 3061 H 300.194 -2.02015 -3.78005 0
M  V30 3062 H 304.378 -2.98298 -3.96651 0
M  V30 3063 H 299.634 -4.35945 -4.28675 0
M  V30 3064 H 303.808 -5.32641 -4.48628 0
M  V30 3065 H 301.435 -6.01952 -4.64282 0
M  V30 3066 N 303.011 1.40521 -0.713556 0
M  V30 3067 C 304.236 2.05759 -0.26035 0
M  V30 3068 C 304.661 1.53403 1.08854 0
M  V30 3069 O 304.019 0.668535 1.68524 0
M  V30 3070 C 304.067 3.59745 -0.248122 0
M  V30 3071 O 303.171 4.05123 0.77131 0
M  V30 3072 H 302.512 0.652564 -0.122703 0
M  V30 3073 H 305.042 1.79958 -0.973467 0
M  V30 3074 H 305.052 4.07911 -0.0851129 0
M  V30 3075 H 303.727 3.97218 -1.2325 0
M  V30 3076 H 302.304 3.68422 0.57619 0
M  V30 3077 N 304.489 0.459591 1.5075 0
M  V30 3078 C 305.9 0.00171547 1.867 0
M  V30 3079 C 306.251 -1.39934 1.37525 0
M  V30 3080 O 305.376 -2.03523 0.735349 0
M  V30 3081 C 305.971 -0.00366298 3.388 0
M  V30 3082 C 304.53 -0.406026 3.74204 0
M  V30 3083 C 303.677 0.38673 2.7459 0
M  V30 3084 H 306.628 0.674413 1.43657 0
M  V30 3085 H 306.649 -0.808371 3.71814 0
M  V30 3086 H 306.161 1.01617 3.74561 0
M  V30 3087 H 304.262 -1.43063 3.4404 0
M  V30 3088 H 304.375 -0.115362 4.78961 0
M  V30 3089 H 302.739 -0.158019 2.54209 0
M  V30 3090 H 303.522 1.40585 3.13194 0
M  V30 3091 N 305.967 -1.56429 0.191757 0
M  V30 3092 C 307.378 -1.83912 -0.321428 0
M  V30 3093 C 307.729 -1.11231 -1.61623 0
M  V30 3094 O 306.854 -0.37202 -2.13178 0
M  V30 3095 C 307.449 -3.33624 -0.589961 0
M  V30 3096 C 306.008 -3.6153 -1.04753 0
M  V30 3097 C 305.155 -2.7714 -0.0943327 0
M  V30 3098 H 308.106 -1.53161 0.415612 0
M  V30 3099 H 308.127 -3.52213 -1.43966 0
M  V30 3100 H 307.639 -3.86495 0.352588 0
M  V30 3101 H 305.74 -3.14089 -2.00447 0
M  V30 3102 H 305.853 -4.69737 -0.942549 0
M  V30 3103 H 304.217 -2.47638 -0.595589 0
M  V30 3104 H 305 -3.32799 0.842601 0
M  V30 3105 N 307.445 0.0818655 -1.57387 0
M  V30 3106 C 308.693 0.781368 -1.86384 0
M  V30 3107 C 309.014 1.78618 -0.782342 0
M  V30 3108 O 308.284 1.94976 0.190061 0
M  V30 3109 H 306.864 0.291562 -0.687751 0
M  V30 3110 H 309.526 0.060348 -1.94807 0
M  V30 3111 H 308.622 1.3038 -2.83562 0
M  V30 3112 N 308.923 1.53595 0.353017 0
M  V30 3113 C 310.151 1.74311 1.1146 0
M  V30 3114 C 310.566 0.477854 1.82653 0
M  V30 3115 O 309.923 -0.549977 1.74016 0
M  V30 3116 C 309.974 2.91694 2.13534 0
M  V30 3117 O 309.695 4.13325 1.45238 0
M  V30 3118 C 311.196 3.24384 3.02142 0
M  V30 3119 H 308.416 0.582669 0.332773 0
M  V30 3120 H 310.96 2.00386 0.408107 0
M  V30 3121 H 309.115 2.67977 2.79763 0
M  V30 3122 H 309.529 4.79148 2.13349 0
M  V30 3123 H 311.003 4.09893 3.69718 0
M  V30 3124 H 311.48 2.40282 3.67643 0
M  V30 3125 H 312.086 3.50073 2.41514 0
M  V30 3126 N 310.401 -0.613514 1.45168 0
M  V30 3127 C 311.311 -1.75296 1.55912 0
M  V30 3128 C 312.327 -1.68244 0.443856 0
M  V30 3129 O 313.503 -1.88706 0.70371 0
M  V30 3130 C 310.568 -3.1174 1.5172 0
M  V30 3131 C 309.629 -3.30291 2.74238 0
M  V30 3132 C 308.862 -4.60226 2.70236 0
M  V30 3133 O 309.085 -5.42168 1.77229 0
M  V30 3134 O 308.019 -4.81361 3.61352 0
M  V30 3135 H 311.845 -1.69183 2.52212 0
M  V30 3136 H 309.43 -0.776886 1.27612 0
M  V30 3137 H 311.312 -3.93044 1.51968 0
M  V30 3138 H 309.987 -3.18357 0.585697 0
M  V30 3139 H 308.894 -2.48598 2.79553 0
M  V30 3140 H 310.227 -3.28547 3.66494 0
M  V30 3141 N 311.879 -1.3236 -0.855495 0
M  V30 3142 C 313.125 -1.23054 -1.612 0
M  V30 3143 C 313.458 0.207404 -1.93089 0
M  V30 3144 O 312.733 1.14432 -1.57275 0
M  V30 3145 C 313.016 -2.08937 -2.93287 0
M  V30 3146 C 312.869 -3.61105 -2.68185 0
M  V30 3147 C 314.188 -1.94986 -3.94549 0
M  V30 3148 H 311.307 -0.448364 -0.584926 0
M  V30 3149 H 313.949 -1.62297 -0.987917 0
M  V30 3150 H 312.099 -1.75599 -3.46551 0
M  V30 3151 H 313.771 -4.04652 -2.21483 0
M  V30 3152 H 312.014 -3.83813 -2.02164 0
M  V30 3153 H 312.685 -4.16522 -3.62234 0
M  V30 3154 H 315.161 -2.24189 -3.5054 0
M  V30 3155 H 314.037 -2.57356 -4.84829 0
M  V30 3156 H 314.298 -0.917263 -4.3248 0
M  V30 3157 N 313.357 1.07166 -1.15556 0
M  V30 3158 C 314.582 1.84053 -0.955988 0
M  V30 3159 C 315.007 1.81586 0.490739 0
M  V30 3160 O 314.365 1.21018 1.34997 0
M  V30 3161 C 314.413 3.28957 -1.47714 0
M  V30 3162 O 313.517 4.06795 -0.677593 0
M  V30 3163 H 312.858 0.569842 -0.340847 0
M  V30 3164 H 315.388 1.35178 -1.53584 0
M  V30 3165 H 315.398 3.79788 -1.4908 0
M  V30 3166 H 314.073 3.30068 -2.53037 0
M  V30 3167 H 312.65 3.6561 -0.733721 0
M  V30 3168 N 314.835 0.952656 1.25548 0
M  V30 3169 C 315.798 0.475794 2.24207 0
M  V30 3170 C 316.798 -0.419428 1.55234 0
M  V30 3171 O 317.988 -0.216994 1.72843 0
M  V30 3172 C 315.12 -0.312814 3.39462 0
M  V30 3173 H 316.313 1.34779 2.67908 0
M  V30 3174 H 313.866 0.735739 1.37901 0
M  V30 3175 H 314.601 -1.20257 3.01179 0
M  V30 3176 H 314.386 0.329404 3.90714 0
M  V30 3177 H 315.876 -0.635986 4.12729 0
M  V30 3178 N 316.313 -1.40141 0.720998 0
M  V30 3179 C 317.243 -2.33339 0.0867621 0
M  V30 3180 C 318.224 -1.53178 -0.739622 0
M  V30 3181 O 319.409 -1.81625 -0.687449 0
M  V30 3182 C 316.539 -3.37194 -0.831728 0
M  V30 3183 C 315.493 -4.27857 -0.110558 0
M  V30 3184 C 314.819 -5.22294 -1.14513 0
M  V30 3185 C 316.119 -5.11872 1.0385 0
M  V30 3186 H 317.813 -2.86626 0.865219 0
M  V30 3187 H 315.359 -1.37814 0.417516 0
M  V30 3188 H 317.312 -4.01335 -1.28485 0
M  V30 3189 H 316.036 -2.82314 -1.64214 0
M  V30 3190 H 314.695 -3.65176 0.322797 0
M  V30 3191 H 314.343 -4.63717 -1.94874 0
M  V30 3192 H 314.043 -5.83797 -0.667446 0
M  V30 3193 H 315.567 -5.89312 -1.59824 0
M  V30 3194 H 316.981 -5.69436 0.664482 0
M  V30 3195 H 315.378 -5.82445 1.4449 0
M  V30 3196 H 316.448 -4.4753 1.86668 0
M  V30 3197 N 317.792 -0.46758 -1.50504 0
M  V30 3198 C 319.032 0.0874114 -2.04213 0
M  V30 3199 C 319.396 1.37301 -1.34211 0
M  V30 3200 O 320.597 2.01015 -1.78456 0
M  V30 3201 C 318.868 0.270571 -3.56374 0
M  V30 3202 S 320.427 0.784623 -4.31728 0
M  V30 3203 H 317.245 0.0176153 -0.710782 0
M  V30 3204 H 319.847 -0.633915 -1.84937 0
M  V30 3205 H 318.551 -0.670942 -4.04878 0
M  V30 3206 H 318.082 1.01811 -3.79997 0
M  V30 3207 H 320.097 2.05849 -4.51487 0
M  V30 3208 N 319.27 1.56325 -0.20005 0
M  V30 3209 C 320.686 1.58839 0.155716 0
M  V30 3210 C 320.886 1.21636 1.60645 0
M  V30 3211 O 319.942 0.941437 2.34293 0
M  V30 3212 C 321.255 3.0032 -0.151124 0
M  V30 3213 C 322.803 3.12866 -0.0916284 0
M  V30 3214 C 323.278 4.56488 -0.371845 0
M  V30 3215 N 324.769 4.62089 -0.320641 0
M  V30 3216 C 325.504 5.71116 -0.511243 0
M  V30 3217 N 325 6.88592 -0.762461 0
M  V30 3218 N 326.793 5.60335 -0.445157 0
M  V30 3219 H 318.944 1.78788 -1.14668 0
M  V30 3220 H 321.207 0.829996 -0.458051 0
M  V30 3221 H 320.913 3.32117 -1.15721 0
M  V30 3222 H 320.787 3.73257 0.543986 0
M  V30 3223 H 323.174 2.80878 0.905065 0
M  V30 3224 H 323.255 2.42304 -0.81989 0
M  V30 3225 H 322.899 4.89189 -1.36588 0
M  V30 3226 H 322.829 5.25246 0.377362 0
M  V30 3227 H 325.32 3.77665 -0.13329 0
M  V30 3228 H 325.633 7.67581 -0.896576 0
M  V30 3229 H 323.978 6.90387 -0.799412 0
M  V30 3230 H 327.169 4.67436 -0.249278 0
M  V30 3231 H 327.342 6.45243 -0.597116 0
M  V30 3232 N 320.748 -0.0735177 1.57428 0
M  V30 3233 C 321.996 -0.771472 1.86796 0
M  V30 3234 C 322.317 -1.78201 0.791804 0
M  V30 3235 O 321.587 -1.95074 -0.179718 0
M  V30 3236 H 320.167 -0.28791 0.689287 0
M  V30 3237 H 322.829 -0.0500161 1.94836 0
M  V30 3238 H 321.925 -1.28874 2.8425 0
M  V30 3239 N 322.226 -1.5378 -0.344866 0
M  V30 3240 C 323.158 -1.77988 -1.44406 0
M  V30 3241 C 324.171 -0.661138 -1.48771 0
M  V30 3242 O 325.36 -0.937842 -1.51877 0
M  V30 3243 C 322.46 -1.86345 -2.8307 0
M  V30 3244 C 321.633 -3.16256 -3.0216 0
M  V30 3245 C 320.692 -3.15588 -4.21059 0
M  V30 3246 O 319.718 -3.89314 -4.15239 0
M  V30 3247 N 320.92 -2.37864 -5.29529 0
M  V30 3248 H 323.685 -2.72839 -1.24012 0
M  V30 3249 H 321.246 -1.52814 -0.534737 0
M  V30 3250 H 323.238 -1.83351 -3.60783 0
M  V30 3251 H 321.808 -0.986858 -2.96614 0
M  V30 3252 H 321.028 -3.32385 -2.11929 0
M  V30 3253 H 322.316 -4.0207 -3.11797 0
M  V30 3254 H 321.714 -1.77514 -5.37127 0
M  V30 3255 H 320.271 -2.40668 -6.05741 0
M  V30 3256 N 323.704 0.605807 -1.45491 0
M  V30 3257 C 324.634 1.72709 -1.57143 0
M  V30 3258 C 325.615 1.6476 -0.422884 0
M  V30 3259 O 326.8 1.83132 -0.646247 0
M  V30 3260 C 323.93 3.11316 -1.53948 0
M  V30 3261 C 322.884 3.34077 -2.67537 0
M  V30 3262 C 322.21 4.72975 -2.49397 0
M  V30 3263 C 323.51 3.24158 -4.09535 0
M  V30 3264 H 325.204 1.63214 -2.51001 0
M  V30 3265 H 322.75 0.78379 -1.208 0
M  V30 3266 H 324.703 3.89557 -1.60696 0
M  V30 3267 H 323.427 3.21655 -0.566205 0
M  V30 3268 H 322.086 2.58227 -2.6022 0
M  V30 3269 H 321.734 4.8005 -1.50205 0
M  V30 3270 H 321.434 4.8916 -3.25571 0
M  V30 3271 H 322.958 5.53414 -2.58002 0
M  V30 3272 H 324.372 3.92271 -4.18086 0
M  V30 3273 H 322.769 3.51872 -4.86113 0
M  V30 3274 H 323.839 2.2157 -4.31317 0
M  V30 3275 N 325.182 1.32811 0.848464 0
M  V30 3276 C 326.593 1.21315 1.41914 0
M  V30 3277 C 326.944 -0.171847 1.95446 0
M  V30 3278 O 326.069 -1.07093 1.88043 0
M  V30 3279 C 326.664 2.19631 2.57968 0
M  V30 3280 C 325.223 2.12003 3.11017 0
M  V30 3281 C 324.37 2.07651 1.83783 0
M  V30 3282 H 327.321 1.44549 0.655071 0
M  V30 3283 H 327.342 1.79845 3.35315 0
M  V30 3284 H 326.854 3.20423 2.18976 0
M  V30 3285 H 324.955 1.14481 3.54577 0
M  V30 3286 H 325.068 3.02111 3.71841 0
M  V30 3287 H 323.432 1.52983 2.03638 0
M  V30 3288 H 324.215 3.10235 1.47 0
M  V30 3289 N 326.66 -1.06551 1.16123 0
M  V30 3290 C 327.909 -1.78687 0.935622 0
M  V30 3291 C 328.222 -1.88056 -0.538001 0
M  V30 3292 O 329.428 -2.56794 -0.88143 0
M  V30 3293 C 327.884 -3.21143 1.62466 0
M  V30 3294 C 327.492 -3.19949 3.13587 0
M  V30 3295 C 329.236 -3.9783 1.48092 0
M  V30 3296 C 327.143 -4.57108 3.75241 0
M  V30 3297 H 326.073 -0.669712 0.346412 0
M  V30 3298 H 328.724 -1.19534 1.39226 0
M  V30 3299 H 327.106 -3.80539 1.09572 0
M  V30 3300 H 328.28 -2.70151 3.73303 0
M  V30 3301 H 326.595 -2.5676 3.27816 0
M  V30 3302 H 329.192 -4.99217 1.91538 0
M  V30 3303 H 329.535 -4.14078 0.429507 0
M  V30 3304 H 330.068 -3.4495 1.98127 0
M  V30 3305 H 326.807 -4.46065 4.80319 0
M  V30 3306 H 326.327 -5.07111 3.20309 0
M  V30 3307 H 328.006 -5.26069 3.76644 0
M  V30 3308 N 328.138 -0.959301 -1.25041 0
M  V30 3309 C 329.363 -0.633507 -1.97488 0
M  V30 3310 C 329.788 0.788555 -1.70773 0
M  V30 3311 O 329.146 1.53394 -0.966431 0
M  V30 3312 C 329.194 -0.904057 -3.49083 0
M  V30 3313 O 328.298 0.0147939 -4.12397 0
M  V30 3314 H 327.639 -0.240368 -0.618966 0
M  V30 3315 H 330.169 -1.28717 -1.59038 0
M  V30 3316 H 330.179 -0.832203 -3.99423 0
M  V30 3317 H 328.854 -1.94048 -3.67856 0
M  V30 3318 H 327.431 -0.109664 -3.72739 0
M  V30 3319 N 329.616 1.39756 -0.72842 0
M  V30 3320 C 330.862 2.00942 -0.273892 0
M  V30 3321 C 331.195 1.57656 1.13394 0
M  V30 3322 O 330.47 0.802434 1.77176 0
M  V30 3323 C 330.753 3.58211 -0.368346 0
M  V30 3324 C 330.606 4.11534 -1.81548 0
M  V30 3325 C 331.925 4.39372 0.253054 0
M  V30 3326 H 329.044 0.730047 -0.100996 0
M  V30 3327 H 331.686 1.66056 -0.923337 0
M  V30 3328 H 329.836 3.88061 0.184588 0
M  V30 3329 H 331.508 3.92431 -2.42478 0
M  V30 3330 H 329.751 3.65341 -2.33898 0
M  V30 3331 H 330.422 5.20682 -1.83288 0
M  V30 3332 H 332.898 4.15527 -0.218224 0
M  V30 3333 H 331.774 5.48677 0.156585 0
M  V30 3334 H 332.035 4.21358 1.33826 0
M  V30 3335 N 331.094 0.475555 1.50254 0
M  V30 3336 C 332.322 -0.0754493 2.06762 0
M  V30 3337 C 332.737 -1.33111 1.33891 0
M  V30 3338 O 332.094 -1.77846 0.40952 0
M  V30 3339 C 332.145 -0.359008 3.59713 0
M  V30 3340 O 331.866 0.846851 4.29837 0
M  V30 3341 C 333.367 -0.956484 4.32858 0
M  V30 3342 H 330.587 0.00907525 0.670939 0
M  V30 3343 H 333.131 0.665618 1.93364 0
M  V30 3344 H 331.286 -1.05001 3.72899 0
M  V30 3345 H 331.7 0.594162 5.21124 0
M  V30 3346 H 333.174 -1.10463 5.40834 0
M  V30 3347 H 333.651 -1.94775 3.93649 0
M  V30 3348 H 334.257 -0.303723 4.24214 0
M  V30 3349 N 332.573 -1.56217 0.208337 0
M  V30 3350 C 333.813 -1.99849 -0.428927 0
M  V30 3351 C 334.177 -1.09262 -1.57879 0
M  V30 3352 O 335.378 -1.42185 -2.28116 0
M  V30 3353 C 333.649 -3.46777 -0.864879 0
M  V30 3354 S 335.208 -4.12434 -1.49811 0
M  V30 3355 H 332.026 -0.697742 -0.136665 0
M  V30 3356 H 334.628 -1.92953 0.314519 0
M  V30 3357 H 333.332 -4.10396 -0.0181326 0
M  V30 3358 H 332.863 -3.57518 -1.64147 0
M  V30 3359 H 334.878 -4.10532 -2.78707 0
M  V30 3360 N 334.051 0.0651679 -1.57465 0
M  V30 3361 C 335.3 0.761916 -1.86756 0
M  V30 3362 C 335.613 1.78406 -0.801925 0
M  V30 3363 O 336.819 2.53084 -0.982885 0
M  V30 3364 C 335.275 1.40603 -3.31299 0
M  V30 3365 C 334.883 0.422115 -4.46007 0
M  V30 3366 C 336.627 2.08476 -3.69781 0
M  V30 3367 C 334.534 1.07252 -5.81593 0
M  V30 3368 H 333.464 0.288308 -0.696702 0
M  V30 3369 H 336.115 0.015344 -1.83494 0
M  V30 3370 H 334.497 2.20109 -3.29193 0
M  V30 3371 H 335.671 -0.343613 -4.59517 0
M  V30 3372 H 333.986 -0.152527 -4.16121 0
M  V30 3373 H 336.583 2.57925 -4.68379 0
M  V30 3374 H 336.926 2.88712 -2.99919 0
M  V30 3375 H 337.459 1.35792 -3.73905 0
M  V30 3376 H 334.198 0.310342 -6.54765 0
M  V30 3377 H 333.718 1.80895 -5.71872 0
M  V30 3378 H 335.397 1.59043 -6.27148 0
M  V30 3379 N 335.529 1.53961 0.336706 0
M  V30 3380 C 336.492 1.81724 1.39675 0
M  V30 3381 C 337.492 0.688532 1.45313 0
M  V30 3382 O 338.682 0.956829 1.45569 0
M  V30 3383 C 335.814 1.96543 2.78538 0
M  V30 3384 H 337.007 2.76424 1.16318 0
M  V30 3385 H 334.56 1.45478 0.571474 0
M  V30 3386 H 335.295 1.0401 3.07168 0
M  V30 3387 H 335.08 2.78665 2.75841 0
M  V30 3388 H 336.57 2.19516 3.5525 0
M  V30 3389 N 337.007 -0.598083 1.45811 0
M  V30 3390 C 338.284 -1.35777 1.40797 0
M  V30 3391 C 338.664 -2.10935 0.083462 0
M  V30 3392 O 338.012 -2.08505 -0.934763 0
M  V30 3393 C 338.222 -2.29666 2.62783 0
M  V30 3394 C 339.57 -2.91977 3.08277 0
M  V30 3395 O 340.594 -2.39984 2.63223 0
M  V30 3396 O 339.453 -3.86376 3.86491 0
M  V30 3397 H 336.547 -0.609291 0.55919 0
M  V30 3398 H 339.093 -0.620379 1.57954 0
M  V30 3399 H 337.865 -1.73454 3.50756 0
M  V30 3400 H 337.488 -3.1077 2.48008 0
M  V30 3401 N 338.485 -1.33259 -0.841409 0
M  V30 3402 C 339.395 -1.25332 -1.98316 0
M  V30 3403 C 340.411 -0.164364 -1.73222 0
M  V30 3404 O 341.587 -0.387486 -1.97637 0
M  V30 3405 C 338.652 -0.990078 -3.32262 0
M  V30 3406 C 337.713 -2.16879 -3.70489 0
M  V30 3407 C 336.946 -1.91801 -4.98044 0
M  V30 3408 O 337.169 -0.867075 -5.63771 0
M  V30 3409 O 336.103 -2.78267 -5.33714 0
M  V30 3410 H 339.929 -2.21344 -2.07944 0
M  V30 3411 H 337.514 -1.1328 -0.974058 0
M  V30 3412 H 339.396 -0.860321 -4.12524 0
M  V30 3413 H 338.071 -0.0602155 -3.23644 0
M  V30 3414 H 336.978 -2.35407 -2.90748 0
M  V30 3415 H 338.311 -3.0819 -3.8377 0
M  V30 3416 N 339.963 1.05934 -1.16686 0
M  V30 3417 C 341.212 1.78188 -0.945085 0
M  V30 3418 C 341.525 1.88338 0.528021 0
M  V30 3419 O 342.731 2.57258 0.867799 0
M  V30 3420 C 341.187 3.20277 -1.64167 0
M  V30 3421 C 340.795 3.18281 -3.15279 0
M  V30 3422 C 342.539 3.97039 -1.502 0
M  V30 3423 C 340.446 4.55112 -3.7766 0
M  V30 3424 H 339.376 0.667866 -0.349959 0
M  V30 3425 H 342.027 1.18794 -1.39858 0
M  V30 3426 H 340.409 3.79952 -1.11589 0
M  V30 3427 H 341.583 2.68167 -3.74731 0
M  V30 3428 H 339.898 2.55018 -3.29173 0
M  V30 3429 H 342.495 4.98194 -1.94183 0
M  V30 3430 H 342.838 4.13845 -0.451461 0
M  V30 3431 H 343.371 3.43894 -1.99954 0
M  V30 3432 H 340.11 4.43512 -4.82677 0
M  V30 3433 H 339.63 5.05406 -3.22994 0
M  V30 3434 H 341.309 5.24064 -3.79428 0
M  V30 3435 N 341.441 0.965919 1.2453 0
M  V30 3436 C 342.689 0.625593 1.92174 0
M  V30 3437 C 343.01 -0.841652 1.75901 0
M  V30 3438 O 342.28 -1.60061 1.12948 0
M  V30 3439 H 340.86 0.228388 0.71123 0
M  V30 3440 H 343.522 1.2266 1.51461 0
M  V30 3441 H 342.618 0.864653 2.99884 0
M  V30 3442 N 342.919 -1.39368 0.735821 0
M  V30 3443 C 343.882 -2.2896 0.104874 0
M  V30 3444 C 344.882 -1.46347 -0.666274 0
M  V30 3445 O 346.072 -1.67014 -0.49517 0
M  V30 3446 C 343.204 -3.29857 -0.860656 0
M  V30 3447 H 344.397 -2.86259 0.894205 0
M  V30 3448 H 341.95 -1.48029 0.501704 0
M  V30 3449 H 342.685 -2.77615 -1.67631 0
M  V30 3450 H 342.47 -3.9087 -0.310327 0
M  V30 3451 H 343.96 -3.96893 -1.29867 0
M  V30 3452 N 344.397 -0.483516 -1.5 0
M  V30 3453 C 345.813 -0.138404 -1.58999 0
M  V30 3454 C 346.013 1.35597 -1.4905 0
M  V30 3455 O 345.069 2.13039 -1.35539 0
M  V30 3456 C 346.382 -0.699658 -2.92447 0
M  V30 3457 C 347.93 -0.664195 -3.05872 0
M  V30 3458 C 348.405 -1.20321 -4.41913 0
M  V30 3459 N 349.896 -1.16315 -4.48358 0
M  V30 3460 C 350.631 -1.55058 -5.52037 0
M  V30 3461 N 350.127 -2.01311 -6.62907 0
M  V30 3462 N 351.92 -1.46584 -5.42651 0
M  V30 3463 H 344.071 -1.45529 -1.5471 0
M  V30 3464 H 346.334 -0.60258 -0.731848 0
M  V30 3465 H 346.04 -1.747 -3.05242 0
M  V30 3466 H 345.914 -0.150194 -3.76901 0
M  V30 3467 H 348.301 0.374272 -2.92717 0
M  V30 3468 H 348.382 -1.25061 -2.23144 0
M  V30 3469 H 348.026 -2.24037 -4.55818 0
M  V30 3470 H 347.956 -0.592896 -5.23252 0
M  V30 3471 H 350.447 -0.824058 -3.68806 0
M  V30 3472 H 350.76 -2.2899 -7.38095 0
M  V30 3473 H 349.105 -2.05273 -6.63994 0
M  V30 3474 H 352.296 -1.10281 -4.54924 0
M  V30 3475 H 352.469 -1.77103 -6.23329 0
M  V30 3476 N 345.875 1.56104 -0.216619 0
M  V30 3477 C 347.121 1.99219 0.410301 0
M  V30 3478 C 347.476 1.10169 1.57735 0
M  V30 3479 O 346.769 0.150598 1.91007 0
M  V30 3480 C 346.963 3.45923 0.898464 0
M  V30 3481 C 346.792 4.49163 -0.219748 0
M  V30 3482 C 345.562 5.00642 -0.684516 0
M  V30 3483 C 347.76 5.03751 -1.03629 0
M  V30 3484 N 345.742 5.87579 -1.7783 0
M  V30 3485 C 347.113 5.87566 -1.97904 0
M  V30 3486 C 349.168 4.86128 -1.07629 0
M  V30 3487 C 347.871 6.5564 -2.95851 0
M  V30 3488 C 349.897 5.54958 -2.04392 0
M  V30 3489 C 349.259 6.38536 -2.97407 0
M  V30 3490 H 345.358 0.773206 0.11695 0
M  V30 3491 H 347.942 1.9193 -0.327258 0
M  V30 3492 H 346.113 3.53669 1.6054 0
M  V30 3493 H 347.845 3.75963 1.49779 0
M  V30 3494 H 344.6 4.72807 -0.27399 0
M  V30 3495 H 345.024 6.3575 -2.32705 0
M  V30 3496 H 349.666 4.21168 -0.371099 0
M  V30 3497 H 347.384 7.19785 -3.67335 0
M  V30 3498 H 350.97 5.43289 -2.08154 0
M  V30 3499 H 349.85 6.90858 -3.71059 0
M  V30 3500 N 347.353 -0.0568162 1.57498 0
M  V30 3501 C 348.63 -0.786954 1.79071 0
M  V30 3502 C 349.01 -1.95028 0.80792 0
M  V30 3503 O 348.358 -2.27968 -0.155858 0
M  V30 3504 C 348.568 -1.24594 3.26002 0
M  V30 3505 C 349.916 -1.67323 3.90241 0
M  V30 3506 O 350.94 -1.34124 3.29984 0
M  V30 3507 O 349.799 -2.28842 4.9628 0
M  V30 3508 H 346.893 -0.378262 0.735423 0
M  V30 3509 H 349.439 -0.035734 1.69662 0
M  V30 3510 H 348.211 -0.41423 3.89101 0
M  V30 3511 H 347.834 -2.05803 3.40192 0
M  V30 3512 N 348.832 -1.54138 -0.328536 0
M  V30 3513 C 349.779 -1.83176 -1.40411 0
M  V30 3514 C 350.749 -0.678494 -1.5161 0
M  V30 3515 O 351.934 -0.92443 -1.6691 0
M  V30 3516 C 349.074 -2.06035 -2.76846 0
M  V30 3517 C 348.187 -3.33727 -2.74318 0
M  V30 3518 C 347.322 -3.46574 -4.02567 0
M  V30 3519 C 346.361 -4.68159 -3.94327 0
M  V30 3520 N 345.498 -4.77959 -5.14296 0
M  V30 3521 H 350.338 -2.74938 -1.14948 0
M  V30 3522 H 347.875 -1.36166 -0.556538 0
M  V30 3523 H 349.833 -2.1728 -3.56153 0
M  V30 3524 H 348.463 -1.1757 -3.00628 0
M  V30 3525 H 347.515 -3.31246 -1.8703 0
M  V30 3526 H 348.827 -4.23139 -2.64111 0
M  V30 3527 H 347.981 -3.57333 -4.90304 0
M  V30 3528 H 346.72 -2.55245 -4.15574 0
M  V30 3529 H 345.725 -4.57461 -3.04974 0
M  V30 3530 H 346.95 -5.60868 -3.82889 0
M  V30 3531 H 344.896 -3.89544 -5.27818 0
M  V30 3532 H 344.813 -5.6133 -5.06404 0
M  V30 3533 H 346.081 -4.93044 -6.03761 0
M  V30 3534 N 350.31 0.590341 -1.46126 0
M  V30 3535 C 351.24 1.71032 -1.58966 0
M  V30 3536 C 352.221 1.64302 -0.440335 0
M  V30 3537 O 353.406 1.82436 -0.665634 0
M  V30 3538 C 350.536 3.09665 -1.57241 0
M  V30 3539 C 349.49 3.31221 -2.71066 0
M  V30 3540 C 348.816 4.70303 -2.54399 0
M  V30 3541 C 350.116 3.19796 -4.1295 0
M  V30 3542 H 351.81 1.60543 -2.52718 0
M  V30 3543 H 349.356 0.770933 -1.21625 0
M  V30 3544 H 351.309 3.87831 -1.64819 0
M  V30 3545 H 350.033 3.21036 -0.600289 0
M  V30 3546 H 348.692 2.55452 -2.62944 0
M  V30 3547 H 348.34 4.78429 -1.55288 0
M  V30 3548 H 348.04 4.85679 -3.30741 0
M  V30 3549 H 349.564 5.50647 -2.63857 0
M  V30 3550 H 350.978 3.87815 -4.22223 0
M  V30 3551 H 349.375 3.46696 -4.89818 0
M  V30 3552 H 350.445 2.16983 -4.33643 0
M  V30 3553 N 351.788 1.33704 0.83433 0
M  V30 3554 C 353.013 1.28615 1.62705 0
M  V30 3555 C 353.438 -0.139242 1.87584 0
M  V30 3556 O 352.796 -1.09734 1.4432 0
M  V30 3557 C 352.844 2.07139 2.95171 0
M  V30 3558 O 351.948 1.4331 3.86699 0
M  V30 3559 H 351.289 0.44226 0.49528 0
M  V30 3560 H 353.819 1.76335 1.03766 0
M  V30 3561 H 353.829 2.18073 3.44831 0
M  V30 3562 H 352.504 3.10779 2.76386 0
M  V30 3563 H 351.081 1.4105 3.45195 0
M  V30 3564 N 353.266 -1.05314 1.17247 0
M  V30 3565 C 354.514 -1.77941 0.958194 0
M  V30 3566 C 354.835 -1.88089 -0.514556 0
M  V30 3567 O 354.105 -1.39676 -1.37359 0
M  V30 3568 H 352.685 -0.659116 0.351533 0
M  V30 3569 H 355.347 -1.27166 1.47699 0
M  V30 3570 H 354.443 -2.79663 1.38546 0
M  V30 3571 N 354.744 -0.972509 -1.24016 0
M  V30 3572 C 356.021 -0.553733 -1.87598 0
M  V30 3573 C 356.401 0.969158 -1.87538 0
M  V30 3574 O 355.749 1.84255 -1.35139 0
M  V30 3575 C 355.959 -1.15076 -3.29482 0
M  V30 3576 C 357.307 -1.23862 -4.06132 0
M  V30 3577 O 358.331 -1.10363 -3.38672 0
M  V30 3578 O 357.19 -1.45252 -5.26844 0
M  V30 3579 H 354.284 -0.185331 -0.805966 0
M  V30 3580 H 356.83 -1.06709 -1.31952 0
M  V30 3581 H 355.602 -2.19333 -3.2405 0
M  V30 3582 H 355.225 -0.621746 -3.92709 0
M  V30 3583 N 356.222 1.38976 -0.743202 0
M  V30 3584 C 357.468 2.0064 -0.295189 0
M  V30 3585 C 357.801 1.5885 1.11716 0
M  V30 3586 O 357.076 0.821181 1.76315 0
M  V30 3587 C 357.359 3.578 -0.406318 0
M  V30 3588 C 357.212 4.09586 -1.85903 0
M  V30 3589 C 358.531 4.39616 0.206439 0
M  V30 3590 H 355.65 0.728935 -0.108733 0
M  V30 3591 H 358.292 1.65067 -0.940897 0
M  V30 3592 H 356.442 3.88235 0.143419 0
M  V30 3593 H 358.114 3.89837 -2.46627 0
M  V30 3594 H 356.357 3.6284 -2.3776 0
M  V30 3595 H 357.028 5.18708 -1.888 0
M  V30 3596 H 359.504 4.15273 -0.262283 0
M  V30 3597 H 358.38 5.48812 0.0983819 0
M  V30 3598 H 358.641 4.22754 1.2935 0
M  V30 3599 N 357.7 0.491464 1.49741 0
M  V30 3600 C 358.63 -0.28154 2.31796 0
M  V30 3601 C 359.611 -0.971473 1.3963 0
M  V30 3602 O 360.796 -0.964719 1.68543 0
M  V30 3603 C 357.926 -1.35203 3.19902 0
M  V30 3604 C 356.88 -0.782529 4.20786 0
M  V30 3605 C 356.206 -1.95283 4.97764 0
M  V30 3606 C 357.506 0.21999 5.21837 0
M  V30 3607 H 359.2 0.403355 2.96671 0
M  V30 3608 H 356.746 0.195425 1.42668 0
M  V30 3609 H 358.699 -1.90045 3.76113 0
M  V30 3610 H 357.423 -2.06598 2.52953 0
M  V30 3611 H 356.082 -0.255928 3.65706 0
M  V30 3612 H 355.73 -2.65423 4.2727 0
M  V30 3613 H 355.43 -1.57789 5.66018 0
M  V30 3614 H 356.954 -2.50577 5.56816 0
M  V30 3615 H 358.368 -0.23996 5.72798 0
M  V30 3616 H 356.765 0.51026 5.97927 0
M  V30 3617 H 357.835 1.13911 4.7133 0
M  V30 3618 N 359.178 -1.55987 0.224894 0
M  V30 3619 C 360.418 -2.00293 -0.407706 0
M  V30 3620 C 360.782 -1.1093 -1.56711 0
M  V30 3621 O 361.983 -1.44597 -2.26595 0
M  V30 3622 C 360.254 -3.47675 -0.82805 0
M  V30 3623 S 361.813 -4.14 -1.45429 0
M  V30 3624 H 358.631 -0.699152 -0.129256 0
M  V30 3625 H 361.233 -1.92609 0.334967 0
M  V30 3626 H 359.937 -4.10392 0.0253964 0
M  V30 3627 H 359.468 -3.59239 -1.60345 0
M  V30 3628 H 361.483 -4.13465 -2.74337 0
M  V30 3629 N 360.656 0.0484629 -1.57525 0
M  V30 3630 C 362.067 0.597486 -1.76881 0
M  V30 3631 C 362.418 1.76664 -0.853475 0
M  V30 3632 O 361.543 2.16357 -0.0433656 0
M  V30 3633 C 362.138 1.09066 -3.20765 0
M  V30 3634 C 360.697 1.58535 -3.41385 0
M  V30 3635 C 359.844 0.514868 -2.72478 0
M  V30 3636 H 362.795 -0.177758 -1.57701 0
M  V30 3637 H 362.816 1.95875 -3.2621 0
M  V30 3638 H 362.328 0.239521 -3.8736 0
M  V30 3639 H 360.429 2.45898 -2.79937 0
M  V30 3640 H 360.542 1.64622 -4.49929 0
M  V30 3641 H 358.906 0.965407 -2.35695 0
M  V30 3642 H 359.689 -0.32648 -3.41744 0
M  V30 3643 N 362.134 1.5431 0.320358 0
M  V30 3644 C 363.374 1.74395 1.0661 0
M  V30 3645 C 363.738 0.508602 1.85141 0
M  V30 3646 O 364.939 0.586856 2.62316 0
M  V30 3647 C 363.21 2.98619 1.96371 0
M  V30 3648 S 364.769 3.39621 2.77854 0
M  V30 3649 H 361.587 0.613204 0.359863 0
M  V30 3650 H 364.189 1.9249 0.341727 0
M  V30 3651 H 362.893 3.86673 1.3752 0
M  V30 3652 H 362.424 2.83055 2.73209 0
M  V30 3653 H 364.439 2.95172 3.98858 0
M  V30 3654 N 363.613 -0.582584 1.46437 0
M  V30 3655 C 365.024 -1.1647 1.45916 0
M  V30 3656 C 365.375 -1.95177 0.200077 0
M  V30 3657 O 364.5 -2.04874 -0.696819 0
M  V30 3658 C 365.095 -2.11885 2.64367 0
M  V30 3659 C 363.654 -2.65421 2.66887 0
M  V30 3660 C 362.801 -1.41294 2.38603 0
M  V30 3661 H 365.752 -0.370514 1.54314 0
M  V30 3662 H 365.773 -2.9535 2.39892 0
M  V30 3663 H 365.285 -1.54573 3.5599 0
M  V30 3664 H 363.386 -3.26602 1.79338 0
M  V30 3665 H 363.499 -3.08147 3.66854 0
M  V30 3666 H 361.863 -1.71109 1.88663 0
M  V30 3667 H 362.646 -0.858125 3.32402 0
M  V30 3668 N 365.091 -1.34144 -0.827227 0
M  V30 3669 C 366.339 -1.26009 -1.58007 0
M  V30 3670 C 366.66 0.170971 -1.94249 0
M  V30 3671 O 365.93 1.10256 -1.61927 0
M  V30 3672 H 364.51 -0.463414 -0.585881 0
M  V30 3673 H 367.172 -1.68005 -0.987951 0
M  V30 3674 H 366.268 -1.86187 -2.50481 0
M  V30 3675 N 366.569 1.04691 -1.17803 0
M  V30 3676 C 367.985 1.29963 -0.926379 0
M  V30 3677 C 368.185 1.97251 0.411635 0
M  V30 3678 O 367.241 2.24922 1.14744 0
M  V30 3679 C 368.554 2.16447 -2.08737 0
M  V30 3680 C 370.102 2.29814 -2.12496 0
M  V30 3681 C 370.577 3.19661 -3.27995 0
M  V30 3682 N 372.068 3.27247 -3.27816 0
M  V30 3683 C 372.803 3.96906 -4.13827 0
M  V30 3684 N 372.299 4.6895 -5.09959 0
M  V30 3685 N 374.092 3.93122 -4.01761 0
M  V30 3686 H 366.243 0.594182 -2.0392 0
M  V30 3687 H 368.506 0.324649 -0.890678 0
M  V30 3688 H 368.212 1.74304 -3.05469 0
M  V30 3689 H 368.086 3.17103 -2.04268 0
M  V30 3690 H 370.473 2.71196 -1.16347 0
M  V30 3691 H 370.554 1.2877 -2.21025 0
M  V30 3692 H 370.198 2.78991 -4.24413 0
M  V30 3693 H 370.128 4.20722 -3.16703 0
M  V30 3694 H 372.619 2.75921 -2.58217 0
M  V30 3695 H 372.932 5.19679 -5.71974 0
M  V30 3696 H 371.277 4.67875 -5.13924 0
M  V30 3697 H 374.468 3.35967 -3.2595 0
M  V30 3698 H 374.641 4.47139 -4.6901 0
M  V30 3699 N 368.047 0.979072 1.23499 0
M  V30 3700 C 369.277 0.664237 1.95631 0
M  V30 3701 C 369.685 -0.772653 1.72704 0
M  V30 3702 O 369.028 -1.53141 1.01457 0
M  V30 3703 C 369.09 0.873115 3.48736 0
M  V30 3704 C 368.754 2.29182 3.95379 0
M  V30 3705 C 369.751 3.2704 4.04155 0
M  V30 3706 C 367.436 2.62256 4.28401 0
M  V30 3707 C 369.43 4.56052 4.45304 0
M  V30 3708 C 367.117 3.91491 4.69231 0
M  V30 3709 C 368.115 4.88201 4.77649 0
M  V30 3710 O 367.803 6.15129 5.17563 0
M  V30 3711 H 367.535 0.245915 0.629684 0
M  V30 3712 H 370.089 1.3127 1.57979 0
M  V30 3713 H 368.319 0.167476 3.86337 0
M  V30 3714 H 370.008 0.555642 4.02079 0
M  V30 3715 H 370.774 3.02819 3.78848 0
M  V30 3716 H 366.653 1.87692 4.21061 0
M  V30 3717 H 370.197 5.31538 4.51789 0
M  V30 3718 H 366.094 4.15508 4.93987 0
M  V30 3719 H 366.862 6.18862 5.35679 0
M  V30 3720 N 369.525 -1.3858 0.750561 0
M  V30 3721 C 370.455 -2.33102 0.136237 0
M  V30 3722 C 371.436 -1.54713 -0.706965 0
M  V30 3723 O 372.621 -1.83043 -0.648769 0
M  V30 3724 C 369.751 -3.38882 -0.760017 0
M  V30 3725 C 368.705 -4.27995 -0.0197785 0
M  V30 3726 C 368.031 -5.24605 -1.03408 0
M  V30 3727 C 369.331 -5.09554 1.14684 0
M  V30 3728 H 371.025 -2.84726 0.925822 0
M  V30 3729 H 368.571 -1.36898 0.446654 0
M  V30 3730 H 370.524 -4.0397 -1.19943 0
M  V30 3731 H 369.248 -2.85734 -1.58189 0
M  V30 3732 H 367.907 -3.64409 0.400184 0
M  V30 3733 H 367.555 -4.67746 -1.84994 0
M  V30 3734 H 367.255 -5.85081 -0.543464 0
M  V30 3735 H 368.779 -5.9257 -1.47288 0
M  V30 3736 H 370.193 -5.67899 0.785118 0
M  V30 3737 H 368.59 -5.7925 1.56812 0
M  V30 3738 H 369.66 -4.4347 1.96118 0
M  V30 3739 N 371.003 -0.499398 -1.49478 0
M  V30 3740 C 372.419 -0.155261 -1.58843 0
M  V30 3741 C 372.619 1.34008 -1.50479 0
M  V30 3742 O 371.675 2.11589 -1.37791 0
M  V30 3743 C 372.988 -0.730636 -2.91689 0
M  V30 3744 C 374.536 -0.696599 -3.0515 0
M  V30 3745 C 375.011 -1.25001 -4.40612 0
M  V30 3746 N 376.502 -1.21064 -4.47099 0
M  V30 3747 C 377.237 -1.60905 -5.50361 0
M  V30 3748 N 376.733 -2.08331 -6.60735 0
M  V30 3749 N 378.526 -1.52331 -5.41065 0
M  V30 3750 H 370.677 -1.47162 -1.53158 0
M  V30 3751 H 372.94 -0.610309 -0.725415 0
M  V30 3752 H 372.646 -1.77928 -3.03372 0
M  V30 3753 H 372.52 -0.190161 -3.7672 0
M  V30 3754 H 374.907 0.343204 -2.93097 0
M  V30 3755 H 374.988 -1.2742 -2.21806 0
M  V30 3756 H 374.632 -2.28859 -4.53416 0
M  V30 3757 H 374.562 -0.64836 -5.22593 0
M  V30 3758 H 377.053 -0.863128 -3.67911 0
M  V30 3759 H 377.366 -2.36805 -7.35624 0
M  V30 3760 H 375.711 -2.12304 -6.6178 0
M  V30 3761 H 378.902 -1.151 -4.53729 0
M  V30 3762 H 379.075 -1.83704 -6.21415 0
M  V30 3763 N 372.481 1.55866 -0.233164 0
M  V30 3764 C 373.444 2.1953 0.658715 0
M  V30 3765 C 374.444 1.16053 1.11303 0
M  V30 3766 O 375.634 1.41218 1.01996 0
M  V30 3767 C 372.766 2.82791 1.90373 0
M  V30 3768 H 373.959 2.99721 0.10347 0
M  V30 3769 H 371.512 1.56291 0.0164245 0
M  V30 3770 H 372.247 2.06501 2.50056 0
M  V30 3771 H 372.032 3.58578 1.58632 0
M  V30 3772 H 373.522 3.31556 2.53891 0
M  V30 3773 N 373.959 -0.0401083 1.57549 0
M  V30 3774 C 375.207 -0.731677 1.8839 0
M  V30 3775 C 375.528 -1.76481 0.829425 0
M  V30 3776 O 374.798 -1.95411 -0.1383 0
M  V30 3777 H 373.378 -0.273225 0.695239 0
M  V30 3778 H 376.04 -0.00867725 1.94898 0
M  V30 3779 H 375.136 -1.22816 2.86919 0
M  V30 3780 N 375.437 -1.54477 -0.31217 0
M  V30 3781 C 376.384 -1.84655 -1.38461 0
M  V30 3782 C 377.354 -0.694536 -1.50882 0
M  V30 3783 O 378.539 -0.942081 -1.6592 0
M  V30 3784 C 375.679 -2.0896 -2.74645 0
M  V30 3785 C 374.792 -3.36618 -2.70763 0
M  V30 3786 C 373.927 -3.50824 -3.98868 0
M  V30 3787 C 372.966 -4.72315 -3.89339 0
M  V30 3788 N 372.103 -4.83387 -5.09197 0
M  V30 3789 H 376.943 -2.76142 -1.12026 0
M  V30 3790 H 374.48 -1.36748 -0.542065 0
M  V30 3791 H 376.438 -2.21045 -3.53829 0
M  V30 3792 H 375.068 -1.20752 -2.99364 0
M  V30 3793 H 374.12 -3.33211 -1.83506 0
M  V30 3794 H 375.432 -4.25917 -2.59608 0
M  V30 3795 H 374.586 -3.62513 -4.86486 0
M  V30 3796 H 373.325 -2.59638 -4.12843 0
M  V30 3797 H 372.33 -4.6067 -3.00105 0
M  V30 3798 H 373.555 -5.64897 -3.76919 0
M  V30 3799 H 371.501 -3.9512 -5.23657 0
M  V30 3800 H 371.418 -5.66669 -5.00422 0
M  V30 3801 H 372.686 -4.9942 -5.98498 0
M  V30 3802 N 376.915 0.57481 -1.46744 0
M  V30 3803 C 378.155 1.34369 -1.54027 0
M  V30 3804 C 378.519 1.91051 -0.190642 0
M  V30 3805 O 379.72 2.68444 -0.138255 0
M  V30 3806 C 377.991 2.43706 -2.61423 0
M  V30 3807 S 379.55 3.30915 -2.88167 0
M  V30 3808 H 376.368 0.45768 -0.544105 0
M  V30 3809 H 378.97 0.659959 -1.84024 0
M  V30 3810 H 377.674 2.0047 -3.58106 0
M  V30 3811 H 377.205 3.16842 -2.33184 0
M  V30 3812 H 379.22 4.42742 -2.24039 0
M  V30 3813 N 378.394 1.34581 0.820102 0
M  V30 3814 C 379.357 1.2628 1.91275 0
M  V30 3815 C 380.357 0.177344 1.59819 0
M  V30 3816 O 381.547 0.430156 1.68806 0
M  V30 3817 C 378.679 0.950327 3.27386 0
M  V30 3818 H 379.872 2.23421 2.00057 0
M  V30 3819 H 377.425 1.1891 1.0144 0
M  V30 3820 H 378.16 -0.0177938 3.24295 0
M  V30 3821 H 377.945 1.73549 3.51601 0
M  V30 3822 H 379.435 0.917492 4.07396 0
M  V30 3823 N 379.872 -1.04064 1.18357 0
M  V30 3824 C 380.782 -2.15569 0.925596 0
M  V30 3825 C 381.798 -1.7365 -0.110295 0
M  V30 3826 O 382.974 -2.01273 0.0716218 0
M  V30 3827 C 380.039 -3.43704 0.454836 0
M  V30 3828 C 379.1 -4.00004 1.55869 0
M  V30 3829 C 378.333 -5.22023 1.1103 0
M  V30 3830 O 378.556 -5.70392 -0.0309756 0
M  V30 3831 O 377.49 -5.70856 1.90805 0
M  V30 3832 H 381.316 -2.40187 1.8586 0
M  V30 3833 H 378.901 -1.1402 0.965394 0
M  V30 3834 H 380.783 -4.20923 0.200382 0
M  V30 3835 H 379.458 -3.20559 -0.449876 0
M  V30 3836 H 378.365 -3.24172 1.86716 0
M  V30 3837 H 379.698 -4.2749 2.43953 0
M  V30 3838 N 381.35 -0.985608 -1.22978 0
M  V30 3839 C 382.28 -0.549649 -2.26939 0
M  V30 3840 C 383.261 0.419803 -1.64838 0
M  V30 3841 O 384.446 0.31203 -1.91677 0
M  V30 3842 C 381.576 0.143652 -3.47003 0
M  V30 3843 C 380.53 -0.743606 -4.21491 0
M  V30 3844 C 379.856 0.0822027 -5.34637 0
M  V30 3845 C 381.156 -2.03694 -4.80943 0
M  V30 3846 H 382.85 -1.41862 -2.63658 0
M  V30 3847 H 380.396 -0.683571 -1.26741 0
M  V30 3848 H 382.349 0.459985 -4.18882 0
M  V30 3849 H 381.073 1.04711 -3.09359 0
M  V30 3850 H 379.732 -1.04347 -3.51436 0
M  V30 3851 H 379.38 0.986359 -4.93234 0
M  V30 3852 H 379.08 -0.508377 -5.85397 0
M  V30 3853 H 380.604 0.392797 -6.09335 0
M  V30 3854 H 382.018 -1.78504 -5.44802 0
M  V30 3855 H 380.415 -2.57573 -5.42011 0
M  V30 3856 H 381.485 -2.72042 -4.01399 0
M  V30 3857 N 382.828 1.3818 -0.7579 0
M  V30 3858 C 384.239 1.82726 -0.383134 0
M  V30 3859 C 384.59 1.63214 1.08884 0
M  V30 3860 O 383.715 1.13566 1.84205 0
M  V30 3861 C 384.31 3.31728 -0.688631 0
M  V30 3862 C 382.869 3.74606 -0.367091 0
M  V30 3863 C 382.016 2.60896 -0.939599 0
M  V30 3864 H 384.967 1.26847 -0.953699 0
M  V30 3865 H 384.988 3.80487 0.0316492 0
M  V30 3866 H 384.5 3.45898 -1.76001 0
M  V30 3867 H 382.601 3.66013 0.697532 0
M  V30 3868 H 382.714 4.71215 -0.865658 0
M  V30 3869 H 381.078 2.52075 -0.3647 0
M  V30 3870 H 381.861 2.77864 -2.0161 0
M  V30 3871 N 384.306 0.507319 1.49211 0
M  V30 3872 C 385.254 -0.281364 2.30892 0
M  V30 3873 C 386.248 -0.95687 1.39787 0
M  V30 3874 O 387.454 -0.883838 1.56807 0
M  V30 3875 H 383.829 -0.109597 0.743971 0
M  V30 3876 H 385.8 0.42744 2.95323 0
M  V30 3877 C 384.549 -1.32918 3.21291 0
M  V30 3878 H 383.872 -0.818799 3.91326 0
M  V30 3879 H 385.312 -1.85288 3.81372 0
M  V30 3880 C 383.771 -2.35074 2.41333 0
M  V30 3881 O 384.301 -3.4108 2.12197 0
M  V30 3882 N 382.507 -2.07705 2.03241 0
M  V30 3883 H 382.054 -1.2152 2.27136 0
M  V30 3884 H 382.012 -2.76283 1.50051 0
M  V30 3885 N 385.784 -1.5574 0.241426 0
M  V30 3886 C 387.024 -2.00714 -0.38644 0
M  V30 3887 C 387.388 -1.12586 -1.55526 0
M  V30 3888 O 388.589 -1.46992 -2.25048 0
M  V30 3889 C 386.86 -3.48534 -0.791128 0
M  V30 3890 S 388.419 -4.15519 -1.41029 0
M  V30 3891 H 385.237 -0.700484 -0.121834 0
M  V30 3892 H 387.839 -1.92243 0.355377 0
M  V30 3893 H 386.543 -4.10342 0.0689225 0
M  V30 3894 H 386.074 -3.6092 -1.56526 0
M  V30 3895 H 388.089 -4.16352 -2.69936 0
M  V30 3896 N 387.262 0.0317525 -1.57568 0
M  V30 3897 C 388.192 1.03274 -2.0942 0
M  V30 3898 C 389.173 1.3788 -0.996143 0
M  V30 3899 O 390.358 1.46811 -1.27122 0
M  V30 3900 C 387.488 2.33448 -2.57137 0
M  V30 3901 C 386.442 2.13091 -3.71182 0
M  V30 3902 C 385.768 3.49001 -4.05095 0
M  V30 3903 C 387.068 1.51928 -4.99715 0
M  V30 3904 H 388.762 0.60112 -2.93303 0
M  V30 3905 H 386.308 0.287705 -1.41097 0
M  V30 3906 H 388.261 3.03802 -2.92032 0
M  V30 3907 H 386.985 2.78665 -1.70333 0
M  V30 3908 H 385.644 1.45171 -3.36632 0
M  V30 3909 H 385.292 3.91862 -3.15362 0
M  V30 3910 H 384.992 3.36207 -4.81911 0
M  V30 3911 H 386.516 4.20721 -4.42522 0
M  V30 3912 H 387.93 2.12196 -5.32584 0
M  V30 3913 H 386.327 1.49716 -5.81124 0
M  V30 3914 H 387.397 0.484811 -4.8247 0
M  V30 3915 N 388.74 1.54641 0.303973 0
M  V30 3916 C 390.017 1.64455 1.05896 0
M  V30 3917 C 390.397 0.490923 2.05312 0
M  V30 3918 O 389.745 -0.512685 2.22674 0
M  V30 3919 C 389.955 3.02331 1.74347 0
M  V30 3920 C 391.303 3.59045 2.26653 0
M  V30 3921 O 392.327 3.04764 1.84384 0
M  V30 3922 O 391.186 4.54081 3.04093 0
M  V30 3923 H 388.28 0.666729 0.489287 0
M  V30 3924 H 390.826 1.66986 0.302298 0
M  V30 3925 H 389.598 3.77734 1.02142 0
M  V30 3926 H 389.221 3.03565 2.56777 0
M  V30 3927 N 390.218 -0.567019 1.47046 0
M  V30 3928 C 391.495 -1.3276 1.43646 0
M  V30 3929 C 391.875 -2.1071 0.128186 0
M  V30 3930 O 391.223 -2.10441 -0.890326 0
M  V30 3931 C 391.433 -2.2404 2.67595 0
M  V30 3932 C 392.781 -2.85372 3.14401 0
M  V30 3933 O 393.805 -2.34346 2.68254 0
M  V30 3934 O 392.664 -3.78091 3.946 0
M  V30 3935 H 389.758 -0.597293 0.571988 0
M  V30 3936 H 392.304 -0.586735 1.59234 0
M  V30 3937 H 391.076 -1.65975 3.54356 0
M  V30 3938 H 390.699 -3.05439 2.54544 0
M  V30 3939 N 391.696 -1.35014 -0.812953 0
M  V30 3940 C 392.626 -1.30069 -1.93919 0
M  V30 3941 C 393.607 -0.176275 -1.69184 0
M  V30 3942 O 394.792 -0.370227 -1.90638 0
M  V30 3943 C 391.922 -1.06547 -3.30552 0
M  V30 3944 C 390.876 -2.15561 -3.69753 0
M  V30 3945 C 390.202 -1.77214 -5.04479 0
M  V30 3946 C 391.502 -3.57476 -3.808 0
M  V30 3947 H 393.196 -2.24303 -1.98314 0
M  V30 3948 H 390.742 -1.07977 -0.952736 0
M  V30 3949 H 392.695 -1.01729 -4.08937 0
M  V30 3950 H 391.419 -0.0875719 -3.26483 0
M  V30 3951 H 390.078 -2.19466 -2.9365 0
M  V30 3952 H 389.726 -0.780589 -4.96906 0
M  V30 3953 H 389.426 -2.50184 -5.31678 0
M  V30 3954 H 390.95 -1.7391 -5.8531 0
M  V30 3955 H 392.364 -3.55929 -4.4943 0
M  V30 3956 H 390.761 -4.29152 -4.19462 0
M  V30 3957 H 391.831 -3.94091 -2.82525 0
M  V30 3958 N 393.175 1.03435 -1.18907 0
M  V30 3959 C 394.423 1.76394 -0.986382 0
M  V30 3960 C 394.744 1.88883 0.484567 0
M  V30 3961 O 394.014 1.41843 1.3512 0
M  V30 3962 H 392.594 0.65344 -0.361975 0
M  V30 3963 H 395.256 1.248 -1.49703 0
M  V30 3964 H 394.352 2.77424 -1.42978 0
M  V30 3965 N 394.653 0.992116 1.22453 0
M  V30 3966 C 395.901 0.666215 1.90804 0
M  V30 3967 C 396.222 -0.804152 1.77647 0
M  V30 3968 O 395.492 -1.57629 1.16318 0
M  V30 3969 H 394.072 0.243423 0.706225 0
M  V30 3970 H 396.734 1.25845 1.48825 0
M  V30 3971 H 395.83 0.928069 2.97982 0
M  V30 3972 N 396.131 -1.37776 0.765217 0
M  V30 3973 C 397.378 -1.99849 0.326588 0
M  V30 3974 C 397.706 -1.60746 -1.09504 0
M  V30 3975 O 396.961 -0.84202 -1.76659 0
M  V30 3976 C 397.26 -3.5504 0.410053 0
M  V30 3977 C 396.926 -4.13891 1.78899 0
M  V30 3978 C 395.588 -4.29678 2.16635 0
M  V30 3979 C 397.94 -4.46236 2.69301 0
M  V30 3980 C 395.268 -4.7511 3.44221 0
M  V30 3981 C 397.62 -4.93089 3.9629 0
M  V30 3982 C 396.284 -5.07082 4.34078 0
M  V30 3983 H 395.554 -0.7313 0.119507 0
M  V30 3984 H 398.201 -1.64645 0.977968 0
M  V30 3985 H 396.506 -3.90451 -0.324878 0
M  V30 3986 H 398.203 -4.00966 0.0520699 0
M  V30 3987 H 394.793 -4.02026 1.48569 0
M  V30 3988 H 398.977 -4.3363 2.41409 0
M  V30 3989 H 394.233 -4.84129 3.73402 0
M  V30 3990 H 398.407 -5.17084 4.66472 0
M  V30 3991 H 396.034 -5.42046 5.33001 0
M  V30 3992 N 397.609 -0.515225 -1.4894 0
M  V30 3993 C 398.572 0.244681 -2.2789 0
M  V30 3994 C 399.572 0.881166 -1.34507 0
M  V30 3995 O 400.762 0.743497 -1.57537 0
M  V30 3996 C 397.894 1.35247 -3.12923 0
M  V30 3997 H 399.087 -0.448289 -2.96531 0
M  V30 3998 H 396.64 -0.270656 -1.53939 0
M  V30 3999 H 397.375 2.07916 -2.48881 0
M  V30 4000 H 397.16 0.901374 -3.81599 0
M  V30 4001 H 398.65 1.88737 -3.72516 0
M  V30 4002 N 399.087 1.5561 -0.249682 0
M  V30 4003 C 400.327 2.00916 0.37579 0
M  V30 4004 C 400.691 1.13409 1.54927 0
M  V30 4005 O 401.892 1.48183 2.24266 0
M  V30 4006 C 400.163 3.48949 0.772633 0
M  V30 4007 S 401.722 4.16261 1.38824 0
M  V30 4008 H 398.54 0.70112 0.118117 0
M  V30 4009 H 401.142 1.92052 -0.365567 0
M  V30 4010 H 399.846 4.103 -0.090683 0
M  V30 4011 H 399.377 3.61745 1.5461 0
M  V30 4012 H 401.392 4.17778 2.67724 0
M  V30 4013 N 400.565 -0.0233959 1.57583 0
M  V30 4014 C 401.475 -1.03907 2.10334 0
M  V30 4015 C 402.491 -1.39257 1.04323 0
M  V30 4016 O 403.667 -1.48462 1.36091 0
M  V30 4017 C 400.732 -2.31938 2.57693 0
M  V30 4018 C 399.793 -2.03117 3.78209 0
M  V30 4019 C 399.026 -3.25043 4.233 0
M  V30 4020 O 399.249 -4.35916 3.67876 0
M  V30 4021 O 398.183 -3.10411 5.15683 0
M  V30 4022 H 402.009 -0.620748 2.97288 0
M  V30 4023 H 399.594 -0.240743 1.47448 0
M  V30 4024 H 401.476 -3.07196 2.88458 0
M  V30 4025 H 400.151 -2.73055 1.73847 0
M  V30 4026 H 399.058 -1.25408 3.52454 0
M  V30 4027 H 400.391 -1.66852 4.63056 0
M  V30 4028 N 402.043 -1.548 -0.295768 0
M  V30 4029 C 403.283 -1.76069 -1.03823 0
M  V30 4030 C 403.647 -0.537992 -1.84309 0
M  V30 4031 O 404.848 -0.628514 -2.61349 0
M  V30 4032 C 403.119 -3.01705 -1.91596 0
M  V30 4033 S 404.678 -3.43998 -2.72416 0
M  V30 4034 H 401.496 -0.618852 -0.350062 0
M  V30 4035 H 404.098 -1.93009 -0.31106 0
M  V30 4036 H 402.802 -3.88812 -1.31351 0
M  V30 4037 H 402.333 -2.87366 -2.68671 0
M  V30 4038 H 404.348 -3.0148 -3.94112 0
M  V30 4039 N 403.521 0.559213 -1.47345 0
M  V30 4040 C 404.484 1.64854 -1.59235 0
M  V30 4041 C 405.484 1.53851 -0.467607 0
M  V30 4042 O 406.674 1.58045 -0.732617 0
M  V30 4043 C 403.806 3.04388 -1.53496 0
M  V30 4044 H 404.999 1.55662 -2.56339 0
M  V30 4045 H 402.552 0.778973 -1.35505 0
M  V30 4046 H 403.287 3.19115 -0.577604 0
M  V30 4047 H 403.072 3.13783 -2.35123 0
M  V30 4048 H 404.562 3.83642 -1.6495 0
M  V30 4049 N 404.999 1.35443 0.805782 0
M  V30 4050 C 406.227 1.31878 1.59423 0
M  V30 4051 C 406.642 -0.103562 1.88516 0
M  V30 4052 O 405.999 -1.05575 1.48863 0
M  V30 4053 C 406.05 2.12426 2.92502 0
M  V30 4054 O 405.771 3.49115 2.6467 0
M  V30 4055 C 407.272 2.16455 3.86862 0
M  V30 4056 H 404.492 0.453002 0.495005 0
M  V30 4057 H 407.036 1.78309 1.00131 0
M  V30 4058 H 405.191 1.69593 3.48306 0
M  V30 4059 H 405.605 3.90957 3.49647 0
M  V30 4060 H 407.079 2.77204 4.77349 0
M  V30 4061 H 407.556 1.16352 4.23508 0
M  V30 4062 H 408.162 2.59453 3.36993 0
M  V30 4063 N 406.477 -1.02803 1.19454 0
M  V30 4064 C 407.725 -1.75869 0.995722 0
M  V30 4065 C 408.046 -1.89138 -0.474543 0
M  V30 4066 O 407.316 -1.42558 -1.34366 0
M  V30 4067 H 405.896 -0.651511 0.365435 0
M  V30 4068 H 408.558 -1.24004 1.50363 0
M  V30 4069 H 407.654 -2.76661 1.44447 0
M  V30 4070 N 407.956 -0.998596 -1.21925 0
M  V30 4071 C 409.203 -0.677663 -1.90824 0
M  V30 4072 C 409.531 0.790905 -1.77693 0
M  V30 4073 O 408.786 1.58817 -1.14349 0
M  V30 4074 C 409.085 -1.03648 -3.42041 0
M  V30 4075 C 408.751 -2.49825 -3.75364 0
M  V30 4076 C 407.413 -2.8977 -3.8417 0
M  V30 4077 C 409.765 -3.44545 -3.91073 0
M  V30 4078 C 407.093 -4.23412 -4.06127 0
M  V30 4079 C 409.445 -4.77853 -4.14535 0
M  V30 4080 C 408.109 -5.17531 -4.21566 0
M  V30 4081 H 407.379 -0.247975 -0.698276 0
M  V30 4082 H 410.026 -1.25584 -1.44571 0
M  V30 4083 H 408.331 -0.376457 -3.89987 0
M  V30 4084 H 410.028 -0.766113 -3.93614 0
M  V30 4085 H 406.618 -2.17866 -3.69097 0
M  V30 4086 H 410.802 -3.14853 -3.83642 0
M  V30 4087 H 406.058 -4.53734 -4.09799 0
M  V30 4088 H 410.232 -5.51189 -4.25633 0
M  V30 4089 H 407.859 -6.21102 -4.38333 0
M  V30 4090 N 409.434 1.37368 -0.772513 0
M  V30 4091 C 410.344 2.34053 -0.160081 0
M  V30 4092 C 411.36 1.60216 0.678728 0
M  V30 4093 O 412.536 1.92303 0.59847 0
M  V30 4094 C 409.601 3.3939 0.708182 0
M  V30 4095 C 408.662 4.29048 -0.147172 0
M  V30 4096 C 407.895 5.29354 0.679744 0
M  V30 4097 O 408.118 5.3723 1.91678 0
M  V30 4098 O 407.052 6.01835 0.0885444 0
M  V30 4099 H 410.878 2.88159 -0.959053 0
M  V30 4100 H 408.463 1.39543 -0.533685 0
M  V30 4101 H 410.345 4.03839 1.20384 0
M  V30 4102 H 409.02 2.8761 1.48533 0
M  V30 4103 H 407.927 3.67697 -0.689205 0
M  V30 4104 H 409.26 4.84134 -0.887423 0
M  V30 4105 N 410.912 0.523116 1.48665 0
M  V30 4106 C 411.842 -0.23231 2.32342 0
M  V30 4107 C 412.823 -0.941637 1.41659 0
M  V30 4108 O 414.008 -0.928751 1.70552 0
M  V30 4109 C 411.138 -1.28387 3.22698 0
M  V30 4110 C 410.092 -0.693098 4.22351 0
M  V30 4111 C 409.418 -1.8468 5.01794 0
M  V30 4112 C 410.718 0.33063 5.21252 0
M  V30 4113 H 412.412 0.466192 2.95748 0
M  V30 4114 H 409.958 0.225643 1.42221 0
M  V30 4115 H 411.911 -1.82024 3.80059 0
M  V30 4116 H 410.635 -2.01186 2.57278 0
M  V30 4117 H 409.294 -0.178299 3.66166 0
M  V30 4118 H 408.942 -2.56301 4.32804 0
M  V30 4119 H 408.642 -1.45747 5.69238 0
M  V30 4120 H 410.166 -2.38709 5.62006 0
M  V30 4121 H 411.58 -0.118407 5.73178 0
M  V30 4122 H 409.977 0.636974 5.9671 0
M  V30 4123 H 411.047 1.23883 4.68808 0
M  V30 4124 N 412.39 -1.55475 0.257931 0
M  V30 4125 C 413.638 -1.98813 -0.363009 0
M  V30 4126 C 413.959 -1.14757 -1.57657 0
M  V30 4127 O 413.229 -0.232956 -1.9451 0
M  V30 4128 H 411.809 -0.734308 -0.137113 0
M  V30 4129 H 414.471 -1.9156 0.359281 0
M  V30 4130 H 413.567 -3.04941 -0.664634 0
M  V30 4131 N 413.868 0.0150385 -1.57593 0
M  V30 4132 C 414.815 1.01126 -2.07466 0
M  V30 4133 C 415.785 1.35064 -0.966794 0
M  V30 4134 O 416.97 1.4516 -1.23827 0
M  V30 4135 C 414.11 2.30276 -2.57035 0
M  V30 4136 C 413.223 2.02373 -3.81666 0
M  V30 4137 C 412.358 3.25496 -4.19793 0
M  V30 4138 C 411.397 2.93211 -5.37303 0
M  V30 4139 N 410.534 4.08826 -5.70794 0
M  V30 4140 H 415.374 0.57901 -2.92321 0
M  V30 4141 H 412.911 0.27426 -1.44521 0
M  V30 4142 H 414.869 3.05757 -2.83846 0
M  V30 4143 H 413.499 2.71197 -1.75077 0
M  V30 4144 H 412.551 1.17327 -3.61854 0
M  V30 4145 H 413.863 1.74567 -4.67256 0
M  V30 4146 H 413.017 4.09333 -4.47807 0
M  V30 4147 H 411.756 3.56428 -3.32882 0
M  V30 4148 H 410.761 2.07777 -5.09027 0
M  V30 4149 H 411.986 2.63542 -6.25877 0
M  V30 4150 H 409.932 4.39682 -4.86842 0
M  V30 4151 H 409.849 3.84491 -6.50924 0
M  V30 4152 H 411.117 4.93496 -6.03392 0
M  V30 4153 N 415.346 1.54954 0.287554 0
M  V30 4154 C 416.623 1.65569 1.04146 0
M  V30 4155 C 417.003 0.512672 2.0478 0
M  V30 4156 O 416.351 -0.489038 2.23205 0
M  V30 4157 C 416.561 3.04163 1.71131 0
M  V30 4158 C 417.909 3.61429 2.22832 0
M  V30 4159 O 418.933 3.06702 1.81141 0
M  V30 4160 O 417.792 4.57281 2.9926 0
M  V30 4161 H 414.886 0.671881 0.482188 0
M  V30 4162 H 417.432 1.67297 0.28457 0
M  V30 4163 H 416.204 3.78796 0.981303 0
M  V30 4164 H 415.827 3.06271 2.53543 0
M  V30 4165 N 416.824 -0.551391 1.4764 0
M  V30 4166 C 418.072 -1.30572 1.54258 0
M  V30 4167 C 418.393 -1.93877 0.208963 0
M  V30 4168 O 417.663 -1.80234 -0.767619 0
M  V30 4169 H 416.243 -0.484894 0.568231 0
M  V30 4170 H 418.905 -0.643402 1.83974 0
M  V30 4171 H 418.001 -2.09621 2.31226 0
M  V30 4172 N 418.302 -1.35869 -0.798587 0
M  V30 4173 C 419.718 -1.16082 -1.09532 0
M  V30 4174 C 419.918 0.0213124 -2.01489 0
M  V30 4175 O 418.974 0.689488 -2.42904 0
M  V30 4176 C 420.287 -2.46748 -1.7186 0
M  V30 4177 C 421.835 -2.53028 -1.84244 0
M  V30 4178 C 422.31 -3.83758 -2.49988 0
M  V30 4179 N 423.801 -3.85053 -2.57465 0
M  V30 4180 C 424.536 -4.8294 -3.09122 0
M  V30 4181 N 424.032 -5.91217 -3.61157 0
M  V30 4182 N 425.825 -4.70369 -3.0775 0
M  V30 4183 H 417.976 -2.11571 -0.187461 0
M  V30 4184 H 420.239 -0.936726 -0.145765 0
M  V30 4185 H 419.945 -3.33471 -1.11759 0
M  V30 4186 H 419.819 -2.61883 -2.71472 0
M  V30 4187 H 422.206 -1.66729 -2.43486 0
M  V30 4188 H 422.287 -2.418 -0.834643 0
M  V30 4189 H 421.931 -4.70459 -1.91393 0
M  V30 4190 H 421.861 -3.92278 -3.5132 0
M  V30 4191 H 424.352 -3.06822 -2.20609 0
M  V30 4192 H 424.665 -6.61892 -3.98896 0
M  V30 4193 H 423.01 -5.94899 -3.59333 0
M  V30 4194 H 426.201 -3.84914 -2.66381 0
M  V30 4195 H 426.374 -5.46816 -3.47701 0
M  V30 4196 N 419.78 1.02168 -1.19998 0
M  V30 4197 C 421.005 1.79833 -1.03319 0
M  V30 4198 C 421.43 1.83504 0.413281 0
M  V30 4199 O 420.788 1.26635 1.29743 0
M  V30 4200 C 420.836 3.22396 -1.61533 0
M  V30 4201 O 419.94 4.03555 -0.849519 0
M  V30 4202 H 419.281 0.554872 -0.364709 0
M  V30 4203 H 421.811 1.28542 -1.59179 0
M  V30 4204 H 421.821 3.73124 -1.65054 0
M  V30 4205 H 420.496 3.19039 -2.66809 0
M  V30 4206 H 419.073 3.62169 -0.888129 0
M  V30 4207 N 421.258 1.00505 1.21394 0
M  V30 4208 C 422.498 0.696149 1.9218 0
M  V30 4209 C 422.862 -0.759099 1.76357 0
M  V30 4210 O 424.063 -1.17998 2.41516 0
M  V30 4211 C 422.334 1.10571 3.39866 0
M  V30 4212 S 423.893 0.91702 4.29111 0
M  V30 4213 H 420.711 0.254147 0.664026 0
M  V30 4214 H 423.313 1.28988 1.46909 0
M  V30 4215 H 422.017 2.16096 3.489 0
M  V30 4216 H 421.548 0.504268 3.90155 0
M  V30 4217 H 423.563 -0.185855 4.95852 0
M  V30 4218 N 422.737 -1.36956 0.779787 0
M  V30 4219 C 423.983 -1.99787 0.348281 0
M  V30 4220 C 424.316 -1.61756 -1.07465 0
M  V30 4221 O 423.591 -0.867639 -1.74075 0
M  V30 4222 C 423.874 -3.56597 0.50104 0
M  V30 4223 C 423.727 -4.04513 1.96697 0
M  V30 4224 C 425.046 -4.40008 -0.0898097 0
M  V30 4225 H 422.165 -0.725796 0.128022 0
M  V30 4226 H 424.807 -1.62514 0.984331 0
M  V30 4227 H 422.957 -3.88479 -0.0404347 0
M  V30 4228 H 424.629 -3.83161 2.56876 0
M  V30 4229 H 422.872 -3.56408 2.47297 0
M  V30 4230 H 423.543 -5.1352 2.02486 0
M  V30 4231 H 426.019 -4.14431 0.372293 0
M  V30 4232 H 424.895 -5.4888 0.0471605 0
M  V30 4233 H 425.156 -4.26035 -1.18096 0
M  V30 4234 N 424.215 -0.530993 -1.48385 0
M  V30 4235 C 425.443 -0.00134122 -2.069 0
M  V30 4236 C 425.858 1.2805 -1.3874 0
M  V30 4237 O 425.215 1.76204 -0.475244 0
M  V30 4238 C 425.266 0.225256 -3.60798 0
M  V30 4239 O 424.987 -1.0058 -4.26398 0
M  V30 4240 C 426.488 0.795172 -4.3611 0
M  V30 4241 H 423.708 -0.0339704 -0.67014 0
M  V30 4242 H 426.252 -0.736926 -1.90761 0
M  V30 4243 H 424.407 0.910891 -3.76539 0
M  V30 4244 H 424.821 -0.787165 -5.1856 0
M  V30 4245 H 426.295 0.903143 -5.44562 0
M  V30 4246 H 426.772 1.80031 -4.00606 0
M  V30 4247 H 427.378 0.146069 -4.25049 0
M  V30 4248 N 425.693 1.55336 -0.266172 0
M  V30 4249 C 426.918 2.04258 0.359661 0
M  V30 4250 C 427.343 1.14359 1.49344 0
M  V30 4251 O 426.701 0.140369 1.80756 0
M  V30 4252 C 426.749 3.50997 0.826635 0
M  V30 4253 O 425.853 3.64204 1.93466 0
M  V30 4254 H 425.194 0.659668 0.075727 0
M  V30 4255 H 427.724 2.00694 -0.39786 0
M  V30 4256 H 427.734 3.9219 1.12477 0
M  V30 4257 H 426.409 4.159 -0.00293032 0
M  V30 4258 H 424.986 3.34913 1.63974 0
M  V30 4259 N 427.171 -0.0066808 1.57599 0
M  V30 4260 C 428.419 -0.691552 1.899 0
M  V30 4261 C 428.74 -1.74682 0.866672 0
M  V30 4262 O 428.01 -1.95661 -0.0968189 0
M  V30 4263 H 426.59 -0.258416 0.700878 0
M  V30 4264 H 429.252 0.0326655 1.94873 0
M  V30 4265 H 428.348 -1.16702 2.8946 0
M  V30 4266 N 428.649 -1.55105 -0.279332 0
M  V30 4267 C 429.559 -1.90638 -1.36727 0
M  V30 4268 C 430.575 -0.802899 -1.54368 0
M  V30 4269 O 431.751 -1.10138 -1.68616 0
M  V30 4270 C 428.816 -2.16547 -2.70755 0
M  V30 4271 C 427.877 -3.40146 -2.61915 0
M  V30 4272 C 427.11 -3.6481 -3.8955 0
M  V30 4273 O 427.333 -2.92095 -4.89935 0
M  V30 4274 O 426.267 -4.58343 -3.90135 0
M  V30 4275 H 430.093 -2.83237 -1.09591 0
M  V30 4276 H 427.678 -1.4157 -0.477306 0
M  V30 4277 H 429.56 -2.34665 -3.50014 0
M  V30 4278 H 428.235 -1.27131 -2.9769 0
M  V30 4279 H 427.142 -3.2737 -1.81052 0
M  V30 4280 H 428.475 -4.29761 -2.3993 0
M  V30 4281 N 430.127 0.543554 -1.4793 0
M  V30 4282 C 431.375 1.29752 -1.54948 0
M  V30 4283 C 431.696 1.93764 -0.219242 0
M  V30 4284 O 430.966 1.80639 0.75805 0
M  V30 4285 H 429.546 0.481874 -0.570795 0
M  V30 4286 H 432.208 0.633636 -1.84312 0
M  V30 4287 H 431.304 2.08392 -2.32334 0
M  V30 4288 N 431.605 1.3629 0.791371 0
M  V30 4289 C 432.537 1.26321 1.91248 0
M  V30 4290 C 433.55 0.18313 1.61767 0
M  V30 4291 O 434.739 0.437682 1.73051 0
M  V30 4292 C 431.839 0.925901 3.26007 0
M  V30 4293 C 431.012 2.10746 3.83281 0
M  V30 4294 C 430.071 1.74352 4.96475 0
M  V30 4295 O 429.097 2.46416 5.13096 0
M  V30 4296 N 430.299 0.676058 5.7655 0
M  V30 4297 H 433.064 2.22915 2.00323 0
M  V30 4298 H 430.625 1.29659 0.969546 0
M  V30 4299 H 432.617 0.663636 3.99222 0
M  V30 4300 H 431.187 0.0491581 3.12561 0
M  V30 4301 H 430.407 2.53264 3.02077 0
M  V30 4302 H 431.695 2.8969 4.18279 0
M  V30 4303 H 431.093 0.0776467 5.65647 0
M  V30 4304 H 429.65 0.473612 6.50077 0
M  V30 4305 N 433.083 -1.0153 1.20538 0
M  V30 4306 C 434.494 -1.56598 1.01657 0
M  V30 4307 C 434.845 -1.91505 -0.426668 0
M  V30 4308 O 433.97 -1.72375 -1.30827 0
M  V30 4309 C 434.565 -2.84542 1.83905 0
M  V30 4310 C 433.124 -3.36133 1.69386 0
M  V30 4311 C 432.271 -2.09427 1.81757 0
M  V30 4312 H 435.222 -0.838974 1.34711 0
M  V30 4313 H 435.243 -3.56004 1.34319 0
M  V30 4314 H 434.755 -2.59105 2.8894 0
M  V30 4315 H 432.856 -3.66528 0.669933 0
M  V30 4316 H 432.969 -4.08248 2.50739 0
M  V30 4317 H 431.333 -2.21941 1.24957 0
M  V30 4318 H 432.116 -1.86414 2.88279 0
M  V30 4319 N 434.561 -1.01147 -1.20859 0
M  V30 4320 C 435.789 -0.716911 -1.94082 0
M  V30 4321 C 436.204 0.721568 -1.74467 0
M  V30 4322 O 435.561 1.48889 -1.05539 0
M  V30 4323 C 435.612 -1.03662 -3.46318 0
M  V30 4324 O 435.333 -2.4186 -3.65288 0
M  V30 4325 C 436.834 -0.762386 -4.36695 0
M  V30 4326 H 434.054 -0.26367 -0.617024 0
M  V30 4327 H 436.598 -1.35127 -1.53496 0
M  V30 4328 H 434.753 -0.447757 -3.84804 0
M  V30 4329 H 435.167 -2.53224 -4.59323 0
M  V30 4330 H 436.641 -1.03621 -5.42187 0
M  V30 4331 H 437.118 0.303514 -4.3815 0
M  V30 4332 H 437.724 -1.33316 -4.03865 0
M  V30 4333 N 436.039 1.36541 -0.78704 0
M  V30 4334 C 436.969 2.32659 -0.197992 0
M  V30 4335 C 437.95 1.56533 0.665697 0
M  V30 4336 O 439.135 1.84698 0.60001 0
M  V30 4337 C 436.265 3.40778 0.669901 0
M  V30 4338 C 435.219 4.27897 -0.0937039 0
M  V30 4339 C 434.545 5.27163 0.894629 0
M  V30 4340 C 435.845 5.06334 -1.28154 0
M  V30 4341 H 437.539 2.82171 -1.00099 0
M  V30 4342 H 435.085 1.35665 -0.482793 0
M  V30 4343 H 437.038 4.07008 1.09191 0
M  V30 4344 H 435.762 2.89827 1.50558 0
M  V30 4345 H 434.421 3.6322 -0.49666 0
M  V30 4346 H 434.069 4.72486 1.72527 0
M  V30 4347 H 433.769 5.86317 0.388149 0
M  V30 4348 H 435.293 5.96266 1.31525 0
M  V30 4349 H 436.707 5.65617 -0.93541 0
M  V30 4350 H 435.104 5.74888 -1.72115 0
M  V30 4351 H 436.174 4.38114 -2.07807 0
M  V30 4352 N 437.518 0.538854 1.48102 0
M  V30 4353 C 438.766 0.00798599 2.02098 0
M  V30 4354 C 439.087 -1.33922 1.41739 0
M  V30 4355 O 438.357 -1.86932 0.585934 0
M  V30 4356 H 436.937 -3.62179e-05 0.747 0
M  V30 4357 H 439.599 0.7047 1.81714 0
M  V30 4358 H 438.695 -0.0937672 3.11959 0
M  V30 4359 N 438.996 -1.55193 0.274407 0
M  V30 4360 C 440.244 -1.99187 -0.341902 0
M  V30 4361 C 440.565 -1.16422 -1.56431 0
M  V30 4362 O 439.835 -0.253573 -1.94252 0
M  V30 4363 H 438.415 -0.735721 -0.129317 0
M  V30 4364 H 441.077 -1.91168 0.379578 0
M  V30 4365 H 440.173 -3.05629 -0.632253 0
M  V30 4366 N 440.474 -0.00167713 -1.576 0
M  V30 4367 C 441.702 0.693759 -1.94922 0
M  V30 4368 C 442.117 1.67215 -0.876626 0
M  V30 4369 O 441.474 1.81929 0.144279 0
M  V30 4370 C 441.525 1.42416 -3.32265 0
M  V30 4371 O 441.246 0.485014 -4.35407 0
M  V30 4372 C 442.747 2.21395 -3.84056 0
M  V30 4373 H 439.967 0.193118 -0.642609 0
M  V30 4374 H 442.511 -0.0532952 -2.04431 0
M  V30 4375 H 440.666 2.12284 -3.24059 0
M  V30 4376 H 441.08 1.00053 -5.14868 0
M  V30 4377 H 442.554 2.67996 -4.82578 0
M  V30 4378 H 443.031 3.04142 -3.16851 0
M  V30 4379 H 443.637 1.56542 -3.95443 0
M  V30 4380 N 441.952 1.55251 0.271103 0
M  V30 4381 C 443.2 1.75599 1.00047 0
M  V30 4382 C 443.521 0.561188 1.8675 0
M  V30 4383 O 442.791 -0.423846 1.9126 0
M  V30 4384 H 441.371 0.647562 0.372387 0
M  V30 4385 H 444.033 1.92656 0.294876 0
M  V30 4386 H 443.129 2.65766 1.6363 0
M  V30 4387 N 443.43 -0.535701 1.48216 0
M  V30 4388 C 444.676 -1.29375 1.56173 0
M  V30 4389 C 445.009 -1.92804 0.232429 0
M  V30 4390 O 444.284 -1.78992 -0.761048 0
M  V30 4391 C 444.567 -2.38747 2.69577 0
M  V30 4392 C 444.42 -1.80046 4.12193 0
M  V30 4393 C 445.739 -3.40551 2.78771 0
M  V30 4394 H 442.858 -0.469027 0.568491 0
M  V30 4395 H 445.5 -0.597358 1.80365 0
M  V30 4396 H 443.65 -2.98147 2.4908 0
M  V30 4397 H 445.322 -1.24742 4.44114 0
M  V30 4398 H 443.565 -1.10609 4.19462 0
M  V30 4399 H 444.236 -2.59212 4.87353 0
M  V30 4400 H 446.712 -2.91099 2.97322 0
M  V30 4401 H 445.588 -4.1448 3.59857 0
M  V30 4402 H 445.849 -4.00746 1.86696 0
M  V30 4403 N 444.908 -1.36708 -0.784132 0
M  V30 4404 C 446.319 -1.27947 -1.35965 0
M  V30 4405 C 446.67 0.0784013 -1.96043 0
M  V30 4406 O 445.795 0.979989 -1.92938 0
M  V30 4407 C 446.39 -2.31689 -2.47195 0
M  V30 4408 C 444.949 -2.26601 -3.00548 0
M  V30 4409 C 444.096 -2.16184 -1.73666 0
M  V30 4410 H 447.047 -1.4751 -0.585358 0
M  V30 4411 H 447.068 -1.95638 -3.26352 0
M  V30 4412 H 446.58 -3.30506 -2.03439 0
M  V30 4413 H 444.681 -1.31268 -3.48711 0
M  V30 4414 H 444.794 -3.19508 -3.57004 0
M  V30 4415 H 443.158 -1.62524 -1.96107 0
M  V30 4416 H 443.941 -3.16896 -1.32031 0
M  V30 4417 N 446.386 1.0089 -1.21074 0
M  V30 4418 C 447.614 1.78191 -1.05145 0
M  V30 4419 C 448.029 1.84537 0.398952 0
M  V30 4420 O 447.386 1.30393 1.27687 0
M  V30 4421 C 447.437 3.22288 -1.63746 0
M  V30 4422 O 447.158 3.16315 -3.03111 0
M  V30 4423 C 448.659 4.16106 -1.52875 0
M  V30 4424 H 445.879 0.560129 -0.369454 0
M  V30 4425 H 448.423 1.26945 -1.60328 0
M  V30 4426 H 446.578 3.70655 -1.12664 0
M  V30 4427 H 446.992 4.06817 -3.31059 0
M  V30 4428 H 448.466 5.15026 -1.98626 0
M  V30 4429 H 448.943 4.36541 -0.482521 0
M  V30 4430 H 449.549 3.73625 -2.03185 0
M  V30 4431 N 447.864 1.01787 1.20321 0
M  V30 4432 C 449.28 0.732951 1.41774 0
M  V30 4433 C 449.48 -0.686883 1.89431 0
M  V30 4434 O 448.536 -1.45446 2.06402 0
M  V30 4435 C 449.849 1.75973 2.43832 0
M  V30 4436 C 451.397 1.77802 2.57596 0
M  V30 4437 C 451.872 2.7941 3.62897 0
M  V30 4438 N 453.363 2.78157 3.70382 0
M  V30 4439 C 454.098 3.53434 4.51521 0
M  V30 4440 N 453.594 4.38392 5.36455 0
M  V30 4441 N 455.387 3.42026 4.46066 0
M  V30 4442 H 447.538 1.93447 0.877035 0
M  V30 4443 H 449.801 0.835712 0.447536 0
M  V30 4444 H 449.507 2.77699 2.15815 0
M  V30 4445 H 449.381 1.57292 3.4284 0
M  V30 4446 H 451.768 0.767602 2.84942 0
M  V30 4447 H 451.849 2.00557 1.58779 0
M  V30 4448 H 451.493 3.80616 3.36295 0
M  V30 4449 H 451.423 2.53916 4.61339 0
M  V30 4450 H 453.914 2.16531 3.09714 0
M  V30 4451 H 454.227 4.92596 5.95457 0
M  V30 4452 H 452.572 4.4247 5.35953 0
M  V30 4453 H 455.763 2.75075 3.78749 0
M  V30 4454 H 455.936 4.00946 5.09064 0
M  V30 4455 N 449.342 -1.36122 0.79427 0
M  V30 4456 C 450.758 -1.5232 0.476525 0
M  V30 4457 C 450.958 -1.74685 -1.00436 0
M  V30 4458 O 450.014 -1.78115 -1.78973 0
M  V30 4459 C 451.327 -2.70607 1.31119 0
M  V30 4460 C 452.875 -2.8448 1.30537 0
M  V30 4461 C 453.35 -4.05778 2.12387 0
M  V30 4462 N 454.841 -4.12933 2.09859 0
M  V30 4463 C 455.576 -5.05876 2.69957 0
M  V30 4464 N 455.072 -6.04232 3.38934 0
M  V30 4465 N 456.865 -4.98528 2.59665 0
M  V30 4466 H 449.016 -1.1986 1.75349 0
M  V30 4467 H 451.279 -0.585418 0.745647 0
M  V30 4468 H 450.985 -2.60619 2.36158 0
M  V30 4469 H 450.859 -3.64888 0.955843 0
M  V30 4470 H 453.246 -2.93927 0.262876 0
M  V30 4471 H 453.327 -1.91093 1.70051 0
M  V30 4472 H 452.971 -3.97092 3.1667 0
M  V30 4473 H 452.901 -4.98323 1.70242 0
M  V30 4474 H 455.392 -3.42515 1.59662 0
M  V30 4475 H 455.705 -6.71724 3.82109 0
M  V30 4476 H 454.05 -6.04443 3.43036 0
M  V30 4477 H 457.241 -4.20641 2.05375 0
M  V30 4478 H 457.414 -5.70773 3.06793 0
M  V30 4479 N 450.82 -0.546701 -1.47814 0
M  V30 4480 C 452.231 -0.110564 -1.86372 0
M  V30 4481 C 452.582 1.31678 -1.45449 0
M  V30 4482 O 451.707 1.98889 -0.852758 0
M  V30 4483 C 452.302 -0.193873 -3.38245 0
M  V30 4484 C 450.861 0.187164 -3.75934 0
M  V30 4485 C 450.008 -0.546166 -2.71868 0
M  V30 4486 H 452.959 -0.757022 -1.39481 0
M  V30 4487 H 452.98 0.590218 -3.75895 0
M  V30 4488 H 452.492 -1.23282 -3.67999 0
M  V30 4489 H 450.593 1.22762 -3.51796 0
M  V30 4490 H 450.706 -0.164083 -4.78819 0
M  V30 4491 H 449.07 0.00953904 -2.54698 0
M  V30 4492 H 449.853 -1.58606 -3.04465 0
M  V30 4493 N 452.299 1.55045 -0.282633 0
M  V30 4494 C 453.71 1.85473 0.213655 0
M  V30 4495 C 454.061 1.20465 1.54863 0
M  V30 4496 O 453.186 0.495676 2.10647 0
M  V30 4497 C 453.781 3.36496 0.394445 0
M  V30 4498 C 452.34 3.67022 0.834961 0
M  V30 4499 C 451.487 2.77218 -0.0674081 0
M  V30 4500 H 454.438 1.50478 -0.504202 0
M  V30 4501 H 454.459 3.60007 1.23186 0
M  V30 4502 H 453.971 3.83782 -0.577326 0
M  V30 4503 H 452.072 3.25241 1.81794 0
M  V30 4504 H 452.185 4.74433 0.667075 0
M  V30 4505 H 450.549 2.5069 0.450196 0
M  V30 4506 H 451.332 3.2732 -1.0352 0
M  V30 4507 N 453.777 0.010035 1.57597 0
M  V30 4508 C 454.74 -0.963029 2.07986 0
M  V30 4509 C 455.74 -1.26619 0.991173 0
M  V30 4510 O 456.93 -1.2097 1.25347 0
M  V30 4511 C 454.062 -2.2851 2.52974 0
M  V30 4512 H 455.255 -0.526971 2.95234 0
M  V30 4513 H 452.808 -0.237639 1.54483 0
M  V30 4514 H 453.543 -2.76784 1.69 0
M  V30 4515 H 453.328 -2.07824 3.32493 0
M  V30 4516 H 454.818 -2.98294 2.9225 0
M  V30 4517 N 455.255 -1.55392 -0.262866 0
M  V30 4518 C 456.483 -1.80513 -1.01108 0
M  V30 4519 C 456.898 -0.583533 -1.79556 0
M  V30 4520 O 456.255 0.447585 -1.76926 0
M  V30 4521 C 456.306 -3.03648 -1.96164 0
M  V30 4522 O 456.027 -4.2109 -1.20893 0
M  V30 4523 C 457.528 -3.41448 -2.82715 0
M  V30 4524 H 454.748 -0.601079 -0.298236 0
M  V30 4525 H 457.292 -2.02425 -0.290582 0
M  V30 4526 H 455.447 -2.83832 -2.63663 0
M  V30 4527 H 455.861 -4.90771 -1.85051 0
M  V30 4528 H 457.335 -4.30751 -3.45192 0
M  V30 4529 H 457.812 -2.61308 -3.53008 0
M  V30 4530 H 458.418 -3.63559 -2.20693 0
M  V30 4531 N 456.733 0.527833 -1.48498 0
M  V30 4532 C 457.696 1.61439 -1.62696 0
M  V30 4533 C 458.696 1.52824 -0.500136 0
M  V30 4534 O 459.886 1.56456 -0.765976 0
M  V30 4535 C 457.018 3.01063 -1.59918 0
M  V30 4536 H 458.211 1.50189 -2.59583 0
M  V30 4537 H 455.764 0.750055 -1.37127 0
M  V30 4538 H 456.499 3.17818 -0.645163 0
M  V30 4539 H 456.284 3.08725 -2.41726 0
M  V30 4540 H 457.774 3.80057 -1.73051 0
M  V30 4541 N 458.211 1.37122 0.776871 0
M  V30 4542 C 459.439 1.3523 1.5659 0
M  V30 4543 C 459.854 -0.0635518 1.88693 0
M  V30 4544 O 459.211 -1.02394 1.51069 0
M  V30 4545 C 459.262 2.18583 2.8793 0
M  V30 4546 O 458.983 3.5465 2.57206 0
M  V30 4547 C 460.484 2.24612 3.82183 0
M  V30 4548 H 457.704 0.4634 0.485285 0
M  V30 4549 H 460.248 1.80392 0.963266 0
M  V30 4550 H 458.403 1.76943 3.4463 0
M  V30 4551 H 458.817 3.98286 3.41275 0
M  V30 4552 H 460.291 2.87267 4.71361 0
M  V30 4553 H 460.768 1.25309 4.20944 0
M  V30 4554 H 461.374 2.66543 3.31414 0
M  V30 4555 N 459.689 -1.00246 1.21608 0
M  V30 4556 C 460.914 -1.78167 1.06167 0
M  V30 4557 C 461.339 -1.84138 -0.384035 0
M  V30 4558 O 460.697 -1.28683 -1.27712 0
M  V30 4559 C 460.745 -3.19786 1.66642 0
M  V30 4560 O 459.849 -4.02153 0.913613 0
M  V30 4561 H 459.19 -0.549 0.37349 0
M  V30 4562 H 461.72 -1.25994 1.61204 0
M  V30 4563 H 461.73 -3.70451 1.70969 0
M  V30 4564 H 460.405 -3.14754 2.7185 0
M  V30 4565 H 458.982 -3.60711 0.945635 0
M  V30 4566 N 461.167 -1.02423 -1.1978 0
M  V30 4567 C 462.578 -0.748389 -1.71044 0
M  V30 4568 C 462.929 0.732398 -1.82017 0
M  V30 4569 O 462.054 1.57116 -1.48807 0
M  V30 4570 C 462.649 -1.35187 -3.1066 0
M  V30 4571 C 461.208 -1.12472 -3.59203 0
M  V30 4572 C 460.355 -1.45283 -2.36195 0
M  V30 4573 H 463.306 -1.19275 -1.04686 0
M  V30 4574 H 463.327 -0.746408 -3.73107 0
M  V30 4575 H 462.839 -2.4296 -3.02642 0
M  V30 4576 H 460.94 -0.0649983 -3.72543 0
M  V30 4577 H 461.053 -1.81016 -4.43588 0
M  V30 4578 H 459.417 -0.872034 -2.39307 0
M  V30 4579 H 460.2 -2.54129 -2.30811 0
M  V30 4580 N 462.645 1.35699 -0.801477 0
M  V30 4581 C 463.891 1.99208 -0.380022 0
M  V30 4582 C 464.224 1.63445 1.04878 0
M  V30 4583 O 463.499 0.895223 1.72673 0
M  V30 4584 C 463.782 3.55755 -0.557708 0
M  V30 4585 C 463.635 4.01332 -2.03107 0
M  V30 4586 C 464.954 4.40096 0.0197968 0
M  V30 4587 H 462.073 0.723667 -0.139552 0
M  V30 4588 H 464.715 1.60928 -1.01006 0
M  V30 4589 H 462.865 3.88494 -0.0213741 0
M  V30 4590 H 464.537 3.79026 -2.62939 0
M  V30 4591 H 462.78 3.52429 -2.52936 0
M  V30 4592 H 463.451 5.10234 -2.1063 0
M  V30 4593 H 465.927 4.13786 -0.438179 0
M  V30 4594 H 464.803 5.48735 -0.134477 0
M  V30 4595 H 465.064 4.2786 1.11303 0
M  V30 4596 N 464.123 0.554532 1.47522 0
M  V30 4597 C 465.534 0.120446 1.86311 0
M  V30 4598 C 465.885 -1.30904 1.46145 0
M  V30 4599 O 465.01 -1.98434 0.863294 0
M  V30 4600 C 465.605 0.211808 3.38137 0
M  V30 4601 C 464.164 -0.167224 3.76028 0
M  V30 4602 C 463.311 0.560576 2.71575 0
M  V30 4603 H 466.262 0.764408 1.39077 0
M  V30 4604 H 466.283 -0.570275 3.76202 0
M  V30 4605 H 465.795 1.25232 3.6734 0
M  V30 4606 H 463.896 -1.20894 3.52442 0
M  V30 4607 H 464.009 0.189473 4.78725 0
M  V30 4608 H 462.373 0.00396836 2.547 0
M  V30 4609 H 463.156 1.60219 3.0362 0
M  V30 4610 N 465.601 -1.54893 0.290851 0
M  V30 4611 C 466.533 -2.20564 -0.623236 0
M  V30 4612 C 467.546 -1.19519 -1.1054 0
M  V30 4613 O 468.735 -1.46165 -1.02459 0
M  V30 4614 C 465.835 -2.83033 -1.86401 0
M  V30 4615 C 465.008 -4.09916 -1.52604 0
M  V30 4616 C 464.067 -4.56284 -2.62091 0
M  V30 4617 O 463.093 -5.2171 -2.27612 0
M  V30 4618 N 464.295 -4.27746 -3.92446 0
M  V30 4619 H 467.06 -2.99638 -0.0610915 0
M  V30 4620 H 464.621 -1.61508 0.112615 0
M  V30 4621 H 466.613 -3.1099 -2.58973 0
M  V30 4622 H 465.183 -2.0786 -2.33481 0
M  V30 4623 H 464.403 -3.89078 -0.633424 0
M  V30 4624 H 465.691 -4.92554 -1.27547 0
M  V30 4625 H 465.089 -3.7531 -4.23272 0
M  V30 4626 H 463.646 -4.60437 -4.61347 0
M  V30 4627 N 467.08 -0.0183926 -1.57589 0
M  V30 4628 C 468.496 0.337897 -1.55982 0
M  V30 4629 C 468.696 1.73604 -1.02294 0
M  V30 4630 O 467.752 2.43589 -0.664895 0
M  V30 4631 C 469.065 0.196305 -3.00059 0
M  V30 4632 C 470.613 0.269875 -3.11834 0
M  V30 4633 C 471.088 0.157197 -4.5773 0
M  V30 4634 N 472.579 0.214521 -4.62703 0
M  V30 4635 C 473.314 0.150955 -5.73201 0
M  V30 4636 N 472.81 0.0369212 -6.9279 0
M  V30 4637 N 474.603 0.204162 -5.61729 0
M  V30 4638 H 466.754 -0.93279 -1.90821 0
M  V30 4639 H 469.017 -0.359253 -0.877292 0
M  V30 4640 H 468.723 -0.766383 -3.43248 0
M  V30 4641 H 468.597 0.970908 -3.6449 0
M  V30 4642 H 470.984 1.22302 -2.68563 0
M  V30 4643 H 471.065 -0.534918 -2.50144 0
M  V30 4644 H 470.709 -0.792479 -5.01679 0
M  V30 4645 H 470.639 0.980717 -5.17387 0
M  V30 4646 H 473.13 0.303238 -3.76681 0
M  V30 4647 H 473.443 -0.00518321 -7.728 0
M  V30 4648 H 471.788 0.0022886 -6.95 0
M  V30 4649 H 474.979 0.291575 -4.67191 0
M  V30 4650 H 475.152 0.15116 -6.47824 0
M  V30 4651 N 468.558 1.5553 0.254621 0
M  V30 4652 C 469.786 1.81046 1.00149 0
M  V30 4653 C 470.201 0.593047 1.79244 0
M  V30 4654 O 469.558 -0.438196 1.77161 0
M  V30 4655 C 469.609 3.04684 1.94551 0
M  V30 4656 O 469.33 4.21725 1.18658 0
M  V30 4657 C 470.831 3.42943 2.80901 0
M  V30 4658 H 468.051 0.602653 0.295044 0
M  V30 4659 H 470.595 2.02576 0.279842 0
M  V30 4660 H 468.75 2.85226 2.62154 0
M  V30 4661 H 469.164 4.91746 1.82445 0
M  V30 4662 H 470.638 4.32576 3.42902 0
M  V30 4663 H 471.115 2.63176 3.51617 0
M  V30 4664 H 471.721 3.64724 2.18762 0
M  V30 4665 N 470.036 -0.519951 1.48776 0
M  V30 4666 C 471.282 -1.27456 1.58514 0
M  V30 4667 C 471.637 -1.90634 0.260057 0
M  V30 4668 O 470.93 -1.76815 -0.738036 0
M  V30 4669 C 471.124 -2.37864 2.6675 0
M  V30 4670 C 470.953 -1.85509 4.09654 0
M  V30 4671 C 469.723 -1.67661 4.76674 0
M  V30 4672 C 471.921 -1.37783 4.955 0
M  V30 4673 N 469.903 -1.10037 6.03958 0
M  V30 4674 C 471.274 -0.921714 6.1311 0
M  V30 4675 C 473.329 -1.26179 4.81646 0
M  V30 4676 C 472.032 -0.361057 7.18393 0
M  V30 4677 C 474.058 -0.715121 5.8706 0
M  V30 4678 C 473.42 -0.269132 7.03886 0
M  V30 4679 H 469.519 -0.457049 0.634531 0
M  V30 4680 H 472.103 -0.585073 1.85701 0
M  V30 4681 H 470.274 -3.04296 2.41367 0
M  V30 4682 H 472.006 -3.04901 2.66116 0
M  V30 4683 H 468.761 -1.91478 4.33166 0
M  V30 4684 H 469.185 -0.832067 6.71867 0
M  V30 4685 H 473.827 -1.59263 3.91657 0
M  V30 4686 H 471.545 -0.0179127 8.08098 0
M  V30 4687 H 475.131 -0.628376 5.78397 0
M  V30 4688 H 474.011 0.14729 7.84062 0
M  V30 4689 N 471.514 -1.37532 -0.769588 0
M  V30 4690 C 472.925 -1.29382 -1.346 0
M  V30 4691 C 473.276 0.0576039 -1.96115 0
M  V30 4692 O 472.401 0.95947 -1.93967 0
M  V30 4693 C 472.996 -2.34298 -2.44724 0
M  V30 4694 C 471.555 -2.29776 -2.98128 0
M  V30 4695 C 470.702 -2.18013 -1.71364 0
M  V30 4696 H 473.653 -1.48123 -0.56968 0
M  V30 4697 H 473.674 -1.99089 -3.24259 0
M  V30 4698 H 473.186 -3.32645 -1.99922 0
M  V30 4699 H 471.287 -1.34959 -3.47299 0
M  V30 4700 H 471.4 -3.23276 -3.53595 0
M  V30 4701 H 469.764 -1.64595 -1.94372 0
M  V30 4702 H 470.547 -3.18278 -1.28662 0
M  V30 4703 N 472.992 0.995999 -1.22138 0
M  V30 4704 C 474.241 1.72928 -1.03821 0
M  V30 4705 C 474.554 1.90872 0.427444 0
M  V30 4706 O 475.76 2.61496 0.730212 0
M  V30 4707 C 474.216 3.11124 -1.80913 0
M  V30 4708 C 473.824 3.01122 -3.31707 0
M  V30 4709 C 475.568 3.8852 -1.71035 0
M  V30 4710 C 473.475 4.34453 -4.01253 0
M  V30 4711 H 472.405 0.648376 -0.384869 0
M  V30 4712 H 475.056 1.11213 -1.45959 0
M  V30 4713 H 473.438 3.73503 -1.31573 0
M  V30 4714 H 474.612 2.47926 -3.88419 0
M  V30 4715 H 472.927 2.3721 -3.42228 0
M  V30 4716 H 475.524 4.872 -2.20318 0
M  V30 4717 H 475.867 4.1087 -0.670196 0
M  V30 4718 H 476.4 3.32812 -2.17902 0
M  V30 4719 H 473.139 4.17303 -5.05508 0
M  V30 4720 H 472.659 4.87574 -3.49331 0
M  V30 4721 H 474.338 5.03215 -4.06674 0
M  V30 4722 N 474.47 1.03057 1.19235 0
M  V30 4723 C 475.886 0.747947 1.40989 0
M  V30 4724 C 476.086 -0.666752 1.90149 0
M  V30 4725 O 475.142 -1.43249 2.07933 0
M  V30 4726 C 476.455 1.7855 2.41951 0
M  V30 4727 C 478.003 1.80524 2.55695 0
M  V30 4728 C 478.478 2.83243 3.59913 0
M  V30 4729 N 479.969 2.8207 3.67411 0
M  V30 4730 C 480.704 3.58204 4.47747 0
M  V30 4731 N 480.2 4.44057 5.31775 0
M  V30 4732 N 481.993 3.46738 4.42413 0
M  V30 4733 H 474.144 1.94367 0.856468 0
M  V30 4734 H 476.407 0.840412 0.438647 0
M  V30 4735 H 476.113 2.79973 2.12857 0
M  V30 4736 H 475.987 1.6092 3.41152 0
M  V30 4737 H 478.374 0.79778 2.84112 0
M  V30 4738 H 478.455 2.02229 1.56643 0
M  V30 4739 H 478.099 3.84161 3.32239 0
M  V30 4740 H 478.029 2.58795 4.5862 0
M  V30 4741 H 480.52 2.19803 3.074 0
M  V30 4742 H 480.833 4.98884 5.90199 0
M  V30 4743 H 479.178 4.48129 5.3123 0
M  V30 4744 H 482.369 2.79077 3.75811 0
M  V30 4745 H 482.542 4.06322 5.04783 0
M  V30 4746 N 475.948 -1.35272 0.808662 0
M  V30 4747 C 477.194 -1.99003 0.390581 0
M  V30 4748 C 477.527 -1.63999 -1.0401 0
M  V30 4749 O 476.802 -0.904368 -1.72196 0
M  V30 4750 C 477.085 -3.55454 0.576566 0
M  V30 4751 C 476.938 -4.00249 2.05233 0
M  V30 4752 C 478.257 -4.401 0.00354277 0
M  V30 4753 H 475.376 -0.722917 0.143388 0
M  V30 4754 H 478.018 -1.6039 1.01858 0
M  V30 4755 H 476.168 -3.88477 0.0419766 0
M  V30 4756 H 477.84 -3.77626 2.64946 0
M  V30 4757 H 476.083 -3.51082 2.54801 0
M  V30 4758 H 476.754 -5.0911 2.13333 0
M  V30 4759 H 479.23 -4.13548 0.460117 0
M  V30 4760 H 478.106 -5.48656 0.163575 0
M  V30 4761 H 478.367 -4.28444 -1.09032 0
M  V30 4762 N 477.426 -0.562348 -1.47226 0
M  V30 4763 C 478.703 0.0256985 -1.95583 0
M  V30 4764 C 479.083 1.48032 -1.50498 0
M  V30 4765 O 478.431 2.15973 -0.746181 0
M  V30 4766 C 478.641 -0.125129 -3.48776 0
M  V30 4767 C 479.989 0.0175728 -4.24596 0
M  V30 4768 O 481.013 -0.0529341 -3.56161 0
M  V30 4769 O 479.872 0.170145 -5.46235 0
M  V30 4770 H 476.966 0.0612565 -0.824728 0
M  V30 4771 H 479.512 -0.629233 -1.57603 0
M  V30 4772 H 478.284 -1.13715 -3.74412 0
M  V30 4773 H 477.907 0.567178 -3.93534 0
M  V30 4774 N 478.904 1.54736 -0.299062 0
M  V30 4775 C 479.814 2.27127 0.587413 0
M  V30 4776 C 480.83 1.30575 1.15005 0
M  V30 4777 O 482.006 1.63554 1.17525 0
M  V30 4778 C 479.071 2.99645 1.74395 0
M  V30 4779 C 478.132 4.11731 1.21559 0
M  V30 4780 C 477.365 4.80781 2.317 0
M  V30 4781 O 477.588 4.4918 3.51558 0
M  V30 4782 O 476.522 5.68226 1.98501 0
M  V30 4783 H 480.348 3.037 0.000250109 0
M  V30 4784 H 477.933 1.49256 -0.0655919 0
M  V30 4785 H 479.815 3.45138 2.4178 0
M  V30 4786 H 478.49 2.25969 2.31775 0
M  V30 4787 H 477.397 3.70641 0.507514 0
M  V30 4788 H 478.73 4.87379 0.687233 0
M  V30 4789 N 480.382 0.0267497 1.57577 0
M  V30 4790 C 481.329 -0.955894 2.10075 0
M  V30 4791 C 482.299 -1.32453 1.00226 0
M  V30 4792 O 483.484 -1.41826 1.27632 0
M  V30 4793 C 480.624 -2.2338 2.6305 0
M  V30 4794 C 479.737 -1.92183 3.86898 0
M  V30 4795 C 478.872 -3.14251 4.28275 0
M  V30 4796 C 477.911 -2.78862 5.44888 0
M  V30 4797 N 477.048 -3.93548 5.81433 0
M  V30 4798 H 481.888 -0.501303 2.93753 0
M  V30 4799 H 479.425 -0.235847 1.45197 0
M  V30 4800 H 481.383 -2.98124 2.91853 0
M  V30 4801 H 480.013 -2.6646 1.82205 0
M  V30 4802 H 479.065 -1.07692 3.64838 0
M  V30 4803 H 480.377 -1.62117 4.7172 0
M  V30 4804 H 479.531 -3.97317 4.58502 0
M  V30 4805 H 478.27 -3.47476 3.42215 0
M  V30 4806 H 477.275 -1.94208 5.14357 0
M  V30 4807 H 478.5 -2.46855 6.32645 0
M  V30 4808 H 476.446 -4.2662 4.98328 0
M  V30 4809 H 476.363 -3.67098 6.6089 0
M  V30 4810 H 477.631 -4.77325 6.16264 0
M  V30 4811 N 481.861 -1.55662 -0.24637 0
M  V30 4812 C 482.791 -1.93377 -1.30873 0
M  V30 4813 C 483.772 -0.798773 -1.50179 0
M  V30 4814 O 484.957 -1.0591 -1.62778 0
M  V30 4815 C 482.087 -2.22893 -2.66338 0
M  V30 4816 C 481.041 -3.38649 -2.61727 0
M  V30 4817 C 480.367 -3.53708 -4.00992 0
M  V30 4818 C 481.667 -4.74323 -2.18666 0
M  V30 4819 H 483.361 -2.82363 -0.995552 0
M  V30 4820 H 480.907 -1.35854 -0.477464 0
M  V30 4821 H 482.86 -2.47866 -3.40794 0
M  V30 4822 H 481.584 -1.30733 -2.99293 0
M  V30 4823 H 480.243 -3.13685 -1.89729 0
M  V30 4824 H 479.891 -2.58967 -4.31214 0
M  V30 4825 H 479.591 -4.31551 -3.98795 0
M  V30 4826 H 481.115 -3.81003 -4.77147 0
M  V30 4827 H 482.529 -4.98665 -2.82854 0
M  V30 4828 H 480.926 -5.55273 -2.27579 0
M  V30 4829 H 481.996 -4.71349 -1.13834 0
M  V30 4830 N 483.339 0.512053 -1.4905 0
M  V30 4831 C 484.587 1.26436 -1.57665 0
M  V30 4832 C 484.908 1.93255 -0.260293 0
M  V30 4833 O 484.178 1.82206 0.719564 0
M  V30 4834 H 482.758 0.469658 -0.580888 0
M  V30 4835 H 485.42 0.594398 -1.85615 0
M  V30 4836 H 484.516 2.03417 -2.36702 0
M  V30 4837 N 484.817 1.37938 0.762283 0
M  V30 4838 C 485.727 1.36681 1.90671 0
M  V30 4839 C 486.743 0.265078 1.71969 0
M  V30 4840 O 487.919 0.502055 1.95042 0
M  V30 4841 C 484.984 1.18211 3.25925 0
M  V30 4842 C 484.045 2.3811 3.57214 0
M  V30 4843 C 483.278 2.20512 4.86014 0
M  V30 4844 O 483.501 1.19429 5.57757 0
M  V30 4845 O 482.435 3.08911 5.16583 0
M  V30 4846 H 486.261 2.33091 1.94685 0
M  V30 4847 H 483.846 1.18767 0.906356 0
M  V30 4848 H 485.728 1.09937 4.06807 0
M  V30 4849 H 484.403 0.248807 3.22742 0
M  V30 4850 H 483.31 2.51958 2.76529 0
M  V30 4851 H 484.643 3.30041 3.65149 0
M  V30 4852 N 486.295 -0.989507 1.22664 0
M  V30 4853 C 487.523 -1.76496 1.07967 0
M  V30 4854 C 487.938 -1.85148 -0.369543 0
M  V30 4855 O 487.295 -1.32408 -1.25596 0
M  V30 4856 C 487.346 -3.19642 1.68853 0
M  V30 4857 O 487.067 -3.11453 3.08105 0
M  V30 4858 C 488.568 -4.13621 1.59475 0
M  V30 4859 H 485.788 -0.55418 0.378319 0
M  V30 4860 H 488.332 -1.24378 1.62328 0
M  V30 4861 H 486.487 -3.68816 1.18547 0
M  V30 4862 H 486.901 -4.01499 3.37489 0
M  V30 4863 H 488.375 -5.11801 2.06795 0
M  V30 4864 H 488.852 -4.35718 0.55191 0
M  V30 4865 H 489.458 -3.70346 2.09103 0
M  V30 4866 N 487.773 -1.03688 -1.18687 0
M  V30 4867 C 489.184 -0.766488 -1.70241 0
M  V30 4868 C 489.535 0.713052 -1.82784 0
M  V30 4869 O 488.66 1.55529 -1.50465 0
M  V30 4870 C 489.255 -1.38475 -3.09209 0
M  V30 4871 C 487.814 -1.16276 -3.5799 0
M  V30 4872 C 486.961 -1.4778 -2.34641 0
M  V30 4873 H 489.912 -1.20378 -1.03415 0
M  V30 4874 H 489.933 -0.785939 -3.72295 0
M  V30 4875 H 489.445 -2.46157 -3.00048 0
M  V30 4876 H 487.546 -0.104508 -3.72453 0
M  V30 4877 H 487.659 -1.8571 -4.41643 0
M  V30 4878 H 486.023 -0.897366 -2.38368 0
M  V30 4879 H 486.806 -2.56562 -2.28102 0
M  V30 4880 N 489.251 1.34841 -0.815825 0
M  V30 4881 C 490.181 2.32187 -0.247298 0
M  V30 4882 C 491.162 1.5791 0.632344 0
M  V30 4883 O 492.347 1.8593 0.560698 0
M  V30 4884 C 489.477 3.42122 0.597466 0
M  V30 4885 C 488.431 4.27602 -0.184446 0
M  V30 4886 C 487.757 5.28942 0.782609 0
M  V30 4887 C 489.057 5.03502 -1.38865 0
M  V30 4888 H 490.751 2.79985 -1.06061 0
M  V30 4889 H 488.297 1.34611 -0.511461 0
M  V30 4890 H 490.25 4.09232 1.00533 0
M  V30 4891 H 488.974 2.92956 1.44376 0
M  V30 4892 H 487.633 3.62085 -0.573592 0
M  V30 4893 H 487.281 4.7604 1.62466 0
M  V30 4894 H 486.981 5.87008 0.263695 0
M  V30 4895 H 488.505 5.98922 1.18848 0
M  V30 4896 H 489.919 5.63506 -1.05518 0
M  V30 4897 H 488.316 5.71108 -1.8427 0
M  V30 4898 H 489.386 4.33608 -2.17054 0
M  V30 4899 N 490.729 0.570148 1.46925 0
M  V30 4900 C 491.975 0.0510284 2.02736 0
M  V30 4901 C 492.308 -1.3006 1.44215 0
M  V30 4902 O 491.583 -1.84932 0.602521 0
M  V30 4903 C 491.866 -0.028215 3.60089 0
M  V30 4904 C 491.719 1.35142 4.29018 0
M  V30 4905 C 493.038 -0.735181 4.33916 0
M  V30 4906 H 490.157 0.0200178 0.736728 0
M  V30 4907 H 492.799 0.73493 1.75211 0
M  V30 4908 H 490.949 -0.610648 3.83671 0
M  V30 4909 H 492.621 1.97806 4.16738 0
M  V30 4910 H 490.864 1.9226 3.88868 0
M  V30 4911 H 491.535 1.24857 5.37694 0
M  V30 4912 H 494.011 -0.240519 4.15404 0
M  V30 4913 H 492.887 -0.759622 5.43618 0
M  V30 4914 H 493.148 -1.79397 4.04066 0
M  V30 4915 N 492.207 -1.54576 0.307264 0
M  V30 4916 C 493.618 -1.8579 -0.184121 0
M  V30 4917 C 493.969 -1.22914 -1.52927 0
M  V30 4918 O 493.094 -0.529126 -2.09831 0
M  V30 4919 C 493.689 -3.37081 -0.340862 0
M  V30 4920 C 492.248 -3.68304 -0.776465 0
M  V30 4921 C 491.395 -2.77076 0.111503 0
M  V30 4922 H 494.346 -1.49656 0.528078 0
M  V30 4923 H 494.367 -3.61922 -1.17443 0
M  V30 4924 H 493.879 -3.82815 0.638309 0
M  V30 4925 H 491.98 -3.28092 -1.76596 0
M  V30 4926 H 492.093 -4.75434 -0.591512 0
M  V30 4927 H 490.457 -2.51374 -0.410256 0
M  V30 4928 H 491.24 -3.25632 1.08714 0
M  V30 4929 N 493.685 -0.035106 -1.57561 0
M  V30 4930 C 494.595 0.960295 -2.14046 0
M  V30 4931 C 495.611 1.3529 -1.0942 0
M  V30 4932 O 496.787 1.43309 -1.41508 0
M  V30 4933 C 493.852 2.22214 -2.66124 0
M  V30 4934 C 492.913 1.8894 -3.85487 0
M  V30 4935 C 492.146 3.09109 -4.35072 0
M  V30 4936 O 492.369 4.21963 -3.83802 0
M  V30 4937 O 491.303 2.91058 -5.26848 0
M  V30 4938 H 495.129 0.509983 -2.99387 0
M  V30 4939 H 492.714 0.185853 -1.48239 0
M  V30 4940 H 494.596 2.96279 -2.99661 0
M  V30 4941 H 493.271 2.66414 -1.83862 0
M  V30 4942 H 492.178 1.12241 -3.56865 0
M  V30 4943 H 493.511 1.49551 -4.6893 0
M  V30 4944 N 495.163 1.55791 0.238111 0
M  V30 4945 C 496.095 1.87513 1.31802 0
M  V30 4946 C 497.108 0.762053 1.43863 0
M  V30 4947 O 498.297 1.04024 1.45056 0
M  V30 4948 C 495.397 2.05402 2.69561 0
M  V30 4949 C 494.57 3.3632 2.79656 0
M  V30 4950 C 493.629 3.43844 3.98319 0
M  V30 4951 O 492.655 4.16994 3.87433 0
M  V30 4952 N 493.857 2.73777 5.11885 0
M  V30 4953 H 496.622 2.80734 1.04922 0
M  V30 4954 H 494.183 1.56135 0.428196 0
M  V30 4955 H 496.175 2.07769 3.47296 0
M  V30 4956 H 494.745 1.18884 2.89111 0
M  V30 4957 H 493.965 3.46195 1.88528 0
M  V30 4958 H 495.253 4.22594 2.83358 0
M  V30 4959 H 494.651 2.14094 5.23622 0
M  V30 4960 H 493.208 2.81825 5.87723 0
M  V30 4961 N 496.642 -0.504142 1.49319 0
M  V30 4962 C 497.919 -1.26548 1.49147 0
M  V30 4963 C 498.299 -2.09977 0.21744 0
M  V30 4964 O 497.647 -2.14028 -0.800269 0
M  V30 4965 C 497.857 -2.12489 2.76857 0
M  V30 4966 C 499.205 -2.7178 3.26222 0
M  V30 4967 O 500.229 -2.22758 2.77952 0
M  V30 4968 O 499.088 -3.61015 4.10281 0
M  V30 4969 H 496.182 -0.572495 0.596806 0
M  V30 4970 H 498.728 -0.51867 1.61579 0
M  V30 4971 H 497.5 -1.50796 3.61077 0
M  V30 4972 H 497.123 -2.94368 2.6727 0
M  V30 4973 N 498.12 -1.38341 -0.754957 0
M  V30 4974 C 499.068 -1.35573 -1.89005 0
M  V30 4975 C 500.062 -0.241824 -1.67665 0
M  V30 4976 O 501.268 -0.410785 -1.7525 0
M  V30 4977 H 497.643 -0.422898 -0.621821 0
M  V30 4978 H 499.614 -2.31359 -1.88455 0
M  V30 4979 C 498.363 -1.19631 -3.26471 0
M  V30 4980 H 497.686 -2.04605 -3.43477 0
M  V30 4981 H 499.126 -1.21748 -4.06144 0
M  V30 4982 C 497.585 0.0968705 -3.36761 0
M  V30 4983 O 498.115 1.07439 -3.87066 0
M  V30 4984 N 496.321 0.153242 -2.90196 0
M  V30 4985 H 495.868 -0.642908 -2.49448 0
M  V30 4986 H 495.826 1.01807 -2.9746 0
M  V30 4987 N 499.598 0.982988 -1.23187 0
M  V30 4988 C 500.823 1.76455 -1.08988 0
M  V30 4989 C 501.248 1.84726 0.354691 0
M  V30 4990 O 500.606 1.30699 1.25649 0
M  V30 4991 C 500.654 3.17094 -1.71708 0
M  V30 4992 O 499.758 4.00648 -0.977477 0
M  V30 4993 H 499.099 0.542988 -0.382177 0
M  V30 4994 H 501.629 1.23413 -1.63188 0
M  V30 4995 H 501.639 3.67684 -1.76841 0
M  V30 4996 H 500.314 3.10389 -2.76823 0
M  V30 4997 H 498.891 3.59161 -1.0029 0
M  V30 4998 N 501.076 1.04316 1.18135 0
M  V30 4999 C 502.322 0.749128 1.88457 0
M  V30 5000 C 502.655 -0.72149 1.803 0
M  V30 5001 O 501.93 -1.52676 1.205 0
M  V30 5002 C 502.213 1.21905 3.38838 0
M  V30 5003 C 502.066 2.75195 3.55792 0
M  V30 5004 C 503.385 0.811085 4.32561 0
M  V30 5005 H 500.504 0.273611 0.684329 0
M  V30 5006 H 503.146 1.29561 1.38975 0
M  V30 5007 H 501.296 0.754137 3.8111 0
M  V30 5008 H 502.968 3.29743 3.22595 0
M  V30 5009 H 501.211 3.14899 2.98364 0
M  V30 5010 H 501.882 3.03135 4.61317 0
M  V30 5011 H 504.358 1.21118 3.98082 0
M  V30 5012 H 503.234 1.16761 5.36338 0
M  V30 5013 H 503.495 -0.285596 4.41177 0
M  V30 5014 N 502.554 -1.34406 0.822964 0
M  V30 5015 C 503.782 -2.02508 0.424039 0
M  V30 5016 C 504.197 -1.61975 -0.970022 0
M  V30 5017 O 503.554 -0.825228 -1.62777 0
M  V30 5018 C 503.605 -3.57789 0.516657 0
M  V30 5019 O 503.326 -3.96853 1.85577 0
M  V30 5020 C 504.827 -4.43157 0.112637 0
M  V30 5021 H 502.047 -0.649063 0.170173 0
M  V30 5022 H 504.591 -1.7168 1.11113 0
M  V30 5023 H 502.746 -3.87207 -0.122353 0
M  V30 5024 H 503.16 -4.91538 1.83005 0
M  V30 5025 H 504.634 -5.51527 0.228526 0
M  V30 5026 H 505.111 -4.28939 -0.943837 0
M  V30 5027 H 505.717 -4.19067 0.725449 0
M  V30 5028 N 504.032 -0.577932 -1.46621 0
M  V30 5029 C 505.257 -0.0652536 -2.07297 0
M  V30 5030 C 505.682 1.22828 -1.4246 0
M  V30 5031 O 505.04 1.74075 -0.506718 0
M  V30 5032 C 505.088 0.0920589 -3.60482 0
M  V30 5033 O 504.192 1.14972 -3.96049 0
M  V30 5034 H 503.533 -0.06065 -0.661224 0
M  V30 5035 H 506.063 -0.799515 -1.88332 0
M  V30 5036 H 506.073 0.299741 -4.06897 0
M  V30 5037 H 504.748 -0.852612 -4.07067 0
M  V30 5038 H 503.325 0.920879 -3.61351 0
M  V30 5039 N 505.51 1.54411 -0.315457 0
M  V30 5040 C 506.759 1.99599 0.290395 0
M  V30 5041 C 507.072 1.20746 1.53882 0
M  V30 5042 O 508.278 1.56272 2.22017 0
M  V30 5043 C 506.734 3.5539 0.56797 0
M  V30 5044 C 506.342 4.43068 -0.662945 0
M  V30 5045 C 508.086 4.09067 1.13422 0
M  V30 5046 C 505.993 5.90317 -0.357722 0
M  V30 5047 H 504.923 0.745592 0.112286 0
M  V30 5048 H 507.574 1.78477 -0.426418 0
M  V30 5049 H 505.956 3.72468 1.34476 0
M  V30 5050 H 507.13 4.37765 -1.43869 0
M  V30 5051 H 505.445 4.00238 -1.14884 0
M  V30 5052 H 508.042 5.16663 1.37707 0
M  V30 5053 H 508.385 3.60552 2.08106 0
M  V30 5054 H 508.918 3.95589 0.418805 0
M  V30 5055 H 505.657 6.4301 -1.27351 0
M  V30 5056 H 505.177 5.98592 0.380472 0
M  V30 5057 H 506.856 6.4699 0.0354284 0
M  V30 5058 N 506.988 0.0434614 1.5754 0
M  V30 5059 C 508.399 -0.493343 1.80064 0
M  V30 5060 C 508.75 -1.71388 0.955023 0
M  V30 5061 O 507.875 -2.15736 0.169434 0
M  V30 5062 C 508.47 -0.90179 3.26578 0
M  V30 5063 C 507.029 -1.38362 3.50047 0
M  V30 5064 C 506.176 -0.355129 2.75017 0
M  V30 5065 H 509.127 0.2694 1.56397 0
M  V30 5066 H 509.148 -1.76523 3.37075 0
M  V30 5067 H 508.66 -0.013271 3.88098 0
M  V30 5068 H 506.761 -2.29159 2.93798 0
M  V30 5069 H 506.874 -1.3811 4.58762 0
M  V30 5070 H 505.238 -0.826348 2.40922 0
M  V30 5071 H 506.021 0.525172 3.39259 0
M  V30 5072 N 508.466 -1.55915 -0.229846 0
M  V30 5073 C 509.376 -1.94891 -1.30593 0
M  V30 5074 C 510.392 -0.851604 -1.51736 0
M  V30 5075 O 511.568 -1.15447 -1.65027 0
M  V30 5076 C 508.633 -2.25052 -2.63728 0
M  V30 5077 C 507.694 -3.48306 -2.5096 0
M  V30 5078 C 506.927 -3.77019 -3.77747 0
M  V30 5079 O 507.15 -3.07534 -4.80395 0
M  V30 5080 O 506.084 -4.70523 -3.75356 0
M  V30 5081 H 509.91 -2.86581 -1.00525 0
M  V30 5082 H 507.495 -1.43017 -0.432025 0
M  V30 5083 H 509.377 -2.45682 -3.42372 0
M  V30 5084 H 508.052 -1.36538 -2.93495 0
M  V30 5085 H 506.959 -3.32964 -1.70546 0
M  V30 5086 H 508.292 -4.37177 -2.26136 0
M  V30 5087 N 509.944 0.496216 -1.49584 0
M  V30 5088 C 511.193 1.24668 -1.58558 0
M  V30 5089 C 511.506 1.9359 -0.279703 0
M  V30 5090 O 512.712 2.70365 -0.248048 0
M  V30 5091 C 511.168 2.26388 -2.79779 0
M  V30 5092 C 510.776 1.63384 -4.17145 0
M  V30 5093 C 512.52 3.02233 -2.98086 0
M  V30 5094 C 510.427 2.63243 -5.29582 0
M  V30 5095 H 509.357 0.468995 -0.590389 0
M  V30 5096 H 512.008 0.519985 -1.75978 0
M  V30 5097 H 510.39 3.02241 -2.55863 0
M  V30 5098 H 511.564 0.93491 -4.51216 0
M  V30 5099 H 509.879 0.999121 -4.04236 0
M  V30 5100 H 512.476 3.76919 -3.79257 0
M  V30 5101 H 512.819 3.60132 -2.08831 0
M  V30 5102 H 513.352 2.33495 -3.22063 0
M  V30 5103 H 510.091 2.10119 -6.20911 0
M  V30 5104 H 509.611 3.31363 -4.99959 0
M  V30 5105 H 511.29 3.25575 -5.59115 0
M  V30 5106 N 511.423 1.38739 0.74761 0
M  V30 5107 C 512.834 1.31507 1.32524 0
M  V30 5108 C 513.185 -0.0263963 1.96182 0
M  V30 5109 O 512.31 -0.92849 1.95469 0
M  V30 5110 C 512.905 2.38162 2.40966 0
M  V30 5111 C 511.464 2.34489 2.94434 0
M  V30 5112 C 510.611 2.20712 1.67873 0
M  V30 5113 H 513.562 1.4901 0.546043 0
M  V30 5114 H 513.583 2.04222 3.21051 0
M  V30 5115 H 513.095 3.35783 1.94605 0
M  V30 5116 H 511.196 1.40467 3.45108 0
M  V30 5117 H 511.309 3.28861 3.48407 0
M  V30 5118 H 509.673 1.67667 1.91729 0
M  V30 5119 H 510.456 3.20285 1.23582 0
M  V30 5120 N 512.901 -0.976442 1.23707 0
M  V30 5121 C 514.317 -1.24341 1.00058 0
M  V30 5122 C 514.517 -1.99315 -0.295932 0
M  V30 5123 O 513.573 -2.3123 -1.01435 0
M  V30 5124 C 514.886 -2.03909 2.21001 0
M  V30 5125 C 516.434 -2.17034 2.25534 0
M  V30 5126 C 516.909 -2.99994 3.46075 0
M  V30 5127 N 518.4 -3.07578 3.46338 0
M  V30 5128 C 519.135 -3.72104 4.36264 0
M  V30 5129 N 518.631 -4.3842 5.36432 0
M  V30 5130 N 520.424 -3.69029 4.23998 0
M  V30 5131 H 512.575 -0.47428 2.07037 0
M  V30 5132 H 514.838 -0.272167 0.908091 0
M  V30 5133 H 514.544 -1.56198 3.15111 0
M  V30 5134 H 514.418 -3.04654 2.22409 0
M  V30 5135 H 516.805 -2.63951 1.31961 0
M  V30 5136 H 516.886 -1.15664 2.28156 0
M  V30 5137 H 516.53 -2.53772 4.39957 0
M  V30 5138 H 516.46 -4.01541 3.40694 0
M  V30 5139 H 518.951 -2.60397 2.73865 0
M  V30 5140 H 519.264 -4.85447 6.013 0
M  V30 5141 H 517.609 -4.37116 5.40328 0
M  V30 5142 H 520.8 -3.16392 3.44984 0
M  V30 5143 H 520.973 -4.19034 4.94282 0
M  V30 5144 N 514.379 -1.04941 -1.1758 0
M  V30 5145 C 515.625 -0.768896 -1.88307 0
M  V30 5146 C 515.98 0.696361 -1.79356 0
M  V30 5147 O 515.273 1.50245 -1.18899 0
M  V30 5148 C 515.467 -1.18062 -3.37337 0
M  V30 5149 C 515.296 -2.68436 -3.60794 0
M  V30 5150 C 514.066 -3.35709 -3.77661 0
M  V30 5151 C 516.264 -3.66657 -3.60649 0
M  V30 5152 N 514.246 -4.74974 -3.88939 0
M  V30 5153 C 515.617 -4.91638 -3.77747 0
M  V30 5154 C 517.672 -3.60162 -3.43785 0
M  V30 5155 C 516.375 -6.10902 -3.79726 0
M  V30 5156 C 518.401 -4.78863 -3.47051 0
M  V30 5157 C 517.763 -6.02666 -3.64654 0
M  V30 5158 H 513.862 -0.33355 -0.707296 0
M  V30 5159 H 516.446 -1.34085 -1.41171 0
M  V30 5160 H 514.617 -0.636648 -3.83147 0
M  V30 5161 H 516.349 -0.8502 -3.95669 0
M  V30 5162 H 513.104 -2.8611 -3.77409 0
M  V30 5163 H 513.528 -5.47378 -3.98379 0
M  V30 5164 H 518.17 -2.65412 -3.29114 0
M  V30 5165 H 515.888 -7.05998 -3.93182 0
M  V30 5166 H 519.474 -4.75488 -3.35265 0
M  V30 5167 H 518.354 -6.92979 -3.67083 0
M  V30 5168 N 515.857 1.33968 -0.830081 0
M  V30 5169 C 517.105 1.97672 -0.420734 0
M  V30 5170 C 517.426 1.66111 1.02138 0
M  V30 5171 O 516.696 0.955503 1.71017 0
M  V30 5172 H 515.276 0.73125 -0.152587 0
M  V30 5173 H 517.938 1.63483 -1.0611 0
M  V30 5174 H 517.034 3.07294 -0.545588 0
M  V30 5175 N 517.335 0.585699 1.46312 0
M  V30 5176 C 518.56 0.0762461 2.0726 0
M  V30 5177 C 518.985 -1.22071 1.43109 0
M  V30 5178 O 518.343 -1.73804 0.515942 0
M  V30 5179 C 518.391 -0.0729404 3.60526 0
M  V30 5180 O 517.495 -1.1287 3.96654 0
M  V30 5181 H 516.836 0.0641558 0.660893 0
M  V30 5182 H 519.366 0.809492 1.87905 0
M  V30 5183 H 519.376 -0.278158 4.07051 0
M  V30 5184 H 518.051 0.874188 4.06609 0
M  V30 5185 H 516.628 -0.901703 3.61834 0
M  V30 5186 N 518.813 -1.54241 0.323641 0
M  V30 5187 C 519.745 -2.21836 -0.576311 0
M  V30 5188 C 520.758 -1.21837 -1.07979 0
M  V30 5189 O 521.947 -1.48306 -0.99336 0
M  V30 5190 C 519.047 -2.86923 -1.80356 0
M  V30 5191 C 518.22 -4.1306 -1.43875 0
M  V30 5192 C 517.279 -4.6174 -2.52353 0
M  V30 5193 O 516.305 -5.26421 -2.16494 0
M  V30 5194 N 517.507 -4.35974 -3.83284 0
M  V30 5195 H 520.272 -2.997 0.00247987 0
M  V30 5196 H 517.833 -1.61233 0.146848 0
M  V30 5197 H 519.825 -3.16414 -2.52318 0
M  V30 5198 H 518.395 -2.12765 -2.29019 0
M  V30 5199 H 517.615 -3.90334 -0.550752 0
M  V30 5200 H 518.903 -4.95148 -1.17071 0
M  V30 5201 H 518.301 -3.84203 -4.15216 0
M  V30 5202 H 516.858 -4.70119 -4.51477 0
M  V30 5203 N 520.291 -0.0518155 -1.57515 0
M  V30 5204 C 521.516 0.634896 -1.97443 0
M  V30 5205 C 521.941 1.63546 -0.929207 0
M  V30 5206 O 521.299 1.80981 0.107484 0
M  V30 5207 C 521.347 1.29765 -3.36442 0
M  V30 5208 O 520.451 2.41333 -3.34413 0
M  V30 5209 H 519.792 0.164994 -0.643174 0
M  V30 5210 H 522.322 -0.120407 -2.04245 0
M  V30 5211 H 522.332 1.64918 -3.73184 0
M  V30 5212 H 521.007 0.564361 -4.12053 0
M  V30 5213 H 519.584 2.08122 -3.09418 0
M  V30 5214 N 521.769 1.56035 0.221574 0
M  V30 5215 C 522.997 1.8313 0.962864 0
M  V30 5216 C 523.412 0.630934 1.77946 0
M  V30 5217 O 522.769 -0.400519 1.78051 0
M  V30 5218 C 522.82 3.08742 1.88045 0
M  V30 5219 O 522.541 4.24147 1.09686 0
M  V30 5220 C 524.042 3.48824 2.73563 0
M  V30 5221 H 521.262 0.608775 0.282194 0
M  V30 5222 H 523.806 2.03124 0.23681 0
M  V30 5223 H 521.961 2.90723 2.56045 0
M  V30 5224 H 522.375 4.95505 1.71974 0
M  V30 5225 H 523.849 4.39752 3.3365 0
M  V30 5226 H 524.326 2.70575 3.45956 0
M  V30 5227 H 524.932 3.69282 2.10976 0
M  V30 5228 N 523.247 -0.488276 1.49845 0
M  V30 5229 C 524.18 -1.60651 1.62069 0
M  V30 5230 C 525.158 -1.5568 0.469308 0
M  V30 5231 O 526.342 -1.75553 0.686551 0
M  V30 5232 C 523.469 -2.99197 1.58741 0
M  V30 5233 C 522.515 -3.22385 2.79232 0
M  V30 5234 S 523.348 -3.04133 4.40753 0
M  V30 5235 C 524.504 -4.45052 4.4009 0
M  V30 5236 H 524.737 -1.50039 2.56662 0
M  V30 5237 H 522.27 -0.674371 1.38894 0
M  V30 5238 H 524.228 -3.79081 1.57506 0
M  V30 5239 H 522.889 -3.07213 0.654136 0
M  V30 5240 H 522.082 -4.23557 2.73159 0
M  V30 5241 H 521.684 -2.50245 2.77945 0
M  V30 5242 H 523.976 -5.37375 4.12594 0
M  V30 5243 H 524.919 -4.56172 5.41583 0
M  V30 5244 H 525.327 -4.26327 3.70008 0
M  V30 5245 N 524.725 -1.39134 -0.740242 0
M  V30 5246 C 525.95 -1.39518 -1.53459 0
M  V30 5247 C 526.375 0.00968883 -1.88098 0
M  V30 5248 O 525.733 0.995312 -1.51536 0
M  V30 5249 C 525.781 -2.26981 -2.802 0
M  V30 5250 O 524.885 -1.69609 -3.75908 0
M  V30 5251 H 524.226 -0.475328 -0.463637 0
M  V30 5252 H 526.756 -1.83064 -0.913717 0
M  V30 5253 H 526.766 -2.41309 -3.28989 0
M  V30 5254 H 525.441 -3.29081 -2.5432 0
M  V30 5255 H 524.018 -1.64495 -3.34658 0
M  V30 5256 N 526.204 0.969867 -1.24223 0
M  V30 5257 C 527.432 1.74756 -1.10761 0
M  V30 5258 C 527.847 1.85713 0.340041 0
M  V30 5259 O 527.204 1.34389 1.23474 0
M  V30 5260 C 527.255 3.16915 -1.73917 0
M  V30 5261 O 526.976 3.06511 -3.13021 0
M  V30 5262 C 528.477 4.11032 -1.66036 0
M  V30 5263 H 525.697 0.548092 -0.387087 0
M  V30 5264 H 528.241 1.2178 -1.64286 0
M  V30 5265 H 526.396 3.66884 -1.244 0
M  V30 5266 H 526.81 3.96079 -3.43834 0
M  V30 5267 H 528.284 5.08446 -2.14911 0
M  V30 5268 H 528.761 4.34785 -0.621159 0
M  V30 5269 H 529.367 3.66972 -2.14969 0
M  V30 5270 N 527.682 1.05563 1.17022 0
M  V30 5271 C 528.612 0.681026 2.23348 0
M  V30 5272 C 529.593 -0.322983 1.67005 0
M  V30 5273 O 530.778 -0.199746 1.9317 0
M  V30 5274 C 527.908 0.0589053 3.4725 0
M  V30 5275 C 526.862 0.988082 4.16438 0
M  V30 5276 C 526.188 0.229646 5.34207 0
M  V30 5277 C 527.488 2.31388 4.68249 0
M  V30 5278 H 529.182 1.56993 2.54938 0
M  V30 5279 H 526.728 0.756302 1.2254 0
M  V30 5280 H 528.681 -0.214982 4.20851 0
M  V30 5281 H 527.405 -0.864968 3.14938 0
M  V30 5282 H 526.064 1.24659 3.44754 0
M  V30 5283 H 525.712 -0.697111 4.98146 0
M  V30 5284 H 525.412 0.848815 5.81437 0
M  V30 5285 H 526.936 -0.0368694 6.10589 0
M  V30 5286 H 528.35 2.09964 5.33468 0
M  V30 5287 H 526.747 2.88736 5.26072 0
M  V30 5288 H 527.817 2.94982 3.84855 0
M  V30 5289 N 529.16 -1.33526 0.837174 0
M  V30 5290 C 530.092 -2.28077 0.226579 0
M  V30 5291 C 531.105 -1.51666 -0.591717 0
M  V30 5292 O 532.294 -1.73511 -0.419064 0
M  V30 5293 C 529.394 -3.31597 -0.69978 0
M  V30 5294 C 528.567 -4.37329 0.0788067 0
M  V30 5295 C 527.626 -5.20526 -0.770637 0
M  V30 5296 O 526.652 -5.68811 -0.210453 0
M  V30 5297 N 527.854 -5.41639 -2.08825 0
M  V30 5298 H 530.619 -2.81115 1.03897 0
M  V30 5299 H 528.18 -1.46201 0.695476 0
M  V30 5300 H 530.172 -3.84158 -1.27298 0
M  V30 5301 H 528.742 -2.78848 -1.41288 0
M  V30 5302 H 527.962 -3.8529 0.833381 0
M  V30 5303 H 529.25 -5.05079 0.614238 0
M  V30 5304 H 528.648 -5.04108 -2.56693 0
M  V30 5305 H 527.205 -5.97263 -2.60998 0
M  V30 5306 N 530.638 -0.59345 -1.46 0
M  V30 5307 C 531.571 0.182196 -2.27472 0
M  V30 5308 C 532.549 0.886901 -1.36282 0
M  V30 5309 O 533.733 0.898627 -1.65701 0
M  V30 5310 C 530.86 1.26236 -3.14296 0
M  V30 5311 C 529.906 0.662331 -4.21326 0
M  V30 5312 S 530.739 -0.519017 -5.32979 0
M  V30 5313 C 531.895 0.562086 -6.23371 0
M  V30 5314 H 532.128 -0.509056 -2.92909 0
M  V30 5315 H 529.661 -0.380607 -1.49635 0
M  V30 5316 H 531.619 1.88075 -3.64881 0
M  V30 5317 H 530.28 1.92562 -2.48151 0
M  V30 5318 H 529.473 1.47461 -4.81945 0
M  V30 5319 H 529.075 0.119381 -3.73809 0
M  V30 5320 H 531.367 1.44494 -6.61912 0
M  V30 5321 H 532.31 -0.00760776 -7.081 0
M  V30 5322 H 532.718 0.871061 -5.57739 0
M  V30 5323 N 532.116 1.54067 -0.331816 0
M  V30 5324 C 533.341 2.05599 0.272705 0
M  V30 5325 C 533.766 1.2059 1.44359 0
M  V30 5326 O 533.124 0.216907 1.79998 0
M  V30 5327 C 533.172 3.54188 0.677021 0
M  V30 5328 O 532.276 3.72082 1.77844 0
M  V30 5329 H 531.617 0.662286 0.0476801 0
M  V30 5330 H 534.147 1.98826 -0.482624 0
M  V30 5331 H 534.157 3.96608 0.957415 0
M  V30 5332 H 532.832 4.15513 -0.179325 0
M  V30 5333 H 531.409 3.41566 1.49622 0
M  V30 5334 N 533.594 0.0601682 1.57485 0
M  V30 5335 C 534.524 -0.90889 2.15085 0
M  V30 5336 C 535.505 -1.31838 1.07484 0
M  V30 5337 O 536.69 -1.3915 1.35466 0
M  V30 5338 C 533.82 -2.18059 2.7031 0
M  V30 5339 C 532.774 -1.91088 3.82974 0
M  V30 5340 C 532.1 -3.24789 4.24754 0
M  V30 5341 C 533.4 -1.22535 5.07723 0
M  V30 5342 H 535.094 -0.429093 2.96309 0
M  V30 5343 H 532.64 -0.204952 1.42534 0
M  V30 5344 H 534.593 -2.86258 3.09248 0
M  V30 5345 H 533.317 -2.6826 1.8629 0
M  V30 5346 H 531.976 -1.25297 3.44523 0
M  V30 5347 H 531.624 -3.72809 3.37672 0
M  V30 5348 H 531.324 -3.07538 5.00694 0
M  V30 5349 H 532.848 -3.94205 4.66299 0
M  V30 5350 H 534.262 -1.80783 5.4405 0
M  V30 5351 H 532.659 -1.1558 5.88864 0
M  V30 5352 H 533.729 -0.202692 4.84476 0
M  V30 5353 N 535.072 -1.5615 -0.213296 0
M  V30 5354 C 536.004 -1.89586 -1.28802 0
M  V30 5355 C 537.017 -0.784844 -1.42633 0
M  V30 5356 O 538.206 -1.06319 -1.43383 0
M  V30 5357 C 535.306 -2.09665 -2.66259 0
M  V30 5358 C 534.479 -3.40726 -2.7427 0
M  V30 5359 C 533.538 -3.50137 -3.92798 0
M  V30 5360 O 532.564 -4.23105 -3.8075 0
M  V30 5361 N 533.766 -2.81886 -5.07465 0
M  V30 5362 H 536.531 -2.82368 -1.00442 0
M  V30 5363 H 534.092 -1.56796 -0.403302 0
M  V30 5364 H 536.084 -2.13268 -3.43946 0
M  V30 5365 H 534.654 -1.23469 -2.87183 0
M  V30 5366 H 533.874 -3.4915 -1.82997 0
M  V30 5367 H 535.162 -4.27048 -2.76599 0
M  V30 5368 H 534.56 -2.22397 -5.2015 0
M  V30 5369 H 533.117 -2.91139 -5.83165 0
M  V30 5370 N 536.55 0.480323 -1.50102 0
M  V30 5371 C 537.513 1.56181 -1.6775 0
M  V30 5372 C 538.513 1.51156 -0.548503 0
M  V30 5373 O 539.703 1.5394 -0.815363 0
M  V30 5374 C 536.835 2.95823 -1.69415 0
M  V30 5375 H 538.028 1.41855 -2.6423 0
M  V30 5376 H 535.581 0.70605 -1.39444 0
M  V30 5377 H 536.316 3.15604 -0.745948 0
M  V30 5378 H 536.101 3.00878 -2.51425 0
M  V30 5379 H 537.591 3.74359 -1.85054 0
M  V30 5380 N 538.028 1.39524 0.732853 0
M  V30 5381 C 538.938 1.40695 1.87729 0
M  V30 5382 C 539.954 0.301496 1.71368 0
M  V30 5383 O 541.13 0.543313 1.93933 0
M  V30 5384 C 538.195 1.25098 3.23344 0
M  V30 5385 C 537.256 2.45634 3.52083 0
M  V30 5386 C 536.489 2.30772 4.81228 0
M  V30 5387 O 536.712 1.31233 5.55098 0
M  V30 5388 O 535.646 3.19799 5.09914 0
M  V30 5389 H 539.472 2.37168 1.89697 0
M  V30 5390 H 537.057 1.20663 0.880959 0
M  V30 5391 H 538.939 1.18541 4.04383 0
M  V30 5392 H 537.614 0.317209 3.22142 0
M  V30 5393 H 536.521 2.57767 2.71122 0
M  V30 5394 H 537.854 3.37712 3.58066 0
M  V30 5395 N 539.506 -0.963266 1.24736 0
M  V30 5396 C 540.731 -1.74699 1.11781 0
M  V30 5397 C 541.156 -1.85267 -0.325258 0
M  V30 5398 O 540.514 -1.32681 -1.23553 0
M  V30 5399 C 540.562 -3.14322 1.76731 0
M  V30 5400 O 539.666 -3.99043 1.04109 0
M  V30 5401 H 539.007 -0.53684 0.390767 0
M  V30 5402 H 541.537 -1.20801 1.65131 0
M  V30 5403 H 541.547 -3.64824 1.82668 0
M  V30 5404 H 540.222 -3.05946 2.81726 0
M  V30 5405 H 538.799 -3.5752 1.05991 0
M  V30 5406 N 540.985 -1.06182 -1.16461 0
M  V30 5407 C 541.932 -0.671613 -2.20812 0
M  V30 5408 C 542.902 0.331186 -1.62765 0
M  V30 5409 O 544.087 0.22033 -1.89524 0
M  V30 5410 C 541.227 -0.063029 -3.45042 0
M  V30 5411 C 540.34 -1.11587 -4.1734 0
M  V30 5412 C 539.475 -0.473546 -5.29085 0
M  V30 5413 C 538.514 -1.51 -5.93182 0
M  V30 5414 N 537.651 -0.891118 -6.96422 0
M  V30 5415 H 542.491 -1.56589 -2.53542 0
M  V30 5416 H 540.028 -0.782951 -1.24532 0
M  V30 5417 H 541.986 0.307344 -4.16066 0
M  V30 5418 H 540.616 0.794663 -3.12866 0
M  V30 5419 H 539.668 -1.60396 -3.44931 0
M  V30 5420 H 540.98 -1.90221 -4.61104 0
M  V30 5421 H 540.134 -0.0501432 -6.06679 0
M  V30 5422 H 538.873 0.344687 -4.8648 0
M  V30 5423 H 537.878 -1.94331 -5.14311 0
M  V30 5424 H 539.103 -2.33031 -6.37866 0
M  V30 5425 H 537.049 -0.0935753 -6.55933 0
M  V30 5426 H 536.966 -1.61486 -7.38551 0
M  V30 5427 H 538.234 -0.492822 -7.77941 0
M  V30 5428 N 542.463 1.3308 -0.844243 0
M  V30 5429 C 543.426 2.27403 -0.286485 0
M  V30 5430 C 544.426 1.51179 0.547872 0
M  V30 5431 O 545.616 1.70421 0.360886 0
M  V30 5432 C 542.748 3.35653 0.595813 0
M  V30 5433 H 543.941 2.78248 -1.11885 0
M  V30 5434 H 541.494 1.43574 -0.617749 0
M  V30 5435 H 542.229 2.90058 1.4504 0
M  V30 5436 H 542.014 3.921 -0.00125994 0
M  V30 5437 H 543.504 4.05958 0.979168 0
M  V30 5438 N 543.941 0.601185 1.45683 0
M  V30 5439 C 545.169 0.100054 2.06658 0
M  V30 5440 C 545.584 -1.21285 1.44691 0
M  V30 5441 O 544.941 -1.73735 0.558772 0
M  V30 5442 C 544.992 -0.0528579 3.61461 0
M  V30 5443 O 544.713 1.20809 4.21114 0
M  V30 5444 C 546.214 -0.586193 4.39407 0
M  V30 5445 H 543.434 0.065905 0.667756 0
M  V30 5446 H 545.978 0.827101 1.87028 0
M  V30 5447 H 544.133 -0.730203 3.80456 0
M  V30 5448 H 544.547 1.03368 5.14213 0
M  V30 5449 H 546.021 -0.642297 5.4825 0
M  V30 5450 H 546.498 -1.60713 4.0874 0
M  V30 5451 H 547.104 0.0568935 4.25262 0
M  V30 5452 N 545.419 -1.53889 0.339982 0
M  V30 5453 C 546.668 -2.00035 -0.258604 0
M  V30 5454 C 546.981 -1.23179 -1.51942 0
M  V30 5455 O 548.187 -1.59784 -2.19503 0
M  V30 5456 C 546.643 -3.56249 -0.511359 0
M  V30 5457 C 546.251 -4.41957 0.733349 0
M  V30 5458 C 547.995 -4.1082 -1.069 0
M  V30 5459 C 545.902 -5.89673 0.451591 0
M  V30 5460 H 544.832 -0.747284 -0.10041 0
M  V30 5461 H 547.483 -1.77776 0.454758 0
M  V30 5462 H 545.865 -3.7456 -1.28533 0
M  V30 5463 H 547.039 -4.35421 1.50815 0
M  V30 5464 H 545.354 -3.9836 1.21237 0
M  V30 5465 H 547.951 -5.18789 -1.2947 0
M  V30 5466 H 548.294 -3.63817 -2.02343 0
M  V30 5467 H 548.827 -3.96205 -0.355817 0
M  V30 5468 H 545.566 -6.40903 1.37565 0
M  V30 5469 H 545.086 -5.99122 -0.285193 0
M  V30 5470 H 546.765 -6.46965 0.0675067 0
M  V30 5471 N 546.897 -0.0685191 -1.57451 0
M  V30 5472 C 548.125 0.610462 -1.97689 0
M  V30 5473 C 548.54 1.63346 -0.946758 0
M  V30 5474 O 547.897 1.82377 0.0669868 0
M  V30 5475 C 547.948 1.28196 -3.38006 0
M  V30 5476 O 547.669 0.299906 -4.37072 0
M  V30 5477 C 549.17 2.04907 -3.931 0
M  V30 5478 H 546.39 0.165689 -0.650222 0
M  V30 5479 H 548.934 -0.139953 -2.04021 0
M  V30 5480 H 547.089 1.98348 -3.32771 0
M  V30 5481 H 547.503 0.78126 -5.18649 0
M  V30 5482 H 548.977 2.47287 -4.93511 0
M  V30 5483 H 549.454 2.9043 -3.29465 0
M  V30 5484 H 550.06 1.39629 -4.01726 0
M  V30 5485 N 548.375 1.56261 0.205012 0
M  V30 5486 C 549.786 1.70056 0.770574 0
M  V30 5487 C 550.137 0.673398 1.84282 0
M  V30 5488 O 549.262 -0.172196 2.15714 0
M  V30 5489 C 549.857 3.08316 1.40451 0
M  V30 5490 C 548.416 3.2391 1.91727 0
M  V30 5491 C 547.563 2.66001 0.783516 0
M  V30 5492 H 550.514 1.58688 -0.019911 0
M  V30 5493 H 550.535 3.05094 2.27371 0
M  V30 5494 H 550.047 3.83053 0.623882 0
M  V30 5495 H 548.148 2.54072 2.7254 0
M  V30 5496 H 548.261 4.3131 2.08588 0
M  V30 5497 H 546.625 2.24915 1.19521 0
M  V30 5498 H 547.408 3.43297 0.0152883 0
M  V30 5499 N 549.853 -0.472356 1.50355 0
M  V30 5500 C 551.078 -1.25251 1.65309 0
M  V30 5501 C 551.503 -1.85081 0.335643 0
M  V30 5502 O 550.861 -1.67227 -0.700335 0
M  V30 5503 C 550.909 -2.3379 2.74544 0
M  V30 5504 O 550.013 -3.38401 2.35709 0
M  V30 5505 H 549.354 -0.368539 0.552336 0
M  V30 5506 H 551.884 -0.562271 1.96722 0
M  V30 5507 H 551.894 -2.79121 2.97583 0
M  V30 5508 H 550.569 -1.89614 3.70161 0
M  V30 5509 H 549.146 -2.9879 2.23112 0
M  V30 5510 N 551.331 -1.39911 -0.725443 0
M  V30 5511 C 552.579 -1.37382 -1.48224 0
M  V30 5512 C 552.9 0.0264107 -1.94982 0
M  V30 5513 O 552.17 0.979408 -1.6966 0
M  V30 5514 H 550.75 -0.505596 -0.549892 0
M  V30 5515 H 553.412 -1.7487 -0.860608 0
M  V30 5516 H 552.508 -2.04254 -2.3598 0
M  V30 5517 N 552.809 0.956637 -1.25245 0
M  V30 5518 C 554.034 1.74104 -1.12706 0
M  V30 5519 C 554.459 1.85436 0.315429 0
M  V30 5520 O 553.817 1.33334 1.22848 0
M  V30 5521 C 553.865 3.1338 -1.78396 0
M  V30 5522 O 552.969 3.98485 -1.06224 0
M  V30 5523 H 552.31 0.53476 -0.393609 0
M  V30 5524 H 554.84 1.19924 -1.65769 0
M  V30 5525 H 554.85 3.6385 -1.846 0
M  V30 5526 H 553.525 3.04448 -2.83345 0
M  V30 5527 H 552.102 3.56952 -1.07886 0
M  V30 5528 N 554.287 1.06798 1.15896 0
M  V30 5529 C 555.533 0.788934 1.86825 0
M  V30 5530 C 555.866 -0.683084 1.8179 0
M  V30 5531 O 555.141 -1.50086 1.23711 0
M  V30 5532 C 555.424 1.29065 3.36176 0
M  V30 5533 C 555.277 2.8268 3.49874 0
M  V30 5534 C 556.596 0.902655 4.30744 0
M  V30 5535 H 553.715 0.288066 0.678371 0
M  V30 5536 H 556.357 1.32479 1.36195 0
M  V30 5537 H 554.507 0.834806 3.79425 0
M  V30 5538 H 556.179 3.36511 3.15528 0
M  V30 5539 H 554.422 3.21157 2.91617 0
M  V30 5540 H 555.093 3.12852 4.54783 0
M  V30 5541 H 557.569 1.29535 3.95424 0
M  V30 5542 H 556.445 1.28111 5.3374 0
M  V30 5543 H 556.706 -0.191951 4.41683 0
M  V30 5544 N 555.766 -1.3263 0.851289 0
M  V30 5545 C 557.015 -1.96633 0.449267 0
M  V30 5546 C 557.328 -1.68131 -0.999562 0
M  V30 5547 O 558.534 -2.25845 -1.50685 0
M  V30 5548 C 556.99 -3.51946 0.752446 0
M  V30 5549 C 556.598 -3.89311 2.21678 0
M  V30 5550 C 558.342 -4.22437 0.417983 0
M  V30 5551 C 556.249 -5.37655 2.46336 0
M  V30 5552 H 555.179 -0.735888 0.164269 0
M  V30 5553 H 557.83 -1.51073 1.0416 0
M  V30 5554 H 556.212 -3.95899 0.0895858 0
M  V30 5555 H 557.386 -3.56378 2.92115 0
M  V30 5556 H 555.701 -3.31836 2.51543 0
M  V30 5557 H 558.298 -5.31549 0.579674 0
M  V30 5558 H 558.641 -4.11349 -0.640115 0
M  V30 5559 H 559.174 -3.84057 1.03659 0
M  V30 5560 H 555.913 -5.5376 3.50757 0
M  V30 5561 H 555.433 -5.72005 1.80473 0
M  V30 5562 H 557.112 -6.04695 2.30115 0
M  V30 5563 N 557.244 -0.608902 -1.45362 0
M  V30 5564 C 558.469 -0.10921 -2.07112 0
M  V30 5565 C 558.894 1.19779 -1.45033 0
M  V30 5566 O 558.252 1.72961 -0.543527 0
M  V30 5567 C 558.3 0.0155745 -3.60597 0
M  V30 5568 O 557.404 1.06546 -3.98399 0
M  V30 5569 H 556.745 -0.0746619 -0.659789 0
M  V30 5570 H 559.275 -0.839283 -1.86594 0
M  V30 5571 H 559.285 0.213364 -4.07442 0
M  V30 5572 H 557.96 -0.938765 -4.05167 0
M  V30 5573 H 556.537 0.844024 -3.63223 0
M  V30 5574 N 558.722 1.53707 -0.348139 0
M  V30 5575 C 559.669 2.25173 0.506518 0
M  V30 5576 C 560.639 1.25174 1.09182 0
M  V30 5577 O 561.824 1.53917 1.12757 0
M  V30 5578 C 558.964 3.03141 1.64923 0
M  V30 5579 C 558.077 4.18002 1.0908 0
M  V30 5580 C 557.212 4.83447 2.20119 0
M  V30 5581 C 556.251 5.90369 1.61651 0
M  V30 5582 N 555.388 6.49575 2.66451 0
M  V30 5583 H 560.228 2.97799 -0.109452 0
M  V30 5584 H 557.765 1.46953 -0.0657866 0
M  V30 5585 H 559.723 3.46607 2.32205 0
M  V30 5586 H 558.353 2.32803 2.23612 0
M  V30 5587 H 557.405 3.79145 0.308783 0
M  V30 5588 H 558.717 4.94892 0.623178 0
M  V30 5589 H 557.871 5.30008 2.95257 0
M  V30 5590 H 556.61 4.05991 2.70227 0
M  V30 5591 H 555.615 5.43186 0.850209 0
M  V30 5592 H 556.84 6.69735 1.1239 0
M  V30 5593 H 554.786 5.74981 3.15805 0
M  V30 5594 H 554.703 7.21952 2.24325 0
M  V30 5595 H 555.971 7.00789 3.41344 0
M  V30 5596 N 560.2 0.0768682 1.57412 0
M  V30 5597 C 561.447 -0.591085 1.93681 0
M  V30 5598 C 561.775 -1.69311 0.957286 0
M  V30 5599 O 561.03 -1.95682 -0.0262428 0
M  V30 5600 C 561.329 -1.20268 3.36557 0
M  V30 5601 C 560.995 -0.226286 4.50332 0
M  V30 5602 C 559.657 0.0423142 4.81181 0
M  V30 5603 C 562.009 0.441415 5.19327 0
M  V30 5604 C 559.337 0.985616 5.78362 0
M  V30 5605 C 561.689 1.37307 6.17519 0
M  V30 5606 C 560.353 1.65009 6.46783 0
M  V30 5607 H 559.623 -0.216293 0.70873 0
M  V30 5608 H 562.27 0.148824 1.90921 0
M  V30 5609 H 560.575 -2.01844 3.35807 0
M  V30 5610 H 562.272 -1.72688 3.61911 0
M  V30 5611 H 558.862 -0.445821 4.26275 0
M  V30 5612 H 563.046 0.247023 4.95685 0
M  V30 5613 H 558.302 1.20743 5.99359 0
M  V30 5614 H 562.476 1.89637 6.70083 0
M  V30 5615 H 560.103 2.38263 7.21897 0
M  V30 5616 N 561.678 -1.56367 -0.196722 0
M  V30 5617 C 562.626 -1.95304 -1.2633 0
M  V30 5618 C 563.62 -0.838252 -1.47206 0
M  V30 5619 O 564.826 -1.02325 -1.48087 0
M  V30 5620 H 561.201 -0.621013 -0.424083 0
M  V30 5621 H 563.172 -2.84254 -0.907879 0
M  V30 5622 C 561.921 -2.3074 -2.60104 0
M  V30 5623 H 561.244 -3.16047 -2.44856 0
M  V30 5624 H 562.684 -2.61849 -3.33484 0
M  V30 5625 C 561.143 -1.14143 -3.16975 0
M  V30 5626 O 561.673 -0.415602 -3.99544 0
M  V30 5627 N 559.879 -0.91867 -2.75697 0
M  V30 5628 H 559.426 -1.51065 -2.08656 0
M  V30 5629 H 559.384 -0.140321 -3.14087 0
M  V30 5630 N 563.156 0.464375 -1.50603 0
M  V30 5631 C 564.381 1.24372 -1.65971 0
M  V30 5632 C 564.806 1.84901 -0.345453 0
M  V30 5633 O 564.164 1.67596 0.691457 0
M  V30 5634 C 564.212 2.32331 -2.7578 0
M  V30 5635 O 563.316 3.37146 -2.375 0
M  V30 5636 H 562.657 0.365604 -0.554283 0
M  V30 5637 H 565.187 0.55183 -1.97018 0
M  V30 5638 H 565.197 2.77539 -2.99059 0
M  V30 5639 H 563.872 1.87648 -3.71162 0
M  V30 5640 H 562.449 2.97602 -2.24694 0
M  V30 5641 N 564.634 1.40294 0.718013 0
M  V30 5642 C 565.862 1.4175 1.50714 0
M  V30 5643 C 566.277 0.0165366 1.88793 0
M  V30 5644 O 565.634 -0.958942 1.55276 0
M  V30 5645 C 565.685 2.30598 2.784 0
M  V30 5646 O 565.406 3.6524 2.41932 0
M  V30 5647 C 566.907 2.4062 3.72313 0
M  V30 5648 H 564.127 0.483565 0.465194 0
M  V30 5649 H 566.671 1.84316 0.885889 0
M  V30 5650 H 564.826 1.91401 3.36815 0
M  V30 5651 H 565.24 4.12402 3.24076 0
M  V30 5652 H 566.714 3.07001 4.58753 0
M  V30 5653 H 567.191 1.4305 4.15251 0
M  V30 5654 H 567.797 2.80359 3.19811 0
M  V30 5655 N 566.112 -0.949982 1.2575 0
M  V30 5656 C 567.34 -1.72972 1.13527 0
M  V30 5657 C 567.755 -1.8623 -0.310453 0
M  V30 5658 O 567.112 -1.36336 -1.2132 0
M  V30 5659 C 567.163 -3.14108 1.78936 0
M  V30 5660 O 566.884 -3.01493 3.17858 0
M  V30 5661 C 568.385 -4.08338 1.72554 0
M  V30 5662 H 565.605 -0.541864 0.395758 0
M  V30 5663 H 568.149 -1.19151 1.66202 0
M  V30 5664 H 566.304 -3.64858 1.30221 0
M  V30 5665 H 566.718 -3.90559 3.50092 0
M  V30 5666 H 568.192 -5.04963 2.22973 0
M  V30 5667 H 568.669 -4.33742 0.690251 0
M  V30 5668 H 569.275 -3.63506 2.2078 0
M  V30 5669 N 567.59 -1.07411 -1.15328 0
M  V30 5670 C 568.815 -0.818856 -1.90551 0
M  V30 5671 C 569.24 0.622194 -1.77512 0
M  V30 5672 O 568.598 1.43484 -1.10824 0
M  V30 5673 C 568.646 -1.23267 -3.38877 0
M  V30 5674 O 567.75 -0.378345 -4.10661 0
M  V30 5675 H 567.091 -0.29827 -0.593238 0
M  V30 5676 H 569.621 -1.43289 -1.46046 0
M  V30 5677 H 569.631 -1.20912 -3.89672 0
M  V30 5678 H 568.306 -2.28226 -3.47686 0
M  V30 5679 H 566.883 -0.464437 -3.69996 0
M  V30 5680 N 569.068 1.32177 -0.85831 0
M  V30 5681 C 570.293 2.01847 -0.476718 0
M  V30 5682 C 570.718 1.64065 0.920021 0
M  V30 5683 O 570.076 0.843189 1.60499 0
M  V30 5684 C 570.124 3.55097 -0.627578 0
M  V30 5685 O 569.228 4.11012 0.338086 0
M  V30 5686 H 568.569 0.635907 -0.191099 0
M  V30 5687 H 571.099 1.68641 -1.15851 0
M  V30 5688 H 571.109 4.04718 -0.516476 0
M  V30 5689 H 569.784 3.81938 -1.64609 0
M  V30 5690 H 568.361 3.72451 0.182917 0
M  V30 5691 N 570.547 0.616602 1.45037 0
M  V30 5692 C 571.51 -0.0871112 2.29034 0
M  V30 5693 C 572.51 -0.786414 1.40258 0
M  V30 5694 O 573.7 -0.633207 1.62284 0
M  V30 5695 C 570.832 -1.13369 3.21497 0
M  V30 5696 H 572.025 0.651497 2.92738 0
M  V30 5697 H 569.578 0.376058 1.51709 0
M  V30 5698 H 570.313 -1.90277 2.62612 0
M  V30 5699 H 570.098 -0.636358 3.86902 0
M  V30 5700 H 571.588 -1.62627 3.84633 0
M  V30 5701 N 572.025 -1.5352 0.356285 0
M  V30 5702 C 573.253 -2.05534 -0.237328 0
M  V30 5703 C 573.668 -1.23043 -1.43199 0
M  V30 5704 O 573.025 -0.268821 -1.80509 0
M  V30 5705 C 573.076 -3.55791 -0.639933 0
M  V30 5706 O 572.797 -4.35154 0.507233 0
M  V30 5707 C 574.298 -4.24027 -1.29292 0
M  V30 5708 H 571.518 -0.669585 -0.0435572 0
M  V30 5709 H 574.062 -1.97988 0.511963 0
M  V30 5710 H 572.217 -3.63518 -1.33915 0
M  V30 5711 H 572.631 -5.24178 0.18375 0
M  V30 5712 H 574.105 -5.30509 -1.52527 0
M  V30 5713 H 574.582 -3.77166 -2.25039 0
M  V30 5714 H 575.188 -4.20527 -0.63539 0
M  V30 5715 N 573.503 -0.0852151 -1.57369 0
M  V30 5716 C 574.914 0.445428 -1.81309 0
M  V30 5717 C 575.265 1.68795 -1.00013 0
M  V30 5718 O 574.39 2.15211 -0.226573 0
M  V30 5719 C 574.985 0.814887 -3.28854 0
M  V30 5720 C 573.544 1.29032 -3.53592 0
M  V30 5721 C 572.691 0.282089 -2.75861 0
M  V30 5722 H 575.642 -0.310771 -1.55627 0
M  V30 5723 H 575.663 1.67524 -3.41637 0
M  V30 5724 H 575.175 -0.0896309 -3.87996 0
M  V30 5725 H 573.276 2.21289 -2.9977 0
M  V30 5726 H 573.389 1.25898 -4.62262 0
M  V30 5727 H 571.753 0.762182 -2.43029 0
M  V30 5728 H 572.536 -0.614936 -3.37748 0
M  V30 5729 N 574.981 1.5647 0.188427 0
M  V30 5730 C 575.913 1.91611 1.25769 0
M  V30 5731 C 576.926 0.807436 1.41366 0
M  V30 5732 O 578.115 1.08586 1.41673 0
M  V30 5733 C 575.215 2.13874 2.6289 0
M  V30 5734 C 574.388 3.45047 2.68815 0
M  V30 5735 C 573.447 3.56342 3.87178 0
M  V30 5736 O 572.473 4.29109 3.73971 0
M  V30 5737 N 573.675 2.89924 5.02916 0
M  V30 5738 H 576.44 2.8393 0.959373 0
M  V30 5739 H 574.001 1.57418 0.378306 0
M  V30 5740 H 575.993 2.18713 3.4051 0
M  V30 5741 H 574.563 1.28022 2.85183 0
M  V30 5742 H 573.783 3.52017 1.77419 0
M  V30 5743 H 575.071 4.31395 2.6977 0
M  V30 5744 H 574.469 2.30644 5.16546 0
M  V30 5745 H 573.026 3.0038 5.78459 0
M  V30 5746 N 576.459 -0.456382 1.50847 0
M  V30 5747 C 577.422 -1.53493 1.70213 0
M  V30 5748 C 578.422 -1.50264 0.572481 0
M  V30 5749 O 579.612 -1.52623 0.839751 0
M  V30 5750 C 576.744 -2.93091 1.741 0
M  V30 5751 H 577.937 -1.37633 2.66453 0
M  V30 5752 H 575.49 -0.683776 1.4055 0
M  V30 5753 H 576.225 -3.14378 0.796063 0
M  V30 5754 H 576.01 -2.9684 2.5618 0
M  V30 5755 H 577.5 -3.71368 1.90987 0
M  V30 5756 N 577.937 -1.40673 -0.710563 0
M  V30 5757 C 579.184 -1.39222 -1.47049 0
M  V30 5758 C 579.512 0.0037691 -1.945 0
M  V30 5759 O 578.767 0.989224 -1.68857 0
M  V30 5760 C 579.066 -2.33253 -2.70791 0
M  V30 5761 C 578.732 -3.80406 -2.42079 0
M  V30 5762 C 577.394 -4.20496 -2.33959 0
M  V30 5763 C 579.746 -4.73375 -2.18094 0
M  V30 5764 C 577.074 -5.51584 -1.99929 0
M  V30 5765 C 579.426 -6.04768 -1.85576 0
M  V30 5766 C 578.09 -6.43895 -1.75941 0
M  V30 5767 H 577.36 -0.509449 -0.538092 0
M  V30 5768 H 580.007 -1.73363 -0.81348 0
M  V30 5769 H 578.312 -1.92314 -3.41354 0
M  V30 5770 H 580.009 -2.29412 -3.28894 0
M  V30 5771 H 576.599 -3.48645 -2.49288 0
M  V30 5772 H 580.783 -4.43217 -2.23321 0
M  V30 5773 H 576.039 -5.80797 -1.91011 0
M  V30 5774 H 580.213 -6.76318 -1.66033 0
M  V30 5775 H 577.84 -7.45387 -1.4934 0
M  V30 5776 N 579.415 0.9433 -1.26252 0
M  V30 5777 C 580.692 1.66639 -1.02424 0
M  V30 5778 C 581.072 2.06335 0.446006 0
M  V30 5779 O 580.42 1.78551 1.42589 0
M  V30 5780 C 580.63 2.88019 -1.97094 0
M  V30 5781 C 581.978 3.59718 -2.25584 0
M  V30 5782 O 583.002 2.9812 -1.94943 0
M  V30 5783 O 581.861 4.7066 -2.77743 0
M  V30 5784 H 578.955 0.729643 -0.389294 0
M  V30 5785 H 581.501 0.995218 -1.37454 0
M  V30 5786 H 580.273 2.5556 -2.96319 0
M  V30 5787 H 579.896 3.62863 -1.62532 0
M  V30 5788 N 580.893 1.08022 1.14757 0
M  V30 5789 C 582.118 0.82895 1.90114 0
M  V30 5790 C 582.543 -0.612772 1.77839 0
M  V30 5791 O 581.901 -1.42895 1.11583 0
M  V30 5792 C 581.949 1.25062 3.38219 0
M  V30 5793 O 581.053 0.400119 4.10454 0
M  V30 5794 H 580.394 0.301412 0.591648 0
M  V30 5795 H 582.924 1.44062 1.45284 0
M  V30 5796 H 582.934 1.22977 3.89025 0
M  V30 5797 H 581.609 2.30067 3.46471 0
M  V30 5798 H 580.186 0.484052 3.69745 0
M  V30 5799 N 582.371 -1.3172 0.865308 0
M  V30 5800 C 583.596 -2.01591 0.487415 0
M  V30 5801 C 584.021 -1.6455 -0.911307 0
M  V30 5802 O 583.379 -0.851689 -1.6005 0
M  V30 5803 C 583.427 -3.54759 0.646401 0
M  V30 5804 O 582.531 -4.11185 -0.316284 0
M  V30 5805 H 581.872 -0.634884 0.194468 0
M  V30 5806 H 584.402 -1.68024 1.16744 0
M  V30 5807 H 584.412 -4.04438 0.537932 0
M  V30 5808 H 583.087 -3.8106 1.66632 0
M  V30 5809 H 581.664 -3.72543 -0.163162 0
M  V30 5810 N 583.85 -0.624285 -1.44708 0
M  V30 5811 C 585.075 -0.131171 -2.06985 0
M  V30 5812 C 585.5 1.18234 -1.46295 0
M  V30 5813 O 584.858 1.72375 -0.561842 0
M  V30 5814 C 584.906 -0.0226724 -3.60593 0
M  V30 5815 O 584.01 1.02314 -3.99507 0
M  V30 5816 H 583.351 -0.0816556 -0.65896 0
M  V30 5817 H 585.88 -0.859027 -1.85693 0
M  V30 5818 H 585.891 0.170138 -4.07645 0
M  V30 5819 H 584.566 -0.981685 -4.04148 0
M  V30 5820 H 583.143 0.805452 -3.64097 0
M  V30 5821 N 585.328 1.53329 -0.364422 0
M  V30 5822 C 586.291 2.24323 0.470292 0
M  V30 5823 C 587.291 1.25068 1.01067 0
M  V30 5824 O 588.481 1.49354 0.896605 0
M  V30 5825 C 585.613 2.97908 1.65722 0
M  V30 5826 H 586.806 2.9952 -0.150917 0
M  V30 5827 H 584.359 1.55868 -0.116092 0
M  V30 5828 H 585.094 2.2695 2.31655 0
M  V30 5829 H 584.879 3.70732 1.27671 0
M  V30 5830 H 586.369 3.5188 2.24878 0
M  V30 5831 N 586.806 0.0935595 1.57322 0
M  V30 5832 C 588.052 -0.571355 1.94585 0
M  V30 5833 C 588.385 -1.67929 0.975366 0
M  V30 5834 O 587.66 -1.94498 0.00816206 0
M  V30 5835 C 587.943 -1.12797 3.41978 0
M  V30 5836 C 587.796 -0.0251881 4.49793 0
M  V30 5837 C 589.115 -2.02682 3.90651 0
M  V30 5838 H 586.234 -0.206223 0.70756 0
M  V30 5839 H 588.876 0.163956 1.89291 0
M  V30 5840 H 587.026 -1.75461 3.4662 0
M  V30 5841 H 588.698 0.608979 4.57263 0
M  V30 5842 H 586.941 0.641399 4.29032 0
M  V30 5843 H 587.612 -0.455433 5.50118 0
M  V30 5844 H 590.088 -1.49925 3.88152 0
M  V30 5845 H 588.964 -2.38555 4.94351 0
M  V30 5846 H 589.225 -2.94362 3.29854 0
M  V30 5847 N 588.284 -1.56567 -0.180126 0
M  V30 5848 C 589.53 -1.81761 -0.899497 0
M  V30 5849 C 589.863 -0.670015 -1.82276 0
M  V30 5850 O 589.138 0.328575 -1.91705 0
M  V30 5851 C 589.421 -3.17296 -1.7028 0
M  V30 5852 C 589.274 -4.4257 -0.803255 0
M  V30 5853 C 590.593 -3.49678 -2.67233 0
M  V30 5854 H 587.712 -0.661192 -0.325567 0
M  V30 5855 H 590.354 -1.89272 -0.16612 0
M  V30 5856 H 588.504 -3.11023 -2.32802 0
M  V30 5857 H 590.176 -4.60902 -0.191585 0
M  V30 5858 H 588.419 -4.33658 -0.110796 0
M  V30 5859 H 589.09 -5.33935 -1.40064 0
M  V30 5860 H 591.566 -3.56347 -2.14839 0
M  V30 5861 H 590.442 -4.45605 -3.20511 0
M  V30 5862 H 590.703 -2.73932 -3.47007 0
M  V30 5863 N 589.762 0.448376 -1.51087 0
M  V30 5864 C 591.009 1.19872 -1.63209 0
M  V30 5865 C 591.337 1.91451 -0.343062 0
M  V30 5866 O 590.592 1.83789 0.672321 0
M  V30 5867 C 590.891 2.24866 -2.77795 0
M  V30 5868 C 590.557 1.70378 -4.17471 0
M  V30 5869 C 589.219 1.55241 -4.55471 0
M  V30 5870 C 591.571 1.30203 -5.04675 0
M  V30 5871 C 588.899 0.983844 -5.78392 0
M  V30 5872 C 591.251 0.747798 -6.28165 0
M  V30 5873 C 589.915 0.583233 -6.64947 0
M  V30 5874 H 589.185 0.438642 -0.597222 0
M  V30 5875 H 591.832 0.49136 -1.85089 0
M  V30 5876 H 590.137 3.01598 -2.50092 0
M  V30 5877 H 591.834 2.82723 -2.84374 0
M  V30 5878 H 588.424 1.83134 -3.87505 0
M  V30 5879 H 592.608 1.40723 -4.75932 0
M  V30 5880 H 587.864 0.844007 -6.05546 0
M  V30 5881 H 592.038 0.427927 -6.95084 0
M  V30 5882 H 589.665 0.140532 -7.6007 0
M  V30 5883 N 591.24 1.41047 0.703093 0
M  V30 5884 C 592.489 1.39301 1.4587 0
M  V30 5885 C 592.802 0.00267077 1.956 0
M  V30 5886 O 594.008 -0.137414 2.71152 0
M  V30 5887 C 592.464 2.44891 2.63735 0
M  V30 5888 C 592.072 3.89796 2.20824 0
M  V30 5889 C 593.816 2.5227 3.41409 0
M  V30 5890 C 591.723 4.86955 3.35602 0
M  V30 5891 H 590.653 0.518005 0.547893 0
M  V30 5892 H 593.304 1.66839 0.764009 0
M  V30 5893 H 591.686 2.10472 3.35436 0
M  V30 5894 H 592.86 4.33424 1.56461 0
M  V30 5895 H 591.175 3.86008 1.56163 0
M  V30 5896 H 593.772 3.22044 4.26839 0
M  V30 5897 H 594.115 1.55714 3.86081 0
M  V30 5898 H 594.648 2.85742 2.7676 0
M  V30 5899 H 591.387 5.84888 2.9595 0
M  V30 5900 H 590.907 4.47982 3.98839 0
M  V30 5901 H 592.586 5.07361 4.01489 0
M  V30 5902 N 592.718 -0.936591 1.26751 0
M  V30 5903 C 593.965 -1.68331 1.12566 0
M  V30 5904 C 594.293 -1.91677 -0.330168 0
M  V30 5905 O 593.548 -1.49859 -1.2586 0
M  V30 5906 C 593.847 -3.06099 1.84494 0
M  V30 5907 C 593.513 -3.02493 3.34378 0
M  V30 5908 C 592.175 -3.01217 3.75262 0
M  V30 5909 C 594.527 -2.94453 4.30055 0
M  V30 5910 C 591.855 -2.89672 5.10203 0
M  V30 5911 C 594.207 -2.84449 5.65041 0
M  V30 5912 C 592.871 -2.81518 6.0523 0
M  V30 5913 H 592.141 -0.615965 0.411907 0
M  V30 5914 H 594.788 -1.09292 1.5725 0
M  V30 5915 H 593.093 -3.6879 1.32292 0
M  V30 5916 H 594.79 -3.62733 1.70955 0
M  V30 5917 H 591.38 -3.04269 3.01858 0
M  V30 5918 H 595.564 -2.94544 3.99447 0
M  V30 5919 H 590.82 -2.85783 5.40498 0
M  V30 5920 H 594.994 -2.77192 6.38856 0
M  V30 5921 H 592.621 -2.72329 7.09747 0
M  V30 5922 N 594.196 -1.08629 -1.14182 0
M  V30 5923 C 595.442 -0.818556 -1.85546 0
M  V30 5924 C 595.775 0.654076 -1.82854 0
M  V30 5925 O 595.05 1.48099 -1.26083 0
M  V30 5926 C 595.333 -1.34397 -3.3408 0
M  V30 5927 C 595.186 -2.8821 -3.45333 0
M  V30 5928 C 596.505 -0.971069 -4.29253 0
M  V30 5929 H 593.624 -0.298821 -0.673702 0
M  V30 5930 H 596.266 -1.34629 -1.34071 0
M  V30 5931 H 594.416 -0.895064 -3.78049 0
M  V30 5932 H 596.088 -3.41488 -3.10134 0
M  V30 5933 H 594.331 -3.25756 -2.86471 0
M  V30 5934 H 595.002 -3.20047 -4.49749 0
M  V30 5935 H 597.478 -1.35809 -3.93313 0
M  V30 5936 H 596.354 -1.36586 -5.31635 0
M  V30 5937 H 596.615 0.121659 -4.41933 0
M  V30 5938 N 595.674 1.31259 -0.872281 0
M  V30 5939 C 596.899 2.0133 -0.498099 0
M  V30 5940 C 597.324 1.65031 0.902568 0
M  V30 5941 O 596.682 0.860164 1.59596 0
M  V30 5942 C 596.73 3.54411 -0.665205 0
M  V30 5943 O 595.834 4.11347 0.294473 0
M  V30 5944 H 595.175 0.633844 -0.197832 0
M  V30 5945 H 597.705 1.67402 -1.17633 0
M  V30 5946 H 597.715 4.04147 -0.559373 0
M  V30 5947 H 596.39 3.80171 -1.68651 0
M  V30 5948 H 594.967 3.72624 0.143403 0
M  V30 5949 N 597.152 0.631951 1.44375 0
M  V30 5950 C 598.38 0.143867 2.06399 0
M  V30 5951 C 598.795 -1.18188 1.47231 0
M  V30 5952 O 598.152 -1.72511 0.595498 0
M  V30 5953 C 598.203 0.0238253 3.61492 0
M  V30 5954 O 597.924 1.29715 4.18456 0
M  V30 5955 C 599.425 -0.492856 4.40552 0
M  V30 5956 H 596.645 0.0800542 0.666207 0
M  V30 5957 H 599.189 0.866586 1.85231 0
M  V30 5958 H 597.344 -0.649338 3.81919 0
M  V30 5959 H 597.758 1.14252 5.11905 0
M  V30 5960 H 599.232 -0.525861 5.49489 0
M  V30 5961 H 599.709 -1.52006 4.12057 0
M  V30 5962 H 600.315 0.147085 4.25046 0
M  V30 5963 N 598.631 -1.53133 0.372548 0
M  V30 5964 C 599.594 -2.24569 -0.458389 0
M  V30 5965 C 600.594 -1.25603 -1.00402 0
M  V30 5966 O 601.784 -1.49827 -0.888672 0
M  V30 5967 C 598.916 -2.98783 -1.6414 0
M  V30 5968 H 600.109 -2.99436 0.166799 0
M  V30 5969 H 597.662 -1.55805 0.124357 0
M  V30 5970 H 598.397 -2.28176 -2.30448 0
M  V30 5971 H 598.182 -3.71404 -1.25704 0
M  V30 5972 H 599.672 -3.53068 -2.23008 0
M  V30 5973 N 600.109 -0.101901 -1.5727 0
M  V30 5974 C 601.355 0.561027 -1.94885 0
M  V30 5975 C 601.688 1.6741 -0.984258 0
M  V30 5976 O 600.963 1.94491 -0.0184767 0
M  V30 5977 C 601.246 1.10982 -3.42571 0
M  V30 5978 C 601.099 0.00133418 -4.498 0
M  V30 5979 C 602.418 2.00608 -3.9172 0
M  V30 5980 H 599.537 0.202467 -0.708644 0
M  V30 5981 H 602.179 -0.173992 -1.89202 0
M  V30 5982 H 600.329 1.73621 -3.47546 0
M  V30 5983 H 602.001 -0.63322 -4.56933 0
M  V30 5984 H 600.244 -0.664143 -4.28686 0
M  V30 5985 H 600.915 0.426253 -5.50352 0
M  V30 5986 H 603.391 1.47864 -3.88941 0
M  V30 5987 H 602.267 2.3593 -4.95609 0
M  V30 5988 H 602.528 2.92608 -3.3141 0
M  V30 5989 N 601.587 1.56661 0.17182 0
M  V30 5990 C 602.833 1.82235 0.889845 0
M  V30 5991 C 603.166 0.679673 1.81918 0
M  V30 5992 O 602.441 -0.318404 1.91876 0
M  V30 5993 C 602.724 3.18195 1.68595 0
M  V30 5994 C 602.577 4.42989 0.779773 0
M  V30 5995 C 603.896 3.5109 2.65375 0
M  V30 5996 H 601.015 0.66291 0.322056 0
M  V30 5997 H 603.657 1.89358 0.15608 0
M  V30 5998 H 601.807 3.12253 2.3115 0
M  V30 5999 H 603.479 4.60997 0.16714 0
M  V30 6000 H 601.722 4.33711 0.0877964 0
M  V30 6001 H 602.393 5.3467 1.3723 0
M  V30 6002 H 604.869 3.57482 2.12946 0
M  V30 6003 H 603.745 4.47298 3.18144 0
M  V30 6004 H 604.006 2.75768 3.45549 0
M  V30 6005 N 603.065 -0.440357 1.51323 0
M  V30 6006 C 604.311 -1.19181 1.64085 0
M  V30 6007 C 604.644 -1.90936 0.354575 0
M  V30 6008 O 603.919 -1.8347 -0.645675 0
M  V30 6009 C 604.202 -2.2112 2.84215 0
M  V30 6010 C 604.055 -1.53468 4.22809 0
M  V30 6011 C 605.374 -3.22133 2.99864 0
M  V30 6012 H 602.493 -0.431924 0.597169 0
M  V30 6013 H 605.135 -0.481443 1.83799 0
M  V30 6014 H 603.285 -2.81703 2.67537 0
M  V30 6015 H 604.957 -0.962455 4.51148 0
M  V30 6016 H 603.2 -0.837086 4.25647 0
M  V30 6017 H 603.871 -2.27694 5.02852 0
M  V30 6018 H 606.347 -2.71601 3.15233 0
M  V30 6019 H 605.223 -3.90756 3.85488 0
M  V30 6020 H 605.484 -3.88061 2.11804 0
M  V30 6021 N 604.543 -1.41418 -0.695603 0
M  V30 6022 C 605.473 -1.46035 -1.82197 0
M  V30 6023 C 606.454 -0.319025 -1.67082 0
M  V30 6024 O 607.639 -0.530462 -1.86815 0
M  V30 6025 C 604.769 -1.34179 -3.20333 0
M  V30 6026 C 603.723 -2.46123 -3.50154 0
M  V30 6027 C 603.049 -2.19332 -4.87645 0
M  V30 6028 C 604.349 -3.88463 -3.49133 0
M  V30 6029 H 606.043 -2.40303 -1.78591 0
M  V30 6030 H 603.589 -1.15663 -0.857797 0
M  V30 6031 H 605.542 -1.36021 -3.98844 0
M  V30 6032 H 604.266 -0.363952 -3.24566 0
M  V30 6033 H 602.925 -2.43563 -2.73994 0
M  V30 6034 H 602.573 -1.19891 -4.88503 0
M  V30 6035 H 602.273 -2.94344 -5.08562 0
M  V30 6036 H 603.797 -2.22889 -5.68465 0
M  V30 6037 H 605.211 -3.92738 -4.17648 0
M  V30 6038 H 603.608 -4.63158 -3.81582 0
M  V30 6039 H 604.678 -4.16617 -2.48109 0
M  V30 6040 N 606.021 0.929856 -1.27246 0
M  V30 6041 C 607.267 1.6798 -1.13625 0
M  V30 6042 C 607.6 1.91586 0.317589 0
M  V30 6043 O 606.875 1.50467 1.23247 0
M  V30 6044 C 607.158 3.04766 -1.91806 0
M  V30 6045 C 607.011 2.88415 -3.45162 0
M  V30 6046 C 608.33 4.05063 -1.72082 0
M  V30 6047 H 605.449 0.609632 -0.414147 0
M  V30 6048 H 608.091 1.0792 -1.56376 0
M  V30 6049 H 606.241 3.56034 -1.55474 0
M  V30 6050 H 607.913 2.44282 -3.91311 0
M  V30 6051 H 606.156 2.23802 -3.71611 0
M  V30 6052 H 606.827 3.85482 -3.95105 0
M  V30 6053 H 609.303 3.62798 -2.03757 0
M  V30 6054 H 608.179 4.98765 -2.29182 0
M  V30 6055 H 608.44 4.37021 -0.668206 0
M  V30 6056 N 607.499 1.09233 1.13605 0
M  V30 6057 C 608.748 0.82205 1.84188 0
M  V30 6058 C 609.061 -0.654548 1.84323 0
M  V30 6059 O 610.267 -1.04029 2.50779 0
M  V30 6060 C 608.723 1.42066 3.30674 0
M  V30 6061 C 608.331 2.92965 3.38933 0
M  V30 6062 C 610.075 1.22924 4.06313 0
M  V30 6063 C 607.982 3.45922 4.79679 0
M  V30 6064 H 606.912 0.303854 0.690064 0
M  V30 6065 H 609.563 1.31479 1.28006 0
M  V30 6066 H 607.945 0.855613 3.86646 0
M  V30 6067 H 609.119 3.55679 2.92966 0
M  V30 6068 H 607.434 3.11118 2.76757 0
M  V30 6069 H 610.031 1.59945 5.10217 0
M  V30 6070 H 610.374 0.169726 4.15954 0
M  V30 6071 H 610.907 1.76168 3.56665 0
M  V30 6072 H 607.646 4.51484 4.75229 0
M  V30 6073 H 607.166 2.87971 5.26149 0
M  V30 6074 H 608.845 3.43009 5.48592 0
M  V30 6075 N 608.977 -1.30795 0.87923 0
M  V30 6076 C 609.907 -2.30742 0.357796 0
M  V30 6077 C 610.888 -1.60747 -0.556283 0
M  V30 6078 O 612.073 -1.88393 -0.47135 0
M  V30 6079 C 609.203 -3.44583 -0.433555 0
M  V30 6080 C 608.157 -4.26235 0.388251 0
M  V30 6081 C 607.483 -5.32073 -0.529352 0
M  V30 6082 C 608.783 -4.96303 1.62729 0
M  V30 6083 H 610.477 -2.74605 1.19299 0
M  V30 6084 H 608.023 -1.32017 0.575104 0
M  V30 6085 H 609.976 -4.13563 -0.808934 0
M  V30 6086 H 608.7 -2.99511 -1.30234 0
M  V30 6087 H 607.359 -3.58936 0.745695 0
M  V30 6088 H 607.007 -4.83249 -1.39569 0
M  V30 6089 H 606.707 -5.87598 0.0166741 0
M  V30 6090 H 608.231 -6.0391 -0.901373 0
M  V30 6091 H 609.645 -5.5783 1.32283 0
M  V30 6092 H 608.042 -5.61666 2.11309 0
M  V30 6093 H 609.112 -4.22758 2.37494 0
M  V30 6094 N 610.455 -0.639598 -1.44038 0
M  V30 6095 C 611.683 -0.154811 -2.0632 0
M  V30 6096 C 612.098 1.17406 -1.47856 0
M  V30 6097 O 611.455 1.72193 -0.604638 0
M  V30 6098 C 611.506 -0.0429958 -3.61474 0
M  V30 6099 O 611.227 -1.31932 -4.17763 0
M  V30 6100 C 612.728 0.469486 -4.40807 0
M  V30 6101 H 609.948 -0.0835862 -0.665773 0
M  V30 6102 H 612.492 -0.876397 -1.84769 0
M  V30 6103 H 610.647 0.629075 -3.82258 0
M  V30 6104 H 611.061 -1.16965 -5.11292 0
M  V30 6105 H 612.535 0.496712 -5.49761 0
M  V30 6106 H 613.012 1.49819 -4.12857 0
M  V30 6107 H 613.618 -0.169624 -4.24962 0
M  V30 6108 N 611.933 1.52934 -0.380664 0
M  V30 6109 C 612.866 2.22597 0.502564 0
M  V30 6110 C 613.844 1.22345 1.071 0
M  V30 6111 O 615.028 1.51302 1.12428 0
M  V30 6112 C 612.155 2.93246 1.69482 0
M  V30 6113 C 611.201 4.07696 1.25244 0
M  V30 6114 S 612.034 5.34957 0.241159 0
M  V30 6115 C 613.19 6.09124 1.4394 0
M  V30 6116 H 613.423 2.97167 -0.089029 0
M  V30 6117 H 610.956 1.53518 -0.164817 0
M  V30 6118 H 612.914 3.34562 2.37863 0
M  V30 6119 H 611.575 2.18373 2.2577 0
M  V30 6120 H 610.768 4.56199 2.1424 0
M  V30 6121 H 610.37 3.68349 0.647664 0
M  V30 6122 H 612.662 6.34771 2.36794 0
M  V30 6123 H 613.605 7.01068 0.995464 0
M  V30 6124 H 614.013 5.39777 1.65229 0
M  V30 6125 N 613.412 0.11024 1.57214 0
M  V30 6126 C 614.64 -0.557834 1.99238 0
M  V30 6127 C 615.055 -1.60778 0.989734 0
M  V30 6128 O 614.412 -1.82491 -0.0186092 0
M  V30 6129 C 614.463 -1.19189 3.41286 0
M  V30 6130 O 614.184 -0.183919 4.37714 0
M  V30 6131 C 615.685 -1.94413 3.98395 0
M  V30 6132 H 612.905 -0.148392 0.654386 0
M  V30 6133 H 615.449 0.193996 2.03578 0
M  V30 6134 H 613.604 -1.89456 3.37913 0
M  V30 6135 H 614.018 -0.643475 5.20538 0
M  V30 6136 H 615.492 -2.34116 4.99894 0
M  V30 6137 H 615.969 -2.81592 3.3705 0
M  V30 6138 H 616.575 -1.28928 4.05287 0
M  V30 6139 N 614.89 -1.56749 -0.16351 0
M  V30 6140 C 616.136 -1.82704 -0.880168 0
M  V30 6141 C 616.469 -0.689311 -1.81555 0
M  V30 6142 O 615.744 0.308224 -1.92042 0
M  V30 6143 C 616.027 -3.19084 -1.66905 0
M  V30 6144 C 615.88 -4.43397 -0.756269 0
M  V30 6145 C 617.199 -3.52493 -2.63509 0
M  V30 6146 H 614.318 -0.664608 -0.318535 0
M  V30 6147 H 616.96 -1.89438 -0.146036 0
M  V30 6148 H 615.11 -3.13475 -2.2949 0
M  V30 6149 H 616.782 -4.61079 -0.14269 0
M  V30 6150 H 615.025 -4.33752 -0.0647944 0
M  V30 6151 H 615.696 -5.3539 -1.34393 0
M  V30 6152 H 618.172 -3.58606 -2.11047 0
M  V30 6153 H 617.048 -4.48979 -3.15767 0
M  V30 6154 H 617.309 -2.77597 -3.44082 0
M  V30 6155 N 616.368 0.432326 -1.51554 0
M  V30 6156 C 617.298 1.53242 -1.76179 0
M  V30 6157 C 618.279 1.58717 -0.611801 0
M  V30 6158 O 619.464 1.74364 -0.855033 0
M  V30 6159 C 616.594 2.91278 -1.89141 0
M  V30 6160 C 615.548 3.00663 -3.04608 0
M  V30 6161 C 614.874 4.40728 -3.02759 0
M  V30 6162 C 616.174 2.74281 -4.44485 0
M  V30 6163 H 617.868 1.32886 -2.68294 0
M  V30 6164 H 615.414 0.637841 -1.29103 0
M  V30 6165 H 617.367 3.68203 -2.04951 0
M  V30 6166 H 616.091 3.12877 -0.936785 0
M  V30 6167 H 614.75 2.26179 -2.88511 0
M  V30 6168 H 614.398 4.59301 -2.05065 0
M  V30 6169 H 614.098 4.47936 -3.80299 0
M  V30 6170 H 615.622 5.19619 -3.20669 0
M  V30 6171 H 617.036 3.40936 -4.60907 0
M  V30 6172 H 615.433 2.92893 -5.23769 0
M  V30 6173 H 616.503 1.69856 -4.54177 0
M  V30 6174 N 617.846 1.41785 0.688094 0
M  V30 6175 C 619.094 1.41264 1.4453 0
M  V30 6176 C 619.415 0.0252946 1.94984 0
M  V30 6177 O 618.685 -0.934081 1.72197 0
M  V30 6178 H 617.265 0.519998 0.536294 0
M  V30 6179 H 619.927 1.7709 0.813941 0
M  V30 6180 H 619.023 2.10439 2.30482 0
M  V30 6181 N 619.324 -0.923095 1.27737 0
M  V30 6182 C 620.254 -2.04124 1.13383 0
M  V30 6183 C 621.235 -1.70066 0.0340658 0
M  V30 6184 O 622.42 -1.93068 0.209383 0
M  V30 6185 C 619.55 -3.3831 0.785097 0
M  V30 6186 C 618.504 -3.86496 1.8386 0
M  V30 6187 C 617.83 -5.1754 1.34373 0
M  V30 6188 C 619.13 -4.09381 3.24353 0
M  V30 6189 H 620.824 -2.1639 2.06919 0
M  V30 6190 H 618.37 -1.03976 0.996243 0
M  V30 6191 H 620.323 -4.16016 0.671485 0
M  V30 6192 H 619.047 -3.2607 -0.185969 0
M  V30 6193 H 617.706 -3.10987 1.9412 0
M  V30 6194 H 617.354 -5.01696 0.361989 0
M  V30 6195 H 617.054 -5.50751 2.04811 0
M  V30 6196 H 618.578 -5.97811 1.24315 0
M  V30 6197 H 619.992 -4.77641 3.17067 0
M  V30 6198 H 618.389 -4.53906 3.92542 0
M  V30 6199 H 619.459 -3.14515 3.69064 0
M  V30 6200 N 620.802 -1.09834 -1.13024 0
M  V30 6201 C 622.048 -0.83819 -1.84668 0
M  V30 6202 C 622.381 0.634645 -1.83537 0
M  V30 6203 O 621.656 1.46753 -1.27647 0
M  V30 6204 C 621.939 -1.37933 -3.32636 0
M  V30 6205 C 621.792 -2.91857 -3.42257 0
M  V30 6206 C 623.111 -1.01654 -4.28199 0
M  V30 6207 H 620.23 -0.30595 -0.670495 0
M  V30 6208 H 622.872 -1.36044 -1.32635 0
M  V30 6209 H 621.022 -0.935111 -3.77078 0
M  V30 6210 H 622.694 -3.44759 -3.06495 0
M  V30 6211 H 620.937 -3.28776 -2.83 0
M  V30 6212 H 621.608 -3.24799 -4.46329 0
M  V30 6213 H 624.084 -1.39973 -3.9185 0
M  V30 6214 H 622.96 -1.42217 -5.30156 0
M  V30 6215 H 623.221 0.0747794 -4.42037 0
M  V30 6216 N 622.28 1.30327 -0.886154 0
M  V30 6217 C 623.227 2.28099 -0.352069 0
M  V30 6218 C 624.197 1.56433 0.558397 0
M  V30 6219 O 625.382 1.84492 0.486561 0
M  V30 6220 C 622.522 3.42456 0.426346 0
M  V30 6221 C 621.635 4.28938 -0.513472 0
M  V30 6222 C 620.77 5.30458 0.280657 0
M  V30 6223 C 619.809 6.0859 -0.654556 0
M  V30 6224 N 618.946 7.02022 0.104322 0
M  V30 6225 H 623.786 2.73166 -1.19097 0
M  V30 6226 H 621.323 1.34367 -0.598662 0
M  V30 6227 H 623.281 4.07518 0.893587 0
M  V30 6228 H 621.911 2.98455 1.22981 0
M  V30 6229 H 620.963 3.64173 -1.09921 0
M  V30 6230 H 622.275 4.83399 -1.2299 0
M  V30 6231 H 621.429 6.01273 0.8097 0
M  V30 6232 H 620.168 4.76693 1.03029 0
M  V30 6233 H 619.173 5.36651 -1.19522 0
M  V30 6234 H 620.398 6.64443 -1.4033 0
M  V30 6235 H 618.344 6.50645 0.836472 0
M  V30 6236 H 618.261 7.53979 -0.552453 0
M  V30 6237 H 619.529 7.77077 0.614069 0
M  V30 6238 N 623.758 0.647228 1.43697 0
M  V30 6239 C 624.688 -0.0345631 2.33474 0
M  V30 6240 C 625.669 -0.818193 1.4913 0
M  V30 6241 O 626.854 -0.780867 1.77809 0
M  V30 6242 C 623.984 -1.00576 3.32418 0
M  V30 6243 C 622.938 -0.33266 4.26705 0
M  V30 6244 C 622.264 -1.41489 5.1564 0
M  V30 6245 C 623.564 0.771204 5.16575 0
M  V30 6246 H 625.258 0.715163 2.90733 0
M  V30 6247 H 622.804 0.345364 1.39797 0
M  V30 6248 H 624.757 -1.49159 3.94119 0
M  V30 6249 H 623.481 -1.78657 2.73403 0
M  V30 6250 H 622.14 0.13267 3.6636 0
M  V30 6251 H 621.788 -2.18698 4.52968 0
M  V30 6252 H 621.488 -0.969799 5.79542 0
M  V30 6253 H 623.012 -1.9022 5.80214 0
M  V30 6254 H 624.426 0.36779 5.72119 0
M  V30 6255 H 622.823 1.1404 5.89165 0
M  V30 6256 H 623.893 1.63169 4.56622 0
M  V30 6257 N 625.236 -1.5273 0.388769 0
M  V30 6258 C 626.476 -2.03483 -0.193372 0
M  V30 6259 C 626.84 -1.26897 -1.44087 0
M  V30 6260 O 628.041 -1.67773 -2.10014 0
M  V30 6261 C 626.312 -3.54488 -0.455325 0
M  V30 6262 S 627.871 -4.27069 -1.00783 0
M  V30 6263 H 624.689 -0.708907 -0.0545131 0
M  V30 6264 H 627.291 -1.8798 0.536993 0
M  V30 6265 H 625.995 -4.07817 0.459722 0
M  V30 6266 H 625.526 -3.74196 -1.21413 0
M  V30 6267 H 627.541 -4.40185 -2.29023 0
M  V30 6268 N 626.714 -0.118576 -1.57153 0
M  V30 6269 C 627.961 0.539526 -1.9518 0
M  V30 6270 C 628.289 1.66714 -1.00184 0
M  V30 6271 O 627.544 1.95683 -0.0256482 0
M  V30 6272 C 627.843 1.11303 -3.39627 0
M  V30 6273 C 627.509 0.106809 -4.50773 0
M  V30 6274 C 626.171 -0.169876 -4.809 0
M  V30 6275 C 628.523 -0.57895 -5.17975 0
M  V30 6276 C 625.851 -1.13861 -5.75545 0
M  V30 6277 C 628.203 -1.53631 -6.13661 0
M  V30 6278 C 626.867 -1.82099 -6.42181 0
M  V30 6279 H 626.137 0.197427 -0.714215 0
M  V30 6280 H 628.784 -0.199391 -1.90459 0
M  V30 6281 H 627.089 1.92869 -3.4104 0
M  V30 6282 H 628.786 1.63032 -3.66363 0
M  V30 6283 H 625.376 0.332645 -4.27307 0
M  V30 6284 H 629.56 -0.378359 -4.94856 0
M  V30 6285 H 624.816 -1.36592 -5.95947 0
M  V30 6286 H 628.99 -2.07337 -6.64819 0
M  V30 6287 H 626.617 -2.57319 -7.15326 0
M  V30 6288 N 628.193 1.56834 0.155195 0
M  V30 6289 C 629.143 1.94061 1.19684 0
M  V30 6290 C 630.127 0.810851 1.38975 0
M  V30 6291 O 631.319 1.07422 1.40675 0
M  V30 6292 C 628.448 2.31778 2.53247 0
M  V30 6293 C 627.534 3.51305 2.37583 0
M  V30 6294 N 627.925 4.68081 1.9166 0
M  V30 6295 C 626.223 3.56228 2.6836 0
M  V30 6296 C 626.924 5.50193 1.88845 0
M  V30 6297 N 625.9 4.91676 2.31852 0
M  V30 6298 H 629.702 2.81826 0.833747 0
M  V30 6299 H 627.216 1.58284 0.363328 0
M  V30 6300 H 629.213 2.56649 3.28538 0
M  V30 6301 H 627.873 1.4536 2.90346 0
M  V30 6302 H 628.884 4.91993 1.6175 0
M  V30 6303 H 625.561 2.8033 3.09389 0
M  V30 6304 H 626.951 6.53801 1.54901 0
M  V30 6305 N 629.671 -0.424282 1.51781 0
M  V30 6306 C 630.581 -1.54087 1.76902 0
M  V30 6307 C 631.597 -1.61249 0.653826 0
M  V30 6308 O 632.773 -1.78247 0.937552 0
M  V30 6309 C 629.838 -2.8996 1.90063 0
M  V30 6310 C 628.899 -2.92809 3.13945 0
M  V30 6311 C 628.132 -4.22201 3.26469 0
M  V30 6312 O 628.355 -5.15286 2.44616 0
M  V30 6313 O 627.289 -4.31599 4.1953 0
M  V30 6314 H 631.115 -1.358 2.71647 0
M  V30 6315 H 628.7 -0.608618 1.36441 0
M  V30 6316 H 630.582 -3.70575 2.0063 0
M  V30 6317 H 629.257 -3.08347 0.985067 0
M  V30 6318 H 628.164 -2.11102 3.08847 0
M  V30 6319 H 629.497 -2.79369 4.05233 0
M  V30 6320 N 631.149 -1.42148 -0.680565 0
M  V30 6321 C 632.374 -1.45901 -1.47403 0
M  V30 6322 C 632.799 -0.0700985 -1.87969 0
M  V30 6323 O 632.157 0.930145 -1.55621 0
M  V30 6324 C 632.205 -2.38661 -2.70321 0
M  V30 6325 O 631.309 -1.85399 -3.68376 0
M  V30 6326 H 630.65 -0.494565 -0.443059 0
M  V30 6327 H 633.18 -1.86774 -0.835251 0
M  V30 6328 H 633.19 -2.55046 -3.18458 0
M  V30 6329 H 631.865 -3.39571 -2.40134 0
M  V30 6330 H 630.442 -1.78541 -3.2738 0
M  V30 6331 N 632.627 0.916307 -1.28225 0
M  V30 6332 C 634.038 1.48024 -1.13779 0
M  V30 6333 C 634.389 1.94289 0.273139 0
M  V30 6334 O 633.514 1.82226 1.16716 0
M  V30 6335 C 634.109 2.69029 -2.05935 0
M  V30 6336 C 632.668 3.2161 -1.95561 0
M  V30 6337 C 631.815 1.94321 -1.97825 0
M  V30 6338 H 634.766 0.729272 -1.40951 0
M  V30 6339 H 634.787 3.44204 -1.62184 0
M  V30 6340 H 634.299 2.35325 -3.08616 0
M  V30 6341 H 632.4 3.60045 -0.959076 0
M  V30 6342 H 632.513 3.87032 -2.82388 0
M  V30 6343 H 630.877 2.1131 -1.42198 0
M  V30 6344 H 631.66 1.62917 -3.0218 0
M  V30 6345 N 634.105 1.10431 1.1244 0
M  V30 6346 C 635.33 0.869089 1.88313 0
M  V30 6347 C 635.755 -0.574912 1.79099 0
M  V30 6348 O 635.113 -1.40496 1.14589 0
M  V30 6349 C 635.161 1.32208 3.3549 0
M  V30 6350 O 634.265 0.487092 4.09513 0
M  V30 6351 H 633.606 0.313894 0.585121 0
M  V30 6352 H 636.136 1.47111 1.42195 0
M  V30 6353 H 636.146 1.31201 3.86329 0
M  V30 6354 H 634.821 2.37364 3.41513 0
M  V30 6355 H 633.398 0.562372 3.68635 0
M  V30 6356 N 635.583 -1.29855 0.893053 0
M  V30 6357 C 636.808 -2.00512 0.530066 0
M  V30 6358 C 637.233 -1.66446 -0.876199 0
M  V30 6359 O 636.591 -0.885446 -1.58207 0
M  V30 6360 C 636.639 -3.53308 0.721505 0
M  V30 6361 O 635.743 -4.11764 -0.228994 0
M  V30 6362 H 635.084 -0.630617 0.207891 0
M  V30 6363 H 637.614 -1.6551 1.20282 0
M  V30 6364 H 637.624 -4.03206 0.623599 0
M  V30 6365 H 636.299 -3.77439 1.74678 0
M  V30 6366 H 634.876 -3.72805 -0.0841034 0
M  V30 6367 N 637.061 -0.65484 -1.43351 0
M  V30 6368 C 637.993 0.0744757 -2.29079 0
M  V30 6369 C 639.006 0.7855 -1.42596 0
M  V30 6370 O 640.195 0.642986 -1.66517 0
M  V30 6371 C 637.295 1.12859 -3.19556 0
M  V30 6372 C 636.468 0.495381 -4.34586 0
M  V30 6373 C 635.527 1.44659 -5.05925 0
M  V30 6374 O 634.553 0.954567 -5.61139 0
M  V30 6375 N 635.755 2.78051 -5.09576 0
M  V30 6376 H 638.52 -0.661346 -2.92312 0
M  V30 6377 H 636.081 -0.497744 -1.54059 0
M  V30 6378 H 638.073 1.76577 -3.64147 0
M  V30 6379 H 636.643 1.76636 -2.57912 0
M  V30 6380 H 635.863 -0.32092 -3.92892 0
M  V30 6381 H 637.151 0.0534203 -5.08772 0
M  V30 6382 H 636.549 3.20584 -4.66093 0
M  V30 6383 H 635.106 3.37068 -5.57878 0
M  V30 6384 N 638.539 1.52521 -0.396863 0
M  V30 6385 C 639.95 1.86547 0.0754868 0
M  V30 6386 C 640.301 1.31621 1.45501 0
M  V30 6387 O 639.426 0.650563 2.0639 0
M  V30 6388 C 640.021 3.38495 0.143754 0
M  V30 6389 C 638.58 3.72205 0.560413 0
M  V30 6390 C 637.727 2.75954 -0.272856 0
M  V30 6391 H 640.678 1.46323 -0.614434 0
M  V30 6392 H 640.699 3.68153 0.961425 0
M  V30 6393 H 640.211 3.78442 -0.860415 0
M  V30 6394 H 638.312 3.3783 1.57167 0
M  V30 6395 H 638.425 4.78074 0.313314 0
M  V30 6396 H 636.789 2.53339 0.263 0
M  V30 6397 H 637.572 3.1874 -1.27515 0
M  V30 6398 N 640.017 0.126909 1.57088 0
M  V30 6399 C 641.433 -0.229641 1.57939 0
M  V30 6400 C 641.633 -1.66145 1.1401 0
M  V30 6401 O 640.689 -2.3843 0.831119 0
M  V30 6402 C 642.002 0.0108648 3.00698 0
M  V30 6403 C 643.55 -0.054418 3.12953 0
M  V30 6404 C 644.025 0.158497 4.57726 0
M  V30 6405 N 645.516 0.104735 4.63082 0
M  V30 6406 C 646.251 0.24427 5.72879 0
M  V30 6407 N 645.747 0.440415 6.91399 0
M  V30 6408 N 647.54 0.183286 5.61801 0
M  V30 6409 H 639.691 1.06203 1.83942 0
M  V30 6410 H 641.954 0.418834 0.85046 0
M  V30 6411 H 641.66 1.00102 3.37154 0
M  V30 6412 H 641.534 -0.717512 3.70313 0
M  V30 6413 H 643.921 -1.0351 2.7635 0
M  V30 6414 H 644.002 0.705967 2.45865 0
M  V30 6415 H 643.646 1.13619 4.95028 0
M  V30 6416 H 643.576 -0.62197 5.22914 0
M  V30 6417 H 646.067 -0.0430298 3.77876 0
M  V30 6418 H 646.38 0.537536 7.70928 0
M  V30 6419 H 644.725 0.476488 6.93365 0
M  V30 6420 H 647.916 0.0309561 4.6809 0
M  V30 6421 H 648.089 0.295471 6.47326 0
M  V30 6422 N 641.495 -1.56914 -0.146875 0
M  V30 6423 C 642.442 -1.98275 -1.18134 0
M  V30 6424 C 643.412 -0.850367 -1.42681 0
M  V30 6425 O 644.597 -1.11244 -1.55014 0
M  V30 6426 C 641.737 -2.36861 -2.5098 0
M  V30 6427 C 640.85 -3.63391 -2.33605 0
M  V30 6428 C 639.985 -3.91079 -3.59486 0
M  V30 6429 C 639.024 -5.10879 -3.37149 0
M  V30 6430 N 638.161 -5.34577 -4.55161 0
M  V30 6431 H 643.001 -2.8645 -0.821622 0
M  V30 6432 H 640.538 -1.41718 -0.394248 0
M  V30 6433 H 642.496 -2.57262 -3.28439 0
M  V30 6434 H 641.126 -1.51766 -2.84898 0
M  V30 6435 H 640.178 -3.50766 -1.47199 0
M  V30 6436 H 641.49 -4.51007 -2.13059 0
M  V30 6437 H 640.644 -4.11979 -4.45374 0
M  V30 6438 H 639.383 -3.01885 -3.83036 0
M  V30 6439 H 638.388 -4.89853 -2.49649 0
M  V30 6440 H 639.613 -6.01626 -3.14997 0
M  V30 6441 H 637.559 -4.48337 -4.78884 0
M  V30 6442 H 637.476 -6.16463 -4.37618 0
M  V30 6443 H 638.744 -5.59975 -5.42263 0
M  V30 6444 N 642.974 0.416227 -1.52004 0
M  V30 6445 C 643.884 1.53147 -1.77717 0
M  V30 6446 C 644.9 1.609 -0.662368 0
M  V30 6447 O 646.076 1.77747 -0.946991 0
M  V30 6448 C 643.141 2.88948 -1.91598 0
M  V30 6449 C 642.202 2.9114 -3.15493 0
M  V30 6450 C 641.435 4.20464 -3.28703 0
M  V30 6451 O 641.658 5.13981 -2.47345 0
M  V30 6452 O 640.592 4.29368 -4.21813 0
M  V30 6453 H 644.418 1.34357 -2.72363 0
M  V30 6454 H 642.003 0.601373 -1.36762 0
M  V30 6455 H 643.885 3.69505 -2.02593 0
M  V30 6456 H 642.56 3.07821 -1.00141 0
M  V30 6457 H 641.467 2.09461 -3.09962 0
M  V30 6458 H 642.8 2.77216 -4.06709 0
M  V30 6459 N 644.452 1.42507 0.673017 0
M  V30 6460 C 645.677 1.4668 1.46627 0
M  V30 6461 C 646.102 0.080066 1.8793 0
M  V30 6462 O 645.46 -0.921879 1.56112 0
M  V30 6463 C 645.508 2.40091 2.69051 0
M  V30 6464 O 644.612 1.8735 3.67387 0
M  V30 6465 H 643.953 0.496908 0.44043 0
M  V30 6466 H 646.483 1.87215 0.825334 0
M  V30 6467 H 646.493 2.56731 3.17101 0
M  V30 6468 H 645.168 3.4084 2.3833 0
M  V30 6469 H 643.745 1.80274 3.26429 0
M  V30 6470 N 645.93 -0.909495 1.28709 0
M  V30 6471 C 646.863 -2.01388 1.07323 0
M  V30 6472 C 647.841 -1.62596 -0.0119757 0
M  V30 6473 O 649.025 -1.88003 0.136796 0
M  V30 6474 C 646.152 -3.32755 0.631797 0
M  V30 6475 C 645.198 -3.90532 1.71428 0
M  V30 6476 S 646.031 -4.20853 3.31124 0
M  V30 6477 C 647.187 -5.55276 2.88825 0
M  V30 6478 H 647.42 -2.19219 2.00824 0
M  V30 6479 H 644.953 -1.05489 1.12745 0
M  V30 6480 H 646.911 -4.08702 0.38381 0
M  V30 6481 H 645.572 -3.12818 -0.283451 0
M  V30 6482 H 644.765 -4.85385 1.35712 0
M  V30 6483 H 644.367 -3.21237 1.91528 0
M  V30 6484 H 646.659 -6.35341 2.3526 0
M  V30 6485 H 647.602 -5.95907 3.82492 0
M  V30 6486 H 648.01 -5.16666 2.27412 0
M  V30 6487 N 647.408 -1.11026 -1.11852 0
M  V30 6488 C 648.656 -0.854769 -1.83134 0
M  V30 6489 C 648.977 0.621375 -1.84835 0
M  V30 6490 O 648.247 1.45129 -1.31584 0
M  V30 6491 H 646.827 -0.313229 -0.678157 0
M  V30 6492 H 649.489 -1.40178 -1.35411 0
M  V30 6493 H 648.585 -1.22311 -2.87135 0
M  V30 6494 N 648.886 1.2938 -0.899927 0
M  V30 6495 C 650.297 1.77644 -0.574427 0
M  V30 6496 C 650.648 1.73824 0.909928 0
M  V30 6497 O 649.773 1.32429 1.71147 0
M  V30 6498 C 650.368 3.22573 -1.03595 0
M  V30 6499 C 648.927 3.68614 -0.76161 0
M  V30 6500 C 648.074 2.49483 -1.21052 0
M  V30 6501 H 651.025 1.16038 -1.08263 0
M  V30 6502 H 651.046 3.78684 -0.371337 0
M  V30 6503 H 650.558 3.25321 -2.11631 0
M  V30 6504 H 648.659 3.7134 0.306127 0
M  V30 6505 H 648.772 4.59402 -1.35965 0
M  V30 6506 H 647.136 2.46798 -0.629515 0
M  V30 6507 H 647.919 2.54959 -2.29893 0
M  V30 6508 N 650.364 0.662433 1.43002 0
M  V30 6509 C 651.775 0.258315 1.84904 0
M  V30 6510 C 652.126 -1.19703 1.55453 0
M  V30 6511 O 651.251 -1.91484 1.00811 0
M  V30 6512 C 651.846 0.462047 3.35635 0
M  V30 6513 C 650.405 0.112165 3.76233 0
M  V30 6514 C 649.552 0.760479 2.66668 0
M  V30 6515 H 652.503 0.865467 1.33024 0
M  V30 6516 H 652.524 -0.289646 3.79396 0
M  V30 6517 H 652.036 1.52135 3.57039 0
M  V30 6518 H 650.137 -0.944179 3.60439 0
M  V30 6519 H 650.25 0.544058 4.76001 0
M  V30 6520 H 648.614 0.192887 2.53969 0
M  V30 6521 H 649.397 1.82299 2.90898 0
M  V30 6522 N 651.842 -1.52309 0.404946 0
M  V30 6523 C 653.09 -2.01368 -0.17186 0
M  V30 6524 C 653.411 -1.29261 -1.46002 0
M  V30 6525 O 652.681 -0.41729 -1.91404 0
M  V30 6526 H 651.261 -0.744034 -0.0664993 0
M  V30 6527 H 653.923 -1.87263 0.540228 0
M  V30 6528 H 653.019 -3.09888 -0.370957 0
M  V30 6529 N 653.32 -0.135238 -1.57019 0
M  V30 6530 C 654.25 0.805235 -2.19176 0
M  V30 6531 C 655.231 1.2656 -1.13651 0
M  V30 6532 O 656.416 1.32528 -1.4195 0
M  V30 6533 C 653.546 2.04914 -2.80406 0
M  V30 6534 C 652.5 1.72598 -3.91655 0
M  V30 6535 C 651.826 3.04154 -4.39766 0
M  V30 6536 C 653.126 0.981709 -5.12991 0
M  V30 6537 H 654.82 0.287232 -2.98019 0
M  V30 6538 H 652.366 0.136714 -1.4335 0
M  V30 6539 H 654.319 2.71178 -3.22553 0
M  V30 6540 H 653.043 2.59067 -1.98877 0
M  V30 6541 H 651.702 1.08717 -3.50109 0
M  V30 6542 H 651.35 3.56274 -3.55075 0
M  V30 6543 H 651.05 2.83299 -5.14796 0
M  V30 6544 H 652.574 3.71509 -4.84576 0
M  V30 6545 H 653.988 1.5462 -5.52056 0
M  V30 6546 H 652.385 0.873533 -5.93708 0
M  V30 6547 H 653.455 -0.0286887 -4.84892 0
M  V30 6548 N 654.798 1.5699 0.138552 0
M  V30 6549 C 655.708 2.02174 1.19008 0
M  V30 6550 C 656.724 0.938622 1.46512 0
M  V30 6551 O 657.9 1.24872 1.58016 0
M  V30 6552 C 654.965 2.40045 2.50159 0
M  V30 6553 C 654.026 3.62346 2.30226 0
M  V30 6554 C 653.259 3.98401 3.55123 0
M  V30 6555 O 653.482 3.35019 4.61647 0
M  V30 6556 O 652.416 4.91606 3.47285 0
M  V30 6557 H 656.242 2.91954 0.836452 0
M  V30 6558 H 653.827 1.45293 0.347907 0
M  V30 6559 H 655.709 2.65225 3.27465 0
M  V30 6560 H 654.384 1.53417 2.85035 0
M  V30 6561 H 653.291 3.42341 1.50843 0
M  V30 6562 H 654.624 4.49617 2.00262 0
M  V30 6563 N 656.276 -0.40816 1.52223 0
M  V30 6564 C 657.501 -1.18127 1.70472 0
M  V30 6565 C 657.926 -1.83491 0.41384 0
M  V30 6566 O 657.284 -1.70047 -0.628778 0
M  V30 6567 C 657.332 -2.21935 2.84213 0
M  V30 6568 O 656.436 -3.28099 2.4985 0
M  V30 6569 H 655.777 -0.344781 0.56747 0
M  V30 6570 H 658.307 -0.478328 1.9893 0
M  V30 6571 H 658.317 -2.66248 3.09153 0
M  V30 6572 H 656.992 -1.73744 3.7787 0
M  V30 6573 H 655.569 -2.89058 2.35584 0
M  V30 6574 N 657.755 -1.42862 -0.66545 0
M  V30 6575 C 659.032 -1.3431 -1.42197 0
M  V30 6576 C 659.412 0.0150265 -2.11095 0
M  V30 6577 O 658.76 1.03101 -2.03918 0
M  V30 6578 C 658.97 -2.51783 -2.41674 0
M  V30 6579 C 660.318 -2.94321 -3.0604 0
M  V30 6580 O 661.342 -2.51741 -2.52001 0
M  V30 6581 O 660.201 -3.68047 -4.03985 0
M  V30 6582 H 657.295 -0.530159 -0.634713 0
M  V30 6583 H 659.841 -1.54888 -0.693386 0
M  V30 6584 H 658.613 -3.42282 -1.89627 0
M  V30 6585 H 658.236 -2.33241 -3.22001 0
M  V30 6586 N 659.233 0.902656 -1.29189 0
M  V30 6587 C 660.644 1.46809 -1.15343 0
M  V30 6588 C 660.995 1.94568 0.252517 0
M  V30 6589 O 660.12 1.83454 1.14777 0
M  V30 6590 C 660.715 2.66829 -2.08776 0
M  V30 6591 C 659.274 3.19518 -1.98961 0
M  V30 6592 C 658.421 1.92212 -1.99874 0
M  V30 6593 H 661.372 0.714282 -1.41717 0
M  V30 6594 H 661.393 3.42465 -1.65826 0
M  V30 6595 H 660.905 2.32039 -3.11094 0
M  V30 6596 H 659.006 3.59008 -0.99721 0
M  V30 6597 H 659.119 3.84016 -2.86477 0
M  V30 6598 H 657.483 2.0979 -1.44431 0
M  V30 6599 H 658.266 1.59702 -3.03891 0
M  V30 6600 N 660.711 1.11618 1.11262 0
M  V30 6601 C 661.621 0.78898 2.20935 0
M  V30 6602 C 662.637 -0.21867 1.7262 0
M  V30 6603 O 663.813 -0.0543826 2.01327 0
M  V30 6604 C 660.878 0.239014 3.45875 0
M  V30 6605 C 659.939 1.3055 4.08968 0
M  V30 6606 C 659.172 0.781687 5.27944 0
M  V30 6607 O 659.395 -0.387605 5.69082 0
M  V30 6608 O 658.329 1.54734 5.81671 0
M  V30 6609 H 662.155 1.70477 2.51339 0
M  V30 6610 H 659.74 0.892203 1.19834 0
M  V30 6611 H 661.622 -0.0632312 4.21353 0
M  V30 6612 H 660.297 -0.649454 3.17118 0
M  V30 6613 H 659.204 1.66079 3.35214 0
M  V30 6614 H 660.537 2.16743 4.41909 0
M  V30 6615 N 662.189 -1.289 0.906776 0
M  V30 6616 C 663.6 -1.77336 0.58384 0
M  V30 6617 C 663.951 -1.74304 -0.900697 0
M  V30 6618 O 663.076 -1.33335 -1.70443 0
M  V30 6619 C 663.671 -3.22019 1.05304 0
M  V30 6620 C 662.23 -3.68205 0.781148 0
M  V30 6621 C 661.377 -2.48837 1.22373 0
M  V30 6622 H 664.328 -1.15462 1.08877 0
M  V30 6623 H 664.349 -3.78481 0.391414 0
M  V30 6624 H 663.861 -3.24194 2.13353 0
M  V30 6625 H 661.962 -3.71497 -0.28643 0
M  V30 6626 H 662.075 -4.58675 1.384 0
M  V30 6627 H 660.439 -2.46461 0.642594 0
M  V30 6628 H 661.222 -2.53736 2.31242 0
M  V30 6629 N 663.667 -0.670007 -1.42649 0
M  V30 6630 C 664.63 0.00204659 -2.292 0
M  V30 6631 C 665.63 0.733817 -1.4308 0
M  V30 6632 O 666.82 0.57254 -1.64522 0
M  V30 6633 C 663.952 1.01359 -3.25483 0
M  V30 6634 H 665.145 -0.759696 -2.90118 0
M  V30 6635 H 662.698 -0.432105 -1.50208 0
M  V30 6636 H 663.433 1.80399 -2.69493 0
M  V30 6637 H 663.218 0.492323 -3.88997 0
M  V30 6638 H 664.708 1.4824 -3.90403 0
M  V30 6639 N 665.145 1.52092 -0.413018 0
M  V30 6640 C 666.108 2.25706 0.398687 0
M  V30 6641 C 667.108 1.28221 0.970368 0
M  V30 6642 O 668.298 1.52131 0.848635 0
M  V30 6643 C 665.43 3.03029 1.5616 0
M  V30 6644 H 666.623 2.98888 -0.246131 0
M  V30 6645 H 664.176 1.5542 -0.165622 0
M  V30 6646 H 664.911 2.34205 2.24317 0
M  V30 6647 H 664.696 3.74606 1.15812 0
M  V30 6648 H 666.186 3.58857 2.13569 0
M  V30 6649 N 666.623 0.143563 1.56945 0
M  V30 6650 C 667.553 -0.7936 2.196 0
M  V30 6651 C 668.534 -1.25955 1.14321 0
M  V30 6652 O 669.719 -1.31773 1.42651 0
M  V30 6653 C 666.849 -2.03424 2.81489 0
M  V30 6654 C 665.803 -1.70519 3.92565 0
M  V30 6655 C 665.129 -3.01817 4.41373 0
M  V30 6656 C 666.429 -0.95449 5.13504 0
M  V30 6657 H 668.123 -0.271423 2.98167 0
M  V30 6658 H 665.669 -0.12911 1.4342 0
M  V30 6659 H 667.622 -2.69463 3.23987 0
M  V30 6660 H 666.346 -2.58008 2.00248 0
M  V30 6661 H 665.005 -1.06859 3.5068 0
M  V30 6662 H 664.653 -3.54386 3.56959 0
M  V30 6663 H 664.353 -2.80565 5.16292 0
M  V30 6664 H 665.877 -3.68934 4.86539 0
M  V30 6665 H 667.291 -1.5169 5.52868 0
M  V30 6666 H 665.688 -0.842035 5.94163 0
M  V30 6667 H 666.758 0.0544033 4.84869 0
M  V30 6668 N 668.101 -1.57061 -0.130224 0
M  V30 6669 C 669.349 -1.83893 -0.838313 0
M  V30 6670 C 669.67 -0.727046 -1.80939 0
M  V30 6671 O 668.94 0.249927 -1.94299 0
M  V30 6672 H 667.52 -0.67846 -0.312573 0
M  V30 6673 H 670.182 -1.94529 -0.120224 0
M  V30 6674 H 669.278 -2.79419 -1.39038 0
M  V30 6675 N 669.579 0.400081 -1.52437 0
M  V30 6676 C 670.804 1.17221 -1.71096 0
M  V30 6677 C 671.229 1.83269 -0.423565 0
M  V30 6678 O 670.587 1.70378 0.619751 0
M  V30 6679 C 670.635 2.20425 -2.85386 0
M  V30 6680 O 669.739 3.26769 -2.51586 0
M  V30 6681 H 669.08 0.341766 -0.569291 0
M  V30 6682 H 671.61 0.467772 -1.99181 0
M  V30 6683 H 671.62 2.64605 -3.10561 0
M  V30 6684 H 670.295 1.71737 -3.78786 0
M  V30 6685 H 668.872 2.87804 -2.37114 0
M  V30 6686 N 671.057 1.43213 0.657864 0
M  V30 6687 C 672.282 1.48227 1.45064 0
M  V30 6688 C 672.707 0.0999939 1.87834 0
M  V30 6689 O 672.065 -0.905269 1.57081 0
M  V30 6690 C 672.113 2.42931 2.6649 0
M  V30 6691 O 671.217 1.91237 3.6538 0
M  V30 6692 H 670.558 0.501551 0.435135 0
M  V30 6693 H 673.088 1.8808 0.805431 0
M  V30 6694 H 673.098 2.6008 3.1436 0
M  V30 6695 H 671.773 3.43348 2.34701 0
M  V30 6696 H 670.35 1.83726 3.24498 0
M  V30 6697 N 672.536 -0.895792 1.29666 0
M  V30 6698 C 673.761 -1.68528 1.20885 0
M  V30 6699 C 674.186 -1.8673 -0.226595 0
M  V30 6700 O 673.544 -1.39044 -1.16347 0
M  V30 6701 C 673.592 -3.04512 1.93144 0
M  V30 6702 O 672.696 -3.92963 1.25115 0
M  V30 6703 H 672.037 -0.515371 0.418675 0
M  V30 6704 H 674.567 -1.11878 1.71302 0
M  V30 6705 H 674.577 -3.54628 2.0175 0
M  V30 6706 H 673.252 -2.90582 2.97548 0
M  V30 6707 H 671.829 -3.51399 1.24794 0
M  V30 6708 N 674.014 -1.12206 -1.10668 0
M  V30 6709 C 674.977 -0.790867 -2.15123 0
M  V30 6710 C 675.977 0.193618 -1.5963 0
M  V30 6711 O 677.167 -0.0318728 -1.74171 0
M  V30 6712 C 674.299 -0.174797 -3.40452 0
M  V30 6713 H 675.492 -1.7163 -2.45933 0
M  V30 6714 H 673.045 -0.924993 -1.2599 0
M  V30 6715 H 673.78 0.760478 -3.15257 0
M  V30 6716 H 673.565 -0.88358 -3.82015 0
M  V30 6717 H 675.055 0.0405162 -4.1758 0
M  V30 6718 N 675.492 1.28418 -0.913599 0
M  V30 6719 C 676.442 2.24928 -0.373042 0
M  V30 6720 C 677.426 1.52444 0.514753 0
M  V30 6721 O 678.618 1.73414 0.3545 0
M  V30 6722 C 675.747 3.41124 0.385896 0
M  V30 6723 C 674.833 4.20929 -0.51761 0
M  V30 6724 N 675.224 4.78777 -1.63113 0
M  V30 6725 C 673.522 4.44865 -0.317969 0
M  V30 6726 C 674.223 5.38822 -2.19193 0
M  V30 6727 N 673.199 5.22974 -1.48321 0
M  V30 6728 H 677.001 2.67224 -1.22346 0
M  V30 6729 H 674.515 1.43187 -0.766236 0
M  V30 6730 H 676.512 4.09347 0.789997 0
M  V30 6731 H 675.172 3.00362 1.23341 0
M  V30 6732 H 676.183 4.77148 -2.01372 0
M  V30 6733 H 672.86 4.14614 0.49004 0
M  V30 6734 H 674.25 5.94615 -3.12861 0
M  V30 6735 N 676.97 0.677563 1.42291 0
M  V30 6736 C 678.21 0.204894 2.0337 0
M  V30 6737 C 678.574 -1.16744 1.5243 0
M  V30 6738 O 679.775 -1.73492 2.05314 0
M  V30 6739 C 678.046 0.240742 3.56588 0
M  V30 6740 S 679.605 -0.16052 4.38506 0
M  V30 6741 H 676.423 0.0839932 0.706021 0
M  V30 6742 H 679.025 0.891332 1.73999 0
M  V30 6743 H 677.729 1.24184 3.91161 0
M  V30 6744 H 677.26 -0.465439 3.90637 0
M  V30 6745 H 679.275 -1.39315 4.76241 0
M  V30 6746 N 678.448 -1.51871 0.421078 0
M  V30 6747 C 679.676 -2.06356 -0.14994 0
M  V30 6748 C 680.091 -1.29006 -1.37851 0
M  V30 6749 O 679.448 -0.345139 -1.79207 0
M  V30 6750 C 679.499 -3.58185 -0.488454 0
M  V30 6751 O 679.22 -4.32611 0.691341 0
M  V30 6752 C 680.721 -4.29129 -1.11191 0
M  V30 6753 H 677.941 -0.67083 -0.0151186 0
M  V30 6754 H 680.485 -1.95638 0.595476 0
M  V30 6755 H 678.64 -3.68871 -1.18376 0
M  V30 6756 H 679.054 -5.22927 0.405906 0
M  V30 6757 H 680.528 -5.36501 -1.29889 0
M  V30 6758 H 681.005 -3.86371 -2.0884 0
M  V30 6759 H 681.611 -4.22843 -0.456458 0
M  V30 6760 N 679.926 -0.151884 -1.56866 0
M  V30 6761 C 680.874 0.80299 -2.183 0
M  V30 6762 C 681.868 1.25174 -1.14139 0
M  V30 6763 O 683.074 1.21966 -1.3238 0
M  V30 6764 H 679.449 0.277169 -0.699057 0
M  V30 6765 H 681.42 0.260699 -2.97259 0
M  V30 6766 C 680.169 2.03009 -2.82281 0
M  V30 6767 H 679.492 1.69377 -3.62148 0
M  V30 6768 H 680.932 2.67753 -3.28762 0
M  V30 6769 C 679.391 2.84123 -1.81041 0
M  V30 6770 O 679.921 3.8063 -1.28388 0
M  V30 6771 N 678.127 2.48753 -1.50234 0
M  V30 6772 H 677.674 1.70337 -1.93244 0
M  V30 6773 H 677.632 3.03316 -0.827445 0
M  V30 6774 N 681.404 1.57128 0.121893 0
M  V30 6775 C 682.352 2.01109 1.16868 0
M  V30 6776 C 683.346 0.907532 1.43039 0
M  V30 6777 O 684.552 1.09274 1.43036 0
M  V30 6778 H 680.927 0.640539 0.393971 0
M  V30 6779 H 682.898 2.88261 0.771224 0
M  V30 6780 C 681.647 2.42887 2.48799 0
M  V30 6781 H 680.97 3.2737 2.29498 0
M  V30 6782 H 682.41 2.77461 3.20611 0
M  V30 6783 C 680.869 1.29137 3.11168 0
M  V30 6784 O 681.399 0.605756 3.97106 0
M  V30 6785 N 679.605 1.04916 2.71 0
M  V30 6786 H 679.152 1.60848 2.01211 0
M  V30 6787 H 679.11 0.290016 3.1306 0
M  V30 6788 N 682.882 -0.391992 1.52647 0
M  V30 6789 C 684.13 -1.13507 1.67214 0
M  V30 6790 C 684.451 -1.90575 0.41304 0
M  V30 6791 O 683.721 -1.87348 -0.572498 0
M  V30 6792 H 682.301 -0.422013 0.616372 0
M  V30 6793 H 684.963 -0.44502 1.89751 0
M  V30 6794 H 684.059 -1.83964 2.52118 0
M  V30 6795 N 684.36 -1.4356 -0.65026 0
M  V30 6796 C 685.606 -1.45549 -1.41221 0
M  V30 6797 C 685.939 -0.0805472 -1.94033 0
M  V30 6798 O 685.214 0.899043 -1.72475 0
M  V30 6799 C 685.497 -2.50028 -2.59148 0
M  V30 6800 C 685.35 -3.96808 -2.1181 0
M  V30 6801 C 686.669 -2.51212 -3.61359 0
M  V30 6802 H 683.788 -0.529967 -0.512156 0
M  V30 6803 H 686.43 -1.75127 -0.736933 0
M  V30 6804 H 684.58 -2.24937 -3.16758 0
M  V30 6805 H 686.252 -4.32966 -1.59178 0
M  V30 6806 H 684.495 -4.09498 -1.43156 0
M  V30 6807 H 685.166 -4.6553 -2.96625 0
M  V30 6808 H 687.642 -2.73583 -3.13515 0
M  V30 6809 H 686.518 -3.26252 -4.41419 0
M  V30 6810 H 686.779 -1.54701 -4.1415 0
M  V30 6811 N 685.838 0.888903 -1.30139 0
M  V30 6812 C 686.785 1.99422 -1.16188 0
M  V30 6813 C 687.755 1.66017 -0.0523869 0
M  V30 6814 O 688.94 1.89506 -0.221864 0
M  V30 6815 C 686.08 3.34325 -0.855612 0
M  V30 6816 C 685.193 3.80445 -2.0466 0
M  V30 6817 C 684.328 5.03975 -1.67876 0
M  V30 6818 C 683.367 5.42492 -2.83493 0
M  V30 6819 N 682.504 6.57206 -2.47032 0
M  V30 6820 H 687.344 2.10687 -2.10749 0
M  V30 6821 H 684.881 1.03165 -1.04859 0
M  V30 6822 H 686.839 4.11968 -0.658681 0
M  V30 6823 H 685.469 3.22756 0.0531155 0
M  V30 6824 H 684.521 2.98745 -2.3549 0
M  V30 6825 H 685.833 4.04933 -2.91257 0
M  V30 6826 H 684.987 5.89232 -1.44535 0
M  V30 6827 H 683.726 4.8135 -0.784431 0
M  V30 6828 H 682.731 4.55764 -3.07505 0
M  V30 6829 H 683.956 5.67093 -3.73607 0
M  V30 6830 H 681.902 6.36164 -1.601 0
M  V30 6831 H 681.819 6.81543 -3.27161 0
M  V30 6832 H 683.087 7.45704 -2.27038 0
M  V30 6833 N 687.317 1.12792 1.10072 0
M  V30 6834 C 688.563 0.886857 1.82381 0
M  V30 6835 C 688.896 -0.58576 1.85155 0
M  V30 6836 O 688.171 -1.43317 1.31493 0
M  V30 6837 C 688.454 1.46703 3.28862 0
M  V30 6838 C 688.307 3.00829 3.34398 0
M  V30 6839 C 689.626 1.12971 4.25353 0
M  V30 6840 H 686.745 0.32362 0.662148 0
M  V30 6841 H 689.387 1.39513 1.28982 0
M  V30 6842 H 687.537 1.03476 3.74466 0
M  V30 6843 H 689.209 3.52764 2.97247 0
M  V30 6844 H 687.452 3.36164 2.74183 0
M  V30 6845 H 688.123 3.36519 4.3756 0
M  V30 6846 H 690.599 1.50313 3.88001 0
M  V30 6847 H 689.475 1.56223 5.26199 0
M  V30 6848 H 689.736 0.0424452 4.4208 0
M  V30 6849 N 688.795 -1.27931 0.920396 0
M  V30 6850 C 690.043 -1.94304 0.555906 0
M  V30 6851 C 690.364 -1.72753 -0.904519 0
M  V30 6852 O 689.634 -1.07104 -1.64029 0
M  V30 6853 H 688.214 -0.719001 0.202599 0
M  V30 6854 H 690.876 -1.55785 1.1712 0
M  V30 6855 H 689.972 -3.02806 0.755981 0
M  V30 6856 N 690.273 -0.685099 -1.4193 0
M  V30 6857 C 691.55 -0.140152 -1.95097 0
M  V30 6858 C 691.93 1.34745 -1.62502 0
M  V30 6859 O 691.278 2.08872 -0.926534 0
M  V30 6860 C 691.488 -0.420268 -3.4646 0
M  V30 6861 C 692.836 -0.342338 -4.23218 0
M  V30 6862 O 693.86 -0.354592 -3.54431 0
M  V30 6863 O 692.719 -0.293404 -5.45712 0
M  V30 6864 H 689.813 -0.00885998 -0.826953 0
M  V30 6865 H 692.359 -0.760539 -1.51703 0
M  V30 6866 H 691.131 -1.45037 -3.63428 0
M  V30 6867 H 690.754 0.231616 -3.96925 0
M  V30 6868 N 691.751 1.51645 -0.429126 0
M  V30 6869 C 692.991 2.03924 0.139354 0
M  V30 6870 C 693.355 1.30673 1.40672 0
M  V30 6871 O 694.556 1.73282 2.05491 0
M  V30 6872 C 692.827 3.5557 0.361179 0
M  V30 6873 S 694.386 4.29591 0.894241 0
M  V30 6874 H 691.204 0.710103 0.0356986 0
M  V30 6875 H 693.806 1.86491 -0.586644 0
M  V30 6876 H 692.51 4.06455 -0.567686 0
M  V30 6877 H 692.041 3.77283 1.11449 0
M  V30 6878 H 694.056 4.46102 2.17272 0
M  V30 6879 N 693.229 0.160201 1.56784 0
M  V30 6880 C 694.506 -0.533355 1.88188 0
M  V30 6881 C 694.886 -1.82072 1.06831 0
M  V30 6882 O 694.234 -2.27946 0.158959 0
M  V30 6883 C 694.444 -0.786034 3.40033 0
M  V30 6884 C 695.792 -1.12097 4.09536 0
M  V30 6885 O 696.816 -0.874949 3.45287 0
M  V30 6886 O 695.675 -1.58457 5.23023 0
M  V30 6887 H 692.769 -0.273589 0.780434 0
M  V30 6888 H 695.315 0.197803 1.68543 0
M  V30 6889 H 694.087 0.124515 3.91102 0
M  V30 6890 H 693.71 -1.57091 3.65251 0
M  V30 6891 N 694.707 -1.5719 -0.113559 0
M  V30 6892 C 695.637 -2.03772 -1.14013 0
M  V30 6893 C 696.618 -0.923176 -1.42869 0
M  V30 6894 O 697.803 -1.19325 -1.53216 0
M  V30 6895 C 694.933 -2.44663 -2.4649 0
M  V30 6896 C 693.887 -3.59612 -2.32085 0
M  V30 6897 C 693.213 -3.8642 -3.69573 0
M  V30 6898 C 694.513 -4.91149 -1.7768 0
M  V30 6899 H 696.207 -2.89785 -0.752665 0
M  V30 6900 H 693.753 -1.39412 -0.360609 0
M  V30 6901 H 695.706 -2.75857 -3.18561 0
M  V30 6902 H 694.43 -1.55628 -2.87137 0
M  V30 6903 H 693.089 -3.28636 -1.62461 0
M  V30 6904 H 692.737 -2.94581 -4.07715 0
M  V30 6905 H 692.437 -4.63797 -3.60786 0
M  V30 6906 H 693.961 -4.2007 -4.4314 0
M  V30 6907 H 695.375 -5.20843 -2.39574 0
M  V30 6908 H 693.772 -5.72562 -1.79701 0
M  V30 6909 H 694.842 -4.79301 -0.734776 0
M  V30 6910 N 696.185 0.383891 -1.52853 0
M  V30 6911 C 697.601 0.724316 -1.42218 0
M  V30 6912 C 697.801 1.93943 -0.546654 0
M  V30 6913 O 696.857 2.5249 -0.0220562 0
M  V30 6914 C 698.17 0.954635 -2.85144 0
M  V30 6915 C 699.718 1.05579 -2.94656 0
M  V30 6916 C 700.193 1.3187 -4.38605 0
M  V30 6917 N 701.684 1.38681 -4.41952 0
M  V30 6918 C 702.419 1.60699 -5.50421 0
M  V30 6919 N 701.915 1.80154 -6.68967 0
M  V30 6920 N 703.708 1.6292 -5.37972 0
M  V30 6921 H 695.859 -0.4156 -2.08294 0
M  V30 6922 H 698.122 -0.123776 -0.939885 0
M  V30 6923 H 697.828 0.133829 -3.51445 0
M  V30 6924 H 697.702 1.86788 -3.27704 0
M  V30 6925 H 700.089 1.86716 -2.2852 0
M  V30 6926 H 700.17 0.120338 -2.55517 0
M  V30 6927 H 699.814 0.512416 -5.05309 0
M  V30 6928 H 699.744 2.26708 -4.75301 0
M  V30 6929 H 702.235 1.25334 -3.56511 0
M  V30 6930 H 702.548 1.96476 -7.47407 0
M  V30 6931 H 700.893 1.77368 -6.71986 0
M  V30 6932 H 704.084 1.47276 -4.44328 0
M  V30 6933 H 704.257 1.79739 -6.22574 0
M  V30 6934 N 697.663 1.43903 0.642637 0
M  V30 6935 C 698.94 1.36556 1.40043 0
M  V30 6936 C 699.32 0.0185588 2.11092 0
M  V30 6937 O 698.668 -0.998438 2.05532 0
M  V30 6938 C 698.878 2.55596 2.37638 0
M  V30 6939 C 700.226 2.99153 3.01318 0
M  V30 6940 O 701.25 2.55719 2.47965 0
M  V30 6941 O 700.109 3.74427 3.98078 0
M  V30 6942 H 697.203 0.540189 0.626198 0
M  V30 6943 H 699.749 1.55971 0.668657 0
M  V30 6944 H 698.521 3.45256 1.84158 0
M  V30 6945 H 698.144 2.38334 3.18249 0
M  V30 6946 N 699.141 -0.881989 1.30609 0
M  V30 6947 C 700.557 -1.16576 1.09005 0
M  V30 6948 C 700.757 -2.00961 -0.14727 0
M  V30 6949 O 699.813 -2.38117 -0.840036 0
M  V30 6950 C 701.126 -1.86954 2.35518 0
M  V30 6951 C 702.674 -1.99706 2.41011 0
M  V30 6952 C 703.149 -2.73497 3.67374 0
M  V30 6953 N 704.64 -2.8104 3.68199 0
M  V30 6954 C 705.375 -3.38718 4.62664 0
M  V30 6955 N 704.871 -3.97421 5.67475 0
M  V30 6956 N 706.664 -3.36561 4.50203 0
M  V30 6957 H 698.815 -0.319398 2.09985 0
M  V30 6958 H 701.078 -0.204058 0.925778 0
M  V30 6959 H 700.784 -1.32393 3.2583 0
M  V30 6960 H 700.658 -2.87317 2.44395 0
M  V30 6961 H 703.045 -2.53436 1.51176 0
M  V30 6962 H 703.126 -0.984218 2.36108 0
M  V30 6963 H 702.77 -2.20438 4.57569 0
M  V30 6964 H 702.7 -3.75163 3.6954 0
M  V30 6965 H 705.191 -2.39365 2.92426 0
M  V30 6966 H 705.504 -4.39507 6.35652 0
M  V30 6967 H 703.849 -3.95832 5.71264 0
M  V30 6968 H 707.04 -2.8993 3.67503 0
M  V30 6969 H 707.213 -3.81215 5.24003 0
M  V30 6970 N 700.619 -1.13374 -1.09472 0
M  V30 6971 C 701.582 -0.813639 -2.14272 0
M  V30 6972 C 702.582 0.176677 -1.59826 0
M  V30 6973 O 703.772 -0.0503441 -1.74127 0
M  V30 6974 C 700.904 -0.210897 -3.40247 0
M  V30 6975 H 702.097 -1.74229 -2.44099 0
M  V30 6976 H 699.65 -0.938304 -1.25002 0
M  V30 6977 H 700.385 0.726998 -3.16046 0
M  V30 6978 H 700.17 -0.924048 -3.81056 0
M  V30 6979 H 701.66 -0.00377603 -4.176 0
M  V30 6980 N 702.098 1.27442 -0.927168 0
M  V30 6981 C 703.008 2.30599 -0.431448 0
M  V30 6982 C 704.024 1.67028 0.48761 0
M  V30 6983 O 705.2 1.97962 0.370546 0
M  V30 6984 C 702.265 3.45327 0.308292 0
M  V30 6985 C 701.326 4.24418 -0.645615 0
M  V30 6986 C 700.559 5.33667 0.0589164 0
M  V30 6987 O 700.782 5.5589 1.27838 0
M  V30 6988 O 699.716 5.98774 -0.612638 0
M  V30 6989 H 703.542 2.75036 -1.28797 0
M  V30 6990 H 701.127 1.32382 -0.692495 0
M  V30 6991 H 703.009 4.15107 0.725555 0
M  V30 6992 H 701.684 3.02945 1.14043 0
M  V30 6993 H 700.591 3.57174 -1.11255 0
M  V30 6994 H 701.924 4.70512 -1.44496 0
M  V30 6995 N 703.576 0.692616 1.41565 0
M  V30 6996 C 704.824 0.221896 2.00878 0
M  V30 6997 C 705.145 -1.18164 1.5512 0
M  V30 6998 O 704.415 -1.79679 0.78054 0
M  V30 6999 H 702.995 0.0790463 0.742806 0
M  V30 7000 H 705.657 0.893115 1.73232 0
M  V30 7001 H 704.753 0.23702 3.11199 0
M  V30 7002 N 705.054 -1.51416 0.437162 0
M  V30 7003 C 706.017 -2.26312 -0.362729 0
M  V30 7004 C 707.017 -1.29748 -0.949847 0
M  V30 7005 O 708.207 -1.53462 -0.824325 0
M  V30 7006 C 705.339 -3.05475 -1.5132 0
M  V30 7007 H 706.532 -2.98459 0.29365 0
M  V30 7008 H 704.085 -1.55137 0.190327 0
M  V30 7009 H 704.82 -2.37744 -2.20563 0
M  V30 7010 H 704.605 -3.76401 -1.09838 0
M  V30 7011 H 706.095 -3.62209 -2.07833 0
M  V30 7012 N 706.532 -0.168513 -1.56696 0
M  V30 7013 C 707.462 0.758563 -2.20835 0
M  V30 7014 C 708.443 1.24121 -1.1631 0
M  V30 7015 O 709.628 1.29487 -1.4473 0
M  V30 7016 C 706.758 1.9892 -2.8469 0
M  V30 7017 C 705.712 1.64252 -3.95228 0
M  V30 7018 C 705.038 2.94757 -4.46119 0
M  V30 7019 C 706.338 0.872675 -5.14958 0
M  V30 7020 H 708.032 0.223953 -2.98561 0
M  V30 7021 H 705.578 0.106277 -1.43607 0
M  V30 7022 H 707.531 2.64275 -3.28233 0
M  V30 7023 H 706.255 2.5479 -2.04327 0
M  V30 7024 H 704.914 1.01266 -3.52336 0
M  V30 7025 H 704.562 3.48662 -3.62552 0
M  V30 7026 H 704.262 2.72316 -5.2069 0
M  V30 7027 H 705.786 3.61147 -4.92347 0
M  V30 7028 H 707.2 1.42875 -5.55211 0
M  V30 7029 H 705.597 0.747402 -5.95428 0
M  V30 7030 H 706.667 -0.131535 -4.84722 0
M  V30 7031 N 708.01 1.57248 0.105221 0
M  V30 7032 C 708.94 2.04374 1.12931 0
M  V30 7033 C 709.921 0.93074 1.42377 0
M  V30 7034 O 711.106 1.20136 1.52581 0
M  V30 7035 C 708.236 2.45967 2.45189 0
M  V30 7036 C 707.19 3.60838 2.30174 0
M  V30 7037 C 706.516 3.88374 3.67518 0
M  V30 7038 C 707.816 4.92084 1.75073 0
M  V30 7039 H 709.51 2.9018 0.737287 0
M  V30 7040 H 707.056 1.39601 0.353211 0
M  V30 7041 H 709.009 2.77542 3.17094 0
M  V30 7042 H 707.733 1.57148 2.86308 0
M  V30 7043 H 706.392 3.29493 1.60716 0
M  V30 7044 H 706.04 2.96739 4.06147 0
M  V30 7045 H 705.74 4.65703 3.58321 0
M  V30 7046 H 707.264 4.22415 4.40906 0
M  V30 7047 H 708.678 5.22106 2.36809 0
M  V30 7048 H 707.075 5.73507 1.76662 0
M  V30 7049 H 708.145 4.79684 0.709347 0
M  V30 7050 N 709.488 -0.375779 1.53054 0
M  V30 7051 C 710.451 -1.44254 1.7811 0
M  V30 7052 C 711.451 -1.47018 0.651328 0
M  V30 7053 O 712.641 -1.47957 0.919472 0
M  V30 7054 C 709.773 -2.8345 1.89391 0
M  V30 7055 H 710.966 -1.23316 2.73374 0
M  V30 7056 H 708.519 -0.608312 1.43977 0
M  V30 7057 H 709.254 -3.09716 0.961589 0
M  V30 7058 H 709.039 -2.82844 2.71555 0
M  V30 7059 H 710.529 -3.60722 2.10404 0
M  V30 7060 N 710.966 -1.44241 -0.634997 0
M  V30 7061 C 711.876 -1.53293 -1.77591 0
M  V30 7062 C 712.892 -0.418831 -1.68884 0
M  V30 7063 O 714.068 -0.675619 -1.8973 0
M  V30 7064 C 711.133 -1.47075 -3.13958 0
M  V30 7065 C 710.194 -2.69304 -3.34326 0
M  V30 7066 C 709.427 -2.63374 -4.64187 0
M  V30 7067 O 709.65 -1.69161 -5.44739 0
M  V30 7068 O 708.584 -3.54166 -4.86673 0
M  V30 7069 H 712.41 -2.49673 -1.72908 0
M  V30 7070 H 709.995 -1.26445 -0.795745 0
M  V30 7071 H 711.877 -1.46117 -3.95257 0
M  V30 7072 H 710.552 -0.538373 -3.19192 0
M  V30 7073 H 709.459 -2.75831 -2.52721 0
M  V30 7074 H 710.792 -3.61576 -3.33951 0
M  V30 7075 N 712.444 0.87505 -1.31075 0
M  V30 7076 C 713.669 1.66583 -1.23551 0
M  V30 7077 C 714.094 1.87067 0.19686 0
M  V30 7078 O 713.452 1.40877 1.1412 0
M  V30 7079 C 713.5 3.01401 -1.97965 0
M  V30 7080 O 712.604 3.90923 -1.31351 0
M  V30 7081 H 711.945 0.508645 -0.426821 0
M  V30 7082 H 714.475 1.09139 -1.7306 0
M  V30 7083 H 714.485 3.51374 -2.07366 0
M  V30 7084 H 713.16 2.85812 -3.02133 0
M  V30 7085 H 711.737 3.49369 -1.30368 0
M  V30 7086 N 713.922 1.13953 1.08869 0
M  V30 7087 C 715.333 0.916649 1.62648 0
M  V30 7088 C 715.684 -0.545589 1.88462 0
M  V30 7089 O 714.809 -1.41351 1.63856 0
M  V30 7090 C 715.404 1.65751 2.95486 0
M  V30 7091 C 713.963 1.48034 3.46068 0
M  V30 7092 C 713.11 1.68305 2.20383 0
M  V30 7093 H 716.061 1.292 0.921572 0
M  V30 7094 H 716.082 1.11794 3.63707 0
M  V30 7095 H 715.594 2.72171 2.76667 0
M  V30 7096 H 713.695 0.439416 3.7 0
M  V30 7097 H 713.808 2.24719 4.23129 0
M  V30 7098 H 712.172 1.10833 2.29321 0
M  V30 7099 H 712.955 2.76057 2.04077 0
M  V30 7100 N 715.4 -1.26948 0.933913 0
M  V30 7101 C 716.33 -2.29017 0.45534 0
M  V30 7102 C 717.311 -1.62961 -0.487605 0
M  V30 7103 O 718.496 -1.90223 -0.391022 0
M  V30 7104 C 715.626 -3.46112 -0.287015 0
M  V30 7105 C 714.58 -4.24205 0.568682 0
M  V30 7106 C 713.906 -5.3384 -0.303206 0
M  V30 7107 C 715.206 -4.88954 1.83633 0
M  V30 7108 H 716.9 -2.69298 1.30839 0
M  V30 7109 H 714.446 -1.29459 0.630579 0
M  V30 7110 H 716.399 -4.16622 -0.6328 0
M  V30 7111 H 715.123 -3.04765 -1.17414 0
M  V30 7112 H 713.782 -3.5545 0.897261 0
M  V30 7113 H 713.43 -4.88734 -1.18947 0
M  V30 7114 H 713.13 -5.86998 0.265879 0
M  V30 7115 H 714.654 -6.0719 -0.644423 0
M  V30 7116 H 716.068 -5.51717 1.55823 0
M  V30 7117 H 714.465 -5.52198 2.34941 0
M  V30 7118 H 715.535 -4.12305 2.55211 0
M  V30 7119 N 716.879 -0.700114 -1.41195 0
M  V30 7120 C 718.127 -0.232546 -2.00758 0
M  V30 7121 C 718.448 1.1734 -1.55745 0
M  V30 7122 O 717.718 1.79262 -0.790058 0
M  V30 7123 H 716.298 -0.0829845 -0.742376 0
M  V30 7124 H 718.96 -0.902289 -1.72756 0
M  V30 7125 H 718.056 -0.253521 -3.11069 0
M  V30 7126 N 718.357 1.51182 -0.445186 0
M  V30 7127 C 719.582 2.07056 0.119445 0
M  V30 7128 C 720.007 1.30966 1.35016 0
M  V30 7129 O 719.365 0.349827 1.77893 0
M  V30 7130 C 719.413 3.58234 0.412428 0
M  V30 7131 O 718.517 3.84249 1.49754 0
M  V30 7132 H 717.858 0.663998 -0.00157797 0
M  V30 7133 H 720.388 1.94699 -0.628779 0
M  V30 7134 H 720.398 4.02617 0.660583 0
M  V30 7135 H 719.073 4.13038 -0.487049 0
M  V30 7136 H 717.65 3.51724 1.23873 0
M  V30 7137 N 719.835 0.176821 1.56605 0
M  V30 7138 C 721.06 -0.47599 2.01864 0
M  V30 7139 C 721.485 -1.55645 1.05623 0
M  V30 7140 O 720.843 -1.81263 0.0366729 0
M  V30 7141 C 720.891 -1.02619 3.4569 0
M  V30 7142 O 719.995 -2.13996 3.52533 0
M  V30 7143 H 719.336 -0.113363 0.654251 0
M  V30 7144 H 721.866 0.28233 2.02643 0
M  V30 7145 H 721.876 -1.34742 3.85109 0
M  V30 7146 H 720.551 -0.235138 4.15235 0
M  V30 7147 H 719.128 -1.82876 3.24978 0
M  V30 7148 N 721.313 -1.57302 -0.09688 0
M  V30 7149 C 722.59 -1.7701 -0.832272 0
M  V30 7150 C 722.97 -0.758025 -1.97021 0
M  V30 7151 O 722.318 0.213824 -2.27497 0
M  V30 7152 C 722.528 -3.22725 -1.32851 0
M  V30 7153 C 723.876 -3.85856 -1.772 0
M  V30 7154 O 724.9 -3.26464 -1.42478 0
M  V30 7155 O 723.759 -4.90295 -2.41398 0
M  V30 7156 H 720.853 -0.725558 -0.396856 0
M  V30 7157 H 723.399 -1.69516 -0.0789005 0
M  V30 7158 H 722.171 -3.87921 -0.51312 0
M  V30 7159 H 721.794 -3.34845 -2.14394 0
M  V30 7160 N 722.791 0.367657 -1.53252 0
M  V30 7161 C 723.754 1.43308 -1.78873 0
M  V30 7162 C 724.754 1.46671 -0.659115 0
M  V30 7163 O 725.944 1.47468 -0.927306 0
M  V30 7164 C 723.076 2.82442 -1.90892 0
M  V30 7165 H 724.269 1.21864 -2.74024 0
M  V30 7166 H 721.822 0.600668 -1.44297 0
M  V30 7167 H 722.557 3.09202 -0.978 0
M  V30 7168 H 722.342 2.81399 -2.73051 0
M  V30 7169 H 723.832 3.59601 -2.12314 0
M  V30 7170 O 724.308 1.53115 0.51363 0
M  V30 7171 H 724.999 1.54476 1.16863 0
M  V30 END ATOM
M  V30 BEGIN BOND
M  V30 END BOND
M  V30 END CTAB
M  END
$$$$
