drugbank_target|Q86US8 Telomerase-binding protein EST1A (DB05036)
 OpenBabel12092120223D

  0  0  0     0  0            999 V3000
M  V30 BEGIN CTAB
M  V30 COUNTS 22466 22672 0 0 0
M  V30 BEGIN ATOM
M  V30 1 H -0.908 1.98254 -0.117106 0
M  V30 2 N 0 1.576 0 0
M  V30 3 C 0.933 2.03868 1.02534 0
M  V30 4 C 1.911 0.928543 1.3348 0
M  V30 5 O 3.095 1.19667 1.45644 0
M  V30 6 C 0.222 2.43627 2.35294 0
M  V30 7 C -0.732 3.65373 2.2001 0
M  V30 8 S 0.101 5.13292 1.52614 0
M  V30 9 C 1.257 5.56322 2.86805 0
M  V30 10 H 1.49 2.90518 0.631377 0
M  V30 11 H -0.977 1.52953 0.210867 0
M  V30 12 H 0.981 2.67203 3.11629 0
M  V30 13 H -0.358 1.57376 2.7183 0
M  V30 14 H -1.165 3.90944 3.18086 0
M  V30 15 H -1.563 3.418 1.51819 0
M  V30 16 H 0.729 5.58782 3.83104 0
M  V30 17 H 1.672 6.56266 2.65933 0
M  V30 18 H 2.08 4.83886 2.90714 0
M  V30 19 N 1.4781 -0.272755 1.55222 0
M  V30 20 C 2.4411 -1.32041 1.87344 0
M  V30 21 C 3.4411 -1.42342 0.74803 0
M  V30 22 O 4.6311 -1.41488 1.0162 0
M  V30 23 C 1.7631 -2.70173 2.07893 0
M  V30 24 H 2.9561 -1.04789 2.80997 0
M  V30 25 H 0.5091 -0.51083 1.47717 0
M  V30 26 H 1.2441 -3.02605 1.16622 0
M  V30 27 H 1.0291 -2.64082 2.89833 0
M  V30 28 H 2.5191 -3.45869 2.34017 0
M  V30 29 N 2.9562 -1.48159 -0.537278 0
M  V30 30 C 3.8662 -1.64807 -1.6696 0
M  V30 31 C 4.8822 -0.530651 -1.65711 0
M  V30 32 O 6.0582 -0.800784 -1.84796 0
M  V30 33 C 3.1232 -1.67708 -3.03438 0
M  V30 34 C 2.1842 -2.91025 -3.156 0
M  V30 35 C 1.4172 -2.93778 -4.45567 0
M  V30 36 O 1.6402 -2.05153 -5.3223 0
M  V30 37 O 0.5742 -3.85868 -4.61941 0
M  V30 38 H 4.4002 -2.6066 -1.55853 0
M  V30 39 H 1.9852 -1.31475 -0.709549 0
M  V30 40 H 3.8672 -1.7218 -3.84619 0
M  V30 41 H 2.5422 -0.750278 -3.14885 0
M  V30 42 H 1.4492 -2.92089 -2.33741 0
M  V30 43 H 2.7822 -3.83065 -3.09066 0
M  V30 44 N 4.4343 0.785586 -1.36625 0
M  V30 45 C 5.6823 1.54057 -1.30808 0
M  V30 46 C 6.0033 1.94683 0.111157 0
M  V30 47 O 5.2733 1.65241 1.05224 0
M  V30 48 H 3.8533 0.571354 -0.481211 0
M  V30 49 H 6.5153 0.935821 -1.70963 0
M  V30 50 H 5.6113 2.44637 -1.93801 0
M  V30 51 N 5.9124 1.20967 1.01018 0
M  V30 52 C 6.8424 0.988272 2.11555 0
M  V30 53 C 7.8234 -0.0849778 1.69888 0
M  V30 54 O 9.0084 0.0738202 1.9406 0
M  V30 55 C 6.1384 0.546528 3.42973 0
M  V30 56 C 5.0924 1.56375 3.9841 0
M  V30 57 C 4.4184 0.97842 5.25672 0
M  V30 58 C 5.7184 2.94922 4.31066 0
M  V30 59 H 7.4124 1.91276 2.30334 0
M  V30 60 H 4.9584 0.921073 1.1069 0
M  V30 61 H 6.9114 0.378839 4.19694 0
M  V30 62 H 5.6354 -0.413598 3.23971 0
M  V30 63 H 4.2944 1.71891 3.23804 0
M  V30 64 H 3.9424 0.0101688 5.02999 0
M  V30 65 H 3.6424 1.65784 5.63728 0
M  V30 66 H 5.1664 0.821939 6.05043 0
M  V30 67 H 6.5804 2.8288 4.9865 0
M  V30 68 H 4.9774 3.5983 4.80253 0
M  V30 69 H 6.0474 3.4616 3.39561 0
M  V30 70 N 7.3905 -1.2043 1.01659 0
M  V30 71 C 8.3005 -2.2689 0.596484 0
M  V30 72 C 9.3165 -1.70107 -0.36599 0
M  V30 73 O 10.4925 -2.00117 -0.226942 0
M  V30 74 C 7.5575 -3.4665 -0.0586659 0
M  V30 75 C 6.6185 -4.18662 0.949751 0
M  V30 76 C 5.8515 -5.32705 0.32577 0
M  V30 77 O 6.0745 -5.63656 -0.874509 0
M  V30 78 O 5.0085 -5.92803 1.04249 0
M  V30 79 H 8.8345 -2.65041 1.4828 0
M  V30 80 H 6.4195 -1.27048 0.786082 0
M  V30 81 H 8.3015 -4.19256 -0.424564 0
M  V30 82 H 6.9765 -3.10375 -0.91918 0
M  V30 83 H 5.8835 -3.48229 1.36702 0
M  V30 84 H 7.2165 -4.58878 1.78023 0
M  V30 85 N 8.8686 -0.792821 -1.36206 0
M  V30 86 C 10.2846 -0.474903 -1.52371 0
M  V30 87 C 10.4846 1.00622 -1.74578 0
M  V30 88 O 9.5406 1.79162 -1.77924 0
M  V30 89 C 10.8536 -1.3083 -2.70747 0
M  V30 90 C 12.4016 -1.30234 -2.84619 0
M  V30 91 C 12.8766 -2.11956 -4.06004 0
M  V30 92 N 14.3676 -2.09419 -4.13156 0
M  V30 93 C 15.1026 -2.69419 -5.06163 0
M  V30 94 N 14.5986 -3.3829 -6.04592 0
M  V30 95 N 16.3916 -2.59134 -4.98804 0
M  V30 96 H 8.5426 -1.75222 -1.20046 0
M  V30 97 H 10.8056 -0.745024 -0.586211 0
M  V30 98 H 10.5116 -2.35881 -2.6087 0
M  V30 99 H 10.3856 -0.95196 -3.6499 0
M  V30 100 H 12.7726 -0.259748 -2.93955 0
M  V30 101 H 12.8536 -1.69847 -1.91274 0
M  V30 102 H 12.4976 -3.16248 -3.97429 0
M  V30 103 H 12.4276 -1.69711 -4.98503 0
M  V30 104 H 14.9186 -1.59297 -3.42685 0
M  V30 105 H 15.2316 -3.81394 -6.7213 0
M  V30 106 H 13.5766 -3.42393 -6.04807 0
M  V30 107 H 16.7676 -2.04927 -4.20859 0
M  V30 108 H 16.9406 -3.06185 -5.711 0
M  V30 109 N 10.3467 1.47872 -0.545128 0
M  V30 110 C 11.5927 2.02793 -0.0166104 0
M  V30 111 C 11.9257 1.41987 1.32489 0
M  V30 112 O 11.2007 0.571045 1.85928 0
M  V30 113 C 11.4837 3.59989 0.0893294 0
M  V30 114 C 11.3367 4.3125 -1.27841 0
M  V30 115 C 12.6557 4.32606 0.808724 0
M  V30 116 H 9.7747 0.736962 -0.00751035 0
M  V30 117 H 12.4167 1.76433 -0.705085 0
M  V30 118 H 10.5667 3.82579 0.675681 0
M  V30 119 H 12.2387 4.20035 -1.90704 0
M  V30 120 H 10.4817 3.92076 -1.85632 0
M  V30 121 H 11.1527 5.39736 -1.15713 0
M  V30 122 H 13.6287 4.14936 0.310992 0
M  V30 123 H 12.5047 5.42251 0.851782 0
M  V30 124 H 12.7657 4.00963 1.86229 0
M  V30 125 N 11.8248 0.280983 1.55075 0
M  V30 126 C 13.2408 -0.0729964 1.59433 0
M  V30 127 C 13.4408 -1.5411 1.29817 0
M  V30 128 O 12.4968 -2.29086 1.06187 0
M  V30 129 C 13.8098 0.306921 2.9913 0
M  V30 130 C 15.3578 0.254023 3.11968 0
M  V30 131 C 15.8328 0.608467 4.5394 0
M  V30 132 N 17.3238 0.560241 4.59799 0
M  V30 133 C 18.0588 0.80722 5.6769 0
M  V30 134 N 17.5548 1.11912 6.83701 0
M  V30 135 N 19.3478 0.735623 5.57266 0
M  V30 136 H 11.4988 1.238 1.7259 0
M  V30 137 H 13.7618 0.500547 0.805082 0
M  V30 138 H 13.4678 1.32816 3.25657 0
M  V30 139 H 13.3418 -0.349363 3.75579 0
M  V30 140 H 15.7288 -0.75794 2.852 0
M  V30 141 H 15.8098 0.944649 2.37718 0
M  V30 142 H 15.4538 1.61814 4.81434 0
M  V30 143 H 15.3838 -0.104013 5.26497 0
M  V30 144 H 17.8748 0.329288 3.76463 0
M  V30 145 H 18.1878 1.29409 7.61888 0
M  V30 146 H 16.5328 1.15695 6.85303 0
M  V30 147 H 19.7238 0.491752 4.6551 0
M  V30 148 H 19.8968 0.931482 6.4127 0
M  V30 149 N 13.3029 -1.57598 0.00835791 0
M  V30 150 C 14.5519 -1.90107 -0.673968 0
M  V30 151 C 14.8649 -0.884275 -1.7447 0
M  V30 152 O 16.0709 -1.09987 -2.48224 0
M  V30 153 C 14.5269 -3.37497 -1.24995 0
M  V30 154 C 14.1349 -4.47491 -0.2136 0
M  V30 155 C 15.8789 -3.79104 -1.90999 0
M  V30 156 C 13.7859 -5.85963 -0.80005 0
M  V30 157 H 12.7159 -0.709393 -0.255495 0
M  V30 158 H 15.3669 -1.83365 0.0702693 0
M  V30 159 H 13.7489 -3.39102 -2.04513 0
M  V30 160 H 14.9229 -4.57414 0.557596 0
M  V30 161 H 13.2379 -4.14956 0.346474 0
M  V30 162 H 15.8349 -4.79901 -2.35795 0
M  V30 163 H 16.1779 -3.1306 -2.74407 0
M  V30 164 H 16.7109 -3.79833 -1.18203 0
M  V30 165 H 13.4499 -6.555 -0.00456708 0
M  V30 166 H 12.9699 -5.79687 -1.54021 0
M  V30 167 H 14.6489 -6.33884 -1.29615 0
M  V30 168 N 14.781 0.264519 -1.55364 0
M  V30 169 C 16.006 1.01726 -1.80739 0
M  V30 170 C 16.431 1.78836 -0.583044 0
M  V30 171 O 15.789 1.75167 0.467566 0
M  V30 172 C 15.837 1.94482 -3.03659 0
M  V30 173 O 14.941 3.03386 -2.7934 0
M  V30 174 H 14.282 0.290395 -0.597132 0
M  V30 175 H 16.812 0.290854 -2.02522 0
M  V30 176 H 16.822 2.36278 -3.32621 0
M  V30 177 H 15.497 1.37772 -3.92418 0
M  V30 178 H 14.074 2.65844 -2.61498 0
M  V30 179 N 16.2591 1.48442 0.529413 0
M  V30 180 C 17.2221 1.62524 1.61612 0
M  V30 181 C 18.2221 0.498509 1.52877 0
M  V30 182 O 19.4121 0.76431 1.56537 0
M  V30 183 C 16.5441 1.59597 3.01233 0
M  V30 184 H 17.7371 2.59423 1.50465 0
M  V30 185 H 15.2901 1.37047 0.751514 0
M  V30 186 H 16.0251 0.641781 3.17886 0
M  V30 187 H 15.8101 2.41397 3.08982 0
M  V30 188 H 17.3001 1.72646 3.80241 0
M  V30 189 N 17.7372 -0.778329 1.37039 0
M  V30 190 C 18.9622 -1.57248 1.35233 0
M  V30 191 C 19.3872 -1.87999 -0.0615568 0
M  V30 192 O 18.7452 -1.48734 -1.03672 0
M  V30 193 C 18.7932 -2.86353 2.19167 0
M  V30 194 O 17.8972 -3.80442 1.59178 0
M  V30 195 H 17.2382 -0.476569 0.462362 0
M  V30 196 H 19.7682 -0.963853 1.80474 0
M  V30 197 H 19.7782 -3.35519 2.32145 0
M  V30 198 H 18.4532 -2.63299 3.21942 0
M  V30 199 H 17.0302 -3.39067 1.55203 0
M  V30 200 N 19.2153 -1.21501 -1.00376 0
M  V30 201 C 20.1253 -0.991447 -2.12621 0
M  V30 202 C 21.1413 0.0568446 -1.73907 0
M  V30 203 O 22.3173 -0.13348 -2.00957 0
M  V30 204 C 19.3823 -0.560312 -3.42142 0
M  V30 205 C 18.4433 -1.68096 -3.95022 0
M  V30 206 C 17.6763 -1.2703 -5.18362 0
M  V30 207 O 17.8993 -0.144438 -5.70217 0
M  V30 208 O 16.8333 -2.08269 -5.64719 0
M  V30 209 H 20.6593 -1.93158 -2.34358 0
M  V30 210 H 18.2443 -0.999999 -1.10997 0
M  V30 211 H 20.1263 -0.329724 -4.20108 0
M  V30 212 H 18.8013 0.351089 -3.2179 0
M  V30 213 H 17.7083 -1.96597 -3.18278 0
M  V30 214 H 19.0413 -2.56983 -4.19786 0
M  V30 215 N 20.6934 1.19889 -1.02296 0
M  V30 216 C 21.6234 2.25141 -0.619174 0
M  V30 217 C 22.6044 1.66051 0.368915 0
M  V30 218 O 23.7894 1.92546 0.252941 0
M  V30 219 C 20.9194 3.4728 0.0368783 0
M  V30 220 C 19.8734 4.19005 -0.872865 0
M  V30 221 C 19.1994 5.34637 -0.0822402 0
M  V30 222 C 20.4994 4.74452 -2.18387 0
M  V30 223 H 22.1934 2.59171 -1.49903 0
M  V30 224 H 19.7394 1.24579 -0.722222 0
M  V30 225 H 21.6924 4.20098 0.330958 0
M  V30 226 H 20.4164 3.12433 0.95149 0
M  V30 227 H 19.0754 3.48061 -1.15105 0
M  V30 228 H 18.7234 4.96034 0.83422 0
M  V30 229 H 18.4234 5.83557 -0.688149 0
M  V30 230 H 19.9474 6.10255 0.205238 0
M  V30 231 H 21.3614 5.39055 -1.95172 0
M  V30 232 H 19.7584 5.33834 -2.74119 0
M  V30 233 H 20.8284 3.92844 -2.84257 0
M  V30 234 N 22.1715 0.800033 1.35784 0
M  V30 235 C 23.5875 0.482977 1.52117 0
M  V30 236 C 23.7875 -0.996948 1.75109 0
M  V30 237 O 22.8435 -1.78216 1.78872 0
M  V30 238 C 24.1565 1.32264 2.70049 0
M  V30 239 C 25.7045 1.31742 2.83924 0
M  V30 240 C 26.1795 2.14106 4.04874 0
M  V30 241 N 27.6705 2.11607 4.12039 0
M  V30 242 C 28.4055 2.72099 5.04727 0
M  V30 243 N 27.9015 3.41492 6.02789 0
M  V30 244 N 29.6945 2.61776 4.97423 0
M  V30 245 H 21.8455 1.75856 1.19115 0
M  V30 246 H 24.1085 0.748122 0.582252 0
M  V30 247 H 23.8145 2.37261 2.59616 0
M  V30 248 H 23.6885 0.971303 3.6448 0
M  V30 249 H 26.0755 0.275333 2.93813 0
M  V30 250 H 26.1565 1.70859 1.9037 0
M  V30 251 H 25.8005 3.18351 3.95746 0
M  V30 252 H 25.7305 1.72353 4.97596 0
M  V30 253 H 28.2215 1.61112 3.41835 0
M  V30 254 H 28.5345 3.84953 6.70098 0
M  V30 255 H 26.8795 3.45596 6.02983 0
M  V30 256 H 30.0705 2.07157 4.19766 0
M  V30 257 H 30.2435 3.0921 5.69468 0
M  V30 258 N 23.6496 -1.47581 0.552962 0
M  V30 259 C 24.8976 -2.02082 0.0272703 0
M  V30 260 C 25.2186 -1.4301 -1.32563 0
M  V30 261 O 24.4886 -0.603745 -1.86365 0
M  V30 262 H 23.0686 -0.746966 0.00709182 0
M  V30 263 H 25.7306 -1.81033 0.722008 0
M  V30 264 H 24.8266 -3.12034 -0.0639951 0
M  V30 265 N 25.1277 -0.289203 -1.54924 0
M  V30 266 C 26.3767 0.324231 -1.99077 0
M  V30 267 C 26.6897 1.5591 -1.18117 0
M  V30 268 O 27.8957 2.24637 -1.52481 0
M  V30 269 C 26.3517 0.628209 -3.54375 0
M  V30 270 C 25.9597 -0.587647 -4.44129 0
M  V30 271 C 27.7037 1.20349 -4.07083 0
M  V30 272 C 25.6107 -0.257475 -5.90839 0
M  V30 273 H 24.5407 0.124924 -0.743579 0
M  V30 274 H 27.1917 -0.396063 -1.79175 0
M  V30 275 H 25.5737 1.40778 -3.70132 0
M  V30 276 H 26.7477 -1.36418 -4.40144 0
M  V30 277 H 25.0627 -1.08074 -4.0213 0
M  V30 278 H 27.6597 1.46456 -5.14252 0
M  V30 279 H 28.0027 2.14195 -3.56968 0
M  V30 280 H 28.5357 0.485889 -3.94821 0
M  V30 281 H 25.2747 -1.16419 -6.45079 0
M  V30 282 H 24.7947 0.482018 -5.9786 0
M  V30 283 H 26.4737 0.145238 -6.46837 0
M  V30 284 N 26.6058 1.57591 -0.0167156 0
M  V30 285 C 27.5358 2.12496 0.967858 0
M  V30 286 C 28.5168 1.03807 1.34752 0
M  V30 287 O 29.7018 1.31577 1.42833 0
M  V30 288 C 26.8318 2.64194 2.25431 0
M  V30 289 C 25.7858 3.77559 2.01576 0
M  V30 290 C 25.1118 4.15636 3.36379 0
M  V30 291 C 26.4118 5.04151 1.36489 0
M  V30 292 H 28.1058 2.95013 0.510643 0
M  V30 293 H 25.6518 1.41915 0.244181 0
M  V30 294 H 27.6048 3.01236 2.94678 0
M  V30 295 H 26.3288 1.78821 2.73296 0
M  V30 296 H 24.9878 3.40937 1.34751 0
M  V30 297 H 24.6358 3.27263 3.81979 0
M  V30 298 H 24.3358 4.92022 3.21229 0
M  V30 299 H 25.8598 4.5525 4.06915 0
M  V30 300 H 27.2738 5.38857 1.95718 0
M  V30 301 H 25.6708 5.85453 1.31776 0
M  V30 302 H 26.7408 4.83733 0.336219 0
M  V30 303 N 28.0839 -0.256276 1.55502 0
M  V30 304 C 29.0469 -1.30047 1.88734 0
M  V30 305 C 30.0469 -1.4154 0.763086 0
M  V30 306 O 31.2369 -1.40403 1.03115 0
M  V30 307 C 28.3689 -2.67953 2.10747 0
M  V30 308 H 29.5619 -1.01802 2.82093 0
M  V30 309 H 27.1149 -0.495134 1.4825 0
M  V30 310 H 27.8499 -3.01351 1.19825 0
M  V30 311 H 27.6349 -2.60993 2.92617 0
M  V30 312 H 29.1249 -3.43368 2.37673 0
M  V30 313 N 29.562 -1.4872 -0.521534 0
M  V30 314 C 30.79 -1.60843 -1.30142 0
M  V30 315 C 31.205 -0.271897 -1.86832 0
M  V30 316 O 30.562 0.739969 -1.66825 0
M  V30 317 C 30.613 -2.66155 -2.4463 0
M  V30 318 O 30.334 -3.94623 -1.90275 0
M  V30 319 C 31.835 -2.88795 -3.36322 0
M  V30 320 H 29.055 -0.542075 -0.395468 0
M  V30 321 H 31.599 -1.94609 -0.628285 0
M  V30 322 H 29.754 -2.35224 -3.07812 0
M  V30 323 H 30.168 -4.52468 -2.65279 0
M  V30 324 H 31.642 -3.66264 -4.12983 0
M  V30 325 H 32.119 -1.97934 -3.9207 0
M  V30 326 H 32.725 -3.21063 -2.78924 0
M  V30 327 N 31.0401 0.771051 -1.3745 0
M  V30 328 C 31.9701 1.89827 -1.3597 0
M  V30 329 C 32.9511 1.68562 -0.228216 0
M  V30 330 O 34.1361 1.8941 -0.428675 0
M  V30 331 C 31.2661 3.2712 -1.16662 0
M  V30 332 C 30.2201 3.6295 -2.2683 0
M  V30 333 C 29.5461 4.98791 -1.92644 0
M  V30 334 C 30.8461 3.69627 -3.69017 0
M  V30 335 H 32.5401 1.91323 -2.30295 0
M  V30 336 H 30.0861 0.919082 -1.10855 0
M  V30 337 H 32.0391 4.05615 -1.14256 0
M  V30 338 H 30.7631 3.26059 -0.187926 0
M  V30 339 H 29.4221 2.86763 -2.28392 0
M  V30 340 H 29.0701 4.94271 -0.933021 0
M  V30 341 H 28.7701 5.23733 -2.66416 0
M  V30 342 H 30.2941 5.79685 -1.91826 0
M  V30 343 H 31.7081 4.38273 -3.69581 0
M  V30 344 H 30.1051 4.06067 -4.41848 0
M  V30 345 H 31.1751 2.70273 -4.02592 0
M  V30 346 N 32.5182 1.22032 0.997298 0
M  V30 347 C 33.4812 0.987909 2.06816 0
M  V30 348 C 34.4812 -0.0440084 1.6074 0
M  V30 349 O 35.6712 0.194053 1.73116 0
M  V30 350 C 32.8032 0.49132 3.37341 0
M  V30 351 H 33.9962 1.93803 2.28868 0
M  V30 352 H 31.5492 1.03838 1.16822 0
M  V30 353 H 32.2842 -0.463364 3.20973 0
M  V30 354 H 32.0692 1.23575 3.72118 0
M  V30 355 H 33.5592 0.348824 4.16141 0
M  V30 356 N 33.9963 -1.19345 1.0293 0
M  V30 357 C 35.4073 -1.70725 0.755633 0
M  V30 358 C 35.7583 -1.82326 -0.724676 0
M  V30 359 O 34.8833 -1.49471 -1.56484 0
M  V30 360 C 35.4783 -3.10084 1.36503 0
M  V30 361 C 34.0373 -3.58723 1.13994 0
M  V30 362 C 33.1843 -2.35577 1.46283 0
M  V30 363 H 36.1353 -1.0418 1.19718 0
M  V30 364 H 36.1563 -3.72787 0.762217 0
M  V30 365 H 35.6683 -3.01609 2.44241 0
M  V30 366 H 33.7693 -3.72512 0.0807901 0
M  V30 367 H 33.8823 -4.42816 1.82894 0
M  V30 368 H 32.2463 -2.38935 0.88217 0
M  V30 369 H 33.0293 -2.29731 2.55105 0
M  V30 370 N 35.4744 -0.807222 -1.35358 0
M  V30 371 C 36.4064 -0.175717 -2.28525 0
M  V30 372 C 37.4194 0.625354 -1.5031 0
M  V30 373 O 38.6084 0.457611 -1.72535 0
M  V30 374 C 35.7084 0.773471 -3.29956 0
M  V30 375 C 34.8814 0.0186296 -4.37396 0
M  V30 376 C 33.9404 0.886395 -5.18681 0
M  V30 377 O 32.9664 0.337106 -5.68201 0
M  V30 378 N 34.1684 2.20839 -5.36852 0
M  V30 379 H 36.9334 -0.976091 -2.83359 0
M  V30 380 H 34.4944 -0.662737 -1.47714 0
M  V30 381 H 36.4864 1.35824 -3.81227 0
M  V30 382 H 35.0564 1.47465 -2.75632 0
M  V30 383 H 34.2764 -0.747349 -3.87051 0
M  V30 384 H 35.5644 -0.501577 -5.06322 0
M  V30 385 H 34.9624 2.67858 -4.98265 0
M  V30 386 H 33.5194 2.74237 -5.91301 0
M  V30 387 N 36.9525 1.47285 -0.560781 0
M  V30 388 C 37.9155 2.28535 0.174488 0
M  V30 389 C 38.9155 1.37153 0.839388 0
M  V30 390 O 40.1055 1.59748 0.694702 0
M  V30 391 C 37.2375 3.16934 1.25561 0
M  V30 392 H 38.4305 2.95012 -0.539262 0
M  V30 393 H 35.9835 1.53034 -0.317865 0
M  V30 394 H 36.7185 2.55157 2.00164 0
M  V30 395 H 36.5035 3.8419 0.783604 0
M  V30 396 H 37.9935 3.78143 1.77193 0
M  V30 397 N 38.4306 0.297415 1.54768 0
M  V30 398 C 39.6786 -0.312295 1.99673 0
M  V30 399 C 39.9996 -1.54686 1.18732 0
M  V30 400 O 39.2696 -1.93854 0.282382 0
M  V30 401 H 37.8496 -0.118381 0.73756 0
M  V30 402 H 40.5116 0.407915 1.90583 0
M  V30 403 H 39.6076 -0.586813 3.06534 0
M  V30 404 N 39.9087 -1.5758 0.0250728 0
M  V30 405 C 41.1337 -1.96337 -0.668317 0
M  V30 406 C 41.5587 -0.901314 -1.651 0
M  V30 407 O 40.9167 0.138187 -1.80773 0
M  V30 408 C 40.9647 -3.34191 -1.35457 0
M  V30 409 O 40.0687 -3.30269 -2.46974 0
M  V30 410 H 39.4097 -0.640281 -0.175887 0
M  V30 411 H 41.9397 -2.0442 0.0857224 0
M  V30 412 H 41.9497 -3.70331 -1.71228 0
M  V30 413 H 40.6247 -4.11036 -0.634218 0
M  V30 414 H 39.2017 -3.05841 -2.13344 0
M  V30 415 N 41.3868 0.248026 -1.55636 0
M  V30 416 C 42.8028 0.596483 -1.48035 0
M  V30 417 C 43.0028 1.88386 -0.715039 0
M  V30 418 O 42.0588 2.51319 -0.243944 0
M  V30 419 C 43.3718 0.700258 -2.92433 0
M  V30 420 C 44.9198 0.792659 -3.02797 0
M  V30 421 C 45.3948 0.928005 -4.485 0
M  V30 422 N 46.8858 0.992903 -4.52433 0
M  V30 423 C 47.6208 1.11687 -5.62418 0
M  V30 424 N 47.1168 1.20645 -6.82214 0
M  V30 425 N 48.9098 1.14994 -5.50212 0
M  V30 426 H 41.0608 -0.597109 -2.03834 0
M  V30 427 H 43.3238 -0.205925 -0.925364 0
M  V30 428 H 43.0298 -0.175658 -3.51261 0
M  V30 429 H 42.9038 1.57255 -3.42857 0
M  V30 430 H 45.2908 1.65903 -2.4405 0
M  V30 431 H 45.3718 -0.104762 -2.55585 0
M  V30 432 H 45.0158 0.0661971 -5.07857 0
M  V30 433 H 44.9458 1.84045 -4.93391 0
M  V30 434 H 47.4368 0.935064 -3.66149 0
M  V30 435 H 47.7498 1.30008 -7.61786 0
M  V30 436 H 46.0948 1.17605 -6.84977 0
M  V30 437 H 49.2858 1.07643 -4.55555 0
M  V30 438 H 49.4588 1.24311 -6.35965 0
M  V30 439 N 42.8649 1.48995 0.513639 0
M  V30 440 C 43.7749 1.67443 1.64317 0
M  V30 441 C 44.7909 0.556947 1.64846 0
M  V30 442 O 45.9669 0.830082 1.83498 0
M  V30 443 C 43.0319 1.72515 3.00732 0
M  V30 444 C 42.0929 2.96009 3.1093 0
M  V30 445 C 41.3259 3.00829 4.40837 0
M  V30 446 O 41.5489 2.13594 5.28898 0
M  V30 447 O 40.4829 3.93168 4.55744 0
M  V30 448 H 44.3089 2.63106 1.51687 0
M  V30 449 H 41.8939 1.32588 0.688543 0
M  V30 450 H 43.7759 1.78277 3.81831 0
M  V30 451 H 42.4509 0.800278 3.13651 0
M  V30 452 H 41.3579 2.9577 2.29065 0
M  V30 453 H 42.6909 3.87934 3.02933 0
M  V30 454 N 44.343 -0.763751 1.37857 0
M  V30 455 C 45.291 -1.89864 1.34367 0
M  V30 456 C 46.285 -1.67816 0.231143 0
M  V30 457 O 47.491 -1.75508 0.399617 0
M  V30 458 H 43.866 -0.624501 0.41893 0
M  V30 459 H 45.837 -1.89925 2.30155 0
M  V30 460 C 44.586 -3.27227 1.1755 0
M  V30 461 H 43.909 -3.44773 2.02414 0
M  V30 462 H 45.349 -4.06911 1.1916 0
M  V30 463 C 43.808 -3.36692 -0.118311 0
M  V30 464 O 44.338 -3.86374 -1.09902 0
M  V30 465 N 42.544 -2.90092 -0.171717 0
M  V30 466 H 42.091 -2.49853 0.627012 0
M  V30 467 H 42.049 -2.96806 -1.03699 0
M  V30 468 N 45.8211 -1.22559 -0.990812 0
M  V30 469 C 46.7541 -0.940773 -2.07905 0
M  V30 470 C 47.7321 0.117082 -1.62178 0
M  V30 471 O 48.9161 -0.0149506 -1.88494 0
M  V30 472 C 46.0431 -0.415321 -3.36144 0
M  V30 473 C 45.0891 -1.45818 -4.00799 0
M  V30 474 S 45.9221 -3.03219 -4.41382 0
M  V30 475 C 47.0781 -2.52317 -5.72789 0
M  V30 476 H 47.3111 -1.8623 -2.31745 0
M  V30 477 H 44.8441 -1.05688 -1.12558 0
M  V30 478 H 46.8021 -0.118747 -4.10328 0
M  V30 479 H 45.4631 0.485121 -3.10331 0
M  V30 480 H 44.6561 -1.04044 -4.93144 0
M  V30 481 H 44.2581 -1.70356 -3.32949 0
M  V30 482 H 46.5501 -1.93688 -6.49224 0
M  V30 483 H 47.4931 -3.43161 -6.19392 0
M  V30 484 H 47.9011 -1.93529 -5.30289 0
M  V30 485 N 47.2992 1.18797 -1.03562 0
M  V30 486 C 48.2462 2.22253 -0.622259 0
M  V30 487 C 49.2162 1.61987 0.36736 0
M  V30 488 O 50.4012 1.88986 0.262492 0
M  V30 489 C 47.5412 3.45097 0.0138462 0
M  V30 490 C 46.6542 4.19722 -1.02263 0
M  V30 491 C 45.7892 5.30009 -0.355573 0
M  V30 492 C 44.8282 5.96399 -1.37749 0
M  V30 493 N 43.9652 6.98234 -0.735766 0
M  V30 494 H 48.8052 2.56968 -1.50903 0
M  V30 495 H 46.3422 1.26245 -0.755017 0
M  V30 496 H 48.3002 4.15279 0.399948 0
M  V30 497 H 46.9302 3.11018 0.864158 0
M  V30 498 H 45.9822 3.48418 -1.52673 0
M  V30 499 H 47.2942 4.65227 -1.79903 0
M  V30 500 H 46.4482 6.0664 0.0850095 0
M  V30 501 H 45.1872 4.85592 0.452967 0
M  V30 502 H 44.1922 5.18512 -1.82826 0
M  V30 503 H 45.4172 6.42899 -2.18764 0
M  V30 504 H 43.3632 6.55979 0.0525597 0
M  V30 505 H 43.2802 7.41965 -1.44995 0
M  V30 506 H 44.5482 7.78845 -0.31941 0
M  V30 507 N 48.7773 0.814389 1.34928 0
M  V30 508 C 49.6873 0.231978 2.3345 0
M  V30 509 C 50.7033 -0.629139 1.62228 0
M  V30 510 O 51.8793 -0.539052 1.94052 0
M  V30 511 C 48.9443 -0.603482 3.41407 0
M  V30 512 C 48.0053 0.279037 4.28392 0
M  V30 513 C 47.2383 -0.516643 5.31193 0
M  V30 514 O 47.4613 -1.75068 5.4287 0
M  V30 515 O 46.3953 0.0965652 6.01823 0
M  V30 516 H 50.2213 1.04721 2.85074 0
M  V30 517 H 47.8063 0.576343 1.37836 0
M  V30 518 H 49.6883 -1.07908 4.0735 0
M  V30 519 H 48.3633 -1.39618 2.92042 0
M  V30 520 H 47.2703 0.801948 3.65403 0
M  V30 521 H 48.6033 1.03588 4.81176 0
M  V30 522 N 50.2554 -1.46986 0.568584 0
M  V30 523 C 51.1854 -2.32946 -0.160753 0
M  V30 524 C 52.1664 -1.44487 -0.897631 0
M  V30 525 O 53.3514 -1.73327 -0.875867 0
M  V30 526 C 50.4814 -3.26494 -1.18403 0
M  V30 527 C 49.4354 -4.24282 -0.562895 0
M  V30 528 C 48.7614 -5.07236 -1.69163 0
M  V30 529 C 50.0614 -5.19989 0.490761 0
M  V30 530 H 51.7554 -2.94175 0.556916 0
M  V30 531 H 49.3014 -1.4146 0.26927 0
M  V30 532 H 51.2544 -3.85477 -1.70251 0
M  V30 533 H 49.9784 -2.63343 -1.93179 0
M  V30 534 H 48.6374 -3.66541 -0.0656164 0
M  V30 535 H 48.2854 -4.4048 -2.42871 0
M  V30 536 H 47.9854 -5.7345 -1.28174 0
M  V30 537 H 49.5094 -5.6908 -2.21314 0
M  V30 538 H 50.9234 -5.73271 0.0579047 0
M  V30 539 H 49.3204 -5.94469 0.820165 0
M  V30 540 H 50.3904 -4.64777 1.3824 0
M  V30 541 N 51.7335 -0.305618 -1.54608 0
M  V30 542 C 52.6805 0.568421 -2.23691 0
M  V30 543 C 53.6505 1.12592 -1.22116 0
M  V30 544 O 54.8355 1.16959 -1.50749 0
M  V30 545 C 51.9755 1.7322 -2.98477 0
M  V30 546 C 51.0885 1.20566 -4.14835 0
M  V30 547 C 50.2235 2.33368 -4.77193 0
M  V30 548 C 49.2625 1.7787 -5.85686 0
M  V30 549 N 48.3995 2.84263 -6.4198 0
M  V30 550 H 53.2395 -0.0272867 -2.97988 0
M  V30 551 H 50.7765 -0.0252363 -1.47078 0
M  V30 552 H 52.7345 2.41675 -3.40072 0
M  V30 553 H 51.3645 2.29947 -2.26548 0
M  V30 554 H 50.4165 0.413223 -3.78149 0
M  V30 555 H 51.7285 0.759417 -4.92985 0
M  V30 556 H 50.8825 3.09761 -5.21664 0
M  V30 557 H 49.6215 2.8132 -3.98385 0
M  V30 558 H 48.6265 0.99968 -5.40635 0
M  V30 559 H 49.8515 1.30816 -6.66381 0
M  V30 560 H 47.7975 3.31541 -5.66053 0
M  V30 561 H 47.7145 2.44149 -7.15491 0
M  V30 562 H 48.9825 3.6054 -6.91109 0
M  V30 563 N 53.2116 1.57565 -0.0334293 0
M  V30 564 C 54.1216 2.13943 0.962572 0
M  V30 565 C 55.1376 1.09276 1.35406 0
M  V30 566 O 56.3136 1.41355 1.4346 0
M  V30 567 C 53.3786 2.65887 2.22497 0
M  V30 568 C 52.4396 3.85286 1.8935 0
M  V30 569 C 51.6726 4.34743 3.09571 0
M  V30 570 O 51.8956 3.83352 4.22371 0
M  V30 571 O 50.8296 5.26538 2.91618 0
M  V30 572 H 54.6556 2.99333 0.513169 0
M  V30 573 H 52.2406 1.4822 0.18743 0
M  V30 574 H 54.1226 2.99346 2.96598 0
M  V30 575 H 52.7976 1.83578 2.6661 0
M  V30 576 H 51.7046 3.56746 1.1262 0
M  V30 577 H 53.0376 4.68771 1.5005 0
M  V30 578 N 54.6897 -0.239769 1.55765 0
M  V30 579 C 55.6527 -1.28038 1.90103 0
M  V30 580 C 56.6527 -1.40723 0.778055 0
M  V30 581 O 57.8427 -1.39301 1.04599 0
M  V30 582 C 54.9747 -2.65702 2.13577 0
M  V30 583 H 56.1677 -0.988048 2.83157 0
M  V30 584 H 53.7207 -0.479382 1.48767 0
M  V30 585 H 54.4557 -3.00063 1.23015 0
M  V30 586 H 54.2407 -2.57875 2.95369 0
M  V30 587 H 55.7307 -3.40828 2.41301 0
M  V30 588 N 56.1678 -1.49265 -0.50573 0
M  V30 589 C 57.5838 -1.35923 -0.836486 0
M  V30 590 C 57.7838 -0.388704 -1.97715 0
M  V30 591 O 56.8398 0.181336 -2.51848 0
M  V30 592 C 58.1528 -2.76531 -1.18115 0
M  V30 593 C 59.7008 -2.85197 -1.28964 0
M  V30 594 C 60.1758 -4.26561 -1.66761 0
M  V30 595 N 61.6668 -4.2935 -1.73819 0
M  V30 596 C 62.4018 -5.35693 -2.045 0
M  V30 597 N 61.8978 -6.52287 -2.33438 0
M  V30 598 N 63.6908 -5.23105 -2.05711 0
M  V30 599 H 55.8418 -2.10965 0.246519 0
M  V30 600 H 58.1048 -0.9468 0.0476887 0
M  V30 601 H 57.8108 -3.49226 -0.416398 0
M  V30 602 H 57.6848 -3.11599 -2.1257 0
M  V30 603 H 60.0718 -2.12742 -2.04511 0
M  V30 604 H 60.1528 -2.53718 -0.325704 0
M  V30 605 H 59.7968 -4.99541 -0.917656 0
M  V30 606 H 59.7268 -4.55502 -2.64246 0
M  V30 607 H 62.2178 -3.4526 -1.53635 0
M  V30 608 H 62.5308 -7.29158 -2.56024 0
M  V30 609 H 60.8758 -6.55521 -2.30905 0
M  V30 610 H 64.0668 -4.31026 -1.82577 0
M  V30 611 H 64.2398 -6.06078 -2.29289 0
M  V30 612 N 57.6459 0.756429 -1.3826 0
M  V30 613 C 59.0569 1.33359 -1.30661 0
M  V30 614 C 59.4079 1.96161 0.0388875 0
M  V30 615 O 58.5329 1.94874 0.940918 0
M  V30 616 C 59.1279 2.42477 -2.36622 0
M  V30 617 C 57.6869 2.95922 -2.3261 0
M  V30 618 C 56.8339 1.69275 -2.19639 0
M  V30 619 H 59.7849 0.55552 -1.4866 0
M  V30 620 H 59.8059 3.22345 -2.02174 0
M  V30 621 H 59.3179 1.96739 -3.34538 0
M  V30 622 H 57.4189 3.45996 -1.38267 0
M  V30 623 H 57.5319 3.50494 -3.26636 0
M  V30 624 H 55.8959 1.92793 -1.66442 0
M  V30 625 H 56.6789 1.25619 -3.19491 0
M  V30 626 N 59.124 1.23083 0.984299 0
M  V30 627 C 60.54 0.992637 1.24975 0
M  V30 628 C 60.74 -0.308618 1.99123 0
M  V30 629 O 59.796 -1.02905 2.30579 0
M  V30 630 C 61.109 2.19698 2.05312 0
M  V30 631 C 62.657 2.24147 2.18465 0
M  V30 632 C 63.132 3.44157 3.02192 0
M  V30 633 N 64.623 3.44372 3.09777 0
M  V30 634 C 65.358 4.33886 3.74874 0
M  V30 635 N 64.854 5.3363 4.41827 0
M  V30 636 N 66.647 4.21639 3.71721 0
M  V30 637 H 58.798 2.06731 0.487453 0
M  V30 638 H 61.061 0.906339 0.277944 0
M  V30 639 H 60.767 3.1411 1.58201 0
M  V30 640 H 60.641 2.20465 3.06064 0
M  V30 641 H 63.028 1.30277 2.64786 0
M  V30 642 H 63.109 2.27415 1.17115 0
M  V30 643 H 62.753 4.38332 2.56568 0
M  V30 644 H 62.683 3.3813 4.03702 0
M  V30 645 H 65.174 2.72201 2.62135 0
M  V30 646 H 65.487 5.98196 4.89266 0
M  V30 647 H 63.832 5.37534 4.40548 0
M  V30 648 H 67.023 3.42962 3.18582 0
M  V30 649 H 67.196 4.91604 4.22173 0
M  V30 650 N 60.6021 -1.18246 1.0419 0
M  V30 651 C 61.5491 -2.2192 0.634037 0
M  V30 652 C 62.5191 -1.62179 -0.358765 0
M  V30 653 O 63.7041 -1.89122 -0.252466 0
M  V30 654 C 60.8441 -3.451 0.00445535 0
M  V30 655 C 59.9571 -4.19174 1.04487 0
M  V30 656 C 59.0921 -5.29813 0.383676 0
M  V30 657 C 58.1311 -5.9566 1.4091 0
M  V30 658 N 57.2681 -6.97834 0.772784 0
M  V30 659 H 62.1081 -2.56164 1.52263 0
M  V30 660 H 59.6451 -1.25843 0.761701 0
M  V30 661 H 61.6031 -4.15485 -0.377919 0
M  V30 662 H 60.2331 -3.11472 -0.847652 0
M  V30 663 H 59.2851 -3.47604 1.54518 0
M  V30 664 H 60.5971 -4.64267 1.82368 0
M  V30 665 H 59.7511 -6.06677 -0.0528366 0
M  V30 666 H 58.4901 -4.85825 -0.427208 0
M  V30 667 H 57.4951 -5.17535 1.85574 0
M  V30 668 H 58.7201 -6.4173 2.22171 0
M  V30 669 H 56.6661 -6.55998 -0.0177708 0
M  V30 670 H 56.5831 -7.41186 1.48928 0
M  V30 671 H 57.8511 -7.78665 0.36071 0
M  V30 672 N 62.0802 -0.821533 -1.34494 0
M  V30 673 C 63.3572 -0.33159 -1.92769 0
M  V30 674 C 63.7372 1.18088 -1.74981 0
M  V30 675 O 63.0852 1.98733 -1.12772 0
M  V30 676 C 63.2952 -0.759398 -3.40638 0
M  V30 677 C 64.6432 -0.757433 -4.1779 0
M  V30 678 O 65.6672 -0.70189 -3.49216 0
M  V30 679 O 64.5262 -0.829361 -5.4017 0
M  V30 680 H 61.6202 -0.0902502 -0.822061 0
M  V30 681 H 64.1662 -0.906231 -1.43477 0
M  V30 682 H 62.9382 -1.8012 -3.47379 0
M  V30 683 H 62.5612 -0.160378 -3.97276 0
M  V30 684 N 63.5583 1.46682 -0.576371 0
M  V30 685 C 64.5063 2.31953 0.17335 0
M  V30 686 C 65.5003 1.44098 0.89062 0
M  V30 687 O 66.7063 1.60759 0.809728 0
M  V30 688 H 63.0813 0.748273 0.0747727 0
M  V30 689 H 65.0523 2.93007 -0.564738 0
M  V30 690 C 63.8013 3.27142 1.17786 0
M  V30 691 H 63.1243 3.94719 0.635361 0
M  V30 692 H 64.5643 3.896 1.67296 0
M  V30 693 C 63.0233 2.52036 2.23561 0
M  V30 694 O 63.5533 2.27877 3.3081 0
M  V30 695 N 61.7593 2.12709 1.97998 0
M  V30 696 H 61.3063 2.32557 1.10792 0
M  V30 697 H 61.2643 1.62776 2.68982 0
M  V30 698 N 65.0364 0.313813 1.54444 0
M  V30 699 C 66.4524 -0.0391619 1.59552 0
M  V30 700 C 66.6524 -1.51322 1.33056 0
M  V30 701 O 65.7084 -2.26782 1.11022 0
M  V30 702 C 67.0214 0.370302 2.98411 0
M  V30 703 C 68.5694 0.320139 3.11358 0
M  V30 704 C 69.0444 0.704617 4.52547 0
M  V30 705 N 70.5354 0.657645 4.58508 0
M  V30 706 C 71.2704 0.927453 5.6585 0
M  V30 707 N 70.7664 1.26389 6.81174 0
M  V30 708 N 72.5594 0.853662 5.5558 0
M  V30 709 H 64.7104 1.27433 1.69925 0
M  V30 710 H 66.9734 0.517511 0.794284 0
M  V30 711 H 66.6794 1.39694 3.22767 0
M  V30 712 H 66.5534 -0.269619 3.76235 0
M  V30 713 H 68.9404 -0.697275 2.86744 0
M  V30 714 H 69.0214 0.99486 2.35661 0
M  V30 715 H 68.6654 1.7199 4.77893 0
M  V30 716 H 68.5954 0.00768843 5.26599 0
M  V30 717 H 71.0864 0.409067 3.75679 0
M  V30 718 H 71.3994 1.4554 7.58972 0
M  V30 719 H 69.7444 1.30206 6.82694 0
M  V30 720 H 72.9354 0.590383 4.64362 0
M  V30 721 H 73.1084 1.0673 6.3915 0
M  V30 722 N 66.5145 -1.57545 0.0417849 0
M  V30 723 C 67.9305 -1.56467 -0.314704 0
M  V30 724 C 68.1305 -1.04859 -1.72066 0
M  V30 725 O 67.1865 -0.700983 -2.42575 0
M  V30 726 C 68.4995 -3.00317 -0.15174 0
M  V30 727 C 70.0475 -3.12201 -0.223553 0
M  V30 728 C 70.5225 -4.57913 -0.0892295 0
M  V30 729 N 72.0135 -4.6297 -0.145808 0
M  V30 730 C 72.7485 -5.73362 -0.0658459 0
M  V30 731 N 72.2445 -6.92769 0.0659282 0
M  V30 732 N 74.0375 -5.6197 -0.12075 0
M  V30 733 H 66.1885 -1.89416 0.961014 0
M  V30 734 H 68.4515 -0.871862 0.372237 0
M  V30 735 H 68.1575 -3.42073 0.817254 0
M  V30 736 H 68.0315 -3.65892 -0.916692 0
M  V30 737 H 70.4185 -2.70349 -1.18301 0
M  V30 738 H 70.4995 -2.49323 0.571994 0
M  V30 739 H 70.1435 -5.00448 0.866867 0
M  V30 740 H 70.0735 -5.18786 -0.903802 0
M  V30 741 H 72.5645 -3.7709 -0.247286 0
M  V30 742 H 72.8775 -7.72707 0.119905 0
M  V30 743 H 71.2225 -6.94927 0.100885 0
M  V30 744 H 74.4135 -4.67572 -0.222187 0
M  V30 745 H 74.5865 -6.47977 -0.0549735 0
M  V30 746 N 67.9926 0.231505 -1.5589 0
M  V30 747 C 69.4036 0.799327 -1.68724 0
M  V30 748 C 69.7546 1.85398 -0.642022 0
M  V30 749 O 68.8796 2.1539 0.208784 0
M  V30 750 C 69.4746 1.45664 -3.05888 0
M  V30 751 C 68.0336 1.97197 -3.20609 0
M  V30 752 C 67.1806 0.828552 -2.64632 0
M  V30 753 H 70.1316 0.00702616 -1.58698 0
M  V30 754 H 70.1526 2.32517 -3.01191 0
M  V30 755 H 69.6646 0.688808 -3.81939 0
M  V30 756 H 67.7656 2.76813 -2.4941 0
M  V30 757 H 67.8786 2.15878 -4.27707 0
M  V30 758 H 66.2426 1.23321 -2.22854 0
M  V30 759 H 67.0256 0.0735544 -3.43221 0
M  V30 760 N 69.4707 1.49531 0.497807 0
M  V30 761 C 70.7477 1.49682 1.25915 0
M  V30 762 C 71.1277 0.226339 2.09883 0
M  V30 763 O 70.4757 -0.791189 2.14365 0
M  V30 764 C 70.6857 2.77755 2.11313 0
M  V30 765 C 72.0337 3.27371 2.70395 0
M  V30 766 O 73.0577 2.78894 2.21578 0
M  V30 767 O 71.9167 4.11808 3.59272 0
M  V30 768 H 69.0107 0.599228 0.56996 0
M  V30 769 H 71.5567 1.61798 0.511816 0
M  V30 770 H 70.3287 3.61713 1.49264 0
M  V30 771 H 69.9517 2.68515 2.93233 0
M  V30 772 N 70.9488 -0.749086 1.3866 0
M  V30 773 C 71.8788 -1.8764 1.38973 0
M  V30 774 C 72.8598 -1.68178 0.255004 0
M  V30 775 O 74.0448 -1.88704 0.458754 0
M  V30 776 C 71.1748 -3.25222 1.21851 0
M  V30 777 C 70.1288 -3.59295 2.32575 0
M  V30 778 C 69.4548 -4.95663 2.00555 0
M  V30 779 C 70.7548 -3.63709 3.7485 0
M  V30 780 H 72.4488 -1.87635 2.3331 0
M  V30 781 H 69.9948 -0.901329 1.12303 0
M  V30 782 H 71.9478 -4.03746 1.20695 0
M  V30 783 H 70.6718 -3.25719 0.239775 0
M  V30 784 H 69.3308 -2.83093 2.32925 0
M  V30 785 H 68.9788 -4.92724 1.01154 0
M  V30 786 H 68.6788 -5.19429 2.74714 0
M  V30 787 H 70.2028 -5.7656 2.01024 0
M  V30 788 H 71.6168 -4.32338 3.76506 0
M  V30 789 H 70.0138 -3.98986 4.48252 0
M  V30 790 H 71.0838 -2.63834 4.06841 0
M  V30 791 N 72.4269 -1.23603 -0.977757 0
M  V30 792 C 73.3369 -1.03632 -2.1047 0
M  V30 793 C 74.3529 0.0199435 -1.73989 0
M  V30 794 O 75.5289 -0.176076 -2.00629 0
M  V30 795 C 72.5939 -0.63276 -3.40877 0
M  V30 796 C 71.6549 -1.76437 -3.91367 0
M  V30 797 C 70.8879 -1.37997 -5.15551 0
M  V30 798 O 71.1109 -0.265357 -5.69782 0
M  V30 799 O 70.0449 -2.20201 -5.60174 0
M  V30 800 H 73.8709 -1.98086 -2.30208 0
M  V30 801 H 71.4559 -1.02332 -1.08851 0
M  V30 802 H 73.3379 -0.418761 -4.19314 0
M  V30 803 H 72.0129 0.282754 -3.22463 0
M  V30 804 H 70.9199 -2.03304 -3.14036 0
M  V30 805 H 72.2529 -2.6583 -4.14241 0
M  V30 806 N 73.905 1.17692 -1.04816 0
M  V30 807 C 75.154 1.87192 -0.751132 0
M  V30 808 C 75.467 1.8169 0.724441 0
M  V30 809 O 76.673 2.46625 1.13527 0
M  V30 810 C 75.129 3.35857 -1.29338 0
M  V30 811 C 74.737 3.4987 -2.79812 0
M  V30 812 C 76.481 4.10709 -1.07322 0
M  V30 813 C 74.388 4.92536 -3.27356 0
M  V30 814 H 73.318 0.701162 -0.277288 0
M  V30 815 H 75.969 1.32932 -1.26496 0
M  V30 816 H 74.351 3.89631 -0.707376 0
M  V30 817 H 75.525 3.06332 -3.44235 0
M  V30 818 H 73.84 2.88433 -3.00325 0
M  V30 819 H 76.437 5.15952 -1.4035 0
M  V30 820 H 76.78 4.16299 -0.0108001 0
M  V30 821 H 77.313 3.6313 -1.62423 0
M  V30 822 H 74.052 4.92119 -4.33012 0
M  V30 823 H 73.572 5.3676 -2.67673 0
M  V30 824 H 75.251 5.61288 -3.21815 0
M  V30 825 N 75.3831 0.828654 1.34056 0
M  V30 826 C 76.6131 0.431993 2.02033 0
M  V30 827 C 77.0211 -0.96844 1.62536 0
M  V30 828 O 76.3641 -1.6391 0.829408 0
M  V30 829 C 76.4261 0.461224 3.56529 0
M  V30 830 C 76.0901 1.81599 4.1937 0
M  V30 831 C 77.0871 2.7777 4.39477 0
M  V30 832 C 74.7721 2.10604 4.56017 0
M  V30 833 C 76.7661 4.01115 4.95364 0
M  V30 834 C 74.4531 3.34207 5.11614 0
M  V30 835 C 75.4511 4.2928 5.31232 0
M  V30 836 O 75.1391 5.50699 5.8565 0
M  V30 837 H 74.8711 0.170943 0.654029 0
M  V30 838 H 77.4251 1.11988 1.72185 0
M  V30 839 H 75.6551 -0.283388 3.8566 0
M  V30 840 H 77.3441 0.0838149 4.05813 0
M  V30 841 H 78.1101 2.56659 4.11523 0
M  V30 842 H 73.9891 1.37402 4.40047 0
M  V30 843 H 77.5331 4.75333 5.10592 0
M  V30 844 H 73.4301 3.55179 5.38997 0
M  V30 845 H 74.1981 5.52298 6.04077 0
M  V30 846 N 76.8612 -1.46375 0.584142 0
M  V30 847 C 77.8082 -2.30323 -0.148286 0
M  V30 848 C 78.7782 -1.40703 -0.882713 0
M  V30 849 O 79.9632 -1.69651 -0.873099 0
M  V30 850 C 77.1032 -3.25196 -1.15507 0
M  V30 851 C 76.2162 -4.29915 -0.423943 0
M  V30 852 C 75.3512 -5.11914 -1.41838 0
M  V30 853 C 74.3902 -6.08381 -0.673736 0
M  V30 854 N 73.5272 -6.83242 -1.6163 0
M  V30 855 H 78.3672 -2.92427 0.573644 0
M  V30 856 H 75.9042 -1.44118 0.294703 0
M  V30 857 H 77.8622 -3.78646 -1.75166 0
M  V30 858 H 76.4922 -2.64898 -1.8447 0
M  V30 859 H 75.5442 -3.7931 0.287714 0
M  V30 860 H 76.8562 -4.98549 0.158128 0
M  V30 861 H 76.0102 -5.69648 -2.08773 0
M  V30 862 H 74.7492 -4.43243 -2.03438 0
M  V30 863 H 73.7542 -5.49799 0.00938483 0
M  V30 864 H 74.9792 -6.79071 -0.0631082 0
M  V30 865 H 72.9252 -6.1728 -2.22038 0
M  V30 866 H 72.8422 -7.48144 -1.08707 0
M  V30 867 H 74.1102 -7.45534 -2.27596 0
M  V30 868 N 78.3393 -0.321999 -1.54275 0
M  V30 869 C 79.7503 0.166384 -1.85957 0
M  V30 870 C 80.1013 1.51747 -1.24367 0
M  V30 871 O 79.2263 2.09317 -0.549124 0
M  V30 872 C 79.8213 0.308681 -3.37391 0
M  V30 873 C 78.3803 0.741286 -3.69028 0
M  V30 874 C 77.5273 -0.137937 -2.76957 0
M  V30 875 H 80.4783 -0.542335 -1.49146 0
M  V30 876 H 80.4993 1.13984 -3.63026 0
M  V30 877 H 80.0113 -0.674809 -3.82188 0
M  V30 878 H 78.1123 1.73458 -3.29762 0
M  V30 879 H 78.2253 0.546118 -4.75977 0
M  V30 880 H 76.5893 0.386251 -2.51754 0
M  V30 881 H 77.3723 -1.11816 -3.2458 0
M  V30 882 N 79.8174 1.5752 -0.0501392 0
M  V30 883 C 81.0654 1.9227 0.622642 0
M  V30 884 C 81.3864 0.929083 1.71444 0
M  V30 885 O 80.6564 -0.0262186 1.95882 0
M  V30 886 H 79.2364 0.709739 0.232981 0
M  V30 887 H 81.8984 1.94628 -0.102898 0
M  V30 888 H 80.9944 2.93479 1.06191 0
M  V30 889 N 81.2955 -0.223234 1.56011 0
M  V30 890 C 82.2255 -1.27988 1.95298 0
M  V30 891 C 83.2065 -1.48976 0.820979 0
M  V30 892 O 84.3915 -1.61188 1.08315 0
M  V30 893 C 81.5215 -2.63 2.26822 0
M  V30 894 C 80.4755 -2.56671 3.42497 0
M  V30 895 C 79.8015 -3.95697 3.59622 0
M  V30 896 C 81.1015 -2.11601 4.77517 0
M  V30 897 H 82.7955 -0.953525 2.8381 0
M  V30 898 H 80.3415 -0.457244 1.36548 0
M  V30 899 H 82.2945 -3.37077 2.52898 0
M  V30 900 H 81.0185 -2.9732 1.35161 0
M  V30 901 H 79.6775 -1.85051 3.16467 0
M  V30 902 H 79.3255 -4.27322 2.6534 0
M  V30 903 H 79.0255 -3.92345 4.37424 0
M  V30 904 H 80.5495 -4.71438 3.88044 0
M  V30 905 H 81.9635 -2.7542 5.02809 0
M  V30 906 H 80.3605 -2.19311 5.5859 0
M  V30 907 H 81.4305 -1.06824 4.72987 0
M  V30 908 N 82.7736 -1.49793 -0.48987 0
M  V30 909 C 83.9986 -1.63836 -1.27172 0
M  V30 910 C 84.4236 -0.31402 -1.8546 0
M  V30 911 O 83.7816 0.719803 -1.66399 0
M  V30 912 C 83.8296 -2.71797 -2.36978 0
M  V30 913 O 82.9336 -2.31744 -3.41128 0
M  V30 914 H 82.2746 -0.547997 -0.37496 0
M  V30 915 H 84.8046 -1.96053 -0.585191 0
M  V30 916 H 84.8146 -2.94305 -2.82575 0
M  V30 917 H 83.4896 -3.67923 -1.93921 0
M  V30 918 H 82.0666 -2.1961 -3.01373 0
M  V30 919 N 84.2517 0.741722 -1.39055 0
M  V30 920 C 85.6677 1.04638 -1.20512 0
M  V30 921 C 85.8677 2.01405 -0.0620218 0
M  V30 922 O 84.9237 2.45547 0.588457 0
M  V30 923 C 86.2367 1.6151 -2.53643 0
M  V30 924 C 87.7847 1.73623 -2.6043 0
M  V30 925 C 88.2597 2.33906 -3.93767 0
M  V30 926 N 89.7507 2.41323 -3.9537 0
M  V30 927 C 90.4857 2.88888 -4.95309 0
M  V30 928 N 89.9817 3.36401 -6.05645 0
M  V30 929 N 91.7747 2.88037 -4.82692 0
M  V30 930 H 83.9257 0.0998155 -2.12165 0
M  V30 931 H 86.1887 0.106907 -0.941953 0
M  V30 932 H 85.8947 0.978739 -3.37807 0
M  V30 933 H 85.7687 2.60411 -2.72885 0
M  V30 934 H 88.1557 2.36384 -1.76655 0
M  V30 935 H 88.2367 0.733945 -2.45045 0
M  V30 936 H 87.8807 1.71776 -4.7797 0
M  V30 937 H 87.8107 3.34799 -4.06469 0
M  V30 938 H 90.3017 2.07734 -3.15682 0
M  V30 939 H 90.6147 3.71186 -6.77821 0
M  V30 940 H 88.9597 3.34427 -6.09248 0
M  V30 941 H 92.1507 2.50237 -3.95599 0
M  V30 942 H 92.3237 3.24792 -5.60726 0
M  V30 943 N 85.7298 1.2412 0.971189 0
M  V30 944 C 86.6598 1.05508 2.08304 0
M  V30 945 C 87.6408 -0.0308864 1.70072 0
M  V30 946 O 88.8258 0.135521 1.93727 0
M  V30 947 C 85.9558 0.655365 3.4106 0
M  V30 948 C 84.9098 1.68971 3.93234 0
M  V30 949 C 84.2358 1.14516 5.22293 0
M  V30 950 C 85.5358 3.08487 4.21465 0
M  V30 951 H 87.2298 1.98507 2.24132 0
M  V30 952 H 84.7758 0.955821 1.07704 0
M  V30 953 H 86.7288 0.51217 4.18276 0
M  V30 954 H 85.4528 -0.31032 3.25122 0
M  V30 955 H 84.1118 1.82106 3.18171 0
M  V30 956 H 83.7598 0.170189 5.02712 0
M  V30 957 H 83.4598 1.83635 5.58168 0
M  V30 958 H 84.9838 1.01401 6.02121 0
M  V30 959 H 86.3978 2.98601 4.89398 0
M  V30 960 H 84.7948 3.74926 4.68562 0
M  V30 961 H 85.8648 3.56787 3.28376 0
M  V30 962 N 87.2079 -1.17134 1.05439 0
M  V30 963 C 88.6239 -1.39454 0.776201 0
M  V30 964 C 88.8239 -1.91454 -0.628307 0
M  V30 965 O 87.8799 -2.10777 -1.39031 0
M  V30 966 C 89.1929 -2.38305 1.83388 0
M  V30 967 C 90.7409 -2.52006 1.85639 0
M  V30 968 C 91.2159 -3.54133 2.90437 0
M  V30 969 N 92.7069 -3.61653 2.89415 0
M  V30 970 C 93.4419 -4.4044 3.67152 0
M  V30 971 N 92.9379 -5.22721 4.54681 0
M  V30 972 N 94.7309 -4.35337 3.55581 0
M  V30 973 H 86.8819 -0.817134 1.96053 0
M  V30 974 H 89.1449 -0.421626 0.849079 0
M  V30 975 H 88.8509 -2.07173 2.84204 0
M  V30 976 H 88.7249 -3.37841 1.67761 0
M  V30 977 H 91.1119 -2.82447 0.85486 0
M  V30 978 H 91.1929 -1.52537 2.05344 0
M  V30 979 H 90.8369 -3.24431 3.90777 0
M  V30 980 H 90.7669 -4.53313 2.67983 0
M  V30 981 H 93.2579 -3.02909 2.25952 0
M  V30 982 H 93.5709 -5.80027 5.10674 0
M  V30 983 H 91.9159 -5.22093 4.58741 0
M  V30 984 H 95.1069 -3.70112 2.86592 0
M  V30 985 H 95.2799 -4.96494 4.1641 0
M  V30 986 N 88.686 -0.835752 -1.33615 0
M  V30 987 C 89.634 -0.255238 -2.31195 0
M  V30 988 C 90.628 0.61107 -1.57995 0
M  V30 989 O 91.834 0.500979 -1.72888 0
M  V30 990 H 88.209 -0.0638085 -0.749288 0
M  V30 991 H 90.18 -1.09283 -2.77669 0
M  V30 992 C 88.929 0.55754 -3.43201 0
M  V30 993 H 88.252 -0.0997553 -3.99676 0
M  V30 994 H 89.692 0.929622 -4.13683 0
M  V30 995 C 88.151 1.73515 -2.88781 0
M  V30 996 O 88.681 2.83376 -2.84712 0
M  V30 997 N 86.887 1.55603 -2.4543 0
M  V30 998 H 86.434 0.662354 -2.48939 0
M  V30 999 H 86.392 2.34545 -2.09371 0
M  V30 1000 N 90.1641 1.46063 -0.591896 0
M  V30 1001 C 91.1111 2.30399 0.136069 0
M  V30 1002 C 92.0811 1.41169 0.875238 0
M  V30 1003 O 93.2661 1.70112 0.86409 0
M  V30 1004 C 90.4061 3.25804 1.13781 0
M  V30 1005 C 89.5191 4.30134 0.401137 0
M  V30 1006 C 88.6541 5.12659 1.39121 0
M  V30 1007 C 87.6931 6.0873 0.641462 0
M  V30 1008 N 86.8301 6.8409 1.58004 0
M  V30 1009 H 91.6701 2.92118 -0.589144 0
M  V30 1010 H 89.2071 1.43959 -0.302342 0
M  V30 1011 H 91.1651 3.79569 1.73156 0
M  V30 1012 H 89.7951 2.65872 1.83062 0
M  V30 1013 H 88.8471 3.79152 -0.307826 0
M  V30 1014 H 90.1591 4.98458 -0.184565 0
M  V30 1015 H 89.3131 5.70747 2.05749 0
M  V30 1016 H 88.0521 4.44316 2.01084 0
M  V30 1017 H 87.0571 5.49786 -0.0385419 0
M  V30 1018 H 88.2821 6.79095 0.0270945 0
M  V30 1019 H 86.2281 6.18449 2.18761 0
M  V30 1020 H 86.1451 7.48709 1.04738 0
M  V30 1021 H 87.4131 7.4673 2.23639 0
M  V30 1022 N 91.6422 0.330177 1.54103 0
M  V30 1023 C 93.0532 -0.15652 1.86043 0
M  V30 1024 C 93.4042 -1.51086 1.2517 0
M  V30 1025 O 92.5292 -2.09023 0.560217 0
M  V30 1026 C 93.1242 -0.290784 3.3755 0
M  V30 1027 C 91.6832 -0.721705 3.69416 0
M  V30 1028 C 90.8302 0.152622 2.7688 0
M  V30 1029 H 93.7812 0.550237 1.48856 0
M  V30 1030 H 93.8022 -1.12058 3.63625 0
M  V30 1031 H 93.3142 0.695068 3.81825 0
M  V30 1032 H 91.4152 -1.71706 3.30678 0
M  V30 1033 H 91.5282 -0.520869 4.7626 0
M  V30 1034 H 89.8922 -0.372894 2.51956 0
M  V30 1035 H 90.6752 1.13536 3.23982 0
M  V30 1036 N 93.1203 -1.57491 0.0584922 0
M  V30 1037 C 94.0673 -2.11958 -0.913376 0
M  V30 1038 C 95.0373 -1.02875 -1.30407 0
M  V30 1039 O 96.2223 -1.30464 -1.39226 0
M  V30 1040 C 93.3623 -2.67497 -2.18035 0
M  V30 1041 C 92.4753 -3.90691 -1.84349 0
M  V30 1042 C 91.6103 -4.3452 -3.05559 0
M  V30 1043 C 90.6493 -5.50395 -2.67827 0
M  V30 1044 N 89.7863 -5.89244 -3.81754 0
M  V30 1045 H 94.6263 -2.94704 -0.442017 0
M  V30 1046 H 92.1633 -1.45643 -0.206545 0
M  V30 1047 H 94.1213 -2.978 -2.92183 0
M  V30 1048 H 92.7513 -1.87537 -2.62735 0
M  V30 1049 H 91.8033 -3.66934 -1.00319 0
M  V30 1050 H 93.1153 -4.7489 -1.5258 0
M  V30 1051 H 92.2693 -4.66414 -3.87998 0
M  V30 1052 H 91.0083 -3.49147 -3.40511 0
M  V30 1053 H 90.0133 -5.18165 -1.83806 0
M  V30 1054 H 91.2383 -6.3749 -2.34059 0
M  V30 1055 H 89.1843 -5.06823 -4.16493 0
M  V30 1056 H 89.1013 -6.68151 -3.53708 0
M  V30 1057 H 90.3693 -6.25756 -4.64811 0
M  V30 1058 N 94.5984 0.214957 -1.56127 0
M  V30 1059 C 95.8474 0.936451 -1.78643 0
M  V30 1060 C 96.1604 1.85237 -0.628229 0
M  V30 1061 O 97.3664 2.613 -0.737186 0
M  V30 1062 C 95.8224 1.7154 -3.16389 0
M  V30 1063 C 95.4304 0.845299 -4.39953 0
M  V30 1064 C 97.1744 2.42772 -3.48227 0
M  V30 1065 C 95.0814 1.62198 -5.68723 0
M  V30 1066 H 94.0114 0.353401 -0.666051 0
M  V30 1067 H 96.6624 0.190169 -1.82512 0
M  V30 1068 H 95.0444 2.50484 -3.06715 0
M  V30 1069 H 96.2184 0.0959353 -4.607 0
M  V30 1070 H 94.5334 0.244789 -4.1568 0
M  V30 1071 H 97.1304 3.01394 -4.41663 0
M  V30 1072 H 97.4734 3.15984 -2.71035 0
M  V30 1073 H 98.0064 1.70813 -3.5926 0
M  V30 1074 H 94.7454 0.933011 -6.48826 0
M  V30 1075 H 94.2654 2.34579 -5.52026 0
M  V30 1076 H 95.9444 2.18095 -6.09133 0
M  V30 1077 N 96.0765 1.50051 0.48192 0
M  V30 1078 C 97.0235 1.68122 1.58125 0
M  V30 1079 C 97.9935 0.522545 1.57666 0
M  V30 1080 O 99.1785 0.751844 1.75362 0
M  V30 1081 C 96.3185 1.77142 2.96167 0
M  V30 1082 C 95.4315 3.0444 3.06497 0
M  V30 1083 C 94.5665 3.04321 4.35387 0
M  V30 1084 C 93.6055 4.26118 4.3942 0
M  V30 1085 N 92.7425 4.238 5.59766 0
M  V30 1086 H 97.5825 2.6198 1.42022 0
M  V30 1087 H 95.1195 1.29877 0.690687 0
M  V30 1088 H 97.0775 1.80352 3.76203 0
M  V30 1089 H 95.7075 0.867329 3.1093 0
M  V30 1090 H 94.7595 3.10752 2.19402 0
M  V30 1091 H 96.0715 3.94426 3.05336 0
M  V30 1092 H 95.2255 3.062 5.23762 0
M  V30 1093 H 93.9645 2.12147 4.39141 0
M  V30 1094 H 92.9695 4.24463 3.49444 0
M  V30 1095 H 94.1945 5.19507 4.37366 0
M  V30 1096 H 92.1405 3.34474 5.64326 0
M  V30 1097 H 92.0575 5.07542 5.60301 0
M  V30 1098 H 93.3255 4.2981 6.50295 0
M  V30 1099 N 97.5546 -0.734337 1.39446 0
M  V30 1100 C 98.4646 -1.87879 1.40495 0
M  V30 1101 C 99.4806 -1.714 0.299672 0
M  V30 1102 O 100.657 -1.93991 0.541249 0
M  V30 1103 C 97.7216 -3.23477 1.24754 0
M  V30 1104 C 96.7826 -3.52344 2.45259 0
M  V30 1105 C 96.0156 -4.81473 2.30259 0
M  V30 1106 O 96.2386 -5.55237 1.30643 0
M  V30 1107 O 95.1726 -5.10254 3.19256 0
M  V30 1108 H 98.9986 -1.89949 2.36966 0
M  V30 1109 H 96.5836 -0.882243 1.20569 0
M  V30 1110 H 98.4656 -4.04509 1.18111 0
M  V30 1111 H 97.1406 -3.22176 0.313781 0
M  V30 1112 H 96.0476 -2.71396 2.57478 0
M  V30 1113 H 97.3806 -3.58426 3.37331 0
M  V30 1114 N 99.0327 -1.24633 -0.964593 0
M  V30 1115 C 100.444 -1.08045 -1.5226 0
M  V30 1116 C 100.795 0.347116 -1.93105 0
M  V30 1117 O 99.9197 1.23588 -1.77637 0
M  V30 1118 C 100.515 -1.95514 -2.76695 0
M  V30 1119 C 99.0737 -1.8314 -3.28841 0
M  V30 1120 C 98.2207 -1.90262 -2.01732 0
M  V30 1121 H 101.172 -1.38064 -0.782553 0
M  V30 1122 H 101.193 -1.48925 -3.50145 0
M  V30 1123 H 100.705 -2.99407 -2.46936 0
M  V30 1124 H 98.8057 -0.82092 -3.63444 0
M  V30 1125 H 98.9187 -2.67406 -3.97531 0
M  V30 1126 H 97.2827 -1.34027 -2.16584 0
M  V30 1127 H 98.0657 -2.9574 -1.74334 0
M  V30 1128 N 100.511 1.16574 -1.06058 0
M  V30 1129 C 101.922 1.68662 -0.800632 0
M  V30 1130 C 102.273 1.84184 0.67608 0
M  V30 1131 O 101.398 1.53568 1.52466 0
M  V30 1132 C 101.993 3.06356 -1.44676 0
M  V30 1133 C 100.552 3.55575 -1.23465 0
M  V30 1134 C 99.6988 2.31616 -1.52477 0
M  V30 1135 H 102.65 1.00969 -1.22438 0
M  V30 1136 H 102.671 3.70636 -0.860788 0
M  V30 1137 H 102.183 2.95027 -2.52152 0
M  V30 1138 H 100.284 3.72167 -0.179527 0
M  V30 1139 H 100.397 4.37812 -1.94571 0
M  V30 1140 H 98.7608 2.36512 -0.945209 0
M  V30 1141 H 99.5438 2.22887 -2.61106 0
M  V30 1142 N 101.989 0.842826 1.3317 0
M  V30 1143 C 103.237 0.439577 1.97262 0
M  V30 1144 C 103.558 -1.00548 1.67078 0
M  V30 1145 O 102.828 -1.70098 0.971779 0
M  V30 1146 H 101.408 0.159558 0.72976 0
M  V30 1147 H 104.07 1.07665 1.62463 0
M  V30 1148 H 103.166 0.574886 3.0676 0
M  V30 1149 N 103.467 -1.45747 0.599634 0
M  V30 1150 C 104.692 -2.07178 0.0960198 0
M  V30 1151 C 105.117 -1.44268 -1.207 0
M  V30 1152 O 104.475 -0.532503 -1.73303 0
M  V30 1153 C 104.523 -3.60579 -0.0385348 0
M  V30 1154 O 103.627 -3.97713 -1.0908 0
M  V30 1155 H 102.968 -0.660251 0.0704593 0
M  V30 1156 H 105.498 -1.87124 0.827385 0
M  V30 1157 H 105.508 -4.07298 -0.239304 0
M  V30 1158 H 104.183 -4.05756 0.912947 0
M  V30 1159 H 102.76 -3.62678 -0.867135 0
M  V30 1160 N 104.945 -0.338344 -1.53925 0
M  V30 1161 C 105.855 0.529421 -2.28548 0
M  V30 1162 C 106.871 1.11645 -1.3346 0
M  V30 1163 O 108.047 1.13325 -1.66492 0
M  V30 1164 C 105.112 1.66713 -3.03987 0
M  V30 1165 C 104.173 1.11041 -4.14691 0
M  V30 1166 C 103.406 2.19389 -4.86522 0
M  V30 1167 O 103.629 3.40013 -4.57982 0
M  V30 1168 O 102.563 1.83976 -5.73094 0
M  V30 1169 H 106.389 -0.0770399 -3.03602 0
M  V30 1170 H 103.974 -0.103555 -1.49041 0
M  V30 1171 H 105.856 2.32918 -3.5118 0
M  V30 1172 H 104.531 2.25949 -2.31794 0
M  V30 1173 H 103.438 0.413024 -3.71813 0
M  V30 1174 H 104.771 0.562975 -4.8897 0
M  V30 1175 N 106.423 1.57458 -0.0668435 0
M  V30 1176 C 107.333 2.15937 0.916975 0
M  V30 1177 C 108.349 1.12123 1.33058 0
M  V30 1178 O 109.525 1.44366 1.40429 0
M  V30 1179 C 106.59 2.70547 2.16807 0
M  V30 1180 C 105.651 3.89215 1.81135 0
M  V30 1181 C 104.884 4.41211 3.0028 0
M  V30 1182 O 105.107 3.92225 4.14144 0
M  V30 1183 O 104.041 5.32605 2.80384 0
M  V30 1184 H 107.867 3.00354 0.449561 0
M  V30 1185 H 105.452 1.48584 0.155949 0
M  V30 1186 H 107.334 3.0557 2.90181 0
M  V30 1187 H 106.009 1.89192 2.62656 0
M  V30 1188 H 104.916 3.59054 1.05028 0
M  V30 1189 H 106.249 4.71848 1.40073 0
M  V30 1190 N 107.901 -0.206675 1.56239 0
M  V30 1191 C 109.148 -0.928842 1.79941 0
M  V30 1192 C 109.476 -1.83734 0.638131 0
M  V30 1193 O 108.731 -1.92039 -0.376746 0
M  V30 1194 C 109.03 -1.78675 3.09532 0
M  V30 1195 C 108.696 -1.03022 4.38973 0
M  V30 1196 C 107.358 -0.821302 4.74139 0
M  V30 1197 C 109.71 -0.497081 5.18824 0
M  V30 1198 C 107.038 -0.0675719 5.86661 0
M  V30 1199 C 109.39 0.24338 6.32132 0
M  V30 1200 C 108.054 0.463422 6.65889 0
M  V30 1201 H 107.324 -0.339887 0.658451 0
M  V30 1202 H 109.971 -0.195977 1.90495 0
M  V30 1203 H 108.276 -2.58794 2.94165 0
M  V30 1204 H 109.973 -2.34792 3.25075 0
M  V30 1205 H 106.563 -1.20306 4.11369 0
M  V30 1206 H 110.747 -0.645921 4.92079 0
M  V30 1207 H 106.003 0.112995 6.11296 0
M  V30 1208 H 110.177 0.66393 6.93228 0
M  V30 1209 H 107.804 1.04938 7.52922 0
M  V30 1210 N 109.379 -1.50304 -0.473955 0
M  V30 1211 C 110.326 -1.68959 -1.57231 0
M  V30 1212 C 111.296 -0.530899 -1.57387 0
M  V30 1213 O 112.481 -0.761133 -1.74961 0
M  V30 1214 C 109.621 -1.7871 -2.95223 0
M  V30 1215 C 108.734 -3.06061 -3.04878 0
M  V30 1216 C 107.869 -3.06626 -4.33767 0
M  V30 1217 C 106.908 -4.28443 -4.37154 0
M  V30 1218 N 106.045 -4.26763 -5.5751 0
M  V30 1219 H 110.885 -2.6273 -1.40631 0
M  V30 1220 H 108.422 -1.30241 -0.683789 0
M  V30 1221 H 110.38 -1.82344 -3.75242 0
M  V30 1222 H 109.01 -0.883806 -3.10465 0
M  V30 1223 H 108.062 -3.11911 -2.17751 0
M  V30 1224 H 109.374 -3.96039 -3.0324 0
M  V30 1225 H 108.528 -3.08973 -5.22131 0
M  V30 1226 H 107.267 -2.14473 -4.3801 0
M  V30 1227 H 106.272 -4.2631 -3.47188 0
M  V30 1228 H 107.497 -5.2182 -4.34605 0
M  V30 1229 H 105.443 -3.37462 -5.62544 0
M  V30 1230 H 105.36 -5.10507 -5.57601 0
M  V30 1231 H 106.628 -4.33253 -6.48006 0
M  V30 1232 N 110.857 0.726932 -1.39834 0
M  V30 1233 C 112.134 1.47902 -1.28001 0
M  V30 1234 C 112.514 2.1083 0.106789 0
M  V30 1235 O 111.862 1.99242 1.11869 0
M  V30 1236 C 112.072 2.52392 -2.41038 0
M  V30 1237 C 113.42 3.18546 -2.80737 0
M  V30 1238 O 114.444 2.62708 -2.40547 0
M  V30 1239 O 113.303 4.19604 -3.50135 0
M  V30 1240 H 110.397 0.657163 -0.502062 0
M  V30 1241 H 112.943 0.760071 -1.51727 0
M  V30 1242 H 111.715 2.04329 -3.33715 0
M  V30 1243 H 111.338 3.31837 -2.19021 0
M  V30 1244 N 112.336 1.25143 0.95797 0
M  V30 1245 C 113.246 1.06968 2.08794 0
M  V30 1246 C 114.262 0.00773911 1.73998 0
M  V30 1247 O 115.438 0.207972 2.00323 0
M  V30 1248 C 112.503 0.68691 3.39827 0
M  V30 1249 C 111.564 1.82641 3.88511 0
M  V30 1250 C 110.797 1.46181 5.1329 0
M  V30 1251 O 111.02 0.355971 5.69288 0
M  V30 1252 O 109.954 2.29085 5.566 0
M  V30 1253 H 113.78 2.01723 2.27027 0
M  V30 1254 H 111.365 1.04051 1.07209 0
M  V30 1255 H 113.247 0.485417 4.18595 0
M  V30 1256 H 111.922 -0.231417 3.22872 0
M  V30 1257 H 110.829 2.08274 3.10762 0
M  V30 1258 H 112.162 2.72386 4.09959 0
M  V30 1259 N 113.814 -1.1601 1.06675 0
M  V30 1260 C 115.063 -1.85973 0.780818 0
M  V30 1261 C 115.376 -1.82819 -0.695444 0
M  V30 1262 O 116.582 -2.484 -1.09589 0
M  V30 1263 C 115.038 -3.33757 1.34665 0
M  V30 1264 C 114.646 -3.45374 2.85343 0
M  V30 1265 C 116.39 -4.0895 1.13843 0
M  V30 1266 C 114.297 -4.87266 3.35151 0
M  V30 1267 H 113.227 -0.696661 0.288407 0
M  V30 1268 H 115.878 -1.30903 1.28595 0
M  V30 1269 H 114.26 -3.88456 0.769274 0
M  V30 1270 H 115.434 -3.00816 3.49065 0
M  V30 1271 H 113.749 -2.83619 3.04876 0
M  V30 1272 H 116.346 -5.13654 1.4854 0
M  V30 1273 H 116.689 -4.16229 0.0770282 0
M  V30 1274 H 117.222 -3.605 1.68179 0
M  V30 1275 H 113.961 -4.85168 4.40786 0
M  V30 1276 H 113.481 -5.32433 2.76179 0
M  V30 1277 H 115.16 -5.56097 3.30704 0
M  V30 1278 N 115.292 -0.849877 -1.32721 0
M  V30 1279 C 116.538 -0.451591 -1.97708 0
M  V30 1280 C 116.871 0.989175 -1.6712 0
M  V30 1281 O 116.146 1.69334 -0.956891 0
M  V30 1282 C 116.429 -0.685598 -3.53513 0
M  V30 1283 C 116.282 -2.17444 -3.93749 0
M  V30 1284 C 117.601 -0.138874 -4.39881 0
M  V30 1285 H 114.72 -0.16555 -0.718166 0
M  V30 1286 H 117.362 -1.06742 -1.57182 0
M  V30 1287 H 115.512 -0.161416 -3.88165 0
M  V30 1288 H 117.184 -2.76433 -3.693 0
M  V30 1289 H 115.427 -2.65476 -3.43081 0
M  V30 1290 H 116.098 -2.28888 -5.02309 0
M  V30 1291 H 118.574 -0.587068 -4.11938 0
M  V30 1292 H 117.45 -0.332213 -5.47894 0
M  V30 1293 H 117.711 0.95806 -4.31594 0
M  V30 1294 N 116.77 1.45427 -0.607355 0
M  V30 1295 C 117.718 2.32269 0.12411 0
M  V30 1296 C 118.712 1.45955 0.859854 0
M  V30 1297 O 119.918 1.6244 0.775447 0
M  V30 1298 H 116.293 0.749691 0.0588839 0
M  V30 1299 H 118.264 2.91743 -0.626762 0
M  V30 1300 C 117.013 3.29567 1.1082 0
M  V30 1301 H 116.336 3.95978 0.551492 0
M  V30 1302 H 117.776 3.93061 1.58995 0
M  V30 1303 C 116.235 2.56722 2.18164 0
M  V30 1304 O 116.765 2.34842 3.25902 0
M  V30 1305 N 114.971 2.16861 1.93442 0
M  V30 1306 H 114.518 2.34855 1.05834 0
M  V30 1307 H 114.476 1.68444 2.65469 0
M  V30 1308 N 118.248 0.346503 1.53744 0
M  V30 1309 C 119.525 -0.304532 1.93215 0
M  V30 1310 C 119.905 -1.67993 1.27834 0
M  V30 1311 O 119.253 -2.24411 0.430352 0
M  V30 1312 C 119.463 -0.373852 3.46992 0
M  V30 1313 C 120.811 -0.62329 4.2 0
M  V30 1314 O 121.835 -0.455847 3.53271 0
M  V30 1315 O 120.694 -0.947879 5.38217 0
M  V30 1316 H 117.788 -0.178318 0.807547 0
M  V30 1317 H 120.334 0.397895 1.64969 0
M  V30 1318 H 119.106 0.591224 3.86808 0
M  V30 1319 H 118.729 -1.12294 3.81413 0
M  V30 1320 N 119.726 -1.57421 0.075193 0
M  V30 1321 C 121.142 -1.57099 -0.281444 0
M  V30 1322 C 121.342 -1.08486 -1.69803 0
M  V30 1323 O 120.398 -0.752279 -2.41033 0
M  V30 1324 C 121.711 -3.00571 -0.0880041 0
M  V30 1325 C 123.259 -3.12605 -0.157281 0
M  V30 1326 C 123.734 -4.57999 0.0079207 0
M  V30 1327 N 125.225 -4.63176 -0.0475725 0
M  V30 1328 C 125.96 -5.73373 0.0557876 0
M  V30 1329 N 125.456 -6.92473 0.21286 0
M  V30 1330 N 127.249 -5.621 -0.00152098 0
M  V30 1331 H 119.4 -1.87335 1.00098 0
M  V30 1332 H 121.663 -0.86377 0.390646 0
M  V30 1333 H 121.369 -3.40262 0.889629 0
M  V30 1334 H 121.243 -3.67754 -0.838875 0
M  V30 1335 H 123.63 -2.72798 -1.1254 0
M  V30 1336 H 123.711 -2.48053 0.62475 0
M  V30 1337 H 123.355 -4.98496 0.972824 0
M  V30 1338 H 123.285 -5.20586 -0.793556 0
M  V30 1339 H 125.776 -3.7753 -0.167244 0
M  V30 1340 H 126.089 -7.72279 0.283781 0
M  V30 1341 H 124.434 -6.94556 0.248267 0
M  V30 1342 H 127.625 -4.67938 -0.122958 0
M  V30 1343 H 127.798 -6.47948 0.0824844 0
M  V30 1344 N 121.204 0.198386 -1.56346 0
M  V30 1345 C 122.481 0.944982 -1.71258 0
M  V30 1346 C 122.861 2.0151 -0.629048 0
M  V30 1347 O 122.209 2.25639 0.360473 0
M  V30 1348 C 122.419 1.5344 -3.1346 0
M  V30 1349 C 123.767 2.01778 -3.73591 0
M  V30 1350 O 124.791 1.63288 -3.16568 0
M  V30 1351 O 123.65 2.72594 -4.73661 0
M  V30 1352 H 120.744 0.442939 -0.69838 0
M  V30 1353 H 123.29 0.188342 -1.68652 0
M  V30 1354 H 122.062 0.762869 -3.83792 0
M  V30 1355 H 121.685 2.35596 -3.20282 0
M  V30 1356 N 122.682 1.50554 0.465978 0
M  V30 1357 C 123.922 1.63439 1.22747 0
M  V30 1358 C 124.286 0.329822 1.89146 0
M  V30 1359 O 125.487 0.334161 2.66715 0
M  V30 1360 C 123.758 2.78542 2.2394 0
M  V30 1361 S 125.317 3.11591 3.0896 0
M  V30 1362 H 122.135 0.576113 0.416672 0
M  V30 1363 H 124.737 1.88357 0.523641 0
M  V30 1364 H 123.441 3.71805 1.7375 0
M  V30 1365 H 122.972 2.55726 2.98944 0
M  V30 1366 H 124.987 2.55811 4.25176 0
M  V30 1367 N 124.16 -0.719506 1.40217 0
M  V30 1368 C 125.385 -1.51371 1.4178 0
M  V30 1369 C 125.81 -1.88091 0.0182355 0
M  V30 1370 O 125.168 -1.52997 -0.972707 0
M  V30 1371 C 125.216 -2.768 2.31115 0
M  V30 1372 O 124.32 -3.73349 1.7517 0
M  V30 1373 H 123.661 -0.456529 0.482159 0
M  V30 1374 H 126.191 -0.88644 1.844 0
M  V30 1375 H 126.201 -3.25371 2.46167 0
M  V30 1376 H 124.876 -2.49407 3.3282 0
M  V30 1377 H 123.453 -3.32179 1.69444 0
M  V30 1378 N 125.638 -1.25649 -0.95132 0
M  V30 1379 C 126.601 -1.06399 -2.03007 0
M  V30 1380 C 127.601 -0.0156794 -1.60792 0
M  V30 1381 O 128.791 -0.25817 -1.72276 0
M  V30 1382 C 125.923 -0.616184 -3.35285 0
M  V30 1383 H 127.116 -2.02164 -2.21517 0
M  V30 1384 H 124.669 -1.08103 -1.12887 0
M  V30 1385 H 125.404 0.343917 -3.22471 0
M  V30 1386 H 125.189 -1.37301 -3.67275 0
M  V30 1387 H 126.679 -0.503032 -4.14559 0
M  V30 1388 N 127.117 1.15442 -1.07289 0
M  V30 1389 C 128.363 1.86489 -0.796846 0
M  V30 1390 C 128.696 1.82078 0.675371 0
M  V30 1391 O 127.971 1.24346 1.4956 0
M  V30 1392 C 128.254 3.35626 -1.30489 0
M  V30 1393 C 128.107 3.48673 -2.84161 0
M  V30 1394 C 129.426 4.30357 -0.920907 0
M  V30 1395 H 126.545 0.677144 -0.290939 0
M  V30 1396 H 129.187 1.35633 -1.33056 0
M  V30 1397 H 127.337 3.79068 -0.850883 0
M  V30 1398 H 129.009 3.14099 -3.37846 0
M  V30 1399 H 127.252 2.90253 -3.22391 0
M  V30 1400 H 127.923 4.53453 -3.14777 0
M  V30 1401 H 130.399 3.94871 -1.3121 0
M  V30 1402 H 129.275 5.33193 -1.30372 0
M  V30 1403 H 129.536 4.4176 0.173226 0
M  V30 1404 N 128.595 0.856903 1.32268 0
M  V30 1405 C 129.505 0.306131 2.32594 0
M  V30 1406 C 130.521 -0.577209 1.64147 0
M  V30 1407 O 131.697 -0.477043 1.95669 0
M  V30 1408 C 128.762 -0.494561 3.43154 0
M  V30 1409 C 127.823 0.415186 4.27288 0
M  V30 1410 C 127.056 -0.347387 5.32568 0
M  V30 1411 O 127.279 -1.57708 5.48165 0
M  V30 1412 O 126.213 0.287982 6.01211 0
M  V30 1413 H 130.039 1.13737 2.81598 0
M  V30 1414 H 127.624 0.619902 1.35932 0
M  V30 1415 H 129.506 -0.948944 4.10576 0
M  V30 1416 H 128.181 -1.30257 2.96336 0
M  V30 1417 H 127.088 0.917793 3.62667 0
M  V30 1418 H 128.421 1.18844 4.77637 0
M  V30 1419 N 130.073 -1.45103 0.615059 0
M  V30 1420 C 131.021 -2.32331 -0.111791 0
M  V30 1421 C 132.015 -1.46409 -0.852102 0
M  V30 1422 O 133.221 -1.62849 -0.766821 0
M  V30 1423 H 129.596 -0.749993 -0.0549072 0
M  V30 1424 H 131.567 -2.91407 0.642225 0
M  V30 1425 C 130.316 -3.3015 -1.09071 0
M  V30 1426 H 129.639 -3.96265 -0.530485 0
M  V30 1427 H 131.079 -3.93898 -1.56908 0
M  V30 1428 C 129.538 -2.57875 -2.168 0
M  V30 1429 O 130.068 -2.36567 -3.24652 0
M  V30 1430 N 128.274 -2.17884 -1.92289 0
M  V30 1431 H 127.821 -2.35413 -1.04587 0
M  V30 1432 H 127.779 -1.6985 -2.64572 0
M  V30 1433 N 131.551 -0.354651 -1.53558 0
M  V30 1434 C 132.799 0.237972 -2.00694 0
M  V30 1435 C 133.12 1.50173 -1.24391 0
M  V30 1436 O 132.39 1.92673 -0.354135 0
M  V30 1437 H 130.97 0.0909256 -0.741446 0
M  V30 1438 H 133.632 -0.478368 -1.88938 0
M  V30 1439 H 132.728 0.47264 -3.085 0
M  V30 1440 N 133.029 1.57378 -0.0835403 0
M  V30 1441 C 134.257 1.98263 0.59157 0
M  V30 1442 C 134.672 0.962302 1.62435 0
M  V30 1443 O 134.029 -0.049581 1.82433 0
M  V30 1444 C 134.08 3.39214 1.24965 0
M  V30 1445 O 133.801 4.37339 0.258186 0
M  V30 1446 C 135.302 3.95038 2.01147 0
M  V30 1447 H 132.522 0.651773 0.159477 0
M  V30 1448 H 135.066 2.03878 -0.159415 0
M  V30 1449 H 133.221 3.34649 1.95164 0
M  V30 1450 H 133.635 5.19371 0.731734 0
M  V30 1451 H 135.109 4.95848 2.42567 0
M  V30 1452 H 135.586 3.32222 2.87272 0
M  V30 1453 H 136.192 4.0304 1.35789 0
M  V30 1454 N 134.507 -0.190092 1.56449 0
M  V30 1455 C 135.439 -1.25973 1.91477 0
M  V30 1456 C 136.452 -1.41452 0.805931 0
M  V30 1457 O 137.641 -1.41789 1.08435 0
M  V30 1458 C 134.741 -2.63117 2.13594 0
M  V30 1459 C 133.914 -2.69182 3.4476 0
M  V30 1460 C 132.973 -3.87557 3.5593 0
M  V30 1461 O 131.999 -3.74427 4.28711 0
M  V30 1462 N 133.201 -5.03224 2.89388 0
M  V30 1463 H 135.966 -0.962394 2.83828 0
M  V30 1464 H 133.527 -0.379981 1.57378 0
M  V30 1465 H 135.519 -3.40742 2.1835 0
M  V30 1466 H 134.089 -2.85319 1.27719 0
M  V30 1467 H 133.309 -1.77793 3.51828 0
M  V30 1468 H 134.597 -2.70229 4.31107 0
M  V30 1469 H 133.995 -5.16791 2.30094 0
M  V30 1470 H 132.552 -5.78778 2.99764 0
M  V30 1471 N 135.985 -1.50799 -0.457987 0
M  V30 1472 C 137.396 -1.55152 -1.0385 0
M  V30 1473 C 137.747 -0.362719 -1.92818 0
M  V30 1474 O 136.872 0.522915 -2.09987 0
M  V30 1475 C 137.467 -2.81173 -1.89017 0
M  V30 1476 C 136.026 -2.88164 -2.42154 0
M  V30 1477 C 135.173 -2.49591 -1.20829 0
M  V30 1478 H 138.124 -1.56874 -0.240068 0
M  V30 1479 H 138.145 -2.63769 -2.74238 0
M  V30 1480 H 137.657 -3.67677 -1.24238 0
M  V30 1481 H 135.758 -2.06042 -3.10447 0
M  V30 1482 H 135.871 -3.91356 -2.76364 0
M  V30 1483 H 134.235 -2.02322 -1.54719 0
M  V30 1484 H 135.018 -3.38418 -0.576927 0
M  V30 1485 N 137.463 0.71206 -1.40597 0
M  V30 1486 C 138.709 1.47416 -1.39271 0
M  V30 1487 C 139.042 1.942 0.00388791 0
M  V30 1488 O 138.317 1.68403 0.973179 0
M  V30 1489 C 138.6 2.69774 -2.38525 0
M  V30 1490 C 138.453 2.28861 -3.87224 0
M  V30 1491 C 139.772 3.71939 -2.35264 0
M  V30 1492 H 136.891 0.534713 -0.5072 0
M  V30 1493 H 139.533 0.812375 -1.71757 0
M  V30 1494 H 137.683 3.26238 -2.10953 0
M  V30 1495 H 139.355 1.77852 -4.25636 0
M  V30 1496 H 137.598 1.60824 -4.02887 0
M  V30 1497 H 138.269 3.16584 -4.52193 0
M  V30 1498 H 140.745 3.25113 -2.59694 0
M  V30 1499 H 139.621 4.55186 -3.06753 0
M  V30 1500 H 139.882 4.20484 -1.36549 0
M  V30 1501 N 138.941 1.26152 0.944643 0
M  V30 1502 C 139.888 1.07408 2.04285 0
M  V30 1503 C 140.858 -0.0198413 1.66088 0
M  V30 1504 O 142.043 0.139264 1.90291 0
M  V30 1505 C 139.183 0.70945 3.37729 0
M  V30 1506 C 138.296 1.87926 3.88983 0
M  V30 1507 C 137.431 1.45807 5.10797 0
M  V30 1508 C 136.47 2.5964 5.54305 0
M  V30 1509 N 135.607 2.18226 6.67324 0
M  V30 1510 H 140.447 2.01389 2.1965 0
M  V30 1511 H 137.984 1.00275 1.07626 0
M  V30 1512 H 139.942 0.478948 4.14442 0
M  V30 1513 H 138.572 -0.193389 3.2222 0
M  V30 1514 H 137.624 2.22279 3.08701 0
M  V30 1515 H 138.936 2.73377 4.17213 0
M  V30 1516 H 138.09 1.18781 5.94959 0
M  V30 1517 H 136.829 0.574414 4.84305 0
M  V30 1518 H 135.834 2.87399 4.68702 0
M  V30 1519 H 137.059 3.48599 5.828 0
M  V30 1520 H 135.005 1.3229 6.42523 0
M  V30 1521 H 134.922 2.97221 6.95123 0
M  V30 1522 H 136.19 1.94403 7.54869 0
M  V30 1523 N 140.419 -1.14872 1.07899 0
M  V30 1524 C 141.696 -1.81928 0.71845 0
M  V30 1525 C 142.076 -1.95417 -0.798455 0
M  V30 1526 O 141.424 -1.50997 -1.715 0
M  V30 1527 C 141.634 -3.17937 1.43935 0
M  V30 1528 C 142.982 -3.93501 1.59506 0
M  V30 1529 O 144.006 -3.27509 1.40058 0
M  V30 1530 O 142.865 -5.1183 1.91551 0
M  V30 1531 H 139.959 -0.78628 0.256305 0
M  V30 1532 H 142.505 -1.21934 1.18026 0
M  V30 1533 H 141.277 -3.0325 2.47295 0
M  V30 1534 H 140.9 -3.85619 0.968687 0
M  V30 1535 N 141.898 -0.863906 -1.31812 0
M  V30 1536 C 143.144 -0.472535 -1.97218 0
M  V30 1537 C 143.477 0.971394 -1.68159 0
M  V30 1538 O 142.752 1.68309 -0.974798 0
M  V30 1539 C 143.035 -0.723054 -3.52766 0
M  V30 1540 C 142.888 -2.21608 -3.91421 0
M  V30 1541 C 144.207 -0.185522 -4.39709 0
M  V30 1542 H 141.326 -0.173158 -0.71637 0
M  V30 1543 H 143.968 -1.08403 -1.56041 0
M  V30 1544 H 142.118 -0.202577 -3.87971 0
M  V30 1545 H 143.79 -2.80334 -3.66347 0
M  V30 1546 H 142.033 -2.691 -3.40246 0
M  V30 1547 H 142.704 -2.34203 -4.99853 0
M  V30 1548 H 145.18 -0.630726 -4.11292 0
M  V30 1549 H 144.056 -0.390306 -5.47511 0
M  V30 1550 H 144.317 0.912229 -4.32586 0
M  V30 1551 N 143.376 1.44774 -0.622745 0
M  V30 1552 C 144.616 2.04004 -0.127102 0
M  V30 1553 C 144.98 1.47862 1.22478 0
M  V30 1554 O 146.181 1.98541 1.81204 0
M  V30 1555 C 144.452 3.57247 -0.104429 0
M  V30 1556 S 146.011 4.37574 0.327814 0
M  V30 1557 H 142.829 0.708713 -0.0569776 0
M  V30 1558 H 145.431 1.77275 -0.824253 0
M  V30 1559 H 144.135 3.95616 -1.09159 0
M  V30 1560 H 143.666 3.88575 0.614236 0
M  V30 1561 H 145.681 4.70575 1.57395 0
M  V30 1562 N 144.854 0.36279 1.53368 0
M  V30 1563 C 145.801 -0.485008 2.25646 0
M  V30 1564 C 146.771 -1.07982 1.2621 0
M  V30 1565 O 147.956 -1.11284 1.54986 0
M  V30 1566 C 145.096 -1.62023 3.04701 0
M  V30 1567 C 144.209 -1.05086 4.19024 0
M  V30 1568 C 143.344 -2.15496 4.85525 0
M  V30 1569 C 142.383 -1.5601 5.91884 0
M  V30 1570 N 141.52 -2.60241 6.52088 0
M  V30 1571 H 146.36 0.137864 2.97681 0
M  V30 1572 H 143.897 0.0798061 1.46883 0
M  V30 1573 H 145.855 -2.28887 3.48807 0
M  V30 1574 H 144.485 -2.2138 2.34927 0
M  V30 1575 H 143.537 -0.27259 3.79422 0
M  V30 1576 H 144.849 -0.575926 4.95464 0
M  V30 1577 H 144.003 -2.90186 5.32801 0
M  V30 1578 H 142.742 -2.66341 4.08551 0
M  V30 1579 H 141.747 -0.798338 5.43973 0
M  V30 1580 H 142.972 -1.05994 6.70777 0
M  V30 1581 H 140.918 -3.10304 5.77968 0
M  V30 1582 H 140.835 -2.17426 7.24059 0
M  V30 1583 H 142.103 -3.34641 7.04014 0
M  V30 1584 N 146.332 -1.57332 0.0918853 0
M  V30 1585 C 147.242 -2.17368 -0.882505 0
M  V30 1586 C 148.258 -1.14226 -1.31257 0
M  V30 1587 O 149.434 -1.46582 -1.38115 0
M  V30 1588 C 146.499 -2.73962 -2.12476 0
M  V30 1589 C 145.56 -3.92048 -1.7492 0
M  V30 1590 C 144.793 -4.45933 -2.93223 0
M  V30 1591 O 145.016 -3.98764 -4.07852 0
M  V30 1592 O 143.95 -5.36999 -2.71875 0
M  V30 1593 H 147.776 -3.01031 -0.40172 0
M  V30 1594 H 145.361 -1.48813 -0.132291 0
M  V30 1595 H 147.243 -3.10147 -2.85283 0
M  V30 1596 H 145.918 -1.93347 -2.59613 0
M  V30 1597 H 144.825 -3.6068 -0.993025 0
M  V30 1598 H 146.158 -4.74017 -1.32548 0
M  V30 1599 N 147.81 0.181792 -1.56548 0
M  V30 1600 C 148.74 1.22765 -1.98623 0
M  V30 1601 C 149.721 1.46747 -0.860189 0
M  V30 1602 O 150.906 1.58259 -1.12551 0
M  V30 1603 C 148.036 2.56894 -2.33715 0
M  V30 1604 C 146.99 2.475 -3.49182 0
M  V30 1605 C 146.316 3.86023 -3.69986 0
M  V30 1606 C 147.616 1.98866 -4.82959 0
M  V30 1607 H 149.31 0.877942 -2.86239 0
M  V30 1608 H 146.856 0.42088 -1.37712 0
M  V30 1609 H 148.809 3.30253 -2.61746 0
M  V30 1610 H 147.533 2.93632 -1.42997 0
M  V30 1611 H 146.192 1.76596 -3.21262 0
M  V30 1612 H 145.84 4.20136 -2.76576 0
M  V30 1613 H 145.54 3.80609 -4.47672 0
M  V30 1614 H 147.064 4.60984 -4.00407 0
M  V30 1615 H 148.478 2.61992 -5.09934 0
M  V30 1616 H 146.875 2.04424 -5.64208 0
M  V30 1617 H 147.945 0.942465 -4.75653 0
M  V30 1618 N 149.288 1.51039 0.449983 0
M  V30 1619 C 150.236 1.71995 1.5659 0
M  V30 1620 C 151.23 0.586029 1.5894 0
M  V30 1621 O 152.436 0.76709 1.62837 0
M  V30 1622 H 148.811 0.543233 0.520001 0
M  V30 1623 H 150.782 2.65562 1.36085 0
M  V30 1624 C 149.531 1.8506 2.9436 0
M  V30 1625 H 148.854 2.71712 2.93279 0
M  V30 1626 H 150.294 2.0374 3.71842 0
M  V30 1627 C 148.753 0.607277 3.31382 0
M  V30 1628 O 149.283 -0.243903 4.00959 0
M  V30 1629 N 147.489 0.455073 2.87015 0
M  V30 1630 H 147.036 1.14879 2.30566 0
M  V30 1631 H 146.994 -0.375611 3.12148 0
M  V30 1632 N 150.766 -0.704594 1.40972 0
M  V30 1633 C 151.714 -1.83994 1.42299 0
M  V30 1634 C 152.708 -1.66684 0.302111 0
M  V30 1635 O 153.914 -1.73655 0.473697 0
M  V30 1636 H 150.289 -0.606171 0.44504 0
M  V30 1637 H 152.26 -1.79992 2.38003 0
M  V30 1638 C 151.009 -3.21946 1.31323 0
M  V30 1639 H 150.332 -3.35878 2.16855 0
M  V30 1640 H 151.772 -4.01491 1.36311 0
M  V30 1641 C 150.231 -3.36891 0.0245977 0
M  V30 1642 O 150.761 -3.90687 -0.934153 0
M  V30 1643 N 148.967 -2.90559 -0.0485243 0
M  V30 1644 H 148.514 -2.46968 0.732419 0
M  V30 1645 H 148.472 -3.00937 -0.910171 0
M  V30 1646 N 152.244 -1.26651 -0.937939 0
M  V30 1647 C 153.176 -1.04283 -2.04102 0
M  V30 1648 C 154.189 -0.00221014 -1.628 0
M  V30 1649 O 155.378 -0.242645 -1.76843 0
M  V30 1650 C 152.478 -0.557846 -3.34277 0
M  V30 1651 C 151.651 -1.66843 -4.04329 0
M  V30 1652 C 150.71 -1.18095 -5.12777 0
M  V30 1653 O 149.736 -1.87865 -5.37304 0
M  V30 1654 N 150.938 -0.0311006 -5.80492 0
M  V30 1655 H 153.703 -1.9927 -2.23856 0
M  V30 1656 H 151.264 -1.1808 -1.10764 0
M  V30 1657 H 153.256 -0.215836 -4.04124 0
M  V30 1658 H 151.826 0.298523 -3.11171 0
M  V30 1659 H 151.046 -2.18123 -3.28353 0
M  V30 1660 H 152.334 -2.41408 -4.47883 0
M  V30 1661 H 151.732 0.551486 -5.63005 0
M  V30 1662 H 150.289 0.251809 -6.51313 0
M  V30 1663 N 153.722 1.14298 -1.08507 0
M  V30 1664 C 154.632 2.23027 -0.727753 0
M  V30 1665 C 155.648 1.71952 0.26619 0
M  V30 1666 O 156.824 2.011 0.109882 0
M  V30 1667 C 153.889 3.46403 -0.143541 0
M  V30 1668 C 152.95 4.12413 -1.19223 0
M  V30 1669 C 152.183 5.29899 -0.635798 0
M  V30 1670 O 152.406 5.67796 0.544393 0
M  V30 1671 O 151.34 5.85717 -1.38634 0
M  V30 1672 H 155.166 2.55945 -1.63481 0
M  V30 1673 H 152.751 1.22248 -0.858817 0
M  V30 1674 H 154.633 4.21018 0.179404 0
M  V30 1675 H 153.308 3.15206 0.736659 0
M  V30 1676 H 152.215 3.39667 -1.56772 0
M  V30 1677 H 153.548 4.47718 -2.04474 0
M  V30 1678 N 155.201 0.870884 1.31352 0
M  V30 1679 C 156.133 0.28455 2.27427 0
M  V30 1680 C 157.146 -0.552927 1.53123 0
M  V30 1681 O 158.335 -0.374771 1.74521 0
M  V30 1682 C 155.435 -0.615164 3.3327 0
M  V30 1683 C 154.608 0.190079 4.36987 0
M  V30 1684 C 153.667 -0.637917 5.22319 0
M  V30 1685 O 152.693 -0.065626 5.69162 0
M  V30 1686 N 153.895 -1.94973 5.46778 0
M  V30 1687 H 156.66 1.11017 2.7838 0
M  V30 1688 H 154.221 0.732458 1.44384 0
M  V30 1689 H 156.213 -1.1748 3.87273 0
M  V30 1690 H 154.783 -1.34146 2.82354 0
M  V30 1691 H 154.003 0.931165 3.83044 0
M  V30 1692 H 155.291 0.742579 5.03352 0
M  V30 1693 H 154.689 -2.4378 5.10478 0
M  V30 1694 H 153.246 -2.45713 6.03712 0
M  V30 1695 N 156.679 -1.44442 0.630414 0
M  V30 1696 C 157.627 -2.32437 -0.0871428 0
M  V30 1697 C 158.621 -1.47304 -0.836525 0
M  V30 1698 O 159.827 -1.63653 -0.749506 0
M  V30 1699 H 156.202 -0.750533 -0.0469495 0
M  V30 1700 H 158.173 -2.90709 0.673096 0
M  V30 1701 C 156.922 -3.31288 -1.05563 0
M  V30 1702 H 156.245 -3.96805 -0.488426 0
M  V30 1703 H 157.685 -3.9554 -1.52721 0
M  V30 1704 C 156.144 -2.6016 -2.14052 0
M  V30 1705 O 156.674 -2.39997 -3.22124 0
M  V30 1706 N 154.88 -2.19911 -1.89967 0
M  V30 1707 H 154.427 -2.36509 -1.02085 0
M  V30 1708 H 154.385 -1.72646 -2.62756 0
M  V30 1709 N 158.157 -0.370918 -1.53173 0
M  V30 1710 C 159.405 0.216673 -2.00935 0
M  V30 1711 C 159.726 1.48845 -1.25977 0
M  V30 1712 O 158.996 1.92286 -0.374551 0
M  V30 1713 H 157.576 0.0830565 -0.742368 0
M  V30 1714 H 160.238 -0.49838 -1.8842 0
M  V30 1715 H 159.334 0.439893 -3.08984 0
M  V30 1716 N 159.635 1.57281 -0.100228 0
M  V30 1717 C 161.046 1.81725 0.428107 0
M  V30 1718 C 161.397 1.01619 1.67833 0
M  V30 1719 O 160.522 0.247098 2.14985 0
M  V30 1720 C 161.117 3.29617 0.78347 0
M  V30 1721 C 159.676 3.54808 1.25653 0
M  V30 1722 C 158.823 2.76118 0.255752 0
M  V30 1723 H 161.774 1.55324 -0.325608 0
M  V30 1724 H 161.795 3.4322 1.64256 0
M  V30 1725 H 161.307 3.87893 -0.12665 0
M  V30 1726 H 159.408 3.01868 2.18418 0
M  V30 1727 H 159.521 4.63443 1.21482 0
M  V30 1728 H 157.885 2.43745 0.738956 0
M  V30 1729 H 158.668 3.37145 -0.647136 0
M  V30 1730 N 161.113 -0.173488 1.56642 0
M  V30 1731 C 162.362 -0.888758 1.81063 0
M  V30 1732 C 162.675 -1.83506 0.67712 0
M  V30 1733 O 163.881 -2.59254 0.806206 0
M  V30 1734 C 162.337 -1.63091 3.20826 0
M  V30 1735 C 161.945 -0.728357 4.4204 0
M  V30 1736 C 163.689 -2.33454 3.54541 0
M  V30 1737 C 161.596 -1.47062 5.72823 0
M  V30 1738 H 160.526 -0.335618 0.675186 0
M  V30 1739 H 163.177 -0.141712 1.82952 0
M  V30 1740 H 161.559 -2.42263 3.13248 0
M  V30 1741 H 162.733 0.0262449 4.60793 0
M  V30 1742 H 161.048 -0.134492 4.16183 0
M  V30 1743 H 163.645 -2.89578 4.49498 0
M  V30 1744 H 163.988 -3.08687 2.79317 0
M  V30 1745 H 164.521 -1.61227 3.63663 0
M  V30 1746 H 161.26 -0.760658 6.51072 0
M  V30 1747 H 160.78 -2.1986 5.58052 0
M  V30 1748 H 162.459 -2.01868 6.14702 0
M  V30 1749 N 162.591 -1.51276 -0.441967 0
M  V30 1750 C 163.868 -1.54252 -1.20273 0
M  V30 1751 C 164.248 -0.30408 -2.08898 0
M  V30 1752 O 163.596 0.711084 -2.17154 0
M  V30 1753 C 163.806 -2.85406 -2.00859 0
M  V30 1754 C 165.154 -3.37181 -2.58059 0
M  V30 1755 O 166.178 -2.86925 -2.11074 0
M  V30 1756 O 165.037 -4.24858 -3.43741 0
M  V30 1757 H 162.131 -0.619969 -0.547328 0
M  V30 1758 H 164.677 -1.63586 -0.451413 0
M  V30 1759 H 163.449 -3.67003 -1.35736 0
M  V30 1760 H 163.072 -2.79213 -2.83065 0
M  V30 1761 N 164.069 0.697108 -1.41344 0
M  V30 1762 C 165.48 1.27697 -1.36199 0
M  V30 1763 C 165.831 1.9615 -0.0443463 0
M  V30 1764 O 164.956 1.98689 0.857419 0
M  V30 1765 C 165.551 2.32223 -2.46694 0
M  V30 1766 C 164.11 2.8579 -2.44952 0
M  V30 1767 C 163.257 1.59807 -2.26621 0
M  V30 1768 H 166.208 0.491968 -1.50882 0
M  V30 1769 H 166.229 3.1348 -2.15664 0
M  V30 1770 H 165.741 1.82373 -3.42581 0
M  V30 1771 H 163.842 3.3982 -1.52817 0
M  V30 1772 H 163.955 3.36325 -3.41207 0
M  V30 1773 H 162.319 1.8556 -1.7447 0
M  V30 1774 H 163.102 1.11956 -3.24532 0
M  V30 1775 N 165.547 1.27147 0.931209 0
M  V30 1776 C 166.457 1.11372 2.06478 0
M  V30 1777 C 167.473 0.044645 1.73943 0
M  V30 1778 O 168.649 0.250417 1.99837 0
M  V30 1779 C 165.714 0.758838 3.38294 0
M  V30 1780 C 164.775 1.90841 3.84549 0
M  V30 1781 C 164.008 1.57036 5.10074 0
M  V30 1782 O 164.231 0.476645 5.68405 0
M  V30 1783 O 163.165 2.40839 5.51616 0
M  V30 1784 H 166.991 2.06493 2.22698 0
M  V30 1785 H 164.576 1.06301 1.04978 0
M  V30 1786 H 166.458 0.574098 4.17471 0
M  V30 1787 H 165.133 -0.162879 3.2329 0
M  V30 1788 H 164.04 2.14819 3.06274 0
M  V30 1789 H 165.373 2.81021 4.04089 0
M  V30 1790 N 167.025 -1.13721 1.09112 0
M  V30 1791 C 167.973 -2.21103 0.722219 0
M  V30 1792 C 168.967 -1.67147 -0.275374 0
M  V30 1793 O 170.173 -1.79477 -0.137176 0
M  V30 1794 H 166.548 -0.720445 0.215553 0
M  V30 1795 H 168.519 -2.49483 1.63709 0
M  V30 1796 C 167.268 -3.47352 0.15543 0
M  V30 1797 H 166.591 -3.89206 0.914246 0
M  V30 1798 H 168.031 -4.2395 -0.0647967 0
M  V30 1799 C 166.49 -3.1814 -1.10852 0
M  V30 1800 O 167.02 -3.36604 -2.19227 0
M  V30 1801 N 165.226 -2.72045 -1.02176 0
M  V30 1802 H 164.773 -2.57221 -0.139764 0
M  V30 1803 H 164.731 -2.52875 -1.8682 0
M  V30 1804 N 168.503 -0.877838 -1.30888 0
M  V30 1805 C 169.451 -0.328662 -2.30266 0
M  V30 1806 C 170.445 0.560496 -1.59859 0
M  V30 1807 O 171.651 0.445722 -1.74394 0
M  V30 1808 H 168.026 -0.0876142 -0.746879 0
M  V30 1809 H 169.997 -1.18061 -2.74051 0
M  V30 1810 C 168.746 0.448071 -3.44801 0
M  V30 1811 H 168.069 -0.226859 -3.99156 0
M  V30 1812 H 169.509 0.797541 -4.16432 0
M  V30 1813 C 167.968 1.64239 -2.94155 0
M  V30 1814 O 168.498 2.74175 -2.93583 0
M  V30 1815 N 166.704 1.47716 -2.50256 0
M  V30 1816 H 166.251 0.582821 -2.5092 0
M  V30 1817 H 166.209 2.27765 -2.16727 0
M  V30 1818 N 169.982 1.44106 -0.638065 0
M  V30 1819 C 171.398 1.56672 -0.304286 0
M  V30 1820 C 171.598 1.6244 1.19228 0
M  V30 1821 O 170.654 1.57121 1.9766 0
M  V30 1822 C 171.967 2.83503 -1.00231 0
M  V30 1823 C 173.515 2.97226 -0.981116 0
M  V30 1824 C 173.99 4.26868 -1.65974 0
M  V30 1825 N 175.481 4.33698 -1.62666 0
M  V30 1826 C 176.216 5.32745 -2.12063 0
M  V30 1827 N 175.712 6.38157 -2.6968 0
M  V30 1828 N 177.505 5.24299 -2.02651 0
M  V30 1829 H 169.656 1.38605 -1.60942 0
M  V30 1830 H 171.919 0.664661 -0.675965 0
M  V30 1831 H 171.625 2.85251 -2.0573 0
M  V30 1832 H 171.499 3.73251 -0.54439 0
M  V30 1833 H 173.886 2.95027 0.0654188 0
M  V30 1834 H 173.967 2.08808 -1.47759 0
M  V30 1835 H 173.611 4.29826 -2.70576 0
M  V30 1836 H 173.541 5.14156 -1.13804 0
M  V30 1837 H 176.032 3.58138 -1.20606 0
M  V30 1838 H 176.345 7.10029 -3.05087 0
M  V30 1839 H 174.69 6.38823 -2.73734 0
M  V30 1840 H 177.881 4.4086 -1.57353 0
M  V30 1841 H 178.054 6.01334 -2.41457 0
M  V30 1842 N 171.46 0.379036 1.52974 0
M  V30 1843 C 172.708 -0.206014 2.01047 0
M  V30 1844 C 173.029 -1.48175 1.26765 0
M  V30 1845 O 172.299 -1.92085 0.384743 0
M  V30 1846 H 170.879 -0.0791184 0.742798 0
M  V30 1847 H 173.541 0.508366 1.88153 0
M  V30 1848 H 172.637 -0.423501 3.09213 0
M  V30 1849 N 172.938 -1.57226 0.108567 0
M  V30 1850 C 173.87 -2.11809 -0.875752 0
M  V30 1851 C 174.883 -1.05839 -1.23701 0
M  V30 1852 O 176.072 -1.33245 -1.18778 0
M  V30 1853 C 173.172 -2.59411 -2.18081 0
M  V30 1854 C 172.345 -3.89364 -1.99284 0
M  V30 1855 C 171.404 -4.22672 -3.13424 0
M  V30 1856 O 170.43 -4.91668 -2.86795 0
M  V30 1857 N 171.632 -3.79154 -4.3957 0
M  V30 1858 H 174.397 -2.9689 -0.409477 0
M  V30 1859 H 171.958 -1.61721 -0.076158 0
M  V30 1860 H 173.95 -2.7873 -2.93414 0
M  V30 1861 H 172.52 -1.79268 -2.5609 0
M  V30 1862 H 171.74 -3.79059 -1.08203 0
M  V30 1863 H 173.028 -4.74358 -1.84017 0
M  V30 1864 H 172.426 -3.23486 -4.64083 0
M  V30 1865 H 170.983 -4.03602 -5.11809 0
M  V30 1866 N 174.416 0.165178 -1.56732 0
M  V30 1867 C 175.326 1.22423 -2.00125 0
M  V30 1868 C 176.342 1.48084 -0.913619 0
M  V30 1869 O 177.518 1.60112 -1.22172 0
M  V30 1870 C 174.583 2.54197 -2.35764 0
M  V30 1871 C 173.644 2.36343 -3.58386 0
M  V30 1872 C 172.877 3.61834 -3.92316 0
M  V30 1873 O 173.1 4.67267 -3.27135 0
M  V30 1874 O 172.034 3.55579 -4.85641 0
M  V30 1875 H 175.86 0.885886 -2.90492 0
M  V30 1876 H 173.445 0.372518 -1.44681 0
M  V30 1877 H 175.327 3.3192 -2.59629 0
M  V30 1878 H 174.002 2.87598 -1.48557 0
M  V30 1879 H 172.909 1.56632 -3.39731 0
M  V30 1880 H 174.242 2.07865 -4.46154 0
M  V30 1881 N 175.894 1.51508 0.433938 0
M  V30 1882 C 177.119 1.68443 1.21003 0
M  V30 1883 C 177.544 0.382636 1.84167 0
M  V30 1884 O 176.902 -0.65755 1.68956 0
M  V30 1885 C 176.95 2.80405 2.26727 0
M  V30 1886 O 176.054 2.44245 3.32292 0
M  V30 1887 H 175.395 0.561536 0.354363 0
M  V30 1888 H 177.925 1.9809 0.512024 0
M  V30 1889 H 177.935 3.0459 2.71457 0
M  V30 1890 H 176.61 3.74867 1.80132 0
M  V30 1891 H 175.187 2.30644 2.93015 0
M  V30 1892 N 177.372 -0.689602 1.41712 0
M  V30 1893 C 178.619 -1.44966 1.4139 0
M  V30 1894 C 178.947 -1.94484 0.025105 0
M  V30 1895 O 178.202 -1.70307 -0.964048 0
M  V30 1896 C 178.501 -2.67298 2.37247 0
M  V30 1897 C 178.167 -2.36405 3.83958 0
M  V30 1898 C 176.829 -2.27691 4.23923 0
M  V30 1899 C 179.181 -2.11043 4.76561 0
M  V30 1900 C 176.509 -1.91719 5.54492 0
M  V30 1901 C 178.861 -1.76578 6.07456 0
M  V30 1902 C 177.525 -1.66363 6.46436 0
M  V30 1903 H 176.795 -0.53047 0.517381 0
M  V30 1904 H 179.442 -0.787655 1.74552 0
M  V30 1905 H 177.747 -3.38461 1.9736 0
M  V30 1906 H 179.444 -3.25452 2.34269 0
M  V30 1907 H 176.034 -2.44085 3.52308 0
M  V30 1908 H 180.218 -2.16717 4.46483 0
M  V30 1909 H 175.474 -1.82367 5.83568 0
M  V30 1910 H 179.648 -1.55974 6.78708 0
M  V30 1911 H 177.275 -1.38258 7.47522 0
M  V30 1912 N 178.85 -1.27639 -0.924453 0
M  V30 1913 C 180.261 -1.12834 -1.48746 0
M  V30 1914 C 180.612 0.285505 -1.94112 0
M  V30 1915 O 179.737 1.17874 -1.81479 0
M  V30 1916 C 180.332 -2.04217 -2.70334 0
M  V30 1917 C 178.891 -1.93509 -3.22848 0
M  V30 1918 C 178.038 -1.96583 -1.95577 0
M  V30 1919 H 180.989 -1.40484 -0.738233 0
M  V30 1920 H 181.01 -1.59989 -3.4523 0
M  V30 1921 H 180.522 -3.07111 -2.37285 0
M  V30 1922 H 178.623 -0.936131 -3.60649 0
M  V30 1923 H 178.736 -2.79917 -3.88823 0
M  V30 1924 H 177.1 -1.4085 -2.12211 0
M  V30 1925 H 177.883 -3.01137 -1.64837 0
M  V30 1926 N 180.328 1.1314 -1.09713 0
M  V30 1927 C 181.744 1.36477 -0.827423 0
M  V30 1928 C 181.944 1.93654 0.556817 0
M  V30 1929 O 181 2.15791 1.31112 0
M  V30 1930 C 182.313 2.31334 -1.92106 0
M  V30 1931 C 183.861 2.44943 -1.94864 0
M  V30 1932 C 184.336 3.4311 -3.0338 0
M  V30 1933 N 185.827 3.50662 -3.02639 0
M  V30 1934 C 186.562 4.2651 -3.83246 0
M  V30 1935 N 186.058 5.05485 -4.73768 0
M  V30 1936 N 187.851 4.2184 -3.71493 0
M  V30 1937 H 180.002 0.743807 -1.9895 0
M  V30 1938 H 182.265 0.389823 -0.864143 0
M  V30 1939 H 181.971 1.96483 -2.91698 0
M  V30 1940 H 181.845 3.31381 -1.80184 0
M  V30 1941 H 184.232 2.79079 -0.959099 0
M  V30 1942 H 184.313 1.4481 -2.10864 0
M  V30 1943 H 183.957 3.09704 -4.02549 0
M  V30 1944 H 183.887 4.43055 -2.84622 0
M  V30 1945 H 186.378 2.94315 -2.37039 0
M  V30 1946 H 186.691 5.60675 -5.3185 0
M  V30 1947 H 185.036 5.04708 -4.77802 0
M  V30 1948 H 188.227 3.5922 -3.00131 0
M  V30 1949 H 188.4 4.80697 -4.3455 0
M  V30 1950 N 181.806 0.884767 1.30421 0
M  V30 1951 C 183.034 0.518044 2.0031 0
M  V30 1952 C 183.449 -0.893408 1.66324 0
M  V30 1953 O 182.806 -1.5875 0.900262 0
M  V30 1954 C 182.857 0.682997 3.54989 0
M  V30 1955 O 182.578 2.03888 3.87764 0
M  V30 1956 C 184.079 0.31924 4.42149 0
M  V30 1957 H 181.299 0.200265 0.640418 0
M  V30 1958 H 183.843 1.19001 1.6631 0
M  V30 1959 H 181.998 0.0584052 3.87356 0
M  V30 1960 H 182.412 2.05735 4.82466 0
M  V30 1961 H 183.886 0.485555 5.4986 0
M  V30 1962 H 184.363 -0.742717 4.32875 0
M  V30 1963 H 184.969 0.920147 4.15227 0
M  V30 1964 N 183.284 -1.43765 0.645699 0
M  V30 1965 C 184.247 -2.29163 -0.0409488 0
M  V30 1966 C 185.247 -1.41813 -0.757996 0
M  V30 1967 O 186.437 -1.63527 -0.600382 0
M  V30 1968 C 183.569 -3.23716 -1.06869 0
M  V30 1969 H 184.762 -2.91366 0.710345 0
M  V30 1970 H 182.315 -1.5092 0.406547 0
M  V30 1971 H 183.05 -2.66393 -1.84947 0
M  V30 1972 H 182.835 -3.88105 -0.558277 0
M  V30 1973 H 184.325 -3.87831 -1.54845 0
M  V30 1974 N 184.763 -0.387143 -1.52771 0
M  V30 1975 C 186.011 0.195349 -2.01154 0
M  V30 1976 C 186.332 1.475 -1.27549 0
M  V30 1977 O 185.602 1.91878 -0.394924 0
M  V30 1978 H 184.182 0.075178 -0.743207 0
M  V30 1979 H 186.844 -0.518337 -1.87881 0
M  V30 1980 H 185.94 0.407096 -3.09434 0
M  V30 1981 N 186.241 1.57166 -0.116904 0
M  V30 1982 C 187.173 2.12271 0.864507 0
M  V30 1983 C 188.186 1.06494 1.23138 0
M  V30 1984 O 189.375 1.33873 1.18069 0
M  V30 1985 C 186.475 2.60564 2.16702 0
M  V30 1986 C 185.648 3.90416 1.97216 0
M  V30 1987 C 184.707 4.24329 3.11178 0
M  V30 1988 O 183.733 4.93182 2.84184 0
M  V30 1989 N 184.935 3.8148 4.37554 0
M  V30 1990 H 187.7 2.97102 0.393726 0
M  V30 1991 H 185.261 1.61759 0.0675805 0
M  V30 1992 H 187.253 2.80282 2.91932 0
M  V30 1993 H 185.823 1.80623 2.55135 0
M  V30 1994 H 185.043 3.79627 1.06192 0
M  V30 1995 H 186.331 4.75327 1.81499 0
M  V30 1996 H 185.729 3.25943 4.62361 0
M  V30 1997 H 184.286 4.06311 5.09661 0
M  V30 1998 N 187.719 -0.156864 1.56817 0
M  V30 1999 C 188.629 -1.2136 2.00771 0
M  V30 2000 C 189.645 -1.47598 0.921459 0
M  V30 2001 O 190.821 -1.59462 1.2302 0
M  V30 2002 C 187.886 -2.52943 2.37109 0
M  V30 2003 C 186.947 -2.34439 3.59634 0
M  V30 2004 C 186.18 -3.59748 3.94229 0
M  V30 2005 O 186.403 -4.65526 3.29609 0
M  V30 2006 O 185.337 -3.52998 4.8752 0
M  V30 2007 H 189.163 -0.870468 2.90958 0
M  V30 2008 H 186.748 -0.36484 1.44877 0
M  V30 2009 H 188.63 -3.30538 2.61386 0
M  V30 2010 H 187.305 -2.86806 1.5008 0
M  V30 2011 H 186.212 -1.54828 3.40557 0
M  V30 2012 H 187.545 -2.05496 4.4725 0
M  V30 2013 N 189.197 -1.51736 -0.425897 0
M  V30 2014 C 190.474 -1.55519 -1.1863 0
M  V30 2015 C 190.854 -0.326219 -2.08564 0
M  V30 2016 O 190.202 0.688012 -2.17896 0
M  V30 2017 C 190.412 -2.87521 -1.9782 0
M  V30 2018 C 191.76 -3.39899 -2.54468 0
M  V30 2019 O 192.784 -2.89148 -2.08019 0
M  V30 2020 O 191.643 -4.2848 -3.39215 0
M  V30 2021 H 188.737 -0.625739 -0.540721 0
M  V30 2022 H 191.283 -1.64055 -0.434038 0
M  V30 2023 H 190.055 -3.68422 -1.31836 0
M  V30 2024 H 189.678 -2.822 -2.80088 0
M  V30 2025 N 190.675 0.682077 -1.42076 0
M  V30 2026 C 192.091 0.994324 -1.24841 0
M  V30 2027 C 192.291 2.0096 -0.147389 0
M  V30 2028 O 191.347 2.47822 0.483782 0
M  V30 2029 C 192.66 1.50607 -2.60265 0
M  V30 2030 C 194.208 1.62421 -2.6756 0
M  V30 2031 C 194.683 2.16994 -4.03333 0
M  V30 2032 N 196.174 2.24337 -4.0525 0
M  V30 2033 C 196.909 2.67621 -5.07116 0
M  V30 2034 N 196.405 3.1041 -6.19368 0
M  V30 2035 N 198.198 2.67305 -4.94474 0
M  V30 2036 H 190.349 0.00973908 -2.12398 0
M  V30 2037 H 192.612 0.0668593 -0.945639 0
M  V30 2038 H 192.318 0.834583 -3.41654 0
M  V30 2039 H 192.192 2.48602 -2.83684 0
M  V30 2040 H 194.579 2.28678 -1.86521 0
M  V30 2041 H 194.66 0.629352 -2.47937 0
M  V30 2042 H 194.304 1.51349 -4.84826 0
M  V30 2043 H 194.234 3.17258 -4.20304 0
M  V30 2044 H 196.725 1.94158 -3.24209 0
M  V30 2045 H 197.038 3.42103 -6.92954 0
M  V30 2046 H 195.383 3.08286 -6.22884 0
M  V30 2047 H 198.574 2.33233 -4.05857 0
M  V30 2048 H 198.747 3.00718 -5.73997 0
M  V30 2049 N 192.153 1.28127 0.917671 0
M  V30 2050 C 193.378 1.18007 1.70555 0
M  V30 2051 C 193.803 -0.258257 1.86319 0
M  V30 2052 O 193.161 -1.1869 1.37049 0
M  V30 2053 C 193.209 1.87948 3.07746 0
M  V30 2054 O 192.313 1.18427 3.9503 0
M  V30 2055 H 191.654 0.409867 0.522403 0
M  V30 2056 H 194.184 1.69379 1.1477 0
M  V30 2057 H 194.194 1.95701 3.58001 0
M  V30 2058 H 192.869 2.92573 2.95591 0
M  V30 2059 H 191.446 1.18811 3.53466 0
M  V30 2060 N 193.631 -1.12557 1.10312 0
M  V30 2061 C 194.561 -2.20341 0.772798 0
M  V30 2062 C 195.542 -1.68198 -0.25365 0
M  V30 2063 O 196.727 -1.93831 -0.119699 0
M  V30 2064 C 193.857 -3.46709 0.202443 0
M  V30 2065 C 192.811 -4.11996 1.15943 0
M  V30 2066 C 192.137 -5.328 0.450345 0
M  V30 2067 C 193.437 -4.5828 2.50552 0
M  V30 2068 H 195.131 -2.48229 1.674 0
M  V30 2069 H 192.677 -1.19308 0.806326 0
M  V30 2070 H 194.63 -4.2138 -0.0407752 0
M  V30 2071 H 193.354 -3.18245 -0.734001 0
M  V30 2072 H 192.013 -3.39305 1.38808 0
M  V30 2073 H 191.661 -5.00602 -0.490531 0
M  V30 2074 H 191.361 -5.7743 1.08851 0
M  V30 2075 H 192.885 -6.10219 0.215642 0
M  V30 2076 H 194.299 -5.2433 2.31843 0
M  V30 2077 H 192.696 -5.13683 3.10242 0
M  V30 2078 H 193.766 -3.72329 3.10643 0
M  V30 2079 N 195.109 -0.891671 -1.2995 0
M  V30 2080 C 196.056 -0.361736 -2.27948 0
M  V30 2081 C 197.026 0.551761 -1.56668 0
M  V30 2082 O 198.211 0.478736 -1.84696 0
M  V30 2083 C 195.351 0.411825 -3.42634 0
M  V30 2084 C 194.464 -0.531651 -4.28716 0
M  V30 2085 C 193.599 0.258167 -5.30572 0
M  V30 2086 C 192.638 -0.680349 -6.08307 0
M  V30 2087 N 191.775 0.0745613 -7.0206 0
M  V30 2088 H 196.615 -1.20254 -2.72659 0
M  V30 2089 H 194.152 -0.604352 -1.34112 0
M  V30 2090 H 196.11 0.876304 -4.07893 0
M  V30 2091 H 194.74 1.21715 -2.98974 0
M  V30 2092 H 193.792 -1.11463 -3.63703 0
M  V30 2093 H 195.104 -1.25038 -4.82874 0
M  V30 2094 H 194.258 0.784204 -6.0161 0
M  V30 2095 H 192.997 1.01008 -4.77126 0
M  V30 2096 H 192.002 -1.21796 -5.3614 0
M  V30 2097 H 193.227 -1.43145 -6.63842 0
M  V30 2098 H 191.173 0.808883 -6.50994 0
M  V30 2099 H 191.09 -0.584409 -7.53738 0
M  V30 2100 H 192.358 0.581123 -7.77331 0
M  V30 2101 N 196.587 1.43421 -0.653314 0
M  V30 2102 C 197.836 2.01032 -0.164076 0
M  V30 2103 C 198.149 1.52147 1.22926 0
M  V30 2104 O 199.355 2.02031 1.81371 0
M  V30 2105 C 197.811 3.59082 -0.24252 0
M  V30 2106 C 197.419 4.1696 -1.63855 0
M  V30 2107 C 199.163 4.24079 0.18911 0
M  V30 2108 C 197.07 5.67304 -1.67092 0
M  V30 2109 H 196 0.751798 -0.0575769 0
M  V30 2110 H 198.651 1.6439 -0.815362 0
M  V30 2111 H 197.033 3.93125 0.476276 0
M  V30 2112 H 198.207 3.94416 -2.38271 0
M  V30 2113 H 196.522 3.64335 -2.01616 0
M  V30 2114 H 199.119 5.34381 0.184775 0
M  V30 2115 H 199.462 3.98005 1.22056 0
M  V30 2116 H 199.995 3.94918 -0.477938 0
M  V30 2117 H 196.734 5.98145 -2.68146 0
M  V30 2118 H 196.254 5.91904 -0.970014 0
M  V30 2119 H 197.933 6.31344 -1.4147 0
M  V30 2120 N 198.065 0.39524 1.52563 0
M  V30 2121 C 199.314 -0.186321 2.00838 0
M  V30 2122 C 199.627 -1.47402 1.28577 0
M  V30 2123 O 200.833 -2.13599 1.67593 0
M  V30 2124 C 199.289 -0.382595 3.57861 0
M  V30 2125 C 198.897 0.892202 4.39026 0
M  V30 2126 C 200.641 -0.9202 4.14406 0
M  V30 2127 C 198.548 0.66388 5.87662 0
M  V30 2128 H 197.478 -0.0734041 0.750418 0
M  V30 2129 H 200.129 0.518552 1.76021 0
M  V30 2130 H 198.511 -1.14946 3.7895 0
M  V30 2131 H 199.685 1.66414 4.29701 0
M  V30 2132 H 198 1.35519 3.9373 0
M  V30 2133 H 200.597 -1.10683 5.23119 0
M  V30 2134 H 200.94 -1.89096 3.70875 0
M  V30 2135 H 201.473 -0.212751 3.97231 0
M  V30 2136 H 198.212 1.6058 6.35527 0
M  V30 2137 H 197.732 -0.0690193 5.9976 0
M  V30 2138 H 199.411 0.300699 6.46301 0
M  V30 2139 N 199.544 -1.57102 0.125237 0
M  V30 2140 C 200.491 -2.15641 -0.822655 0
M  V30 2141 C 201.461 -1.08313 -1.25927 0
M  V30 2142 O 202.646 -1.36251 -1.33567 0
M  V30 2143 C 199.786 -2.76504 -2.06494 0
M  V30 2144 C 198.899 -3.98158 -1.67612 0
M  V30 2145 C 198.034 -4.47088 -2.86854 0
M  V30 2146 C 197.073 -5.6126 -2.44242 0
M  V30 2147 N 196.21 -6.04905 -3.56419 0
M  V30 2148 H 201.05 -2.96313 -0.316625 0
M  V30 2149 H 198.587 -1.46388 -0.144588 0
M  V30 2150 H 200.545 -3.09925 -2.79289 0
M  V30 2151 H 199.175 -1.98512 -2.54545 0
M  V30 2152 H 198.227 -3.70858 -0.846661 0
M  V30 2153 H 199.539 -4.80934 -1.32301 0
M  V30 2154 H 198.693 -4.82451 -3.67867 0
M  V30 2155 H 197.432 -3.63275 -3.25396 0
M  V30 2156 H 196.437 -5.25495 -1.61663 0
M  V30 2157 H 197.662 -6.46843 -2.0681 0
M  V30 2158 H 195.608 -5.24032 -3.94623 0
M  V30 2159 H 195.525 -6.82552 -3.25051 0
M  V30 2160 H 196.793 -6.44907 -4.37853 0
M  V30 2161 N 201.022 0.148545 -1.56898 0
M  V30 2162 C 202.438 0.501131 -1.51528 0
M  V30 2163 C 202.638 1.83458 -0.833399 0
M  V30 2164 O 201.694 2.49259 -0.40328 0
M  V30 2165 C 203.007 0.512864 -2.96294 0
M  V30 2166 C 204.555 0.598487 -3.07225 0
M  V30 2167 C 205.03 0.640897 -4.53494 0
M  V30 2168 N 206.521 0.703163 -4.57832 0
M  V30 2169 C 207.256 0.756935 -5.68382 0
M  V30 2170 N 206.752 0.770147 -6.88506 0
M  V30 2171 N 208.545 0.797698 -5.56411 0
M  V30 2172 H 200.696 -0.725532 -1.99624 0
M  V30 2173 H 202.959 -0.264358 -0.910395 0
M  V30 2174 H 202.665 -0.398691 -3.49433 0
M  V30 2175 H 202.539 1.35133 -3.52163 0
M  V30 2176 H 204.926 1.50046 -2.54106 0
M  V30 2177 H 205.007 -0.267093 -2.54402 0
M  V30 2178 H 204.651 -0.256915 -5.0725 0
M  V30 2179 H 204.581 1.52295 -5.04097 0
M  V30 2180 H 207.072 0.700314 -3.71354 0
M  V30 2181 H 207.385 0.812983 -7.68512 0
M  V30 2182 H 205.73 0.738049 -6.9107 0
M  V30 2183 H 208.921 0.784535 -4.61479 0
M  V30 2184 H 209.094 0.83614 -6.42583 0
M  V30 2185 N 202.5 1.5196 0.417844 0
M  V30 2186 C 203.728 1.69426 1.18753 0
M  V30 2187 C 204.143 0.399955 1.84515 0
M  V30 2188 O 203.5 -0.623288 1.71527 0
M  V30 2189 C 203.551 2.82375 2.25714 0
M  V30 2190 O 203.272 4.06793 1.62638 0
M  V30 2191 C 204.773 3.11277 3.15628 0
M  V30 2192 H 201.993 0.568031 0.357186 0
M  V30 2193 H 204.537 1.98475 0.49273 0
M  V30 2194 H 202.692 2.5587 2.90877 0
M  V30 2195 H 203.106 4.69667 2.3348 0
M  V30 2196 H 204.58 3.93843 3.86771 0
M  V30 2197 H 205.057 2.24473 3.77503 0
M  V30 2198 H 205.663 3.39515 2.56144 0
M  V30 2199 N 203.978 -0.674533 1.42435 0
M  V30 2200 C 204.925 -1.78807 1.45934 0
M  V30 2201 C 205.895 -1.63157 0.311271 0
M  V30 2202 O 207.08 -1.83707 0.515383 0
M  V30 2203 C 204.22 -3.16839 1.36773 0
M  V30 2204 C 203.333 -3.43774 2.61617 0
M  V30 2205 C 202.468 -4.71536 2.44597 0
M  V30 2206 C 201.507 -4.91505 3.64814 0
M  V30 2207 N 200.644 -6.10508 3.46734 0
M  V30 2208 H 205.484 -1.75151 2.41093 0
M  V30 2209 H 203.021 -0.85504 1.19697 0
M  V30 2210 H 204.979 -3.96606 1.29459 0
M  V30 2211 H 203.609 -3.19619 0.452089 0
M  V30 2212 H 202.661 -2.58259 2.79297 0
M  V30 2213 H 203.973 -3.54423 3.50978 0
M  V30 2214 H 203.127 -5.59393 2.3487 0
M  V30 2215 H 201.866 -4.6317 1.52726 0
M  V30 2216 H 200.871 -4.0209 3.74972 0
M  V30 2217 H 202.096 -5.01716 4.57665 0
M  V30 2218 H 200.042 -6.03315 2.5758 0
M  V30 2219 H 199.959 -6.2202 4.29682 0
M  V30 2220 H 201.227 -7.01044 3.40819 0
M  V30 2221 N 205.456 -1.28612 -0.910864 0
M  V30 2222 C 206.403 -1.12786 -2.01365 0
M  V30 2223 C 207.373 -0.024201 -1.66082 0
M  V30 2224 O 208.558 -0.189667 -1.89855 0
M  V30 2225 C 205.698 -0.798743 -3.35729 0
M  V30 2226 C 204.811 -1.98173 -3.83864 0
M  V30 2227 C 203.946 -1.59298 -5.06752 0
M  V30 2228 C 202.985 -2.74245 -5.47226 0
M  V30 2229 N 202.122 -2.35842 -6.61304 0
M  V30 2230 H 206.962 -2.07142 -2.14234 0
M  V30 2231 H 204.499 -1.03093 -1.0493 0
M  V30 2232 H 206.457 -0.588662 -4.13026 0
M  V30 2233 H 205.087 0.10789 -3.2262 0
M  V30 2234 H 204.139 -2.30386 -3.02699 0
M  V30 2235 H 205.451 -2.84343 -4.09818 0
M  V30 2236 H 204.605 -1.34513 -5.916 0
M  V30 2237 H 203.344 -0.702618 -4.82612 0
M  V30 2238 H 202.349 -2.99725 -4.60918 0
M  V30 2239 H 203.574 -3.63928 -5.73353 0
M  V30 2240 H 201.52 -1.49279 -6.38789 0
M  V30 2241 H 201.437 -3.15546 -6.86998 0
M  V30 2242 H 202.705 -2.14348 -7.4945 0
M  V30 2243 N 206.934 1.1197 -1.10907 0
M  V30 2244 C 208.345 1.65114 -0.871446 0
M  V30 2245 C 208.696 1.86885 0.597353 0
M  V30 2246 O 207.821 1.59896 1.45816 0
M  V30 2247 C 208.416 2.99944 -1.5754 0
M  V30 2248 C 206.975 3.50018 -1.38435 0
M  V30 2249 C 206.122 2.24941 -1.62164 0
M  V30 2250 H 209.073 0.956851 -1.2661 0
M  V30 2251 H 209.094 3.66651 -1.01721 0
M  V30 2252 H 208.606 2.84067 -2.64438 0
M  V30 2253 H 206.707 3.71071 -0.337214 0
M  V30 2254 H 206.82 4.29165 -2.12965 0
M  V30 2255 H 205.184 2.3229 -1.04467 0
M  V30 2256 H 205.967 2.11612 -2.70324 0
M  V30 2257 N 208.412 0.89855 1.29475 0
M  V30 2258 C 209.689 0.443416 1.90508 0
M  V30 2259 C 210.069 -1.07685 1.81569 0
M  V30 2260 O 209.417 -1.9182 1.24166 0
M  V30 2261 C 209.627 0.956708 3.35631 0
M  V30 2262 C 210.975 0.999728 4.12663 0
M  V30 2263 O 211.999 0.904299 3.4453 0
M  V30 2264 O 210.858 1.14289 5.34416 0
M  V30 2265 H 207.952 0.138025 0.815401 0
M  V30 2266 H 210.498 0.98834 1.37949 0
M  V30 2267 H 209.27 2.00067 3.36287 0
M  V30 2268 H 208.893 0.391728 3.95666 0
M  V30 2269 N 209.89 -1.43072 0.660911 0
M  V30 2270 C 210.82 -2.33497 -0.0122829 0
M  V30 2271 C 211.801 -1.49903 -0.803925 0
M  V30 2272 O 212.986 -1.78546 -0.763864 0
M  V30 2273 C 210.116 -3.33363 -0.973994 0
M  V30 2274 C 209.07 -4.27003 -0.291928 0
M  V30 2275 C 208.396 -5.16967 -1.36562 0
M  V30 2276 C 209.696 -5.15816 0.820462 0
M  V30 2277 H 211.39 -2.90038 0.742873 0
M  V30 2278 H 208.936 -1.39461 0.358688 0
M  V30 2279 H 210.889 -3.95524 -1.45392 0
M  V30 2280 H 209.613 -2.75095 -1.7604 0
M  V30 2281 H 208.272 -3.66217 0.167623 0
M  V30 2282 H 207.92 -4.55034 -2.14366 0
M  V30 2283 H 207.62 -5.80441 -0.914454 0
M  V30 2284 H 209.144 -5.82003 -1.84675 0
M  V30 2285 H 210.558 -5.71742 0.422366 0
M  V30 2286 H 208.955 -5.8805 1.19656 0
M  V30 2287 H 210.025 -4.55045 1.67518 0
M  V30 2288 N 211.368 -0.403325 -1.52352 0
M  V30 2289 C 212.3 0.4603 -2.2453 0
M  V30 2290 C 213.313 1.01505 -1.27282 0
M  V30 2291 O 214.502 0.914982 -1.53266 0
M  V30 2292 C 211.602 1.65208 -2.95905 0
M  V30 2293 C 210.775 1.22224 -4.19976 0
M  V30 2294 C 209.834 2.28028 -4.74226 0
M  V30 2295 O 208.86 1.88857 -5.36956 0
M  V30 2296 N 210.062 3.6012 -4.55295 0
M  V30 2297 H 212.827 -0.158156 -2.99282 0
M  V30 2298 H 210.388 -0.230402 -1.60252 0
M  V30 2299 H 212.38 2.35541 -3.29093 0
M  V30 2300 H 210.95 2.17658 -2.24374 0
M  V30 2301 H 210.17 0.34725 -3.92668 0
M  V30 2302 H 211.458 0.911924 -5.00561 0
M  V30 2303 H 210.856 3.94698 -4.05253 0
M  V30 2304 H 209.413 4.26447 -4.92936 0
M  V30 2305 N 212.846 1.57033 -0.133567 0
M  V30 2306 C 214.095 1.94861 0.520768 0
M  V30 2307 C 214.408 1.02012 1.66892 0
M  V30 2308 O 215.614 1.29365 2.38699 0
M  V30 2309 C 214.07 3.46362 0.977809 0
M  V30 2310 C 213.678 4.47773 -0.142674 0
M  V30 2311 C 215.422 3.93083 1.60269 0
M  V30 2312 C 213.329 5.90468 0.331883 0
M  V30 2313 H 212.259 0.727453 0.198315 0
M  V30 2314 H 214.91 1.82227 -0.215759 0
M  V30 2315 H 213.292 3.54282 1.7692 0
M  V30 2316 H 214.466 4.51536 -0.919317 0
M  V30 2317 H 212.781 4.10891 -0.675124 0
M  V30 2318 H 215.378 4.97121 1.96914 0
M  V30 2319 H 215.721 3.33876 2.48662 0
M  V30 2320 H 216.254 3.88025 0.876453 0
M  V30 2321 H 212.993 6.53463 -0.516341 0
M  V30 2322 H 212.513 5.90094 1.07469 0
M  V30 2323 H 214.192 6.42179 0.788332 0
M  V30 2324 N 214.325 -0.140222 1.56975 0
M  V30 2325 C 215.555 -0.865181 1.87612 0
M  V30 2326 C 215.963 -1.74942 0.72055 0
M  V30 2327 O 215.306 -1.80917 -0.318561 0
M  V30 2328 C 215.368 -1.76782 3.13031 0
M  V30 2329 C 215.032 -1.06005 4.44536 0
M  V30 2330 C 216.029 -0.410768 5.18275 0
M  V30 2331 C 213.714 -1.04754 4.91255 0
M  V30 2332 C 215.708 0.241572 6.36942 0
M  V30 2333 C 213.395 -0.391394 6.09845 0
M  V30 2334 C 214.393 0.252029 6.82535 0
M  V30 2335 O 214.081 0.897757 7.98871 0
M  V30 2336 H 213.813 -0.255188 0.625983 0
M  V30 2337 H 216.367 -0.135653 2.04952 0
M  V30 2338 H 214.597 -2.53846 2.91718 0
M  V30 2339 H 216.286 -2.36533 3.29859 0
M  V30 2340 H 217.052 -0.412195 4.83245 0
M  V30 2341 H 212.931 -1.53777 4.34596 0
M  V30 2342 H 216.475 0.744375 6.93617 0
M  V30 2343 H 212.372 -0.387656 6.44335 0
M  V30 2344 H 213.14 0.800102 8.1458 0
M  V30 2345 N 215.803 -1.52179 -0.40978 0
M  V30 2346 C 216.735 -1.71703 -1.51825 0
M  V30 2347 C 217.748 -0.597445 -1.51441 0
M  V30 2348 O 218.937 -0.872582 -1.55719 0
M  V30 2349 C 216.037 -1.74171 -2.90719 0
M  V30 2350 C 215.21 -3.03156 -3.15302 0
M  V30 2351 C 214.269 -2.97445 -4.34065 0
M  V30 2352 O 213.295 -3.71352 -4.31377 0
M  V30 2353 N 214.497 -2.15191 -5.39141 0
M  V30 2354 H 217.262 -2.67334 -1.35472 0
M  V30 2355 H 214.823 -1.50409 -0.599069 0
M  V30 2356 H 216.815 -1.67884 -3.68235 0
M  V30 2357 H 215.385 -0.860166 -3.00533 0
M  V30 2358 H 214.605 -3.23097 -2.25836 0
M  V30 2359 H 215.893 -3.88484 -3.28569 0
M  V30 2360 H 215.291 -1.54573 -5.44173 0
M  V30 2361 H 213.848 -2.1476 -6.15403 0
M  V30 2362 N 217.281 0.66697 -1.42791 0
M  V30 2363 C 218.692 1.2478 -1.38877 0
M  V30 2364 C 219.043 1.96012 -0.0859426 0
M  V30 2365 O 218.168 2.00463 0.815081 0
M  V30 2366 C 218.763 2.26938 -2.51564 0
M  V30 2367 C 217.322 2.80529 -2.50959 0
M  V30 2368 C 216.469 1.54965 -2.29959 0
M  V30 2369 H 219.42 0.459853 -1.51892 0
M  V30 2370 H 219.441 3.08834 -2.22265 0
M  V30 2371 H 218.953 1.75065 -3.46372 0
M  V30 2372 H 217.054 3.36502 -1.59991 0
M  V30 2373 H 217.167 3.29012 -3.48265 0
M  V30 2374 H 215.531 1.81817 -1.78366 0
M  V30 2375 H 216.314 1.05047 -3.26833 0
M  V30 2376 N 218.759 1.29093 0.90403 0
M  V30 2377 C 220.007 1.16583 1.65085 0
M  V30 2378 C 220.328 -0.283933 1.92922 0
M  V30 2379 O 219.598 -1.19509 1.55224 0
M  V30 2380 H 218.178 0.428467 0.611903 0
M  V30 2381 H 220.84 1.61959 1.08422 0
M  V30 2382 H 219.936 1.71266 2.6091 0
M  V30 2383 N 220.237 -1.11381 1.11499 0
M  V30 2384 C 221.653 -1.35143 0.849031 0
M  V30 2385 C 221.853 -1.94515 -0.525938 0
M  V30 2386 O 220.909 -2.1785 -1.27662 0
M  V30 2387 C 222.222 -2.28249 1.95762 0
M  V30 2388 C 223.77 -2.41812 1.98736 0
M  V30 2389 C 224.245 -3.3824 3.088 0
M  V30 2390 N 225.736 -3.45803 3.08179 0
M  V30 2391 C 226.471 -4.20358 3.89982 0
M  V30 2392 N 225.967 -4.97884 4.8175 0
M  V30 2393 N 227.76 -4.15877 3.78157 0
M  V30 2394 H 219.911 -0.712062 2.00109 0
M  V30 2395 H 222.174 -0.376025 0.870235 0
M  V30 2396 H 221.88 -1.91817 2.94787 0
M  V30 2397 H 221.754 -3.28473 1.85433 0
M  V30 2398 H 224.141 -2.77518 1.00338 0
M  V30 2399 H 224.222 -1.41437 2.13141 0
M  V30 2400 H 223.866 -3.03261 4.07425 0
M  V30 2401 H 223.796 -4.38471 2.91635 0
M  V30 2402 H 226.287 -2.90506 2.41691 0
M  V30 2403 H 226.6 -5.52142 5.40702 0
M  V30 2404 H 224.945 -4.97043 4.85771 0
M  V30 2405 H 228.136 -3.544 3.05808 0
M  V30 2406 H 228.309 -4.73723 4.42143 0
M  V30 2407 N 221.715 -0.905404 -1.28997 0
M  V30 2408 C 223.131 -0.60233 -1.47798 0
M  V30 2409 C 223.331 0.854645 -1.82478 0
M  V30 2410 O 222.387 1.63439 -1.92468 0
M  V30 2411 C 223.7 -1.53306 -2.58685 0
M  V30 2412 C 225.248 -1.53887 -2.72558 0
M  V30 2413 C 225.723 -2.45602 -3.86579 0
M  V30 2414 N 227.214 -2.43681 -3.93921 0
M  V30 2415 C 227.949 -3.11347 -4.81509 0
M  V30 2416 N 227.445 -3.88313 -5.73746 0
M  V30 2417 N 229.238 -3.00476 -4.75048 0
M  V30 2418 H 221.389 -1.84765 -1.04764 0
M  V30 2419 H 223.652 -0.792025 -0.520961 0
M  V30 2420 H 223.358 -2.57141 -2.39941 0
M  V30 2421 H 223.232 -1.25787 -3.55609 0
M  V30 2422 H 225.619 -0.507941 -2.90696 0
M  V30 2423 H 225.7 -1.85447 -1.76191 0
M  V30 2424 H 225.344 -3.48792 -3.69197 0
M  V30 2425 H 225.274 -2.11349 -4.82327 0
M  V30 2426 H 227.765 -1.87767 -3.27951 0
M  V30 2427 H 228.078 -4.36985 -6.37389 0
M  V30 2428 H 226.423 -3.92419 -5.73614 0
M  V30 2429 H 229.614 -2.39858 -4.01977 0
M  V30 2430 H 229.787 -3.53485 -5.43095 0
M  V30 2431 N 223.193 1.4272 -0.668489 0
M  V30 2432 C 224.123 2.335 -0.000100175 0
M  V30 2433 C 225.104 1.50328 0.795964 0
M  V30 2434 O 226.289 1.78949 0.754385 0
M  V30 2435 C 223.419 3.33874 0.956302 0
M  V30 2436 C 222.373 4.27152 0.269278 0
M  V30 2437 C 221.699 5.17684 1.33818 0
M  V30 2438 C 222.999 5.15373 -0.847805 0
M  V30 2439 H 224.693 2.89639 -0.758244 0
M  V30 2440 H 222.239 1.39269 -0.366079 0
M  V30 2441 H 224.192 3.9629 1.43292 0
M  V30 2442 H 222.916 2.76025 1.74579 0
M  V30 2443 H 221.575 3.66123 -0.187042 0
M  V30 2444 H 221.223 4.56165 2.1195 0
M  V30 2445 H 220.923 5.80918 0.883659 0
M  V30 2446 H 222.447 5.82974 1.81586 0
M  V30 2447 H 223.861 5.7151 -0.452681 0
M  V30 2448 H 222.258 5.87407 -1.22773 0
M  V30 2449 H 223.328 4.5415 -1.69929 0
M  V30 2450 N 224.671 0.411399 1.52136 0
M  V30 2451 C 225.603 -0.448386 2.24771 0
M  V30 2452 C 226.616 -1.00828 1.27818 0
M  V30 2453 O 227.805 -0.906841 1.53749 0
M  V30 2454 C 224.905 -1.63636 2.96777 0
M  V30 2455 C 224.078 -1.19995 4.20618 0
M  V30 2456 C 223.137 -2.25509 4.75428 0
M  V30 2457 O 222.163 -1.86007 5.3795 0
M  V30 2458 N 223.365 -3.577 4.57199 0
M  V30 2459 H 226.13 0.174025 2.99194 0
M  V30 2460 H 223.691 0.238897 1.60128 0
M  V30 2461 H 225.683 -2.33793 3.30338 0
M  V30 2462 H 224.253 -2.16465 2.25526 0
M  V30 2463 H 223.473 -0.326421 3.92846 0
M  V30 2464 H 224.761 -0.885365 5.01038 0
M  V30 2465 H 224.159 -3.92543 4.07341 0
M  V30 2466 H 222.716 -4.23827 4.95191 0
M  V30 2467 N 226.149 -1.5696 0.141893 0
M  V30 2468 C 227.377 -2.00322 -0.517579 0
M  V30 2469 C 227.792 -1.02193 -1.58752 0
M  V30 2470 O 227.149 -0.0181619 -1.82491 0
M  V30 2471 C 227.2 -3.43618 -1.12289 0
M  V30 2472 O 226.921 -4.37995 -0.0956929 0
M  V30 2473 C 228.422 -4.02231 -1.86347 0
M  V30 2474 H 225.642 -0.657243 -0.135177 0
M  V30 2475 H 228.186 -2.03146 0.234973 0
M  V30 2476 H 226.341 -3.41662 -1.82609 0
M  V30 2477 H 226.755 -5.21729 -0.538469 0
M  V30 2478 H 228.229 -5.04509 -2.23997 0
M  V30 2479 H 228.706 -3.42655 -2.74744 0
M  V30 2480 H 229.312 -4.07802 -1.20737 0
M  V30 2481 N 227.627 0.131896 -1.57047 0
M  V30 2482 C 228.873 0.843179 -1.84441 0
M  V30 2483 C 229.206 1.80129 -0.725749 0
M  V30 2484 O 228.481 1.92624 0.269469 0
M  V30 2485 C 228.764 1.60442 -3.22382 0
M  V30 2486 C 228.617 0.666782 -4.4483 0
M  V30 2487 C 229.936 2.56354 -3.5773 0
M  V30 2488 H 227.055 0.305081 -0.670891 0
M  V30 2489 H 229.697 0.107839 -1.89694 0
M  V30 2490 H 227.847 2.23128 -3.18035 0
M  V30 2491 H 229.519 0.0497646 -4.61273 0
M  V30 2492 H 227.762 -0.022609 -4.33794 0
M  V30 2493 H 228.433 1.23579 -5.37989 0
M  V30 2494 H 230.909 2.0378 -3.62785 0
M  V30 2495 H 229.785 3.06657 -4.5525 0
M  V30 2496 H 230.046 3.38419 -2.84473 0
M  V30 2497 N 229.106 1.52395 0.401703 0
M  V30 2498 C 230.331 1.70972 1.17403 0
M  V30 2499 C 230.756 0.421615 1.83314 0
M  V30 2500 O 230.114 -0.621564 1.70312 0
M  V30 2501 C 230.162 2.85151 2.20728 0
M  V30 2502 O 229.266 2.51238 3.27037 0
M  V30 2503 H 228.607 0.568927 0.342372 0
M  V30 2504 H 231.137 1.99131 0.469891 0
M  V30 2505 H 231.147 3.10279 2.64936 0
M  V30 2506 H 229.822 3.78603 1.7214 0
M  V30 2507 H 228.399 2.36808 2.88057 0
M  V30 2508 N 230.584 -0.659388 1.43143 0
M  V30 2509 C 231.531 -1.77249 1.47822 0
M  V30 2510 C 232.501 -1.62818 0.328558 0
M  V30 2511 O 233.686 -1.83151 0.534838 0
M  V30 2512 C 230.826 -3.15371 1.40126 0
M  V30 2513 C 229.939 -3.4098 2.65249 0
M  V30 2514 C 229.074 -4.68915 2.49584 0
M  V30 2515 C 228.113 -4.87608 3.70006 0
M  V30 2516 N 227.25 -6.06796 3.53189 0
M  V30 2517 H 232.09 -1.72584 2.42938 0
M  V30 2518 H 229.627 -0.842297 1.20598 0
M  V30 2519 H 231.585 -3.9521 1.33659 0
M  V30 2520 H 230.215 -3.19121 0.485964 0
M  V30 2521 H 229.267 -2.55282 2.8202 0
M  V30 2522 H 230.579 -3.50681 3.54717 0
M  V30 2523 H 229.733 -5.56871 2.4079 0
M  V30 2524 H 228.472 -4.61524 1.5763 0
M  V30 2525 H 227.477 -3.9809 3.79215 0
M  V30 2526 H 228.702 -4.96834 4.62961 0
M  V30 2527 H 226.648 -6.00549 2.63965 0
M  V30 2528 H 226.565 -6.17428 4.36255 0
M  V30 2529 H 227.833 -6.9739 3.48236 0
M  V30 2530 N 232.062 -1.29571 -0.897171 0
M  V30 2531 C 232.972 -1.16808 -2.03453 0
M  V30 2532 C 233.988 -0.0907471 -1.73763 0
M  V30 2533 O 235.164 -0.303312 -1.99103 0
M  V30 2534 C 232.229 -0.848264 -3.36163 0
M  V30 2535 C 231.29 -2.0097 -3.79354 0
M  V30 2536 C 230.523 -1.70505 -5.05731 0
M  V30 2537 O 230.746 -0.62718 -5.66941 0
M  V30 2538 O 229.68 -2.5538 -5.45036 0
M  V30 2539 H 233.506 -2.12325 -2.17144 0
M  V30 2540 H 231.091 -1.09047 -1.02123 0
M  V30 2541 H 232.973 -0.684581 -4.15802 0
M  V30 2542 H 231.648 0.0771071 -3.23608 0
M  V30 2543 H 230.555 -2.22863 -3.00471 0
M  V30 2544 H 231.888 -2.91636 -3.96496 0
M  V30 2545 N 233.54 1.10788 -1.12088 0
M  V30 2546 C 234.765 1.87002 -0.896949 0
M  V30 2547 C 235.19 1.79933 0.548261 0
M  V30 2548 O 234.548 1.16662 1.38779 0
M  V30 2549 C 234.596 3.3349 -1.37174 0
M  V30 2550 O 233.7 4.08745 -0.547831 0
M  V30 2551 H 233.041 0.580397 -0.322545 0
M  V30 2552 H 235.571 1.39996 -1.49206 0
M  V30 2553 H 235.581 3.84339 -1.36922 0
M  V30 2554 H 234.256 3.37951 -2.42408 0
M  V30 2555 H 232.833 3.6776 -0.617034 0
M  V30 2556 N 235.018 0.912232 1.28515 0
M  V30 2557 C 235.981 0.404223 2.25607 0
M  V30 2558 C 236.981 -0.468602 1.53821 0
M  V30 2559 O 238.171 -0.271873 1.72065 0
M  V30 2560 C 235.303 -0.420653 3.38295 0
M  V30 2561 H 236.496 1.26188 2.7206 0
M  V30 2562 H 234.049 0.691495 1.40171 0
M  V30 2563 H 234.784 -1.29777 2.97201 0
M  V30 2564 H 234.569 0.204935 3.91564 0
M  V30 2565 H 236.059 -0.766971 4.10496 0
M  V30 2566 N 236.496 -1.42363 0.676048 0
M  V30 2567 C 237.721 -2.06377 0.205705 0
M  V30 2568 C 238.146 -1.50463 -1.12883 0
M  V30 2569 O 237.504 -0.623619 -1.70237 0
M  V30 2570 C 237.552 -3.60277 0.152655 0
M  V30 2571 O 236.656 -4.02935 -0.87845 0
M  V30 2572 H 235.997 -0.655588 0.105359 0
M  V30 2573 H 238.527 -1.82475 0.925412 0
M  V30 2574 H 238.537 -4.07993 -0.0230675 0
M  V30 2575 H 237.212 -4.00346 1.12675 0
M  V30 2576 H 235.789 -3.66764 -0.673668 0
M  V30 2577 N 237.974 -0.419461 -1.51915 0
M  V30 2578 C 239.39 -0.0708431 -1.59443 0
M  V30 2579 C 239.59 1.41796 -1.43164 0
M  V30 2580 O 238.646 2.18596 -1.26381 0
M  V30 2581 C 239.959 -0.574991 -2.95151 0
M  V30 2582 C 241.507 -0.533867 -3.08413 0
M  V30 2583 C 241.982 -1.01469 -4.46618 0
M  V30 2584 N 243.473 -0.971939 -4.52888 0
M  V30 2585 C 244.208 -1.31505 -5.58116 0
M  V30 2586 N 243.704 -1.73014 -6.70849 0
M  V30 2587 N 245.497 -1.23436 -5.48379 0
M  V30 2588 H 237.648 -1.38836 -1.60743 0
M  V30 2589 H 239.911 -0.570998 -0.756747 0
M  V30 2590 H 239.617 -1.61597 -3.12377 0
M  V30 2591 H 239.491 0.00979777 -3.77199 0
M  V30 2592 H 241.878 0.498086 -2.90866 0
M  V30 2593 H 241.959 -1.15484 -2.28248 0
M  V30 2594 H 241.603 -2.04502 -4.6491 0
M  V30 2595 H 241.533 -0.370433 -5.25295 0
M  V30 2596 H 244.024 -0.666893 -3.71969 0
M  V30 2597 H 244.337 -1.97479 -7.47143 0
M  V30 2598 H 242.682 -1.76926 -6.72103 0
M  V30 2599 H 245.873 -0.908869 -4.59192 0
M  V30 2600 H 246.046 -1.50506 -6.30279 0
M  V30 2601 N 239.452 1.56882 -0.150215 0
M  V30 2602 C 240.698 1.96518 0.500834 0
M  V30 2603 C 241.031 1.03527 1.64304 0
M  V30 2604 O 240.306 0.0782751 1.94342 0
M  V30 2605 C 240.589 3.45822 1.00395 0
M  V30 2606 C 240.442 4.49591 -0.136983 0
M  V30 2607 C 241.761 3.97704 1.88467 0
M  V30 2608 H 238.88 0.714535 0.18058 0
M  V30 2609 H 241.522 1.88577 -0.232091 0
M  V30 2610 H 239.672 3.5272 1.62851 0
M  V30 2611 H 241.344 4.5477 -0.77343 0
M  V30 2612 H 239.587 4.26441 -0.795652 0
M  V30 2613 H 240.258 5.51402 0.256815 0
M  V30 2614 H 242.734 3.93304 1.35834 0
M  V30 2615 H 241.61 5.0263 2.20578 0
M  V30 2616 H 241.871 3.40252 2.82279 0
M  V30 2617 N 240.93 -0.123565 1.57115 0
M  V30 2618 C 241.84 -1.17074 2.033 0
M  V30 2619 C 242.856 -1.4561 0.952559 0
M  V30 2620 O 244.032 -1.56817 1.26374 0
M  V30 2621 C 241.097 -2.47857 2.42421 0
M  V30 2622 C 240.158 -2.26758 3.64526 0
M  V30 2623 C 239.391 -3.51305 4.01771 0
M  V30 2624 O 239.614 -4.5843 3.39409 0
M  V30 2625 O 238.548 -3.42578 4.94898 0
M  V30 2626 H 242.374 -0.808555 2.92739 0
M  V30 2627 H 239.959 -0.334027 1.45618 0
M  V30 2628 H 241.841 -3.2492 2.68338 0
M  V30 2629 H 240.516 -2.83558 1.5613 0
M  V30 2630 H 239.423 -1.47569 3.43765 0
M  V30 2631 H 240.756 -1.95963 4.51508 0
M  V30 2632 N 242.408 -1.52605 -0.393616 0
M  V30 2633 C 243.318 -1.79971 -1.50492 0
M  V30 2634 C 244.334 -0.686181 -1.59899 0
M  V30 2635 O 245.51 -0.973274 -1.76322 0
M  V30 2636 C 242.575 -1.95867 -2.86072 0
M  V30 2637 C 241.636 -3.19781 -2.86424 0
M  V30 2638 C 240.869 -3.34909 -4.15538 0
M  V30 2639 O 241.092 -2.54948 -5.10253 0
M  V30 2640 O 240.026 -4.28141 -4.23059 0
M  V30 2641 H 243.852 -2.74328 -1.30299 0
M  V30 2642 H 241.437 -1.3764 -0.581005 0
M  V30 2643 H 243.319 -2.08056 -3.66457 0
M  V30 2644 H 241.994 -1.04699 -3.063 0
M  V30 2645 H 240.901 -3.13038 -2.04837 0
M  V30 2646 H 242.234 -4.1078 -2.71147 0
M  V30 2647 N 243.887 0.651787 -1.4349 0
M  V30 2648 C 244.797 1.79368 -1.5121 0
M  V30 2649 C 245.813 1.69361 -0.399093 0
M  V30 2650 O 246.989 1.90505 -0.653431 0
M  V30 2651 C 244.054 3.15653 -1.43401 0
M  V30 2652 C 243.115 3.37446 -2.65384 0
M  V30 2653 C 242.348 4.67229 -2.57939 0
M  V30 2654 O 242.571 5.46676 -1.62792 0
M  V30 2655 O 241.505 4.90773 -3.48462 0
M  V30 2656 H 245.331 1.7581 -2.47638 0
M  V30 2657 H 242.916 0.810447 -1.25507 0
M  V30 2658 H 244.798 3.96935 -1.41494 0
M  V30 2659 H 243.473 3.19798 -0.501085 0
M  V30 2660 H 242.38 2.55923 -2.72863 0
M  V30 2661 H 243.713 3.38148 -3.57654 0
M  V30 2662 N 245.365 1.30045 0.890287 0
M  V30 2663 C 246.275 1.17885 2.02831 0
M  V30 2664 C 247.291 0.0999609 1.73713 0
M  V30 2665 O 248.467 0.313867 1.98939 0
M  V30 2666 C 245.532 0.866079 3.35708 0
M  V30 2667 C 244.593 2.02979 3.78283 0
M  V30 2668 C 243.826 1.73184 5.0482 0
M  V30 2669 O 244.049 0.657237 5.66601 0
M  V30 2670 O 242.983 2.58267 5.43674 0
M  V30 2671 H 246.809 2.13474 2.16015 0
M  V30 2672 H 244.394 1.09587 1.01543 0
M  V30 2673 H 246.276 0.706623 4.15433 0
M  V30 2674 H 244.951 -0.0599443 3.23644 0
M  V30 2675 H 243.858 2.24454 2.99285 0
M  V30 2676 H 245.191 2.93734 3.94944 0
M  V30 2677 N 246.843 -1.10192 1.12674 0
M  V30 2678 C 248.089 -1.82475 0.884915 0
M  V30 2679 C 248.422 -1.85093 -0.58773 0
M  V30 2680 O 247.697 -1.3134 -1.43457 0
M  V30 2681 C 247.98 -3.29018 1.46353 0
M  V30 2682 C 247.833 -3.34718 3.00473 0
M  V30 2683 C 249.152 -4.25473 1.12519 0
M  V30 2684 H 246.271 -0.662492 0.322915 0
M  V30 2685 H 248.913 -1.2913 1.39375 0
M  V30 2686 H 247.063 -3.74576 1.03077 0
M  V30 2687 H 248.735 -2.97622 3.52447 0
M  V30 2688 H 246.978 -2.74541 3.35872 0
M  V30 2689 H 247.649 -4.37918 3.36053 0
M  V30 2690 H 250.125 -3.88161 1.499 0
M  V30 2691 H 249.001 -5.26365 1.55663 0
M  V30 2692 H 249.262 -4.42084 0.0377407 0
M  V30 2693 N 248.321 -0.919034 -1.28029 0
M  V30 2694 C 249.251 -0.428581 -2.29533 0
M  V30 2695 C 250.232 0.50659 -1.62381 0
M  V30 2696 O 251.417 0.413195 -1.89753 0
M  V30 2697 C 248.547 0.327388 -3.45753 0
M  V30 2698 C 247.501 -0.519137 -4.2484 0
M  V30 2699 C 246.827 0.365486 -5.33449 0
M  V30 2700 C 248.127 -1.77914 -4.91064 0
M  V30 2701 H 249.821 -1.27687 -2.70807 0
M  V30 2702 H 247.367 -0.615428 -1.30186 0
M  V30 2703 H 249.32 0.681378 -4.15855 0
M  V30 2704 H 248.044 1.20963 -3.03374 0
M  V30 2705 H 246.703 -0.855717 -3.56473 0
M  V30 2706 H 246.351 1.24642 -4.87312 0
M  V30 2707 H 246.051 -0.197356 -5.87268 0
M  V30 2708 H 247.575 0.715241 -6.06396 0
M  V30 2709 H 248.989 -1.49374 -5.53498 0
M  V30 2710 H 247.386 -2.2848 -5.54903 0
M  V30 2711 H 248.456 -2.50382 -4.15255 0
M  V30 2712 N 249.799 1.42003 -0.683588 0
M  V30 2713 C 250.747 2.326 0.000815408 0
M  V30 2714 C 251.741 1.50308 0.781278 0
M  V30 2715 O 252.947 1.66322 0.688251 0
M  V30 2716 H 249.322 0.751758 0.0190616 0
M  V30 2717 H 251.293 2.88011 -0.780528 0
M  V30 2718 C 250.042 3.34978 0.93195 0
M  V30 2719 H 249.365 3.98345 0.340817 0
M  V30 2720 H 250.805 4.00936 1.37936 0
M  V30 2721 C 249.264 2.67925 2.04249 0
M  V30 2722 O 249.794 2.51788 3.12995 0
M  V30 2723 N 248 2.2681 1.81675 0
M  V30 2724 H 247.547 2.40135 0.932363 0
M  V30 2725 H 247.505 1.8228 2.56167 0
M  V30 2726 N 251.277 0.427512 1.51691 0
M  V30 2727 C 252.209 -0.424521 2.25234 0
M  V30 2728 C 253.222 -0.994671 1.2888 0
M  V30 2729 O 254.411 -0.890483 1.54702 0
M  V30 2730 C 251.511 -1.60479 2.98496 0
M  V30 2731 C 250.684 -1.15527 4.21868 0
M  V30 2732 C 249.743 -2.20454 4.77793 0
M  V30 2733 O 248.769 -1.8029 5.39893 0
M  V30 2734 N 249.971 -3.52831 4.60967 0
M  V30 2735 H 252.736 0.205749 2.98993 0
M  V30 2736 H 250.297 0.255867 1.59865 0
M  V30 2737 H 252.289 -2.30276 3.32799 0
M  V30 2738 H 250.859 -2.14061 2.27809 0
M  V30 2739 H 250.079 -0.284736 3.9317 0
M  V30 2740 H 251.367 -0.832173 5.01949 0
M  V30 2741 H 250.765 -3.88201 4.11481 0
M  V30 2742 H 249.322 -4.18551 4.99658 0
M  V30 2743 N 252.755 -1.56801 0.158532 0
M  V30 2744 C 254.001 -1.96781 -0.490405 0
M  V30 2745 C 254.334 -1.04397 -1.63753 0
M  V30 2746 O 253.609 -0.0885805 -1.94298 0
M  V30 2747 C 253.892 -3.4635 -0.985594 0
M  V30 2748 C 253.745 -4.49512 0.160824 0
M  V30 2749 C 255.064 -3.98697 -1.86355 0
M  V30 2750 H 252.183 -0.715482 -0.176788 0
M  V30 2751 H 254.825 -1.88451 0.242088 0
M  V30 2752 H 252.975 -3.53579 -1.60978 0
M  V30 2753 H 254.647 -4.54353 0.797537 0
M  V30 2754 H 252.89 -4.26013 0.818256 0
M  V30 2755 H 253.561 -5.51531 -0.227569 0
M  V30 2756 H 256.037 -3.94019 -1.33746 0
M  V30 2757 H 254.913 -5.03792 -2.17909 0
M  V30 2758 H 255.174 -3.41744 -2.8047 0
M  V30 2759 N 254.233 0.115231 -1.57178 0
M  V30 2760 C 255.143 1.15994 -2.03918 0
M  V30 2761 C 256.159 1.45103 -0.960268 0
M  V30 2762 O 257.335 1.56144 -1.27204 0
M  V30 2763 C 254.4 2.46568 -2.43732 0
M  V30 2764 C 253.461 2.24822 -3.65723 0
M  V30 2765 C 252.694 3.4917 -4.03629 0
M  V30 2766 O 252.917 4.56623 -3.41835 0
M  V30 2767 O 251.851 3.39949 -4.96708 0
M  V30 2768 H 255.677 0.793019 -2.93164 0
M  V30 2769 H 253.262 0.3263 -1.45793 0
M  V30 2770 H 255.144 3.23492 -2.70057 0
M  V30 2771 H 253.819 2.82726 -1.57631 0
M  V30 2772 H 252.726 1.45744 -3.44542 0
M  V30 2773 H 254.059 1.93566 -4.52541 0
M  V30 2774 N 255.711 1.52812 0.385517 0
M  V30 2775 C 256.643 1.74096 1.49074 0
M  V30 2776 C 257.656 0.621462 1.50472 0
M  V30 2777 O 258.845 0.897245 1.54311 0
M  V30 2778 C 255.945 1.78774 2.87911 0
M  V30 2779 C 255.118 3.08134 3.10439 0
M  V30 2780 C 254.177 3.04313 4.29278 0
M  V30 2781 O 253.203 3.78168 4.25415 0
M  V30 2782 N 254.405 2.23741 5.35649 0
M  V30 2783 H 257.17 2.69455 1.31202 0
M  V30 2784 H 254.731 1.51343 0.575065 0
M  V30 2785 H 256.723 1.73721 3.65518 0
M  V30 2786 H 255.293 0.907869 2.99126 0
M  V30 2787 H 254.513 3.26649 2.20667 0
M  V30 2788 H 255.801 3.93662 3.22347 0
M  V30 2789 H 255.199 1.63211 5.41645 0
M  V30 2790 H 253.756 2.24524 6.11909 0
M  V30 2791 N 257.189 -0.644168 1.43834 0
M  V30 2792 C 258.119 -1.76814 1.52509 0
M  V30 2793 C 259.1 -1.65823 0.379052 0
M  V30 2794 O 260.285 -1.84781 0.597466 0
M  V30 2795 C 257.415 -3.15288 1.4564 0
M  V30 2796 C 256.369 -3.41053 2.58586 0
M  V30 2797 C 255.695 -4.79421 2.36769 0
M  V30 2798 C 256.995 -3.34902 4.00797 0
M  V30 2799 H 258.689 -1.69812 2.46586 0
M  V30 2800 H 256.235 -0.815542 1.1868 0
M  V30 2801 H 258.188 -3.93681 1.50311 0
M  V30 2802 H 256.912 -3.23043 0.480725 0
M  V30 2803 H 255.571 -2.65035 2.53282 0
M  V30 2804 H 255.219 -4.83863 1.37424 0
M  V30 2805 H 254.919 -4.9762 3.12487 0
M  V30 2806 H 256.443 -5.6006 2.43238 0
M  V30 2807 H 257.857 -4.03218 4.07539 0
M  V30 2808 H 256.254 -3.64637 4.76613 0
M  V30 2809 H 257.324 -2.32928 4.25291 0
M  V30 2810 N 258.668 -1.30515 -0.883378 0
M  V30 2811 C 260.084 -1.08881 -1.16692 0
M  V30 2812 C 260.284 0.149409 -2.00945 0
M  V30 2813 O 259.34 0.84257 -2.38027 0
M  V30 2814 C 260.653 -2.35319 -1.87204 0
M  V30 2815 C 262.201 -2.40799 -1.99962 0
M  V30 2816 C 262.676 -3.67083 -2.73887 0
M  V30 2817 N 264.167 -3.679 -2.81432 0
M  V30 2818 C 264.902 -4.62303 -3.3921 0
M  V30 2819 N 264.398 -5.67052 -3.98025 0
M  V30 2820 N 266.191 -4.49845 -3.3704 0
M  V30 2821 H 258.342 -2.09951 -0.321633 0
M  V30 2822 H 260.605 -0.92556 -0.205043 0
M  V30 2823 H 260.311 -3.25689 -1.3274 0
M  V30 2824 H 260.185 -2.44089 -2.87577 0
M  V30 2825 H 262.572 -1.50907 -2.53597 0
M  V30 2826 H 262.653 -2.36003 -0.98673 0
M  V30 2827 H 262.297 -4.57334 -2.20925 0
M  V30 2828 H 262.227 -3.69141 -3.75556 0
M  V30 2829 H 264.718 -2.92171 -2.39676 0
M  V30 2830 H 265.031 -6.35184 -4.40183 0
M  V30 2831 H 263.376 -5.70842 -3.96439 0
M  V30 2832 H 266.567 -3.67194 -2.90321 0
M  V30 2833 H 266.74 -5.23597 -3.81772 0
M  V30 2834 N 260.146 1.09593 -1.13257 0
M  V30 2835 C 261.392 1.82003 -0.89458 0
M  V30 2836 C 261.725 1.85402 0.577906 0
M  V30 2837 O 261 1.32099 1.42759 0
M  V30 2838 C 261.283 3.28237 -1.48096 0
M  V30 2839 C 261.136 3.3312 -3.02244 0
M  V30 2840 C 262.455 4.24871 -1.14774 0
M  V30 2841 H 259.574 0.66077 -0.326424 0
M  V30 2842 H 262.216 1.28389 -1.40058 0
M  V30 2843 H 260.366 3.74024 -1.05062 0
M  V30 2844 H 262.038 2.95748 -3.54021 0
M  V30 2845 H 260.281 2.72756 -3.37323 0
M  V30 2846 H 260.952 4.3613 -3.38371 0
M  V30 2847 H 263.428 3.87361 -1.51957 0
M  V30 2848 H 262.304 5.25532 -1.58452 0
M  V30 2849 H 262.565 4.42058 -0.0611849 0
M  V30 2850 N 261.624 0.925811 1.2754 0
M  V30 2851 C 262.534 0.428993 2.30644 0
M  V30 2852 C 263.55 -0.489387 1.66976 0
M  V30 2853 O 264.726 -0.372653 1.97922 0
M  V30 2854 C 261.791 -0.311967 3.45294 0
M  V30 2855 C 260.852 0.641098 4.24486 0
M  V30 2856 C 260.085 -0.0645955 5.33661 0
M  V30 2857 O 260.308 -1.28429 5.55754 0
M  V30 2858 O 259.242 0.606265 5.98839 0
M  V30 2859 H 263.068 1.28504 2.75173 0
M  V30 2860 H 260.653 0.691086 1.32455 0
M  V30 2861 H 262.535 -0.729972 4.15029 0
M  V30 2862 H 261.21 -1.14365 3.02824 0
M  V30 2863 H 260.117 1.10874 3.57292 0
M  V30 2864 H 261.45 1.43995 4.70666 0
M  V30 2865 N 263.102 -1.41638 0.69111 0
M  V30 2866 C 264.012 -2.34588 0.0233487 0
M  V30 2867 C 265.028 -1.55987 -0.770984 0
M  V30 2868 O 266.204 -1.88486 -0.709569 0
M  V30 2869 C 263.269 -3.34684 -0.904851 0
M  V30 2870 C 262.33 -4.29176 -0.103225 0
M  V30 2871 C 261.563 -5.2449 -0.987216 0
M  V30 2872 O 261.786 -5.2514 -2.22674 0
M  V30 2873 O 260.72 -6.00295 -0.439281 0
M  V30 2874 H 264.546 -2.93261 0.789416 0
M  V30 2875 H 262.131 -1.42417 0.45142 0
M  V30 2876 H 264.013 -3.96133 -1.43724 0
M  V30 2877 H 262.688 -2.78461 -1.65049 0
M  V30 2878 H 261.595 -3.71089 0.473655 0
M  V30 2879 H 262.928 -4.88484 0.60365 0
M  V30 2880 N 264.58 -0.43555 -1.51462 0
M  V30 2881 C 265.857 0.191364 -1.94662 0
M  V30 2882 C 266.237 1.60254 -1.37411 0
M  V30 2883 O 265.585 2.2152 -0.560458 0
M  V30 2884 C 265.795 0.17091 -3.48581 0
M  V30 2885 C 267.143 0.377357 -4.2292 0
M  V30 2886 O 268.167 0.249104 -3.55328 0
M  V30 2887 O 267.026 0.63247 -5.42828 0
M  V30 2888 H 264.12 0.130932 -0.816569 0
M  V30 2889 H 266.666 -0.4934 -1.62369 0
M  V30 2890 H 265.438 -0.815738 -3.82703 0
M  V30 2891 H 265.061 0.898659 -3.87311 0
M  V30 2892 N 266.058 1.56714 -0.166846 0
M  V30 2893 C 266.968 2.21331 0.777791 0
M  V30 2894 C 267.984 1.20358 1.25658 0
M  V30 2895 O 269.16 1.53005 1.30964 0
M  V30 2896 C 266.225 2.83787 1.99163 0
M  V30 2897 C 265.286 3.99947 1.56016 0
M  V30 2898 C 264.519 4.59415 2.71613 0
M  V30 2899 O 264.742 4.17769 3.88362 0
M  V30 2900 O 263.676 5.49359 2.45945 0
M  V30 2901 H 267.502 3.02605 0.257636 0
M  V30 2902 H 265.087 1.49275 0.0611393 0
M  V30 2903 H 266.969 3.23405 2.70161 0
M  V30 2904 H 265.644 2.05513 2.50092 0
M  V30 2905 H 264.551 3.65007 0.819809 0
M  V30 2906 H 265.884 4.79801 1.09782 0
M  V30 2907 N 267.536 -0.106894 1.57237 0
M  V30 2908 C 268.776 -0.818277 1.87306 0
M  V30 2909 C 269.14 -1.76474 0.756371 0
M  V30 2910 O 270.341 -2.5186 0.939155 0
M  V30 2911 C 268.612 -1.53806 3.22612 0
M  V30 2912 S 270.171 -2.28935 3.74345 0
M  V30 2913 H 266.989 -0.272862 0.656557 0
M  V30 2914 H 269.591 -0.075988 1.95352 0
M  V30 2915 H 268.295 -0.834951 4.01817 0
M  V30 2916 H 267.826 -2.32049 3.17674 0
M  V30 2917 H 269.841 -3.54871 3.46815 0
M  V30 2918 N 269.014 -1.53014 -0.377408 0
M  V30 2919 C 270.43 -1.42523 -0.718281 0
M  V30 2920 C 270.63 -0.55487 -1.9371 0
M  V30 2921 O 269.686 -0.0327593 -2.52479 0
M  V30 2922 C 270.999 -2.85546 -0.942539 0
M  V30 2923 C 272.547 -2.95101 -1.04329 0
M  V30 2924 C 273.022 -4.3916 -1.3001 0
M  V30 2925 N 274.513 -4.42536 -1.36806 0
M  V30 2926 C 275.248 -5.51097 -1.58364 0
M  V30 2927 N 274.744 -6.69724 -1.77317 0
M  V30 2928 N 276.537 -5.38657 -1.60638 0
M  V30 2929 H 268.688 -2.08116 0.424426 0
M  V30 2930 H 270.951 -0.939352 0.127759 0
M  V30 2931 H 270.657 -3.51499 -0.118929 0
M  V30 2932 H 270.531 -3.28493 -1.85397 0
M  V30 2933 H 272.918 -2.29309 -1.85745 0
M  V30 2934 H 272.999 -2.55566 -0.109505 0
M  V30 2935 H 272.643 -5.05521 -0.490991 0
M  V30 2936 H 272.573 -4.76258 -2.24691 0
M  V30 2937 H 275.064 -3.57039 -1.23821 0
M  V30 2938 H 275.377 -7.48233 -1.93306 0
M  V30 2939 H 273.722 -6.72732 -1.74518 0
M  V30 2940 H 276.913 -4.44948 -1.45391 0
M  V30 2941 H 277.086 -6.2333 -1.77098 0
M  V30 2942 N 270.492 0.636531 -1.44174 0
M  V30 2943 C 271.74 1.39343 -1.46383 0
M  V30 2944 C 272.061 1.94766 -0.0955715 0
M  V30 2945 O 271.331 1.75452 0.871395 0
M  V30 2946 H 269.911 0.517199 -0.538994 0
M  V30 2947 H 272.573 0.74957 -1.7991 0
M  V30 2948 H 271.669 2.22746 -2.18611 0
M  V30 2949 N 271.97 1.30982 0.876444 0
M  V30 2950 C 272.918 1.18006 2.00443 0
M  V30 2951 C 273.912 0.0898871 1.69161 0
M  V30 2952 O 275.118 0.251333 1.78237 0
M  V30 2953 H 271.493 0.365196 0.65737 0
M  V30 2954 H 273.464 2.13453 2.0852 0
M  V30 2955 C 272.213 0.897521 3.35916 0
M  V30 2956 H 271.536 1.7285 3.60504 0
M  V30 2957 H 272.976 0.846874 4.15456 0
M  V30 2958 C 271.435 -0.399674 3.34521 0
M  V30 2959 O 271.965 -1.41852 3.7582 0
M  V30 2960 N 270.171 -0.413893 2.87637 0
M  V30 2961 H 269.718 0.41571 2.54224 0
M  V30 2962 H 269.676 -1.28175 2.87086 0
M  V30 2963 N 273.449 -1.08991 1.13837 0
M  V30 2964 C 274.695 -1.81526 0.90422 0
M  V30 2965 C 275.028 -1.85706 -0.568066 0
M  V30 2966 O 274.303 -1.32855 -1.42056 0
M  V30 2967 C 274.586 -3.27447 1.49835 0
M  V30 2968 C 274.439 -3.31512 3.04006 0
M  V30 2969 C 275.758 -4.24256 1.17025 0
M  V30 2970 H 272.877 -0.659029 0.329923 0
M  V30 2971 H 275.519 -1.27644 1.40737 0
M  V30 2972 H 273.669 -3.73462 1.07044 0
M  V30 2973 H 275.341 -2.93867 3.55584 0
M  V30 2974 H 273.584 -2.70963 3.38765 0
M  V30 2975 H 274.255 -4.34329 3.40679 0
M  V30 2976 H 276.731 -3.86549 1.54009 0
M  V30 2977 H 275.607 -5.24684 1.61237 0
M  V30 2978 H 275.868 -4.42019 0.0846274 0
M  V30 2979 N 274.927 -0.932562 -1.27047 0
M  V30 2980 C 275.89 -0.440064 -2.24936 0
M  V30 2981 C 276.89 0.444071 -1.54547 0
M  V30 2982 O 278.08 0.244465 -1.72476 0
M  V30 2983 C 275.212 0.36678 -3.38921 0
M  V30 2984 H 276.405 -1.305 -2.70018 0
M  V30 2985 H 273.958 -0.713707 -1.39054 0
M  V30 2986 H 274.693 1.25033 -2.99228 0
M  V30 2987 H 274.478 -0.267204 -3.91188 0
M  V30 2988 H 275.968 0.701567 -4.11665 0
M  V30 2989 N 276.405 1.4127 -0.698611 0
M  V30 2990 C 277.352 2.30773 -0.0352094 0
M  V30 2991 C 278.322 1.47273 0.768111 0
M  V30 2992 O 279.507 1.76053 0.735524 0
M  V30 2993 C 276.647 3.33346 0.893 0
M  V30 2994 C 275.76 4.31924 0.0809695 0
M  V30 2995 C 274.895 5.21566 1.0071 0
M  V30 2996 C 273.934 6.11811 0.188155 0
M  V30 2997 N 273.071 6.93926 1.06825 0
M  V30 2998 H 277.911 2.86943 -0.804207 0
M  V30 2999 H 275.448 1.4132 -0.408294 0
M  V30 3000 H 277.406 3.91368 1.44523 0
M  V30 3001 H 276.036 2.78719 1.62836 0
M  V30 3002 H 275.088 3.75825 -0.588224 0
M  V30 3003 H 276.4 4.95716 -0.553801 0
M  V30 3004 H 275.554 5.84437 1.62845 0
M  V30 3005 H 274.293 4.58008 1.67572 0
M  V30 3006 H 273.298 5.47986 -0.446254 0
M  V30 3007 H 274.523 6.77425 -0.476716 0
M  V30 3008 H 272.469 6.32973 1.72283 0
M  V30 3009 H 272.386 7.54416 0.489123 0
M  V30 3010 H 273.654 7.61262 1.67632 0
M  V30 3011 N 277.883 0.443576 1.51229 0
M  V30 3012 C 278.793 -0.370721 2.31652 0
M  V30 3013 C 279.809 -1.02186 1.40833 0
M  V30 3014 O 280.985 -1.01586 1.73903 0
M  V30 3015 C 278.05 -1.45376 3.14749 0
M  V30 3016 C 277.111 -0.822099 4.21355 0
M  V30 3017 C 276.344 -1.85353 5.0048 0
M  V30 3018 O 276.567 -3.07656 4.80316 0
M  V30 3019 O 275.501 -1.4406 5.84406 0
M  V30 3020 H 279.327 0.286002 3.0235 0
M  V30 3021 H 276.912 0.20598 1.47973 0
M  V30 3022 H 278.794 -2.08173 3.66391 0
M  V30 3023 H 277.469 -2.09445 2.46809 0
M  V30 3024 H 276.376 -0.155909 3.73775 0
M  V30 3025 H 277.709 -0.224797 4.91686 0
M  V30 3026 N 279.361 -1.56624 0.175154 0
M  V30 3027 C 280.271 -2.21741 -0.766042 0
M  V30 3028 C 281.287 -1.21023 -1.25018 0
M  V30 3029 O 282.463 -1.53697 -1.3015 0
M  V30 3030 C 279.528 -2.84839 -1.97655 0
M  V30 3031 C 278.589 -4.00769 -1.53892 0
M  V30 3032 C 277.822 -4.60849 -2.69173 0
M  V30 3033 O 278.045 -4.19823 -3.86141 0
M  V30 3034 O 276.979 -5.50655 -2.43028 0
M  V30 3035 H 280.805 -3.02738 -0.241585 0
M  V30 3036 H 278.39 -1.49305 -0.053222 0
M  V30 3037 H 280.272 -3.24834 -2.68442 0
M  V30 3038 H 278.947 -2.06836 -2.48999 0
M  V30 3039 H 277.854 -3.65436 -0.80044 0
M  V30 3040 H 279.187 -4.80376 -1.07236 0
M  V30 3041 N 280.839 0.0985539 -1.57292 0
M  V30 3042 C 282.085 0.803867 -1.86188 0
M  V30 3043 C 282.418 1.78549 -0.763794 0
M  V30 3044 O 281.693 1.93153 0.22855 0
M  V30 3045 C 281.976 1.53568 -3.25713 0
M  V30 3046 C 281.829 0.572277 -4.46145 0
M  V30 3047 C 283.148 2.48708 -3.63087 0
M  V30 3048 H 280.267 0.290781 -0.677211 0
M  V30 3049 H 282.909 0.0675783 -1.8988 0
M  V30 3050 H 281.059 2.16332 -3.22696 0
M  V30 3051 H 282.731 -0.0480894 -4.61275 0
M  V30 3052 H 280.974 -0.114618 -4.33649 0
M  V30 3053 H 281.645 1.12139 -5.40489 0
M  V30 3054 H 284.121 1.96039 -3.67026 0
M  V30 3055 H 282.997 2.96932 -4.61652 0
M  V30 3056 H 283.258 3.32309 -2.91588 0
M  V30 3057 N 282.317 1.53212 0.369288 0
M  V30 3058 C 283.28 1.7872 1.43498 0
M  V30 3059 C 284.28 0.657554 1.46741 0
M  V30 3060 O 285.47 0.925736 1.47566 0
M  V30 3061 C 282.602 1.90591 2.82645 0
M  V30 3062 H 283.795 2.73894 1.22156 0
M  V30 3063 H 281.348 1.44233 0.602203 0
M  V30 3064 H 282.083 0.974709 3.09306 0
M  V30 3065 H 281.868 2.72751 2.8169 0
M  V30 3066 H 283.358 2.11931 3.59826 0
M  V30 3067 N 283.795 -0.628877 1.44509 0
M  V30 3068 C 284.743 -1.76193 1.51852 0
M  V30 3069 C 285.737 -1.64849 0.390042 0
M  V30 3070 O 286.943 -1.709 0.565082 0
M  V30 3071 H 283.318 -0.581728 0.476547 0
M  V30 3072 H 285.289 -1.67123 2.47209 0
M  V30 3073 C 284.038 -3.14533 1.48204 0
M  V30 3074 H 283.361 -3.23911 2.34354 0
M  V30 3075 H 284.801 -3.93701 1.57402 0
M  V30 3076 C 283.26 -3.36287 0.203142 0
M  V30 3077 O 283.79 -3.9509 -0.725745 0
M  V30 3078 N 281.996 -2.90408 0.105563 0
M  V30 3079 H 281.543 -2.42739 0.862301 0
M  V30 3080 H 281.501 -3.05339 -0.749371 0
M  V30 3081 N 285.273 -1.31445 -0.869486 0
M  V30 3082 C 286.22 -1.19135 -1.97675 0
M  V30 3083 C 287.19 -0.0770266 -1.65921 0
M  V30 3084 O 288.375 -0.249972 -1.89155 0
M  V30 3085 C 285.515 -0.905149 -3.33018 0
M  V30 3086 C 284.628 -2.10285 -3.77365 0
M  V30 3087 C 283.763 -1.75339 -5.01427 0
M  V30 3088 C 282.802 -2.91515 -5.38224 0
M  V30 3089 N 281.939 -2.56762 -6.53466 0
M  V30 3090 H 286.779 -2.13853 -2.07535 0
M  V30 3091 H 284.316 -1.06379 -1.01597 0
M  V30 3092 H 286.274 -0.719765 -4.10944 0
M  V30 3093 H 284.904 0.00519624 -3.228 0
M  V30 3094 H 283.956 -2.39899 -2.95216 0
M  V30 3095 H 285.268 -2.97237 -4.00564 0
M  V30 3096 H 284.422 -1.53266 -5.87022 0
M  V30 3097 H 283.161 -0.855801 -4.80133 0
M  V30 3098 H 282.166 -3.14237 -4.51149 0
M  V30 3099 H 283.391 -3.81985 -5.61484 0
M  V30 3100 H 281.337 -1.69526 -6.33717 0
M  V30 3101 H 281.254 -3.37243 -6.76612 0
M  V30 3102 H 282.522 -2.38083 -7.42251 0
M  V30 3103 N 286.751 1.08385 -1.14413 0
M  V30 3104 C 288.162 1.62258 -0.923535 0
M  V30 3105 C 288.513 1.88691 0.537595 0
M  V30 3106 O 287.638 1.64454 1.40655 0
M  V30 3107 C 288.233 2.94781 -1.67002 0
M  V30 3108 C 286.792 3.45437 -1.495 0
M  V30 3109 C 285.939 2.19668 -1.69238 0
M  V30 3110 H 288.89 0.916086 -1.2959 0
M  V30 3111 H 288.911 3.63229 -1.13334 0
M  V30 3112 H 288.423 2.7551 -2.73342 0
M  V30 3113 H 286.524 3.6981 -0.455097 0
M  V30 3114 H 286.637 4.22173 -2.2651 0
M  V30 3115 H 285.001 2.28849 -1.11804 0
M  V30 3116 H 285.784 2.02905 -2.7692 0
M  V30 3117 N 288.23 0.939286 1.26551 0
M  V30 3118 C 289.507 0.5038 1.89001 0
M  V30 3119 C 289.887 -1.01854 1.84903 0
M  V30 3120 O 289.235 -1.87773 1.30206 0
M  V30 3121 C 289.445 1.063 3.32417 0
M  V30 3122 C 290.793 1.13051 4.09273 0
M  V30 3123 O 291.817 1.01345 3.41479 0
M  V30 3124 O 290.676 1.31233 5.30509 0
M  V30 3125 H 287.77 0.163897 0.810597 0
M  V30 3126 H 290.316 1.03173 1.34735 0
M  V30 3127 H 289.088 2.10665 3.29752 0
M  V30 3128 H 288.711 0.517408 3.94219 0
M  V30 3129 N 289.708 -1.40897 0.706093 0
M  V30 3130 C 291.124 -1.55042 0.37869 0
M  V30 3131 C 291.324 -1.67944 -1.11342 0
M  V30 3132 O 290.38 -1.66372 -1.89938 0
M  V30 3133 C 291.693 -2.78398 1.13643 0
M  V30 3134 C 293.241 -2.92206 1.12181 0
M  V30 3135 C 293.716 -4.18463 1.86152 0
M  V30 3136 N 295.207 -4.25443 1.83173 0
M  V30 3137 C 295.942 -5.2202 2.37239 0
M  V30 3138 N 295.438 -6.24563 2.99821 0
M  V30 3139 N 297.231 -5.14033 2.27435 0
M  V30 3140 H 289.382 -1.30769 1.67372 0
M  V30 3141 H 291.645 -0.631653 0.706907 0
M  V30 3142 H 291.351 -2.7511 2.19106 0
M  V30 3143 H 291.225 -3.70228 0.721853 0
M  V30 3144 H 293.612 -2.95004 0.0754171 0
M  V30 3145 H 293.693 -2.01521 1.57554 0
M  V30 3146 H 293.337 -4.16427 2.90776 0
M  V30 3147 H 293.267 -5.08141 1.38206 0
M  V30 3148 H 295.758 -3.51976 1.37556 0
M  V30 3149 H 296.071 -6.94665 3.38616 0
M  V30 3150 H 294.416 -6.25035 3.03902 0
M  V30 3151 H 297.607 -4.3285 1.78208 0
M  V30 3152 H 297.78 -5.89129 2.69873 0
M  V30 3153 N 291.186 -0.45159 -1.50991 0
M  V30 3154 C 292.149 0.341117 -2.26647 0
M  V30 3155 C 293.149 0.937422 -1.30649 0
M  V30 3156 O 294.339 0.809644 -1.54241 0
M  V30 3157 C 291.471 1.48398 -3.06905 0
M  V30 3158 H 292.664 -0.322117 -2.98165 0
M  V30 3159 H 290.217 -0.205122 -1.54948 0
M  V30 3160 H 290.952 2.18284 -2.39838 0
M  V30 3161 H 290.737 1.06241 -3.77432 0
M  V30 3162 H 292.227 2.04367 -3.64176 0
M  V30 3163 N 292.664 1.56529 -0.183458 0
M  V30 3164 C 293.574 2.22144 0.754272 0
M  V30 3165 C 294.59 1.21684 1.24374 0
M  V30 3166 O 295.766 1.54385 1.29333 0
M  V30 3167 C 292.831 2.85884 1.96141 0
M  V30 3168 C 291.892 4.01579 1.51765 0
M  V30 3169 C 291.125 4.6227 2.66725 0
M  V30 3170 O 291.348 4.21865 3.83909 0
M  V30 3171 O 290.282 5.51936 2.40104 0
M  V30 3172 H 294.108 3.02861 0.225527 0
M  V30 3173 H 291.693 1.49331 0.0453032 0
M  V30 3174 H 293.575 3.26253 2.66715 0
M  V30 3175 H 292.25 2.08154 2.47899 0
M  V30 3176 H 291.157 3.65856 0.781049 0
M  V30 3177 H 292.49 4.80938 1.04686 0
M  V30 3178 N 294.142 -0.090211 1.57342 0
M  V30 3179 C 295.391 -0.791531 1.8552 0
M  V30 3180 C 295.704 -1.79659 0.773441 0
M  V30 3181 O 296.91 -2.54616 0.942497 0
M  V30 3182 C 295.366 -1.45856 3.2902 0
M  V30 3183 C 294.974 -0.493017 4.45279 0
M  V30 3184 C 296.718 -2.14332 3.66418 0
M  V30 3185 C 294.625 -1.16491 5.79814 0
M  V30 3186 H 293.555 -0.299356 0.692027 0
M  V30 3187 H 296.206 -0.0445343 1.83446 0
M  V30 3188 H 294.588 -2.25318 3.2565 0
M  V30 3189 H 295.762 0.270464 4.60006 0
M  V30 3190 H 294.077 0.0863061 4.16311 0
M  V30 3191 H 296.674 -2.65344 4.64216 0
M  V30 3192 H 297.017 -2.93447 2.95287 0
M  V30 3193 H 297.55 -1.41724 3.71698 0
M  V30 3194 H 294.289 -0.41447 6.54188 0
M  V30 3195 H 293.809 -1.8997 5.68921 0
M  V30 3196 H 295.488 -1.69001 6.24538 0
M  V30 3197 N 295.62 -1.53406 -0.361157 0
M  V30 3198 C 296.53 -1.83122 -1.4664 0
M  V30 3199 C 297.546 -0.719943 -1.58407 0
M  V30 3200 O 298.722 -1.01046 -1.74218 0
M  V30 3201 C 295.787 -2.01891 -2.81853 0
M  V30 3202 C 294.848 -3.25784 -2.79577 0
M  V30 3203 C 294.081 -3.43648 -4.0834 0
M  V30 3204 O 294.304 -2.65714 -5.0473 0
M  V30 3205 O 293.238 -4.37018 -4.13883 0
M  V30 3206 H 297.064 -2.7703 -1.24451 0
M  V30 3207 H 294.649 -1.38841 -0.551678 0
M  V30 3208 H 296.531 -2.15782 -3.61962 0
M  V30 3209 H 295.206 -1.11173 -3.0401 0
M  V30 3210 H 294.113 -3.17312 -1.98151 0
M  V30 3211 H 295.446 -4.16439 -2.62373 0
M  V30 3212 N 297.098 0.621204 -1.44841 0
M  V30 3213 C 298.045 1.73267 -1.5247 0
M  V30 3214 C 299.015 1.6189 -0.371611 0
M  V30 3215 O 300.2 1.81668 -0.58321 0
M  V30 3216 C 297.34 3.11545 -1.48438 0
M  V30 3217 C 296.453 3.33827 -2.74196 0
M  V30 3218 C 295.588 4.62133 -2.61929 0
M  V30 3219 C 294.627 4.77627 -3.82804 0
M  V30 3220 N 293.764 5.97219 -3.69153 0
M  V30 3221 H 298.604 1.66082 -2.47428 0
M  V30 3222 H 296.141 0.810026 -1.22788 0
M  V30 3223 H 298.099 3.91528 -1.4409 0
M  V30 3224 H 296.729 3.1772 -0.570402 0
M  V30 3225 H 295.781 2.47715 -2.88689 0
M  V30 3226 H 297.093 3.41153 -3.6389 0
M  V30 3227 H 296.247 5.50291 -2.5547 0
M  V30 3228 H 294.986 4.57182 -1.69811 0
M  V30 3229 H 293.991 3.87896 -3.89637 0
M  V30 3230 H 295.216 4.84385 -4.75971 0
M  V30 3231 H 293.162 5.93339 -2.79794 0
M  V30 3232 H 293.079 6.05644 -4.52472 0
M  V30 3233 H 294.347 6.87912 -3.66603 0
M  V30 3234 N 298.576 1.31904 0.862503 0
M  V30 3235 C 299.801 1.25135 1.65397 0
M  V30 3236 C 300.226 -0.179 1.87246 0
M  V30 3237 O 299.584 -1.1277 1.4196 0
M  V30 3238 C 299.632 2.00832 2.99498 0
M  V30 3239 O 298.736 1.35075 3.89652 0
M  V30 3240 H 298.077 0.431655 0.504549 0
M  V30 3241 H 300.607 1.74094 1.07483 0
M  V30 3242 H 300.617 2.10709 3.49379 0
M  V30 3243 H 299.292 3.04847 2.82916 0
M  V30 3244 H 297.869 1.33696 3.48109 0
M  V30 3245 N 300.054 -1.07777 1.14986 0
M  V30 3246 C 301.465 -1.61766 0.932127 0
M  V30 3247 C 301.816 -1.88974 -0.527581 0
M  V30 3248 O 300.941 -1.65198 -1.39781 0
M  V30 3249 C 301.536 -2.93891 1.68563 0
M  V30 3250 C 300.095 -3.44639 1.5133 0
M  V30 3251 C 299.242 -2.18767 1.704 0
M  V30 3252 H 302.193 -0.909201 1.30074 0
M  V30 3253 H 302.214 -3.62623 1.15259 0
M  V30 3254 H 301.726 -2.74057 2.74799 0
M  V30 3255 H 299.827 -3.69564 0.474702 0
M  V30 3256 H 299.94 -4.20966 2.28746 0
M  V30 3257 H 298.304 -2.28253 1.13016 0
M  V30 3258 H 299.087 -2.01433 2.77992 0
M  V30 3259 N 301.532 -0.945985 -1.26051 0
M  V30 3260 C 302.78 -0.594941 -1.93145 0
M  V30 3261 C 303.101 0.86953 -1.7454 0
M  V30 3262 O 302.371 1.61838 -1.10387 0
M  V30 3263 H 300.951 -0.217044 -0.714773 0
M  V30 3264 H 303.613 -1.20235 -1.53393 0
M  V30 3265 H 302.709 -0.816835 -3.01221 0
M  V30 3266 N 303.011 1.40521 -0.713556 0
M  V30 3267 C 304.259 2.00527 -0.251692 0
M  V30 3268 C 304.58 1.56857 1.15848 0
M  V30 3269 O 303.85 0.807127 1.785 0
M  V30 3270 H 302.43 0.741551 -0.0900646 0
M  V30 3271 H 305.092 1.71887 -0.918733 0
M  V30 3272 H 304.188 3.10813 -0.283192 0
M  V30 3273 N 304.489 0.459591 1.5075 0
M  V30 3274 C 305.737 -0.0991532 2.01857 0
M  V30 3275 C 306.058 -1.41247 1.34441 0
M  V30 3276 O 305.328 -1.89775 0.486022 0
M  V30 3277 H 303.908 -0.039633 0.745948 0
M  V30 3278 H 306.57 0.607387 1.85194 0
M  V30 3279 H 305.666 -0.258998 3.11023 0
M  V30 3280 N 305.967 -1.56429 0.191757 0
M  V30 3281 C 307.383 -1.58754 -0.164137 0
M  V30 3282 C 307.583 -1.20782 -1.61288 0
M  V30 3283 O 306.639 -0.928999 -2.34789 0
M  V30 3284 C 307.952 -3.00396 0.135195 0
M  V30 3285 C 309.5 -3.1291 0.0750351 0
M  V30 3286 C 309.975 -4.56679 0.347632 0
M  V30 3287 N 311.466 -4.62252 0.296131 0
M  V30 3288 C 312.201 -5.71379 0.480948 0
M  V30 3289 N 311.697 -6.88986 0.725933 0
M  V30 3290 N 313.49 -5.60563 0.415435 0
M  V30 3291 H 305.641 -1.79393 1.13718 0
M  V30 3292 H 307.904 -0.832414 0.453643 0
M  V30 3293 H 307.61 -3.32726 1.13958 0
M  V30 3294 H 307.484 -3.72963 -0.563773 0
M  V30 3295 H 309.871 -2.80394 -0.919948 0
M  V30 3296 H 309.952 -2.42736 0.807029 0
M  V30 3297 H 309.596 -4.89907 1.33992 0
M  V30 3298 H 309.526 -5.25039 -0.405212 0
M  V30 3299 H 312.017 -3.7773 0.113259 0
M  V30 3300 H 312.33 -7.68046 0.855857 0
M  V30 3301 H 310.675 -6.90801 0.762788 0
M  V30 3302 H 313.866 -4.67561 0.224486 0
M  V30 3303 H 314.039 -6.45551 0.562889 0
M  V30 3304 N 307.445 0.0818655 -1.57387 0
M  V30 3305 C 308.691 0.784074 -1.8703 0
M  V30 3306 C 309.024 1.77729 -0.782689 0
M  V30 3307 O 308.299 1.93384 0.208051 0
M  V30 3308 C 308.582 1.50105 -3.27323 0
M  V30 3309 C 308.435 0.524925 -4.46727 0
M  V30 3310 C 309.754 2.44843 -3.65705 0
M  V30 3311 H 306.873 0.283582 -0.680257 0
M  V30 3312 H 309.515 0.0474352 -1.89941 0
M  V30 3313 H 307.665 2.12897 -3.24972 0
M  V30 3314 H 309.337 -0.0970111 -4.61198 0
M  V30 3315 H 307.58 -0.160606 -4.33503 0
M  V30 3316 H 308.251 1.064 -5.41648 0
M  V30 3317 H 310.727 1.92135 -3.69085 0
M  V30 3318 H 309.603 2.92018 -4.64776 0
M  V30 3319 H 309.864 3.29197 -2.95096 0
M  V30 3320 N 308.923 1.53595 0.353017 0
M  V30 3321 C 310.171 1.70049 1.09215 0
M  V30 3322 C 310.492 0.461406 1.89463 0
M  V30 3323 O 309.762 -0.524633 1.88744 0
M  V30 3324 H 308.342 0.626912 0.40619 0
M  V30 3325 H 311.004 1.90822 0.396585 0
M  V30 3326 H 310.1 2.56718 1.77488 0
M  V30 3327 N 310.401 -0.613514 1.45168 0
M  V30 3328 C 311.364 -1.7065 1.53007 0
M  V30 3329 C 312.364 -1.5548 0.410184 0
M  V30 3330 O 313.554 -1.60656 0.673455 0
M  V30 3331 C 310.686 -3.09875 1.42093 0
M  V30 3332 H 311.879 -1.65068 2.50385 0
M  V30 3333 H 309.432 -0.828728 1.32521 0
M  V30 3334 H 310.167 -3.21039 0.458769 0
M  V30 3335 H 309.952 -3.22293 2.23315 0
M  V30 3336 H 311.442 -3.895 1.50598 0
M  V30 3337 N 311.879 -1.3236 -0.855495 0
M  V30 3338 C 312.842 -1.21164 -1.94556 0
M  V30 3339 C 313.842 -0.134908 -1.60233 0
M  V30 3340 O 315.032 -0.385249 -1.69887 0
M  V30 3341 C 312.164 -0.863192 -3.29791 0
M  V30 3342 H 313.357 -2.18038 -2.05911 0
M  V30 3343 H 310.91 -1.16179 -1.04557 0
M  V30 3344 H 311.645 0.103769 -3.24134 0
M  V30 3345 H 311.43 -1.64166 -3.56078 0
M  V30 3346 H 312.92 -0.809156 -4.09686 0
M  V30 3347 N 313.357 1.07166 -1.15556 0
M  V30 3348 C 314.304 2.14417 -0.854055 0
M  V30 3349 C 315.274 1.64965 0.193806 0
M  V30 3350 O 316.459 1.90703 0.0609443 0
M  V30 3351 C 313.599 3.43304 -0.351574 0
M  V30 3352 C 312.712 4.06537 -1.46123 0
M  V30 3353 C 311.847 5.23266 -0.914677 0
M  V30 3354 C 310.886 5.78464 -2.00114 0
M  V30 3355 N 310.023 6.86521 -1.47083 0
M  V30 3356 H 314.863 2.39548 -1.77259 0
M  V30 3357 H 312.4 1.17543 -0.884425 0
M  V30 3358 H 314.358 4.17179 -0.0419409 0
M  V30 3359 H 312.988 3.18419 0.530037 0
M  V30 3360 H 312.04 3.30297 -1.88701 0
M  V30 3361 H 313.352 4.43567 -2.28144 0
M  V30 3362 H 312.506 6.04131 -0.557698 0
M  V30 3363 H 311.245 4.87658 -0.0636583 0
M  V30 3364 H 310.25 4.96243 -2.36692 0
M  V30 3365 H 311.475 6.16126 -2.85597 0
M  V30 3366 H 309.421 6.52849 -0.642198 0
M  V30 3367 H 309.338 7.22446 -2.22729 0
M  V30 3368 H 310.606 7.71087 -1.14215 0
M  V30 3369 N 314.835 0.952656 1.25548 0
M  V30 3370 C 316.083 0.605176 1.92826 0
M  V30 3371 C 316.404 -0.860261 1.74999 0
M  V30 3372 O 315.674 -1.6125 1.11244 0
M  V30 3373 H 314.254 0.220832 0.713612 0
M  V30 3374 H 316.916 1.21047 1.52754 0
M  V30 3375 H 316.012 0.832798 3.00784 0
M  V30 3376 N 316.313 -1.40141 0.720998 0
M  V30 3377 C 317.223 -2.34486 0.0731031 0
M  V30 3378 C 318.239 -1.57587 -0.737723 0
M  V30 3379 O 319.415 -1.89949 -0.669429 0
M  V30 3380 C 316.48 -3.36528 -0.833656 0
M  V30 3381 C 315.541 -4.29298 -0.0121673 0
M  V30 3382 C 314.774 -5.26466 -0.875742 0
M  V30 3383 O 314.997 -5.29745 -2.11485 0
M  V30 3384 O 313.931 -6.01092 -0.31185 0
M  V30 3385 H 317.757 -2.9152 0.851444 0
M  V30 3386 H 315.342 -1.41427 0.481527 0
M  V30 3387 H 317.224 -3.99093 -1.35289 0
M  V30 3388 H 315.899 -2.81899 -1.59105 0
M  V30 3389 H 314.806 -3.70001 0.552262 0
M  V30 3390 H 316.139 -4.87094 0.707129 0
M  V30 3391 N 317.792 -0.46758 -1.50504 0
M  V30 3392 C 318.739 0.328413 -2.28452 0
M  V30 3393 C 319.709 0.990313 -1.33349 0
M  V30 3394 O 320.894 1.00343 -1.62284 0
M  V30 3395 C 318.034 1.40648 -3.15138 0
M  V30 3396 C 317.147 0.759709 -4.25267 0
M  V30 3397 C 316.282 1.81537 -4.99217 0
M  V30 3398 C 315.321 1.14866 -6.01226 0
M  V30 3399 N 314.458 2.14702 -6.68467 0
M  V30 3400 H 319.298 -0.342603 -2.96024 0
M  V30 3401 H 316.835 -0.180801 -1.45985 0
M  V30 3402 H 318.793 2.04315 -3.63746 0
M  V30 3403 H 317.423 2.04671 -2.49619 0
M  V30 3404 H 316.475 0.0105671 -3.80399 0
M  V30 3405 H 317.787 0.233243 -4.98254 0
M  V30 3406 H 316.941 2.52793 -5.51526 0
M  V30 3407 H 315.68 2.37564 -4.25928 0
M  V30 3408 H 314.685 0.42171 -5.4818 0
M  V30 3409 H 315.91 0.595334 -6.76485 0
M  V30 3410 H 313.856 2.69752 -5.97972 0
M  V30 3411 H 313.773 1.6703 -7.37317 0
M  V30 3412 H 315.041 2.85348 -7.25394 0
M  V30 3413 N 319.27 1.56325 -0.20005 0
M  V30 3414 C 320.518 1.97329 0.436547 0
M  V30 3415 C 320.839 1.08826 1.61808 0
M  V30 3416 O 320.109 0.160604 1.95241 0
M  V30 3417 H 318.689 0.728714 0.164272 0
M  V30 3418 H 321.351 1.92761 -0.287937 0
M  V30 3419 H 320.447 3.02264 0.777353 0
M  V30 3420 N 320.748 -0.0735177 1.57428 0
M  V30 3421 C 321.695 -1.08756 2.0357 0
M  V30 3422 C 322.665 -1.38559 0.916 0
M  V30 3423 O 323.85 -1.49656 1.18354 0
M  V30 3424 C 320.99 -2.39657 2.48311 0
M  V30 3425 C 320.103 -2.16399 3.73892 0
M  V30 3426 C 319.238 -3.40852 4.07423 0
M  V30 3427 C 318.277 -3.1295 5.2605 0
M  V30 3428 N 317.414 -4.29729 5.55228 0
M  V30 3429 H 322.254 -0.687104 2.8997 0
M  V30 3430 H 319.791 -0.327709 1.43403 0
M  V30 3431 H 321.749 -3.16081 2.72303 0
M  V30 3432 H 320.379 -2.77508 1.64891 0
M  V30 3433 H 319.431 -1.30676 3.57251 0
M  V30 3434 H 320.743 -1.91788 4.60455 0
M  V30 3435 H 319.897 -4.25671 4.32306 0
M  V30 3436 H 318.636 -3.68537 3.19425 0
M  V30 3437 H 317.641 -2.26526 5.00965 0
M  V30 3438 H 318.866 -2.86589 6.15665 0
M  V30 3439 H 316.812 -4.57448 4.70188 0
M  V30 3440 H 316.729 -4.08385 6.36206 0
M  V30 3441 H 317.997 -5.1555 5.84661 0
M  V30 3442 N 322.226 -1.5378 -0.344866 0
M  V30 3443 C 323.642 -1.44015 -0.687888 0
M  V30 3444 C 323.842 -0.595834 -1.92489 0
M  V30 3445 O 322.898 -0.0863064 -2.52352 0
M  V30 3446 C 324.211 -2.87481 -0.881758 0
M  V30 3447 C 325.759 -2.97247 -0.980459 0
M  V30 3448 C 326.234 -4.41819 -1.20665 0
M  V30 3449 N 327.725 -4.45339 -1.27389 0
M  V30 3450 C 328.46 -5.54333 -1.46639 0
M  V30 3451 N 327.956 -6.73335 -1.63071 0
M  V30 3452 N 329.749 -5.41944 -1.49176 0
M  V30 3453 H 321.9 -2.07169 0.468475 0
M  V30 3454 H 324.163 -0.93643 0.147655 0
M  V30 3455 H 323.869 -3.51672 -0.0443444 0
M  V30 3456 H 323.743 -3.32352 -1.78388 0
M  V30 3457 H 326.13 -2.33197 -1.8084 0
M  V30 3458 H 326.211 -2.5574 -0.0552713 0
M  V30 3459 H 325.855 -5.06449 -0.383652 0
M  V30 3460 H 325.785 -4.80917 -2.14539 0
M  V30 3461 H 328.276 -3.59585 -1.1622 0
M  V30 3462 H 328.589 -7.52165 -1.77391 0
M  V30 3463 H 326.934 -6.76282 -1.60209 0
M  V30 3464 H 330.125 -4.47932 -1.3592 0
M  V30 3465 H 330.298 -6.26946 -1.63837 0
M  V30 3466 N 323.704 0.605807 -1.45491 0
M  V30 3467 C 324.637 1.73022 -1.48791 0
M  V30 3468 C 325.615 1.58917 -0.344112 0
M  V30 3469 O 326.799 1.80453 -0.544876 0
M  V30 3470 C 323.926 3.10865 -1.34463 0
M  V30 3471 C 322.972 3.43554 -2.5273 0
M  V30 3472 S 323.805 3.38196 -4.15191 0
M  V30 3473 C 324.961 4.78616 -4.03333 0
M  V30 3474 H 325.194 1.69961 -2.43928 0
M  V30 3475 H 322.727 0.782611 -1.33096 0
M  V30 3476 H 324.685 3.90398 -1.26884 0
M  V30 3477 H 323.346 3.1144 -0.40794 0
M  V30 3478 H 322.539 4.43924 -2.38637 0
M  V30 3479 H 322.141 2.71541 -2.5718 0
M  V30 3480 H 324.433 5.68463 -3.68587 0
M  V30 3481 H 325.376 4.97767 -5.03621 0
M  V30 3482 H 325.784 4.54381 -3.34959 0
M  V30 3483 N 325.182 1.32811 0.848464 0
M  V30 3484 C 326.43 1.23479 1.59991 0
M  V30 3485 C 326.751 -0.201853 1.93952 0
M  V30 3486 O 326.021 -1.12818 1.60153 0
M  V30 3487 H 324.601 0.454034 0.593179 0
M  V30 3488 H 327.263 1.66412 1.01455 0
M  V30 3489 H 326.359 1.82178 2.53412 0
M  V30 3490 N 326.66 -1.06551 1.16123 0
M  V30 3491 C 327.607 -2.13961 0.865414 0
M  V30 3492 C 328.577 -1.65066 -0.185055 0
M  V30 3493 O 329.762 -1.90732 -0.05083 0
M  V30 3494 C 326.902 -3.43113 0.369776 0
M  V30 3495 C 326.015 -4.05756 1.48276 0
M  V30 3496 C 325.15 -5.22773 0.942414 0
M  V30 3497 C 324.189 -5.77395 2.03179 0
M  V30 3498 N 323.326 -6.85731 1.50721 0
M  V30 3499 H 328.166 -2.38605 1.78527 0
M  V30 3500 H 325.703 -1.17072 0.890646 0
M  V30 3501 H 327.661 -4.17151 0.0640643 0
M  V30 3502 H 326.291 -3.18695 -0.513143 0
M  V30 3503 H 325.343 -3.29292 1.9045 0
M  V30 3504 H 326.655 -4.42351 2.30493 0
M  V30 3505 H 325.809 -6.03827 0.589729 0
M  V30 3506 H 324.548 -4.87618 0.0895191 0
M  V30 3507 H 323.553 -4.94981 2.3932 0
M  V30 3508 H 324.778 -6.14603 2.8886 0
M  V30 3509 H 322.724 -6.52499 0.676811 0
M  V30 3510 H 322.641 -7.21254 2.26557 0
M  V30 3511 H 323.909 -7.7047 1.18303 0
M  V30 3512 N 328.138 -0.959301 -1.25041 0
M  V30 3513 C 329.386 -0.615393 -1.92503 0
M  V30 3514 C 329.707 0.850969 -1.75452 0
M  V30 3515 O 328.977 1.60658 -1.12098 0
M  V30 3516 H 327.557 -0.224613 -0.712431 0
M  V30 3517 H 330.219 -1.21855 -1.5211 0
M  V30 3518 H 329.315 -0.848738 -3.00338 0
M  V30 3519 N 329.616 1.39756 -0.72842 0
M  V30 3520 C 330.526 2.34444 -0.0855374 0
M  V30 3521 C 331.542 1.57976 0.729356 0
M  V30 3522 O 332.718 1.90301 0.659346 0
M  V30 3523 C 329.783 3.36965 0.815798 0
M  V30 3524 C 328.844 4.29299 -0.0105996 0
M  V30 3525 C 328.077 5.26923 0.84781 0
M  V30 3526 O 328.3 5.30859 2.08673 0
M  V30 3527 O 327.234 6.01249 0.279969 0
M  V30 3528 H 331.06 2.91065 -0.866892 0
M  V30 3529 H 328.645 1.4117 -0.48902 0
M  V30 3530 H 330.527 3.99804 1.33171 0
M  V30 3531 H 329.202 2.82739 1.57608 0
M  V30 3532 H 328.109 3.69703 -0.571877 0
M  V30 3533 H 329.442 4.86712 -0.73295 0
M  V30 3534 N 331.094 0.475555 1.50254 0
M  V30 3535 C 332.342 -0.077738 2.0195 0
M  V30 3536 C 332.663 -1.39813 1.35931 0
M  V30 3537 O 331.933 -1.89249 0.506123 0
M  V30 3538 H 330.513 -0.031719 0.746326 0
M  V30 3539 H 333.175 0.626995 1.84539 0
M  V30 3540 H 332.271 -0.225995 3.11281 0
M  V30 3541 N 332.573 -1.56217 0.208337 0
M  V30 3542 C 333.819 -1.98242 -0.427552 0
M  V30 3543 C 334.152 -1.09554 -1.60348 0
M  V30 3544 O 333.427 -0.15035 -1.93918 0
M  V30 3545 C 333.71 -3.4931 -0.874907 0
M  V30 3546 C 333.563 -4.48773 0.303751 0
M  V30 3547 C 334.882 -4.04424 -1.73577 0
M  V30 3548 H 332.001 -0.720744 -0.153936 0
M  V30 3549 H 334.643 -1.87586 0.30192 0
M  V30 3550 H 332.793 -3.58522 -1.49648 0
M  V30 3551 H 334.465 -4.51586 0.941682 0
M  V30 3552 H 332.708 -4.23194 0.953375 0
M  V30 3553 H 333.379 -5.51976 -0.0519883 0
M  V30 3554 H 335.855 -3.98075 -1.21143 0
M  V30 3555 H 334.731 -5.1047 -2.01771 0
M  V30 3556 H 334.992 -3.50494 -2.69456 0
M  V30 3557 N 334.051 0.0651679 -1.57465 0
M  V30 3558 C 335.467 0.420105 -1.53972 0
M  V30 3559 C 335.667 1.78782 -0.929474 0
M  V30 3560 O 334.723 2.46771 -0.534839 0
M  V30 3561 C 336.036 0.355084 -2.98596 0
M  V30 3562 C 337.584 0.434792 -3.09965 0
M  V30 3563 C 338.059 0.399609 -4.56253 0
M  V30 3564 N 339.55 0.459488 -4.60915 0
M  V30 3565 C 340.285 0.454584 -5.71595 0
M  V30 3566 N 339.781 0.404102 -6.9162 0
M  V30 3567 N 341.574 0.501635 -5.59857 0
M  V30 3568 H 333.725 -0.830328 -1.95498 0
M  V30 3569 H 335.988 -0.312244 -0.895102 0
M  V30 3570 H 335.694 -0.583357 -3.46828 0
M  V30 3571 H 335.568 1.16275 -3.58831 0
M  V30 3572 H 337.955 1.36366 -2.61703 0
M  V30 3573 H 338.036 -0.40157 -2.52628 0
M  V30 3574 H 337.68 -0.525436 -5.05175 0
M  V30 3575 H 337.61 1.25359 -5.11461 0
M  V30 3576 H 340.101 0.502482 -3.74544 0
M  V30 3577 H 340.414 0.404468 -7.71741 0
M  V30 3578 H 338.759 0.37069 -6.94011 0
M  V30 3579 H 341.95 0.538812 -4.64989 0
M  V30 3580 H 342.123 0.494345 -6.46112 0
M  V30 3581 N 335.529 1.53961 0.336706 0
M  V30 3582 C 336.439 1.85432 1.43708 0
M  V30 3583 C 337.455 0.745053 1.57242 0
M  V30 3584 O 338.631 1.03804 1.72588 0
M  V30 3585 C 335.696 2.06349 2.78605 0
M  V30 3586 C 334.757 3.30191 2.74358 0
M  V30 3587 C 333.99 3.50101 4.02822 0
M  V30 3588 O 334.213 2.7371 5.00439 0
M  V30 3589 O 333.147 4.43547 4.06878 0
M  V30 3590 H 336.973 2.78975 1.20028 0
M  V30 3591 H 334.558 1.39701 0.52952 0
M  V30 3592 H 336.44 2.21513 3.58483 0
M  V30 3593 H 335.115 1.15995 3.02203 0
M  V30 3594 H 334.022 3.20425 1.93078 0
M  V30 3595 H 335.355 4.2056 2.55715 0
M  V30 3596 N 337.007 -0.598083 1.45811 0
M  V30 3597 C 338.235 -1.38322 1.53866 0
M  V30 3598 C 338.65 -1.87992 0.174479 0
M  V30 3599 O 338.007 -1.62756 -0.825627 0
M  V30 3600 C 338.058 -2.58125 2.53089 0
M  V30 3601 O 337.779 -2.10516 3.84206 0
M  V30 3602 C 339.28 -3.50869 2.70935 0
M  V30 3603 H 336.5 -0.423093 0.520801 0
M  V30 3604 H 339.044 -0.728527 1.91083 0
M  V30 3605 H 337.199 -3.19615 2.18917 0
M  V30 3606 H 337.613 -2.88425 4.38077 0
M  V30 3607 H 339.087 -4.31451 3.44317 0
M  V30 3608 H 339.564 -4.01822 1.77301 0
M  V30 3609 H 340.17 -2.95225 3.06141 0
M  V30 3610 N 338.485 -1.33259 -0.841409 0
M  V30 3611 C 339.435 -1.19872 -1.93945 0
M  V30 3612 C 340.419 -0.102269 -1.60575 0
M  V30 3613 O 341.611 -0.330114 -1.73894 0
M  V30 3614 C 338.74 -0.937517 -3.30251 0
M  V30 3615 C 337.826 -2.07629 -3.69799 0
M  V30 3616 N 338.217 -3.32604 -3.81062 0
M  V30 3617 C 336.515 -1.98242 -3.9952 0
M  V30 3618 C 337.216 -4.07275 -4.15333 0
M  V30 3619 N 336.192 -3.35691 -4.27566 0
M  V30 3620 H 339.994 -2.14604 -2.00805 0
M  V30 3621 H 337.508 -1.2523 -1.03398 0
M  V30 3622 H 339.505 -0.822545 -4.08705 0
M  V30 3623 H 338.165 0.00128798 -3.247 0
M  V30 3624 H 339.176 -3.67382 -3.65035 0
M  V30 3625 H 335.853 -1.12005 -4.02195 0
M  V30 3626 H 337.243 -5.1511 -4.31406 0
M  V30 3627 N 339.963 1.05934 -1.16686 0
M  V30 3628 C 341.24 1.75643 -0.860747 0
M  V30 3629 C 341.62 2.01144 0.640641 0
M  V30 3630 O 340.968 1.64147 1.58959 0
M  V30 3631 C 341.178 3.05493 -1.68745 0
M  V30 3632 C 342.526 3.79581 -1.90271 0
M  V30 3633 O 343.55 3.15344 -1.65641 0
M  V30 3634 O 342.409 4.9499 -2.31618 0
M  V30 3635 H 339.503 0.763426 -0.317977 0
M  V30 3636 H 342.049 1.1217 -1.27342 0
M  V30 3637 H 340.821 2.8264 -2.70611 0
M  V30 3638 H 340.444 3.76702 -1.27206 0
M  V30 3639 N 341.441 0.965919 1.2453 0
M  V30 3640 C 342.718 0.543777 1.87889 0
M  V30 3641 C 343.098 -0.97909 1.87021 0
M  V30 3642 O 342.446 -1.84969 1.3416 0
M  V30 3643 C 342.656 1.13327 3.30088 0
M  V30 3644 C 344.004 1.21707 4.06783 0
M  V30 3645 O 345.028 1.08566 3.39252 0
M  V30 3646 O 343.887 1.42456 5.27606 0
M  V30 3647 H 340.981 0.181054 0.806938 0
M  V30 3648 H 343.527 1.06007 1.32516 0
M  V30 3649 H 342.299 2.17612 3.25209 0
M  V30 3650 H 341.922 0.600911 3.93033 0
M  V30 3651 N 342.919 -1.39368 0.735821 0
M  V30 3652 C 344.33 -1.83313 0.354015 0
M  V30 3653 C 344.681 -1.61461 -1.11466 0
M  V30 3654 O 343.806 -1.10621 -1.85989 0
M  V30 3655 C 344.401 -3.32781 0.635769 0
M  V30 3656 C 342.96 -3.75142 0.307448 0
M  V30 3657 C 342.107 -2.62358 0.897974 0
M  V30 3658 H 345.058 -1.28349 0.933398 0
M  V30 3659 H 345.079 -3.80388 -0.0921773 0
M  V30 3660 H 344.591 -3.48654 1.70476 0
M  V30 3661 H 342.692 -3.64857 -0.755674 0
M  V30 3662 H 342.805 -4.72532 0.790583 0
M  V30 3663 H 341.169 -2.52624 0.324551 0
M  V30 3664 H 341.952 -2.81036 1.97164 0
M  V30 3665 N 344.397 -0.483516 -1.5 0
M  V30 3666 C 345.36 0.292965 -2.2732 0
M  V30 3667 C 346.36 0.909499 -1.32608 0
M  V30 3668 O 347.55 0.776745 -1.55924 0
M  V30 3669 C 344.682 1.41854 -3.09984 0
M  V30 3670 H 345.875 -0.385289 -2.97415 0
M  V30 3671 H 343.428 -0.237942 -1.54478 0
M  V30 3672 H 344.163 2.13148 -2.44414 0
M  V30 3673 H 343.948 0.982114 -3.79601 0
M  V30 3674 H 345.438 1.96597 -3.68429 0
M  V30 3675 N 345.875 1.56104 -0.216619 0
M  V30 3676 C 347.291 1.58995 0.13886 0
M  V30 3677 C 347.491 1.23333 1.59346 0
M  V30 3678 O 346.547 0.966234 2.33281 0
M  V30 3679 C 347.86 3.00143 -0.182968 0
M  V30 3680 C 349.408 3.12751 -0.124807 0
M  V30 3681 C 349.883 4.56068 -0.420241 0
M  V30 3682 N 351.374 4.61723 -0.369634 0
M  V30 3683 C 352.109 5.70542 -0.571789 0
M  V30 3684 N 351.605 6.87744 -0.835453 0
M  V30 3685 N 353.398 5.59831 -0.504563 0
M  V30 3686 H 345.549 1.77562 -1.16557 0
M  V30 3687 H 347.812 0.825091 -0.466828 0
M  V30 3688 H 347.518 3.30871 -1.19237 0
M  V30 3689 H 347.392 3.73813 0.504367 0
M  V30 3690 H 349.779 2.81822 0.875223 0
M  V30 3691 H 349.86 2.41421 -0.845544 0
M  V30 3692 H 349.504 4.87713 -1.41769 0
M  V30 3693 H 349.434 5.25617 0.321631 0
M  V30 3694 H 351.925 3.77502 -0.173338 0
M  V30 3695 H 352.238 7.66587 -0.977938 0
M  V30 3696 H 350.583 6.895 -0.872592 0
M  V30 3697 H 353.774 4.67145 -0.298842 0
M  V30 3698 H 353.947 6.44573 -0.665519 0
M  V30 3699 N 347.353 -0.0568162 1.57498 0
M  V30 3700 C 348.601 -0.751617 1.87604 0
M  V30 3701 C 348.922 -1.77351 0.81066 0
M  V30 3702 O 348.192 -1.95254 -0.159018 0
M  V30 3703 H 346.772 -0.280583 0.692302 0
M  V30 3704 H 349.434 -0.0293483 1.94878 0
M  V30 3705 H 348.53 -1.25852 2.856 0
M  V30 3706 N 348.832 -1.54138 -0.328536 0
M  V30 3707 C 350.248 -1.44736 -0.672574 0
M  V30 3708 C 350.448 -0.616217 -1.91846 0
M  V30 3709 O 349.504 -0.113067 -2.52247 0
M  V30 3710 C 350.817 -2.884 -0.851217 0
M  V30 3711 C 352.365 -2.98271 -0.948877 0
M  V30 3712 C 352.84 -4.43074 -1.15973 0
M  V30 3713 N 354.331 -4.46665 -1.22658 0
M  V30 3714 C 355.066 -5.55857 -1.40751 0
M  V30 3715 N 354.562 -6.75026 -1.5592 0
M  V30 3716 N 356.355 -5.43495 -1.4342 0
M  V30 3717 H 348.506 -2.06661 0.490421 0
M  V30 3718 H 350.769 -0.934812 0.157579 0
M  V30 3719 H 350.475 -3.51699 -0.00704236 0
M  V30 3720 H 350.349 -3.34225 -1.74853 0
M  V30 3721 H 352.736 -2.35102 -1.78356 0
M  V30 3722 H 352.817 -2.55785 -0.0281435 0
M  V30 3723 H 352.461 -5.06827 -0.329915 0
M  V30 3724 H 352.391 -4.83165 -2.09426 0
M  V30 3725 H 354.882 -3.60797 -1.124 0
M  V30 3726 H 355.195 -7.54004 -1.69404 0
M  V30 3727 H 353.54 -6.77944 -1.53027 0
M  V30 3728 H 356.731 -4.49349 -1.31162 0
M  V30 3729 H 356.904 -6.28649 -1.57178 0
M  V30 3730 N 350.31 0.590341 -1.46126 0
M  V30 3731 C 351.721 1.17243 -1.45296 0
M  V30 3732 C 352.072 1.95281 -0.189723 0
M  V30 3733 O 351.197 2.04502 0.707674 0
M  V30 3734 C 351.792 2.13284 -2.6324 0
M  V30 3735 C 350.351 2.66832 -2.65476 0
M  V30 3736 C 349.498 1.42557 -2.3785 0
M  V30 3737 H 352.449 0.378692 -1.54116 0
M  V30 3738 H 352.47 2.96619 -2.38323 0
M  V30 3739 H 351.982 1.56459 -3.55165 0
M  V30 3740 H 350.083 3.27548 -1.77603 0
M  V30 3741 H 350.196 3.10088 -3.65215 0
M  V30 3742 H 348.56 1.72107 -1.87753 0
M  V30 3743 H 349.343 0.875741 -3.31942 0
M  V30 3744 N 351.788 1.33704 0.83433 0
M  V30 3745 C 353.036 1.25169 1.58673 0
M  V30 3746 C 353.357 -0.18127 1.94156 0
M  V30 3747 O 352.627 -1.11113 1.6134 0
M  V30 3748 H 351.207 0.4603 0.58833 0
M  V30 3749 H 353.869 1.67478 0.996847 0
M  V30 3750 H 352.965 1.84856 2.51465 0
M  V30 3751 N 353.266 -1.05314 1.17247 0
M  V30 3752 C 354.491 -1.82509 0.985148 0
M  V30 3753 C 354.916 -1.82343 -0.461788 0
M  V30 3754 O 354.274 -1.23151 -1.33055 0
M  V30 3755 C 354.322 -3.26566 1.52929 0
M  V30 3756 O 353.426 -4.05666 0.742225 0
M  V30 3757 H 352.767 -0.564347 0.349869 0
M  V30 3758 H 355.297 -1.32718 1.55715 0
M  V30 3759 H 355.307 -3.77369 1.55103 0
M  V30 3760 H 353.982 -3.26001 2.58256 0
M  V30 3761 H 352.559 -3.64397 0.791794 0
M  V30 3762 N 354.744 -0.972509 -1.24016 0
M  V30 3763 C 355.707 -0.511403 -2.23422 0
M  V30 3764 C 356.707 0.394679 -1.55881 0
M  V30 3765 O 357.897 0.189469 -1.73167 0
M  V30 3766 C 355.029 0.258769 -3.39916 0
M  V30 3767 H 356.222 -1.39024 -2.6573 0
M  V30 3768 H 353.775 -0.757585 -1.36713 0
M  V30 3769 H 354.51 1.1545 -3.03054 0
M  V30 3770 H 354.295 -0.391522 -3.9014 0
M  V30 3771 H 355.785 0.570244 -4.13688 0
M  V30 3772 N 356.222 1.38976 -0.743202 0
M  V30 3773 C 357.169 2.30544 -0.10861 0
M  V30 3774 C 358.139 1.49642 0.720869 0
M  V30 3775 O 359.324 1.78304 0.679142 0
M  V30 3776 C 356.464 3.36018 0.786496 0
M  V30 3777 C 355.577 4.31963 -0.0564849 0
M  V30 3778 C 354.712 5.24506 0.840657 0
M  V30 3779 C 353.751 6.121 -0.00658363 0
M  V30 3780 N 352.888 6.96973 0.846943 0
M  V30 3781 H 357.728 2.8424 -0.895088 0
M  V30 3782 H 355.265 1.3995 -0.453048 0
M  V30 3783 H 357.223 3.95768 1.31999 0
M  V30 3784 H 355.853 2.83758 1.53887 0
M  V30 3785 H 354.905 3.73763 -0.707492 0
M  V30 3786 H 356.217 4.93703 -0.711229 0
M  V30 3787 H 355.371 5.89322 1.4417 0
M  V30 3788 H 354.11 4.63107 1.52916 0
M  V30 3789 H 353.115 5.46289 -0.620366 0
M  V30 3790 H 354.34 6.75565 -0.691992 0
M  V30 3791 H 352.286 6.38133 1.52059 0
M  V30 3792 H 352.203 7.5559 0.248864 0
M  V30 3793 H 353.471 7.6621 1.43328 0
M  V30 3794 N 357.7 0.491464 1.49741 0
M  V30 3795 C 359.116 0.146835 1.58923 0
M  V30 3796 C 359.316 -1.34804 1.49767 0
M  V30 3797 O 358.372 -2.12317 1.36667 0
M  V30 3798 C 359.685 0.715157 2.92072 0
M  V30 3799 C 361.233 0.680407 3.05515 0
M  V30 3800 C 361.708 1.22663 4.41269 0
M  V30 3801 N 363.199 1.18691 4.47735 0
M  V30 3802 C 363.934 1.57984 5.51207 0
M  V30 3803 N 363.43 2.04824 6.6183 0
M  V30 3804 N 365.223 1.49459 5.41866 0
M  V30 3805 H 357.374 1.46347 1.53936 0
M  V30 3806 H 359.637 0.606453 0.728642 0
M  V30 3807 H 359.343 1.76317 3.04311 0
M  V30 3808 H 359.217 0.17018 3.76816 0
M  V30 3809 H 361.604 -0.358743 2.92911 0
M  V30 3810 H 361.685 1.26242 2.22478 0
M  V30 3811 H 361.329 2.26451 4.54623 0
M  V30 3812 H 361.259 0.620637 5.2293 0
M  V30 3813 H 363.75 0.843605 3.68364 0
M  V30 3814 H 364.063 2.32901 7.3687 0
M  V30 3815 H 362.408 2.08791 6.62896 0
M  V30 3816 H 365.599 1.12692 4.54333 0
M  V30 3817 H 365.772 1.80406 6.22381 0
M  V30 3818 N 359.178 -1.55987 0.224894 0
M  V30 3819 C 360.408 -2.02489 -0.41007 0
M  V30 3820 C 360.816 -1.10391 -1.53657 0
M  V30 3821 O 360.159 -0.106458 -1.83391 0
M  V30 3822 C 360.221 -3.45319 -0.999757 0
M  V30 3823 C 359.885 -4.56999 -0.00827976 0
M  V30 3824 C 360.882 -5.13812 0.793314 0
M  V30 3825 C 358.567 -5.02176 0.111442 0
M  V30 3826 C 360.561 -6.14276 1.7013 0
M  V30 3827 C 358.248 -6.02477 1.02296 0
M  V30 3828 C 359.246 -6.58403 1.81643 0
M  V30 3829 O 358.934 -7.56751 2.71262 0
M  V30 3830 H 358.666 -0.667915 -0.104235 0
M  V30 3831 H 361.22 -2.0257 0.339782 0
M  V30 3832 H 359.45 -3.42318 -1.79876 0
M  V30 3833 H 361.139 -3.7545 -1.54248 0
M  V30 3834 H 361.905 -4.79756 0.711288 0
M  V30 3835 H 357.784 -4.58323 -0.49605 0
M  V30 3836 H 361.328 -6.57854 2.32107 0
M  V30 3837 H 357.225 -6.35954 1.10599 0
M  V30 3838 H 357.993 -7.74286 2.65375 0
M  V30 3839 N 360.656 0.0484629 -1.57525 0
M  V30 3840 C 361.881 0.759177 -1.93006 0
M  V30 3841 C 362.306 1.69125 -0.823317 0
M  V30 3842 O 361.664 1.79931 0.222364 0
M  V30 3843 C 361.712 1.50899 -3.27509 0
M  V30 3844 O 360.816 2.62112 -3.18388 0
M  V30 3845 H 360.157 0.205564 -0.631379 0
M  V30 3846 H 362.687 0.00972959 -2.04598 0
M  V30 3847 H 362.697 1.88317 -3.6194 0
M  V30 3848 H 361.372 0.825269 -4.0763 0
M  V30 3849 H 359.949 2.27379 -2.95556 0
M  V30 3850 N 362.134 1.5431 0.320358 0
M  V30 3851 C 363.55 1.45091 0.664889 0
M  V30 3852 C 363.75 0.626382 1.91517 0
M  V30 3853 O 362.806 0.126443 2.52183 0
M  V30 3854 C 364.119 2.88848 0.83591 0
M  V30 3855 C 365.667 2.9877 0.933046 0
M  V30 3856 C 366.142 4.43683 1.13621 0
M  V30 3857 N 367.633 4.47309 1.20287 0
M  V30 3858 C 368.368 5.56595 1.37801 0
M  V30 3859 N 367.864 6.75844 1.52338 0
M  V30 3860 N 369.657 5.44248 1.40535 0
M  V30 3861 H 361.808 2.06398 -0.501374 0
M  V30 3862 H 364.071 0.933963 -0.162534 0
M  V30 3863 H 363.777 3.51698 -0.0116092 0
M  V30 3864 H 363.651 3.35148 1.73078 0
M  V30 3865 H 366.038 2.36045 1.77107 0
M  V30 3866 H 366.119 2.55796 0.0145782 0
M  V30 3867 H 365.763 5.06995 0.303032 0
M  V30 3868 H 365.693 4.84269 2.0686 0
M  V30 3869 H 368.184 3.61388 1.10485 0
M  V30 3870 H 368.497 7.54892 1.65403 0
M  V30 3871 H 366.842 6.78746 1.4943 0
M  V30 3872 H 370.033 4.50038 1.28777 0
M  V30 3873 H 370.206 6.29473 1.53842 0
M  V30 3874 N 363.613 -0.582584 1.46437 0
M  V30 3875 C 364.838 -1.37168 1.55563 0
M  V30 3876 C 365.263 -1.87061 0.19743 0
M  V30 3877 O 364.621 -1.61572 -0.822451 0
M  V30 3878 C 364.669 -2.53511 2.56446 0
M  V30 3879 O 363.773 -3.54953 2.09958 0
M  V30 3880 H 363.114 -0.408494 0.523477 0
M  V30 3881 H 365.644 -0.706646 1.9201 0
M  V30 3882 H 365.654 -3.00426 2.76058 0
M  V30 3883 H 364.329 -2.16549 3.55076 0
M  V30 3884 H 362.906 -3.14516 2.00334 0
M  V30 3885 N 365.091 -1.34144 -0.827227 0
M  V30 3886 C 366.368 -1.16844 -1.56865 0
M  V30 3887 C 366.748 0.260654 -2.09485 0
M  V30 3888 O 366.096 1.26138 -1.9053 0
M  V30 3889 C 366.306 -2.21939 -2.6934 0
M  V30 3890 C 367.654 -2.56695 -3.3822 0
M  V30 3891 O 368.678 -2.20695 -2.79593 0
M  V30 3892 O 367.537 -3.18518 -4.44082 0
M  V30 3893 H 364.631 -0.452669 -0.692112 0
M  V30 3894 H 367.177 -1.45763 -0.868973 0
M  V30 3895 H 365.949 -3.17882 -2.28182 0
M  V30 3896 H 365.572 -1.94172 -3.46962 0
M  V30 3897 N 366.569 1.04691 -1.17803 0
M  V30 3898 C 367.516 2.12557 -0.899343 0
M  V30 3899 C 368.486 1.65339 0.158771 0
M  V30 3900 O 369.671 1.90789 0.0204797 0
M  V30 3901 C 366.811 3.42481 -0.424315 0
M  V30 3902 C 365.924 4.03346 -1.54713 0
M  V30 3903 C 365.059 5.21208 -1.02546 0
M  V30 3904 C 364.098 5.74089 -2.12339 0
M  V30 3905 N 363.235 6.83247 -1.61612 0
M  V30 3906 H 368.075 2.35734 -1.823 0
M  V30 3907 H 365.612 1.1564 -0.909159 0
M  V30 3908 H 367.57 4.16996 -0.130421 0
M  V30 3909 H 366.2 3.19471 0.462377 0
M  V30 3910 H 365.252 3.2622 -1.95664 0
M  V30 3911 H 366.564 4.38628 -2.37501 0
M  V30 3912 H 365.718 6.02812 -0.685718 0
M  V30 3913 H 364.457 4.87414 -0.167084 0
M  V30 3914 H 363.462 4.91111 -2.47165 0
M  V30 3915 H 364.687 6.0993 -2.98601 0
M  V30 3916 H 362.633 6.5134 -0.780533 0
M  V30 3917 H 362.55 7.17559 -2.38003 0
M  V30 3918 H 363.818 7.68491 -1.30545 0
M  V30 3919 N 368.047 0.979072 1.23499 0
M  V30 3920 C 369.463 0.687475 1.44034 0
M  V30 3921 C 369.663 -0.746801 1.8715 0
M  V30 3922 O 368.719 -1.51939 2.0167 0
M  V30 3923 C 370.032 1.68127 2.49307 0
M  V30 3924 C 371.58 1.69516 2.63122 0
M  V30 3925 C 372.055 2.67723 3.71603 0
M  V30 3926 N 373.546 2.66233 3.79044 0
M  V30 3927 C 374.281 3.38891 4.62537 0
M  V30 3928 N 373.777 4.21103 5.50131 0
M  V30 3929 N 375.57 3.27661 4.56721 0
M  V30 3930 H 367.721 1.90559 0.938135 0
M  V30 3931 H 369.984 0.821051 0.473897 0
M  V30 3932 H 369.69 2.70693 2.2454 0
M  V30 3933 H 369.564 1.46306 3.4767 0
M  V30 3934 H 371.951 0.676561 2.8724 0
M  V30 3935 H 372.032 1.95404 1.65079 0
M  V30 3936 H 371.676 3.69724 3.48233 0
M  V30 3937 H 371.606 2.39111 4.69184 0
M  V30 3938 H 374.097 2.06568 3.16446 0
M  V30 3939 H 374.41 4.73403 6.10827 0
M  V30 3940 H 372.755 4.25195 5.49759 0
M  V30 3941 H 375.946 2.62887 3.87309 0
M  V30 3942 H 376.119 3.84547 5.21562 0
M  V30 3943 N 369.525 -1.3858 0.750561 0
M  V30 3944 C 370.941 -1.53759 0.427824 0
M  V30 3945 C 371.141 -1.71401 -1.05943 0
M  V30 3946 O 370.197 -1.72331 -1.84549 0
M  V30 3947 C 371.51 -2.74642 1.22443 0
M  V30 3948 C 373.058 -2.88489 1.2142 0
M  V30 3949 C 373.533 -4.12329 1.9937 0
M  V30 3950 N 375.024 -4.194 1.96616 0
M  V30 3951 C 375.759 -5.14209 2.53727 0
M  V30 3952 N 375.255 -6.14709 3.19539 0
M  V30 3953 N 377.048 -5.06537 2.43673 0
M  V30 3954 H 369.199 -1.25377 1.71447 0
M  V30 3955 H 371.462 -0.608844 0.726645 0
M  V30 3956 H 371.168 -2.68 2.27747 0
M  V30 3957 H 371.042 -3.67745 0.839273 0
M  V30 3958 H 373.429 -2.94614 0.169232 0
M  V30 3959 H 373.51 -1.96406 1.63885 0
M  V30 3960 H 373.154 -4.06966 3.03877 0
M  V30 3961 H 373.084 -5.03486 1.54302 0
M  V30 3962 H 375.575 -3.47421 1.48684 0
M  V30 3963 H 375.888 -6.8354 3.60545 0
M  V30 3964 H 374.233 -6.1505 3.23633 0
M  V30 3965 H 377.424 -4.26962 1.91889 0
M  V30 3966 H 377.597 -5.80245 2.88479 0
M  V30 3967 N 371.003 -0.499398 -1.49478 0
M  V30 3968 C 371.951 0.293604 -2.3074 0
M  V30 3969 C 372.945 0.96427 -1.39277 0
M  V30 3970 O 374.151 0.892141 -1.56336 0
M  V30 3971 H 370.526 0.113541 -0.743379 0
M  V30 3972 H 372.497 -0.411772 -2.95545 0
M  V30 3973 C 371.246 1.3462 -3.20582 0
M  V30 3974 H 370.569 0.83954 -3.90886 0
M  V30 3975 H 372.009 1.87308 -3.80384 0
M  V30 3976 C 370.468 2.36351 -2.40083 0
M  V30 3977 O 370.998 3.422 -2.10385 0
M  V30 3978 N 369.204 2.0878 -2.02137 0
M  V30 3979 H 368.751 1.22723 -2.26488 0
M  V30 3980 H 368.709 2.77075 -1.48583 0
M  V30 3981 N 372.481 1.55866 -0.233164 0
M  V30 3982 C 373.897 1.59133 0.121988 0
M  V30 3983 C 374.097 1.25016 1.58029 0
M  V30 3984 O 373.153 0.990922 2.32243 0
M  V30 3985 C 374.466 2.99932 -0.214792 0
M  V30 3986 C 376.014 3.12601 -0.157971 0
M  V30 3987 C 376.489 4.55597 -0.46859 0
M  V30 3988 N 377.98 4.61305 -0.418585 0
M  V30 3989 C 378.715 5.69903 -0.63227 0
M  V30 3990 N 378.211 6.86819 -0.90835 0
M  V30 3991 N 380.004 5.59264 -0.563913 0
M  V30 3992 H 372.155 1.76315 -1.18434 0
M  V30 3993 H 374.418 0.820093 -0.475553 0
M  V30 3994 H 374.124 3.29588 -1.22739 0
M  V30 3995 H 373.998 3.74327 0.464691 0
M  V30 3996 H 376.385 2.82735 0.845283 0
M  V30 3997 H 376.466 2.40511 -0.871102 0
M  V30 3998 H 376.11 4.86182 -1.46934 0
M  V30 3999 H 376.04 5.25928 0.265865 0
M  V30 4000 H 378.531 3.77297 -0.213368 0
M  V30 4001 H 378.844 7.65507 -1.05919 0
M  V30 4002 H 377.189 6.88536 -0.945673 0
M  V30 4003 H 380.38 4.66802 -0.348372 0
M  V30 4004 H 380.553 6.43831 -0.733847 0
M  V30 4005 N 373.959 -0.0401083 1.57549 0
M  V30 4006 C 375.189 -0.744115 1.92734 0
M  V30 4007 C 375.597 -1.70005 0.830348 0
M  V30 4008 O 374.94 -1.82576 -0.20286 0
M  V30 4009 C 375.002 -1.56516 3.2364 0
M  V30 4010 C 374.666 -0.7752 4.50377 0
M  V30 4011 C 375.663 -0.0803326 5.19838 0
M  V30 4012 C 373.348 -0.733002 4.96923 0
M  V30 4013 C 375.342 0.646154 6.34116 0
M  V30 4014 C 373.029 -0.00276321 6.111 0
M  V30 4015 C 374.027 0.685585 6.7955 0
M  V30 4016 O 373.715 1.40399 7.91545 0
M  V30 4017 H 373.447 -0.214861 0.640945 0
M  V30 4018 H 376.001 -0.00503675 2.05399 0
M  V30 4019 H 374.231 -2.3478 3.07271 0
M  V30 4020 H 375.92 -2.15076 3.44234 0
M  V30 4021 H 376.686 -0.104035 4.84888 0
M  V30 4022 H 372.565 -1.25827 4.43496 0
M  V30 4023 H 376.109 1.18398 6.87479 0
M  V30 4024 H 372.006 0.0229012 6.45496 0
M  V30 4025 H 372.774 1.31653 8.07843 0
M  V30 4026 N 375.437 -1.54477 -0.31217 0
M  V30 4027 C 376.853 -1.45442 -0.657185 0
M  V30 4028 C 377.053 -0.63653 -1.91182 0
M  V30 4029 O 376.109 -0.139815 -2.52113 0
M  V30 4030 C 377.422 -2.89287 -0.82058 0
M  V30 4031 C 378.97 -2.9926 -0.917188 0
M  V30 4032 C 379.445 -4.44279 -1.11267 0
M  V30 4033 N 380.936 -4.4794 -1.17914 0
M  V30 4034 C 381.671 -5.57318 -1.34848 0
M  V30 4035 N 381.167 -6.76642 -1.48752 0
M  V30 4036 N 382.96 -5.44986 -1.37647 0
M  V30 4037 H 375.111 -2.06129 0.512313 0
M  V30 4038 H 377.374 -0.933088 0.167485 0
M  V30 4039 H 377.08 -3.51687 0.0302604 0
M  V30 4040 H 376.954 -3.36061 -1.71298 0
M  V30 4041 H 379.341 -2.36981 -1.75852 0
M  V30 4042 H 379.422 -2.558 -0.00101257 0
M  V30 4043 H 379.066 -5.07149 -0.27614 0
M  V30 4044 H 378.996 -4.85359 -2.04289 0
M  V30 4045 H 381.487 -3.61969 -1.08567 0
M  V30 4046 H 381.8 -7.55758 -1.61397 0
M  V30 4047 H 380.145 -6.79529 -1.45828 0
M  V30 4048 H 383.336 -4.50715 -1.26388 0
M  V30 4049 H 383.509 -6.3028 -1.50501 0
M  V30 4050 N 376.915 0.57481 -1.46744 0
M  V30 4051 C 378.143 1.35856 -1.56047 0
M  V30 4052 C 378.558 1.87691 -0.204365 0
M  V30 4053 O 377.915 1.64049 0.79963 0
M  V30 4054 C 377.966 2.54066 -2.57163 0
M  V30 4055 O 377.687 2.04377 -3.87507 0
M  V30 4056 C 379.188 3.46514 -2.76483 0
M  V30 4057 H 376.408 0.414754 -0.527466 0
M  V30 4058 H 378.952 0.698035 -1.92218 0
M  V30 4059 H 377.107 3.16092 -2.23974 0
M  V30 4060 H 377.521 2.81419 -4.4261 0
M  V30 4061 H 378.995 4.25919 -3.51137 0
M  V30 4062 H 379.472 3.98951 -1.83671 0
M  V30 4063 H 380.078 2.90318 -3.10799 0
M  V30 4064 N 378.394 1.34581 0.820102 0
M  V30 4065 C 379.81 1.14325 1.11364 0
M  V30 4066 C 380.01 -0.0533648 2.01429 0
M  V30 4067 O 379.066 -0.728044 2.41776 0
M  V30 4068 C 380.379 2.43983 1.75764 0
M  V30 4069 C 381.927 2.50065 1.88246 0
M  V30 4070 C 382.402 3.79732 2.56061 0
M  V30 4071 N 383.893 3.80908 2.63558 0
M  V30 4072 C 384.628 4.77961 3.16766 0
M  V30 4073 N 384.124 5.85397 3.70517 0
M  V30 4074 N 385.917 4.65413 3.15194 0
M  V30 4075 H 378.068 2.11246 0.221096 0
M  V30 4076 H 380.331 0.934289 0.160649 0
M  V30 4077 H 380.037 3.31651 1.1705 0
M  V30 4078 H 379.911 2.57531 2.75604 0
M  V30 4079 H 382.298 1.62834 2.46108 0
M  V30 4080 H 382.379 2.40442 0.873006 0
M  V30 4081 H 382.023 4.67354 1.98853 0
M  V30 4082 H 381.953 3.86639 3.57516 0
M  V30 4083 H 384.444 3.03274 2.25463 0
M  V30 4084 H 384.757 6.55463 4.09376 0
M  V30 4085 H 383.102 5.89107 3.68752 0
M  V30 4086 H 386.293 3.80627 2.72471 0
M  V30 4087 H 386.466 5.41216 3.56356 0
M  V30 4088 N 379.872 -1.04064 1.18357 0
M  V30 4089 C 381.097 -1.81454 1.00445 0
M  V30 4090 C 381.522 -1.82823 -0.442423 0
M  V30 4091 O 380.88 -1.24555 -1.31741 0
M  V30 4092 C 380.928 -3.24925 1.56384 0
M  V30 4093 O 380.032 -4.04856 0.785209 0
M  V30 4094 H 379.373 -0.560604 0.355835 0
M  V30 4095 H 381.903 -1.31059 1.57114 0
M  V30 4096 H 381.913 -3.75702 1.59097 0
M  V30 4097 H 380.588 -3.23244 2.61699 0
M  V30 4098 H 379.165 -3.63537 0.830399 0
M  V30 4099 N 381.35 -0.985608 -1.22978 0
M  V30 4100 C 382.578 -0.675582 -1.95559 0
M  V30 4101 C 382.993 0.758413 -1.72897 0
M  V30 4102 O 382.35 1.51094 -1.02357 0
M  V30 4103 C 382.401 -0.96293 -3.48439 0
M  V30 4104 O 382.122 -2.34057 -3.70336 0
M  V30 4105 C 383.623 -0.669585 -4.38214 0
M  V30 4106 H 380.843 -0.250523 -0.622478 0
M  V30 4107 H 383.387 -1.3184 -1.56328 0
M  V30 4108 H 381.542 -0.366033 -3.85667 0
M  V30 4109 H 381.956 -2.43424 -4.64591 0
M  V30 4110 H 383.43 -0.920967 -5.44263 0
M  V30 4111 H 383.907 0.396383 -4.37408 0
M  V30 4112 H 384.513 -1.2472 -4.06602 0
M  V30 4113 N 382.828 1.3818 -0.7579 0
M  V30 4114 C 384.053 2.04827 -0.325679 0
M  V30 4115 C 384.478 1.56788 1.03919 0
M  V30 4116 O 383.836 0.721811 1.66312 0
M  V30 4117 C 383.884 3.58774 -0.362447 0
M  V30 4118 O 382.988 4.07372 0.642033 0
M  V30 4119 H 382.329 0.64833 -0.143402 0
M  V30 4120 H 384.859 1.7677 -1.03023 0
M  V30 4121 H 384.869 4.07434 -0.214844 0
M  V30 4122 H 383.544 3.93096 -1.35824 0
M  V30 4123 H 382.121 3.70068 0.458688 0
M  V30 4124 N 384.306 0.507319 1.49211 0
M  V30 4125 C 385.531 -0.033725 2.07373 0
M  V30 4126 C 385.956 -1.29485 1.36437 0
M  V30 4127 O 385.314 -1.76294 0.423087 0
M  V30 4128 C 385.362 -0.263945 3.59633 0
M  V30 4129 O 384.466 -1.33737 3.90113 0
M  V30 4130 H 383.807 0.0290331 0.663365 0
M  V30 4131 H 386.337 0.708749 1.91932 0
M  V30 4132 H 386.347 -0.493536 4.05004 0
M  V30 4133 H 385.022 0.657424 4.10671 0
M  V30 4134 H 383.599 -1.09224 3.56545 0
M  V30 4135 N 385.784 -1.5574 0.241426 0
M  V30 4136 C 386.747 -2.19877 -0.647063 0
M  V30 4137 C 387.747 -1.16642 -1.10686 0
M  V30 4138 O 388.937 -1.41757 -1.01245 0
M  V30 4139 C 386.069 -2.83797 -1.88871 0
M  V30 4140 H 387.262 -2.99772 -0.087574 0
M  V30 4141 H 384.815 -1.56298 -0.00813574 0
M  V30 4142 H 385.55 -2.07824 -2.48957 0
M  V30 4143 H 385.335 -3.59414 -1.56728 0
M  V30 4144 H 386.825 -3.32898 -2.52129 0
M  V30 4145 N 387.262 0.0317525 -1.57568 0
M  V30 4146 C 388.51 0.721676 -1.88776 0
M  V30 4147 C 388.831 1.76039 -0.838772 0
M  V30 4148 O 388.101 1.95482 0.127935 0
M  V30 4149 H 386.681 0.269534 -0.696678 0
M  V30 4150 H 389.343 -0.00165879 -1.949 0
M  V30 4151 H 388.439 1.21293 -2.87566 0
M  V30 4152 N 388.74 1.54641 0.303973 0
M  V30 4153 C 389.965 1.78092 1.06292 0
M  V30 4154 C 390.39 0.537342 1.80262 0
M  V30 4155 O 389.748 -0.511993 1.7392 0
M  V30 4156 C 389.796 2.98612 2.02147 0
M  V30 4157 O 388.9 2.71528 3.10397 0
M  V30 4158 H 388.241 0.589548 0.305497 0
M  V30 4159 H 390.771 2.01716 0.3423 0
M  V30 4160 H 390.781 3.265 2.44667 0
M  V30 4161 H 389.456 3.88785 1.47714 0
M  V30 4162 H 388.033 2.54648 2.72413 0
M  V30 4163 N 390.218 -0.567019 1.47046 0
M  V30 4164 C 391.166 -1.69593 1.59188 0
M  V30 4165 C 392.16 -1.63046 0.459609 0
M  V30 4166 O 393.366 -1.6835 0.637058 0
M  V30 4167 H 389.741 -0.560993 0.500791 0
M  V30 4168 H 391.712 -1.56488 2.54075 0
M  V30 4169 C 390.461 -3.07964 1.61411 0
M  V30 4170 H 389.784 -3.13679 2.47881 0
M  V30 4171 H 391.224 -3.86671 1.73958 0
M  V30 4172 C 389.683 -3.35123 0.34559 0
M  V30 4173 O 390.213 -3.97812 -0.557521 0
M  V30 4174 N 388.419 -2.89699 0.22864 0
M  V30 4175 H 387.966 -2.38863 0.964479 0
M  V30 4176 H 387.924 -3.08242 -0.619192 0
M  V30 4177 N 391.696 -1.35014 -0.812953 0
M  V30 4178 C 392.644 -1.27435 -1.94585 0
M  V30 4179 C 393.638 -0.170494 -1.6854 0
M  V30 4180 O 394.844 -0.336085 -1.76835 0
M  V30 4181 H 391.219 -0.396144 -0.639198 0
M  V30 4182 H 393.19 -2.23158 -1.98098 0
M  V30 4183 C 391.939 -1.05677 -3.31252 0
M  V30 4184 H 391.262 -1.89853 -3.51846 0
M  V30 4185 H 392.702 -1.04413 -4.10943 0
M  V30 4186 C 391.161 0.239615 -3.36047 0
M  V30 4187 O 391.691 1.23759 -3.8216 0
M  V30 4188 N 389.897 0.276186 -2.89285 0
M  V30 4189 H 389.444 -0.53653 -2.51951 0
M  V30 4190 H 389.402 1.14332 -2.92875 0
M  V30 4191 N 393.175 1.03435 -1.18907 0
M  V30 4192 C 394.4 1.80919 -1.01406 0
M  V30 4193 C 394.825 1.83055 0.432721 0
M  V30 4194 O 394.183 1.25252 1.31079 0
M  V30 4195 C 394.231 3.24091 -1.58105 0
M  V30 4196 O 393.335 4.04434 -0.806669 0
M  V30 4197 H 392.676 0.558709 -0.358803 0
M  V30 4198 H 395.206 1.30223 -1.57807 0
M  V30 4199 H 395.216 3.74853 -1.61087 0
M  V30 4200 H 393.891 3.21851 -2.6341 0
M  V30 4201 H 392.468 3.63091 -0.849666 0
M  V30 4202 N 394.653 0.992116 1.22453 0
M  V30 4203 C 395.616 0.546883 2.2258 0
M  V30 4204 C 396.616 -0.369829 1.56489 0
M  V30 4205 O 397.806 -0.161896 1.73446 0
M  V30 4206 C 394.938 -0.204659 3.40285 0
M  V30 4207 H 396.131 1.43234 2.63484 0
M  V30 4208 H 393.684 0.779239 1.3549 0
M  V30 4209 H 394.419 -1.10614 3.04853 0
M  V30 4210 H 394.204 0.45354 3.89468 0
M  V30 4211 H 395.694 -0.504358 4.14543 0
M  V30 4212 N 396.131 -1.37776 0.765217 0
M  V30 4213 C 397.041 -2.34135 0.147666 0
M  V30 4214 C 398.057 -1.59854 -0.687215 0
M  V30 4215 O 399.233 -1.91983 -0.608659 0
M  V30 4216 C 396.298 -3.3901 -0.72617 0
M  V30 4217 C 395.359 -4.2912 0.124417 0
M  V30 4218 C 394.592 -5.28986 -0.707807 0
M  V30 4219 O 394.815 -5.36205 -1.94525 0
M  V30 4220 O 393.749 -6.01779 -0.12046 0
M  V30 4221 H 397.575 -2.88664 0.943758 0
M  V30 4222 H 395.16 -1.39824 0.526277 0
M  V30 4223 H 397.042 -4.03195 -1.22524 0
M  V30 4224 H 395.717 -2.86819 -1.50056 0
M  V30 4225 H 394.624 -3.68057 0.669696 0
M  V30 4226 H 395.957 -4.84598 0.861736 0
M  V30 4227 N 397.609 -0.515225 -1.4894 0
M  V30 4228 C 398.857 0.0241671 -2.02086 0
M  V30 4229 C 399.178 1.3616 -1.3959 0
M  V30 4230 O 398.448 1.87841 -0.556121 0
M  V30 4231 H 397.028 0.0119203 -0.746905 0
M  V30 4232 H 399.69 -0.675702 -1.82812 0
M  V30 4233 H 398.786 0.143385 -3.1177 0
M  V30 4234 N 399.087 1.5561 -0.249682 0
M  V30 4235 C 400.05 2.20217 0.635394 0
M  V30 4236 C 401.05 1.17227 1.10066 0
M  V30 4237 O 402.24 1.42292 1.00492 0
M  V30 4238 C 399.372 2.84794 1.87363 0
M  V30 4239 H 400.565 2.99814 0.0716752 0
M  V30 4240 H 398.118 1.563 -0.000153234 0
M  V30 4241 H 398.853 2.09142 2.47851 0
M  V30 4242 H 398.638 3.60241 1.5482 0
M  V30 4243 H 400.128 3.3423 2.5036 0
M  V30 4244 N 400.565 -0.0233959 1.57583 0
M  V30 4245 C 401.813 -0.711654 1.89156 0
M  V30 4246 C 402.134 -1.75591 0.848096 0
M  V30 4247 O 401.404 -1.95547 -0.117566 0
M  V30 4248 H 399.984 -0.265835 0.698098 0
M  V30 4249 H 402.646 0.0119948 1.94896 0
M  V30 4250 H 401.742 -1.19766 2.88206 0
M  V30 4251 N 402.043 -1.548 -0.295768 0
M  V30 4252 C 402.973 -1.89115 -1.36959 0
M  V30 4253 C 403.954 -0.75059 -1.52644 0
M  V30 4254 O 405.139 -1.00678 -1.66065 0
M  V30 4255 C 402.269 -2.14307 -2.73295 0
M  V30 4256 C 401.223 -3.30151 -2.72368 0
M  V30 4257 C 400.549 -3.40772 -4.12042 0
M  V30 4258 C 401.849 -4.67126 -2.33646 0
M  V30 4259 H 403.543 -2.79053 -1.08488 0
M  V30 4260 H 401.089 -1.34266 -0.520443 0
M  V30 4261 H 403.042 -2.36898 -3.48507 0
M  V30 4262 H 401.766 -1.21145 -3.03301 0
M  V30 4263 H 400.425 -3.0749 -1.99613 0
M  V30 4264 H 400.073 -2.45117 -4.39234 0
M  V30 4265 H 399.773 -4.18645 -4.12322 0
M  V30 4266 H 401.297 -3.6563 -4.89027 0
M  V30 4267 H 402.711 -4.89414 -2.98575 0
M  V30 4268 H 401.108 -5.47751 -2.45129 0
M  V30 4269 H 402.178 -4.67489 -1.28772 0
M  V30 4270 N 403.521 0.559213 -1.47345 0
M  V30 4271 C 404.749 1.34194 -1.57479 0
M  V30 4272 C 405.164 1.87463 -0.224261 0
M  V30 4273 O 404.521 1.64888 0.782185 0
M  V30 4274 C 404.572 2.51324 -2.59843 0
M  V30 4275 O 404.293 2.00256 -3.89653 0
M  V30 4276 C 405.794 3.43563 -2.80142 0
M  V30 4277 H 403.014 0.409136 -0.531835 0
M  V30 4278 H 405.558 0.677609 -1.92947 0
M  V30 4279 H 403.713 3.13699 -2.27314 0
M  V30 4280 H 404.127 2.76708 -4.4557 0
M  V30 4281 H 405.601 4.2217 -3.55635 0
M  V30 4282 H 406.078 3.9698 -1.87892 0
M  V30 4283 H 406.684 2.87005 -3.1386 0
M  V30 4284 N 404.999 1.35443 0.805782 0
M  V30 4285 C 406.276 1.19325 1.54987 0
M  V30 4286 C 406.656 -0.227294 2.09873 0
M  V30 4287 O 406.004 -1.2309 1.92512 0
M  V30 4288 C 406.214 2.26196 2.65775 0
M  V30 4289 C 407.562 2.62043 3.34094 0
M  V30 4290 O 408.586 2.25115 2.76046 0
M  V30 4291 O 407.445 3.25542 4.38958 0
M  V30 4292 H 404.539 0.463623 0.684823 0
M  V30 4293 H 407.085 1.47127 0.845674 0
M  V30 4294 H 405.857 3.21471 2.23096 0
M  V30 4295 H 405.48 1.99667 3.43829 0
M  V30 4296 N 406.477 -1.02803 1.19454 0
M  V30 4297 C 407.425 -2.13213 0.929673 0
M  V30 4298 C 408.419 -1.69011 -0.114806 0
M  V30 4299 O 409.625 -1.79967 0.0345147 0
M  V30 4300 H 406 -0.69662 0.28324 0
M  V30 4301 H 407.971 -2.32744 1.86743 0
M  V30 4302 C 406.72 -3.4429 0.485797 0
M  V30 4303 H 406.043 -3.7872 1.28105 0
M  V30 4304 H 407.483 -4.22638 0.339582 0
M  V30 4305 C 405.942 -3.27258 -0.800244 0
M  V30 4306 O 406.472 -3.55967 -1.86146 0
M  V30 4307 N 404.678 -2.80545 -0.75781 0
M  V30 4308 H 404.225 -2.57382 0.106039 0
M  V30 4309 H 404.183 -2.6953 -1.61867 0
M  V30 4310 N 407.956 -0.998596 -1.21925 0
M  V30 4311 C 409.204 -0.676325 -1.90448 0
M  V30 4312 C 409.525 0.794719 -1.78071 0
M  V30 4313 O 408.795 1.5701 -1.17152 0
M  V30 4314 H 407.375 -0.247165 -0.704925 0
M  V30 4315 H 410.037 -1.26633 -1.48156 0
M  V30 4316 H 409.133 -0.943858 -2.97486 0
M  V30 4317 N 409.434 1.37368 -0.772513 0
M  V30 4318 C 410.674 2.01512 -0.342361 0
M  V30 4319 C 411.038 1.59997 1.06136 0
M  V30 4320 O 412.239 2.16609 1.59167 0
M  V30 4321 C 410.51 3.54134 -0.482048 0
M  V30 4322 S 412.069 4.38585 -0.137272 0
M  V30 4323 H 408.887 0.698699 -0.131686 0
M  V30 4324 H 411.489 1.67552 -1.0073 0
M  V30 4325 H 410.193 3.81837 -1.50428 0
M  V30 4326 H 409.724 3.92894 0.199413 0
M  V30 4327 H 411.739 4.84594 1.06692 0
M  V30 4328 N 410.912 0.523116 1.48665 0
M  V30 4329 C 412.328 0.180511 1.58576 0
M  V30 4330 C 412.528 -1.31597 1.52592 0
M  V30 4331 O 411.584 -2.0937 1.4114 0
M  V30 4332 C 412.897 0.776949 2.90489 0
M  V30 4333 C 414.445 0.745058 3.04003 0
M  V30 4334 C 414.92 1.31995 4.38567 0
M  V30 4335 N 416.411 1.28162 4.45117 0
M  V30 4336 C 417.146 1.6964 5.47731 0
M  V30 4337 N 416.642 2.18816 6.57337 0
M  V30 4338 N 418.435 1.6092 5.38573 0
M  V30 4339 H 410.586 1.4958 1.50797 0
M  V30 4340 H 412.849 0.621772 0.715614 0
M  V30 4341 H 412.555 1.82732 3.00503 0
M  V30 4342 H 412.429 0.25007 3.7637 0
M  V30 4343 H 414.816 -0.296532 2.93606 0
M  V30 4344 H 414.897 1.30933 2.1975 0
M  V30 4345 H 414.541 2.36043 4.49718 0
M  V30 4346 H 414.471 0.731418 5.21496 0
M  V30 4347 H 416.962 0.92155 3.66491 0
M  V30 4348 H 417.275 2.48478 7.31764 0
M  V30 4349 H 415.62 2.22805 6.58318 0
M  V30 4350 H 418.811 1.22304 4.5184 0
M  V30 4351 H 418.984 1.93567 6.18414 0
M  V30 4352 N 412.39 -1.55475 0.257931 0
M  V30 4353 C 413.806 -1.59307 -0.0966563 0
M  V30 4354 C 414.006 -1.27514 -1.5602 0
M  V30 4355 O 413.062 -1.02774 -2.30637 0
M  V30 4356 C 414.375 -2.99552 0.262481 0
M  V30 4357 C 415.923 -3.1231 0.207683 0
M  V30 4358 C 416.398 -4.54793 0.541012 0
M  V30 4359 N 417.889 -4.6058 0.491921 0
M  V30 4360 C 418.624 -5.68825 0.722857 0
M  V30 4361 N 418.12 -6.85287 1.0175 0
M  V30 4362 N 419.913 -5.58296 0.652815 0
M  V30 4363 H 412.064 -1.74409 1.21224 0
M  V30 4364 H 414.327 -0.812424 0.48854 0
M  V30 4365 H 414.033 -3.27593 1.27967 0
M  V30 4366 H 413.907 -3.75019 -0.40508 0
M  V30 4367 H 416.294 -2.84044 -0.800195 0
M  V30 4368 H 416.375 -2.39095 0.909255 0
M  V30 4369 H 416.019 -4.83783 1.5465 0
M  V30 4370 H 415.949 -5.26285 -0.18216 0
M  V30 4371 H 418.44 -3.7691 0.273366 0
M  V30 4372 H 418.753 -7.63725 1.18084 0
M  V30 4373 H 417.098 -6.86945 1.05509 0
M  V30 4374 H 420.289 -4.66189 0.422592 0
M  V30 4375 H 420.462 -6.42582 0.836182 0
M  V30 4376 N 413.868 0.0150385 -1.57593 0
M  V30 4377 C 415.284 0.370907 -1.5523 0
M  V30 4378 C 415.484 1.75735 -0.985882 0
M  V30 4379 O 414.54 2.44944 -0.613077 0
M  V30 4380 C 415.853 0.259908 -2.99575 0
M  V30 4381 C 417.401 0.335959 -3.11192 0
M  V30 4382 C 417.876 0.254253 -4.57294 0
M  V30 4383 N 419.367 0.312618 -4.62144 0
M  V30 4384 C 420.102 0.272505 -5.72752 0
M  V30 4385 N 419.598 0.183864 -6.92556 0
M  V30 4386 N 421.391 0.323267 -5.6117 0
M  V30 4387 H 413.542 -0.892104 -1.92757 0
M  V30 4388 H 415.805 -0.340563 -0.884715 0
M  V30 4389 H 415.511 -0.693403 -3.44797 0
M  V30 4390 H 415.385 1.048 -3.62349 0
M  V30 4391 H 417.772 1.27971 -2.65909 0
M  V30 4392 H 417.853 -0.481739 -2.51223 0
M  V30 4393 H 417.497 -0.685887 -5.03247 0
M  V30 4394 H 417.427 1.09024 -5.15191 0
M  V30 4395 H 419.918 0.38307 -3.75953 0
M  V30 4396 H 420.231 0.15874 -7.72637 0
M  V30 4397 H 418.576 0.149708 -6.94839 0
M  V30 4398 H 421.767 0.390607 -4.66467 0
M  V30 4399 H 421.94 0.288539 -6.47357 0
M  V30 4400 N 415.346 1.54954 0.287554 0
M  V30 4401 C 416.762 1.46469 0.633964 0
M  V30 4402 C 416.962 0.666865 1.90145 0
M  V30 4403 O 416.018 0.179906 2.51858 0
M  V30 4404 C 417.331 2.90556 0.774454 0
M  V30 4405 C 418.879 3.00681 0.869462 0
M  V30 4406 C 419.354 4.45993 1.04184 0
M  V30 4407 N 420.845 4.4976 1.10772 0
M  V30 4408 C 421.58 5.59393 1.25964 0
M  V30 4409 N 421.076 6.78923 1.37968 0
M  V30 4410 N 422.869 5.47107 1.28959 0
M  V30 4411 H 415.02 2.05288 -0.545041 0
M  V30 4412 H 417.283 0.930305 -0.182308 0
M  V30 4413 H 416.989 3.51594 -0.086207 0
M  V30 4414 H 416.863 3.38743 1.6593 0
M  V30 4415 H 419.25 2.39749 1.7206 0
M  V30 4416 H 419.331 2.55769 -0.0396831 0
M  V30 4417 H 418.975 5.07524 0.195422 0
M  V30 4418 H 418.905 4.88548 1.96542 0
M  V30 4419 H 421.396 3.63651 1.02794 0
M  V30 4420 H 421.709 7.58231 1.49353 0
M  V30 4421 H 420.054 6.81763 1.34999 0
M  V30 4422 H 423.245 4.52668 1.19202 0
M  V30 4423 H 423.418 6.32595 1.40455 0
M  V30 4424 N 416.824 -0.551391 1.4764 0
M  V30 4425 C 417.756 -1.67333 1.56628 0
M  V30 4426 C 418.769 -1.56398 0.452045 0
M  V30 4427 O 419.958 -1.6325 0.721926 0
M  V30 4428 C 417.058 -3.05841 1.45994 0
M  V30 4429 C 416.231 -3.42472 2.72088 0
M  V30 4430 C 415.29 -4.60168 2.55209 0
M  V30 4431 O 414.316 -4.64458 3.2904 0
M  V30 4432 N 415.518 -5.57024 1.63416 0
M  V30 4433 H 418.283 -1.60066 2.53375 0
M  V30 4434 H 415.844 -0.738169 1.44093 0
M  V30 4435 H 417.836 -3.8242 1.32428 0
M  V30 4436 H 416.406 -3.07302 0.573071 0
M  V30 4437 H 415.626 -2.55284 3.00373 0
M  V30 4438 H 416.914 -3.63723 3.55785 0
M  V30 4439 H 416.312 -5.56319 1.02594 0
M  V30 4440 H 414.869 -6.32906 1.558 0
M  V30 4441 N 418.302 -1.35869 -0.798587 0
M  V30 4442 C 419.579 -1.20145 -1.54352 0
M  V30 4443 C 419.959 0.216161 -2.0999 0
M  V30 4444 O 419.307 1.22068 -1.93162 0
M  V30 4445 C 419.517 -2.27602 -2.64572 0
M  V30 4446 C 420.865 -2.63811 -3.32699 0
M  V30 4447 O 421.889 -2.26576 -2.74849 0
M  V30 4448 O 420.748 -3.27866 -4.37226 0
M  V30 4449 H 417.842 -0.467248 -0.682355 0
M  V30 4450 H 420.388 -1.47574 -0.837859 0
M  V30 4451 H 419.16 -3.2265 -2.21388 0
M  V30 4452 H 418.783 -2.01488 -3.42766 0
M  V30 4453 N 419.78 1.02168 -1.19998 0
M  V30 4454 C 421.196 1.27969 -0.953737 0
M  V30 4455 C 421.396 1.98079 0.369703 0
M  V30 4456 O 420.452 2.27306 1.09947 0
M  V30 4457 C 421.765 2.11971 -2.13281 0
M  V30 4458 C 423.313 2.25255 -2.17323 0
M  V30 4459 C 423.788 3.12632 -3.34702 0
M  V30 4460 N 425.279 3.2022 -3.34684 0
M  V30 4461 C 426.014 3.88039 -4.22153 0
M  V30 4462 N 425.51 4.58027 -5.19791 0
M  V30 4463 N 427.303 3.84511 -4.10009 0
M  V30 4464 H 419.454 0.550794 -2.05134 0
M  V30 4465 H 421.717 0.305683 -0.897364 0
M  V30 4466 H 421.423 1.67785 -3.09097 0
M  V30 4467 H 421.297 3.12699 -2.10949 0
M  V30 4468 H 423.684 2.68667 -1.22073 0
M  V30 4469 H 423.765 1.24053 -2.23706 0
M  V30 4470 H 423.409 2.69926 -4.30235 0
M  V30 4471 H 423.339 4.13909 -3.25556 0
M  V30 4472 H 425.83 2.70382 -2.64012 0
M  V30 4473 H 426.143 5.07429 -5.82868 0
M  V30 4474 H 424.488 4.56869 -5.23733 0
M  V30 4475 H 427.679 3.28978 -3.33003 0
M  V30 4476 H 427.852 4.3709 -4.78389 0
M  V30 4477 N 421.258 1.00505 1.21394 0
M  V30 4478 C 422.486 0.706609 1.9446 0
M  V30 4479 C 422.901 -0.73081 1.74082 0
M  V30 4480 O 422.258 -1.49446 1.04747 0
M  V30 4481 C 422.309 1.01824 3.46863 0
M  V30 4482 O 422.03 2.39919 3.66566 0
M  V30 4483 C 423.531 0.739216 4.37093 0
M  V30 4484 H 420.751 0.260394 0.618414 0
M  V30 4485 H 423.295 1.34311 1.54211 0
M  V30 4486 H 421.45 0.427343 3.85036 0
M  V30 4487 H 421.864 2.50784 4.6066 0
M  V30 4488 H 423.338 1.00744 5.42729 0
M  V30 4489 H 423.815 -0.326746 4.37983 0
M  V30 4490 H 424.421 1.31173 4.04566 0
M  V30 4491 N 422.737 -1.36956 0.779787 0
M  V30 4492 C 423.684 -2.30175 0.169697 0
M  V30 4493 C 424.654 -1.51501 -0.68094 0
M  V30 4494 O 425.839 -1.80042 -0.631629 0
M  V30 4495 C 422.979 -3.37985 -0.697131 0
M  V30 4496 C 422.092 -4.31661 0.170992 0
M  V30 4497 C 421.227 -5.2655 -0.701298 0
M  V30 4498 C 420.266 -6.11867 0.168869 0
M  V30 4499 N 419.403 -6.98973 -0.661855 0
M  V30 4500 H 424.243 -2.81767 0.970135 0
M  V30 4501 H 421.78 -1.38699 0.489994 0
M  V30 4502 H 423.738 -3.99128 -1.2146 0
M  V30 4503 H 422.368 -2.87739 -1.46309 0
M  V30 4504 H 421.42 -3.71756 0.80634 0
M  V30 4505 H 422.732 -4.91644 0.841875 0
M  V30 4506 H 421.886 -5.92937 -1.28494 0
M  V30 4507 H 420.625 -4.66998 -1.40584 0
M  V30 4508 H 419.63 -5.44452 0.764986 0
M  V30 4509 H 420.855 -6.73493 0.870863 0
M  V30 4510 H 418.801 -6.41941 -1.35086 0
M  V30 4511 H 418.718 -7.55984 -0.0484447 0
M  V30 4512 H 419.986 -7.6974 -1.22963 0
M  V30 4513 N 424.215 -0.530993 -1.48385 0
M  V30 4514 C 425.125 0.23503 -2.3342 0
M  V30 4515 C 426.141 0.93801 -1.46552 0
M  V30 4516 O 427.317 0.912745 -1.7953 0
M  V30 4517 C 424.382 1.26778 -3.22689 0
M  V30 4518 C 423.443 0.575038 -4.25431 0
M  V30 4519 C 422.676 1.55858 -5.10435 0
M  V30 4520 O 422.899 2.79129 -4.97437 0
M  V30 4521 O 421.833 1.09742 -5.91811 0
M  V30 4522 H 425.659 -0.461794 -3.00169 0
M  V30 4523 H 423.244 -0.291903 -1.46521 0
M  V30 4524 H 425.126 1.86457 -3.77904 0
M  V30 4525 H 423.801 1.94699 -2.586 0
M  V30 4526 H 422.708 -0.0622782 -3.74048 0
M  V30 4527 H 424.041 -0.062253 -4.92161 0
M  V30 4528 N 425.693 1.55336 -0.266172 0
M  V30 4529 C 427.109 1.59356 0.0882065 0
M  V30 4530 C 427.309 1.2834 1.55342 0
M  V30 4531 O 426.365 1.03996 2.30089 0
M  V30 4532 C 427.678 2.99409 -0.278364 0
M  V30 4533 C 429.226 3.12196 -0.224243 0
M  V30 4534 C 429.701 4.545 -0.565123 0
M  V30 4535 N 431.192 4.60313 -0.51634 0
M  V30 4536 C 431.927 5.68434 -0.753013 0
M  V30 4537 N 431.423 6.84738 -1.05383 0
M  V30 4538 N 433.216 5.57942 -0.682414 0
M  V30 4539 H 425.367 1.73764 -1.22147 0
M  V30 4540 H 427.63 0.809822 -0.492841 0
M  V30 4541 H 427.336 3.2691 -1.29703 0
M  V30 4542 H 427.21 3.75228 0.385186 0
M  V30 4543 H 429.597 2.84464 0.78512 0
M  V30 4544 H 429.678 2.38609 -0.921922 0
M  V30 4545 H 429.322 4.82956 -1.57213 0
M  V30 4546 H 429.252 5.26374 0.154248 0
M  V30 4547 H 431.743 3.7676 -0.29335 0
M  V30 4548 H 432.056 7.63088 -1.22133 0
M  V30 4549 H 430.401 6.86375 -1.09151 0
M  V30 4550 H 433.592 4.65958 -0.44731 0
M  V30 4551 H 433.765 6.4213 -0.870248 0
M  V30 4552 N 427.171 -0.0066808 1.57599 0
M  V30 4553 C 428.582 -0.550379 1.78403 0
M  V30 4554 C 428.933 -1.74339 0.900014 0
M  V30 4555 O 428.058 -2.16166 0.100713 0
M  V30 4556 C 428.653 -1.00523 3.23544 0
M  V30 4557 C 427.212 -1.49428 3.45468 0
M  V30 4558 C 426.359 -0.442444 2.73748 0
M  V30 4559 H 429.31 0.219508 1.57175 0
M  V30 4560 H 429.331 -1.87157 3.31289 0
M  V30 4561 H 428.843 -0.136735 3.87859 0
M  V30 4562 H 426.944 -2.3839 2.86358 0
M  V30 4563 H 427.057 -1.52635 4.54136 0
M  V30 4564 H 425.421 -0.902578 2.38171 0
M  V30 4565 H 426.204 0.416973 3.40758 0
M  V30 4566 N 428.649 -1.55105 -0.279332 0
M  V30 4567 C 430.065 -1.46803 -0.626187 0
M  V30 4568 C 430.265 -0.676939 -1.89789 0
M  V30 4569 O 429.321 -0.19326 -2.51759 0
M  V30 4570 C 430.634 -2.90962 -0.759034 0
M  V30 4571 C 432.182 -3.01138 -0.853504 0
M  V30 4572 C 432.657 -4.46539 -1.01818 0
M  V30 4573 N 434.148 -4.50341 -1.08386 0
M  V30 4574 C 434.883 -5.60053 -1.22996 0
M  V30 4575 N 434.379 -6.79645 -1.34366 0
M  V30 4576 N 436.172 -5.47783 -1.26056 0
M  V30 4577 H 428.323 -2.04996 0.555921 0
M  V30 4578 H 430.586 -0.929325 0.187239 0
M  V30 4579 H 430.292 -3.51544 0.104852 0
M  V30 4580 H 430.166 -3.39619 -1.64131 0
M  V30 4581 H 432.553 -2.40658 -1.70786 0
M  V30 4582 H 432.634 -2.55745 0.0532466 0
M  V30 4583 H 432.278 -5.0762 -0.168504 0
M  V30 4584 H 432.208 -4.89583 -1.93948 0
M  V30 4585 H 434.699 -3.64191 -1.00864 0
M  V30 4586 H 435.012 -7.59012 -1.4533 0
M  V30 4587 H 433.357 -6.82469 -1.31382 0
M  V30 4588 H 436.548 -4.53294 -1.168 0
M  V30 4589 H 436.721 -6.33331 -1.37098 0
M  V30 4590 N 430.127 0.543554 -1.4793 0
M  V30 4591 C 431.057 1.65888 -1.64327 0
M  V30 4592 C 432.038 1.62818 -0.492383 0
M  V30 4593 O 433.223 1.80226 -0.723338 0
M  V30 4594 C 430.353 3.04506 -1.67013 0
M  V30 4595 C 429.307 3.2243 -2.81466 0
M  V30 4596 C 428.633 4.61972 -2.69233 0
M  V30 4597 C 429.933 3.06496 -4.22915 0
M  V30 4598 H 431.627 1.52421 -2.57698 0
M  V30 4599 H 429.173 0.731849 -1.24016 0
M  V30 4600 H 431.126 3.82391 -1.77074 0
M  V30 4601 H 429.85 3.18964 -0.70212 0
M  V30 4602 H 428.509 2.46957 -2.70938 0
M  V30 4603 H 428.157 4.73247 -1.7043 0
M  V30 4604 H 427.857 4.74911 -3.46025 0
M  V30 4605 H 429.381 5.41974 -2.81242 0
M  V30 4606 H 430.795 3.74186 -4.34348 0
M  V30 4607 H 429.192 3.30938 -5.006 0
M  V30 4608 H 430.262 2.03077 -4.40327 0
M  V30 4609 N 431.605 1.3629 0.791371 0
M  V30 4610 C 432.552 1.30458 1.90393 0
M  V30 4611 C 433.522 0.173632 1.6519 0
M  V30 4612 O 434.707 0.35983 1.87376 0
M  V30 4613 C 431.847 1.09777 3.27174 0
M  V30 4614 C 430.96 2.31929 3.64462 0
M  V30 4615 C 430.095 2.04276 4.90352 0
M  V30 4616 C 429.134 3.224 5.20312 0
M  V30 4617 N 428.271 2.94424 6.37385 0
M  V30 4618 H 433.111 2.25589 1.94714 0
M  V30 4619 H 430.648 1.12122 0.952216 0
M  V30 4620 H 432.606 0.958133 4.06049 0
M  V30 4621 H 431.236 0.183014 3.22281 0
M  V30 4622 H 430.288 2.56703 2.80727 0
M  V30 4623 H 431.6 3.20085 3.82553 0
M  V30 4624 H 430.754 1.87231 5.77087 0
M  V30 4625 H 429.493 1.13428 4.74326 0
M  V30 4626 H 428.498 3.40005 4.32061 0
M  V30 4627 H 429.723 4.14071 5.38258 0
M  V30 4628 H 427.669 2.06185 6.22755 0
M  V30 4629 H 427.586 3.76118 6.55798 0
M  V30 4630 H 428.854 2.80953 7.27108 0
M  V30 4631 N 433.083 -1.0153 1.20538 0
M  V30 4632 C 434.03 -2.10098 0.955383 0
M  V30 4633 C 435 -1.65702 -0.114878 0
M  V30 4634 O 436.185 -1.90776 0.0301118 0
M  V30 4635 C 433.325 -3.41236 0.514969 0
M  V30 4636 C 432.438 -3.99102 1.65353 0
M  V30 4637 C 431.573 -5.18306 1.16329 0
M  V30 4638 C 430.612 -5.68258 2.27485 0
M  V30 4639 N 429.749 -6.78722 1.7967 0
M  V30 4640 H 434.589 -2.30818 1.88486 0
M  V30 4641 H 432.126 -1.13189 0.939499 0
M  V30 4642 H 434.084 -4.16504 0.240935 0
M  V30 4643 H 432.714 -3.20585 -0.377512 0
M  V30 4644 H 431.766 -3.20918 2.04245 0
M  V30 4645 H 433.078 -4.32177 2.49047 0
M  V30 4646 H 432.232 -6.00782 0.845302 0
M  V30 4647 H 430.971 -4.86799 0.296254 0
M  V30 4648 H 429.976 -4.84385 2.60099 0
M  V30 4649 H 431.201 -6.01798 3.14667 0
M  V30 4650 H 429.147 -6.49042 0.95295 0
M  V30 4651 H 429.064 -7.10996 2.56944 0
M  V30 4652 H 430.332 -7.64759 1.50875 0
M  V30 4653 N 434.561 -1.01147 -1.20859 0
M  V30 4654 C 435.493 -0.535546 -2.22855 0
M  V30 4655 C 436.506 0.379323 -1.58319 0
M  V30 4656 O 437.695 0.178489 -1.77605 0
M  V30 4657 C 434.795 0.240962 -3.38042 0
M  V30 4658 C 433.968 -0.674562 -4.32167 0
M  V30 4659 C 433.027 0.053467 -5.26173 0
M  V30 4660 O 432.053 -0.567339 -5.66366 0
M  V30 4661 N 433.255 1.32997 -5.65059 0
M  V30 4662 H 436.02 -1.41268 -2.64317 0
M  V30 4663 H 433.581 -0.888386 -1.35349 0
M  V30 4664 H 435.573 0.737115 -3.97931 0
M  V30 4665 H 434.143 1.01935 -2.95513 0
M  V30 4666 H 433.363 -1.35111 -3.70322 0
M  V30 4667 H 434.651 -1.2974 -4.91981 0
M  V30 4668 H 434.049 1.85536 -5.34409 0
M  V30 4669 H 432.606 1.77095 -6.2728 0
M  V30 4670 N 436.039 1.36541 -0.78704 0
M  V30 4671 C 437.285 1.99599 -0.358872 0
M  V30 4672 C 437.618 1.62323 1.06606 0
M  V30 4673 O 436.893 0.876858 1.73613 0
M  V30 4674 C 437.176 3.56327 -0.519944 0
M  V30 4675 C 437.029 4.03464 -1.98839 0
M  V30 4676 C 438.348 4.4005 0.0664737 0
M  V30 4677 H 435.467 0.725107 -0.131869 0
M  V30 4678 H 438.109 1.6199 -0.992936 0
M  V30 4679 H 436.259 3.88495 0.0198321 0
M  V30 4680 H 437.931 3.81793 -2.58905 0
M  V30 4681 H 436.174 3.55092 -2.49183 0
M  V30 4682 H 436.845 5.12439 -2.05207 0
M  V30 4683 H 439.321 4.14228 -0.394267 0
M  V30 4684 H 438.197 5.48847 -0.0762682 0
M  V30 4685 H 438.458 4.26655 1.15835 0
M  V30 4686 N 437.518 0.538854 1.48102 0
M  V30 4687 C 438.743 0.0102694 2.07397 0
M  V30 4688 C 439.168 -1.26562 1.39153 0
M  V30 4689 O 438.526 -1.75357 0.460387 0
M  V30 4690 C 438.574 -0.187602 3.60112 0
M  V30 4691 O 437.678 -1.25432 3.92862 0
M  V30 4692 H 437.019 0.0430975 0.6626 0
M  V30 4693 H 439.549 0.749301 1.90385 0
M  V30 4694 H 439.559 -0.407517 4.0596 0
M  V30 4695 H 438.234 0.744386 4.09184 0
M  V30 4696 H 436.811 -1.01636 3.58782 0
M  V30 4697 N 438.996 -1.55193 0.274407 0
M  V30 4698 C 440.242 -1.99877 -0.343086 0
M  V30 4699 C 440.575 -1.16256 -1.55558 0
M  V30 4700 O 439.85 -0.232462 -1.93106 0
M  V30 4701 C 440.133 -3.52706 -0.725965 0
M  V30 4702 C 439.986 -4.47081 0.493818 0
M  V30 4703 C 441.305 -4.11422 -1.56268 0
M  V30 4704 H 438.424 -0.726625 -0.123229 0
M  V30 4705 H 441.066 -1.86136 0.38121 0
M  V30 4706 H 439.216 -3.64546 -1.34307 0
M  V30 4707 H 440.888 -4.47186 1.13237 0
M  V30 4708 H 439.131 -4.1877 1.13201 0
M  V30 4709 H 439.802 -5.51699 0.18217 0
M  V30 4710 H 442.278 -4.02855 -1.04151 0
M  V30 4711 H 441.154 -5.18568 -1.79939 0
M  V30 4712 H 441.415 -3.61607 -2.54348 0
M  V30 4713 N 440.474 -0.00167713 -1.576 0
M  V30 4714 C 441.699 0.69739 -1.95323 0
M  V30 4715 C 442.124 1.6642 -0.876706 0
M  V30 4716 O 441.482 1.80548 0.165007 0
M  V30 4717 C 441.53 1.40403 -3.32144 0
M  V30 4718 O 440.634 2.5185 -3.26566 0
M  V30 4719 H 439.975 0.185373 -0.637599 0
M  V30 4720 H 442.505 -0.0553665 -2.04525 0
M  V30 4721 H 442.515 1.76707 -3.67748 0
M  V30 4722 H 441.19 0.695167 -4.10049 0
M  V30 4723 H 439.767 2.17861 -3.0264 0
M  V30 4724 N 441.952 1.55251 0.271103 0
M  V30 4725 C 443.177 1.80306 1.02491 0
M  V30 4726 C 443.602 0.575457 1.79081 0
M  V30 4727 O 442.96 -0.474987 1.74967 0
M  V30 4728 C 443.008 3.02832 1.95768 0
M  V30 4729 O 442.112 2.78051 3.04568 0
M  V30 4730 H 441.453 0.595896 0.292923 0
M  V30 4731 H 443.983 2.02397 0.299436 0
M  V30 4732 H 443.993 3.31616 2.37686 0
M  V30 4733 H 442.668 3.9183 1.39434 0
M  V30 4734 H 441.245 2.60369 2.66951 0
M  V30 4735 N 443.43 -0.535701 1.48216 0
M  V30 4736 C 444.658 -1.31671 1.59594 0
M  V30 4737 C 445.073 -1.87083 0.254056 0
M  V30 4738 O 444.43 -1.66112 -0.755854 0
M  V30 4739 C 444.481 -2.47158 2.63809 0
M  V30 4740 O 444.202 -1.94032 3.92789 0
M  V30 4741 C 445.703 -3.39062 2.85573 0
M  V30 4742 H 442.923 -0.400623 0.538277 0
M  V30 4743 H 445.467 -0.646827 1.94001 0
M  V30 4744 H 443.622 -3.10043 2.32276 0
M  V30 4745 H 444.036 -2.69585 4.49916 0
M  V30 4746 H 445.51 -4.16459 3.62306 0
M  V30 4747 H 445.987 -3.93941 1.94184 0
M  V30 4748 H 446.593 -2.81975 3.18387 0
M  V30 4749 N 444.908 -1.36708 -0.784132 0
M  V30 4750 C 446.185 -1.21776 -1.53069 0
M  V30 4751 C 446.565 0.193876 -2.10208 0
M  V30 4752 O 445.913 1.20012 -1.94446 0
M  V30 4753 C 446.123 -2.30395 -2.62143 0
M  V30 4754 C 447.471 -2.67325 -3.29882 0
M  V30 4755 O 448.495 -2.29478 -2.7243 0
M  V30 4756 O 447.354 -3.32485 -4.33724 0
M  V30 4757 H 444.448 -0.474459 -0.677361 0
M  V30 4758 H 446.994 -1.48454 -0.82216 0
M  V30 4759 H 445.766 -3.2498 -2.17953 0
M  V30 4760 H 445.389 -2.05112 -3.40609 0
M  V30 4761 N 446.386 1.0089 -1.21074 0
M  V30 4762 C 447.611 1.78727 -1.05221 0
M  V30 4763 C 448.036 1.83932 0.393795 0
M  V30 4764 O 447.394 1.28004 1.28393 0
M  V30 4765 C 447.442 3.20665 -1.64944 0
M  V30 4766 O 446.546 4.02632 -0.892273 0
M  V30 4767 H 445.887 0.550973 -0.370574 0
M  V30 4768 H 448.417 1.26847 -1.60534 0
M  V30 4769 H 448.427 3.71352 -1.69002 0
M  V30 4770 H 447.102 3.16191 -2.70177 0
M  V30 4771 H 445.679 3.61207 -0.926492 0
M  V30 4772 N 447.864 1.01787 1.20321 0
M  V30 4773 C 448.794 0.609625 2.25401 0
M  V30 4774 C 449.775 -0.375951 1.65893 0
M  V30 4775 O 450.96 -0.261101 1.92437 0
M  V30 4776 C 448.09 -0.0515995 3.47262 0
M  V30 4777 C 447.044 0.855095 4.19371 0
M  V30 4778 C 446.37 0.0595757 5.34667 0
M  V30 4779 C 447.67 2.16374 4.75373 0
M  V30 4780 H 449.364 1.48803 2.59804 0
M  V30 4781 H 446.91 0.716934 1.24884 0
M  V30 4782 H 448.863 -0.348764 4.19954 0
M  V30 4783 H 447.587 -0.964726 3.12027 0
M  V30 4784 H 446.246 1.13628 3.48546 0
M  V30 4785 H 445.894 -0.85524 4.95676 0
M  V30 4786 H 445.594 0.663406 5.83843 0
M  V30 4787 H 447.118 -0.231105 6.10162 0
M  V30 4788 H 448.532 1.92885 5.39878 0
M  V30 4789 H 446.929 2.71853 5.34991 0
M  V30 4790 H 447.999 2.82589 3.94045 0
M  V30 4791 N 449.342 -1.36122 0.79427 0
M  V30 4792 C 450.619 -1.93398 0.292685 0
M  V30 4793 C 450.999 -1.72567 -1.21589 0
M  V30 4794 O 450.347 -1.08745 -2.00965 0
M  V30 4795 C 450.557 -3.42099 0.690614 0
M  V30 4796 C 451.905 -4.19231 0.673105 0
M  V30 4797 O 452.929 -3.50559 0.631389 0
M  V30 4798 O 451.788 -5.41732 0.720362 0
M  V30 4799 H 448.882 -0.823712 0.0736693 0
M  V30 4800 H 451.428 -1.45273 0.87714 0
M  V30 4801 H 450.2 -3.50938 1.73085 0
M  V30 4802 H 449.823 -3.97519 0.0803036 0
M  V30 4803 N 450.82 -0.546701 -1.47814 0
M  V30 4804 C 451.73 0.21026 -2.33656 0
M  V30 4805 C 452.746 0.922413 -1.47538 0
M  V30 4806 O 453.922 0.893652 -1.80488 0
M  V30 4807 C 450.987 1.23348 -3.24016 0
M  V30 4808 C 450.048 0.529883 -4.26017 0
M  V30 4809 C 449.281 1.50435 -5.12059 0
M  V30 4810 O 449.504 2.73837 -5.00369 0
M  V30 4811 O 448.438 1.03459 -5.92942 0
M  V30 4812 H 452.264 -0.493605 -2.99662 0
M  V30 4813 H 449.849 -0.307427 -1.46203 0
M  V30 4814 H 451.731 1.82438 -3.79861 0
M  V30 4815 H 450.406 1.91945 -2.60651 0
M  V30 4816 H 449.313 -0.101948 -3.73961 0
M  V30 4817 H 450.646 -0.11445 -4.92067 0
M  V30 4818 N 452.299 1.55045 -0.282633 0
M  V30 4819 C 453.576 1.9179 0.384166 0
M  V30 4820 C 453.956 1.20778 1.73136 0
M  V30 4821 O 453.304 0.33719 2.25998 0
M  V30 4822 C 453.514 3.45149 0.517014 0
M  V30 4823 C 454.862 4.17064 0.796427 0
M  V30 4824 O 455.886 3.51084 0.601535 0
M  V30 4825 O 454.745 5.33837 1.16962 0
M  V30 4826 H 451.839 0.799483 0.211558 0
M  V30 4827 H 454.385 1.66474 -0.32934 0
M  V30 4828 H 453.157 3.88922 -0.430772 0
M  V30 4829 H 452.78 3.76443 1.2797 0
M  V30 4830 N 453.777 0.010035 1.57597 0
M  V30 4831 C 455.193 -0.346164 1.55801 0
M  V30 4832 C 455.393 -1.74144 1.01371 0
M  V30 4833 O 454.449 -2.43938 0.651968 0
M  V30 4834 C 455.762 -0.212216 2.9995 0
M  V30 4835 C 457.31 -0.286409 3.11687 0
M  V30 4836 C 457.785 -0.18147 4.5764 0
M  V30 4837 N 459.276 -0.239056 4.62583 0
M  V30 4838 C 460.011 -0.181351 5.73113 0
M  V30 4839 N 459.507 -0.073661 6.92761 0
M  V30 4840 N 461.3 -0.233949 5.61613 0
M  V30 4841 H 453.451 0.922657 1.91313 0
M  V30 4842 H 455.714 0.354595 0.879185 0
M  V30 4843 H 455.42 0.748169 3.4365 0
M  V30 4844 H 455.294 -0.990224 3.6397 0
M  V30 4845 H 457.681 -1.23724 2.67911 0
M  V30 4846 H 457.762 0.521645 2.50425 0
M  V30 4847 H 457.406 0.765863 5.02093 0
M  V30 4848 H 457.336 -1.00814 5.1686 0
M  V30 4849 H 459.827 -0.32321 3.76515 0
M  V30 4850 H 460.14 -0.0358003 7.72792 0
M  V30 4851 H 458.485 -0.0391461 6.94989 0
M  V30 4852 H 461.676 -0.316347 4.6703 0
M  V30 4853 H 461.849 -0.185514 6.47734 0
M  V30 4854 N 455.255 -1.55392 -0.262866 0
M  V30 4855 C 456.504 -1.75679 -0.990943 0
M  V30 4856 C 456.817 -0.57097 -1.87081 0
M  V30 4857 O 458.023 -0.656486 -2.63444 0
M  V30 4858 C 456.479 -3.10964 -1.81188 0
M  V30 4859 C 456.087 -4.37146 -0.980188 0
M  V30 4860 C 457.831 -3.40597 -2.53365 0
M  V30 4861 C 455.738 -5.63466 -1.7961 0
M  V30 4862 H 454.668 -0.654868 -0.373716 0
M  V30 4863 H 457.319 -1.81841 -0.246203 0
M  V30 4864 H 455.701 -2.98867 -2.59797 0
M  V30 4865 H 456.875 -4.60187 -0.237558 0
M  V30 4866 H 455.19 -4.14731 -0.372497 0
M  V30 4867 H 457.787 -4.32186 -3.14833 0
M  V30 4868 H 458.13 -2.6119 -3.24169 0
M  V30 4869 H 458.663 -3.53838 -1.81779 0
M  V30 4870 H 455.402 -6.4565 -1.13209 0
M  V30 4871 H 454.922 -5.44552 -2.51443 0
M  V30 4872 H 456.601 -6.02139 -2.36723 0
M  V30 4873 N 456.733 0.527833 -1.48498 0
M  V30 4874 C 458.01 1.28905 -1.47115 0
M  V30 4875 C 458.39 2.10297 -0.184007 0
M  V30 4876 O 457.738 2.12728 0.834218 0
M  V30 4877 C 457.948 2.16866 -2.73441 0
M  V30 4878 C 459.296 2.76936 -3.21857 0
M  V30 4879 O 460.32 2.27152 -2.74373 0
M  V30 4880 O 459.179 3.67496 -4.04486 0
M  V30 4881 H 456.273 0.581918 -0.587623 0
M  V30 4882 H 458.819 0.544311 -1.60734 0
M  V30 4883 H 457.591 1.56521 -3.58632 0
M  V30 4884 H 457.214 2.98583 -2.62553 0
M  V30 4885 N 458.211 1.37122 0.776871 0
M  V30 4886 C 459.121 1.34651 1.9211 0
M  V30 4887 C 460.137 0.246824 1.7224 0
M  V30 4888 O 461.313 0.48134 1.95563 0
M  V30 4889 C 458.378 1.14748 3.2716 0
M  V30 4890 C 457.439 2.34308 3.5972 0
M  V30 4891 C 456.672 2.15345 4.88326 0
M  V30 4892 O 456.895 1.13507 5.58992 0
M  V30 4893 O 455.829 3.03414 5.1983 0
M  V30 4894 H 459.655 2.31013 1.97146 0
M  V30 4895 H 457.24 1.17799 0.918901 0
M  V30 4896 H 459.122 1.05616 4.0795 0
M  V30 4897 H 457.797 0.214562 3.22988 0
M  V30 4898 H 456.704 2.49011 2.79185 0
M  V30 4899 H 458.037 3.26149 3.68629 0
M  V30 4900 N 459.689 -1.00246 1.21608 0
M  V30 4901 C 461.1 -1.55511 1.03312 0
M  V30 4902 C 461.451 -1.91946 -0.406332 0
M  V30 4903 O 460.576 -1.73753 -1.28992 0
M  V30 4904 C 461.171 -2.82576 1.86913 0
M  V30 4905 C 459.73 -3.34318 1.72941 0
M  V30 4906 C 458.877 -2.07487 1.83968 0
M  V30 4907 H 461.828 -0.824638 1.35593 0
M  V30 4908 H 461.849 -3.54559 1.38087 0
M  V30 4909 H 461.361 -2.56026 2.91672 0
M  V30 4910 H 459.462 -3.65797 0.70877 0
M  V30 4911 H 459.575 -4.05566 2.55055 0
M  V30 4912 H 457.939 -2.20603 1.27304 0
M  V30 4913 H 458.722 -1.83346 2.9024 0
M  V30 4914 N 461.167 -1.02423 -1.1978 0
M  V30 4915 C 462.444 -0.632802 -1.85081 0
M  V30 4916 C 462.824 0.888745 -1.9148 0
M  V30 4917 O 462.172 1.78357 -1.42832 0
M  V30 4918 C 462.382 -1.28947 -3.24305 0
M  V30 4919 C 463.73 -1.40976 -4.00513 0
M  V30 4920 O 464.754 -1.24628 -3.33686 0
M  V30 4921 O 463.613 -1.67467 -5.20209 0
M  V30 4922 H 460.707 -0.219348 -0.79738 0
M  V30 4923 H 463.253 -1.12209 -1.27307 0
M  V30 4924 H 462.025 -2.3288 -3.14456 0
M  V30 4925 H 461.648 -0.787748 -3.89718 0
M  V30 4926 N 462.645 1.35699 -0.801477 0
M  V30 4927 C 463.893 1.9852 -0.37871 0
M  V30 4928 C 464.214 1.63907 1.05638 0
M  V30 4929 O 463.484 0.919013 1.73006 0
M  V30 4930 H 462.064 0.734322 -0.137042 0
M  V30 4931 H 464.726 1.65697 -1.02619 0
M  V30 4932 H 463.822 3.08382 -0.480284 0
M  V30 4933 N 464.123 0.554532 1.47522 0
M  V30 4934 C 465.053 -0.182974 2.32782 0
M  V30 4935 C 466.034 -0.911377 1.43624 0
M  V30 4936 O 467.219 -0.892366 1.72483 0
M  V30 4937 C 464.349 -1.21513 3.25349 0
M  V30 4938 C 463.303 -0.603355 4.23726 0
M  V30 4939 C 462.629 -1.73995 5.05598 0
M  V30 4940 C 463.929 0.441121 5.20434 0
M  V30 4941 H 465.623 0.52882 2.94693 0
M  V30 4942 H 463.169 0.255759 1.41711 0
M  V30 4943 H 465.122 -1.73922 3.83835 0
M  V30 4944 H 463.846 -1.95683 2.61487 0
M  V30 4945 H 462.505 -0.10059 3.66462 0
M  V30 4946 H 462.153 -2.47063 4.38143 0
M  V30 4947 H 461.853 -1.3364 5.72201 0
M  V30 4948 H 463.377 -2.26735 5.66942 0
M  V30 4949 H 464.791 0.00319931 5.733 0
M  V30 4950 H 463.188 0.763402 5.95224 0
M  V30 4951 H 464.258 1.33799 4.66075 0
M  V30 4952 N 465.601 -1.54893 0.290851 0
M  V30 4953 C 466.849 -1.99538 -0.320756 0
M  V30 4954 C 467.17 -1.18075 -1.55188 0
M  V30 4955 O 466.44 -0.274162 -1.93972 0
M  V30 4956 H 465.02 -0.737052 -0.121507 0
M  V30 4957 H 467.682 -1.90755 0.399832 0
M  V30 4958 H 466.778 -3.06282 -0.599802 0
M  V30 4959 N 467.08 -0.0183926 -1.57589 0
M  V30 4960 C 468.491 0.521927 -1.79256 0
M  V30 4961 C 468.842 1.72885 -0.927636 0
M  V30 4962 O 467.967 2.15978 -0.135091 0
M  V30 4963 C 468.562 0.953632 -3.25102 0
M  V30 4964 C 467.121 1.43913 -3.47801 0
M  V30 4965 C 466.268 0.398837 -2.74417 0
M  V30 4966 H 469.219 -0.244485 -1.56805 0
M  V30 4967 H 469.24 1.81863 -3.34224 0
M  V30 4968 H 468.752 0.0750123 -3.88028 0
M  V30 4969 H 466.853 2.33804 -2.90115 0
M  V30 4970 H 466.966 1.45391 -4.56507 0
M  V30 4971 H 465.33 0.864572 -2.39577 0
M  V30 4972 H 466.113 -0.471132 -3.40052 0
M  V30 4973 N 468.558 1.5553 0.254621 0
M  V30 4974 C 469.974 1.4778 0.602753 0
M  V30 4975 C 470.174 0.707047 1.88688 0
M  V30 4976 O 469.23 0.233288 2.5142 0
M  V30 4977 C 470.543 2.92133 0.712648 0
M  V30 4978 C 472.091 3.02458 0.805488 0
M  V30 4979 C 472.566 4.48102 0.947009 0
M  V30 4980 N 474.057 4.52008 1.01207 0
M  V30 4981 C 474.792 5.61939 1.1407 0
M  V30 4982 N 474.288 6.81697 1.23536 0
M  V30 4983 N 476.081 5.49719 1.17325 0
M  V30 4984 H 468.232 2.04085 -0.588463 0
M  V30 4985 H 470.495 0.926229 -0.202001 0
M  V30 4986 H 470.201 3.51332 -0.160766 0
M  V30 4987 H 470.075 3.42187 1.58707 0
M  V30 4988 H 472.462 2.43344 1.66936 0
M  V30 4989 H 472.543 2.55627 -0.0939266 0
M  V30 4990 H 472.187 5.07824 0.087725 0
M  V30 4991 H 472.117 4.92607 1.86135 0
M  V30 4992 H 474.608 3.65749 0.950577 0
M  V30 4993 H 474.921 7.61228 1.33236 0
M  V30 4994 H 473.266 6.84473 1.20508 0
M  V30 4995 H 476.457 4.55095 1.09573 0
M  V30 4996 H 476.63 6.35432 1.27005 0
M  V30 4997 N 470.036 -0.519951 1.48776 0
M  V30 4998 C 471.452 -0.849418 1.35119 0
M  V30 4999 C 471.652 -1.98077 0.36982 0
M  V30 5000 O 470.708 -2.51664 -0.205359 0
M  V30 5001 C 472.021 -1.20748 2.75391 0
M  V30 5002 C 473.569 -1.31679 2.83954 0
M  V30 5003 C 474.044 -1.70824 4.24951 0
M  V30 5004 N 475.535 -1.77908 4.27672 0
M  V30 5005 C 476.27 -2.09603 5.33717 0
M  V30 5006 N 475.766 -2.39652 6.5003 0
M  V30 5007 N 477.559 -2.10694 5.21119 0
M  V30 5008 H 469.71 0.226377 2.1119 0
M  V30 5009 H 471.973 0.0386519 0.947212 0
M  V30 5010 H 471.679 -0.449703 3.48813 0
M  V30 5011 H 471.553 -2.15534 3.09556 0
M  V30 5012 H 473.94 -2.06532 2.10781 0
M  V30 5013 H 474.021 -0.3499 2.53396 0
M  V30 5014 H 473.665 -0.965282 4.98643 0
M  V30 5015 H 473.595 -2.6858 4.52959 0
M  V30 5016 H 476.086 -1.56923 3.43779 0
M  V30 5017 H 476.399 -2.6297 7.26682 0
M  V30 5018 H 474.744 -2.37149 6.53288 0
M  V30 5019 H 477.935 -1.86682 4.29264 0
M  V30 5020 H 478.108 -2.35062 6.03863 0
M  V30 5021 N 471.514 -1.37532 -0.769588 0
M  V30 5022 C 472.739 -1.36231 -1.56384 0
M  V30 5023 C 473.164 0.0495849 -1.88035 0
M  V30 5024 O 472.522 1.02723 -1.49391 0
M  V30 5025 C 472.57 -2.20986 -2.84952 0
M  V30 5026 O 471.674 -1.61597 -3.79421 0
M  V30 5027 H 471.015 -0.465387 -0.473615 0
M  V30 5028 H 473.545 -1.81085 -0.952342 0
M  V30 5029 H 473.555 -2.34277 -3.34034 0
M  V30 5030 H 472.23 -3.23612 -2.61243 0
M  V30 5031 H 470.807 -1.57359 -3.38072 0
M  V30 5032 N 472.992 0.995999 -1.22138 0
M  V30 5033 C 474.217 1.77601 -1.0711 0
M  V30 5034 C 474.642 1.84339 0.374264 0
M  V30 5035 O 474 1.29359 1.27028 0
M  V30 5036 C 474.048 3.18897 -1.68336 0
M  V30 5037 O 473.152 4.01663 -0.934928 0
M  V30 5038 H 472.493 0.547011 -0.376397 0
M  V30 5039 H 475.023 1.25137 -1.6187 0
M  V30 5040 H 475.033 3.69539 -1.72931 0
M  V30 5041 H 473.708 3.13308 -2.73516 0
M  V30 5042 H 472.285 3.60204 -0.964751 0
M  V30 5043 N 474.47 1.03057 1.19235 0
M  V30 5044 C 475.38 0.622922 2.26179 0
M  V30 5045 C 476.396 -0.346113 1.70523 0
M  V30 5046 O 477.572 -0.203572 2.00369 0
M  V30 5047 C 474.637 -0.0182063 3.46695 0
M  V30 5048 C 473.698 0.998546 4.17526 0
M  V30 5049 C 472.931 0.387917 5.32288 0
M  V30 5050 O 473.154 -0.808668 5.64639 0
M  V30 5051 O 472.088 1.1116 5.91546 0
M  V30 5052 H 475.914 1.51363 2.63292 0
M  V30 5053 H 473.499 0.800856 1.26122 0
M  V30 5054 H 475.381 -0.375606 4.19723 0
M  V30 5055 H 474.056 -0.882895 3.11427 0
M  V30 5056 H 472.963 1.40756 3.4661 0
M  V30 5057 H 474.296 1.83366 4.56769 0
M  V30 5058 N 475.948 -1.35272 0.808662 0
M  V30 5059 C 477.364 -1.51806 0.492653 0
M  V30 5060 C 477.564 -1.7574 -0.985778 0
M  V30 5061 O 476.62 -1.80003 -1.77074 0
M  V30 5062 C 477.933 -2.69202 1.33981 0
M  V30 5063 C 479.481 -2.8308 1.33547 0
M  V30 5064 C 479.956 -4.03502 2.16679 0
M  V30 5065 N 481.447 -4.10684 2.14227 0
M  V30 5066 C 482.182 -5.02984 2.75308 0
M  V30 5067 N 481.678 -6.00603 3.45323 0
M  V30 5068 N 483.471 -4.95746 2.64938 0
M  V30 5069 H 475.622 -1.17993 1.76611 0
M  V30 5070 H 477.885 -0.577476 0.751814 0
M  V30 5071 H 477.591 -2.581 2.38909 0
M  V30 5072 H 477.465 -3.63854 0.994491 0
M  V30 5073 H 479.852 -2.93631 0.294036 0
M  V30 5074 H 479.933 -1.89278 1.72068 0
M  V30 5075 H 479.577 -3.93711 3.20864 0
M  V30 5076 H 479.507 -4.96489 1.75517 0
M  V30 5077 H 481.998 -3.40802 1.63285 0
M  V30 5078 H 482.311 -6.67633 3.89212 0
M  V30 5079 H 480.656 -6.0077 3.49428 0
M  V30 5080 H 483.847 -4.18439 2.09825 0
M  V30 5081 H 484.02 -5.67487 3.12829 0
M  V30 5082 N 477.426 -0.562348 -1.47226 0
M  V30 5083 C 478.373 0.182461 -2.30078 0
M  V30 5084 C 479.343 0.903503 -1.39377 0
M  V30 5085 O 480.528 0.898188 -1.68337 0
M  V30 5086 C 477.668 1.20322 -3.23445 0
M  V30 5087 C 476.781 0.487717 -4.29238 0
M  V30 5088 C 475.916 1.49422 -5.09752 0
M  V30 5089 C 474.955 0.763976 -6.07314 0
M  V30 5090 N 474.092 1.71755 -6.80768 0
M  V30 5091 H 478.932 -0.530169 -2.93246 0
M  V30 5092 H 476.469 -0.273276 -1.44539 0
M  V30 5093 H 478.427 1.80768 -3.76004 0
M  V30 5094 H 477.057 1.88382 -2.6213 0
M  V30 5095 H 476.109 -0.231374 -3.79696 0
M  V30 5096 H 477.421 -0.0841003 -4.98729 0
M  V30 5097 H 476.575 2.17206 -5.66486 0
M  V30 5098 H 475.314 2.09995 -4.40174 0
M  V30 5099 H 474.319 0.0722344 -5.49753 0
M  V30 5100 H 475.544 0.16391 -6.78902 0
M  V30 5101 H 473.49 2.31177 -6.13916 0
M  V30 5102 H 473.407 1.19802 -7.46447 0
M  V30 5103 H 474.675 2.38638 -7.42073 0
M  V30 5104 N 478.904 1.54736 -0.299062 0
M  V30 5105 C 480.32 1.59507 0.0543849 0
M  V30 5106 C 480.52 1.31606 1.52585 0
M  V30 5107 O 479.576 1.08853 2.27832 0
M  V30 5108 C 480.889 2.98751 -0.34181 0
M  V30 5109 C 482.437 3.1165 -0.290414 0
M  V30 5110 C 482.912 4.53199 -0.661402 0
M  V30 5111 N 484.403 4.59114 -0.613863 0
M  V30 5112 C 485.138 5.66709 -0.873417 0
M  V30 5113 N 484.634 6.82349 -1.19884 0
M  V30 5114 N 486.427 5.56369 -0.800608 0
M  V30 5115 H 478.578 1.71133 -1.25806 0
M  V30 5116 H 480.841 0.799186 -0.509908 0
M  V30 5117 H 480.547 3.24085 -1.36608 0
M  V30 5118 H 480.421 3.75961 0.305508 0
M  V30 5119 H 482.808 2.86066 0.724605 0
M  V30 5120 H 482.889 2.366 -0.972327 0
M  V30 5121 H 482.533 4.79513 -1.67422 0
M  V30 5122 H 482.463 5.26583 0.0425612 0
M  V30 5123 H 484.954 3.76053 -0.3732 0
M  V30 5124 H 485.267 7.60326 -1.38291 0
M  V30 5125 H 483.612 6.83906 -1.23685 0
M  V30 5126 H 486.803 4.64904 -0.546045 0
M  V30 5127 H 486.976 6.40139 -1.00626 0
M  V30 5128 N 480.382 0.0267497 1.57577 0
M  V30 5129 C 481.332 -0.965003 2.06571 0
M  V30 5130 C 482.316 -1.28694 0.965746 0
M  V30 5131 O 483.508 -1.27345 1.22932 0
M  V30 5132 C 480.637 -2.24821 2.59443 0
M  V30 5133 C 479.723 -1.95474 3.76365 0
M  V30 5134 N 480.114 -1.36387 4.87065 0
M  V30 5135 C 478.412 -2.25478 3.84806 0
M  V30 5136 C 479.113 -1.24119 5.68304 0
M  V30 5137 N 478.089 -1.7359 5.15138 0
M  V30 5138 H 481.891 -0.503095 2.89562 0
M  V30 5139 H 479.405 -0.178322 1.61418 0
M  V30 5140 H 481.402 -2.9674 2.92833 0
M  V30 5141 H 480.062 -2.7164 1.77881 0
M  V30 5142 H 481.073 -1.03919 5.07367 0
M  V30 5143 H 477.75 -2.74987 3.14147 0
M  V30 5144 H 479.14 -0.784504 6.67304 0
M  V30 5145 N 481.861 -1.55662 -0.24637 0
M  V30 5146 C 482.791 -1.93377 -1.30873 0
M  V30 5147 C 483.772 -0.798773 -1.50179 0
M  V30 5148 O 484.957 -1.0591 -1.62778 0
M  V30 5149 C 482.087 -2.22893 -2.66338 0
M  V30 5150 C 481.041 -3.38649 -2.61727 0
M  V30 5151 C 480.367 -3.53708 -4.00992 0
M  V30 5152 C 481.667 -4.74323 -2.18666 0
M  V30 5153 H 483.361 -2.82363 -0.995552 0
M  V30 5154 H 480.907 -1.35854 -0.477464 0
M  V30 5155 H 482.86 -2.47866 -3.40794 0
M  V30 5156 H 481.584 -1.30733 -2.99293 0
M  V30 5157 H 480.243 -3.13685 -1.89729 0
M  V30 5158 H 479.891 -2.58967 -4.31214 0
M  V30 5159 H 479.591 -4.31551 -3.98795 0
M  V30 5160 H 481.115 -3.81003 -4.77147 0
M  V30 5161 H 482.529 -4.98665 -2.82854 0
M  V30 5162 H 480.926 -5.55273 -2.27579 0
M  V30 5163 H 481.996 -4.71349 -1.13834 0
M  V30 5164 N 483.339 0.512053 -1.4905 0
M  V30 5165 C 484.249 1.64139 -1.67617 0
M  V30 5166 C 485.265 1.64786 -0.558701 0
M  V30 5167 O 486.441 1.8341 -0.832034 0
M  V30 5168 C 483.506 3.00548 -1.72835 0
M  V30 5169 C 482.567 3.10615 -2.96339 0
M  V30 5170 C 481.8 4.40517 -3.01298 0
M  V30 5171 O 482.023 5.28671 -2.14157 0
M  V30 5172 O 480.957 4.55325 -3.93653 0
M  V30 5173 H 484.783 1.51407 -2.63267 0
M  V30 5174 H 482.368 0.687131 -1.32661 0
M  V30 5175 H 484.25 3.81641 -1.78683 0
M  V30 5176 H 482.925 3.13566 -0.803616 0
M  V30 5177 H 481.832 2.2875 -2.96014 0
M  V30 5178 H 483.165 3.0252 -3.88256 0
M  V30 5179 N 484.817 1.37938 0.762283 0
M  V30 5180 C 486.233 1.18945 1.06415 0
M  V30 5181 C 486.433 0.0321163 2.01474 0
M  V30 5182 O 485.489 -0.624844 2.44647 0
M  V30 5183 C 486.802 2.51218 1.65258 0
M  V30 5184 C 488.35 2.57824 1.7747 0
M  V30 5185 C 488.825 3.90251 2.39725 0
M  V30 5186 N 490.316 3.91744 2.47166 0
M  V30 5187 C 491.051 4.90966 2.96209 0
M  V30 5188 N 490.547 6.00585 3.45354 0
M  V30 5189 N 492.34 4.78363 2.9517 0
M  V30 5190 H 484.491 2.11994 0.131301 0
M  V30 5191 H 486.754 0.940262 0.120879 0
M  V30 5192 H 486.46 3.36317 1.02878 0
M  V30 5193 H 486.334 2.68989 2.64433 0
M  V30 5194 H 488.721 1.73126 2.3898 0
M  V30 5195 H 488.802 2.43928 0.770241 0
M  V30 5196 H 488.446 4.75368 1.78852 0
M  V30 5197 H 488.376 4.01454 3.40796 0
M  V30 5198 H 490.867 3.12563 2.12397 0
M  V30 5199 H 491.18 6.72236 3.81207 0
M  V30 5200 H 489.525 6.04217 3.43434 0
M  V30 5201 H 492.716 3.91841 2.56082 0
M  V30 5202 H 492.889 5.55843 3.33081 0
M  V30 5203 N 486.295 -0.989507 1.22664 0
M  V30 5204 C 487.243 -2.10148 0.997035 0
M  V30 5205 C 488.237 -1.6929 -0.0609783 0
M  V30 5206 O 489.443 -1.79766 0.0917523 0
M  V30 5207 H 485.818 -0.687256 0.305259 0
M  V30 5208 H 487.789 -2.26685 1.94053 0
M  V30 5209 C 486.538 -3.4257 0.595085 0
M  V30 5210 H 485.861 -3.74453 1.40089 0
M  V30 5211 H 487.301 -4.21344 0.473869 0
M  V30 5212 C 485.76 -3.29638 -0.695725 0
M  V30 5213 O 486.29 -3.61709 -1.74727 0
M  V30 5214 N 484.496 -2.82814 -0.668173 0
M  V30 5215 H 484.043 -2.56914 0.18787 0
M  V30 5216 H 484.001 -2.74544 -1.5321 0
M  V30 5217 N 487.773 -1.03688 -1.18687 0
M  V30 5218 C 489.019 -0.74888 -1.89112 0
M  V30 5219 C 489.374 0.715345 -1.78607 0
M  V30 5220 O 488.667 1.51498 -1.17299 0
M  V30 5221 C 488.861 -1.14477 -3.3857 0
M  V30 5222 C 488.69 -2.64594 -3.63621 0
M  V30 5223 C 487.46 -3.31685 -3.812 0
M  V30 5224 C 489.658 -3.62811 -3.64517 0
M  V30 5225 N 487.64 -4.70822 -3.93955 0
M  V30 5226 C 489.011 -4.87603 -3.8294 0
M  V30 5227 C 491.066 -3.56495 -3.47585 0
M  V30 5228 C 489.769 -6.0684 -3.86184 0
M  V30 5229 C 491.795 -4.75155 -3.52111 0
M  V30 5230 C 491.157 -5.98765 -3.71026 0
M  V30 5231 H 487.256 -0.32603 -0.710794 0
M  V30 5232 H 489.84 -1.3258 -1.42586 0
M  V30 5233 H 488.011 -0.595974 -3.838 0
M  V30 5234 H 489.743 -0.808187 -3.96548 0
M  V30 5235 H 486.498 -2.82091 -3.80423 0
M  V30 5236 H 486.922 -5.43122 -4.04163 0
M  V30 5237 H 491.564 -2.61907 -3.31911 0
M  V30 5238 H 489.282 -7.01788 -4.00648 0
M  V30 5239 H 492.868 -4.71905 -3.40289 0
M  V30 5240 H 491.748 -6.89047 -3.74412 0
M  V30 5241 N 489.251 1.34841 -0.815825 0
M  V30 5242 C 490.476 2.03261 -0.41226 0
M  V30 5243 C 490.901 1.61055 0.971751 0
M  V30 5244 O 490.259 0.7917 1.63101 0
M  V30 5245 C 490.307 3.56914 -0.514289 0
M  V30 5246 O 489.411 4.09728 0.468675 0
M  V30 5247 H 488.752 0.641664 -0.170771 0
M  V30 5248 H 491.282 1.72241 -1.10427 0
M  V30 5249 H 491.292 4.06156 -0.387457 0
M  V30 5250 H 489.967 3.86982 -1.52375 0
M  V30 5251 H 488.544 3.71681 0.301316 0
M  V30 5252 N 490.729 0.570148 1.46925 0
M  V30 5253 C 491.977 0.0508523 2.02036 0
M  V30 5254 C 492.298 -1.30885 1.44548 0
M  V30 5255 O 491.568 -1.85647 0.625453 0
M  V30 5256 H 490.148 0.0158088 0.746833 0
M  V30 5257 H 492.81 0.743086 1.80178 0
M  V30 5258 H 491.906 -0.027575 3.12088 0
M  V30 5259 N 492.207 -1.54576 0.307264 0
M  V30 5260 C 493.623 -1.59534 -0.0459251 0
M  V30 5261 C 493.823 -1.32414 -1.51884 0
M  V30 5262 O 492.879 -1.1006 -2.27251 0
M  V30 5263 C 494.192 -2.98566 0.357649 0
M  V30 5264 C 495.74 -3.11491 0.306937 0
M  V30 5265 C 496.215 -4.52842 0.685427 0
M  V30 5266 N 497.706 -4.58782 0.638203 0
M  V30 5267 C 498.441 -5.66238 0.903458 0
M  V30 5268 N 497.937 -6.81703 1.23501 0
M  V30 5269 N 499.73 -5.55937 0.830102 0
M  V30 5270 H 491.881 -1.70464 1.26712 0
M  V30 5271 H 494.144 -0.79647 0.514139 0
M  V30 5272 H 493.85 -3.23356 1.38325 0
M  V30 5273 H 493.724 -3.76117 -0.285565 0
M  V30 5274 H 496.111 -2.86446 -0.709424 0
M  V30 5275 H 496.192 -2.36081 0.984861 0
M  V30 5276 H 495.836 -4.78618 1.69963 0
M  V30 5277 H 495.766 -5.26598 -0.0146346 0
M  V30 5278 H 498.257 -3.75849 0.393138 0
M  V30 5279 H 498.57 -7.59582 1.42322 0
M  V30 5280 H 496.915 -6.8324 1.27311 0
M  V30 5281 H 500.106 -4.64608 0.570693 0
M  V30 5282 H 500.279 -6.39597 1.04019 0
M  V30 5283 N 493.685 -0.035106 -1.57561 0
M  V30 5284 C 494.933 0.64096 -1.91667 0
M  V30 5285 C 495.254 1.72323 -0.912681 0
M  V30 5286 O 494.524 1.95849 0.0449089 0
M  V30 5287 H 493.104 0.239743 -0.707483 0
M  V30 5288 H 495.766 -0.084321 -1.94718 0
M  V30 5289 H 494.862 1.08987 -2.92452 0
M  V30 5290 N 495.163 1.55791 0.238111 0
M  V30 5291 C 496.073 1.94196 1.31625 0
M  V30 5292 C 497.089 0.843545 1.52185 0
M  V30 5293 O 498.265 1.1457 1.65637 0
M  V30 5294 C 495.33 2.2365 2.64918 0
M  V30 5295 C 494.391 3.46971 2.52804 0
M  V30 5296 C 493.624 3.7501 3.79741 0
M  V30 5297 O 493.847 3.04982 4.82019 0
M  V30 5298 O 492.781 4.68525 3.77846 0
M  V30 5299 H 496.607 2.86044 1.02043 0
M  V30 5300 H 494.192 1.42786 0.439603 0
M  V30 5301 H 496.074 2.43863 3.4367 0
M  V30 5302 H 494.749 1.34979 2.94215 0
M  V30 5303 H 493.656 3.32055 1.72309 0
M  V30 5304 H 494.989 4.35971 2.28451 0
M  V30 5305 N 496.642 -0.504142 1.49319 0
M  V30 5306 C 497.89 -1.25598 1.58334 0
M  V30 5307 C 498.211 -1.93114 0.270538 0
M  V30 5308 O 497.481 -1.82585 -0.709891 0
M  V30 5309 H 496.061 -0.466571 0.58337 0
M  V30 5310 H 498.723 -0.584547 1.85928 0
M  V30 5311 H 497.819 -2.02159 2.37778 0
M  V30 5312 N 498.12 -1.38341 -0.754957 0
M  V30 5313 C 499.03 -1.3769 -1.89944 0
M  V30 5314 C 500.046 -0.274194 -1.71826 0
M  V30 5315 O 501.222 -0.512391 -1.94773 0
M  V30 5316 C 498.287 -1.19938 -3.25293 0
M  V30 5317 C 497.348 -2.40001 -3.55946 0
M  V30 5318 C 496.581 -2.23087 -4.84838 0
M  V30 5319 O 496.804 -1.22386 -5.57116 0
M  V30 5320 O 495.738 -3.11646 -5.14937 0
M  V30 5321 H 499.564 -2.3412 -1.93446 0
M  V30 5322 H 497.149 -1.19246 -0.900044 0
M  V30 5323 H 499.031 -1.12093 -4.06218 0
M  V30 5324 H 497.706 -0.265919 -3.22606 0
M  V30 5325 H 496.613 -2.53421 -2.75188 0
M  V30 5326 H 497.946 -3.31973 -3.63394 0
M  V30 5327 N 499.598 0.982988 -1.23187 0
M  V30 5328 C 500.53 2.07729 -0.968572 0
M  V30 5329 C 501.543 1.62702 0.0564821 0
M  V30 5330 O 502.732 1.77603 -0.178733 0
M  V30 5331 C 499.832 3.36071 -0.436974 0
M  V30 5332 C 499.005 4.10081 -1.52159 0
M  V30 5333 C 498.064 5.16701 -0.99532 0
M  V30 5334 O 497.09 5.43727 -1.68373 0
M  V30 5335 N 498.292 5.80226 0.178192 0
M  V30 5336 H 501.057 2.30894 -1.9107 0
M  V30 5337 H 498.618 1.14949 -1.1401 0
M  V30 5338 H 500.61 4.04639 -0.0700051 0
M  V30 5339 H 499.18 3.09893 0.410509 0
M  V30 5340 H 498.4 3.36004 -2.06144 0
M  V30 5341 H 499.688 4.56295 -2.25105 0
M  V30 5342 H 499.086 5.60651 0.754096 0
M  V30 5343 H 497.643 6.49982 0.486449 0
M  V30 5344 N 501.076 1.04316 1.18135 0
M  V30 5345 C 502.023 0.636398 2.21853 0
M  V30 5346 C 502.993 -0.357039 1.62217 0
M  V30 5347 O 504.178 -0.250453 1.89149 0
M  V30 5348 C 501.318 0.00812779 3.45099 0
M  V30 5349 C 500.431 1.04933 4.19062 0
M  V30 5350 C 499.566 0.389313 5.29771 0
M  V30 5351 C 498.605 1.41544 5.9551 0
M  V30 5352 N 497.742 0.78021 6.97751 0
M  V30 5353 H 502.582 1.52536 2.56002 0
M  V30 5354 H 500.119 0.76304 1.25762 0
M  V30 5355 H 502.077 -0.373497 4.15525 0
M  V30 5356 H 500.707 -0.844336 3.11562 0
M  V30 5357 H 499.759 1.54888 3.47439 0
M  V30 5358 H 501.071 1.82862 4.64072 0
M  V30 5359 H 500.225 -0.0463805 6.06682 0
M  V30 5360 H 498.964 -0.422038 4.8587 0
M  V30 5361 H 497.969 1.86124 5.17337 0
M  V30 5362 H 499.194 2.22854 6.41493 0
M  V30 5363 H 497.14 -0.0107899 6.55999 0
M  V30 5364 H 497.057 1.49716 7.41027 0
M  V30 5365 H 498.325 0.368996 7.78626 0
M  V30 5366 N 502.554 -1.34406 0.822964 0
M  V30 5367 C 503.502 -2.31428 0.233165 0
M  V30 5368 C 504.496 -1.57404 -0.626118 0
M  V30 5369 O 505.702 -1.72402 -0.517453 0
M  V30 5370 H 502.077 -0.749863 0.0566557 0
M  V30 5371 H 504.048 -2.78699 1.06628 0
M  V30 5372 C 502.797 -3.42653 -0.590264 0
M  V30 5373 H 502.12 -3.99753 0.0616129 0
M  V30 5374 H 503.56 -4.12778 -0.969054 0
M  V30 5375 C 502.019 -2.87112 -1.76262 0
M  V30 5376 O 502.549 -2.81995 -2.8608 0
M  V30 5377 N 500.755 -2.43934 -1.57938 0
M  V30 5378 H 500.302 -2.48296 -0.686078 0
M  V30 5379 H 500.26 -2.07123 -2.36532 0
M  V30 5380 N 504.032 -0.577932 -1.46621 0
M  V30 5381 C 505.257 -0.0652536 -2.07297 0
M  V30 5382 C 505.682 1.22828 -1.4246 0
M  V30 5383 O 505.04 1.74075 -0.506718 0
M  V30 5384 C 505.088 0.0920589 -3.60482 0
M  V30 5385 O 504.192 1.14972 -3.96049 0
M  V30 5386 H 503.533 -0.06065 -0.661224 0
M  V30 5387 H 506.063 -0.799515 -1.88332 0
M  V30 5388 H 506.073 0.299741 -4.06897 0
M  V30 5389 H 504.748 -0.852612 -4.07067 0
M  V30 5390 H 503.325 0.920879 -3.61351 0
M  V30 5391 N 505.51 1.54411 -0.315457 0
M  V30 5392 C 506.473 2.22713 0.54142 0
M  V30 5393 C 507.473 1.2179 1.04995 0
M  V30 5394 O 508.663 1.46426 0.943667 0
M  V30 5395 C 505.795 2.92485 1.75116 0
M  V30 5396 H 506.988 2.99849 -0.0555508 0
M  V30 5397 H 504.541 1.56159 -0.0664453 0
M  V30 5398 H 505.276 2.19466 2.38758 0
M  V30 5399 H 505.061 3.66483 1.39401 0
M  V30 5400 H 506.551 3.44548 2.35959 0
M  V30 5401 N 506.988 0.0434614 1.5754 0
M  V30 5402 C 507.935 -0.93356 2.11077 0
M  V30 5403 C 508.905 -1.31383 1.01626 0
M  V30 5404 O 510.09 -1.40465 1.29129 0
M  V30 5405 C 507.23 -2.20578 2.65404 0
M  V30 5406 C 506.343 -1.88068 3.88914 0
M  V30 5407 C 505.478 -3.09691 4.31584 0
M  V30 5408 C 504.517 -2.73067 5.47815 0
M  V30 5409 N 503.654 -3.87359 5.85574 0
M  V30 5410 H 508.494 -0.470118 2.94268 0
M  V30 5411 H 506.031 -0.220434 1.45439 0
M  V30 5412 H 507.989 -2.95011 2.94999 0
M  V30 5413 H 506.619 -2.64513 1.85021 0
M  V30 5414 H 505.671 -1.03816 3.6596 0
M  V30 5415 H 506.983 -1.57104 4.73413 0
M  V30 5416 H 506.137 -3.92431 4.62691 0
M  V30 5417 H 504.876 -3.43827 3.45882 0
M  V30 5418 H 503.881 -1.88742 5.16388 0
M  V30 5419 H 505.106 -2.40131 6.35227 0
M  V30 5420 H 503.052 -4.21311 5.02825 0
M  V30 5421 H 502.969 -3.60068 6.64746 0
M  V30 5422 H 504.237 -4.70761 6.21292 0
M  V30 5423 N 508.466 -1.55915 -0.229846 0
M  V30 5424 C 509.376 -1.94891 -1.30593 0
M  V30 5425 C 510.392 -0.851604 -1.51736 0
M  V30 5426 O 511.568 -1.15447 -1.65027 0
M  V30 5427 C 508.633 -2.25052 -2.63728 0
M  V30 5428 C 507.694 -3.48306 -2.5096 0
M  V30 5429 C 506.927 -3.77019 -3.77747 0
M  V30 5430 O 507.15 -3.07534 -4.80395 0
M  V30 5431 O 506.084 -4.70523 -3.75356 0
M  V30 5432 H 509.91 -2.86581 -1.00525 0
M  V30 5433 H 507.495 -1.43017 -0.432025 0
M  V30 5434 H 509.377 -2.45682 -3.42372 0
M  V30 5435 H 508.052 -1.36538 -2.93495 0
M  V30 5436 H 506.959 -3.32964 -1.70546 0
M  V30 5437 H 508.292 -4.37177 -2.26136 0
M  V30 5438 N 509.944 0.496216 -1.49584 0
M  V30 5439 C 511.174 1.27209 -1.62793 0
M  V30 5440 C 511.582 1.86799 -0.300476 0
M  V30 5441 O 510.925 1.68802 0.724674 0
M  V30 5442 C 510.987 2.43812 -2.64189 0
M  V30 5443 C 510.651 2.05055 -4.08414 0
M  V30 5444 C 511.648 1.58752 -4.9507 0
M  V30 5445 C 509.333 2.14543 -4.54177 0
M  V30 5446 C 511.327 1.22448 -6.25528 0
M  V30 5447 C 509.014 1.77851 -5.84647 0
M  V30 5448 C 510.012 1.31878 -6.70147 0
M  V30 5449 O 509.7 0.956834 -7.98185 0
M  V30 5450 H 509.432 0.391848 -0.550846 0
M  V30 5451 H 511.986 0.601712 -1.96389 0
M  V30 5452 H 510.216 3.13941 -2.25783 0
M  V30 5453 H 511.905 3.05829 -2.66877 0
M  V30 5454 H 512.671 1.50863 -4.60939 0
M  V30 5455 H 508.55 2.49277 -3.87791 0
M  V30 5456 H 512.094 0.864933 -6.92217 0
M  V30 5457 H 507.991 1.8539 -6.18305 0
M  V30 5458 H 508.759 1.08789 -8.11238 0
M  V30 5459 N 511.423 1.38739 0.74761 0
M  V30 5460 C 512.839 1.20067 1.05148 0
M  V30 5461 C 513.039 0.0534835 2.01429 0
M  V30 5462 O 512.095 -0.59886 2.45296 0
M  V30 5463 C 513.408 2.52957 1.62584 0
M  V30 5464 C 514.956 2.59692 1.74726 0
M  V30 5465 C 515.431 3.92772 2.35573 0
M  V30 5466 N 516.922 3.94343 2.42997 0
M  V30 5467 C 517.657 4.9408 2.90985 0
M  V30 5468 N 517.153 6.04214 3.38965 0
M  V30 5469 N 518.946 4.81466 2.9008 0
M  V30 5470 H 511.097 2.12121 0.108808 0
M  V30 5471 H 513.36 0.941491 0.110899 0
M  V30 5472 H 513.066 3.37389 0.993051 0
M  V30 5473 H 512.94 2.71779 2.61565 0
M  V30 5474 H 515.327 1.75651 2.3713 0
M  V30 5475 H 515.408 2.44731 0.744326 0
M  V30 5476 H 515.052 4.77238 1.738 0
M  V30 5477 H 514.982 4.05046 3.36519 0
M  V30 5478 H 517.473 3.14799 2.0907 0
M  V30 5479 H 517.786 6.76241 3.74056 0
M  V30 5480 H 516.131 6.07825 3.37007 0
M  V30 5481 H 519.322 3.94535 2.51912 0
M  V30 5482 H 519.495 5.59344 3.27166 0
M  V30 5483 N 512.901 -0.976442 1.23707 0
M  V30 5484 C 514.149 -1.71487 1.06942 0
M  V30 5485 C 514.47 -1.9098 -0.393897 0
M  V30 5486 O 513.74 -1.48128 -1.28198 0
M  V30 5487 H 512.32 -0.635425 0.392739 0
M  V30 5488 H 514.982 -1.17515 1.55487 0
M  V30 5489 H 514.078 -2.70286 1.56051 0
M  V30 5490 N 514.379 -1.04941 -1.1758 0
M  V30 5491 C 515.607 -0.778294 -1.91703 0
M  V30 5492 C 516.022 0.665697 -1.76675 0
M  V30 5493 O 515.379 1.45456 -1.10222 0
M  V30 5494 C 515.43 -1.14628 -3.42845 0
M  V30 5495 O 515.151 -2.53359 -3.57409 0
M  V30 5496 C 516.652 -0.900931 -4.34049 0
M  V30 5497 H 513.872 -0.283167 -0.608323 0
M  V30 5498 H 516.416 -1.39942 -1.49119 0
M  V30 5499 H 514.571 -0.569953 -3.83184 0
M  V30 5500 H 514.985 -2.67709 -4.51035 0
M  V30 5501 H 516.459 -1.20817 -5.38616 0
M  V30 5502 H 516.936 0.163966 -4.38894 0
M  V30 5503 H 517.542 -1.46097 -3.99419 0
M  V30 5504 N 515.857 1.33968 -0.830081 0
M  V30 5505 C 516.787 2.31911 -0.271911 0
M  V30 5506 C 517.768 1.58571 0.61556 0
M  V30 5507 O 518.953 1.86514 0.540946 0
M  V30 5508 C 516.083 3.42737 0.561146 0
M  V30 5509 C 515.037 4.27383 -0.229789 0
M  V30 5510 C 514.363 5.29742 0.726463 0
M  V30 5511 C 515.663 5.02 -1.44197 0
M  V30 5512 H 517.357 2.78844 -1.09025 0
M  V30 5513 H 514.903 1.34061 -0.52571 0
M  V30 5514 H 516.856 4.10276 0.961867 0
M  V30 5515 H 515.58 2.94471 1.41261 0
M  V30 5516 H 514.239 3.61456 -0.611964 0
M  V30 5517 H 513.887 4.77736 1.57408 0
M  V30 5518 H 513.587 5.87255 0.20142 0
M  V30 5519 H 515.111 6.00149 1.12489 0
M  V30 5520 H 516.525 5.62355 -1.11488 0
M  V30 5521 H 514.922 5.69122 -1.90317 0
M  V30 5522 H 515.992 4.31281 -2.2164 0
M  V30 5523 N 517.335 0.585699 1.46312 0
M  V30 5524 C 518.751 0.247607 1.57668 0
M  V30 5525 C 518.951 -1.25007 1.58037 0
M  V30 5526 O 518.007 -2.03196 1.49893 0
M  V30 5527 C 519.32 0.899456 2.86933 0
M  V30 5528 C 520.868 0.873326 3.00569 0
M  V30 5529 C 521.343 1.50477 4.32574 0
M  V30 5530 N 522.834 1.46925 4.3928 0
M  V30 5531 C 523.569 1.92719 5.40044 0
M  V30 5532 N 523.065 2.46499 6.47464 0
M  V30 5533 N 524.858 1.83617 5.31264 0
M  V30 5534 H 517.009 1.55841 1.44317 0
M  V30 5535 H 519.272 0.651564 0.688599 0
M  V30 5536 H 518.978 1.95313 2.92482 0
M  V30 5537 H 518.852 0.409476 3.74971 0
M  V30 5538 H 521.239 -0.171736 2.946 0
M  V30 5539 H 521.32 1.40136 2.13999 0
M  V30 5540 H 520.964 2.54905 4.39302 0
M  V30 5541 H 520.894 0.951944 5.17924 0
M  V30 5542 H 523.385 1.07616 3.62253 0
M  V30 5543 H 523.698 2.79291 7.20567 0
M  V30 5544 H 522.043 2.50526 6.48276 0
M  V30 5545 H 525.234 1.41358 4.46246 0
M  V30 5546 H 525.407 2.19622 6.09648 0
M  V30 5547 N 518.813 -1.54241 0.323641 0
M  V30 5548 C 520.059 -2.00867 -0.279323 0
M  V30 5549 C 520.392 -1.21146 -1.5178 0
M  V30 5550 O 519.667 -0.29378 -1.92269 0
M  V30 5551 C 519.95 -3.54837 -0.613387 0
M  V30 5552 C 519.803 -4.45284 0.635803 0
M  V30 5553 C 521.122 -4.16186 -1.43099 0
M  V30 5554 H 518.241 -0.730177 -0.100049 0
M  V30 5555 H 520.883 -1.84829 0.440235 0
M  V30 5556 H 519.033 -3.68634 -1.22641 0
M  V30 5557 H 520.705 -4.43357 1.27406 0
M  V30 5558 H 518.948 -4.14956 1.26466 0
M  V30 5559 H 519.619 -5.5084 0.357597 0
M  V30 5560 H 522.095 -4.05964 -0.912814 0
M  V30 5561 H 520.971 -5.24031 -1.6335 0
M  V30 5562 H 521.232 -3.69516 -2.42715 0
M  V30 5563 N 520.291 -0.0518155 -1.57515 0
M  V30 5564 C 521.519 0.631395 -1.9703 0
M  V30 5565 C 521.934 1.64341 -0.92938 0
M  V30 5566 O 521.291 1.82296 0.0863266 0
M  V30 5567 C 521.342 1.31774 -3.36627 0
M  V30 5568 O 521.063 0.346247 -4.3673 0
M  V30 5569 C 522.564 2.09065 -3.90905 0
M  V30 5570 H 519.784 0.172576 -0.648428 0
M  V30 5571 H 522.328 -0.118306 -2.04158 0
M  V30 5572 H 520.483 2.01867 -3.30649 0
M  V30 5573 H 520.897 0.836226 -5.17791 0
M  V30 5574 H 522.371 2.52508 -4.9086 0
M  V30 5575 H 522.848 2.93908 -3.26366 0
M  V30 5576 H 523.454 1.43882 -4.00223 0
M  V30 5577 N 521.769 1.56035 0.221574 0
M  V30 5578 C 523.016 1.79047 0.94597 0
M  V30 5579 C 523.344 0.62057 1.84334 0
M  V30 5580 O 522.599 -0.395053 1.91671 0
M  V30 5581 C 522.898 3.07813 1.8162 0
M  V30 5582 C 522.564 4.3797 1.07206 0
M  V30 5583 C 521.226 4.73334 0.866508 0
M  V30 5584 C 523.578 5.18326 0.546565 0
M  V30 5585 C 520.906 5.8657 0.123549 0
M  V30 5586 C 523.258 6.32335 -0.18305 0
M  V30 5587 C 521.922 6.66301 -0.399861 0
M  V30 5588 H 521.192 0.655178 0.346155 0
M  V30 5589 H 523.839 1.90299 0.214146 0
M  V30 5590 H 522.144 2.91682 2.61589 0
M  V30 5591 H 523.841 3.2282 2.37884 0
M  V30 5592 H 520.431 4.10202 1.24226 0
M  V30 5593 H 524.615 4.9144 0.692847 0
M  V30 5594 H 519.871 6.11376 -0.0546591 0
M  V30 5595 H 524.045 6.9383 -0.59775 0
M  V30 5596 H 521.672 7.53889 -0.977489 0
M  V30 5597 N 523.247 -0.488276 1.49845 0
M  V30 5598 C 524.524 -1.24959 1.50481 0
M  V30 5599 C 524.904 -2.09735 0.239698 0
M  V30 5600 O 524.252 -2.14865 -0.777524 0
M  V30 5601 C 524.462 -2.0954 2.79095 0
M  V30 5602 C 525.81 -2.68305 3.29086 0
M  V30 5603 O 526.834 -2.19797 2.80299 0
M  V30 5604 O 525.693 -3.56643 4.14087 0
M  V30 5605 H 522.787 -0.566133 0.602845 0
M  V30 5606 H 525.333 -0.501504 1.6212 0
M  V30 5607 H 524.105 -1.46958 3.62656 0
M  V30 5608 H 523.728 -2.91517 2.70377 0
M  V30 5609 N 524.725 -1.39134 -0.740242 0
M  V30 5610 C 525.688 -1.37217 -1.83587 0
M  V30 5611 C 526.688 -0.270221 -1.58513 0
M  V30 5612 O 527.878 -0.527843 -1.6601 0
M  V30 5613 C 525.01 -1.13959 -3.21288 0
M  V30 5614 H 526.203 -2.34705 -1.86691 0
M  V30 5615 H 523.756 -1.24622 -0.94335 0
M  V30 5616 H 524.491 -0.17131 -3.23847 0
M  V30 5617 H 524.276 -1.93754 -3.40884 0
M  V30 5618 H 525.766 -1.15346 -4.01354 0
M  V30 5619 N 526.204 0.969867 -1.24223 0
M  V30 5620 C 527.114 2.09806 -1.0497 0
M  V30 5621 C 528.13 1.73998 0.00886455 0
M  V30 5622 O 529.306 2.00513 -0.188848 0
M  V30 5623 C 526.371 3.40467 -0.654452 0
M  V30 5624 C 525.432 3.90236 -1.78926 0
M  V30 5625 C 524.665 5.14662 -1.41277 0
M  V30 5626 O 524.888 5.69602 -0.301632 0
M  V30 5627 O 523.822 5.58761 -2.23763 0
M  V30 5628 H 527.648 2.28942 -1.99548 0
M  V30 5629 H 525.233 1.08197 -1.03023 0
M  V30 5630 H 527.115 4.19039 -0.445452 0
M  V30 5631 H 525.79 3.22636 0.262216 0
M  V30 5632 H 524.697 3.12735 -2.05299 0
M  V30 5633 H 526.03 4.1254 -2.68462 0
M  V30 5634 N 527.682 1.05563 1.17022 0
M  V30 5635 C 528.645 0.664098 2.19368 0
M  V30 5636 C 529.645 -0.286358 1.5823 0
M  V30 5637 O 530.835 -0.069728 1.7406 0
M  V30 5638 C 527.967 -0.0239932 3.40892 0
M  V30 5639 H 529.16 1.57 2.55521 0
M  V30 5640 H 526.713 0.849964 1.31169 0
M  V30 5641 H 527.448 -0.942988 3.10287 0
M  V30 5642 H 527.233 0.659351 3.86516 0
M  V30 5643 H 528.723 -0.283909 4.16634 0
M  V30 5644 N 529.16 -1.33526 0.837174 0
M  V30 5645 C 530.093 -2.27192 0.214233 0
M  V30 5646 C 531.071 -1.49575 -0.637657 0
M  V30 5647 O 532.255 -1.78753 -0.598291 0
M  V30 5648 C 529.382 -3.31401 -0.699367 0
M  V30 5649 C 528.428 -4.26431 0.0768429 0
M  V30 5650 S 529.261 -5.15954 1.4336 0
M  V30 5651 C 530.417 -6.23692 0.525251 0
M  V30 5652 H 530.65 -2.79679 1.00831 0
M  V30 5653 H 528.183 -1.4079 0.633834 0
M  V30 5654 H 530.141 -3.91924 -1.22088 0
M  V30 5655 H 528.802 -2.77732 -1.46709 0
M  V30 5656 H 527.995 -5.00193 -0.618268 0
M  V30 5657 H 527.597 -3.70235 0.529364 0
M  V30 5658 H 529.889 -6.76931 -0.277575 0
M  V30 5659 H 530.832 -6.97283 1.23299 0
M  V30 5660 H 531.24 -5.64398 0.107351 0
M  V30 5661 N 530.638 -0.59345 -1.46 0
M  V30 5662 C 531.586 0.146268 -2.3214 0
M  V30 5663 C 532.58 0.873743 -1.45128 0
M  V30 5664 O 533.786 0.790912 -1.61693 0
M  V30 5665 H 530.161 0.0660349 -0.749095 0
M  V30 5666 H 532.132 -0.598895 -2.92328 0
M  V30 5667 C 530.881 1.1396 -3.28494 0
M  V30 5668 H 530.204 0.589252 -3.95434 0
M  V30 5669 H 531.644 1.62738 -3.91526 0
M  V30 5670 C 530.103 2.20604 -2.54628 0
M  V30 5671 O 530.633 3.28128 -2.31722 0
M  V30 5672 N 528.839 1.95502 -2.15005 0
M  V30 5673 H 528.386 1.0807 -2.33834 0
M  V30 5674 H 528.344 2.67064 -1.65904 0
M  V30 5675 N 532.116 1.54067 -0.331816 0
M  V30 5676 C 533.063 2.24623 0.530372 0
M  V30 5677 C 534.033 1.24009 1.10503 0
M  V30 5678 O 535.218 1.52712 1.14384 0
M  V30 5679 C 532.358 3.01374 1.68129 0
M  V30 5680 C 531.471 4.16821 1.13507 0
M  V30 5681 C 530.606 4.81085 2.25234 0
M  V30 5682 C 529.645 5.88621 1.67903 0
M  V30 5683 N 528.782 6.46713 2.73326 0
M  V30 5684 H 533.622 2.97898 -0.0778607 0
M  V30 5685 H 531.159 1.47014 -0.0501965 0
M  V30 5686 H 533.117 3.44125 2.35868 0
M  V30 5687 H 531.747 2.30419 2.26069 0
M  V30 5688 H 530.799 3.78796 0.348979 0
M  V30 5689 H 532.111 4.94203 0.675633 0
M  V30 5690 H 531.265 5.26846 3.00862 0
M  V30 5691 H 530.004 4.03102 2.74518 0
M  V30 5692 H 529.009 5.42254 0.907773 0
M  V30 5693 H 530.234 6.68506 1.19487 0
M  V30 5694 H 528.18 5.71599 3.21886 0
M  V30 5695 H 528.097 7.19532 2.3197 0
M  V30 5696 H 529.365 6.97129 3.48758 0
M  V30 5697 N 533.594 0.0601682 1.57485 0
M  V30 5698 C 534.504 -0.926121 2.15546 0
M  V30 5699 C 535.52 -1.33532 1.11558 0
M  V30 5700 O 536.696 -1.4104 1.4377 0
M  V30 5701 C 533.761 -2.17952 2.69625 0
M  V30 5702 C 532.822 -1.82783 3.88444 0
M  V30 5703 C 532.055 -3.02148 4.39935 0
M  V30 5704 O 532.278 -4.15803 3.90466 0
M  V30 5705 O 531.212 -2.82639 5.31412 0
M  V30 5706 H 535.038 -0.462289 3.00161 0
M  V30 5707 H 532.623 -0.162246 1.48516 0
M  V30 5708 H 534.505 -2.91474 3.04337 0
M  V30 5709 H 533.18 -2.63456 1.88077 0
M  V30 5710 H 532.087 -1.06549 3.58606 0
M  V30 5711 H 533.42 -1.42072 4.7125 0
M  V30 5712 N 535.072 -1.5615 -0.213296 0
M  V30 5713 C 536.297 -1.83986 -0.957282 0
M  V30 5714 C 536.722 -0.641526 -1.76822 0
M  V30 5715 O 536.08 0.409722 -1.7661 0
M  V30 5716 C 536.128 -3.09889 -1.84393 0
M  V30 5717 O 535.232 -2.89163 -2.94038 0
M  V30 5718 H 534.573 -0.606357 -0.270605 0
M  V30 5719 H 537.103 -2.03369 -0.224111 0
M  V30 5720 H 537.113 -3.40209 -2.25215 0
M  V30 5721 H 535.788 -3.96735 -1.24795 0
M  V30 5722 H 534.365 -2.70097 -2.57103 0
M  V30 5723 N 536.55 0.480323 -1.50102 0
M  V30 5724 C 537.961 1.06142 -1.53593 0
M  V30 5725 C 538.312 1.93335 -0.334055 0
M  V30 5726 O 537.437 2.09188 0.55403 0
M  V30 5727 C 538.032 1.9317 -2.78336 0
M  V30 5728 C 536.591 2.46405 -2.84538 0
M  V30 5729 C 535.738 1.24521 -2.4777 0
M  V30 5730 H 538.689 0.26333 -1.565 0
M  V30 5731 H 538.71 2.78123 -2.59669 0
M  V30 5732 H 538.222 1.29683 -3.65792 0
M  V30 5733 H 536.323 3.13472 -2.01411 0
M  V30 5734 H 536.436 2.82143 -3.87211 0
M  V30 5735 H 534.8 1.57706 -2.00003 0
M  V30 5736 H 535.583 0.627102 -3.37524 0
M  V30 5737 N 538.028 1.39524 0.732853 0
M  V30 5738 C 538.961 1.32806 1.85574 0
M  V30 5739 C 539.939 0.201354 1.61348 0
M  V30 5740 O 541.123 0.38216 1.84585 0
M  V30 5741 C 538.25 1.06271 3.21596 0
M  V30 5742 C 537.296 2.21161 3.64678 0
M  V30 5743 S 538.129 3.83454 3.73796 0
M  V30 5744 C 539.285 3.59149 5.12604 0
M  V30 5745 H 539.518 2.27838 1.9099 0
M  V30 5746 H 537.051 1.25605 0.897927 0
M  V30 5747 H 539.009 0.916461 4.00139 0
M  V30 5748 H 537.67 0.129223 3.13834 0
M  V30 5749 H 536.863 1.98193 4.63396 0
M  V30 5750 H 536.465 2.32 2.93346 0
M  V30 5751 H 538.757 3.16547 5.99003 0
M  V30 5752 H 539.7 4.57335 5.40602 0
M  V30 5753 H 540.108 2.93203 4.82382 0
M  V30 5754 N 539.506 -0.963266 1.24736 0
M  V30 5755 C 540.752 -1.70933 1.09131 0
M  V30 5756 C 541.085 -1.90676 -0.368273 0
M  V30 5757 O 540.36 -1.47147 -1.27193 0
M  V30 5758 C 540.643 -3.09744 1.83658 0
M  V30 5759 C 540.496 -2.97465 3.37394 0
M  V30 5760 C 541.815 -4.09483 1.61282 0
M  V30 5761 H 538.934 -0.620398 0.397838 0
M  V30 5762 H 541.576 -1.12028 1.53459 0
M  V30 5763 H 539.726 -3.60031 1.4598 0
M  V30 5764 H 541.398 -2.54571 3.84696 0
M  V30 5765 H 539.641 -2.33576 3.65547 0
M  V30 5766 H 540.312 -3.95822 3.84745 0
M  V30 5767 H 542.788 -3.68073 1.94066 0
M  V30 5768 H 541.664 -5.04666 2.15878 0
M  V30 5769 H 541.925 -4.38639 0.552102 0
M  V30 5770 N 540.985 -1.06182 -1.16461 0
M  V30 5771 C 542.401 -0.785065 -1.38956 0
M  V30 5772 C 542.601 0.616103 -1.9185 0
M  V30 5773 O 541.657 1.37686 -2.11657 0
M  V30 5774 C 542.97 -1.84902 -2.37132 0
M  V30 5775 C 544.518 -1.8724 -2.50819 0
M  V30 5776 C 544.993 -2.92686 -3.52277 0
M  V30 5777 N 546.484 -2.91712 -3.59803 0
M  V30 5778 C 547.219 -3.69949 -4.38093 0
M  V30 5779 N 546.715 -4.58 -5.19815 0
M  V30 5780 N 548.508 -3.58346 -4.33064 0
M  V30 5781 H 540.659 -1.96569 -0.804634 0
M  V30 5782 H 542.922 -0.851747 -0.416211 0
M  V30 5783 H 542.628 -2.85518 -2.0536 0
M  V30 5784 H 542.502 -1.69908 -3.36766 0
M  V30 5785 H 544.889 -0.872827 -2.81897 0
M  V30 5786 H 544.97 -2.06311 -1.51226 0
M  V30 5787 H 544.614 -3.92835 -3.21937 0
M  V30 5788 H 544.544 -2.70864 -4.51598 0
M  V30 5789 H 547.035 -2.27876 -3.01464 0
M  V30 5790 H 547.348 -5.14357 -5.76764 0
M  V30 5791 H 545.693 -4.62056 -5.19162 0
M  V30 5792 H 548.884 -2.88943 -3.68279 0
M  V30 5793 H 549.057 -4.19563 -4.93833 0
M  V30 5794 N 542.463 1.3308 -0.844243 0
M  V30 5795 C 543.688 2.02341 -0.455282 0
M  V30 5796 C 544.113 1.6308 0.93737 0
M  V30 5797 O 543.471 0.826118 1.61385 0
M  V30 5798 C 543.519 3.55743 -0.58988 0
M  V30 5799 O 542.623 4.1063 0.38166 0
M  V30 5800 H 541.964 0.637898 -0.184343 0
M  V30 5801 H 544.494 1.6986 -1.14056 0
M  V30 5802 H 544.504 4.05243 -0.473522 0
M  V30 5803 H 543.179 3.83662 -1.60549 0
M  V30 5804 H 541.756 3.72236 0.22241 0
M  V30 5805 N 543.941 0.601185 1.45683 0
M  V30 5806 C 544.904 -0.111398 2.28929 0
M  V30 5807 C 545.904 -0.801246 1.39416 0
M  V30 5808 O 547.094 -0.650383 1.61603 0
M  V30 5809 C 544.226 -1.16773 3.20276 0
M  V30 5810 H 545.419 0.620412 2.93413 0
M  V30 5811 H 542.972 0.359946 1.52099 0
M  V30 5812 H 543.707 -1.93051 2.60579 0
M  V30 5813 H 543.492 -0.677358 3.86205 0
M  V30 5814 H 544.982 -1.66698 3.82886 0
M  V30 5815 N 545.419 -1.53889 0.339982 0
M  V30 5816 C 546.835 -1.59595 -0.0120752 0
M  V30 5817 C 547.035 -1.35605 -1.49042 0
M  V30 5818 O 546.091 -1.14856 -2.24865 0
M  V30 5819 C 547.404 -2.9774 0.420898 0
M  V30 5820 C 548.952 -3.1077 0.37294 0
M  V30 5821 C 549.427 -4.51286 0.781327 0
M  V30 5822 N 550.918 -4.57325 0.735374 0
M  V30 5823 C 551.653 -5.64194 1.02336 0
M  V30 5824 N 551.149 -6.7893 1.37933 0
M  V30 5825 N 552.942 -5.54051 0.947838 0
M  V30 5826 H 545.093 -1.67738 1.30299 0
M  V30 5827 H 547.356 -0.785385 0.530918 0
M  V30 5828 H 547.062 -3.20349 1.45152 0
M  V30 5829 H 546.936 -3.76639 -0.205721 0
M  V30 5830 H 549.323 -2.87886 -0.648505 0
M  V30 5831 H 549.404 -2.33939 1.03472 0
M  V30 5832 H 549.048 -4.74905 1.80077 0
M  V30 5833 H 548.978 -5.26511 0.0970679 0
M  V30 5834 H 551.469 -3.74931 0.472773 0
M  V30 5835 H 551.782 -7.56392 1.58402 0
M  V30 5836 H 550.127 -6.80386 1.41774 0
M  V30 5837 H 553.318 -4.63293 0.669115 0
M  V30 5838 H 553.491 -6.37246 1.17563 0
M  V30 5839 N 546.897 -0.0685191 -1.57451 0
M  V30 5840 C 548.174 0.642167 -1.84758 0
M  V30 5841 C 548.554 1.87991 -0.960344 0
M  V30 5842 O 547.902 2.28485 -0.0257894 0
M  V30 5843 C 548.112 0.982946 -3.34872 0
M  V30 5844 C 549.46 1.35784 -4.02303 0
M  V30 5845 O 550.484 1.07477 -3.39598 0
M  V30 5846 O 549.343 1.88681 -5.12895 0
M  V30 5847 H 546.437 0.318625 -0.763156 0
M  V30 5848 H 548.983 -0.0992015 -1.6941 0
M  V30 5849 H 547.755 0.10372 -3.91163 0
M  V30 5850 H 547.378 1.78119 -3.55471 0
M  V30 5851 N 548.375 1.56261 0.205012 0
M  V30 5852 C 549.652 1.70856 0.952233 0
M  V30 5853 C 550.032 0.620501 2.01775 0
M  V30 5854 O 549.38 -0.370035 2.25484 0
M  V30 5855 C 549.59 3.12807 1.54767 0
M  V30 5856 C 550.938 3.72733 2.0336 0
M  V30 5857 O 551.962 3.15873 1.64629 0
M  V30 5858 O 550.821 4.72501 2.746 0
M  V30 5859 H 547.915 0.696496 0.445895 0
M  V30 5860 H 550.461 1.6857 0.195489 0
M  V30 5861 H 549.233 3.83465 0.779132 0
M  V30 5862 H 548.856 3.1928 2.36951 0
M  V30 5863 N 549.853 -0.472356 1.50355 0
M  V30 5864 C 550.786 -1.58923 1.63764 0
M  V30 5865 C 551.764 -1.55173 0.485793 0
M  V30 5866 O 552.948 -1.74815 0.705132 0
M  V30 5867 C 550.075 -2.97497 1.61905 0
M  V30 5868 C 549.121 -3.19405 2.82635 0
M  V30 5869 S 549.954 -2.99441 4.43954 0
M  V30 5870 C 551.11 -4.40359 4.44786 0
M  V30 5871 H 551.343 -1.47309 2.58239 0
M  V30 5872 H 548.876 -0.659601 1.39602 0
M  V30 5873 H 550.834 -3.77389 1.61518 0
M  V30 5874 H 549.495 -3.06502 0.686683 0
M  V30 5875 H 548.688 -4.20636 2.77636 0
M  V30 5876 H 548.29 -2.47283 2.80583 0
M  V30 5877 H 550.582 -5.32969 4.1827 0
M  V30 5878 H 551.525 -4.50403 5.46391 0
M  V30 5879 H 551.933 -4.22378 3.74509 0
M  V30 5880 N 551.331 -1.39911 -0.725443 0
M  V30 5881 C 552.608 -1.28158 -1.47766 0
M  V30 5882 C 552.988 0.104545 -2.10841 0
M  V30 5883 O 552.336 1.11657 -1.99361 0
M  V30 5884 C 552.546 -2.41306 -2.52135 0
M  V30 5885 C 553.894 -2.81076 -3.18247 0
M  V30 5886 O 554.918 -2.40827 -2.62452 0
M  V30 5887 O 553.777 -3.50581 -4.19231 0
M  V30 5888 H 550.871 -0.502761 -0.656628 0
M  V30 5889 H 553.417 -1.51808 -0.758456 0
M  V30 5890 H 552.189 -3.33932 -2.03974 0
M  V30 5891 H 551.812 -2.19374 -3.31603 0
M  V30 5892 N 552.809 0.956637 -1.25245 0
M  V30 5893 C 554.225 1.22733 -1.02023 0
M  V30 5894 C 554.425 1.99761 0.264186 0
M  V30 5895 O 553.481 2.32814 0.977436 0
M  V30 5896 C 554.794 2.00367 -2.24217 0
M  V30 5897 C 556.342 2.13418 -2.28958 0
M  V30 5898 C 556.817 2.9445 -3.50803 0
M  V30 5899 N 558.308 3.02029 -3.51187 0
M  V30 5900 C 559.043 3.65116 -4.42129 0
M  V30 5901 N 558.539 4.2983 -5.43339 0
M  V30 5902 N 560.332 3.62237 -4.29815 0
M  V30 5903 H 552.483 0.441282 -2.07765 0
M  V30 5904 H 554.746 0.257686 -0.912306 0
M  V30 5905 H 554.452 1.51165 -3.17556 0
M  V30 5906 H 554.326 3.01077 -2.27228 0
M  V30 5907 H 556.713 2.61819 -1.36143 0
M  V30 5908 H 556.794 1.1202 -2.29968 0
M  V30 5909 H 556.438 2.46741 -4.43939 0
M  V30 5910 H 556.368 3.9607 -3.47039 0
M  V30 5911 H 558.859 2.56007 -2.77973 0
M  V30 5912 H 559.172 4.75819 -6.08947 0
M  V30 5913 H 557.517 4.28465 -5.47214 0
M  V30 5914 H 560.708 3.10863 -3.49974 0
M  V30 5915 H 560.881 4.11117 -5.00886 0
M  V30 5916 N 554.287 1.06798 1.15896 0
M  V30 5917 C 555.535 0.786211 1.8618 0
M  V30 5918 C 555.856 -0.689547 1.82401 0
M  V30 5919 O 555.126 -1.49913 1.26107 0
M  V30 5920 H 553.706 0.287843 0.689315 0
M  V30 5921 H 556.368 1.35055 1.40521 0
M  V30 5922 H 555.464 1.1157 2.91477 0
M  V30 5923 N 555.766 -1.3263 0.851289 0
M  V30 5924 C 556.713 -2.28952 0.291469 0
M  V30 5925 C 557.683 -1.54897 -0.599676 0
M  V30 5926 O 558.868 -1.83137 -0.535305 0
M  V30 5927 C 556.008 -3.41206 -0.516992 0
M  V30 5928 C 555.121 -4.30148 0.399566 0
M  V30 5929 C 554.256 -5.29527 -0.4212 0
M  V30 5930 C 553.295 -6.10112 0.492969 0
M  V30 5931 N 552.432 -7.01499 -0.290414 0
M  V30 5932 H 557.272 -2.76228 1.11813 0
M  V30 5933 H 554.809 -1.35907 0.562826 0
M  V30 5934 H 556.767 -4.05005 -1.00132 0
M  V30 5935 H 555.397 -2.9509 -1.30851 0
M  V30 5936 H 554.449 -3.66959 1.00227 0
M  V30 5937 H 555.761 -4.8649 1.1013 0
M  V30 5938 H 554.915 -5.98914 -0.968832 0
M  V30 5939 H 553.654 -4.73794 -1.15632 0
M  V30 5940 H 552.659 -5.39632 1.05251 0
M  V30 5941 H 553.884 -6.6793 1.22664 0
M  V30 5942 H 551.83 -6.48199 -1.00868 0
M  V30 5943 H 551.747 -7.55178 0.352354 0
M  V30 5944 H 553.015 -7.75176 -0.819882 0
M  V30 5945 N 557.244 -0.608902 -1.45362 0
M  V30 5946 C 558.655 -0.189511 -1.85736 0
M  V30 5947 C 559.006 1.2539 -1.50903 0
M  V30 5948 O 558.131 1.95094 -0.936347 0
M  V30 5949 C 558.726 -0.33716 -3.37118 0
M  V30 5950 C 557.285 0.0275487 -3.7639 0
M  V30 5951 C 556.432 -0.660983 -2.69307 0
M  V30 5952 H 559.383 -0.815499 -1.36144 0
M  V30 5953 H 559.404 0.430257 -3.7806 0
M  V30 5954 H 558.916 -1.38779 -3.62439 0
M  V30 5955 H 557.017 1.0773 -3.56686 0
M  V30 5956 H 557.13 -0.367018 -4.77692 0
M  V30 5957 H 555.494 -0.0984958 -2.54509 0
M  V30 5958 H 556.277 -1.71377 -2.97464 0
M  V30 5959 N 558.722 1.53707 -0.348139 0
M  V30 5960 C 559.999 1.93247 0.302475 0
M  V30 5961 C 560.379 1.28012 1.67857 0
M  V30 5962 O 559.727 0.43274 2.24365 0
M  V30 5963 C 559.937 3.47031 0.370159 0
M  V30 5964 C 561.285 4.20066 0.61882 0
M  V30 5965 O 562.309 3.53319 0.452087 0
M  V30 5966 O 561.168 5.38318 0.94215 0
M  V30 5967 H 558.262 0.807736 0.177458 0
M  V30 5968 H 560.808 1.64927 -0.399651 0
M  V30 5969 H 559.58 3.86745 -0.59534 0
M  V30 5970 H 559.203 3.81532 1.11888 0
M  V30 5971 N 560.2 0.0768682 1.57412 0
M  V30 5972 C 561.147 -0.888577 2.13009 0
M  V30 5973 C 562.117 -1.29198 1.0439 0
M  V30 5974 O 563.302 -1.37694 1.3208 0
M  V30 5975 C 560.442 -2.14899 2.70023 0
M  V30 5976 C 559.555 -1.79777 3.92816 0
M  V30 5977 C 558.69 -3.00467 4.38056 0
M  V30 5978 C 557.729 -2.61385 5.53484 0
M  V30 5979 N 556.866 -3.74851 5.93659 0
M  V30 5980 H 561.706 -0.407593 2.95199 0
M  V30 5981 H 559.243 -0.189534 1.45874 0
M  V30 5982 H 561.201 -2.88688 3.0119 0
M  V30 5983 H 559.831 -2.60529 1.9059 0
M  V30 5984 H 558.883 -0.960301 3.68079 0
M  V30 5985 H 560.195 -1.47027 4.76639 0
M  V30 5986 H 559.349 -3.82529 4.7091 0
M  V30 5987 H 558.088 -3.36413 3.53097 0
M  V30 5988 H 557.093 -1.77746 5.20275 0
M  V30 5989 H 558.318 -2.26603 6.40178 0
M  V30 5990 H 556.264 -4.1055 5.11649 0
M  V30 5991 H 556.181 -3.45887 6.72234 0
M  V30 5992 H 557.449 -4.57477 6.31138 0
M  V30 5993 N 561.678 -1.56367 -0.196722 0
M  V30 5994 C 562.926 -1.80172 -0.915554 0
M  V30 5995 C 563.247 -0.649649 -1.8386 0
M  V30 5996 O 562.517 0.332111 -1.93064 0
M  V30 5997 H 561.097 -0.664592 -0.341067 0
M  V30 5998 H 563.759 -1.93844 -0.202622 0
M  V30 5999 H 562.855 -2.7327 -1.50764 0
M  V30 6000 N 563.156 0.464375 -1.50603 0
M  V30 6001 C 564.086 1.56944 -1.72889 0
M  V30 6002 C 565.067 1.59979 -0.577997 0
M  V30 6003 O 566.252 1.76138 -0.817855 0
M  V30 6004 C 563.382 2.95225 -1.8292 0
M  V30 6005 C 562.336 3.07056 -2.98162 0
M  V30 6006 C 561.662 4.47051 -2.93343 0
M  V30 6007 C 562.962 2.83648 -4.38567 0
M  V30 6008 H 564.656 1.38547 -2.65415 0
M  V30 6009 H 562.202 0.665082 -1.27721 0
M  V30 6010 H 564.155 3.72467 -1.97095 0
M  V30 6011 H 562.879 3.14793 -0.870209 0
M  V30 6012 H 561.538 2.32248 -2.83648 0
M  V30 6013 H 561.186 4.63547 -1.95276 0
M  V30 6014 H 560.886 4.55902 -3.70712 0
M  V30 6015 H 562.41 5.26304 -3.09575 0
M  V30 6016 H 563.824 3.50636 -4.53572 0
M  V30 6017 H 562.221 3.03937 -5.17438 0
M  V30 6018 H 563.291 1.79451 -4.50472 0
M  V30 6019 N 564.634 1.40294 0.718013 0
M  V30 6020 C 565.859 1.41941 1.5122 0
M  V30 6021 C 566.284 0.0202371 1.88089 0
M  V30 6022 O 565.642 -0.971078 1.53101 0
M  V30 6023 C 565.69 2.3141 2.76554 0
M  V30 6024 O 564.794 1.75567 3.73162 0
M  V30 6025 H 564.135 0.482644 0.456016 0
M  V30 6026 H 566.665 1.84494 0.884478 0
M  V30 6027 H 566.675 2.46513 3.25108 0
M  V30 6028 H 565.35 3.33085 2.49053 0
M  V30 6029 H 563.927 1.69798 3.31999 0
M  V30 6030 N 566.112 -0.949982 1.2575 0
M  V30 6031 C 567.337 -1.73503 1.13628 0
M  V30 6032 C 567.762 -1.85601 -0.30559 0
M  V30 6033 O 567.12 -1.33984 -1.22139 0
M  V30 6034 C 567.168 -3.1243 1.80055 0
M  V30 6035 O 566.272 -3.97916 1.08336 0
M  V30 6036 H 565.613 -0.532665 0.396439 0
M  V30 6037 H 568.143 -1.19043 1.66403 0
M  V30 6038 H 568.153 -3.62866 1.86527 0
M  V30 6039 H 566.828 -3.02941 2.84956 0
M  V30 6040 H 565.405 -3.56375 1.09777 0
M  V30 6041 N 567.59 -1.07411 -1.15328 0
M  V30 6042 C 568.838 -0.796073 -1.85761 0
M  V30 6043 C 569.159 0.679864 -1.82764 0
M  V30 6044 O 568.429 1.49242 -1.269 0
M  V30 6045 H 567.009 -0.291495 -0.687779 0
M  V30 6046 H 569.671 -1.35799 -1.39802 0
M  V30 6047 H 568.767 -1.13114 -2.90881 0
M  V30 6048 N 569.068 1.32177 -0.85831 0
M  V30 6049 C 570.316 1.96735 -0.462568 0
M  V30 6050 C 570.637 1.6824 0.985911 0
M  V30 6051 O 569.907 0.991564 1.68952 0
M  V30 6052 H 568.487 0.727849 -0.168064 0
M  V30 6053 H 571.149 1.61195 -1.09554 0
M  V30 6054 H 570.245 3.06068 -0.610647 0
M  V30 6055 N 570.547 0.616602 1.45037 0
M  V30 6056 C 571.494 -0.0969439 2.30596 0
M  V30 6057 C 572.464 -0.851151 1.42635 0
M  V30 6058 O 573.649 -0.835092 1.71554 0
M  V30 6059 C 570.789 -1.08234 3.27688 0
M  V30 6060 C 569.902 -0.328072 4.30752 0
M  V30 6061 C 569.037 -1.30399 5.14946 0
M  V30 6062 C 568.076 -0.538049 6.09731 0
M  V30 6063 N 567.213 -1.46371 6.86673 0
M  V30 6064 H 572.053 0.63864 2.91076 0
M  V30 6065 H 569.59 0.326733 1.43425 0
M  V30 6066 H 571.548 -1.66688 3.82454 0
M  V30 6067 H 570.178 -1.78523 2.68941 0
M  V30 6068 H 569.23 0.372136 3.78575 0
M  V30 6069 H 570.542 0.269142 4.98073 0
M  V30 6070 H 569.696 -1.96032 5.74157 0
M  V30 6071 H 568.435 -1.93514 4.47665 0
M  V30 6072 H 567.44 0.131852 5.49642 0
M  V30 6073 H 568.665 0.0881732 6.79043 0
M  V30 6074 H 566.611 -2.08233 6.22073 0
M  V30 6075 H 566.528 -0.920152 7.50379 0
M  V30 6076 H 567.796 -2.10932 7.50418 0
M  V30 6077 N 572.025 -1.5352 0.356285 0
M  V30 6078 C 573.273 -2.00719 -0.235837 0
M  V30 6079 C 573.594 -1.24551 -1.5004 0
M  V30 6080 O 572.864 -0.356185 -1.92635 0
M  V30 6081 H 571.444 -0.741542 -0.0901366 0
M  V30 6082 H 574.106 -1.88887 0.480378 0
M  V30 6083 H 573.202 -3.08551 -0.469357 0
M  V30 6084 N 573.503 -0.0852151 -1.57369 0
M  V30 6085 C 574.728 0.592872 -1.98746 0
M  V30 6086 C 575.153 1.61538 -0.963689 0
M  V30 6087 O 574.511 1.81168 0.069071 0
M  V30 6088 C 574.559 1.22599 -3.39119 0
M  V30 6089 O 573.663 2.34185 -3.39457 0
M  V30 6090 H 573.004 0.151314 -0.646529 0
M  V30 6091 H 575.534 -0.163703 -2.03944 0
M  V30 6092 H 575.544 1.56965 -3.76598 0
M  V30 6093 H 574.219 0.476831 -4.13158 0
M  V30 6094 H 572.796 2.01512 -3.13763 0
M  V30 6095 N 574.981 1.5647 0.188427 0
M  V30 6096 C 575.891 1.98285 1.2538 0
M  V30 6097 C 576.907 0.891535 1.49424 0
M  V30 6098 O 578.083 1.19782 1.61908 0
M  V30 6099 C 575.148 2.31965 2.57669 0
M  V30 6100 C 574.209 3.54838 2.41638 0
M  V30 6101 C 573.442 3.86901 3.67618 0
M  V30 6102 O 573.665 3.20163 4.72072 0
M  V30 6103 O 572.599 4.80309 3.62749 0
M  V30 6104 H 576.425 2.89145 0.928912 0
M  V30 6105 H 574.01 1.44112 0.393955 0
M  V30 6106 H 575.892 2.54673 3.35737 0
M  V30 6107 H 574.567 1.44271 2.89771 0
M  V30 6108 H 573.474 3.37369 1.61658 0
M  V30 6109 H 574.807 4.43019 2.14465 0
M  V30 6110 N 576.459 -0.456382 1.50847 0
M  V30 6111 C 577.406 -1.55249 1.70782 0
M  V30 6112 C 578.376 -1.56757 0.549231 0
M  V30 6113 O 579.561 -1.74061 0.7815 0
M  V30 6114 C 576.701 -2.93118 1.82143 0
M  V30 6115 C 575.814 -3.01285 3.09598 0
M  V30 6116 C 574.949 -4.30159 3.11667 0
M  V30 6117 C 573.988 -4.32124 4.33515 0
M  V30 6118 N 573.125 -5.52492 4.3324 0
M  V30 6119 H 577.965 -1.37555 2.64353 0
M  V30 6120 H 575.502 -0.668543 1.3103 0
M  V30 6121 H 577.46 -3.73088 1.86711 0
M  V30 6122 H 576.09 -3.09413 0.919978 0
M  V30 6123 H 575.142 -2.14096 3.14431 0
M  V30 6124 H 576.454 -2.98597 3.99551 0
M  V30 6125 H 575.608 -5.18489 3.15046 0
M  V30 6126 H 574.347 -4.35477 2.1957 0
M  V30 6127 H 573.352 -3.42189 4.30333 0
M  V30 6128 H 574.577 -4.28485 5.26856 0
M  V30 6129 H 572.523 -5.58567 3.44004 0
M  V30 6130 H 572.44 -5.51605 5.16979 0
M  V30 6131 H 573.708 -6.42906 4.40786 0
M  V30 6132 N 577.937 -1.40673 -0.710563 0
M  V30 6133 C 578.869 -1.37256 -1.83558 0
M  V30 6134 C 579.882 -0.277133 -1.60424 0
M  V30 6135 O 581.071 -0.537831 -1.70205 0
M  V30 6136 C 578.171 -1.1144 -3.20054 0
M  V30 6137 C 577.344 -2.32734 -3.70342 0
M  V30 6138 C 576.403 -2.03002 -4.85465 0
M  V30 6139 O 575.429 -2.75912 -4.97857 0
M  V30 6140 N 576.631 -1.01105 -5.71627 0
M  V30 6141 H 579.396 -2.34215 -1.86985 0
M  V30 6142 H 576.957 -1.35091 -0.892301 0
M  V30 6143 H 578.949 -0.895265 -3.94673 0
M  V30 6144 H 577.519 -0.231307 -3.11743 0
M  V30 6145 H 576.739 -2.70446 -2.86798 0
M  V30 6146 H 578.027 -3.13584 -4.00678 0
M  V30 6147 H 577.425 -0.407303 -5.64232 0
M  V30 6148 H 575.982 -0.85182 -6.4621 0
M  V30 6149 N 579.415 0.9433 -1.26252 0
M  V30 6150 C 580.325 2.07532 -1.09397 0
M  V30 6151 C 581.341 1.73977 -0.0280449 0
M  V30 6152 O 582.517 2.00067 -0.231337 0
M  V30 6153 C 579.582 3.39002 -0.726523 0
M  V30 6154 C 578.643 3.86353 -1.87163 0
M  V30 6155 C 577.876 5.11549 -1.52162 0
M  V30 6156 O 578.099 5.68834 -0.422385 0
M  V30 6157 O 577.033 5.53889 -2.35565 0
M  V30 6158 H 580.859 2.24658 -2.04359 0
M  V30 6159 H 578.444 1.05988 -1.05295 0
M  V30 6160 H 580.326 4.18 -0.534236 0
M  V30 6161 H 579.001 3.2312 0.193721 0
M  V30 6162 H 577.908 3.0831 -2.11886 0
M  V30 6163 H 579.241 4.06752 -2.77152 0
M  V30 6164 N 580.893 1.08022 1.14757 0
M  V30 6165 C 582.118 0.82895 1.90114 0
M  V30 6166 C 582.543 -0.612772 1.77839 0
M  V30 6167 O 581.901 -1.42895 1.11583 0
M  V30 6168 C 581.949 1.25062 3.38219 0
M  V30 6169 O 581.053 0.400119 4.10454 0
M  V30 6170 H 580.394 0.301412 0.591648 0
M  V30 6171 H 582.924 1.44062 1.45284 0
M  V30 6172 H 582.934 1.22977 3.89025 0
M  V30 6173 H 581.609 2.30067 3.46471 0
M  V30 6174 H 580.186 0.484052 3.69745 0
M  V30 6175 N 582.371 -1.3172 0.865308 0
M  V30 6176 C 583.318 -2.2863 0.315736 0
M  V30 6177 C 584.288 -1.55524 -0.583213 0
M  V30 6178 O 585.473 -1.83694 -0.51585 0
M  V30 6179 C 582.613 -3.41735 -0.480773 0
M  V30 6180 C 581.726 -4.297 0.445167 0
M  V30 6181 C 580.861 -5.29944 -0.365012 0
M  V30 6182 C 579.9 -6.09554 0.557651 0
M  V30 6183 N 579.037 -7.01768 -0.215994 0
M  V30 6184 H 583.877 -2.75026 1.14736 0
M  V30 6185 H 581.414 -1.35302 0.577209 0
M  V30 6186 H 583.372 -4.06045 -0.958306 0
M  V30 6187 H 582.002 -2.96461 -1.27714 0
M  V30 6188 H 581.054 -3.65875 1.04113 0
M  V30 6189 H 582.366 -4.85295 1.15284 0
M  V30 6190 H 581.52 -5.99908 -0.905255 0
M  V30 6191 H 580.259 -4.74994 -1.106 0
M  V30 6192 H 579.264 -5.38485 1.10969 0
M  V30 6193 H 580.489 -6.66591 1.29742 0
M  V30 6194 H 578.435 -6.49232 -0.939878 0
M  V30 6195 H 578.352 -7.54762 0.432431 0
M  V30 6196 H 579.62 -7.76002 -0.737618 0
M  V30 6197 N 583.85 -0.624285 -1.44708 0
M  V30 6198 C 584.798 0.0969952 -2.32398 0
M  V30 6199 C 585.792 0.842762 -1.46949 0
M  V30 6200 O 586.998 0.756436 -1.63334 0
M  V30 6201 H 583.373 0.0501306 -0.750327 0
M  V30 6202 H 585.344 -0.660767 -2.90992 0
M  V30 6203 C 584.093 1.06967 -3.30837 0
M  V30 6204 H 583.416 0.505242 -3.96595 0
M  V30 6205 H 584.856 1.54397 -3.94889 0
M  V30 6206 C 583.315 2.15153 -2.5925 0
M  V30 6207 O 583.845 3.23139 -2.3863 0
M  V30 6208 N 582.051 1.90898 -2.19103 0
M  V30 6209 H 581.598 1.03086 -2.36074 0
M  V30 6210 H 581.556 2.63485 -1.71531 0
M  V30 6211 N 585.328 1.53329 -0.364422 0
M  V30 6212 C 586.739 1.86345 0.115039 0
M  V30 6213 C 587.09 1.28505 1.4826 0
M  V30 6214 O 586.215 0.606639 2.07723 0
M  V30 6215 C 586.81 3.38114 0.215522 0
M  V30 6216 C 585.369 3.70932 0.639237 0
M  V30 6217 C 584.516 2.76471 -0.214261 0
M  V30 6218 H 587.467 1.47593 -0.583258 0
M  V30 6219 H 587.488 3.66031 1.0393 0
M  V30 6220 H 587 3.80182 -0.779948 0
M  V30 6221 H 585.101 3.3442 1.64298 0
M  V30 6222 H 585.214 4.77302 0.41465 0
M  V30 6223 H 583.578 2.52724 0.316678 0
M  V30 6224 H 584.361 3.21373 -1.20725 0
M  V30 6225 N 586.806 0.0935595 1.57322 0
M  V30 6226 C 587.753 -0.865935 2.1394 0
M  V30 6227 C 588.723 -1.28083 1.05754 0
M  V30 6228 O 589.908 -1.36285 1.33533 0
M  V30 6229 C 587.048 -2.12023 2.72287 0
M  V30 6230 C 586.161 -1.756 3.94701 0
M  V30 6231 C 585.296 -2.95804 4.41218 0
M  V30 6232 C 584.335 -2.555 5.56225 0
M  V30 6233 N 583.472 -3.68534 5.97601 0
M  V30 6234 H 588.312 -0.376261 2.95615 0
M  V30 6235 H 585.849 -0.174052 1.46067 0
M  V30 6236 H 587.807 -2.85477 3.04235 0
M  V30 6237 H 586.437 -2.58492 1.93343 0
M  V30 6238 H 585.489 -0.921208 3.69077 0
M  V30 6239 H 586.801 -1.41964 4.78171 0
M  V30 6240 H 585.955 -3.77513 4.74941 0
M  V30 6241 H 584.694 -3.32649 3.56645 0
M  V30 6242 H 583.699 -1.72218 5.22131 0
M  V30 6243 H 584.924 -2.19801 6.42545 0
M  V30 6244 H 582.87 -4.051 5.15974 0
M  V30 6245 H 582.787 -3.38737 6.75865 0
M  V30 6246 H 584.055 -4.50757 6.35955 0
M  V30 6247 N 588.284 -1.56567 -0.180126 0
M  V30 6248 C 589.216 -1.92275 -1.24751 0
M  V30 6249 C 590.229 -0.814922 -1.40936 0
M  V30 6250 O 591.418 -1.09336 -1.41095 0
M  V30 6251 C 588.518 -2.15265 -2.61752 0
M  V30 6252 C 587.691 -3.46467 -2.66981 0
M  V30 6253 C 586.75 -3.58391 -3.85283 0
M  V30 6254 O 585.776 -4.31086 -3.7169 0
M  V30 6255 N 586.978 -2.92587 -5.01371 0
M  V30 6256 H 589.743 -2.84435 -0.944302 0
M  V30 6257 H 587.304 -1.57617 -0.369952 0
M  V30 6258 H 589.296 -2.20515 -3.39345 0
M  V30 6259 H 587.866 -1.29533 -2.845 0
M  V30 6260 H 587.086 -3.52953 -1.75549 0
M  V30 6261 H 588.374 -4.32819 -2.67479 0
M  V30 6262 H 587.772 -2.3338 -5.15316 0
M  V30 6263 H 586.329 -3.03444 -5.76858 0
M  V30 6264 N 589.762 0.448376 -1.51087 0
M  V30 6265 C 590.672 1.56882 -1.74428 0
M  V30 6266 C 591.688 1.62268 -0.62809 0
M  V30 6267 O 592.864 1.79716 -0.909075 0
M  V30 6268 C 589.929 2.92947 -1.85426 0
M  V30 6269 C 588.99 2.97766 -3.09247 0
M  V30 6270 C 588.223 4.27341 -3.19711 0
M  V30 6271 O 588.446 5.19112 -2.36387 0
M  V30 6272 O 587.38 4.38219 -4.12611 0
M  V30 6273 H 591.206 1.40104 -2.69452 0
M  V30 6274 H 588.791 0.630247 -1.35456 0
M  V30 6275 H 590.673 3.73719 -1.94709 0
M  V30 6276 H 589.348 3.09876 -0.935887 0
M  V30 6277 H 588.255 2.15989 -3.0545 0
M  V30 6278 H 589.588 2.8578 -4.00738 0
M  V30 6279 N 591.24 1.41047 0.703093 0
M  V30 6280 C 592.17 1.45067 1.82969 0
M  V30 6281 C 593.151 0.31016 1.67248 0
M  V30 6282 O 594.336 0.520548 1.87093 0
M  V30 6283 C 591.466 1.32478 3.2104 0
M  V30 6284 C 590.42 2.44262 3.51454 0
M  V30 6285 C 589.746 2.16742 4.88801 0
M  V30 6286 C 591.046 3.86606 3.51189 0
M  V30 6287 H 592.74 2.39353 1.79863 0
M  V30 6288 H 590.286 1.15206 0.863919 0
M  V30 6289 H 592.239 1.33904 3.99559 0
M  V30 6290 H 590.963 0.346735 3.24754 0
M  V30 6291 H 589.622 2.42107 2.75282 0
M  V30 6292 H 589.27 1.17299 4.89132 0
M  V30 6293 H 588.97 2.91643 5.10116 0
M  V30 6294 H 590.494 2.19872 5.69639 0
M  V30 6295 H 591.908 3.90517 4.19725 0
M  V30 6296 H 590.305 4.61128 3.84033 0
M  V30 6297 H 591.375 4.15296 2.50315 0
M  V30 6298 N 592.718 -0.936591 1.26751 0
M  V30 6299 C 594.134 -1.21095 1.03963 0
M  V30 6300 C 594.334 -2.00156 -0.232372 0
M  V30 6301 O 593.39 -2.3434 -0.940274 0
M  V30 6302 C 594.703 -1.96775 2.27377 0
M  V30 6303 C 596.251 -2.09749 2.32324 0
M  V30 6304 C 596.726 -2.88832 3.55443 0
M  V30 6305 N 598.217 -2.96404 3.55948 0
M  V30 6306 C 598.952 -3.58036 4.47881 0
M  V30 6307 N 598.448 -4.21132 5.50109 0
M  V30 6308 N 600.241 -3.55353 4.35523 0
M  V30 6309 H 592.392 -0.408173 2.08441 0
M  V30 6310 H 594.655 -0.243139 0.91629 0
M  V30 6311 H 594.361 -1.46094 3.19921 0
M  V30 6312 H 594.235 -2.97424 2.31989 0
M  V30 6313 H 596.622 -2.5962 1.40291 0
M  V30 6314 H 596.703 -1.08347 2.31721 0
M  V30 6315 H 596.347 -2.39647 4.47808 0
M  V30 6316 H 596.277 -3.90499 3.53296 0
M  V30 6317 H 598.768 -2.51552 2.82011 0
M  V30 6318 H 599.081 -4.66071 6.16439 0
M  V30 6319 H 597.426 -4.19705 5.53961 0
M  V30 6320 H 600.617 -3.05256 3.54875 0
M  V30 6321 H 600.79 -4.03097 5.07363 0
M  V30 6322 N 594.196 -1.08629 -1.14182 0
M  V30 6323 C 595.444 -0.815731 -1.84906 0
M  V30 6324 C 595.765 0.660441 -1.83475 0
M  V30 6325 O 595.035 1.47888 -1.28476 0
M  V30 6326 H 593.615 -0.298773 -0.684648 0
M  V30 6327 H 596.277 -1.37274 -1.38354 0
M  V30 6328 H 595.373 -1.16193 -2.89665 0
M  V30 6329 N 595.674 1.31259 -0.872281 0
M  V30 6330 C 597.09 1.49283 -0.564521 0
M  V30 6331 C 597.29 1.80243 0.900807 0
M  V30 6332 O 596.346 1.88246 1.68284 0
M  V30 6333 C 597.659 2.62503 -1.46673 0
M  V30 6334 C 599.207 2.76386 -1.46901 0
M  V30 6335 C 599.682 3.92705 -2.35684 0
M  V30 6336 N 601.173 3.99995 -2.33577 0
M  V30 6337 C 601.908 4.89276 -2.98992 0
M  V30 6338 N 601.404 5.83443 -3.73585 0
M  V30 6339 N 603.197 4.82541 -2.88289 0
M  V30 6340 H 595.348 1.09432 -1.82039 0
M  V30 6341 H 597.611 0.540949 -0.77851 0
M  V30 6342 H 597.317 2.46407 -2.50951 0
M  V30 6343 H 597.191 3.58695 -1.16696 0
M  V30 6344 H 599.578 2.91894 -0.433796 0
M  V30 6345 H 599.659 1.80853 -1.80903 0
M  V30 6346 H 599.303 3.77954 -3.39283 0
M  V30 6347 H 599.233 4.87549 -1.99006 0
M  V30 6348 H 601.724 3.32624 -1.7936 0
M  V30 6349 H 602.037 6.48303 -4.20622 0
M  V30 6350 H 600.382 5.83415 -3.77694 0
M  V30 6351 H 603.573 4.07951 -2.2955 0
M  V30 6352 H 603.746 5.51916 -3.39549 0
M  V30 6353 N 597.152 0.631951 1.44375 0
M  V30 6354 C 598.4 0.136497 2.01639 0
M  V30 6355 C 598.721 -1.24637 1.49969 0
M  V30 6356 O 597.991 -1.82827 0.70363 0
M  V30 6357 H 596.571 0.0474703 0.74549 0
M  V30 6358 H 599.233 0.818837 1.76865 0
M  V30 6359 H 598.329 0.104817 3.11924 0
M  V30 6360 N 598.631 -1.53133 0.372548 0
M  V30 6361 C 600.047 -1.59585 0.02178 0
M  V30 6362 C 600.247 -1.38736 -1.46132 0
M  V30 6363 O 599.303 -1.19599 -2.22379 0
M  V30 6364 C 600.616 -2.9678 0.483959 0
M  V30 6365 C 602.164 -3.09909 0.438775 0
M  V30 6366 C 602.639 -4.49527 0.876876 0
M  V30 6367 N 604.13 -4.55663 0.832214 0
M  V30 6368 C 604.865 -5.61896 1.14281 0
M  V30 6369 N 604.361 -6.75852 1.52303 0
M  V30 6370 N 606.154 -5.51916 1.06515 0
M  V30 6371 H 598.305 -1.64936 1.33827 0
M  V30 6372 H 600.568 -0.773947 0.547458 0
M  V30 6373 H 600.274 -3.17198 1.51915 0
M  V30 6374 H 600.148 -3.7699 -0.125784 0
M  V30 6375 H 602.535 -2.89197 -0.587294 0
M  V30 6376 H 602.616 -2.31691 1.0841 0
M  V30 6377 H 602.26 -4.70979 1.90109 0
M  V30 6378 H 602.19 -5.26186 0.208727 0
M  V30 6379 H 604.681 -3.73844 0.552195 0
M  V30 6380 H 604.994 -7.52862 1.7441 0
M  V30 6381 H 603.339 -6.77226 1.56175 0
M  V30 6382 H 606.53 -4.6177 0.767235 0
M  V30 6383 H 606.703 -6.34609 1.31053 0
M  V30 6384 N 600.109 -0.101901 -1.5727 0
M  V30 6385 C 601.357 0.559091 -1.94213 0
M  V30 6386 C 601.678 1.68297 -0.984948 0
M  V30 6387 O 600.948 1.95863 -0.0381975 0
M  V30 6388 H 599.528 0.20952 -0.717015 0
M  V30 6389 H 602.19 -0.166831 -1.94185 0
M  V30 6390 H 601.286 0.96485 -2.96811 0
M  V30 6391 N 601.587 1.56661 0.17182 0
M  V30 6392 C 602.836 1.81158 0.886831 0
M  V30 6393 C 603.149 0.679072 1.83434 0
M  V30 6394 O 604.355 0.808964 2.59168 0
M  V30 6395 C 602.811 3.20999 1.6275 0
M  V30 6396 C 602.419 4.42117 0.723652 0
M  V30 6397 C 604.163 3.5479 2.33076 0
M  V30 6398 C 602.07 5.7298 1.46452 0
M  V30 6399 H 601 0.675543 0.334899 0
M  V30 6400 H 603.651 1.82967 0.139765 0
M  V30 6401 H 602.033 3.13506 2.4193 0
M  V30 6402 H 603.207 4.60789 -0.0311485 0
M  V30 6403 H 601.522 4.16197 0.130063 0
M  V30 6404 H 604.119 4.49806 2.89099 0
M  V30 6405 H 604.462 2.79646 3.08389 0
M  V30 6406 H 604.995 3.63834 1.6084 0
M  V30 6407 H 601.734 6.51152 0.753729 0
M  V30 6408 H 601.254 5.58285 2.19266 0
M  V30 6409 H 602.933 6.14916 2.01214 0
M  V30 6410 N 603.065 -0.440357 1.51323 0
M  V30 6411 C 603.995 -1.54174 1.75364 0
M  V30 6412 C 604.976 -1.59039 0.603375 0
M  V30 6413 O 606.161 -1.74815 0.845774 0
M  V30 6414 C 603.291 -2.92277 1.87593 0
M  V30 6415 C 602.245 -3.02274 3.03009 0
M  V30 6416 C 601.571 -4.42327 3.00418 0
M  V30 6417 C 602.871 -2.76634 4.43024 0
M  V30 6418 H 604.565 -1.34307 2.67585 0
M  V30 6419 H 602.111 -0.644678 1.28763 0
M  V30 6420 H 604.064 -3.69284 2.02995 0
M  V30 6421 H 602.788 -3.13369 0.920179 0
M  V30 6422 H 601.447 -2.27706 2.87307 0
M  V30 6423 H 601.095 -4.60382 2.02626 0
M  V30 6424 H 600.795 -4.49946 3.77918 0
M  V30 6425 H 602.319 -5.21312 3.17909 0
M  V30 6426 H 603.733 -3.43376 4.59093 0
M  V30 6427 H 602.13 -2.95666 5.22208 0
M  V30 6428 H 603.2 -1.72262 4.5327 0
M  V30 6429 N 604.543 -1.41418 -0.695603 0
M  V30 6430 C 605.792 -1.40073 -1.4513 0
M  V30 6431 C 606.105 -0.0130439 -1.95596 0
M  V30 6432 O 607.311 0.123032 -2.71221 0
M  V30 6433 C 605.767 -2.46286 -2.62433 0
M  V30 6434 C 605.375 -3.90962 -2.18753 0
M  V30 6435 C 607.119 -2.54077 -3.40066 0
M  V30 6436 C 605.026 -4.88728 -3.33015 0
M  V30 6437 H 603.956 -0.520903 -0.545138 0
M  V30 6438 H 606.607 -1.67242 -0.75515 0
M  V30 6439 H 604.989 -2.12248 -3.34315 0
M  V30 6440 H 606.163 -4.34248 -1.54161 0
M  V30 6441 H 604.478 -3.86831 -1.54114 0
M  V30 6442 H 607.075 -3.24303 -4.25125 0
M  V30 6443 H 607.418 -1.5776 -3.8525 0
M  V30 6444 H 607.951 -2.87206 -2.75241 0
M  V30 6445 H 604.69 -5.86449 -2.92844 0
M  V30 6446 H 604.21 -4.50091 -3.96457 0
M  V30 6447 H 605.889 -5.09483 -3.98793 0
M  V30 6448 N 606.021 0.929856 -1.27246 0
M  V30 6449 C 606.951 2.04722 -1.12299 0
M  V30 6450 C 607.932 1.70082 -0.0250464 0
M  V30 6451 O 609.117 1.93176 -0.199141 0
M  V30 6452 C 606.247 3.38721 -0.767145 0
M  V30 6453 C 605.201 3.87466 -1.81808 0
M  V30 6454 C 604.527 5.18246 -1.31626 0
M  V30 6455 C 605.827 4.11095 -3.22177 0
M  V30 6456 H 607.521 2.17485 -2.05769 0
M  V30 6457 H 605.067 1.04503 -0.990715 0
M  V30 6458 H 607.02 4.16366 -0.649413 0
M  V30 6459 H 605.744 3.25967 0.203259 0
M  V30 6460 H 604.403 3.12012 -1.92468 0
M  V30 6461 H 604.051 5.01881 -0.335378 0
M  V30 6462 H 603.751 5.51829 -2.01887 0
M  V30 6463 H 605.275 5.98462 -1.21143 0
M  V30 6464 H 606.689 4.79316 -3.1453 0
M  V30 6465 H 605.086 4.55982 -3.90129 0
M  V30 6466 H 606.156 3.16468 -3.67391 0
M  V30 6467 N 607.499 1.09233 1.13605 0
M  V30 6468 C 608.91 0.846839 1.6639 0
M  V30 6469 C 609.261 -0.625031 1.85978 0
M  V30 6470 O 608.386 -1.48173 1.57714 0
M  V30 6471 C 608.981 1.5307 3.0225 0
M  V30 6472 C 607.54 1.33223 3.52035 0
M  V30 6473 C 606.687 1.58806 2.27323 0
M  V30 6474 H 609.638 1.25175 0.975541 0
M  V30 6475 H 609.659 0.96267 3.68121 0
M  V30 6476 H 609.171 2.60192 2.87961 0
M  V30 6477 H 607.272 0.282091 3.71531 0
M  V30 6478 H 607.385 2.0657 4.32279 0
M  V30 6479 H 605.749 1.01007 2.33815 0
M  V30 6480 H 606.532 2.67153 2.15602 0
M  V30 6481 N 608.977 -1.30795 0.87923 0
M  V30 6482 C 609.94 -2.26563 0.346676 0
M  V30 6483 C 610.94 -1.52578 -0.507597 0
M  V30 6484 O 612.13 -1.71318 -0.315575 0
M  V30 6485 C 609.262 -3.37115 -0.506611 0
M  V30 6486 H 610.455 -2.75183 1.19223 0
M  V30 6487 H 608.008 -1.41886 0.655598 0
M  V30 6488 H 608.743 -2.93802 -1.37299 0
M  V30 6489 H 608.528 -3.91959 0.105218 0
M  V30 6490 H 610.018 -4.08412 -0.871192 0
M  V30 6491 N 610.455 -0.639598 -1.44038 0
M  V30 6492 C 611.405 0.0823038 -2.27851 0
M  V30 6493 C 612.389 0.807991 -1.39141 0
M  V30 6494 O 613.581 0.692702 -1.62882 0
M  V30 6495 C 610.71 1.05742 -3.26609 0
M  V30 6496 C 609.796 0.330911 -4.22807 0
M  V30 6497 N 610.187 -0.645126 -5.01669 0
M  V30 6498 C 608.485 0.574214 -4.42288 0
M  V30 6499 C 609.186 -1.07513 -5.71678 0
M  V30 6500 N 608.162 -0.412164 -5.42035 0
M  V30 6501 H 611.964 -0.666861 -2.86234 0
M  V30 6502 H 609.478 -0.465777 -1.55577 0
M  V30 6503 H 611.475 1.58927 -3.85419 0
M  V30 6504 H 610.135 1.80679 -2.69787 0
M  V30 6505 H 611.146 -1.02329 -5.0769 0
M  V30 6506 H 607.823 1.30581 -3.96554 0
M  V30 6507 H 609.213 -1.88196 -6.45005 0
M  V30 6508 N 611.933 1.52934 -0.380664 0
M  V30 6509 C 613.161 2.05886 0.204599 0
M  V30 6510 C 613.576 1.25305 1.41223 0
M  V30 6511 O 612.933 0.297504 1.80059 0
M  V30 6512 C 612.984 3.56764 0.583249 0
M  V30 6513 O 612.705 4.34292 -0.576398 0
M  V30 6514 C 614.206 4.2603 1.2253 0
M  V30 6515 H 611.426 0.670193 0.0328991 0
M  V30 6516 H 613.97 1.97148 -0.543397 0
M  V30 6517 H 612.125 3.65603 1.28115 0
M  V30 6518 H 612.539 5.23819 -0.267119 0
M  V30 6519 H 614.013 5.32868 1.44068 0
M  V30 6520 H 614.49 3.80698 2.19011 0
M  V30 6521 H 615.096 4.21485 0.568407 0
M  V30 6522 N 613.412 0.11024 1.57214 0
M  V30 6523 C 614.64 -0.557834 1.99238 0
M  V30 6524 C 615.055 -1.60778 0.989734 0
M  V30 6525 O 614.412 -1.82491 -0.0186092 0
M  V30 6526 C 614.463 -1.19189 3.41286 0
M  V30 6527 O 614.184 -0.183919 4.37714 0
M  V30 6528 C 615.685 -1.94413 3.98395 0
M  V30 6529 H 612.905 -0.148392 0.654386 0
M  V30 6530 H 615.449 0.193996 2.03578 0
M  V30 6531 H 613.604 -1.89456 3.37913 0
M  V30 6532 H 614.018 -0.643475 5.20538 0
M  V30 6533 H 615.492 -2.34116 4.99894 0
M  V30 6534 H 615.969 -2.81592 3.3705 0
M  V30 6535 H 616.575 -1.28928 4.05287 0
M  V30 6536 N 614.89 -1.56749 -0.16351 0
M  V30 6537 C 615.82 -2.00042 -1.20438 0
M  V30 6538 C 616.801 -0.877256 -1.45733 0
M  V30 6539 O 617.986 -1.1439 -1.56935 0
M  V30 6540 C 615.116 -2.36697 -2.54149 0
M  V30 6541 C 614.07 -3.52046 -2.43408 0
M  V30 6542 C 613.396 -3.74466 -3.81679 0
M  V30 6543 C 614.696 -4.85247 -1.93216 0
M  V30 6544 H 616.39 -2.87244 -0.844477 0
M  V30 6545 H 613.936 -1.38194 -0.40478 0
M  V30 6546 H 615.889 -2.65582 -3.27176 0
M  V30 6547 H 614.613 -1.46414 -2.91943 0
M  V30 6548 H 613.272 -3.23301 -1.72834 0
M  V30 6549 H 612.92 -2.81461 -4.1688 0
M  V30 6550 H 612.62 -4.52084 -3.75359 0
M  V30 6551 H 614.144 -4.0576 -4.5628 0
M  V30 6552 H 615.558 -5.12957 -2.56023 0
M  V30 6553 H 613.955 -5.66556 -1.97825 0
M  V30 6554 H 615.025 -4.7672 -0.88689 0
M  V30 6555 N 616.368 0.432326 -1.51554 0
M  V30 6556 C 617.593 1.20824 -1.68571 0
M  V30 6557 C 618.018 1.84126 -0.384596 0
M  V30 6558 O 617.376 1.69025 0.655751 0
M  V30 6559 C 617.424 2.26429 -2.80646 0
M  V30 6560 O 616.528 3.32032 -2.44598 0
M  V30 6561 H 615.869 0.353765 -0.561913 0
M  V30 6562 H 618.399 0.509916 -1.98144 0
M  V30 6563 H 618.409 2.71133 -3.04878 0
M  V30 6564 H 617.084 1.79733 -3.75058 0
M  V30 6565 H 615.661 2.92769 -2.30956 0
M  V30 6566 N 617.846 1.41785 0.688094 0
M  V30 6567 C 619.092 1.41753 1.4503 0
M  V30 6568 C 619.425 0.0290745 1.94178 0
M  V30 6569 O 618.7 -0.944456 1.7003 0
M  V30 6570 C 618.983 2.43069 2.65686 0
M  V30 6571 C 618.836 3.91053 2.22256 0
M  V30 6572 C 620.155 2.41543 3.67893 0
M  V30 6573 H 617.274 0.516202 0.526027 0
M  V30 6574 H 619.916 1.73111 0.783105 0
M  V30 6575 H 618.066 2.1646 3.2261 0
M  V30 6576 H 619.738 4.28594 1.70602 0
M  V30 6577 H 617.981 4.05559 1.53963 0
M  V30 6578 H 618.652 4.57501 3.08863 0
M  V30 6579 H 621.128 2.65175 3.20658 0
M  V30 6580 H 620.004 3.14434 4.49914 0
M  V30 6581 H 620.265 1.43666 4.18106 0
M  V30 6582 N 619.324 -0.923095 1.27737 0
M  V30 6583 C 620.272 -2.04567 1.10703 0
M  V30 6584 C 621.266 -1.69375 0.0288445 0
M  V30 6585 O 622.472 -1.79027 0.186913 0
M  V30 6586 H 618.847 -0.670109 0.34126 0
M  V30 6587 H 620.818 -2.1608 2.05796 0
M  V30 6588 C 619.567 -3.38934 0.775837 0
M  V30 6589 H 618.89 -3.66501 1.59741 0
M  V30 6590 H 620.33 -4.18239 0.696548 0
M  V30 6591 C 618.789 -3.32863 -0.520012 0
M  V30 6592 O 619.319 -3.70462 -1.55308 0
M  V30 6593 N 617.525 -2.85958 -0.51732 0
M  V30 6594 H 617.072 -2.55557 0.32379 0
M  V30 6595 H 617.03 -2.82279 -1.38441 0
M  V30 6596 N 620.802 -1.09834 -1.13024 0
M  V30 6597 C 622.027 -0.85909 -1.88771 0
M  V30 6598 C 622.452 0.584402 -1.78791 0
M  V30 6599 O 621.81 1.41101 -1.13842 0
M  V30 6600 C 621.858 -1.30427 -3.36186 0
M  V30 6601 O 620.962 -0.465368 -4.09766 0
M  V30 6602 H 620.303 -0.310786 -0.586778 0
M  V30 6603 H 622.833 -1.46355 -1.42973 0
M  V30 6604 H 622.843 -1.2915 -3.8702 0
M  V30 6605 H 621.518 -2.3555 -3.42767 0
M  V30 6606 H 620.095 -0.542814 -3.68928 0
M  V30 6607 N 622.28 1.30327 -0.886154 0
M  V30 6608 C 623.243 2.26376 -0.358687 0
M  V30 6609 C 624.243 1.52845 0.499498 0
M  V30 6610 O 625.433 1.71483 0.306485 0
M  V30 6611 C 622.565 3.37379 0.488726 0
M  V30 6612 H 623.758 2.74547 -1.20681 0
M  V30 6613 H 621.311 1.41536 -0.663113 0
M  V30 6614 H 622.046 2.94526 1.35739 0
M  V30 6615 H 621.831 3.91897 -0.126003 0
M  V30 6616 H 623.321 4.08868 0.84952 0
M  V30 6617 N 623.758 0.647228 1.43697 0
M  V30 6618 C 625.006 0.157876 2.01482 0
M  V30 6619 C 625.327 -1.23039 1.51282 0
M  V30 6620 O 624.597 -1.82071 0.722982 0
M  V30 6621 H 623.177 0.0553745 0.744945 0
M  V30 6622 H 625.839 0.83755 1.75986 0
M  V30 6623 H 624.935 0.137895 3.11795 0
M  V30 6624 N 625.236 -1.5273 0.388769 0
M  V30 6625 C 626.461 -2.0647 -0.19621 0
M  V30 6626 C 626.886 -1.25865 -1.39784 0
M  V30 6627 O 626.244 -0.283562 -1.79069 0
M  V30 6628 C 626.292 -3.56456 -0.5451 0
M  V30 6629 O 625.396 -3.78426 -1.63912 0
M  V30 6630 H 624.737 -0.663599 -0.023067 0
M  V30 6631 H 627.267 -1.96898 0.556084 0
M  V30 6632 H 627.277 -3.99888 -0.809557 0
M  V30 6633 H 625.952 -4.14561 0.333417 0
M  V30 6634 H 624.529 -3.46884 -1.36842 0
M  V30 6635 N 626.714 -0.118576 -1.57153 0
M  V30 6636 C 628.125 0.40687 -1.82213 0
M  V30 6637 C 628.476 1.66636 -1.03571 0
M  V30 6638 O 627.601 2.14682 -0.272171 0
M  V30 6639 C 628.196 0.744949 -3.30509 0
M  V30 6640 C 626.755 1.21503 -3.5625 0
M  V30 6641 C 625.902 0.223511 -2.76398 0
M  V30 6642 H 628.853 -0.343712 -1.54933 0
M  V30 6643 H 628.874 1.6024 -3.45114 0
M  V30 6644 H 628.386 -0.171911 -3.87719 0
M  V30 6645 H 626.487 2.1488 -3.04396 0
M  V30 6646 H 626.6 1.16065 -4.64829 0
M  V30 6647 H 624.964 0.71046 -2.44591 0
M  V30 6648 H 625.747 -0.686439 -3.36367 0
M  V30 6649 N 628.193 1.56834 0.155195 0
M  V30 6650 C 629.103 2.009 1.21146 0
M  V30 6651 C 630.119 0.923029 1.475 0
M  V30 6652 O 631.295 1.23189 1.59331 0
M  V30 6653 C 628.36 2.37378 2.52691 0
M  V30 6654 C 627.421 3.59883 2.34057 0
M  V30 6655 C 626.654 3.94612 3.59329 0
M  V30 6656 O 626.877 3.30104 4.65175 0
M  V30 6657 O 625.811 4.87895 3.52479 0
M  V30 6658 H 629.637 2.9105 0.867371 0
M  V30 6659 H 627.222 1.44916 0.363298 0
M  V30 6660 H 629.104 2.61737 3.3026 0
M  V30 6661 H 627.779 1.50385 2.86646 0
M  V30 6662 H 626.686 3.40722 1.54465 0
M  V30 6663 H 628.019 4.47468 2.0502 0
M  V30 6664 N 629.671 -0.424282 1.51781 0
M  V30 6665 C 630.896 -1.19928 1.6921 0
M  V30 6666 C 631.321 -1.8392 0.394355 0
M  V30 6667 O 630.679 -1.69371 -0.646778 0
M  V30 6668 C 630.727 -2.24937 2.81843 0
M  V30 6669 O 629.831 -3.3073 2.46356 0
M  V30 6670 H 629.172 -0.35078 0.563781 0
M  V30 6671 H 631.702 -0.499401 1.98412 0
M  V30 6672 H 631.712 -2.69512 3.06312 0
M  V30 6673 H 630.387 -1.77742 3.76006 0
M  V30 6674 H 628.964 -2.9154 2.32505 0
M  V30 6675 N 631.149 -1.42148 -0.680565 0
M  V30 6676 C 632.112 -1.4488 -1.77602 0
M  V30 6677 C 633.112 -0.337209 -1.57224 0
M  V30 6678 O 634.302 -0.597778 -1.63622 0
M  V30 6679 C 631.434 -1.27483 -3.16166 0
M  V30 6680 H 632.627 -2.42412 -1.76568 0
M  V30 6681 H 630.18 -1.28511 -0.889645 0
M  V30 6682 H 630.915 -0.30851 -3.22829 0
M  V30 6683 H 630.7 -2.08037 -3.3236 0
M  V30 6684 H 632.19 -1.32265 -3.96101 0
M  V30 6685 N 632.627 0.916307 -1.28225 0
M  V30 6686 C 634.038 1.48024 -1.13779 0
M  V30 6687 C 634.389 1.94289 0.273139 0
M  V30 6688 O 633.514 1.82226 1.16716 0
M  V30 6689 C 634.109 2.69029 -2.05935 0
M  V30 6690 C 632.668 3.2161 -1.95561 0
M  V30 6691 C 631.815 1.94321 -1.97825 0
M  V30 6692 H 634.766 0.729272 -1.40951 0
M  V30 6693 H 634.787 3.44204 -1.62184 0
M  V30 6694 H 634.299 2.35325 -3.08616 0
M  V30 6695 H 632.4 3.60045 -0.959076 0
M  V30 6696 H 632.513 3.87032 -2.82388 0
M  V30 6697 H 630.877 2.1131 -1.42198 0
M  V30 6698 H 631.66 1.62917 -3.0218 0
M  V30 6699 N 634.105 1.10431 1.1244 0
M  V30 6700 C 635.035 0.775143 2.20258 0
M  V30 6701 C 636.016 -0.25186 1.68225 0
M  V30 6702 O 637.201 -0.117637 1.93843 0
M  V30 6703 C 634.331 0.206133 3.46688 0
M  V30 6704 C 633.285 1.16382 4.11873 0
M  V30 6705 C 632.611 0.456014 5.32752 0
M  V30 6706 C 633.911 2.5104 4.58013 0
M  V30 6707 H 635.605 1.67665 2.4805 0
M  V30 6708 H 633.151 0.807595 1.19222 0
M  V30 6709 H 635.104 -0.036291 4.21384 0
M  V30 6710 H 633.828 -0.730614 3.18323 0
M  V30 6711 H 632.487 1.39169 3.39157 0
M  V30 6712 H 632.135 -0.485203 5.00654 0
M  V30 6713 H 631.835 1.09466 5.77314 0
M  V30 6714 H 633.359 0.222135 6.10196 0
M  V30 6715 H 634.773 2.32401 5.24083 0
M  V30 6716 H 633.17 3.10789 5.13352 0
M  V30 6717 H 634.24 3.11039 3.71998 0
M  V30 6718 N 635.583 -1.29855 0.893053 0
M  V30 6719 C 636.831 -1.9544 0.514566 0
M  V30 6720 C 637.152 -1.70795 -0.940959 0
M  V30 6721 O 636.422 -1.03601 -1.66264 0
M  V30 6722 H 635.002 -0.723137 0.187302 0
M  V30 6723 H 637.664 -1.58234 1.13789 0
M  V30 6724 H 636.76 -3.04341 0.691581 0
M  V30 6725 N 637.061 -0.65484 -1.43351 0
M  V30 6726 C 638.472 -0.248506 -1.85039 0
M  V30 6727 C 638.823 1.20526 -1.54816 0
M  V30 6728 O 637.948 1.92016 -0.99794 0
M  V30 6729 C 638.543 -0.444241 -3.35875 0
M  V30 6730 C 637.102 -0.0922108 -3.76287 0
M  V30 6731 C 636.249 -0.746327 -2.67068 0
M  V30 6732 H 639.2 -0.8584 -1.33481 0
M  V30 6733 H 639.221 0.309762 -3.79237 0
M  V30 6734 H 638.733 -1.50239 -3.5784 0
M  V30 6735 H 636.834 0.96328 -3.59933 0
M  V30 6736 H 636.947 -0.518807 -4.76283 0
M  V30 6737 H 635.311 -0.179416 -2.54067 0
M  V30 6738 H 636.094 -1.80754 -2.91861 0
M  V30 6739 N 638.539 1.52521 -0.396863 0
M  V30 6740 C 639.955 1.5953 -0.0471659 0
M  V30 6741 C 640.155 1.41044 1.43906 0
M  V30 6742 O 639.211 1.23122 2.20448 0
M  V30 6743 C 640.524 2.95972 -0.531113 0
M  V30 6744 C 642.072 3.09172 -0.488024 0
M  V30 6745 C 642.547 4.48075 -0.948281 0
M  V30 6746 N 644.038 4.54281 -0.9046 0
M  V30 6747 C 644.773 5.60007 -1.23205 0
M  V30 6748 N 644.269 6.73343 -1.63036 0
M  V30 6749 N 646.062 5.50151 -1.15282 0
M  V30 6750 H 638.213 1.62786 -1.36435 0
M  V30 6751 H 640.476 0.76514 -0.559701 0
M  V30 6752 H 640.182 3.14741 -1.56942 0
M  V30 6753 H 640.056 3.77143 0.0657922 0
M  V30 6754 H 642.443 2.90095 0.541211 0
M  V30 6755 H 642.524 2.29937 -1.12083 0
M  V30 6756 H 642.168 4.67894 -1.97578 0
M  V30 6757 H 642.098 5.25788 -0.292412 0
M  V30 6758 H 644.589 3.72918 -0.6116 0
M  V30 6759 H 644.902 7.49992 -1.86365 0
M  V30 6760 H 643.247 6.74655 -1.66929 0
M  V30 6761 H 646.438 4.6049 -0.840602 0
M  V30 6762 H 646.611 6.32444 -1.41133 0
M  V30 6763 N 640.017 0.126909 1.57088 0
M  V30 6764 C 640.947 -0.816847 2.18746 0
M  V30 6765 C 641.928 -1.27161 1.12979 0
M  V30 6766 O 643.113 -1.33279 1.41246 0
M  V30 6767 C 640.243 -2.06398 2.79315 0
M  V30 6768 C 639.197 -1.74673 3.90735 0
M  V30 6769 C 638.523 -3.06482 4.38147 0
M  V30 6770 C 639.823 -1.0089 5.12463 0
M  V30 6771 H 641.517 -0.303032 2.97863 0
M  V30 6772 H 639.063 -0.144314 1.43275 0
M  V30 6773 H 641.016 -2.72885 3.2111 0
M  V30 6774 H 639.74 -2.60118 1.975 0
M  V30 6775 H 638.399 -1.10572 3.49527 0
M  V30 6776 H 638.047 -3.58152 3.5318 0
M  V30 6777 H 637.747 -2.86025 5.13287 0
M  V30 6778 H 639.271 -3.74073 4.82599 0
M  V30 6779 H 640.685 -1.57546 5.51228 0
M  V30 6780 H 639.082 -0.905006 5.93237 0
M  V30 6781 H 640.152 0.00297335 4.849 0
M  V30 6782 N 641.495 -1.56914 -0.146875 0
M  V30 6783 C 642.425 -2.01308 -1.1831 0
M  V30 6784 C 643.406 -0.892664 -1.44795 0
M  V30 6785 O 644.591 -1.16048 -1.55713 0
M  V30 6786 C 641.721 -2.3938 -2.51624 0
M  V30 6787 C 640.675 -3.54608 -2.3966 0
M  V30 6788 C 640.001 -3.78493 -3.77686 0
M  V30 6789 C 641.301 -4.87269 -1.88058 0
M  V30 6790 H 642.995 -2.88123 -0.813964 0
M  V30 6791 H 640.541 -1.38615 -0.3901 0
M  V30 6792 H 642.494 -2.69037 -3.24341 0
M  V30 6793 H 641.218 -1.49502 -2.90373 0
M  V30 6794 H 639.877 -3.25116 -1.69396 0
M  V30 6795 H 639.525 -2.85866 -4.13871 0
M  V30 6796 H 639.225 -4.56039 -3.70543 0
M  V30 6797 H 640.749 -4.10576 -4.51951 0
M  V30 6798 H 642.163 -5.15644 -2.50568 0
M  V30 6799 H 640.56 -5.68622 -1.91805 0
M  V30 6800 H 641.63 -4.77634 -0.836277 0
M  V30 6801 N 642.974 0.416227 -1.52004 0
M  V30 6802 C 644.221 1.16383 -1.65714 0
M  V30 6803 C 644.549 1.9068 -0.383594 0
M  V30 6804 O 643.804 1.85174 0.633185 0
M  V30 6805 C 644.103 2.18923 -2.82502 0
M  V30 6806 C 643.769 1.61485 -4.20991 0
M  V30 6807 C 642.431 1.45545 -4.58661 0
M  V30 6808 C 644.783 1.19468 -5.07323 0
M  V30 6809 C 642.111 0.860937 -5.80349 0
M  V30 6810 C 644.463 0.614386 -6.29609 0
M  V30 6811 C 643.127 0.442056 -6.66035 0
M  V30 6812 H 642.397 0.425875 -0.606392 0
M  V30 6813 H 645.044 0.45199 -1.8609 0
M  V30 6814 H 643.349 2.96225 -2.56433 0
M  V30 6815 H 645.046 2.76628 -2.90307 0
M  V30 6816 H 641.636 1.74873 -3.91302 0
M  V30 6817 H 645.82 1.30596 -4.78809 0
M  V30 6818 H 641.076 0.715372 -6.072 0
M  V30 6819 H 645.25 0.280393 -6.95835 0
M  V30 6820 H 642.877 -0.0207218 -7.60197 0
M  V30 6821 N 644.452 1.42507 0.673017 0
M  V30 6822 C 645.7 1.42789 1.43023 0
M  V30 6823 C 646.021 0.0459738 1.94946 0
M  V30 6824 O 645.291 -0.915765 1.73178 0
M  V30 6825 H 643.871 0.525657 0.530748 0
M  V30 6826 H 646.533 1.77944 0.795113 0
M  V30 6827 H 645.629 2.12872 2.28237 0
M  V30 6828 N 645.93 -0.909495 1.28709 0
M  V30 6829 C 647.155 -1.69801 1.1909 0
M  V30 6830 C 647.58 -1.86479 -0.246388 0
M  V30 6831 O 646.938 -1.37802 -1.17815 0
M  V30 6832 C 646.986 -3.06543 1.89904 0
M  V30 6833 O 646.09 -3.94268 1.2094 0
M  V30 6834 H 645.431 -0.519783 0.413185 0
M  V30 6835 H 647.961 -1.13689 1.70106 0
M  V30 6836 H 647.971 -3.56748 1.97977 0
M  V30 6837 H 646.646 -2.93722 2.94449 0
M  V30 6838 H 645.223 -3.52702 1.2106 0
M  V30 6839 N 647.408 -1.11026 -1.11852 0
M  V30 6840 C 648.656 -0.854769 -1.83134 0
M  V30 6841 C 648.977 0.621375 -1.84835 0
M  V30 6842 O 648.247 1.45129 -1.31584 0
M  V30 6843 H 646.827 -0.313229 -0.678157 0
M  V30 6844 H 649.489 -1.40178 -1.35411 0
M  V30 6845 H 648.585 -1.22311 -2.87135 0
M  V30 6846 N 648.886 1.2938 -0.899927 0
M  V30 6847 C 650.111 2.00228 -0.540692 0
M  V30 6848 C 650.536 1.66909 0.867359 0
M  V30 6849 O 649.894 0.893824 1.57735 0
M  V30 6850 C 649.942 3.52921 -0.740232 0
M  V30 6851 O 649.046 4.11879 0.207154 0
M  V30 6852 H 648.387 0.629505 -0.211233 0
M  V30 6853 H 650.917 1.6487 -1.21158 0
M  V30 6854 H 650.927 4.0287 -0.644973 0
M  V30 6855 H 649.602 3.76508 -1.76677 0
M  V30 6856 H 648.179 3.72845 0.0643315 0
M  V30 6857 N 650.364 0.662433 1.43002 0
M  V30 6858 C 651.311 -0.0235324 2.30788 0
M  V30 6859 C 652.281 -0.805342 1.4527 0
M  V30 6860 O 653.466 -0.78009 1.74124 0
M  V30 6861 C 650.606 -0.977545 3.30965 0
M  V30 6862 C 649.719 -0.190865 4.31578 0
M  V30 6863 C 648.854 -1.13951 5.18834 0
M  V30 6864 C 647.893 -0.343796 6.11134 0
M  V30 6865 N 647.03 -1.2445 6.90982 0
M  V30 6866 H 651.87 0.730921 2.88897 0
M  V30 6867 H 649.407 0.372197 1.42313 0
M  V30 6868 H 651.365 -1.54437 3.87563 0
M  V30 6869 H 649.995 -1.69877 2.74484 0
M  V30 6870 H 649.047 0.492388 3.772 0
M  V30 6871 H 650.359 0.427464 4.96965 0
M  V30 6872 H 649.513 -1.77666 5.80103 0
M  V30 6873 H 648.252 -1.79174 4.53595 0
M  V30 6874 H 647.257 0.30665 5.48944 0
M  V30 6875 H 648.482 0.304161 6.78419 0
M  V30 6876 H 646.428 -1.88336 6.28383 0
M  V30 6877 H 646.345 -0.680959 7.52927 0
M  V30 6878 H 647.613 -1.86952 7.56749 0
M  V30 6879 N 651.842 -1.52309 0.404946 0
M  V30 6880 C 653.09 -2.01368 -0.17186 0
M  V30 6881 C 653.411 -1.29261 -1.46002 0
M  V30 6882 O 652.681 -0.41729 -1.91404 0
M  V30 6883 H 651.261 -0.744034 -0.0664993 0
M  V30 6884 H 653.923 -1.87263 0.540228 0
M  V30 6885 H 653.019 -3.09888 -0.370957 0
M  V30 6886 N 653.32 -0.135238 -1.57019 0
M  V30 6887 C 654.545 0.529343 -2.00531 0
M  V30 6888 C 654.97 1.58391 -1.01459 0
M  V30 6889 O 654.328 1.81296 0.0113986 0
M  V30 6890 C 654.376 1.11748 -3.42848 0
M  V30 6891 O 653.48 2.23267 -3.46736 0
M  V30 6892 H 652.821 0.130669 -0.651016 0
M  V30 6893 H 655.351 -0.228503 -2.0332 0
M  V30 6894 H 655.361 1.44905 -3.81401 0
M  V30 6895 H 654.036 0.345147 -4.14465 0
M  V30 6896 H 652.613 1.91428 -3.20015 0
M  V30 6897 N 654.798 1.5699 0.138552 0
M  V30 6898 C 656.214 1.51844 0.491472 0
M  V30 6899 C 656.414 0.845063 1.82923 0
M  V30 6900 O 655.47 0.419143 2.48997 0
M  V30 6901 C 656.783 2.96615 0.493987 0
M  V30 6902 C 658.331 3.076 0.578913 0
M  V30 6903 C 658.806 4.53893 0.612009 0
M  V30 6904 N 660.297 4.5827 0.673997 0
M  V30 6905 C 661.032 5.68852 0.720729 0
M  V30 6906 N 660.528 6.88982 0.726292 0
M  V30 6907 N 662.321 5.56908 0.762253 0
M  V30 6908 H 654.472 1.99158 -0.738228 0
M  V30 6909 H 656.735 0.908693 -0.270149 0
M  V30 6910 H 656.441 3.49172 -0.420933 0
M  V30 6911 H 656.315 3.53017 1.32887 0
M  V30 6912 H 658.702 2.55057 1.48425 0
M  V30 6913 H 658.783 2.54227 -0.283286 0
M  V30 6914 H 658.427 5.07076 -0.289208 0
M  V30 6915 H 658.357 5.05057 1.49082 0
M  V30 6916 H 660.848 3.71793 0.676654 0
M  V30 6917 H 661.161 7.69014 0.764032 0
M  V30 6918 H 659.506 6.91526 0.69403 0
M  V30 6919 H 662.697 4.61969 0.755135 0
M  V30 6920 H 662.87 6.43102 0.795207 0
M  V30 6921 N 656.276 -0.40816 1.52223 0
M  V30 6922 C 657.501 -1.18127 1.70472 0
M  V30 6923 C 657.926 -1.83491 0.41384 0
M  V30 6924 O 657.284 -1.70047 -0.628778 0
M  V30 6925 C 657.332 -2.21935 2.84213 0
M  V30 6926 O 656.436 -3.28099 2.4985 0
M  V30 6927 H 655.777 -0.344781 0.56747 0
M  V30 6928 H 658.307 -0.478328 1.9893 0
M  V30 6929 H 658.317 -2.66248 3.09153 0
M  V30 6930 H 656.992 -1.73744 3.7787 0
M  V30 6931 H 655.569 -2.89058 2.35584 0
M  V30 6932 N 657.755 -1.42862 -0.66545 0
M  V30 6933 C 659.001 -1.4504 -1.426 0
M  V30 6934 C 659.356 -0.0690217 -1.92276 0
M  V30 6935 O 658.649 0.91036 -1.68591 0
M  V30 6936 C 658.843 -2.4175 -2.63233 0
M  V30 6937 C 658.672 -3.89155 -2.25362 0
M  V30 6938 C 657.442 -4.57619 -2.14273 0
M  V30 6939 C 659.64 -4.79326 -1.86417 0
M  V30 6940 N 657.622 -5.90006 -1.69604 0
M  V30 6941 C 658.993 -6.00892 -1.52738 0
M  V30 6942 C 661.048 -4.66696 -1.73492 0
M  V30 6943 C 659.751 -7.11232 -1.0743 0
M  V30 6944 C 661.777 -5.77027 -1.29589 0
M  V30 6945 C 661.139 -6.97712 -0.968393 0
M  V30 6946 H 657.238 -0.585889 -0.517936 0
M  V30 6947 H 659.822 -1.78956 -0.767002 0
M  V30 6948 H 657.993 -2.09881 -3.26809 0
M  V30 6949 H 659.725 -2.34447 -3.29874 0
M  V30 6950 H 656.48 -4.11957 -2.33641 0
M  V30 6951 H 656.904 -6.60249 -1.49666 0
M  V30 6952 H 661.546 -3.7386 -1.97455 0
M  V30 6953 H 659.264 -8.03907 -0.822147 0
M  V30 6954 H 662.85 -5.6927 -1.20095 0
M  V30 6955 H 661.73 -7.81634 -0.63384 0
M  V30 6956 N 659.233 0.902656 -1.29189 0
M  V30 6957 C 660.481 1.6496 -1.16758 0
M  V30 6958 C 660.802 1.92952 0.28188 0
M  V30 6959 O 660.072 1.55351 1.19344 0
M  V30 6960 H 658.652 0.611447 -0.429118 0
M  V30 6961 H 661.314 1.0825 -1.62074 0
M  V30 6962 H 660.41 2.60728 -1.71544 0
M  V30 6963 N 660.711 1.11618 1.11262 0
M  V30 6964 C 662.127 0.850468 1.35053 0
M  V30 6965 C 662.327 -0.523868 1.94571 0
M  V30 6966 O 661.383 -1.2743 2.17986 0
M  V30 6967 C 662.696 1.96005 2.28041 0
M  V30 6968 C 664.244 1.98993 2.416 0
M  V30 6969 C 664.719 3.0916 3.37911 0
M  V30 6970 N 666.21 3.08547 3.45475 0
M  V30 6971 C 666.945 3.9043 4.19943 0
M  V30 6972 N 666.441 4.8228 4.97371 0
M  V30 6973 N 668.234 3.786 4.15474 0
M  V30 6974 H 660.385 2.00184 0.709932 0
M  V30 6975 H 662.648 0.870635 0.375099 0
M  V30 6976 H 662.354 2.9499 1.91503 0
M  V30 6977 H 662.228 1.85782 3.28275 0
M  V30 6978 H 664.615 1.00633 2.77411 0
M  V30 6979 H 664.696 2.13292 1.4121 0
M  V30 6980 H 664.34 4.07748 3.02827 0
M  V30 6981 H 664.27 2.92102 4.3816 0
M  V30 6982 H 666.761 2.42 2.90249 0
M  V30 6983 H 667.074 5.41289 5.51567 0
M  V30 6984 H 665.419 4.863 4.96525 0
M  V30 6985 H 668.61 3.06185 3.54074 0
M  V30 6986 H 668.783 4.42647 4.73253 0
M  V30 6987 N 662.189 -1.289 0.906776 0
M  V30 6988 C 663.437 -1.94883 0.535266 0
M  V30 6989 C 663.758 -1.71784 -0.922791 0
M  V30 6990 O 663.028 -1.05359 -1.65156 0
M  V30 6991 H 661.608 -0.721109 0.194962 0
M  V30 6992 H 664.27 -1.57018 1.15461 0
M  V30 6993 H 663.366 -3.03591 0.723821 0
M  V30 6994 N 663.667 -0.670007 -1.42649 0
M  V30 6995 C 664.915 -0.18991 -2.01206 0
M  V30 6996 C 665.236 1.20617 -1.53221 0
M  V30 6997 O 664.506 1.80898 -0.751856 0
M  V30 6998 H 663.086 -0.0672189 -0.743969 0
M  V30 6999 H 665.748 -0.865442 -1.74631 0
M  V30 7000 H 664.844 -0.187481 -3.11536 0
M  V30 7001 N 665.145 1.52092 -0.413018 0
M  V30 7002 C 666.373 2.06274 0.160881 0
M  V30 7003 C 666.788 1.28273 1.38533 0
M  V30 7004 O 666.145 0.33563 1.79387 0
M  V30 7005 C 666.196 3.57921 0.507443 0
M  V30 7006 O 665.917 4.32971 -0.668388 0
M  V30 7007 C 667.418 4.28533 1.13465 0
M  V30 7008 H 664.638 0.67074 0.0186759 0
M  V30 7009 H 667.182 1.95951 -0.585092 0
M  V30 7010 H 665.337 3.68238 1.20331 0
M  V30 7011 H 665.751 5.23135 -0.378169 0
M  V30 7012 H 667.225 5.35804 1.32732 0
M  V30 7013 H 667.702 3.85258 2.10886 0
M  V30 7014 H 668.308 4.22595 0.478876 0
M  V30 7015 N 666.623 0.143563 1.56945 0
M  V30 7016 C 667.851 -0.515447 2.00377 0
M  V30 7017 C 668.266 -1.58643 1.02361 0
M  V30 7018 O 667.623 -1.82489 0.0201039 0
M  V30 7019 C 667.674 -1.11923 3.43737 0
M  V30 7020 O 667.395 -0.0910318 4.38005 0
M  V30 7021 C 668.896 -1.85918 4.02429 0
M  V30 7022 H 666.116 -0.134478 0.657386 0
M  V30 7023 H 668.66 0.237135 2.0312 0
M  V30 7024 H 666.815 -1.82245 3.41856 0
M  V30 7025 H 667.229 -0.532916 5.21786 0
M  V30 7026 H 668.703 -2.2346 5.04747 0
M  V30 7027 H 669.18 -2.7438 3.42947 0
M  V30 7028 H 669.786 -1.20303 4.07931 0
M  V30 7029 N 668.101 -1.57061 -0.130224 0
M  V30 7030 C 669.517 -1.52103 -0.483413 0
M  V30 7031 C 669.717 -0.854752 -1.82473 0
M  V30 7032 O 668.773 -0.432342 -2.48771 0
M  V30 7033 C 670.086 -2.96872 -0.47825 0
M  V30 7034 C 671.634 -3.07902 -0.562592 0
M  V30 7035 C 672.109 -4.54211 -0.587929 0
M  V30 7036 N 673.6 -4.58621 -0.649684 0
M  V30 7037 C 674.335 -5.69227 -0.690551 0
M  V30 7038 N 673.831 -6.89358 -0.689743 0
M  V30 7039 N 675.624 -5.57304 -0.732708 0
M  V30 7040 H 667.775 -1.98764 0.748779 0
M  V30 7041 H 670.038 -0.907248 0.274965 0
M  V30 7042 H 669.744 -3.48944 0.439444 0
M  V30 7043 H 669.618 -3.53716 -1.31013 0
M  V30 7044 H 672.005 -2.5584 -1.47071 0
M  V30 7045 H 672.086 -2.54073 0.296764 0
M  V30 7046 H 671.73 -5.06915 0.316096 0
M  V30 7047 H 671.66 -5.0584 -1.46401 0
M  V30 7048 H 674.151 -3.72146 -0.656927 0
M  V30 7049 H 674.464 -7.69408 -0.723239 0
M  V30 7050 H 672.809 -6.91884 -0.657347 0
M  V30 7051 H 676 -4.62363 -0.730625 0
M  V30 7052 H 676.173 -6.43515 -0.76109 0
M  V30 7053 N 669.579 0.400081 -1.52437 0
M  V30 7054 C 670.995 0.739359 -1.41441 0
M  V30 7055 C 671.195 1.94512 -0.526053 0
M  V30 7056 O 670.251 2.525 0.00472502 0
M  V30 7057 C 671.564 0.984824 -2.84116 0
M  V30 7058 C 673.112 1.08698 -2.93519 0
M  V30 7059 C 673.587 1.36515 -4.37181 0
M  V30 7060 N 675.078 1.43361 -4.40457 0
M  V30 7061 C 675.813 1.66528 -5.48686 0
M  V30 7062 N 675.309 1.87239 -6.67018 0
M  V30 7063 N 677.102 1.68617 -5.36213 0
M  V30 7064 H 669.253 -0.393484 -2.08723 0
M  V30 7065 H 671.516 -0.1138 -0.941145 0
M  V30 7066 H 671.222 0.171096 -3.51284 0
M  V30 7067 H 671.096 1.90253 -3.25705 0
M  V30 7068 H 673.483 1.89129 -2.26526 0
M  V30 7069 H 673.564 0.147432 -2.55375 0
M  V30 7070 H 673.208 0.565982 -5.04737 0
M  V30 7071 H 673.138 2.31737 -4.7287 0
M  V30 7072 H 675.629 1.29108 -3.55161 0
M  V30 7073 H 675.942 2.04392 -7.45281 0
M  V30 7074 H 674.287 1.84486 -6.70067 0
M  V30 7075 H 677.478 1.5198 -4.42741 0
M  V30 7076 H 677.651 1.86332 -6.20632 0
M  V30 7077 N 671.057 1.43213 0.657864 0
M  V30 7078 C 671.987 1.50815 1.78262 0
M  V30 7079 C 672.968 0.363211 1.66177 0
M  V30 7080 O 674.153 0.579806 1.85343 0
M  V30 7081 C 671.283 1.42625 3.16663 0
M  V30 7082 C 670.237 2.5532 3.43505 0
M  V30 7083 C 669.563 2.32184 4.81658 0
M  V30 7084 C 670.863 3.97583 3.38711 0
M  V30 7085 H 672.557 2.44954 1.72157 0
M  V30 7086 H 670.103 1.17896 0.82683 0
M  V30 7087 H 672.056 1.46548 3.95097 0
M  V30 7088 H 670.78 0.449877 3.23487 0
M  V30 7089 H 669.439 2.50742 2.6744 0
M  V30 7090 H 669.087 1.32801 4.85153 0
M  V30 7091 H 668.787 3.07724 5.00579 0
M  V30 7092 H 670.311 2.37883 5.62356 0
M  V30 7093 H 671.725 4.03673 4.07089 0
M  V30 7094 H 670.122 4.73112 3.69168 0
M  V30 7095 H 671.192 4.23049 2.36976 0
M  V30 7096 N 672.536 -0.895792 1.29666 0
M  V30 7097 C 673.782 -1.64921 1.19049 0
M  V30 7098 C 674.137 -1.90707 -0.254678 0
M  V30 7099 O 673.43 -1.5092 -1.18041 0
M  V30 7100 C 673.624 -3.00075 1.94139 0
M  V30 7101 C 673.453 -2.87482 3.4581 0
M  V30 7102 C 672.223 -2.88041 4.15163 0
M  V30 7103 C 674.421 -2.64224 4.41237 0
M  V30 7104 N 672.403 -2.66226 5.5317 0
M  V30 7105 C 673.774 -2.51427 5.66732 0
M  V30 7106 C 675.829 -2.49362 4.30956 0
M  V30 7107 C 674.532 -2.25281 6.83111 0
M  V30 7108 C 676.558 -2.246 5.47091 0
M  V30 7109 C 675.92 -2.12571 6.7156 0
M  V30 7110 H 672.019 -0.608926 0.490646 0
M  V30 7111 H 674.603 -1.05648 1.63544 0
M  V30 7112 H 672.774 -3.574 1.52052 0
M  V30 7113 H 674.506 -3.64544 1.75754 0
M  V30 7114 H 671.261 -2.99471 3.66898 0
M  V30 7115 H 671.685 -2.58361 6.25762 0
M  V30 7116 H 676.327 -2.57403 3.35415 0
M  V30 7117 H 674.045 -2.15978 7.78704 0
M  V30 7118 H 677.631 -2.13939 5.41037 0
M  V30 7119 H 676.511 -1.93676 7.59907 0
M  V30 7120 N 674.014 -1.12206 -1.10668 0
M  V30 7121 C 675.291 -0.787382 -1.79052 0
M  V30 7122 C 675.671 0.723267 -1.98323 0
M  V30 7123 O 675.019 1.6561 -1.57434 0
M  V30 7124 C 675.229 -1.55968 -3.1221 0
M  V30 7125 C 676.577 -1.74413 -3.87125 0
M  V30 7126 O 677.601 -1.5246 -3.21923 0
M  V30 7127 O 676.46 -2.10952 -5.04144 0
M  V30 7128 H 673.554 -0.286137 -0.775922 0
M  V30 7129 H 676.1 -1.22595 -1.1734 0
M  V30 7130 H 674.872 -2.58692 -2.93588 0
M  V30 7131 H 674.495 -1.1152 -3.8164 0
M  V30 7132 N 675.492 1.28418 -0.913599 0
M  V30 7133 C 676.903 1.77024 -0.593237 0
M  V30 7134 C 677.254 1.74779 0.891441 0
M  V30 7135 O 676.379 1.34237 1.69733 0
M  V30 7136 C 676.974 3.21456 -1.07011 0
M  V30 7137 C 675.533 3.67786 -0.800664 0
M  V30 7138 C 674.68 2.48185 -1.23691 0
M  V30 7139 H 677.631 1.14883 -1.09487 0
M  V30 7140 H 677.652 3.78269 -0.411481 0
M  V30 7141 H 677.164 3.23058 -2.1507 0
M  V30 7142 H 675.265 3.71644 0.266725 0
M  V30 7143 H 675.378 4.57934 -1.4083 0
M  V30 7144 H 673.742 2.46116 -0.655655 0
M  V30 7145 H 674.525 2.52506 -2.32585 0
M  V30 7146 N 676.97 0.677563 1.42291 0
M  V30 7147 C 677.918 -0.0106755 2.32598 0
M  V30 7148 C 678.912 -0.787643 1.49975 0
M  V30 7149 O 680.118 -0.695295 1.66029 0
M  V30 7150 H 676.493 -0.0222482 0.751671 0
M  V30 7151 H 678.464 0.768312 2.88339 0
M  V30 7152 C 677.213 -0.946142 3.3458 0
M  V30 7153 H 676.536 -0.357701 3.98197 0
M  V30 7154 H 677.976 -1.39634 4.00348 0
M  V30 7155 C 676.435 -2.05383 2.67057 0
M  V30 7156 O 676.965 -3.1406 2.50458 0
M  V30 7157 N 675.171 -1.82635 2.26038 0
M  V30 7158 H 674.718 -0.942534 2.39737 0
M  V30 7159 H 674.676 -2.56937 1.81192 0
M  V30 7160 N 678.448 -1.51871 0.421078 0
M  V30 7161 C 679.396 -2.28903 -0.413066 0
M  V30 7162 C 680.39 -1.3408 -1.03532 0
M  V30 7163 O 681.596 -1.5149 -0.972146 0
M  V30 7164 H 677.971 -0.736478 -0.152003 0
M  V30 7165 H 679.942 -2.97285 0.257695 0
M  V30 7166 C 678.691 -3.13156 -1.51091 0
M  V30 7167 H 678.014 -3.85997 -1.04145 0
M  V30 7168 H 679.454 -3.7014 -2.06814 0
M  V30 7169 C 677.913 -2.27482 -2.48503 0
M  V30 7170 O 678.443 -1.92325 -3.52667 0
M  V30 7171 N 676.649 -1.91019 -2.18998 0
M  V30 7172 H 676.196 -2.19808 -1.34322 0
M  V30 7173 H 676.154 -1.3399 -2.84419 0
M  V30 7174 N 679.926 -0.151884 -1.56866 0
M  V30 7175 C 681.337 0.368128 -1.83035 0
M  V30 7176 C 681.688 1.64402 -1.07082 0
M  V30 7177 O 680.813 2.14056 -0.317647 0
M  V30 7178 C 681.408 0.674676 -3.32014 0
M  V30 7179 C 679.967 1.13919 -3.58747 0
M  V30 7180 C 679.114 0.164833 -2.7681 0
M  V30 7181 H 682.065 -0.376499 -1.54169 0
M  V30 7182 H 682.086 1.52883 -3.48435 0
M  V30 7183 H 681.598 -0.254113 -3.87267 0
M  V30 7184 H 679.699 2.08375 -3.08886 0
M  V30 7185 H 679.812 1.06179 -4.67186 0
M  V30 7186 H 678.176 0.658419 -2.46043 0
M  V30 7187 H 678.959 -0.757633 -3.34836 0
M  V30 7188 N 681.404 1.57128 0.121893 0
M  V30 7189 C 682.681 1.75664 0.860327 0
M  V30 7190 C 683.061 0.726585 1.98202 0
M  V30 7191 O 682.409 -0.24999 2.27128 0
M  V30 7192 C 682.619 3.20571 1.37968 0
M  V30 7193 C 683.967 3.82988 1.83317 0
M  V30 7194 O 684.991 3.24156 1.47654 0
M  V30 7195 O 683.85 4.86393 2.49168 0
M  V30 7196 H 680.944 0.719153 0.408348 0
M  V30 7197 H 683.49 1.6937 0.105859 0
M  V30 7198 H 682.262 3.87056 0.57477 0
M  V30 7199 H 681.885 3.31392 2.19694 0
M  V30 7200 N 682.882 -0.391992 1.52647 0
M  V30 7201 C 683.814 -1.49811 1.73463 0
M  V30 7202 C 684.827 -1.50734 0.615078 0
M  V30 7203 O 686.016 -1.5469 0.890696 0
M  V30 7204 C 683.116 -2.88667 1.77552 0
M  V30 7205 C 682.289 -3.11743 3.06815 0
M  V30 7206 C 681.348 -4.30564 3.02491 0
M  V30 7207 O 680.374 -4.27014 3.76361 0
M  V30 7208 N 681.576 -5.36593 2.21468 0
M  V30 7209 H 684.341 -1.32343 2.68897 0
M  V30 7210 H 681.902 -0.581475 1.51098 0
M  V30 7211 H 683.894 -3.66251 1.7217 0
M  V30 7212 H 682.464 -2.99508 0.895181 0
M  V30 7213 H 681.684 -2.2205 3.25711 0
M  V30 7214 H 682.972 -3.24013 3.92292 0
M  V30 7215 H 682.37 -5.42332 1.60913 0
M  V30 7216 H 680.927 -6.12855 2.21928 0
M  V30 7217 N 684.36 -1.4356 -0.65026 0
M  V30 7218 C 685.307 -1.48948 -1.76304 0
M  V30 7219 C 686.277 -0.338919 -1.62605 0
M  V30 7220 O 687.462 -0.54649 -1.82806 0
M  V30 7221 C 684.602 -1.42131 -3.14472 0
M  V30 7222 C 683.715 -2.67415 -3.39284 0
M  V30 7223 C 682.85 -2.52565 -4.67316 0
M  V30 7224 C 681.889 -3.73103 -4.85243 0
M  V30 7225 N 681.026 -3.57046 -6.04535 0
M  V30 7226 H 685.866 -2.44032 -1.71034 0
M  V30 7227 H 683.403 -1.21131 -0.834601 0
M  V30 7228 H 685.361 -1.36172 -3.94351 0
M  V30 7229 H 683.991 -0.506273 -3.18805 0
M  V30 7230 H 683.043 -2.8364 -2.53481 0
M  V30 7231 H 684.355 -3.56943 -3.48415 0
M  V30 7232 H 683.509 -2.44331 -5.55326 0
M  V30 7233 H 682.248 -1.60566 -4.60511 0
M  V30 7234 H 681.253 -3.81743 -3.95667 0
M  V30 7235 H 682.478 -4.66115 -4.93876 0
M  V30 7236 H 680.424 -2.67783 -5.98856 0
M  V30 7237 H 680.341 -4.40178 -6.14638 0
M  V30 7238 H 681.609 -3.52669 -6.95158 0
M  V30 7239 N 685.838 0.888903 -1.30139 0
M  V30 7240 C 687.249 1.45578 -1.16893 0
M  V30 7241 C 687.6 1.94825 0.231866 0
M  V30 7242 O 686.725 1.84661 1.12824 0
M  V30 7243 C 687.32 2.646 -2.11595 0
M  V30 7244 C 685.879 3.17389 -2.02339 0
M  V30 7245 C 685.026 1.90081 -2.01902 0
M  V30 7246 H 687.977 0.69921 -1.42467 0
M  V30 7247 H 687.998 3.40687 -1.69449 0
M  V30 7248 H 687.51 2.28726 -3.13538 0
M  V30 7249 H 685.611 3.5793 -1.03523 0
M  V30 7250 H 685.724 3.80955 -2.90534 0
M  V30 7251 H 684.088 2.08246 -1.46648 0
M  V30 7252 H 684.871 1.5647 -3.05568 0
M  V30 7253 N 687.317 1.12792 1.10072 0
M  V30 7254 C 688.28 0.802264 2.14701 0
M  V30 7255 C 689.28 -0.18515 1.59731 0
M  V30 7256 O 690.47 0.041109 1.74151 0
M  V30 7257 C 687.602 0.19285 3.40354 0
M  V30 7258 H 688.795 1.72932 2.45019 0
M  V30 7259 H 686.348 0.931662 1.25498 0
M  V30 7260 H 687.083 -0.743748 3.15656 0
M  V30 7261 H 686.868 0.903827 3.81541 0
M  V30 7262 H 688.358 -0.0183704 4.17596 0
M  V30 7263 N 688.795 -1.27931 0.920396 0
M  V30 7264 C 689.725 -2.29487 0.431024 0
M  V30 7265 C 690.706 -1.62435 -0.504861 0
M  V30 7266 O 691.891 -1.89797 -0.411176 0
M  V30 7267 C 689.021 -3.45788 -0.323709 0
M  V30 7268 C 687.975 -4.24784 0.523658 0
M  V30 7269 C 687.301 -5.33488 -0.359809 0
M  V30 7270 C 688.601 -4.90874 1.78437 0
M  V30 7271 H 690.295 -2.70671 1.27975 0
M  V30 7272 H 687.841 -1.30121 0.616813 0
M  V30 7273 H 689.794 -4.15927 -0.676952 0
M  V30 7274 H 688.518 -3.03502 -1.2064 0
M  V30 7275 H 687.177 -3.56382 0.85951 0
M  V30 7276 H 686.825 -4.87445 -1.24124 0
M  V30 7277 H 686.525 -5.87247 0.203605 0
M  V30 7278 H 688.049 -6.06472 -0.708787 0
M  V30 7279 H 689.463 -5.53339 1.49963 0
M  V30 7280 H 687.86 -5.54659 2.29071 0
M  V30 7281 H 688.93 -4.14988 2.50824 0
M  V30 7282 N 690.273 -0.685099 -1.4193 0
M  V30 7283 C 691.22 -0.0131869 -2.30796 0
M  V30 7284 C 692.19 0.782129 -1.46533 0
M  V30 7285 O 693.375 0.75229 -1.75343 0
M  V30 7286 C 690.515 0.924768 -3.32479 0
M  V30 7287 C 689.628 0.122181 -4.31827 0
M  V30 7288 C 688.763 1.05682 -5.20581 0
M  V30 7289 C 687.802 0.246526 -6.11603 0
M  V30 7290 N 686.939 1.13442 -6.92875 0
M  V30 7291 H 691.779 -0.776789 -2.87698 0
M  V30 7292 H 689.316 -0.394791 -1.41703 0
M  V30 7293 H 691.274 1.48251 -3.89971 0
M  V30 7294 H 689.904 1.65488 -2.77152 0
M  V30 7295 H 688.956 -0.552335 -3.76369 0
M  V30 7296 H 690.268 -0.506473 -4.96222 0
M  V30 7297 H 689.422 1.68415 -5.82856 0
M  V30 7298 H 688.161 1.71935 -4.56388 0
M  V30 7299 H 687.166 -0.393944 -5.48387 0
M  V30 7300 H 688.391 -0.412053 -6.77849 0
M  V30 7301 H 686.337 1.78316 -6.313 0
M  V30 7302 H 686.254 0.561089 -7.53915 0
M  V30 7303 H 687.522 1.74889 -7.59628 0
M  V30 7304 N 691.751 1.51645 -0.429126 0
M  V30 7305 C 692.979 2.06433 0.138994 0
M  V30 7306 C 693.394 1.29735 1.37165 0
M  V30 7307 O 692.751 0.354638 1.79021 0
M  V30 7308 C 692.802 3.58439 0.469452 0
M  V30 7309 O 692.523 4.32238 -0.714273 0
M  V30 7310 C 694.024 4.29712 1.08914 0
M  V30 7311 H 691.244 0.6709 0.0115608 0
M  V30 7312 H 693.788 1.9532 -0.605843 0
M  V30 7313 H 691.943 3.69494 1.16419 0
M  V30 7314 H 692.357 5.22704 -0.433633 0
M  V30 7315 H 693.831 5.37182 1.27042 0
M  V30 7316 H 694.308 3.87473 2.06788 0
M  V30 7317 H 694.914 4.2308 0.434028 0
M  V30 7318 N 693.229 0.160201 1.56784 0
M  V30 7319 C 694.161 -0.80564 2.14574 0
M  V30 7320 C 695.174 -1.20154 1.09849 0
M  V30 7321 O 696.363 -1.14333 1.37078 0
M  V30 7322 C 693.463 -2.09434 2.6644 0
M  V30 7323 C 692.636 -1.86375 3.95706 0
M  V30 7324 C 691.695 -2.99358 4.32749 0
M  V30 7325 O 690.721 -2.70475 5.00831 0
M  V30 7326 N 691.923 -4.26867 3.93402 0
M  V30 7327 H 694.688 -0.311644 2.98075 0
M  V30 7328 H 692.249 -0.0229465 1.61884 0
M  V30 7329 H 694.241 -2.84091 2.88226 0
M  V30 7330 H 692.811 -2.50057 1.8759 0
M  V30 7331 H 692.031 -0.956821 3.82412 0
M  V30 7332 H 693.319 -1.68322 4.80151 0
M  V30 7333 H 692.717 -4.53197 3.38569 0
M  V30 7334 H 691.274 -4.98263 4.20211 0
M  V30 7335 N 694.707 -1.5719 -0.113559 0
M  V30 7336 C 695.935 -1.89328 -0.834422 0
M  V30 7337 C 696.35 -0.752018 -1.73177 0
M  V30 7338 O 695.707 0.276912 -1.80387 0
M  V30 7339 C 695.758 -3.20962 -1.66329 0
M  V30 7340 O 695.479 -4.30695 -0.802069 0
M  V30 7341 C 696.98 -3.6684 -2.48884 0
M  V30 7342 H 694.2 -0.626769 -0.239587 0
M  V30 7343 H 696.744 -2.04273 -0.0963195 0
M  V30 7344 H 694.899 -3.0767 -2.35409 0
M  V30 7345 H 695.313 -5.06175 -1.37431 0
M  V30 7346 H 696.787 -4.61692 -3.02563 0
M  V30 7347 H 697.264 -2.93765 -3.26495 0
M  V30 7348 H 697.87 -3.82938 -1.85036 0
M  V30 7349 N 696.185 0.383891 -1.52853 0
M  V30 7350 C 697.596 0.961591 -1.60032 0
M  V30 7351 C 697.947 1.90819 -0.456333 0
M  V30 7352 O 697.072 2.12288 0.419873 0
M  V30 7353 C 697.667 1.75078 -2.90057 0
M  V30 7354 C 696.226 2.2781 -2.99632 0
M  V30 7355 C 695.373 1.08512 -2.55187 0
M  V30 7356 H 698.324 0.163269 -1.57858 0
M  V30 7357 H 698.345 2.61046 -2.7683 0
M  V30 7358 H 697.857 1.06157 -3.73299 0
M  V30 7359 H 695.958 3.00028 -2.20939 0
M  V30 7360 H 696.071 2.56947 -4.0437 0
M  V30 7361 H 694.435 1.44667 -2.09627 0
M  V30 7362 H 695.218 0.41118 -3.40829 0
M  V30 7363 N 697.663 1.43903 0.642637 0
M  V30 7364 C 698.595 1.45857 1.768 0
M  V30 7365 C 699.608 0.353358 1.58919 0
M  V30 7366 O 700.797 0.618426 1.67445 0
M  V30 7367 C 697.897 1.26583 3.14372 0
M  V30 7368 C 697.07 2.50139 3.58817 0
M  V30 7369 C 696.129 2.25933 4.75227 0
M  V30 7370 O 695.155 2.99351 4.84125 0
M  V30 7371 N 696.357 1.28263 5.66153 0
M  V30 7372 H 699.122 2.42869 1.75598 0
M  V30 7373 H 696.683 1.39194 0.826832 0
M  V30 7374 H 698.675 1.08255 3.89953 0
M  V30 7375 H 697.245 0.37978 3.10284 0
M  V30 7376 H 696.465 2.83821 2.73568 0
M  V30 7377 H 697.753 3.32344 3.8526 0
M  V30 7378 H 697.151 0.676041 5.61646 0
M  V30 7379 H 695.708 1.15916 6.4141 0
M  V30 7380 N 699.141 -0.881989 1.30609 0
M  V30 7381 C 700.071 -2.00413 1.1982 0
M  V30 7382 C 701.052 -1.69871 0.0881538 0
M  V30 7383 O 702.237 -1.92304 0.2707 0
M  V30 7384 C 699.367 -3.35641 0.89233 0
M  V30 7385 C 698.321 -3.80451 1.96064 0
M  V30 7386 C 697.647 -5.13003 1.5077 0
M  V30 7387 C 698.947 -3.98855 3.37213 0
M  V30 7388 H 700.641 -2.09698 2.13699 0
M  V30 7389 H 698.187 -1.00754 1.02882 0
M  V30 7390 H 700.14 -4.13669 0.803497 0
M  V30 7391 H 698.864 -3.26497 -0.0821381 0
M  V30 7392 H 697.523 -3.04654 2.03916 0
M  V30 7393 H 697.171 -5.0029 0.521417 0
M  V30 7394 H 696.871 -5.43956 2.22229 0
M  V30 7395 H 698.395 -5.93554 1.43271 0
M  V30 7396 H 699.809 -4.67312 3.32103 0
M  V30 7397 H 698.206 -4.41188 4.06784 0
M  V30 7398 H 699.276 -3.02614 3.78883 0
M  V30 7399 N 700.619 -1.13374 -1.09472 0
M  V30 7400 C 701.569 -0.77946 -2.14263 0
M  V30 7401 C 702.553 0.226271 -1.59301 0
M  V30 7402 O 703.745 0.0302581 -1.76974 0
M  V30 7403 C 700.874 -0.246635 -3.42413 0
M  V30 7404 C 699.96 -1.28124 -4.04283 0
M  V30 7405 N 700.351 -2.48201 -4.40715 0
M  V30 7406 C 698.649 -1.12892 -4.31476 0
M  V30 7407 C 699.35 -3.14347 -4.8945 0
M  V30 7408 N 698.326 -2.41771 -4.86876 0
M  V30 7409 H 702.128 -1.69305 -2.40235 0
M  V30 7410 H 699.642 -1.01598 -1.26695 0
M  V30 7411 H 701.639 0.0254131 -4.16892 0
M  V30 7412 H 700.299 0.661287 -3.17895 0
M  V30 7413 H 701.31 -2.85511 -4.32093 0
M  V30 7414 H 697.987 -0.279117 -4.16566 0
M  V30 7415 H 699.377 -4.16663 -5.27107 0
M  V30 7416 N 702.098 1.27442 -0.927168 0
M  V30 7417 C 703.345 1.94391 -0.567324 0
M  V30 7418 C 703.673 1.72875 0.891321 0
M  V30 7419 O 702.928 1.05071 1.65102 0
M  V30 7420 C 703.227 3.47413 -0.838994 0
M  V30 7421 C 702.893 3.89049 -2.2793 0
M  V30 7422 C 701.555 4.00127 -2.67305 0
M  V30 7423 C 703.907 4.10154 -3.21595 0
M  V30 7424 C 701.235 4.29697 -3.99471 0
M  V30 7425 C 703.587 4.41208 -4.53341 0
M  V30 7426 C 702.251 4.50499 -4.92551 0
M  V30 7427 H 701.521 0.711325 -0.207598 0
M  V30 7428 H 704.168 1.51523 -1.17103 0
M  V30 7429 H 702.473 3.91503 -0.152609 0
M  V30 7430 H 704.17 3.97354 -0.53955 0
M  V30 7431 H 700.76 3.80962 -1.96381 0
M  V30 7432 H 704.944 4.01036 -2.92377 0
M  V30 7433 H 700.2 4.35099 -4.29533 0
M  V30 7434 H 704.374 4.56486 -5.25922 0
M  V30 7435 H 702.001 4.73167 -5.94994 0
M  V30 7436 N 703.576 0.692616 1.41565 0
M  V30 7437 C 704.506 0.0397325 2.33466 0
M  V30 7438 C 705.487 -0.770334 1.51657 0
M  V30 7439 O 706.672 -0.723903 1.80203 0
M  V30 7440 C 703.802 -0.899495 3.3545 0
M  V30 7441 C 702.756 -0.196738 4.27548 0
M  V30 7442 C 702.082 -1.25012 5.19881 0
M  V30 7443 C 703.382 0.935158 5.1386 0
M  V30 7444 H 705.076 0.807296 2.88311 0
M  V30 7445 H 702.622 0.389665 1.38628 0
M  V30 7446 H 704.575 -1.36545 3.98665 0
M  V30 7447 H 703.299 -1.69869 2.78948 0
M  V30 7448 H 701.958 0.249158 3.65752 0
M  V30 7449 H 701.606 -2.04177 4.59696 0
M  V30 7450 H 701.306 -0.784931 5.82334 0
M  V30 7451 H 702.83 -1.71665 5.85972 0
M  V30 7452 H 704.244 0.549619 5.70659 0
M  V30 7453 H 702.641 1.32726 5.85238 0
M  V30 7454 H 703.711 1.77613 4.512 0
M  V30 7455 N 705.054 -1.51416 0.437162 0
M  V30 7456 C 706.331 -1.94682 -0.189292 0
M  V30 7457 C 706.711 -1.37581 -1.60108 0
M  V30 7458 O 706.059 -0.562815 -2.2146 0
M  V30 7459 C 706.269 -3.48599 -0.167201 0
M  V30 7460 C 707.617 -4.2296 -0.372856 0
M  V30 7461 O 708.641 -3.55354 -0.245323 0
M  V30 7462 O 707.5 -5.42895 -0.626693 0
M  V30 7463 H 704.594 -0.816708 -0.130063 0
M  V30 7464 H 707.14 -1.62316 0.495128 0
M  V30 7465 H 705.912 -3.82616 0.81981 0
M  V30 7466 H 705.535 -3.87406 -0.894537 0
M  V30 7467 N 706.532 -0.168513 -1.56696 0
M  V30 7468 C 707.76 0.483503 -2.01171 0
M  V30 7469 C 708.175 1.56994 -1.04872 0
M  V30 7470 O 707.532 1.82434 -0.0491337 0
M  V30 7471 C 707.583 1.0644 -3.45475 0
M  V30 7472 O 707.304 0.0213375 -4.38095 0
M  V30 7473 C 708.805 1.79493 -4.05336 0
M  V30 7474 H 706.025 0.124002 -0.659443 0
M  V30 7475 H 708.569 -0.269419 -2.02717 0
M  V30 7476 H 706.724 1.76784 -3.44712 0
M  V30 7477 H 707.138 0.449837 -5.22567 0
M  V30 7478 H 708.612 2.15401 -5.08238 0
M  V30 7479 H 709.089 2.68889 -3.47269 0
M  V30 7480 H 709.695 1.13798 -4.09793 0
M  V30 7481 N 708.01 1.57248 0.105221 0
M  V30 7482 C 709.287 1.76566 0.841647 0
M  V30 7483 C 709.667 0.747566 1.9742 0
M  V30 7484 O 709.015 -0.225886 2.27381 0
M  V30 7485 C 709.225 3.22016 1.3456 0
M  V30 7486 C 710.573 3.84911 1.79244 0
M  V30 7487 O 711.597 3.25703 1.44207 0
M  V30 7488 O 710.456 4.89008 2.43995 0
M  V30 7489 H 707.55 0.723443 0.400698 0
M  V30 7490 H 710.096 1.69472 0.0878893 0
M  V30 7491 H 708.868 3.87644 0.533685 0
M  V30 7492 H 708.491 3.33703 2.16167 0
M  V30 7493 N 709.488 -0.375779 1.53054 0
M  V30 7494 C 710.765 -1.13453 1.59336 0
M  V30 7495 C 711.145 -2.07379 0.394614 0
M  V30 7496 O 710.493 -2.2004 -0.616 0
M  V30 7497 C 710.703 -1.8826 2.93869 0
M  V30 7498 C 712.051 -2.43155 3.48081 0
M  V30 7499 O 713.075 -1.984 2.95831 0
M  V30 7500 O 711.934 -3.24944 4.39401 0
M  V30 7501 H 709.028 -0.519856 0.643179 0
M  V30 7502 H 711.574 -0.379865 1.65394 0
M  V30 7503 H 710.346 -1.19652 3.72558 0
M  V30 7504 H 709.969 -2.70658 2.91256 0
M  V30 7505 N 710.966 -1.44241 -0.634997 0
M  V30 7506 C 711.876 -1.53293 -1.77591 0
M  V30 7507 C 712.892 -0.418831 -1.68884 0
M  V30 7508 O 714.068 -0.675619 -1.8973 0
M  V30 7509 C 711.133 -1.47075 -3.13958 0
M  V30 7510 C 710.194 -2.69304 -3.34326 0
M  V30 7511 C 709.427 -2.63374 -4.64187 0
M  V30 7512 O 709.65 -1.69161 -5.44739 0
M  V30 7513 O 708.584 -3.54166 -4.86673 0
M  V30 7514 H 712.41 -2.49673 -1.72908 0
M  V30 7515 H 709.995 -1.26445 -0.795745 0
M  V30 7516 H 711.877 -1.46117 -3.95257 0
M  V30 7517 H 710.552 -0.538373 -3.19192 0
M  V30 7518 H 709.459 -2.75831 -2.52721 0
M  V30 7519 H 710.792 -3.61576 -3.33951 0
M  V30 7520 N 712.444 0.87505 -1.31075 0
M  V30 7521 C 713.69 1.63009 -1.20647 0
M  V30 7522 C 714.023 1.9276 0.236045 0
M  V30 7523 O 713.298 1.55559 1.16754 0
M  V30 7524 C 713.581 2.96357 -2.0456 0
M  V30 7525 C 713.434 2.73516 -3.57084 0
M  V30 7526 C 714.753 3.974 -1.89107 0
M  V30 7527 H 711.872 0.591518 -0.439631 0
M  V30 7528 H 714.514 1.0119 -1.60812 0
M  V30 7529 H 712.664 3.49119 -1.70435 0
M  V30 7530 H 714.336 2.27465 -4.01319 0
M  V30 7531 H 712.579 2.0784 -3.80769 0
M  V30 7532 H 713.25 3.68377 -4.11099 0
M  V30 7533 H 715.726 3.5383 -2.18961 0
M  V30 7534 H 714.602 4.88596 -2.5013 0
M  V30 7535 H 714.863 4.33794 -0.85296 0
M  V30 7536 N 713.922 1.13953 1.08869 0
M  V30 7537 C 715.147 0.928559 1.85452 0
M  V30 7538 C 715.572 -0.517642 1.80837 0
M  V30 7539 O 714.93 -1.36779 1.19001 0
M  V30 7540 C 714.978 1.42814 3.31114 0
M  V30 7541 O 714.082 0.617129 4.07756 0
M  V30 7542 H 713.423 0.33235 0.574839 0
M  V30 7543 H 715.953 1.5156 1.37443 0
M  V30 7544 H 715.963 1.43425 3.8196 0
M  V30 7545 H 714.638 2.48109 3.33788 0
M  V30 7546 H 713.215 0.679365 3.66659 0
M  V30 7547 N 715.4 -1.26948 0.933913 0
M  V30 7548 C 716.811 -1.76058 0.621324 0
M  V30 7549 C 717.162 -1.76175 -0.863522 0
M  V30 7550 O 716.287 -1.36921 -1.67576 0
M  V30 7551 C 716.882 -3.19713 1.12111 0
M  V30 7552 C 715.441 -3.66465 0.859074 0
M  V30 7553 C 714.588 -2.46186 1.27624 0
M  V30 7554 H 717.539 -1.13127 1.11301 0
M  V30 7555 H 717.56 -3.77566 0.471608 0
M  V30 7556 H 717.072 -3.19596 2.20182 0
M  V30 7557 H 715.173 -3.72021 -0.207566 0
M  V30 7558 H 715.286 -4.55636 1.48098 0
M  V30 7559 H 713.65 -2.45042 0.694727 0
M  V30 7560 H 714.433 -2.48774 2.36572 0
M  V30 7561 N 716.879 -0.700114 -1.41195 0
M  V30 7562 C 718.107 -0.242179 -2.05478 0
M  V30 7563 C 718.522 1.11029 -1.52702 0
M  V30 7564 O 717.879 1.69473 -0.677127 0
M  V30 7565 C 717.93 -0.196271 -3.60967 0
M  V30 7566 O 717.651 -1.49532 -4.11791 0
M  V30 7567 C 719.152 0.282102 -4.42401 0
M  V30 7568 H 716.372 -0.111749 -0.661629 0
M  V30 7569 H 718.916 -0.953975 -1.80885 0
M  V30 7570 H 717.071 0.46638 -3.84582 0
M  V30 7571 H 717.485 -1.38545 -5.05871 0
M  V30 7572 H 718.959 0.263093 -5.51373 0
M  V30 7573 H 719.436 1.32174 -4.1884 0
M  V30 7574 H 720.042 -0.349712 -4.2386 0
M  V30 7575 N 718.357 1.51182 -0.445186 0
M  V30 7576 C 719.582 2.07056 0.119445 0
M  V30 7577 C 720.007 1.30966 1.35016 0
M  V30 7578 O 719.365 0.349827 1.77893 0
M  V30 7579 C 719.413 3.58234 0.412428 0
M  V30 7580 O 718.517 3.84249 1.49754 0
M  V30 7581 H 717.858 0.663998 -0.00157797 0
M  V30 7582 H 720.388 1.94699 -0.628779 0
M  V30 7583 H 720.398 4.02617 0.660583 0
M  V30 7584 H 719.073 4.13038 -0.487049 0
M  V30 7585 H 717.65 3.51724 1.23873 0
M  V30 7586 N 719.835 0.176821 1.56605 0
M  V30 7587 C 721.081 -0.460868 1.9811 0
M  V30 7588 C 721.436 -1.60488 1.06119 0
M  V30 7589 O 720.729 -1.91329 0.101939 0
M  V30 7590 C 720.923 -0.986208 3.43524 0
M  V30 7591 C 720.752 0.105368 4.49577 0
M  V30 7592 C 719.522 0.556883 5.02222 0
M  V30 7593 C 721.72 0.907756 5.06226 0
M  V30 7594 N 719.702 1.62819 5.91915 0
M  V30 7595 C 721.073 1.82887 5.92412 0
M  V30 7596 C 723.128 0.952221 4.8871 0
M  V30 7597 C 721.831 2.7907 6.62957 0
M  V30 7598 C 723.857 1.90202 5.5998 0
M  V30 7599 C 723.219 2.8106 6.45898 0
M  V30 7600 H 719.318 -0.136589 0.769979 0
M  V30 7601 H 721.902 0.278307 1.92701 0
M  V30 7602 H 720.073 -1.69489 3.49468 0
M  V30 7603 H 721.805 -1.59298 3.7203 0
M  V30 7604 H 718.56 0.153575 4.73351 0
M  V30 7605 H 718.984 2.1645 6.41466 0
M  V30 7606 H 723.626 0.263794 4.21976 0
M  V30 7607 H 721.344 3.48898 7.28901 0
M  V30 7608 H 724.93 1.9426 5.48411 0
M  V30 7609 H 723.81 3.53357 7.00077 0
M  V30 7610 N 721.313 -1.57302 -0.09688 0
M  V30 7611 C 722.561 -1.8563 -0.799117 0
M  V30 7612 C 722.882 -0.765263 -1.79356 0
M  V30 7613 O 722.152 0.208657 -1.94786 0
M  V30 7614 H 720.732 -0.684937 -0.298111 0
M  V30 7615 H 723.394 -1.9474 -0.0789341 0
M  V30 7616 H 722.49 -2.82305 -1.3308 0
M  V30 7617 N 722.791 0.367657 -1.53252 0
M  V30 7618 C 724.068 1.12606 -1.59935 0
M  V30 7619 C 724.448 2.07167 -0.405606 0
M  V30 7620 O 723.796 2.20364 0.604323 0
M  V30 7621 C 724.006 1.86699 -2.94863 0
M  V30 7622 C 725.354 2.41306 -3.49366 0
M  V30 7623 O 726.378 1.96828 -2.96879 0
M  V30 7624 O 725.237 3.2261 -4.41118 0
M  V30 7625 H 722.331 0.516438 -0.645926 0
M  V30 7626 H 724.877 0.371088 -1.65593 0
M  V30 7627 H 723.649 1.17674 -3.73187 0
M  V30 7628 H 723.272 2.6911 -2.92687 0
M  V30 7629 N 724.269 1.44576 0.627338 0
M  V30 7630 C 725.494 1.51271 1.41887 0
M  V30 7631 C 725.919 0.139814 1.8758 0
M  V30 7632 O 725.277 -0.871746 1.58966 0
M  V30 7633 C 725.325 2.48529 2.61277 0
M  V30 7634 O 724.429 1.98944 3.61241 0
M  V30 7635 H 723.77 0.510668 0.424399 0
M  V30 7636 H 726.3 1.89746 0.765356 0
M  V30 7637 H 726.31 2.66689 3.08773 0
M  V30 7638 H 724.985 3.48249 2.27366 0
M  V30 7639 H 723.562 1.90568 3.20528 0
M  V30 7640 N 725.747 -0.868086 1.31537 0
M  V30 7641 C 727.163 -1.15414 1.10235 0
M  V30 7642 C 727.363 -2.01106 -0.125947 0
M  V30 7643 O 726.419 -2.38994 -0.814734 0
M  V30 7644 C 727.732 -1.84445 2.37488 0
M  V30 7645 C 729.28 -1.97139 2.43116 0
M  V30 7646 C 729.755 -2.69585 3.70254 0
M  V30 7647 N 731.246 -2.77119 3.71159 0
M  V30 7648 C 731.981 -3.33791 4.6623 0
M  V30 7649 N 731.477 -3.9138 5.71659 0
M  V30 7650 N 733.27 -3.31767 4.53747 0
M  V30 7651 H 725.421 -0.297109 2.10312 0
M  V30 7652 H 727.684 -0.194227 0.92789 0
M  V30 7653 H 727.39 -1.2893 3.27215 0
M  V30 7654 H 727.264 -2.84709 2.47428 0
M  V30 7655 H 729.651 -2.51818 1.53856 0
M  V30 7656 H 729.732 -0.95912 2.37138 0
M  V30 7657 H 729.376 -2.15572 4.59881 0
M  V30 7658 H 729.306 -3.71223 3.73499 0
M  V30 7659 H 731.797 -2.3625 2.94948 0
M  V30 7660 H 732.11 -4.3274 6.40278 0
M  V30 7661 H 730.455 -3.8975 5.7543 0
M  V30 7662 H 733.646 -2.86016 3.70557 0
M  V30 7663 H 733.819 -3.75636 5.28017 0
M  V30 7664 N 727.225 -1.14528 -1.08264 0
M  V30 7665 C 728.157 -0.791325 -2.15106 0
M  V30 7666 C 729.17 0.192449 -1.61659 0
M  V30 7667 O 730.359 -0.0294704 -1.78476 0
M  V30 7668 C 727.459 -0.154183 -3.38549 0
M  V30 7669 C 726.632 -1.17305 -4.21377 0
M  V30 7670 C 725.691 -0.559401 -5.23218 0
M  V30 7671 O 724.717 -1.22277 -5.55911 0
M  V30 7672 N 725.919 0.663159 -5.767 0
M  V30 7673 H 728.684 -1.71076 -2.46075 0
M  V30 7674 H 726.245 -1.0399 -1.24087 0
M  V30 7675 H 728.237 0.268884 -4.03806 0
M  V30 7676 H 726.807 0.668418 -3.0537 0
M  V30 7677 H 726.027 -1.773 -3.52077 0
M  V30 7678 H 727.315 -1.86128 -4.73533 0
M  V30 7679 H 726.713 1.22066 -5.52373 0
M  V30 7680 H 725.27 1.02871 -6.43631 0
M  V30 7681 N 728.703 1.26451 -0.940633 0
M  V30 7682 C 729.666 2.24651 -0.454378 0
M  V30 7683 C 730.666 1.54826 0.434222 0
M  V30 7684 O 731.856 1.72628 0.233477 0
M  V30 7685 C 728.988 3.39148 0.345192 0
M  V30 7686 H 730.181 2.69182 -1.32217 0
M  V30 7687 H 727.734 1.38596 -0.722547 0
M  V30 7688 H 728.469 3.00018 1.23125 0
M  V30 7689 H 728.254 3.9101 -0.292107 0
M  V30 7690 H 729.744 4.12103 0.675341 0
M  V30 7691 N 730.181 0.707592 1.40822 0
M  V30 7692 C 731.113 0.0105968 2.29198 0
M  V30 7693 C 732.126 -0.732035 1.45414 0
M  V30 7694 O 733.315 -0.580741 1.68789 0
M  V30 7695 C 730.415 -1.00921 3.23525 0
M  V30 7696 C 729.588 -0.333747 4.36125 0
M  V30 7697 C 728.647 -1.25783 5.10945 0
M  V30 7698 O 727.673 -0.745646 5.64295 0
M  V30 7699 N 728.875 -2.58947 5.19545 0
M  V30 7700 H 731.64 0.76938 2.89656 0
M  V30 7701 H 729.201 0.554579 1.52105 0
M  V30 7702 H 731.193 -1.6294 3.70449 0
M  V30 7703 H 729.763 -1.66942 2.6429 0
M  V30 7704 H 728.983 0.466518 3.9143 0
M  V30 7705 H 730.271 0.135444 5.0862 0
M  V30 7706 H 729.669 -3.03065 4.7767 0
M  V30 7707 H 728.226 -3.16131 5.70004 0
M  V30 7708 N 731.66 -1.50943 0.453197 0
M  V30 7709 C 732.623 -2.26684 -0.338705 0
M  V30 7710 C 733.623 -1.30748 -0.936032 0
M  V30 7711 O 734.813 -1.54327 -0.808002 0
M  V30 7712 C 731.945 -3.07063 -1.48071 0
M  V30 7713 H 733.138 -2.98131 0.325289 0
M  V30 7714 H 730.691 -1.54926 0.206771 0
M  V30 7715 H 731.426 -2.4007 -2.18029 0
M  V30 7716 H 731.211 -3.77545 -1.0584 0
M  V30 7717 H 732.701 -3.64393 -2.0398 0
M  V30 7718 N 733.138 -0.185124 -1.56509 0
M  V30 7719 C 734.363 0.465278 -2.02114 0
M  V30 7720 C 734.788 1.55083 -1.06447 0
M  V30 7721 O 734.146 1.81241 -0.0462852 0
M  V30 7722 C 734.194 1.00784 -3.46229 0
M  V30 7723 O 733.298 2.12123 -3.53663 0
M  V30 7724 H 732.639 0.109891 -0.654843 0
M  V30 7725 H 735.169 -0.293072 -2.0249 0
M  V30 7726 H 735.179 1.32697 -3.85818 0
M  V30 7727 H 733.854 0.213113 -4.15354 0
M  V30 7728 H 732.431 1.8115 -3.25943 0
M  V30 7729 N 734.616 1.57351 0.0885366 0
M  V30 7730 C 735.846 1.90355 0.80303 0
M  V30 7731 C 736.254 0.777678 1.72478 0
M  V30 7732 O 735.597 -0.258908 1.81866 0
M  V30 7733 C 735.659 3.18674 1.66395 0
M  V30 7734 C 735.323 4.4778 0.913327 0
M  V30 7735 C 736.32 5.19345 0.240148 0
M  V30 7736 C 734.005 4.94434 0.885462 0
M  V30 7737 C 735.999 6.35803 -0.450854 0
M  V30 7738 C 733.686 6.10802 0.190679 0
M  V30 7739 C 734.684 6.81337 -0.476295 0
M  V30 7740 O 734.372 7.95488 -1.15992 0
M  V30 7741 H 734.104 0.634035 0.234469 0
M  V30 7742 H 736.658 2.05287 0.0681959 0
M  V30 7743 H 734.888 2.99906 2.44117 0
M  V30 7744 H 736.577 3.37458 2.2556 0
M  V30 7745 H 737.343 4.84339 0.253092 0
M  V30 7746 H 733.222 4.39417 1.39406 0
M  V30 7747 H 736.766 6.90795 -0.972019 0
M  V30 7748 H 732.663 6.45261 0.175603 0
M  V30 7749 H 733.431 8.11509 -1.06749 0
M  V30 7750 N 736.094 -0.359525 1.53444 0
M  V30 7751 C 737.324 -1.12036 1.73585 0
M  V30 7752 C 737.732 -1.83335 0.467438 0
M  V30 7753 O 737.075 -1.74641 -0.569753 0
M  V30 7754 C 737.137 -2.19036 2.85068 0
M  V30 7755 C 736.801 -1.67451 4.25217 0
M  V30 7756 C 737.798 -1.13534 5.07352 0
M  V30 7757 C 735.483 -1.72781 4.71648 0
M  V30 7758 C 737.477 -0.656321 6.34012 0
M  V30 7759 C 735.164 -1.2449 5.98285 0
M  V30 7760 C 736.162 -0.710068 6.79299 0
M  V30 7761 O 735.85 -0.234314 8.03558 0
M  V30 7762 H 735.582 -0.340662 0.583888 0
M  V30 7763 H 738.136 -0.422452 2.01009 0
M  V30 7764 H 736.366 -2.92338 2.53131 0
M  V30 7765 H 738.055 -2.80559 2.93328 0
M  V30 7766 H 738.821 -1.08751 4.7265 0
M  V30 7767 H 734.7 -2.13351 4.08659 0
M  V30 7768 H 738.244 -0.238193 6.97193 0
M  V30 7769 H 734.141 -1.28969 6.32485 0
M  V30 7770 H 734.909 -0.353084 8.17738 0
M  V30 7771 N 737.572 -1.44907 -0.619662 0
M  V30 7772 C 738.519 -1.52654 -1.73105 0
M  V30 7773 C 739.489 -0.373334 -1.6185 0
M  V30 7774 O 740.674 -0.585143 -1.81606 0
M  V30 7775 C 737.814 -1.48769 -3.11387 0
M  V30 7776 C 736.927 -2.74551 -3.33535 0
M  V30 7777 C 736.062 -2.62421 -4.61854 0
M  V30 7778 C 735.101 -3.83312 -4.77219 0
M  V30 7779 N 734.238 -3.69789 -5.96826 0
M  V30 7780 H 739.078 -2.47605 -1.65819 0
M  V30 7781 H 736.615 -1.22875 -0.808719 0
M  V30 7782 H 738.573 -1.44507 -3.91374 0
M  V30 7783 H 737.203 -0.573783 -3.1766 0
M  V30 7784 H 736.255 -2.88953 -2.47408 0
M  V30 7785 H 737.567 -3.64253 -3.40765 0
M  V30 7786 H 736.721 -2.56056 -5.50019 0
M  V30 7787 H 735.46 -1.70298 -4.57001 0
M  V30 7788 H 734.465 -3.90049 -3.87481 0
M  V30 7789 H 735.69 -4.76486 -4.83878 0
M  V30 7790 H 733.636 -2.80426 -5.93041 0
M  V30 7791 H 733.553 -4.53116 -6.05163 0
M  V30 7792 H 734.821 -3.67335 -6.87521 0
M  V30 7793 N 739.05 0.861098 -1.31996 0
M  V30 7794 C 740.297 1.61481 -1.22188 0
M  V30 7795 C 740.625 1.93276 0.217853 0
M  V30 7796 O 739.88 1.56942 1.16909 0
M  V30 7797 C 740.179 2.94822 -2.02027 0
M  V30 7798 C 739.845 2.82483 -3.51446 0
M  V30 7799 C 738.507 2.78825 -3.92186 0
M  V30 7800 C 740.859 2.68878 -4.46491 0
M  V30 7801 C 738.187 2.59433 -5.26224 0
M  V30 7802 C 740.539 2.51022 -5.80664 0
M  V30 7803 C 739.203 2.45753 -6.20614 0
M  V30 7804 H 738.473 0.590902 -0.447119 0
M  V30 7805 H 741.12 0.999376 -1.63355 0
M  V30 7806 H 739.425 3.6045 -1.53569 0
M  V30 7807 H 741.122 3.52149 -1.91812 0
M  V30 7808 H 737.712 2.86152 -3.19085 0
M  V30 7809 H 741.896 2.70754 -4.1594 0
M  V30 7810 H 737.152 2.53784 -5.5624 0
M  V30 7811 H 741.326 2.39473 -6.53931 0
M  V30 7812 H 738.953 2.30485 -7.24417 0
M  V30 7813 N 740.528 1.15101 1.07655 0
M  V30 7814 C 741.46 0.802722 2.14684 0
M  V30 7815 C 742.473 -0.183874 1.61758 0
M  V30 7816 O 743.662 0.0389349 1.78458 0
M  V30 7817 C 740.762 0.172135 3.38463 0
M  V30 7818 C 739.935 1.19538 4.20749 0
M  V30 7819 C 738.994 0.58714 5.22914 0
M  V30 7820 O 738.02 1.25224 5.55255 0
M  V30 7821 N 739.222 -0.632566 5.77043 0
M  V30 7822 H 741.987 1.72379 2.45164 0
M  V30 7823 H 739.548 1.04647 1.23534 0
M  V30 7824 H 741.54 -0.247465 4.03943 0
M  V30 7825 H 740.11 -0.652214 3.0572 0
M  V30 7826 H 739.33 1.79165 3.51132 0
M  V30 7827 H 740.618 1.88636 4.7254 0
M  V30 7828 H 740.016 -1.19135 5.53013 0
M  V30 7829 H 738.573 -0.994566 6.44167 0
M  V30 7830 N 742.006 -1.2595 0.947325 0
M  V30 7831 C 742.954 -2.28152 0.452687 0
M  V30 7832 C 743.948 -1.62655 -0.473239 0
M  V30 7833 O 745.154 -1.76549 -0.350774 0
M  V30 7834 H 741.529 -0.741049 0.12787 0
M  V30 7835 H 743.5 -2.67267 1.32707 0
M  V30 7836 C 742.249 -3.46719 -0.26098 0
M  V30 7837 H 741.572 -3.97345 0.442352 0
M  V30 7838 H 743.012 -4.20135 -0.571208 0
M  V30 7839 C 741.471 -3.02605 -1.48094 0
M  V30 7840 O 742.001 -3.07979 -2.57899 0
M  V30 7841 N 740.207 -2.57877 -1.33969 0
M  V30 7842 H 739.754 -2.53704 -0.446295 0
M  V30 7843 H 739.712 -2.28725 -2.15713 0
M  V30 7844 N 743.484 -0.715051 -1.40445 0
M  V30 7845 C 744.709 -0.26254 -2.05732 0
M  V30 7846 C 745.134 1.08691 -1.53519 0
M  V30 7847 O 744.492 1.68453 -0.670328 0
M  V30 7848 C 744.54 -0.25195 -3.59719 0
M  V30 7849 O 743.644 0.766998 -4.05205 0
M  V30 7850 H 742.985 -0.123398 -0.652433 0
M  V30 7851 H 745.515 -0.975382 -1.79854 0
M  V30 7852 H 745.525 -0.0894537 -4.07902 0
M  V30 7853 H 744.2 -1.23672 -3.97087 0
M  V30 7854 H 742.777 0.572269 -3.68483 0
M  V30 7855 N 744.962 1.50701 -0.461195 0
M  V30 7856 C 746.239 1.94958 0.158296 0
M  V30 7857 C 746.619 1.40111 1.57899 0
M  V30 7858 O 745.967 0.597976 2.20537 0
M  V30 7859 C 746.177 3.48821 0.11172 0
M  V30 7860 C 747.525 4.23499 0.30552 0
M  V30 7861 O 748.549 3.557 0.188758 0
M  V30 7862 O 747.408 5.43823 0.540244 0
M  V30 7863 H 744.502 0.818674 0.117054 0
M  V30 7864 H 747.048 1.61508 -0.520888 0
M  V30 7865 H 745.82 3.81263 -0.880577 0
M  V30 7866 H 745.443 3.88781 0.832791 0
M  V30 7867 N 746.441 0.193421 1.56409 0
M  V30 7868 C 747.389 -0.744829 2.20352 0
M  V30 7869 C 748.383 -1.22104 1.17418 0
M  V30 7870 O 749.589 -1.18413 1.35567 0
M  V30 7871 H 745.964 -0.258538 0.70616 0
M  V30 7872 H 747.935 -0.181794 2.97846 0
M  V30 7873 C 746.684 -1.95453 2.87565 0
M  V30 7874 H 746.007 -1.59716 3.66512 0
M  V30 7875 H 747.447 -2.58942 3.35745 0
M  V30 7876 C 745.906 -2.79223 1.8851 0
M  V30 7877 O 746.436 -3.77093 1.38434 0
M  V30 7878 N 744.642 -2.44682 1.56777 0
M  V30 7879 H 744.189 -1.65153 1.97692 0
M  V30 7880 H 744.147 -3.01016 0.907573 0
M  V30 7881 N 747.919 -1.57396 -0.0801906 0
M  V30 7882 C 749.33 -1.75642 -0.633002 0
M  V30 7883 C 749.681 -0.817708 -1.78348 0
M  V30 7884 O 748.806 0.000233743 -2.164 0
M  V30 7885 C 749.401 -3.18502 -1.15507 0
M  V30 7886 C 747.96 -3.38121 -1.65381 0
M  V30 7887 C 747.107 -2.71386 -0.569661 0
M  V30 7888 H 750.058 -1.58027 0.145949 0
M  V30 7889 H 750.079 -3.22198 -2.02408 0
M  V30 7890 H 749.591 -3.86799 -0.317515 0
M  V30 7891 H 747.692 -2.74926 -2.51488 0
M  V30 7892 H 747.805 -4.46521 -1.73654 0
M  V30 7893 H 746.169 -2.33702 -1.0127 0
M  V30 7894 H 746.952 -3.42332 0.257561 0
M  V30 7895 N 749.397 0.351382 -1.53633 0
M  V30 7896 C 750.627 1.11113 -1.74176 0
M  V30 7897 C 751.035 1.83084 -0.477154 0
M  V30 7898 O 750.378 1.74941 0.560483 0
M  V30 7899 C 750.44 2.17521 -2.86225 0
M  V30 7900 C 750.104 1.65193 -4.26099 0
M  V30 7901 C 751.101 1.10842 -5.07947 0
M  V30 7902 C 748.786 1.70277 -4.72558 0
M  V30 7903 C 750.78 0.622689 -6.34351 0
M  V30 7904 C 748.467 1.21316 -5.98937 0
M  V30 7905 C 749.465 0.674033 -6.79666 0
M  V30 7906 O 749.153 0.191696 -8.03671 0
M  V30 7907 H 748.885 0.33756 -0.585687 0
M  V30 7908 H 751.439 0.411786 -2.0123 0
M  V30 7909 H 749.669 2.90991 -2.54678 0
M  V30 7910 H 751.358 2.78999 -2.94812 0
M  V30 7911 H 752.124 1.06243 -4.7322 0
M  V30 7912 H 748.003 2.11181 -4.09785 0
M  V30 7913 H 751.547 0.201216 -6.9731 0
M  V30 7914 H 747.444 1.25613 -6.3316 0
M  V30 7915 H 748.212 0.309712 -8.17914 0
M  V30 7916 N 750.875 1.45233 0.611969 0
M  V30 7917 C 752.105 1.52318 1.39581 0
M  V30 7918 C 752.513 0.153093 1.8858 0
M  V30 7919 O 751.856 -0.854792 1.62601 0
M  V30 7920 C 751.918 2.4426 2.63775 0
M  V30 7921 C 751.582 3.91079 2.36445 0
M  V30 7922 C 752.579 4.81099 1.97079 0
M  V30 7923 C 750.264 4.35958 2.49492 0
M  V30 7924 C 752.258 6.14002 1.71115 0
M  V30 7925 C 749.945 5.68903 2.23142 0
M  V30 7926 C 750.943 6.57744 1.84015 0
M  V30 7927 O 750.631 7.88226 1.5797 0
M  V30 7928 H 750.363 0.518428 0.43383 0
M  V30 7929 H 752.917 1.91067 0.753837 0
M  V30 7930 H 751.147 2.00474 3.30677 0
M  V30 7931 H 752.836 2.42077 3.25812 0
M  V30 7932 H 753.602 4.47692 1.86539 0
M  V30 7933 H 749.481 3.67053 2.78914 0
M  V30 7934 H 753.025 6.83305 1.405 0
M  V30 7935 H 748.922 6.01866 2.33297 0
M  V30 7936 H 749.69 8.00211 1.72058 0
M  V30 7937 N 752.353 -0.854086 1.3245 0
M  V30 7938 C 753.583 -1.63836 1.25862 0
M  V30 7939 C 753.991 -1.88383 -0.175588 0
M  V30 7940 O 753.334 -1.45353 -1.1233 0
M  V30 7941 C 753.396 -3.02068 1.94923 0
M  V30 7942 C 753.06 -3.0056 3.44257 0
M  V30 7943 C 754.057 -2.77368 4.39731 0
M  V30 7944 C 751.742 -3.21177 3.862 0
M  V30 7945 C 753.736 -2.74797 5.75122 0
M  V30 7946 C 751.423 -3.18234 5.217 0
M  V30 7947 C 752.421 -2.95072 6.15972 0
M  V30 7948 O 752.109 -2.92003 7.48992 0
M  V30 7949 H 751.841 -0.517007 0.435523 0
M  V30 7950 H 754.395 -1.07314 1.75137 0
M  V30 7951 H 752.625 -3.60382 1.40219 0
M  V30 7952 H 754.314 -3.62791 1.82037 0
M  V30 7953 H 755.08 -2.61205 4.08653 0
M  V30 7954 H 750.959 -3.38231 3.13243 0
M  V30 7955 H 754.503 -2.56638 6.48678 0
M  V30 7956 H 750.4 -3.33941 5.52407 0
M  V30 7957 H 751.168 -3.07953 7.58358 0
M  V30 7958 N 753.831 -1.1567 -1.07043 0
M  V30 7959 C 755.242 -0.942408 -1.61169 0
M  V30 7960 C 755.593 0.515537 -1.89306 0
M  V30 7961 O 754.718 1.38726 -1.66084 0
M  V30 7962 C 755.313 -1.70431 -2.92812 0
M  V30 7963 C 753.872 -1.53521 -3.43669 0
M  V30 7964 C 753.019 -1.7179 -2.17678 0
M  V30 7965 H 755.97 -1.3065 -0.9009 0
M  V30 7966 H 755.991 -1.17566 -3.61882 0
M  V30 7967 H 755.503 -2.76538 -2.72302 0
M  V30 7968 H 753.604 -0.498224 -3.69254 0
M  V30 7969 H 753.717 -2.31422 -4.19501 0
M  V30 7970 H 752.081 -1.14468 -2.27529 0
M  V30 7971 H 752.864 -2.79269 -1.99659 0
M  V30 7972 N 755.309 1.25446 -0.953992 0
M  V30 7973 C 756.725 1.4539 -0.658316 0
M  V30 7974 C 756.925 1.85607 0.784356 0
M  V30 7975 O 755.981 1.98568 1.55972 0
M  V30 7976 C 757.294 2.52643 -1.6307 0
M  V30 7977 C 758.842 2.66484 -1.64181 0
M  V30 7978 C 759.317 3.76921 -2.60182 0
M  V30 7979 N 760.808 3.84331 -2.58542 0
M  V30 7980 C 761.543 4.69271 -3.29503 0
M  V30 7981 N 761.039 5.58503 -4.09934 0
M  V30 7982 N 762.832 4.6323 -3.18393 0
M  V30 7983 H 754.983 0.976337 -1.8863 0
M  V30 7984 H 757.246 0.490343 -0.811337 0
M  V30 7985 H 756.952 2.29949 -2.66114 0
M  V30 7986 H 756.826 3.50547 -1.39271 0
M  V30 7987 H 759.213 2.88545 -0.618552 0
M  V30 7988 H 759.294 1.68982 -1.92038 0
M  V30 7989 H 758.938 3.55612 -3.62633 0
M  V30 7990 H 758.868 4.73906 -2.29609 0
M  V30 7991 H 761.359 3.20544 -2.0015 0
M  V30 7992 H 761.672 6.20241 -4.61 0
M  V30 7993 H 760.017 5.58214 -4.14032 0
M  V30 7994 H 763.208 3.92527 -2.5503 0
M  V30 7995 H 763.381 5.29204 -3.73961 0
M  V30 7996 N 756.787 0.722489 1.40064 0
M  V30 7997 C 758.015 0.274838 2.05066 0
M  V30 7998 C 758.43 -1.08586 1.54449 0
M  V30 7999 O 757.787 -1.68375 0.704003 0
M  V30 8000 C 757.838 0.253673 3.60609 0
M  V30 8001 O 757.559 1.56064 4.0936 0
M  V30 8002 C 759.06 -0.211684 4.42794 0
M  V30 8003 H 756.28 0.12226 0.659768 0
M  V30 8004 H 758.824 0.982632 1.79345 0
M  V30 8005 H 756.979 -0.405137 3.85276 0
M  V30 8006 H 757.393 1.46576 5.03603 0
M  V30 8007 H 758.867 -0.175341 5.51721 0
M  V30 8008 H 759.344 -1.25493 4.2089 0
M  V30 8009 H 759.95 0.4171 4.2325 0
M  V30 8010 N 758.265 -1.50454 0.469181 0
M  V30 8011 C 759.676 -1.86695 0.0136034 0
M  V30 8012 C 760.027 -1.38413 -1.39055 0
M  V30 8013 O 759.152 -0.748294 -2.03051 0
M  V30 8014 C 759.747 -3.38795 0.0179098 0
M  V30 8015 C 758.306 -3.74455 -0.382191 0
M  V30 8016 C 757.453 -2.74338 0.404207 0
M  V30 8017 H 760.404 -1.43225 0.683547 0
M  V30 8018 H 760.425 -3.72321 -0.78468 0
M  V30 8019 H 759.937 -3.73906 1.04 0
M  V30 8020 H 758.038 -3.44944 -1.4087 0
M  V30 8021 H 758.151 -4.79025 -0.084862 0
M  V30 8022 H 756.515 -2.54305 -0.141829 0
M  V30 8023 H 757.298 -3.12293 1.42577 0
M  V30 8024 N 759.743 -0.201713 -1.56304 0
M  V30 8025 C 760.991 0.434447 -1.97375 0
M  V30 8026 C 761.312 1.61692 -1.08998 0
M  V30 8027 O 760.582 1.95223 -0.162682 0
M  V30 8028 H 759.162 0.163497 -0.728888 0
M  V30 8029 H 761.824 -0.289988 -1.92731 0
M  V30 8030 H 760.92 0.774136 -3.02347 0
M  V30 8031 N 761.222 1.57436 0.0718424 0
M  V30 8032 C 762.633 1.75975 0.623678 0
M  V30 8033 C 762.984 0.827155 1.77912 0
M  V30 8034 O 762.109 0.0112425 2.16397 0
M  V30 8035 C 762.704 3.1911 1.13816 0
M  V30 8036 C 761.263 3.38994 1.63586 0
M  V30 8037 C 760.41 2.71684 0.555261 0
M  V30 8038 H 763.361 1.57948 -0.154328 0
M  V30 8039 H 763.382 3.23267 2.00696 0
M  V30 8040 H 762.894 3.86962 0.296998 0
M  V30 8041 H 760.995 2.76256 2.50027 0
M  V30 8042 H 761.108 4.47436 1.71283 0
M  V30 8043 H 759.472 2.34236 1.00029 0
M  V30 8044 H 760.255 3.42191 -0.275712 0
M  V30 8045 N 762.7 -0.34323 1.53817 0
M  V30 8046 C 763.663 -1.40444 1.8113 0
M  V30 8047 C 764.663 -1.45604 0.682366 0
M  V30 8048 O 765.853 -1.45974 0.950649 0
M  V30 8049 C 762.985 -2.79369 1.95361 0
M  V30 8050 H 764.178 -1.17489 2.75928 0
M  V30 8051 H 761.731 -0.577636 1.45234 0
M  V30 8052 H 762.466 -3.07607 1.02707 0
M  V30 8053 H 762.251 -2.7702 2.77493 0
M  V30 8054 H 763.741 -3.56178 2.18008 0
M  V30 8055 N 764.178 -1.45556 -0.604258 0
M  V30 8056 C 765.403 -1.53509 -1.39462 0
M  V30 8057 C 765.828 -0.169638 -1.87333 0
M  V30 8058 O 765.186 0.846346 -1.60333 0
M  V30 8059 C 765.234 -2.52654 -2.5729 0
M  V30 8060 O 764.338 -2.04666 -3.5803 0
M  V30 8061 H 763.679 -0.517355 -0.416221 0
M  V30 8062 H 766.209 -1.90939 -0.735072 0
M  V30 8063 H 766.219 -2.71568 -3.04491 0
M  V30 8064 H 764.894 -3.51823 -2.21797 0
M  V30 8065 H 763.471 -1.95643 -3.17456 0
M  V30 8066 N 765.656 0.84705 -1.32902 0
M  V30 8067 C 766.588 1.96308 -1.18304 0
M  V30 8068 C 767.601 1.62386 -0.116082 0
M  V30 8069 O 768.79 1.74713 -0.365751 0
M  V30 8070 C 765.89 3.29556 -0.790305 0
M  V30 8071 C 765.063 3.91668 -1.94717 0
M  V30 8072 C 764.122 5.0326 -1.53674 0
M  V30 8073 O 763.148 5.22847 -2.24989 0
M  V30 8074 N 764.35 5.78852 -0.437075 0
M  V30 8075 H 767.115 2.09369 -2.14441 0
M  V30 8076 H 764.676 1.02233 -1.25539 0
M  V30 8077 H 766.668 4.01624 -0.49799 0
M  V30 8078 H 765.238 3.12497 0.0801286 0
M  V30 8079 H 764.458 3.12292 -2.40557 0
M  V30 8080 H 765.746 4.299 -2.72146 0
M  V30 8081 H 765.144 5.65484 0.156316 0
M  V30 8082 H 763.701 6.51479 -0.204399 0
M  V30 8083 N 767.134 1.16236 1.06428 0
M  V30 8084 C 768.364 0.965782 1.82637 0
M  V30 8085 C 768.772 -0.489284 1.82764 0
M  V30 8086 O 768.115 -1.35133 1.24438 0
M  V30 8087 C 768.177 1.41458 3.30499 0
M  V30 8088 C 767.841 2.88926 3.54077 0
M  V30 8089 C 768.838 3.86939 3.47238 0
M  V30 8090 C 766.523 3.26814 3.81442 0
M  V30 8091 C 768.517 5.20841 3.67428 0
M  V30 8092 C 766.204 4.60886 4.01282 0
M  V30 8093 C 767.202 5.57708 3.94272 0
M  V30 8094 O 766.89 6.89357 4.13573 0
M  V30 8095 H 766.622 0.342569 0.582772 0
M  V30 8096 H 769.176 1.54641 1.35187 0
M  V30 8097 H 767.406 0.777426 3.78805 0
M  V30 8098 H 769.095 1.18563 3.88198 0
M  V30 8099 H 769.861 3.59014 3.26089 0
M  V30 8100 H 765.74 2.5203 3.86008 0
M  V30 8101 H 769.284 5.96401 3.61873 0
M  V30 8102 H 765.181 4.88522 4.21921 0
M  V30 8103 H 765.949 6.95913 4.30869 0
M  V30 8104 N 768.612 -1.24939 0.960631 0
M  V30 8105 C 770.023 -1.74701 0.658529 0
M  V30 8106 C 770.374 -1.77967 -0.825959 0
M  V30 8107 O 769.499 -1.40444 -1.64634 0
M  V30 8108 C 770.094 -3.17263 1.18867 0
M  V30 8109 C 768.653 -3.64561 0.936614 0
M  V30 8110 C 767.8 -2.43423 1.32817 0
M  V30 8111 H 770.751 -1.10741 1.13676 0
M  V30 8112 H 770.772 -3.76481 0.551589 0
M  V30 8113 H 770.284 -3.14854 2.26912 0
M  V30 8114 H 768.385 -3.72378 -0.128608 0
M  V30 8115 H 768.498 -4.52392 1.57729 0
M  V30 8116 H 766.862 -2.43513 0.746548 0
M  V30 8117 H 767.645 -2.437 2.41796 0
M  V30 8118 N 770.09 -0.729906 -1.39679 0
M  V30 8119 C 771.32 -0.285295 -2.04621 0
M  V30 8120 C 771.728 1.08304 -1.55135 0
M  V30 8121 O 771.071 1.6946 -0.709146 0
M  V30 8122 C 771.133 -0.203129 -3.58926 0
M  V30 8123 C 770.797 -1.50909 -4.31365 0
M  V30 8124 C 771.794 -2.45381 -4.58349 0
M  V30 8125 C 769.479 -1.77198 -4.70007 0
M  V30 8126 C 771.473 -3.64379 -5.22979 0
M  V30 8127 C 769.16 -2.96474 -5.34365 0
M  V30 8128 C 770.158 -3.89886 -5.60783 0
M  V30 8129 O 769.846 -5.07069 -6.23808 0
M  V30 8130 H 769.578 -0.123373 -0.664647 0
M  V30 8131 H 772.132 -0.992901 -1.79807 0
M  V30 8132 H 770.362 0.560538 -3.82616 0
M  V30 8133 H 772.051 0.208811 -4.05363 0
M  V30 8134 H 772.817 -2.2634 -4.28947 0
M  V30 8135 H 768.696 -1.05337 -4.48804 0
M  V30 8136 H 772.24 -4.37307 -5.43515 0
M  V30 8137 H 768.137 -3.15419 -5.63188 0
M  V30 8138 H 768.905 -5.07335 -6.42303 0
M  V30 8139 N 771.568 1.50203 -0.477153 0
M  V30 8140 C 772.796 2.0677 0.0732489 0
M  V30 8141 C 773.211 1.34033 1.32968 0
M  V30 8142 O 772.568 0.411412 1.77802 0
M  V30 8143 C 772.619 3.59751 0.35518 0
M  V30 8144 O 772.34 4.29747 -0.851425 0
M  V30 8145 C 773.841 4.3296 0.951877 0
M  V30 8146 H 771.061 0.670929 -0.00978923 0
M  V30 8147 H 773.605 1.93293 -0.667676 0
M  V30 8148 H 771.76 3.7301 1.04605 0
M  V30 8149 H 772.174 5.2106 -0.599708 0
M  V30 8150 H 773.648 5.40952 1.09888 0
M  V30 8151 H 774.125 3.93856 1.94356 0
M  V30 8152 H 774.731 4.24246 0.299208 0
M  V30 8153 N 773.046 0.209999 1.56195 0
M  V30 8154 C 774.294 -0.423974 1.97603 0
M  V30 8155 C 774.615 -1.61112 1.09854 0
M  V30 8156 O 773.885 -1.95134 0.173032 0
M  V30 8157 H 772.465 -0.159629 0.729745 0
M  V30 8158 H 775.127 0.300205 1.92574 0
M  V30 8159 H 774.223 -0.75809 3.02753 0
M  V30 8160 N 774.524 -1.57472 -0.0634922 0
M  V30 8161 C 775.754 -1.91608 -0.772645 0
M  V30 8162 C 776.162 -0.805019 -1.71219 0
M  V30 8163 O 775.505 0.229941 -1.82255 0
M  V30 8164 C 775.567 -3.21281 -1.61304 0
M  V30 8165 C 775.231 -4.49177 -0.841973 0
M  V30 8166 C 776.228 -5.19661 -0.157494 0
M  V30 8167 C 773.913 -4.9578 -0.80669 0
M  V30 8168 C 775.907 -6.35006 0.551948 0
M  V30 8169 C 773.594 -6.11028 -0.0934812 0
M  V30 8170 C 774.592 -6.80493 0.58463 0
M  V30 8171 O 774.28 -7.93542 1.28633 0
M  V30 8172 H 774.012 -0.637685 -0.224352 0
M  V30 8173 H 776.566 -2.05369 -0.0355279 0
M  V30 8174 H 774.796 -3.03752 -2.39315 0
M  V30 8175 H 776.485 -3.41003 -2.20162 0
M  V30 8176 H 777.251 -4.84681 -0.176006 0
M  V30 8177 H 773.13 -4.41579 -1.32397 0
M  V30 8178 H 776.674 -6.89161 1.0818 0
M  V30 8179 H 772.571 -6.45459 -0.0729258 0
M  V30 8180 H 773.339 -8.09708 1.19646 0
M  V30 8181 N 776.003 0.335068 -1.53997 0
M  V30 8182 C 776.951 1.43206 -1.83289 0
M  V30 8183 C 777.945 1.54081 -0.703953 0
M  V30 8184 O 779.151 1.56603 -0.887432 0
M  V30 8185 H 775.526 0.477655 -0.580818 0
M  V30 8186 H 777.497 1.15719 -2.75049 0
M  V30 8187 C 776.246 2.79602 -2.06683 0
M  V30 8188 H 775.569 2.72004 -2.93008 0
M  V30 8189 H 777.009 3.55459 -2.31139 0
M  V30 8190 C 775.468 3.25873 -0.854883 0
M  V30 8191 O 775.998 4.01657 -0.0584648 0
M  V30 8192 N 774.204 2.82777 -0.669729 0
M  V30 8193 H 773.751 2.21269 -1.31901 0
M  V30 8194 H 773.709 3.1409 0.13969 0
M  V30 8195 N 777.481 1.45874 0.596531 0
M  V30 8196 C 778.892 1.44798 1.17857 0
M  V30 8197 C 779.243 0.181443 1.95359 0
M  V30 8198 O 778.368 -0.716336 2.042 0
M  V30 8199 C 778.963 2.62333 2.14398 0
M  V30 8200 C 777.522 2.64342 2.67955 0
M  V30 8201 C 776.669 2.37244 1.43564 0
M  V30 8202 H 779.62 1.53954 0.385222 0
M  V30 8203 H 779.641 2.37063 2.97626 0
M  V30 8204 H 779.153 3.54499 1.57963 0
M  V30 8205 H 777.254 1.76213 3.28298 0
M  V30 8206 H 777.367 3.63897 3.11634 0
M  V30 8207 H 775.731 1.87022 1.72901 0
M  V30 8208 H 776.514 3.31568 0.889805 0
M  V30 8209 N 778.959 -0.83999 1.33349 0
M  V30 8210 C 779.889 -1.965 1.26135 0
M  V30 8211 C 780.87 -1.69505 0.142152 0
M  V30 8212 O 782.055 -1.91346 0.331743 0
M  V30 8213 C 779.185 -3.32632 0.99866 0
M  V30 8214 C 778.139 -3.74021 2.08068 0
M  V30 8215 C 777.465 -5.07947 1.67014 0
M  V30 8216 C 778.765 -3.87925 3.49731 0
M  V30 8217 H 780.459 -2.02793 2.20262 0
M  V30 8218 H 778.005 -0.974297 1.06035 0
M  V30 8219 H 779.958 -4.10903 0.934696 0
M  V30 8220 H 778.682 -3.26593 0.0217759 0
M  V30 8221 H 777.341 -2.98012 2.13505 0
M  V30 8222 H 776.989 -4.98378 0.680316 0
M  V30 8223 H 776.689 -5.36611 2.39422 0
M  V30 8224 H 778.213 -5.88695 1.62082 0
M  V30 8225 H 779.627 -4.5651 3.46802 0
M  V30 8226 H 778.024 -4.28023 4.20614 0
M  V30 8227 H 779.094 -2.90407 3.88319 0
M  V30 8228 N 780.437 -1.16799 -1.0581 0
M  V30 8229 C 781.369 -0.836774 -2.13379 0
M  V30 8230 C 782.382 0.158116 -1.6203 0
M  V30 8231 O 783.571 -0.0673211 -1.78373 0
M  V30 8232 C 780.671 -0.225959 -3.38146 0
M  V30 8233 C 779.844 -1.26217 -4.18794 0
M  V30 8234 C 778.903 -0.670257 -5.21914 0
M  V30 8235 O 777.929 -1.34042 -5.53192 0
M  V30 8236 N 779.131 0.540683 -5.77977 0
M  V30 8237 H 781.896 -1.76257 -2.42391 0
M  V30 8238 H 779.457 -1.06599 -1.21853 0
M  V30 8239 H 781.449 0.18317 -4.04285 0
M  V30 8240 H 780.019 0.603494 -3.06719 0
M  V30 8241 H 779.239 -1.84729 -3.48237 0
M  V30 8242 H 780.527 -1.9613 -4.69479 0
M  V30 8243 H 779.925 1.10322 -5.54838 0
M  V30 8244 H 778.482 0.891958 -6.45668 0
M  V30 8245 N 781.915 1.24427 -0.967243 0
M  V30 8246 C 783.145 1.96256 -0.64554 0
M  V30 8247 C 783.553 1.71959 0.789098 0
M  V30 8248 O 782.896 0.999913 1.54102 0
M  V30 8249 C 782.958 3.49553 -0.839798 0
M  V30 8250 C 782.622 3.97548 -2.25399 0
M  V30 8251 C 783.619 4.07257 -3.23168 0
M  V30 8252 C 781.304 4.30884 -2.58156 0
M  V30 8253 C 783.298 4.49635 -4.51782 0
M  V30 8254 C 780.985 4.72946 -3.86996 0
M  V30 8255 C 781.983 4.82286 -4.83621 0
M  V30 8256 O 781.671 5.23409 -6.10162 0
M  V30 8257 H 781.403 0.632002 -0.239895 0
M  V30 8258 H 783.957 1.59224 -1.29757 0
M  V30 8259 H 782.187 3.86479 -0.130603 0
M  V30 8260 H 783.876 4.02591 -0.517249 0
M  V30 8261 H 784.642 3.8172 -2.9919 0
M  V30 8262 H 780.521 4.22833 -1.83666 0
M  V30 8263 H 784.065 4.5684 -5.27203 0
M  V30 8264 H 779.962 4.9793 -4.10775 0
M  V30 8265 H 780.73 5.4156 -6.13722 0
M  V30 8266 N 783.393 0.737304 1.3929 0
M  V30 8267 C 784.804 0.355966 1.83275 0
M  V30 8268 C 785.155 -1.11295 1.6158 0
M  V30 8269 O 784.28 -1.85871 1.10819 0
M  V30 8270 C 784.875 0.63931 3.32713 0
M  V30 8271 C 783.434 0.31144 3.75109 0
M  V30 8272 C 782.581 0.900765 2.62262 0
M  V30 8273 H 785.532 0.934763 1.28249 0
M  V30 8274 H 785.553 -0.0881293 3.80398 0
M  V30 8275 H 785.065 1.70847 3.48472 0
M  V30 8276 H 783.166 -0.751791 3.64937 0
M  V30 8277 H 783.279 0.795611 4.72448 0
M  V30 8278 H 781.643 0.327239 2.52589 0
M  V30 8279 H 782.426 1.97463 2.80826 0
M  V30 8280 N 784.871 -1.49948 0.485112 0
M  V30 8281 C 786.117 -2.02695 -0.0651022 0
M  V30 8282 C 786.45 -1.36534 -1.38102 0
M  V30 8283 O 785.725 -0.495677 -1.88078 0
M  V30 8284 C 786.008 -3.59337 -0.234285 0
M  V30 8285 C 785.861 -4.3605 1.10364 0
M  V30 8286 C 787.18 -4.28996 -0.982351 0
M  V30 8287 H 784.299 -0.736666 -0.0221856 0
M  V30 8288 H 786.941 -1.7913 0.633433 0
M  V30 8289 H 785.091 -3.79546 -0.829262 0
M  V30 8290 H 786.763 -4.27377 1.73627 0
M  V30 8291 H 785.006 -3.99236 1.69686 0
M  V30 8292 H 785.677 -5.43959 0.938743 0
M  V30 8293 H 788.153 -4.13346 -0.477904 0
M  V30 8294 H 787.029 -5.38379 -1.06955 0
M  V30 8295 H 787.29 -3.93135 -2.02231 0
M  V30 8296 N 786.349 -0.21828 -1.56081 0
M  V30 8297 C 787.597 0.413488 -1.97825 0
M  V30 8298 C 787.918 1.60527 -1.10707 0
M  V30 8299 O 787.188 1.9504 -0.183378 0
M  V30 8300 H 785.768 0.155757 -0.730581 0
M  V30 8301 H 788.43 -0.310413 -1.92412 0
M  V30 8302 H 787.526 0.742024 -3.03151 0
M  V30 8303 N 787.827 1.57504 0.0551401 0
M  V30 8304 C 789.238 1.76626 0.604979 0
M  V30 8305 C 789.589 0.845978 1.77024 0
M  V30 8306 O 788.714 0.0341936 2.16373 0
M  V30 8307 C 789.309 3.203 1.10425 0
M  V30 8308 C 787.868 3.4071 1.59981 0
M  V30 8309 C 787.015 2.72258 0.526414 0
M  V30 8310 H 789.966 1.57775 -0.171072 0
M  V30 8311 H 789.987 3.25377 1.97256 0
M  V30 8312 H 789.499 3.87255 0.255939 0
M  V30 8313 H 787.6 2.78892 2.47083 0
M  V30 8314 H 787.713 4.49227 1.66528 0
M  V30 8315 H 786.077 2.35283 0.97539 0
M  V30 8316 H 786.86 3.41879 -0.311991 0
M  V30 8317 N 789.305 -0.326896 1.54172 0
M  V30 8318 C 790.533 -1.08486 1.76177 0
M  V30 8319 C 790.948 -1.81815 0.508788 0
M  V30 8320 O 790.305 -1.74924 -0.520362 0
M  V30 8321 C 790.356 -2.08552 2.95276 0
M  V30 8322 O 790.077 -1.38202 4.15731 0
M  V30 8323 C 791.578 -2.96593 3.29466 0
M  V30 8324 H 788.798 -0.322835 0.588233 0
M  V30 8325 H 791.342 -0.374036 2.0105 0
M  V30 8326 H 789.497 -2.75174 2.72687 0
M  V30 8327 H 789.911 -2.05186 4.827 0
M  V30 8328 H 791.385 -3.62708 4.16109 0
M  V30 8329 H 791.862 -3.63511 2.46487 0
M  V30 8330 H 792.468 -2.35537 3.54122 0
M  V30 8331 N 790.784 -1.46188 -0.588786 0
M  V30 8332 C 791.732 -1.56653 -1.71938 0
M  V30 8333 C 792.726 -0.435354 -1.6371 0
M  V30 8334 O 793.932 -0.611996 -1.69277 0
M  V30 8335 H 790.307 -0.492408 -0.568365 0
M  V30 8336 H 792.278 -2.51724 -1.60242 0
M  V30 8337 C 791.027 -1.56822 -3.10326 0
M  V30 8338 H 790.35 -2.43198 -3.17325 0
M  V30 8339 H 791.79 -1.68199 -3.89211 0
M  V30 8340 C 790.249 -0.295802 -3.35599 0
M  V30 8341 O 790.779 0.616515 -3.96941 0
M  V30 8342 N 788.985 -0.185609 -2.90007 0
M  V30 8343 H 788.532 -0.928914 -2.40269 0
M  V30 8344 H 788.49 0.664883 -3.07289 0
M  V30 8345 N 792.262 0.832906 -1.33792 0
M  V30 8346 C 793.51 1.58539 -1.25338 0
M  V30 8347 C 793.831 1.94175 0.179204 0
M  V30 8348 O 793.101 1.61458 1.10941 0
M  V30 8349 H 791.681 0.58784 -0.460926 0
M  V30 8350 H 794.343 0.995064 -1.67584 0
M  V30 8351 H 793.439 2.51268 -1.85123 0
M  V30 8352 N 793.74 1.17359 1.05189 0
M  V30 8353 C 794.986 0.963413 1.78455 0
M  V30 8354 C 795.319 -0.506703 1.87473 0
M  V30 8355 O 794.594 -1.37611 1.37453 0
M  V30 8356 C 794.877 1.60519 3.22344 0
M  V30 8357 C 794.73 3.14741 3.21338 0
M  V30 8358 C 796.049 1.3091 4.20179 0
M  V30 8359 H 793.168 0.351412 0.647826 0
M  V30 8360 H 795.81 1.44858 1.22948 0
M  V30 8361 H 793.96 1.19265 3.69741 0
M  V30 8362 H 795.632 3.65053 2.82017 0
M  V30 8363 H 793.875 3.4749 2.59679 0
M  V30 8364 H 794.546 3.54775 4.22894 0
M  V30 8365 H 797.022 1.66635 3.81277 0
M  V30 8366 H 795.898 1.784 5.191 0
M  V30 8367 H 796.159 0.229908 4.41502 0
M  V30 8368 N 795.218 -1.23913 0.973828 0
M  V30 8369 C 796.448 -1.95911 0.655938 0
M  V30 8370 C 796.856 -1.72375 -0.779967 0
M  V30 8371 O 796.199 -1.00807 -1.5357 0
M  V30 8372 C 796.261 -3.49103 0.858324 0
M  V30 8373 C 795.925 -3.96347 2.27504 0
M  V30 8374 C 796.922 -4.05537 3.25324 0
M  V30 8375 C 794.607 -4.29509 2.60437 0
M  V30 8376 C 796.601 -4.47233 4.5416 0
M  V30 8377 C 794.288 -4.70887 3.89498 0
M  V30 8378 C 795.286 -4.79714 4.86172 0
M  V30 8379 O 794.974 -5.20166 6.1293 0
M  V30 8380 H 794.706 -0.630721 0.243244 0
M  V30 8381 H 797.26 -1.58534 1.30599 0
M  V30 8382 H 795.49 -3.86405 0.151097 0
M  V30 8383 H 797.179 -4.02311 0.538592 0
M  V30 8384 H 797.945 -3.80128 3.0121 0
M  V30 8385 H 793.824 -4.21853 1.85906 0
M  V30 8386 H 797.368 -4.54038 5.29618 0
M  V30 8387 H 793.265 -4.95744 4.1341 0
M  V30 8388 H 794.033 -5.38298 6.16586 0
M  V30 8389 N 796.696 -0.74468 -1.38897 0
M  V30 8390 C 798.107 -0.36568 -1.83084 0
M  V30 8391 C 798.458 1.10436 -1.62168 0
M  V30 8392 O 797.583 1.85281 -1.11804 0
M  V30 8393 C 798.178 -0.656946 -3.3237 0
M  V30 8394 C 796.737 -0.331329 -3.74939 0
M  V30 8395 C 795.884 -0.914661 -2.61781 0
M  V30 8396 H 798.835 -0.941551 -1.27752 0
M  V30 8397 H 798.856 0.0679546 -3.80439 0
M  V30 8398 H 798.368 -1.72693 -3.47561 0
M  V30 8399 H 796.469 0.732426 -3.6533 0
M  V30 8400 H 796.582 -0.820655 -4.72019 0
M  V30 8401 H 794.946 -0.34063 -2.52412 0
M  V30 8402 H 795.729 -1.98949 -2.79775 0
M  V30 8403 N 798.174 1.49689 -0.493057 0
M  V30 8404 C 799.422 2.02027 0.0541642 0
M  V30 8405 C 799.743 1.37554 1.38217 0
M  V30 8406 O 799.013 0.528174 1.88646 0
M  V30 8407 H 797.593 0.746646 0.0230069 0
M  V30 8408 H 800.255 1.83795 -0.648489 0
M  V30 8409 H 799.351 3.11523 0.189652 0
M  V30 8410 N 799.652 0.226554 1.55963 0
M  V30 8411 C 801.063 -0.280381 1.84583 0
M  V30 8412 C 801.414 -1.59105 1.14804 0
M  V30 8413 O 800.539 -2.12297 0.419414 0
M  V30 8414 C 801.134 -0.515499 3.34855 0
M  V30 8415 C 799.693 -0.966733 3.63774 0
M  V30 8416 C 798.84 -0.0325753 2.77281 0
M  V30 8417 H 801.791 0.449626 1.52197 0
M  V30 8418 H 801.812 -1.36085 3.55332 0
M  V30 8419 H 801.324 0.438594 3.85614 0
M  V30 8420 H 799.425 -1.93401 3.18476 0
M  V30 8421 H 799.538 -0.837679 4.7172 0
M  V30 8422 H 797.902 -0.540279 2.48904 0
M  V30 8423 H 798.685 0.916524 3.30839 0
M  V30 8424 N 801.13 -1.57531 -0.0467866 0
M  V30 8425 C 802.36 -1.92417 -0.752279 0
M  V30 8426 C 802.768 -0.823134 -1.70356 0
M  V30 8427 O 802.111 0.210598 -1.82489 0
M  V30 8428 C 802.173 -3.22974 -1.57887 0
M  V30 8429 C 801.837 -4.50045 -0.794285 0
M  V30 8430 C 802.834 -5.19799 -0.102368 0
M  V30 8431 C 800.519 -4.96608 -0.754061 0
M  V30 8432 C 802.513 -6.34385 0.619267 0
M  V30 8433 C 800.2 -6.11093 -0.0286682 0
M  V30 8434 C 801.198 -6.79835 0.656772 0
M  V30 8435 O 800.886 -7.92133 1.37042 0
M  V30 8436 H 800.618 -0.640029 -0.217576 0
M  V30 8437 H 803.172 -2.05395 -0.0137438 0
M  V30 8438 H 801.402 -3.06273 -2.3608 0
M  V30 8439 H 803.091 -3.43319 -2.16533 0
M  V30 8440 H 803.857 -4.8484 -0.124589 0
M  V30 8441 H 799.736 -4.42958 -1.27706 0
M  V30 8442 H 803.28 -6.87975 1.15483 0
M  V30 8443 H 799.177 -6.455 -0.00446214 0
M  V30 8444 H 799.945 -8.08394 1.28227 0
M  V30 8445 N 802.608 0.318715 -1.54344 0
M  V30 8446 C 803.838 1.07394 -1.76494 0
M  V30 8447 C 804.246 1.82031 -0.515881 0
M  V30 8448 O 803.589 1.7609 0.52325 0
M  V30 8449 C 803.651 2.11401 -2.90775 0
M  V30 8450 C 803.315 1.56118 -4.29507 0
M  V30 8451 C 804.312 1.00043 -5.10184 0
M  V30 8452 C 801.997 1.60215 -4.76063 0
M  V30 8453 C 803.991 0.487993 -6.35529 0
M  V30 8454 C 801.678 1.08584 -6.01376 0
M  V30 8455 C 802.676 0.529714 -6.80943 0
M  V30 8456 O 802.364 0.0211823 -8.03897 0
M  V30 8457 H 802.096 0.325061 -0.592715 0
M  V30 8458 H 804.65 0.36901 -2.02058 0
M  V30 8459 H 802.88 2.85524 -2.60793 0
M  V30 8460 H 804.569 2.72683 -3.00664 0
M  V30 8461 H 805.335 0.961811 -4.75367 0
M  V30 8462 H 801.214 2.02441 -4.14172 0
M  V30 8463 H 804.758 0.0532608 -6.9758 0
M  V30 8464 H 800.655 1.12155 -6.35682 0
M  V30 8465 H 801.423 0.136151 -8.18387 0
M  V30 8466 N 804.086 1.46499 0.581025 0
M  V30 8467 C 805.497 1.4604 1.16315 0
M  V30 8468 C 805.848 0.202154 1.95156 0
M  V30 8469 O 804.973 -0.694638 2.04948 0
M  V30 8470 C 805.568 2.64593 2.11604 0
M  V30 8471 C 804.127 2.6717 2.65136 0
M  V30 8472 C 803.274 2.38753 1.4104 0
M  V30 8473 H 806.225 1.54354 0.368871 0
M  V30 8474 H 806.246 2.40207 2.95095 0
M  V30 8475 H 805.758 3.56154 1.54194 0
M  V30 8476 H 803.859 1.79685 3.26411 0
M  V30 8477 H 803.972 3.67182 3.07757 0
M  V30 8478 H 802.336 1.88845 1.70908 0
M  V30 8479 H 803.119 3.32493 0.854588 0
M  V30 8480 N 805.565 -0.825799 1.34232 0
M  V30 8481 C 806.813 -1.57873 1.26177 0
M  V30 8482 C 807.134 -1.94267 -0.168904 0
M  V30 8483 O 806.404 -1.62045 -1.10084 0
M  V30 8484 H 804.984 -0.585388 0.464037 0
M  V30 8485 H 807.646 -0.986163 1.6811 0
M  V30 8486 H 806.742 -2.50283 1.86453 0
M  V30 8487 N 807.043 -1.17915 -1.04565 0
M  V30 8488 C 808.273 -0.994716 -1.81077 0
M  V30 8489 C 808.681 0.460146 -1.83519 0
M  V30 8490 O 808.024 1.33136 -1.26572 0
M  V30 8491 C 808.086 -1.46698 -3.28207 0
M  V30 8492 C 807.75 -2.94523 -3.49436 0
M  V30 8493 C 808.747 -3.92414 -3.41038 0
M  V30 8494 C 806.432 -3.32841 -3.76194 0
M  V30 8495 C 808.426 -5.2662 -3.59096 0
M  V30 8496 C 806.113 -4.67212 -3.93899 0
M  V30 8497 C 807.111 -5.6391 -3.8535 0
M  V30 8498 O 806.799 -6.95849 -4.02554 0
M  V30 8499 H 806.531 -0.351797 -0.577248 0
M  V30 8500 H 809.085 -1.56772 -1.32709 0
M  V30 8501 H 807.315 -0.837592 -3.7752 0
M  V30 8502 H 809.004 -1.24724 -3.86263 0
M  V30 8503 H 809.77 -3.64157 -3.20336 0
M  V30 8504 H 805.649 -2.58139 -3.81949 0
M  V30 8505 H 809.193 -6.02082 -3.52339 0
M  V30 8506 H 805.09 -4.95172 -4.14095 0
M  V30 8507 H 805.858 -7.02679 -4.19743 0
M  V30 8508 N 808.521 1.23394 -0.980386 0
M  V30 8509 C 809.932 1.73631 -0.686239 0
M  V30 8510 C 810.283 1.79259 0.797541 0
M  V30 8511 O 809.408 1.43046 1.62379 0
M  V30 8512 C 810.003 3.15332 -1.239 0
M  V30 8513 C 808.562 3.63024 -0.994494 0
M  V30 8514 C 807.709 2.41279 -1.36673 0
M  V30 8515 H 810.66 1.08918 -1.15423 0
M  V30 8516 H 810.681 3.75556 -0.611414 0
M  V30 8517 H 810.193 3.11204 -2.31892 0
M  V30 8518 H 808.294 3.72535 0.0693492 0
M  V30 8519 H 808.407 4.49825 -1.64906 0
M  V30 8520 H 806.771 2.42295 -0.785195 0
M  V30 8521 H 807.554 2.39822 -2.45642 0
M  V30 8522 N 809.999 0.752036 1.385 0
M  V30 8523 C 811.227 0.318274 2.04437 0
M  V30 8524 C 811.642 -1.05285 1.56718 0
M  V30 8525 O 810.999 -1.66844 0.73956 0
M  V30 8526 C 811.05 0.330106 3.5999 0
M  V30 8527 O 810.771 1.64712 4.05957 0
M  V30 8528 C 812.272 -0.117713 4.43144 0
M  V30 8529 H 809.492 0.136228 0.657026 0
M  V30 8530 H 812.036 1.02045 1.7722 0
M  V30 8531 H 810.191 -0.323323 3.86048 0
M  V30 8532 H 810.605 1.57225 5.0038 0
M  V30 8533 H 812.079 -0.0582735 5.51969 0
M  V30 8534 H 812.556 -1.16538 4.23457 0
M  V30 8535 H 813.162 0.506784 4.2227 0
M  V30 8536 N 811.477 -1.49425 0.500989 0
M  V30 8537 C 812.888 -1.86624 0.0532011 0
M  V30 8538 C 813.239 -1.41331 -1.36088 0
M  V30 8539 O 812.364 -0.791195 -2.01418 0
M  V30 8540 C 812.959 -3.38681 0.0897693 0
M  V30 8541 C 811.518 -3.75181 -0.302677 0
M  V30 8542 C 810.665 -2.73419 0.462307 0
M  V30 8543 H 813.616 -1.41743 0.713773 0
M  V30 8544 H 813.637 -3.73902 -0.705528 0
M  V30 8545 H 813.149 -3.71616 1.11907 0
M  V30 8546 H 811.25 -3.47855 -1.33521 0
M  V30 8547 H 811.363 -4.79097 0.0167653 0
M  V30 8548 H 809.727 -2.54548 -0.0878557 0
M  V30 8549 H 810.51 -3.09198 1.49169 0
M  V30 8550 N 812.955 -0.234822 -1.55841 0
M  V30 8551 C 814.18 0.400741 -2.03492 0
M  V30 8552 C 814.605 1.51618 -1.11327 0
M  V30 8553 O 813.963 1.81002 -0.103922 0
M  V30 8554 C 814.011 0.897184 -3.49261 0
M  V30 8555 O 813.115 2.00764 -3.60233 0
M  V30 8556 H 812.456 0.0890023 -0.658008 0
M  V30 8557 H 814.986 -0.357345 -2.01455 0
M  V30 8558 H 814.996 1.20356 -3.89844 0
M  V30 8559 H 813.671 0.0808639 -4.15821 0
M  V30 8560 H 812.248 1.70689 -3.31541 0
M  V30 8561 N 814.433 1.57553 0.0384317 0
M  V30 8562 C 815.681 1.88468 0.729672 0
M  V30 8563 C 816.002 0.831302 1.76393 0
M  V30 8564 O 815.272 -0.13622 1.95426 0
M  V30 8565 H 813.852 0.695529 0.272485 0
M  V30 8566 H 816.514 1.94899 0.0066032 0
M  V30 8567 H 815.61 2.8705 1.22511 0
M  V30 8568 N 815.911 -0.310526 1.54511 0
M  V30 8569 C 816.843 -1.40405 1.8116 0
M  V30 8570 C 817.856 -1.47261 0.694114 0
M  V30 8571 O 819.045 -1.49751 0.971441 0
M  V30 8572 C 816.145 -2.78849 1.92604 0
M  V30 8573 C 815.318 -2.95041 3.22908 0
M  V30 8574 C 814.377 -4.13925 3.24889 0
M  V30 8575 O 813.403 -4.06463 3.98467 0
M  V30 8576 N 814.605 -5.24099 2.496 0
M  V30 8577 H 817.37 -1.17903 2.75534 0
M  V30 8578 H 814.931 -0.500564 1.53967 0
M  V30 8579 H 816.923 -3.5661 1.91342 0
M  V30 8580 H 815.493 -2.94342 1.05268 0
M  V30 8581 H 814.713 -2.04472 3.37023 0
M  V30 8582 H 816.001 -3.02763 4.08916 0
M  V30 8583 H 815.399 -5.33039 1.89435 0
M  V30 8584 H 813.956 -6.0023 2.54102 0
M  V30 8585 N 817.389 -1.46805 -0.573248 0
M  V30 8586 C 818.619 -1.55965 -1.35494 0
M  V30 8587 C 819.027 -0.203038 -1.88107 0
M  V30 8588 O 818.37 0.81138 -1.6481 0
M  V30 8589 C 818.432 -2.51168 -2.57206 0
M  V30 8590 C 818.096 -3.97211 -2.25993 0
M  V30 8591 C 819.093 -4.86155 -1.84254 0
M  V30 8592 C 816.778 -4.42419 -2.37846 0
M  V30 8593 C 818.772 -6.18323 -1.54776 0
M  V30 8594 C 816.459 -5.74619 -2.0798 0
M  V30 8595 C 817.457 -6.62392 -1.66511 0
M  V30 8596 O 817.145 -7.92137 -1.37016 0
M  V30 8597 H 816.877 -0.529748 -0.419932 0
M  V30 8598 H 819.431 -1.92998 -0.702914 0
M  V30 8599 H 817.661 -2.09171 -3.25245 0
M  V30 8600 H 819.35 -2.50631 -3.19279 0
M  V30 8601 H 820.116 -4.52481 -1.74603 0
M  V30 8602 H 815.995 -3.74319 -2.69085 0
M  V30 8603 H 819.539 -6.8679 -1.22334 0
M  V30 8604 H 815.436 -6.0784 -2.17258 0
M  V30 8605 H 816.204 -8.04492 -1.50782 0
M  V30 8606 N 818.867 0.818669 -1.34668 0
M  V30 8607 C 820.113 1.57746 -1.27453 0
M  V30 8608 C 820.446 1.93588 0.154077 0
M  V30 8609 O 819.721 1.60371 1.10051 0
M  V30 8610 C 820.004 2.87414 -2.16945 0
M  V30 8611 C 819.857 2.58125 -3.68363 0
M  V30 8612 C 821.176 3.89021 -2.05792 0
M  V30 8613 H 818.295 0.572339 -0.464324 0
M  V30 8614 H 820.937 0.942784 -1.64959 0
M  V30 8615 H 819.087 3.41576 -1.85089 0
M  V30 8616 H 820.759 2.10239 -4.10606 0
M  V30 8617 H 819.002 1.91503 -3.89242 0
M  V30 8618 H 819.673 3.5061 -4.26353 0
M  V30 8619 H 822.149 3.44224 -2.33771 0
M  V30 8620 H 821.025 4.77548 -2.70628 0
M  V30 8621 H 821.286 4.29786 -1.03618 0
M  V30 8622 N 820.346 1.18468 1.03938 0
M  V30 8623 C 821.586 0.991823 1.78724 0
M  V30 8624 C 821.95 -0.470115 1.86156 0
M  V30 8625 O 823.151 -0.782451 2.5716 0
M  V30 8626 C 821.422 1.63018 3.18056 0
M  V30 8627 S 822.981 1.58527 4.09163 0
M  V30 8628 H 819.799 0.356137 0.615376 0
M  V30 8629 H 822.401 1.50634 1.24618 0
M  V30 8630 H 821.105 2.68642 3.10258 0
M  V30 8631 H 820.636 1.11601 3.77238 0
M  V30 8632 H 822.651 0.602059 4.92534 0
M  V30 8633 N 821.824 -1.22873 0.986916 0
M  V30 8634 C 823.049 -1.96028 0.677341 0
M  V30 8635 C 823.474 -1.72487 -0.750319 0
M  V30 8636 O 822.832 -1.00036 -1.51203 0
M  V30 8637 C 822.88 -3.46983 0.981593 0
M  V30 8638 O 821.984 -4.12328 0.0770729 0
M  V30 8639 H 821.325 -0.613458 0.254096 0
M  V30 8640 H 823.855 -1.56132 1.32227 0
M  V30 8641 H 823.865 -3.9747 0.920969 0
M  V30 8642 H 822.54 -3.63442 2.02194 0
M  V30 8643 H 821.117 -3.72402 0.192666 0
M  V30 8644 N 823.302 -0.75937 -1.38099 0
M  V30 8645 C 824.713 -0.385078 -1.82686 0
M  V30 8646 C 825.064 1.0871 -1.6333 0
M  V30 8647 O 824.189 1.84084 -1.13762 0
M  V30 8648 C 824.784 -0.692161 -3.31654 0
M  V30 8649 C 823.343 -0.371077 -3.74566 0
M  V30 8650 C 822.49 -0.942375 -2.60796 0
M  V30 8651 H 825.441 -0.955048 -1.26746 0
M  V30 8652 H 825.462 0.0276001 -3.8049 0
M  V30 8653 H 824.974 -1.76369 -3.4571 0
M  V30 8654 H 823.075 0.693637 -3.66087 0
M  V30 8655 H 823.188 -0.870672 -4.71122 0
M  V30 8656 H 821.552 -0.367383 -2.52036 0
M  V30 8657 H 822.335 -2.01905 -2.77649 0
M  V30 8658 N 824.78 1.49157 -0.508906 0
M  V30 8659 C 825.71 2.32109 0.254469 0
M  V30 8660 C 826.691 1.40754 0.955111 0
M  V30 8661 O 827.876 1.69658 0.944983 0
M  V30 8662 C 825.006 3.21458 1.3146 0
M  V30 8663 C 823.96 4.2167 0.733368 0
M  V30 8664 C 823.286 5.00009 1.8946 0
M  V30 8665 C 824.586 5.21544 -0.280875 0
M  V30 8666 H 826.28 2.9618 -0.43795 0
M  V30 8667 H 823.826 1.4243 -0.212062 0
M  V30 8668 H 825.779 3.78305 1.85643 0
M  V30 8669 H 824.503 2.55346 2.03632 0
M  V30 8670 H 823.162 3.65979 0.213231 0
M  V30 8671 H 822.81 4.30338 2.60419 0
M  V30 8672 H 822.51 5.67821 1.51173 0
M  V30 8673 H 824.034 5.59702 2.44061 0
M  V30 8674 H 825.448 5.73039 0.173095 0
M  V30 8675 H 823.845 5.97291 -0.580006 0
M  V30 8676 H 824.915 4.69969 -1.19404 0
M  V30 8677 N 826.258 0.243083 1.55714 0
M  V30 8678 C 827.669 -0.260788 1.8487 0
M  V30 8679 C 828.02 -1.57879 1.16485 0
M  V30 8680 O 827.145 -2.1184 0.441908 0
M  V30 8681 C 827.74 -0.479954 3.35383 0
M  V30 8682 C 826.299 -0.928096 3.64778 0
M  V30 8683 C 825.446 -0.00316416 2.773 0
M  V30 8684 H 828.397 0.465743 1.51712 0
M  V30 8685 H 828.418 -1.32308 3.56756 0
M  V30 8686 H 827.93 0.479468 3.85127 0
M  V30 8687 H 826.031 -1.90012 3.20509 0
M  V30 8688 H 826.144 -0.7876 4.72582 0
M  V30 8689 H 824.508 -0.513849 2.49463 0
M  V30 8690 H 825.291 0.951562 3.29849 0
M  V30 8691 N 827.736 -1.57571 -0.0300757 0
M  V30 8692 C 828.964 -1.93485 -0.732891 0
M  V30 8693 C 829.379 -0.842758 -1.68947 0
M  V30 8694 O 828.736 0.180904 -1.81601 0
M  V30 8695 C 828.787 -3.29328 -1.49082 0
M  V30 8696 O 828.508 -4.34341 -0.572639 0
M  V30 8697 C 830.009 -3.79517 -2.29088 0
M  V30 8698 H 827.229 -0.638588 -0.206026 0
M  V30 8699 H 829.773 -2.04496 0.0120966 0
M  V30 8700 H 827.928 -3.19716 -2.1877 0
M  V30 8701 H 828.342 -5.12748 -1.10406 0
M  V30 8702 H 829.816 -4.77081 -2.77665 0
M  V30 8703 H 830.293 -3.10659 -3.10464 0
M  V30 8704 H 830.899 -3.92208 -1.64477 0
M  V30 8705 N 829.214 0.302327 -1.54673 0
M  V30 8706 C 830.439 1.06103 -1.78205 0
M  V30 8707 C 830.864 1.80204 -0.53926 0
M  V30 8708 O 830.222 1.73975 0.510142 0
M  V30 8709 C 830.27 2.01829 -2.98827 0
M  V30 8710 O 829.374 3.10108 -2.71858 0
M  V30 8711 H 828.715 0.30487 -0.589873 0
M  V30 8712 H 831.245 0.340153 -2.01753 0
M  V30 8713 H 831.255 2.44319 -3.2676 0
M  V30 8714 H 829.93 1.473 -3.88942 0
M  V30 8715 H 828.507 2.72142 -2.54937 0
M  V30 8716 N 830.692 1.47107 0.565454 0
M  V30 8717 C 831.92 1.56909 1.3486 0
M  V30 8718 C 832.335 0.216312 1.87557 0
M  V30 8719 O 831.692 -0.789168 1.64555 0
M  V30 8720 C 831.743 2.58776 2.52423 0
M  V30 8721 O 831.464 3.888 2.01906 0
M  V30 8722 C 832.965 2.78683 3.44747 0
M  V30 8723 H 830.185 0.530096 0.411387 0
M  V30 8724 H 832.729 1.92658 0.685782 0
M  V30 8725 H 830.884 2.25983 3.1466 0
M  V30 8726 H 831.298 4.44393 2.78595 0
M  V30 8727 H 832.772 3.53842 4.23674 0
M  V30 8728 H 833.249 1.86208 3.97773 0
M  V30 8729 H 833.855 3.12641 2.88333 0
M  V30 8730 N 832.17 -0.811516 1.35101 0
M  V30 8731 C 833.103 -1.92872 1.21966 0
M  V30 8732 C 834.081 -1.62236 0.108667 0
M  V30 8733 O 835.265 -1.8647 0.275875 0
M  V30 8734 C 832.392 -3.27152 0.876886 0
M  V30 8735 C 831.438 -3.7674 1.99924 0
M  V30 8736 S 832.271 -3.95132 3.61429 0
M  V30 8737 C 833.427 -5.32322 3.29218 0
M  V30 8738 H 833.66 -2.03718 2.16532 0
M  V30 8739 H 831.193 -0.968352 1.20259 0
M  V30 8740 H 833.151 -4.04729 0.685917 0
M  V30 8741 H 831.812 -3.14059 -0.0506289 0
M  V30 8742 H 831.005 -4.73981 1.71343 0
M  V30 8743 H 830.607 -3.06145 2.14829 0
M  V30 8744 H 832.899 -6.1614 2.8174 0
M  V30 8745 H 833.842 -5.65893 4.25641 0
M  V30 8746 H 834.25 -4.98374 2.65111 0
M  V30 8747 N 833.648 -1.19017 -1.03309 0
M  V30 8748 C 834.873 -1.01598 -1.80811 0
M  V30 8749 C 835.298 0.430773 -1.83101 0
M  V30 8750 O 834.656 1.30946 -1.25391 0
M  V30 8751 C 834.704 -1.5845 -3.23923 0
M  V30 8752 O 833.808 -0.810972 -4.04348 0
M  V30 8753 H 833.149 -0.359398 -0.558327 0
M  V30 8754 H 835.679 -1.57945 -1.30055 0
M  V30 8755 H 835.689 -1.61486 -3.74682 0
M  V30 8756 H 834.364 -2.63752 -3.21571 0
M  V30 8757 H 832.941 -0.85353 -3.63 0
M  V30 8758 N 835.127 1.22348 -0.993418 0
M  V30 8759 C 836.538 1.72893 -0.704616 0
M  V30 8760 C 836.889 1.80095 0.778483 0
M  V30 8761 O 836.014 1.4476 1.60853 0
M  V30 8762 C 836.609 3.14 -1.27237 0
M  V30 8763 C 835.168 3.61949 -1.03294 0
M  V30 8764 C 834.315 2.39816 -1.39225 0
M  V30 8765 H 837.266 1.07688 -1.16572 0
M  V30 8766 H 837.287 3.74886 -0.651212 0
M  V30 8767 H 836.799 3.08727 -2.3518 0
M  V30 8768 H 834.9 3.72588 0.0298329 0
M  V30 8769 H 835.013 4.48051 -1.69668 0
M  V30 8770 H 833.377 2.41448 -0.810849 0
M  V30 8771 H 834.16 2.37203 -2.48172 0
M  V30 8772 N 836.605 0.766683 1.37694 0
M  V30 8773 C 837.515 0.150158 2.34119 0
M  V30 8774 C 838.531 -0.685513 1.59927 0
M  V30 8775 O 839.707 -0.606616 1.92047 0
M  V30 8776 C 836.772 -0.722562 3.39087 0
M  V30 8777 C 835.833 0.128983 4.29106 0
M  V30 8778 C 835.066 -0.702178 5.29061 0
M  V30 8779 O 835.289 -1.93954 5.36412 0
M  V30 8780 O 834.223 -0.114056 6.01792 0
M  V30 8781 H 838.049 0.946829 2.88563 0
M  V30 8782 H 835.634 0.527765 1.39768 0
M  V30 8783 H 837.516 -1.22095 4.03325 0
M  V30 8784 H 836.191 -1.49751 2.86978 0
M  V30 8785 H 835.098 0.673612 3.67985 0
M  V30 8786 H 836.431 0.866892 4.84506 0
M  V30 8787 N 838.083 -1.48885 0.516809 0
M  V30 8788 C 838.993 -2.33185 -0.257293 0
M  V30 8789 C 840.009 -1.4565 -0.951952 0
M  V30 8790 O 841.185 -1.78651 -0.929834 0
M  V30 8791 C 838.25 -3.21465 -1.29851 0
M  V30 8792 C 837.311 -4.24863 -0.615608 0
M  V30 8793 C 836.544 -5.08925 -1.60722 0
M  V30 8794 O 836.767 -4.9475 -2.83863 0
M  V30 8795 O 835.701 -5.90737 -1.15384 0
M  V30 8796 H 839.527 -3.00596 0.433131 0
M  V30 8797 H 837.112 -1.46792 0.277908 0
M  V30 8798 H 838.994 -3.76108 -1.90055 0
M  V30 8799 H 837.669 -2.5673 -1.97158 0
M  V30 8800 H 836.576 -3.74091 0.0265829 0
M  V30 8801 H 837.909 -4.92198 0.0152871 0
M  V30 8802 N 839.561 -0.251338 -1.55583 0
M  V30 8803 C 840.807 0.37272 -1.99346 0
M  V30 8804 C 841.14 1.57266 -1.13934 0
M  V30 8805 O 840.415 1.9343 -0.20377 0
M  V30 8806 C 840.698 0.778245 -3.5159 0
M  V30 8807 C 840.551 -0.427394 -4.47765 0
M  V30 8808 C 841.87 1.62358 -4.09057 0
M  V30 8809 H 838.989 0.134002 -0.724715 0
M  V30 8810 H 841.631 -0.353536 -1.86682 0
M  V30 8811 H 839.781 1.39704 -3.62512 0
M  V30 8812 H 841.453 -1.06586 -4.48818 0
M  V30 8813 H 839.696 -1.06972 -4.20404 0
M  V30 8814 H 840.367 -0.10025 -5.51909 0
M  V30 8815 H 842.843 1.1012 -4.01264 0
M  V30 8816 H 841.719 1.87617 -5.1584 0
M  V30 8817 H 841.98 2.59688 -3.57791 0
M  V30 8818 N 841.039 1.57585 0.0217189 0
M  V30 8819 C 841.949 2.10444 1.03684 0
M  V30 8820 C 842.965 1.04472 1.39146 0
M  V30 8821 O 844.141 1.36249 1.48317 0
M  V30 8822 C 841.206 2.5794 2.31664 0
M  V30 8823 C 840.267 3.78425 2.02714 0
M  V30 8824 C 839.5 4.23646 3.24592 0
M  V30 8825 O 839.723 3.6834 4.35525 0
M  V30 8826 O 838.657 5.16013 3.09862 0
M  V30 8827 H 842.483 2.97354 0.617584 0
M  V30 8828 H 840.068 1.47473 0.239174 0
M  V30 8829 H 841.95 2.88785 3.06889 0
M  V30 8830 H 840.625 1.74138 2.7287 0
M  V30 8831 H 839.532 3.52587 1.25033 0
M  V30 8832 H 840.865 4.63234 1.66359 0
M  V30 8833 N 842.517 -0.29412 1.54831 0
M  V30 8834 C 843.449 -1.38476 1.82639 0
M  V30 8835 C 844.462 -1.46517 0.709694 0
M  V30 8836 O 845.651 -1.48712 0.987269 0
M  V30 8837 C 842.751 -2.76791 1.95551 0
M  V30 8838 C 841.924 -2.91599 3.26019 0
M  V30 8839 C 840.983 -4.10456 3.29261 0
M  V30 8840 O 840.009 -4.02214 4.02756 0
M  V30 8841 N 841.211 -5.21422 2.55145 0
M  V30 8842 H 843.976 -1.14974 2.76769 0
M  V30 8843 H 841.537 -0.484206 1.5449 0
M  V30 8844 H 843.529 -3.5456 1.95113 0
M  V30 8845 H 842.099 -2.93209 1.08384 0
M  V30 8846 H 841.319 -2.00886 3.39173 0
M  V30 8847 H 842.607 -2.98409 4.12104 0
M  V30 8848 H 842.005 -5.31 1.95078 0
M  V30 8849 H 840.562 -5.97501 2.60454 0
M  V30 8850 N 843.995 -1.47404 -0.557645 0
M  V30 8851 C 844.945 -1.56267 -1.66026 0
M  V30 8852 C 845.929 -0.42161 -1.55278 0
M  V30 8853 O 847.121 -0.671505 -1.63768 0
M  V30 8854 C 844.25 -1.57958 -3.04802 0
M  V30 8855 C 843.336 -2.77447 -3.20755 0
M  V30 8856 N 843.727 -4.02148 -3.06775 0
M  V30 8857 C 842.025 -2.74199 -3.51754 0
M  V30 8858 C 842.726 -4.82168 -3.25406 0
M  V30 8859 N 841.702 -4.14481 -3.5172 0
M  V30 8860 H 845.504 -2.50454 -1.53785 0
M  V30 8861 H 843.018 -1.43392 -0.762388 0
M  V30 8862 H 845.015 -1.62397 -3.8397 0
M  V30 8863 H 843.675 -0.648667 -3.18155 0
M  V30 8864 H 844.686 -4.33014 -2.84111 0
M  V30 8865 H 841.363 -1.90243 -3.71637 0
M  V30 8866 H 842.753 -5.91037 -3.19569 0
M  V30 8867 N 845.473 0.80434 -1.35529 0
M  V30 8868 C 846.406 1.92222 -1.22987 0
M  V30 8869 C 847.384 1.62177 -0.117269 0
M  V30 8870 O 848.568 1.86321 -0.285761 0
M  V30 8871 C 845.695 3.26682 -0.894223 0
M  V30 8872 C 844.741 3.75674 -2.01919 0
M  V30 8873 S 845.574 3.93209 -3.6352 0
M  V30 8874 C 846.73 5.30568 -3.32037 0
M  V30 8875 H 846.963 2.02567 -2.1761 0
M  V30 8876 H 844.496 0.961961 -1.20771 0
M  V30 8877 H 846.454 4.04359 -0.707371 0
M  V30 8878 H 845.115 3.14082 0.0339729 0
M  V30 8879 H 844.308 4.73065 -1.73854 0
M  V30 8880 H 843.91 3.05001 -2.16449 0
M  V30 8881 H 846.202 6.14637 -2.85004 0
M  V30 8882 H 847.145 5.63628 -4.28636 0
M  V30 8883 H 847.553 4.96961 -2.6775 0
M  V30 8884 N 846.951 1.19563 1.02676 0
M  V30 8885 C 848.367 0.948304 1.28372 0
M  V30 8886 C 848.567 -0.378096 1.97921 0
M  V30 8887 O 847.623 -1.1091 2.26838 0
M  V30 8888 C 848.936 2.12381 2.12873 0
M  V30 8889 C 850.484 2.16366 2.26174 0
M  V30 8890 C 850.959 3.33374 3.14048 0
M  V30 8891 N 852.45 3.33323 3.21636 0
M  V30 8892 C 853.185 4.20504 3.89825 0
M  V30 8893 N 852.681 5.17845 4.60227 0
M  V30 8894 N 854.474 4.08375 3.86246 0
M  V30 8895 H 846.625 2.04899 0.559485 0
M  V30 8896 H 848.888 0.89606 0.309484 0
M  V30 8897 H 848.594 3.08383 1.69094 0
M  V30 8898 H 848.468 2.09621 3.1359 0
M  V30 8899 H 850.855 1.20933 2.69182 0
M  V30 8900 H 850.936 2.23179 1.25 0
M  V30 8901 H 850.58 4.29087 2.71747 0
M  V30 8902 H 850.51 3.23798 4.15286 0
M  V30 8903 H 853.001 2.62863 2.71498 0
M  V30 8904 H 853.314 5.80712 5.09896 0
M  V30 8905 H 851.659 5.21791 4.59085 0
M  V30 8906 H 854.85 3.31606 3.30386 0
M  V30 8907 H 855.023 4.76532 4.39114 0
M  V30 8908 N 848.429 -1.21819 0.999893 0
M  V30 8909 C 849.377 -2.26027 0.549047 0
M  V30 8910 C 850.371 -1.64516 -0.403826 0
M  V30 8911 O 851.577 -1.77878 -0.275578 0
M  V30 8912 H 847.952 -0.734958 0.159185 0
M  V30 8913 H 849.923 -2.61398 1.43923 0
M  V30 8914 C 848.672 -3.47514 -0.11369 0
M  V30 8915 H 847.995 -3.95112 0.610482 0
M  V30 8916 H 849.435 -4.22179 -0.3925 0
M  V30 8917 C 847.894 -3.08614 -1.35126 0
M  V30 8918 O 848.424 -3.1864 -2.44605 0
M  V30 8919 N 846.63 -2.63327 -1.22911 0
M  V30 8920 H 846.177 -2.55369 -0.338288 0
M  V30 8921 H 846.135 -2.37668 -2.05818 0
M  V30 8922 N 849.908 -0.773975 -1.37286 0
M  V30 8923 C 850.838 -0.175782 -2.32837 0
M  V30 8924 C 851.819 0.680603 -1.5589 0
M  V30 8925 O 853.004 0.617607 -1.84117 0
M  V30 8926 C 850.134 0.702388 -3.40123 0
M  V30 8927 C 849.088 -0.0528687 -4.27967 0
M  V30 8928 C 848.414 0.944891 -5.26285 0
M  V30 8929 C 849.714 -1.23316 -5.07534 0
M  V30 8930 H 851.408 -0.974016 -2.83114 0
M  V30 8931 H 848.954 -0.469826 -1.3612 0
M  V30 8932 H 850.907 1.13069 -4.05947 0
M  V30 8933 H 849.631 1.53316 -2.88378 0
M  V30 8934 H 848.29 -0.461978 -3.63678 0
M  V30 8935 H 847.938 1.77028 -4.70819 0
M  V30 8936 H 847.638 0.444079 -5.8592 0
M  V30 8937 H 849.162 1.37209 -5.94984 0
M  V30 8938 H 850.576 -0.881395 -5.66484 0
M  V30 8939 H 848.973 -1.66621 -5.76504 0
M  V30 8940 H 850.043 -2.03617 -4.40077 0
M  V30 8941 N 851.386 1.48609 -0.524698 0
M  V30 8942 C 852.318 2.27508 0.278 0
M  V30 8943 C 853.331 1.35042 0.909258 0
M  V30 8944 O 854.52 1.60136 0.788592 0
M  V30 8945 C 851.62 3.08247 1.40843 0
M  V30 8946 C 850.793 4.28455 0.880083 0
M  V30 8947 C 849.852 4.91048 1.891 0
M  V30 8948 O 848.878 5.5042 1.45005 0
M  V30 8949 N 850.08 4.82816 3.22288 0
M  V30 8950 H 852.845 2.97037 -0.398642 0
M  V30 8951 H 850.406 1.57876 -0.358698 0
M  V30 8952 H 852.398 3.46992 2.08276 0
M  V30 8953 H 850.968 2.41173 1.98883 0
M  V30 8954 H 850.188 3.94189 0.0299228 0
M  V30 8955 H 851.476 5.06279 0.505881 0
M  V30 8956 H 850.874 4.3572 3.60783 0
M  V30 8957 H 849.431 5.25676 3.85368 0
M  V30 8958 N 852.864 0.259585 1.55447 0
M  V30 8959 C 853.796 -0.667548 2.19263 0
M  V30 8960 C 854.809 -1.12925 1.17268 0
M  V30 8961 O 855.998 -1.05384 1.44071 0
M  V30 8962 C 853.098 -1.92066 2.7922 0
M  V30 8963 C 852.271 -1.60832 4.06758 0
M  V30 8964 C 851.33 -2.71231 4.50911 0
M  V30 8965 O 850.356 -2.38077 5.17019 0
M  V30 8966 N 851.558 -4.00984 4.19752 0
M  V30 8967 H 854.323 -0.121449 2.99454 0
M  V30 8968 H 851.884 0.0800519 1.61702 0
M  V30 8969 H 853.876 -2.65186 3.0571 0
M  V30 8970 H 852.446 -2.37621 2.03113 0
M  V30 8971 H 851.666 -0.711685 3.87722 0
M  V30 8972 H 852.954 -1.37445 4.89884 0
M  V30 8973 H 852.352 -4.30748 3.66706 0
M  V30 8974 H 850.909 -4.7053 4.51048 0
M  V30 8975 N 854.342 -1.57594 -0.0133615 0
M  V30 8976 C 855.274 -2.04402 -1.03695 0
M  V30 8977 C 856.287 -0.959546 -1.31516 0
M  V30 8978 O 857.476 -1.23659 -1.28727 0
M  V30 8979 C 854.576 -2.41766 -2.37491 0
M  V30 8980 C 853.749 -3.72785 -2.28802 0
M  V30 8981 C 852.808 -3.97165 -3.45176 0
M  V30 8982 O 851.834 -4.68013 -3.23963 0
M  V30 8983 N 853.036 -3.44021 -4.67579 0
M  V30 8984 H 855.801 -2.92833 -0.637874 0
M  V30 8985 H 853.362 -1.60647 -0.20101 0
M  V30 8986 H 855.354 -2.55201 -3.14093 0
M  V30 8987 H 853.924 -1.58924 -2.69188 0
M  V30 8988 H 853.144 -3.69555 -1.37197 0
M  V30 8989 H 854.432 -4.58704 -2.20154 0
M  V30 8990 H 853.83 -2.86623 -4.87713 0
M  V30 8991 H 852.387 -3.62808 -5.41492 0
M  V30 8992 N 855.82 0.285905 -1.54985 0
M  V30 8993 C 856.73 1.37534 -1.90057 0
M  V30 8994 C 857.746 1.54707 -0.796348 0
M  V30 8995 O 858.922 1.69082 -1.09423 0
M  V30 8996 C 855.987 2.7167 -2.15398 0
M  V30 8997 C 855.048 2.63354 -3.39033 0
M  V30 8998 C 854.281 3.91093 -3.63155 0
M  V30 8999 O 854.504 4.91169 -2.90015 0
M  V30 9000 O 853.438 3.92075 -4.56685 0
M  V30 9001 H 857.264 1.10791 -2.8277 0
M  V30 9002 H 854.849 0.483303 -1.41367 0
M  V30 9003 H 856.731 3.51006 -2.33179 0
M  V30 9004 H 855.406 2.98226 -1.25868 0
M  V30 9005 H 854.313 1.82438 -3.26599 0
M  V30 9006 H 855.646 2.41749 -4.2874 0
M  V30 9007 N 857.298 1.47698 0.54982 0
M  V30 9008 C 858.228 1.63622 1.66583 0
M  V30 9009 C 859.209 0.485477 1.63025 0
M  V30 9010 O 860.394 0.715692 1.80531 0
M  V30 9011 C 857.524 1.65721 3.05211 0
M  V30 9012 C 856.478 2.80097 3.2362 0
M  V30 9013 C 855.804 2.67272 4.63109 0
M  V30 9014 C 857.104 4.21612 3.08286 0
M  V30 9015 H 858.798 2.57049 1.53512 0
M  V30 9016 H 856.344 1.23705 0.737099 0
M  V30 9017 H 858.297 1.75451 3.83138 0
M  V30 9018 H 857.021 0.688593 3.19258 0
M  V30 9019 H 855.68 2.69889 2.48104 0
M  V30 9020 H 855.328 1.68422 4.73965 0
M  V30 9021 H 855.028 3.44008 4.76374 0
M  V30 9022 H 856.552 2.78942 5.43161 0
M  V30 9023 H 857.966 4.32758 3.76024 0
M  V30 9024 H 856.363 4.99193 3.33057 0
M  V30 9025 H 857.433 4.39462 2.04942 0
M  V30 9026 N 858.776 -0.797141 1.35954 0
M  V30 9027 C 859.726 -1.89899 1.26184 0
M  V30 9028 C 860.71 -1.60152 0.155007 0
M  V30 9029 O 861.902 -1.72715 0.387108 0
M  V30 9030 C 859.031 -3.2699 1.04559 0
M  V30 9031 C 858.117 -3.62772 2.19675 0
M  V30 9032 N 858.508 -3.6992 3.44953 0
M  V30 9033 C 856.806 -3.92786 2.1127 0
M  V30 9034 C 857.507 -4.01718 4.20711 0
M  V30 9035 N 856.483 -4.16298 3.49567 0
M  V30 9036 H 860.285 -1.9364 2.2109 0
M  V30 9037 H 857.799 -0.992246 1.28562 0
M  V30 9038 H 859.796 -4.0578 0.956474 0
M  V30 9039 H 858.456 -3.24529 0.105467 0
M  V30 9040 H 859.467 -3.52759 3.79185 0
M  V30 9041 H 856.144 -3.98295 1.25168 0
M  V30 9042 H 857.534 -4.14237 5.29016 0
M  V30 9043 N 860.254 -1.20106 -1.0204 0
M  V30 9044 C 861.67 -0.955099 -1.27867 0
M  V30 9045 C 861.87 0.367595 -1.98119 0
M  V30 9046 O 860.926 1.09705 -2.27423 0
M  V30 9047 C 862.239 -2.13507 -2.11744 0
M  V30 9048 C 863.787 -2.17563 -2.25023 0
M  V30 9049 C 864.262 -3.35035 -3.12275 0
M  V30 9050 N 865.753 -3.35024 -3.19864 0
M  V30 9051 C 866.488 -4.22566 -3.8759 0
M  V30 9052 N 865.984 -5.20278 -4.57474 0
M  V30 9053 N 867.777 -4.10418 -3.84075 0
M  V30 9054 H 859.928 -2.05193 -0.54861 0
M  V30 9055 H 862.191 -0.897689 -0.304728 0
M  V30 9056 H 861.897 -3.09275 -1.67456 0
M  V30 9057 H 861.771 -2.11281 -3.12474 0
M  V30 9058 H 864.158 -1.22359 -2.68537 0
M  V30 9059 H 864.239 -2.23838 -1.23815 0
M  V30 9060 H 863.883 -4.30522 -2.69468 0
M  V30 9061 H 863.813 -3.25996 -4.13563 0
M  V30 9062 H 866.304 -2.64299 -2.701 0
M  V30 9063 H 866.617 -5.83408 -5.06809 0
M  V30 9064 H 864.962 -5.24219 -4.56311 0
M  V30 9065 H 868.153 -3.33353 -3.28623 0
M  V30 9066 H 868.326 -4.78854 -4.36581 0
M  V30 9067 N 861.732 1.21287 -1.00634 0
M  V30 9068 C 862.662 2.25973 -0.588089 0
M  V30 9069 C 863.643 1.65527 0.391764 0
M  V30 9070 O 864.828 1.92179 0.279452 0
M  V30 9071 C 861.958 3.47197 0.0847336 0
M  V30 9072 C 860.912 4.20168 -0.815039 0
M  V30 9073 C 860.238 5.34699 -0.00855393 0
M  V30 9074 C 861.538 4.77416 -2.11828 0
M  V30 9075 H 863.232 2.61212 -1.46317 0
M  V30 9076 H 860.778 1.25563 -0.704985 0
M  V30 9077 H 862.731 4.19602 0.388821 0
M  V30 9078 H 861.455 3.11092 0.994456 0
M  V30 9079 H 860.114 3.49614 -1.10297 0
M  V30 9080 H 859.762 4.94837 0.902499 0
M  V30 9081 H 859.462 5.84449 -0.607664 0
M  V30 9082 H 860.986 6.09914 0.289317 0
M  V30 9083 H 862.4 5.41694 -1.87725 0
M  V30 9084 H 860.797 5.37561 -2.66736 0
M  V30 9085 H 861.867 3.96724 -2.78816 0
M  V30 9086 N 863.21 0.781244 1.36873 0
M  V30 9087 C 864.14 0.188128 2.32741 0
M  V30 9088 C 865.121 -0.672326 1.56249 0
M  V30 9089 O 866.306 -0.607835 1.84442 0
M  V30 9090 C 863.436 -0.684341 3.40491 0
M  V30 9091 C 862.39 0.0755641 4.27933 0
M  V30 9092 C 861.716 -0.916968 5.26779 0
M  V30 9093 C 863.016 1.26006 5.06873 0
M  V30 9094 H 864.71 0.989016 2.82593 0
M  V30 9095 H 862.256 0.477038 1.35869 0
M  V30 9096 H 864.209 -1.10915 4.06541 0
M  V30 9097 H 862.933 -1.51785 2.89187 0
M  V30 9098 H 861.592 0.481258 3.63427 0
M  V30 9099 H 861.24 -1.74528 4.71751 0
M  V30 9100 H 860.94 -0.413 5.86147 0
M  V30 9101 H 862.464 -1.34052 5.95703 0
M  V30 9102 H 863.878 0.911425 5.66009 0
M  V30 9103 H 862.275 1.69676 5.75613 0
M  V30 9104 H 863.345 2.05948 4.38991 0
M  V30 9105 N 864.689 -1.48329 0.532571 0
M  V30 9106 C 866.105 -1.58458 0.190605 0
M  V30 9107 C 866.305 -1.53427 -1.30623 0
M  V30 9108 O 865.361 -1.4247 -2.08467 0
M  V30 9109 C 866.674 -2.89989 0.79543 0
M  V30 9110 C 868.222 -3.03523 0.7644 0
M  V30 9111 C 868.697 -4.37718 1.34785 0
M  V30 9112 N 870.188 -4.44292 1.30993 0
M  V30 9113 C 870.923 -5.4664 1.73124 0
M  V30 9114 N 870.419 -6.5593 2.22997 0
M  V30 9115 N 872.212 -5.37538 1.64346 0
M  V30 9116 H 864.363 -1.49842 1.50537 0
M  V30 9117 H 866.626 -0.71164 0.626316 0
M  V30 9118 H 866.332 -2.99333 1.84642 0
M  V30 9119 H 866.206 -3.76203 0.27403 0
M  V30 9120 H 868.593 -2.93789 -0.277831 0
M  V30 9121 H 868.674 -2.18912 1.3233 0
M  V30 9122 H 868.318 -4.48206 2.38902 0
M  V30 9123 H 868.248 -5.21019 0.764609 0
M  V30 9124 H 870.739 -3.65897 0.944868 0
M  V30 9125 H 871.052 -7.30167 2.53133 0
M  V30 9126 H 869.397 -6.56886 2.26992 0
M  V30 9127 H 872.588 -4.51052 1.25178 0
M  V30 9128 H 872.761 -6.17169 1.97501 0
M  V30 9129 N 866.167 -0.267825 -1.55308 0
M  V30 9130 C 867.413 0.351556 -1.9973 0
M  V30 9131 C 867.746 1.56049 -1.15596 0
M  V30 9132 O 867.021 1.93203 -0.224274 0
M  V30 9133 C 867.304 0.74091 -3.52395 0
M  V30 9134 C 867.157 -0.474861 -4.47286 0
M  V30 9135 C 868.476 1.5801 -4.10756 0
M  V30 9136 H 865.595 0.126308 -0.726096 0
M  V30 9137 H 868.237 -0.373316 -1.86296 0
M  V30 9138 H 866.387 1.35851 -3.63973 0
M  V30 9139 H 868.059 -1.1134 -4.47662 0
M  V30 9140 H 866.302 -1.11425 -4.19246 0
M  V30 9141 H 866.973 -0.158782 -5.51772 0
M  V30 9142 H 869.449 1.05857 -4.0241 0
M  V30 9143 H 868.325 1.82135 -5.17801 0
M  V30 9144 H 868.586 2.55878 -3.60526 0
M  V30 9145 N 867.645 1.57599 0.00500368 0
M  V30 9146 C 868.608 2.07058 0.982832 0
M  V30 9147 C 869.608 0.979045 1.27559 0
M  V30 9148 O 870.798 1.24187 1.22161 0
M  V30 9149 C 867.93 2.50782 2.30914 0
M  V30 9150 H 869.123 2.94718 0.555119 0
M  V30 9151 H 866.676 1.54249 0.25237 0
M  V30 9152 H 867.411 1.66351 2.78385 0
M  V30 9153 H 867.196 3.30495 2.10987 0
M  V30 9154 H 868.686 2.89391 3.0107 0
M  V30 9155 N 869.123 -0.277682 1.55134 0
M  V30 9156 C 870.4 -1.0309 1.66228 0
M  V30 9157 C 870.78 -2.0445 0.525701 0
M  V30 9158 O 870.128 -2.23512 -0.474816 0
M  V30 9159 C 870.338 -1.6919 3.05247 0
M  V30 9160 C 871.686 -2.20526 3.62841 0
M  V30 9161 O 872.71 -1.79185 3.07849 0
M  V30 9162 O 871.569 -2.96342 4.59177 0
M  V30 9163 H 868.663 -0.4779 0.674937 0
M  V30 9164 H 871.209 -0.273912 1.67475 0
M  V30 9165 H 869.981 -0.957163 3.79413 0
M  V30 9166 H 869.604 -2.51587 3.07879 0
M  V30 9167 N 870.601 -1.47988 -0.541979 0
M  V30 9168 C 871.549 -1.62044 -1.66867 0
M  V30 9169 C 872.543 -0.487217 -1.62242 0
M  V30 9170 O 873.749 -0.66554 -1.67244 0
M  V30 9171 H 870.124 -0.51024 -0.552412 0
M  V30 9172 H 872.095 -2.56695 -1.52153 0
M  V30 9173 C 870.844 -1.66615 -3.0518 0
M  V30 9174 H 870.167 -2.5317 -3.09427 0
M  V30 9175 H 871.607 -1.80496 -3.83663 0
M  V30 9176 C 870.066 -0.402421 -3.34488 0
M  V30 9177 O 870.596 0.48992 -3.98701 0
M  V30 9178 N 868.802 -0.277778 -2.89269 0
M  V30 9179 H 868.349 -1.00488 -2.37192 0
M  V30 9180 H 868.307 0.566784 -3.09249 0
M  V30 9181 N 872.079 0.78992 -1.36375 0
M  V30 9182 C 873.011 1.91113 -1.26524 0
M  V30 9183 C 874.024 1.61747 -0.184851 0
M  V30 9184 O 875.213 1.73004 -0.439524 0
M  V30 9185 C 872.313 3.25908 -0.92937 0
M  V30 9186 C 871.486 3.83057 -2.11154 0
M  V30 9187 C 870.545 4.96289 -1.74881 0
M  V30 9188 O 869.571 5.12834 -2.46962 0
M  V30 9189 N 870.773 5.76478 -0.682193 0
M  V30 9190 H 873.538 2.00085 -2.23128 0
M  V30 9191 H 871.099 0.968165 -1.29762 0
M  V30 9192 H 873.091 3.99151 -0.667884 0
M  V30 9193 H 871.661 3.12556 -0.0524843 0
M  V30 9194 H 870.881 3.01808 -2.53586 0
M  V30 9195 H 872.169 4.1797 -2.90135 0
M  V30 9196 H 871.567 5.65638 -0.0836661 0
M  V30 9197 H 870.124 6.50026 -0.480529 0
M  V30 9198 N 873.557 1.20646 1.01402 0
M  V30 9199 C 874.467 0.973385 2.13453 0
M  V30 9200 C 875.483 -0.0715865 1.73853 0
M  V30 9201 O 876.659 0.116438 2.01063 0
M  V30 9202 C 873.724 0.531285 3.42605 0
M  V30 9203 C 872.785 1.64741 3.96433 0
M  V30 9204 C 872.018 1.22631 5.1942 0
M  V30 9205 O 872.241 0.0960891 5.70319 0
M  V30 9206 O 871.175 2.03474 5.66465 0
M  V30 9207 H 875.001 1.91164 2.35987 0
M  V30 9208 H 872.586 0.990553 1.11841 0
M  V30 9209 H 874.468 0.294095 4.20373 0
M  V30 9210 H 873.143 -0.378358 3.21481 0
M  V30 9211 H 872.05 1.93891 3.19933 0
M  V30 9212 H 873.383 2.53415 4.2195 0
M  V30 9213 N 875.035 -1.20752 1.01276 0
M  V30 9214 C 875.965 -2.25658 0.600064 0
M  V30 9215 C 876.946 -1.65733 -0.38298 0
M  V30 9216 O 878.131 -1.92324 -0.269256 0
M  V30 9217 C 875.261 -3.47237 -0.0663197 0
M  V30 9218 C 874.215 -4.1973 0.83731 0
M  V30 9219 C 873.541 -5.34687 0.0369102 0
M  V30 9220 C 874.841 -4.76286 2.14357 0
M  V30 9221 H 876.535 -2.60432 1.477 0
M  V30 9222 H 874.081 -1.25187 0.711634 0
M  V30 9223 H 876.034 -4.19803 -0.366563 0
M  V30 9224 H 874.758 -3.11615 -0.977944 0
M  V30 9225 H 873.417 -3.49024 1.1215 0
M  V30 9226 H 873.065 -4.95309 -0.876244 0
M  V30 9227 H 872.765 -5.84119 0.63865 0
M  V30 9228 H 874.289 -6.10059 -0.256968 0
M  V30 9229 H 875.703 -5.40691 1.90595 0
M  V30 9230 H 874.1 -5.36139 2.69583 0
M  V30 9231 H 875.17 -3.9524 2.80916 0
M  V30 9232 N 876.513 -0.788492 -1.36457 0
M  V30 9233 C 877.445 -0.144208 -2.28746 0
M  V30 9234 C 878.458 0.646009 -1.49434 0
M  V30 9235 O 879.647 0.481344 -1.71888 0
M  V30 9236 C 876.747 0.818869 -3.28858 0
M  V30 9237 C 875.92 0.0789055 -4.37329 0
M  V30 9238 C 874.979 0.957791 -5.1741 0
M  V30 9239 O 874.005 0.415378 -5.67682 0
M  V30 9240 N 875.207 2.28216 -5.33758 0
M  V30 9241 H 877.972 -0.936949 -2.84678 0
M  V30 9242 H 875.533 -0.642317 -1.48613 0
M  V30 9243 H 877.525 1.41065 -3.79319 0
M  V30 9244 H 876.095 1.51249 -2.73573 0
M  V30 9245 H 875.315 -0.693939 -3.88044 0
M  V30 9246 H 876.603 -0.431753 -5.06965 0
M  V30 9247 H 876.001 2.747 -4.94527 0
M  V30 9248 H 874.558 2.8236 -5.87466 0
M  V30 9249 N 877.991 1.48044 -0.54043 0
M  V30 9250 C 878.921 2.32597 0.205178 0
M  V30 9251 C 879.902 1.42748 0.925041 0
M  V30 9252 O 881.087 1.71624 0.908784 0
M  V30 9253 C 878.217 3.24175 1.24612 0
M  V30 9254 C 877.171 4.23131 0.64376 0
M  V30 9255 C 876.497 5.03915 1.78812 0
M  V30 9256 C 877.797 5.20831 -0.39144 0
M  V30 9257 H 879.491 2.95184 -0.500676 0
M  V30 9258 H 877.037 1.41948 -0.242225 0
M  V30 9259 H 878.99 3.82158 1.77576 0
M  V30 9260 H 877.714 2.59608 1.98169 0
M  V30 9261 H 876.373 3.66349 0.135554 0
M  V30 9262 H 876.021 4.35765 2.51232 0
M  V30 9263 H 875.721 5.709 1.39094 0
M  V30 9264 H 877.245 5.64753 2.32134 0
M  V30 9265 H 878.659 5.73277 0.0515064 0
M  V30 9266 H 877.056 5.95926 -0.706569 0
M  V30 9267 H 878.126 4.6733 -1.29345 0
M  V30 9268 N 879.47 0.276058 1.55163 0
M  V30 9269 C 880.695 -0.346648 2.04483 0
M  V30 9270 C 881.12 -1.48613 1.15308 0
M  V30 9271 O 880.478 -1.80663 0.151875 0
M  V30 9272 C 880.526 -0.804268 3.51517 0
M  V30 9273 O 879.63 -1.91143 3.65429 0
M  V30 9274 H 878.971 -0.0715251 0.660136 0
M  V30 9275 H 881.501 0.410631 2.00437 0
M  V30 9276 H 881.511 -1.09977 3.92898 0
M  V30 9277 H 880.186 0.0294123 4.1589 0
M  V30 9278 H 878.763 -1.61839 3.3595 0
M  V30 9279 N 880.948 -1.576 0.00335426 0
M  V30 9280 C 881.896 -2.09759 -1.00517 0
M  V30 9281 C 882.89 -1.01833 -1.35375 0
M  V30 9282 O 884.096 -1.20294 -1.339 0
M  V30 9283 H 880.471 -0.669821 -0.341825 0
M  V30 9284 H 882.442 -2.93478 -0.539718 0
M  V30 9285 C 881.191 -2.6189 -2.28711 0
M  V30 9286 H 880.514 -3.44571 -2.02758 0
M  V30 9287 H 881.954 -3.02061 -2.97548 0
M  V30 9288 C 880.413 -1.53455 -2.99922 0
M  V30 9289 O 880.943 -0.919402 -3.91037 0
M  V30 9290 N 879.149 -1.2612 -2.61806 0
M  V30 9291 H 878.696 -1.76329 -1.87792 0
M  V30 9292 H 878.654 -0.537872 -3.09765 0
M  V30 9293 N 882.426 0.269451 -1.5528 0
M  V30 9294 C 883.356 1.33729 -1.91413 0
M  V30 9295 C 884.337 1.51348 -0.776391 0
M  V30 9296 O 885.522 1.64332 -1.03482 0
M  V30 9297 C 882.652 2.69618 -2.18914 0
M  V30 9298 C 881.606 2.66725 -3.34726 0
M  V30 9299 C 880.932 4.06199 -3.47716 0
M  V30 9300 C 882.232 2.25684 -4.71025 0
M  V30 9301 H 883.926 1.03736 -2.80854 0
M  V30 9302 H 881.472 0.497579 -1.3513 0
M  V30 9303 H 883.425 3.44436 -2.42779 0
M  V30 9304 H 882.149 3.01201 -1.26275 0
M  V30 9305 H 880.808 1.94365 -3.10834 0
M  V30 9306 H 880.456 4.3501 -2.52537 0
M  V30 9307 H 880.156 4.05157 -4.25583 0
M  V30 9308 H 881.68 4.8275 -3.73877 0
M  V30 9309 H 883.094 2.90225 -4.94411 0
M  V30 9310 H 881.491 2.35797 -5.51833 0
M  V30 9311 H 882.561 1.20819 -4.69607 0
M  V30 9312 N 883.904 1.48273 0.534124 0
M  V30 9313 C 884.834 1.6538 1.64839 0
M  V30 9314 C 885.815 0.502741 1.62501 0
M  V30 9315 O 887 0.734799 1.79762 0
M  V30 9316 C 884.13 1.68949 3.03436 0
M  V30 9317 C 883.084 2.83513 3.20631 0
M  V30 9318 C 882.41 2.72169 4.60248 0
M  V30 9319 C 883.71 4.24858 3.03797 0
M  V30 9320 H 885.404 2.58663 1.50777 0
M  V30 9321 H 882.95 1.24479 0.723937 0
M  V30 9322 H 884.903 1.79505 3.81256 0
M  V30 9323 H 883.627 0.722415 3.1851 0
M  V30 9324 H 882.286 2.72505 2.45227 0
M  V30 9325 H 881.934 1.7344 4.72152 0
M  V30 9326 H 881.634 3.49042 4.72698 0
M  V30 9327 H 883.158 2.84687 5.40172 0
M  V30 9328 H 884.572 4.36721 3.71413 0
M  V30 9329 H 882.969 5.02697 3.27743 0
M  V30 9330 H 884.039 4.41611 2.0027 0
M  V30 9331 N 885.382 -0.782676 1.36792 0
M  V30 9332 C 886.607 -1.57676 1.34733 0
M  V30 9333 C 887.032 -1.87979 -0.0675253 0
M  V30 9334 O 886.39 -1.48404 -1.04144 0
M  V30 9335 C 886.438 -2.87047 2.18257 0
M  V30 9336 O 885.542 -3.80946 1.57969 0
M  V30 9337 H 884.883 -0.478034 0.460846 0
M  V30 9338 H 887.413 -0.969578 1.80168 0
M  V30 9339 H 887.423 -3.36254 2.31079 0
M  V30 9340 H 886.098 -2.64319 3.21104 0
M  V30 9341 H 884.675 -3.39558 1.54126 0
M  V30 9342 N 886.86 -1.21182 -1.00761 0
M  V30 9343 C 888.276 -0.968607 -1.26847 0
M  V30 9344 C 888.476 0.346561 -1.98497 0
M  V30 9345 O 887.532 1.07287 -2.28573 0
M  V30 9346 C 888.845 -2.1574 -2.09467 0
M  V30 9347 C 890.393 -2.19937 -2.22703 0
M  V30 9348 C 890.868 -3.38328 -3.08704 0
M  V30 9349 N 892.359 -3.38398 -3.16293 0
M  V30 9350 C 893.094 -4.26653 -3.83086 0
M  V30 9351 N 892.59 -5.25101 -4.5193 0
M  V30 9352 N 894.383 -4.14469 -3.797 0
M  V30 9353 H 886.534 -2.05763 -0.526816 0
M  V30 9354 H 888.797 -0.90087 -0.29519 0
M  V30 9355 H 888.503 -3.11034 -1.64167 0
M  V30 9356 H 888.377 -2.14584 -3.10216 0
M  V30 9357 H 890.764 -1.25201 -2.67224 0
M  V30 9358 H 890.845 -2.25139 -1.21433 0
M  V30 9359 H 890.489 -4.33356 -2.64886 0
M  V30 9360 H 890.419 -3.30364 -4.10082 0
M  V30 9361 H 892.91 -2.67149 -2.67282 0
M  V30 9362 H 893.223 -5.8875 -5.00592 0
M  V30 9363 H 891.568 -5.29029 -4.50726 0
M  V30 9364 H 894.759 -3.3682 -3.25069 0
M  V30 9365 H 894.932 -4.83458 -4.31477 0
M  V30 9366 N 888.338 1.20213 -1.01915 0
M  V30 9367 C 889.615 1.85348 -0.62495 0
M  V30 9368 C 889.995 1.91101 0.896854 0
M  V30 9369 O 889.343 1.42075 1.78961 0
M  V30 9370 C 889.553 3.24849 -1.27571 0
M  V30 9371 C 890.901 4.01107 -1.39277 0
M  V30 9372 O 891.925 3.34211 -1.23212 0
M  V30 9373 O 890.784 5.20914 -1.6526 0
M  V30 9374 H 887.878 0.798303 -0.215965 0
M  V30 9375 H 890.424 1.27782 -1.11669 0
M  V30 9376 H 889.196 3.1544 -2.31545 0
M  V30 9377 H 888.819 3.90049 -0.77122 0
M  V30 9378 N 889.816 0.795718 1.36037 0
M  V30 9379 C 891.232 0.478145 1.52269 0
M  V30 9380 C 891.432 -1.0025 1.74792 0
M  V30 9381 O 890.488 -1.78783 1.78305 0
M  V30 9382 C 891.801 1.31406 2.70468 0
M  V30 9383 C 893.349 1.3084 2.84341 0
M  V30 9384 C 893.824 2.12819 4.05551 0
M  V30 9385 N 895.315 2.10298 4.12709 0
M  V30 9386 C 896.05 2.70495 5.05589 0
M  V30 9387 N 895.546 3.39576 6.03871 0
M  V30 9388 N 897.339 2.60195 4.98252 0
M  V30 9389 H 889.49 1.75477 1.19673 0
M  V30 9390 H 891.753 0.74627 0.584624 0
M  V30 9391 H 891.459 2.36435 2.60368 0
M  V30 9392 H 891.333 0.959726 3.64786 0
M  V30 9393 H 893.72 0.266003 2.93899 0
M  V30 9394 H 893.801 1.70254 1.90912 0
M  V30 9395 H 893.445 3.17093 3.96755 0
M  V30 9396 H 893.375 1.70772 4.98141 0
M  V30 9397 H 895.866 1.60026 3.42345 0
M  V30 9398 H 896.179 3.82823 6.71317 0
M  V30 9399 H 894.524 3.43679 6.04077 0
M  V30 9400 H 897.715 2.05823 4.20422 0
M  V30 9401 H 897.888 3.074 5.70447 0
M  V30 9402 N 891.294 -1.47756 0.548274 0
M  V30 9403 C 892.543 -2.01691 0.0187961 0
M  V30 9404 C 892.856 -1.42894 -1.33569 0
M  V30 9405 O 894.062 -1.88438 -1.95457 0
M  V30 9406 C 892.518 -3.59896 -0.016847 0
M  V30 9407 C 892.126 -4.27683 1.33385 0
M  V30 9408 C 893.87 -4.21614 -0.494188 0
M  V30 9409 C 891.777 -5.7787 1.2578 0
M  V30 9410 H 890.707 -0.753993 0.00325648 0
M  V30 9411 H 893.358 -1.69838 0.694792 0
M  V30 9412 H 891.74 -3.88672 -0.758304 0
M  V30 9413 H 892.914 -4.10559 2.09232 0
M  V30 9414 H 891.229 -3.77915 1.7484 0
M  V30 9415 H 893.826 -5.3166 -0.569342 0
M  V30 9416 H 894.169 -3.88176 -1.50417 0
M  V30 9417 H 894.702 -3.97336 0.192138 0
M  V30 9418 H 891.441 -6.15912 2.2435 0
M  V30 9419 H 890.961 -5.97355 0.540997 0
M  V30 9420 H 892.64 -6.39897 0.956109 0
M  V30 9421 N 892.772 -0.284283 -1.55015 0
M  V30 9422 C 893.997 0.335799 -2.04664 0
M  V30 9423 C 894.422 1.47999 -1.16094 0
M  V30 9424 O 893.78 1.8058 -0.161454 0
M  V30 9425 C 893.828 0.785615 -3.51938 0
M  V30 9426 O 892.932 1.89202 -3.66437 0
M  V30 9427 H 892.273 0.0680233 -0.660506 0
M  V30 9428 H 894.803 -0.421255 -2.00216 0
M  V30 9429 H 894.813 1.07892 -3.93476 0
M  V30 9430 H 893.488 -0.0514675 -4.15868 0
M  V30 9431 H 892.065 1.60055 -3.36804 0
M  V30 9432 N 894.251 1.57596 -0.0117121 0
M  V30 9433 C 895.662 1.79033 0.529521 0
M  V30 9434 C 896.013 0.920299 1.73277 0
M  V30 9435 O 895.138 0.125934 2.16033 0
M  V30 9436 C 895.733 3.24695 0.967405 0
M  V30 9437 C 894.292 3.47188 1.45387 0
M  V30 9438 C 893.439 2.74245 0.410466 0
M  V30 9439 H 896.39 1.56908 -0.237836 0
M  V30 9440 H 896.411 3.33451 1.83278 0
M  V30 9441 H 895.923 3.87992 0.0914605 0
M  V30 9442 H 894.024 2.89121 2.35032 0
M  V30 9443 H 894.137 4.55886 1.47325 0
M  V30 9444 H 892.501 2.39209 0.874721 0
M  V30 9445 H 893.284 3.40248 -0.456713 0
M  V30 9446 N 895.729 -0.261212 1.5542 0
M  V30 9447 C 896.639 -1.34493 1.92221 0
M  V30 9448 C 897.655 -1.53421 0.82086 0
M  V30 9449 O 898.831 -1.6732 1.12099 0
M  V30 9450 C 895.896 -2.68209 2.19692 0
M  V30 9451 C 894.957 -2.57927 3.43179 0
M  V30 9452 C 894.19 -3.85266 3.69331 0
M  V30 9453 O 894.413 -4.86493 2.97793 0
M  V30 9454 O 893.347 -3.8476 4.62865 0
M  V30 9455 H 897.173 -1.06278 2.84497 0
M  V30 9456 H 894.758 -0.460752 1.42118 0
M  V30 9457 H 896.64 -3.47252 2.38734 0
M  V30 9458 H 895.315 -2.96186 1.30597 0
M  V30 9459 H 894.222 -1.77219 3.2946 0
M  V30 9460 H 895.555 -2.34898 4.32532 0
M  V30 9461 N 897.207 -1.48554 -0.526253 0
M  V30 9462 C 898.455 -1.56452 -1.27935 0
M  V30 9463 C 898.776 -0.24184 -1.93495 0
M  V30 9464 O 898.046 0.736917 -1.81511 0
M  V30 9465 H 896.626 -0.576379 -0.47518 0
M  V30 9466 H 899.288 -1.85039 -0.612083 0
M  V30 9467 H 898.384 -2.34751 -2.05666 0
M  V30 9468 N 898.685 0.775411 -1.37205 0
M  V30 9469 C 899.615 1.90258 -1.35367 0
M  V30 9470 C 900.596 1.68634 -0.222864 0
M  V30 9471 O 901.781 1.89545 -0.422659 0
M  V30 9472 C 898.911 3.27488 -1.15623 0
M  V30 9473 C 897.865 3.63668 -2.25676 0
M  V30 9474 C 897.191 4.994 -1.91059 0
M  V30 9475 C 898.491 3.70797 -3.67841 0
M  V30 9476 H 900.185 1.92053 -2.29687 0
M  V30 9477 H 897.731 0.922597 -1.10563 0
M  V30 9478 H 899.684 4.05976 -1.12968 0
M  V30 9479 H 898.408 3.26117 -0.177573 0
M  V30 9480 H 897.067 2.87486 -2.2748 0
M  V30 9481 H 896.715 4.94565 -0.917324 0
M  V30 9482 H 896.415 5.24576 -2.64751 0
M  V30 9483 H 897.939 5.80291 -1.89985 0
M  V30 9484 H 899.353 4.39444 -3.68187 0
M  V30 9485 H 897.75 4.07468 -4.40556 0
M  V30 9486 H 898.82 2.71549 -4.01732 0
M  V30 9487 N 900.163 1.21714 1.00117 0
M  V30 9488 C 901.073 0.99597 2.12409 0
M  V30 9489 C 902.089 -0.0531431 1.73919 0
M  V30 9490 O 903.265 0.137757 2.00928 0
M  V30 9491 C 900.33 0.567593 3.42022 0
M  V30 9492 C 899.391 1.68936 3.94663 0
M  V30 9493 C 898.624 1.28133 5.1809 0
M  V30 9494 O 898.847 0.156574 5.70185 0
M  V30 9495 O 897.781 2.0947 5.64275 0
M  V30 9496 H 901.607 1.93657 2.33946 0
M  V30 9497 H 899.192 1.00236 1.10784 0
M  V30 9498 H 901.074 0.338664 4.20037 0
M  V30 9499 H 899.749 -0.34424 3.21864 0
M  V30 9500 H 898.656 1.97274 3.17858 0
M  V30 9501 H 899.989 2.57876 4.19238 0
M  V30 9502 N 901.641 -1.19671 1.02551 0
M  V30 9503 C 902.588 -2.22773 0.603394 0
M  V30 9504 C 903.558 -1.61669 -0.381081 0
M  V30 9505 O 904.743 -1.88756 -0.278505 0
M  V30 9506 C 901.883 -3.45073 -0.0431034 0
M  V30 9507 C 900.996 -4.20574 0.987006 0
M  V30 9508 C 900.131 -5.30291 0.310626 0
M  V30 9509 C 899.17 -5.97545 1.32688 0
M  V30 9510 N 898.307 -6.98833 0.676542 0
M  V30 9511 H 903.147 -2.58238 1.48719 0
M  V30 9512 H 900.684 -1.26881 0.744286 0
M  V30 9513 H 902.642 -4.14925 -0.435141 0
M  V30 9514 H 901.272 -3.10274 -0.890495 0
M  V30 9515 H 900.324 -3.497 1.49713 0
M  V30 9516 H 901.636 -4.66736 1.75952 0
M  V30 9517 H 900.79 -6.06547 -0.136438 0
M  V30 9518 H 899.529 -4.8519 -0.49412 0
M  V30 9519 H 898.534 -5.20043 1.78424 0
M  V30 9520 H 899.759 -6.4473 2.13306 0
M  V30 9521 H 897.705 -6.55911 -0.108172 0
M  V30 9522 H 897.622 -7.43168 1.38699 0
M  V30 9523 H 898.89 -7.79088 0.253367 0
M  V30 9524 N 903.119 -0.802921 -1.35613 0
M  V30 9525 C 904.052 -0.156345 -2.27664 0
M  V30 9526 C 905.03 0.675517 -1.47904 0
M  V30 9527 O 906.214 0.643589 -1.77173 0
M  V30 9528 C 903.341 0.78348 -3.29514 0
M  V30 9529 C 902.387 0.0317062 -4.26488 0
M  V30 9530 S 903.22 -1.30183 -5.19435 0
M  V30 9531 C 904.376 -0.366354 -6.24827 0
M  V30 9532 H 904.609 -0.936803 -2.82155 0
M  V30 9533 H 902.142 -0.597799 -1.42358 0
M  V30 9534 H 904.1 1.32023 -3.8869 0
M  V30 9535 H 902.761 1.53729 -2.73909 0
M  V30 9536 H 901.954 0.745364 -4.98458 0
M  V30 9537 H 901.556 -0.43497 -3.71462 0
M  V30 9538 H 903.848 0.44976 -6.76005 0
M  V30 9539 H 904.791 -1.05513 -7.00195 0
M  V30 9540 H 905.199 0.0363203 -5.64488 0
M  V30 9541 N 904.597 1.47463 -0.556102 0
M  V30 9542 C 905.56 2.28478 0.181743 0
M  V30 9543 C 906.56 1.36886 0.843738 0
M  V30 9544 O 907.75 1.59527 0.69977 0
M  V30 9545 C 904.882 3.16534 1.26566 0
M  V30 9546 H 906.075 2.95182 -0.529892 0
M  V30 9547 H 903.628 1.53134 -0.313005 0
M  V30 9548 H 904.363 2.5452 2.00973 0
M  V30 9549 H 904.148 3.83939 0.795798 0
M  V30 9550 H 905.638 3.77579 1.78393 0
M  V30 9551 N 906.075 0.2925 1.54862 0
M  V30 9552 C 907.007 -0.620889 2.2063 0
M  V30 9553 C 908.02 -1.10412 1.19637 0
M  V30 9554 O 909.209 -1.02304 1.46274 0
M  V30 9555 C 906.309 -1.861 2.83232 0
M  V30 9556 C 905.482 -1.52168 4.10078 0
M  V30 9557 C 904.541 -2.61605 4.56562 0
M  V30 9558 O 903.567 -2.27056 5.21952 0
M  V30 9559 N 904.769 -3.9199 4.28163 0
M  V30 9560 H 907.534 -0.0579028 2.99644 0
M  V30 9561 H 905.095 0.114333 1.61496 0
M  V30 9562 H 907.087 -2.58642 3.11266 0
M  V30 9563 H 905.657 -2.33259 2.08108 0
M  V30 9564 H 904.877 -0.629283 3.89145 0
M  V30 9565 H 906.165 -1.27023 4.92689 0
M  V30 9566 H 905.563 -4.22872 3.7576 0
M  V30 9567 H 904.12 -4.60857 4.60928 0
M  V30 9568 N 907.553 -1.57587 0.0200696 0
M  V30 9569 C 908.483 -2.12702 -0.963333 0
M  V30 9570 C 909.464 -1.04094 -1.34531 0
M  V30 9571 O 910.649 -1.31881 -1.42552 0
M  V30 9572 C 907.779 -2.64673 -2.24868 0
M  V30 9573 C 906.733 -3.77987 -2.00772 0
M  V30 9574 C 906.059 -4.16351 -3.35494 0
M  V30 9575 C 907.359 -5.0444 -1.35416 0
M  V30 9576 H 909.053 -2.95121 -0.504363 0
M  V30 9577 H 906.599 -1.41966 -0.24116 0
M  V30 9578 H 908.552 -3.01862 -2.94036 0
M  V30 9579 H 907.276 -1.79403 -2.72914 0
M  V30 9580 H 905.935 -3.41223 -1.34025 0
M  V30 9581 H 905.583 -3.28075 -3.81282 0
M  V30 9582 H 905.283 -4.92705 -3.20181 0
M  V30 9583 H 906.807 -4.56115 -4.05945 0
M  V30 9584 H 908.221 -5.39273 -1.94571 0
M  V30 9585 H 906.618 -5.85732 -1.30529 0
M  V30 9586 H 907.688 -4.83803 -0.325923 0
M  V30 9587 N 909.032 0.252966 -1.55557 0
M  V30 9588 C 910.448 0.60118 -1.47844 0
M  V30 9589 C 910.648 1.88612 -0.709055 0
M  V30 9590 O 909.704 2.51395 -0.235964 0
M  V30 9591 C 911.017 0.709539 -2.92209 0
M  V30 9592 C 912.565 0.802269 -3.02544 0
M  V30 9593 C 913.04 0.94224 -4.48203 0
M  V30 9594 N 914.531 1.00726 -4.52116 0
M  V30 9595 C 915.266 1.13472 -5.6206 0
M  V30 9596 N 914.762 1.22811 -6.81828 0
M  V30 9597 N 916.555 1.1674 -5.49844 0
M  V30 9598 H 908.706 -0.590635 -2.04023 0
M  V30 9599 H 910.969 -0.202986 -0.926013 0
M  V30 9600 H 910.675 -0.164505 -3.51315 0
M  V30 9601 H 910.549 1.58343 -3.42356 0
M  V30 9602 H 912.936 1.66677 -2.43522 0
M  V30 9603 H 913.017 -0.0966469 -2.55617 0
M  V30 9604 H 912.661 0.0823209 -5.07833 0
M  V30 9605 H 912.591 1.85611 -4.92805 0
M  V30 9606 H 915.082 0.946684 -3.6585 0
M  V30 9607 H 915.395 1.32426 -7.61369 0
M  V30 9608 H 913.74 1.19779 -6.84601 0
M  V30 9609 H 916.931 1.09089 -4.55211 0
M  V30 9610 H 917.104 1.26329 -6.35567 0
M  V30 9611 N 910.51 1.48831 0.518367 0
M  V30 9612 C 911.473 1.63721 1.604 0
M  V30 9613 C 912.473 0.509857 1.52503 0
M  V30 9614 O 913.663 0.775922 1.55965 0
M  V30 9615 C 910.795 1.61831 3.00039 0
M  V30 9616 H 911.988 2.60534 1.48533 0
M  V30 9617 H 909.541 1.37602 0.741309 0
M  V30 9618 H 910.276 0.665387 3.17401 0
M  V30 9619 H 910.061 2.43686 3.0718 0
M  V30 9620 H 911.551 1.75467 3.78947 0
M  V30 9621 N 911.988 -0.768124 1.37614 0
M  V30 9622 C 912.898 -1.91249 1.35871 0
M  V30 9623 C 913.914 -1.7208 0.257786 0
M  V30 9624 O 915.09 -1.95253 0.493782 0
M  V30 9625 C 912.155 -3.26423 1.16829 0
M  V30 9626 C 911.216 -3.5822 2.36594 0
M  V30 9627 C 910.449 -4.86945 2.1845 0
M  V30 9628 O 910.672 -5.58258 1.17064 0
M  V30 9629 O 909.606 -5.17888 3.06718 0
M  V30 9630 H 913.432 -1.95671 2.32264 0
M  V30 9631 H 911.017 -0.911382 1.18382 0
M  V30 9632 H 912.899 -4.07269 1.08212 0
M  V30 9633 H 911.574 -3.22845 0.235123 0
M  V30 9634 H 910.481 -2.77594 2.50783 0
M  V30 9635 H 911.814 -3.66545 3.2849 0
M  V30 9636 N 913.466 -1.22244 -0.994698 0
M  V30 9637 C 914.396 -1.01513 -2.10279 0
M  V30 9638 C 915.377 0.0633365 -1.69982 0
M  V30 9639 O 916.562 -0.0985268 -1.9395 0
M  V30 9640 C 913.692 -0.59016 -3.42249 0
M  V30 9641 C 912.646 -1.61436 -3.96387 0
M  V30 9642 C 911.972 -1.04528 -5.24383 0
M  V30 9643 C 913.272 -3.00388 -4.27276 0
M  V30 9644 H 914.966 -1.94194 -2.2788 0
M  V30 9645 H 912.512 -0.935094 -1.09508 0
M  V30 9646 H 914.465 -0.432254 -4.19177 0
M  V30 9647 H 913.189 0.372308 -3.24471 0
M  V30 9648 H 911.848 -1.76001 -3.21589 0
M  V30 9649 H 911.496 -0.0742225 -5.02945 0
M  V30 9650 H 911.196 -1.72949 -5.61571 0
M  V30 9651 H 912.72 -0.898922 -6.03947 0
M  V30 9652 H 914.134 -2.89207 -4.95007 0
M  V30 9653 H 912.531 -3.65916 -4.75631 0
M  V30 9654 H 913.601 -3.50456 -3.35125 0
M  V30 9655 N 914.944 1.19125 -1.03184 0
M  V30 9656 C 915.874 2.24675 -0.635889 0
M  V30 9657 C 916.855 1.66321 0.356565 0
M  V30 9658 O 918.04 1.92728 0.238625 0
M  V30 9659 C 915.17 3.47298 0.011069 0
M  V30 9660 C 914.124 4.18345 -0.903979 0
M  V30 9661 C 913.45 5.34561 -0.12197 0
M  V30 9662 C 914.75 4.72816 -2.21907 0
M  V30 9663 H 916.444 2.5805 -1.51825 0
M  V30 9664 H 913.99 1.24039 -0.73146 0
M  V30 9665 H 915.943 4.20333 0.299729 0
M  V30 9666 H 914.667 3.13131 0.928245 0
M  V30 9667 H 913.326 3.47196 -1.17688 0
M  V30 9668 H 912.974 4.9664 0.797334 0
M  V30 9669 H 912.674 5.83029 -0.731498 0
M  V30 9670 H 914.198 6.10391 0.159881 0
M  V30 9671 H 915.612 5.3759 -1.99173 0
M  V30 9672 H 914.009 5.31782 -2.78078 0
M  V30 9673 H 915.079 3.9072 -2.87168 0
M  V30 9674 N 916.422 0.810101 1.35185 0
M  V30 9675 C 917.354 0.180581 2.28488 0
M  V30 9676 C 918.367 -0.622154 1.50443 0
M  V30 9677 O 919.556 -0.453938 1.72632 0
M  V30 9678 C 916.656 -0.766447 3.30119 0
M  V30 9679 C 915.829 -0.00932028 4.37399 0
M  V30 9680 C 914.888 -0.875354 5.18868 0
M  V30 9681 O 913.914 -0.325012 5.68271 0
M  V30 9682 N 915.116 -2.19695 5.37321 0
M  V30 9683 H 917.881 0.98212 2.83151 0
M  V30 9684 H 915.442 0.665879 1.47573 0
M  V30 9685 H 917.434 -1.35012 3.81515 0
M  V30 9686 H 916.004 -1.46878 2.75945 0
M  V30 9687 H 915.224 0.755585 3.86891 0
M  V30 9688 H 916.512 0.512352 5.06214 0
M  V30 9689 H 915.91 -2.66797 4.98834 0
M  V30 9690 H 914.467 -2.72978 5.91884 0
M  V30 9691 N 917.9 -1.47166 0.563914 0
M  V30 9692 C 918.83 -2.32894 -0.168148 0
M  V30 9693 C 919.811 -1.44202 -0.902214 0
M  V30 9694 O 920.996 -1.73048 -0.881365 0
M  V30 9695 C 918.126 -3.26116 -1.19439 0
M  V30 9696 C 917.08 -4.24101 -0.576363 0
M  V30 9697 C 916.406 -5.06696 -1.70772 0
M  V30 9698 C 917.706 -5.20142 0.47425 0
M  V30 9699 H 919.4 -2.9435 0.547573 0
M  V30 9700 H 916.946 -1.41545 0.264778 0
M  V30 9701 H 918.899 -3.84935 -1.71474 0
M  V30 9702 H 917.623 -2.62728 -1.94014 0
M  V30 9703 H 916.282 -3.66519 -0.0772534 0
M  V30 9704 H 915.93 -4.39707 -2.44268 0
M  V30 9705 H 915.63 -5.7304 -1.29994 0
M  V30 9706 H 917.154 -5.68375 -2.2312 0
M  V30 9707 H 918.568 -5.73286 0.0397035 0
M  V30 9708 H 916.965 -5.94726 0.801287 0
M  V30 9709 H 918.035 -4.65214 1.36764 0
M  V30 9710 N 919.378 -0.300708 -1.54705 0
M  V30 9711 C 920.608 0.310819 -2.04249 0
M  V30 9712 C 921.016 1.4809 -1.17754 0
M  V30 9713 O 920.359 1.82654 -0.195779 0
M  V30 9714 C 920.421 0.83014 -3.49784 0
M  V30 9715 C 920.085 -0.214628 -4.56496 0
M  V30 9716 C 921.082 -1.04298 -5.09331 0
M  V30 9717 C 918.767 -0.356242 -5.01035 0
M  V30 9718 C 920.761 -1.99889 -6.05246 0
M  V30 9719 C 918.448 -1.3156 -5.96771 0
M  V30 9720 C 919.446 -2.1354 -6.4876 0
M  V30 9721 O 919.134 -3.07849 -7.4262 0
M  V30 9722 H 918.866 0.0715341 -0.672204 0
M  V30 9723 H 921.42 -0.438179 -2.00672 0
M  V30 9724 H 919.65 1.62966 -3.50684 0
M  V30 9725 H 921.339 1.35752 -3.82526 0
M  V30 9726 H 922.105 -0.944439 -4.75716 0
M  V30 9727 H 917.984 0.271916 -4.60197 0
M  V30 9728 H 921.528 -2.63917 -6.45751 0
M  V30 9729 H 917.425 -1.41486 -6.29803 0
M  V30 9730 H 918.193 -3.02824 -7.60421 0
M  V30 9731 N 920.856 1.57574 -0.0284266 0
M  V30 9732 C 921.766 2.13637 0.96936 0
M  V30 9733 C 922.782 1.08845 1.35752 0
M  V30 9734 O 923.958 1.40899 1.43908 0
M  V30 9735 C 921.023 2.65179 2.2334 0
M  V30 9736 C 920.084 3.84683 1.90572 0
M  V30 9737 C 919.317 4.33758 3.1095 0
M  V30 9738 O 919.54 3.82009 4.23586 0
M  V30 9739 O 918.474 5.2561 2.93288 0
M  V30 9740 H 922.3 2.99169 0.52267 0
M  V30 9741 H 919.885 1.48159 0.192135 0
M  V30 9742 H 921.767 2.98402 2.97547 0
M  V30 9743 H 920.442 1.82731 2.67191 0
M  V30 9744 H 919.349 3.56386 1.13753 0
M  V30 9745 H 920.682 4.68292 1.51538 0
M  V30 9746 N 922.334 -0.244713 1.55689 0
M  V30 9747 C 923.75 -0.593331 1.48161 0
M  V30 9748 C 923.95 -1.88234 0.719047 0
M  V30 9749 O 923.006 -2.51266 0.249292 0
M  V30 9750 C 924.319 -0.694032 2.92581 0
M  V30 9751 C 925.867 -0.786213 3.02965 0
M  V30 9752 C 926.342 -0.918457 4.48696 0
M  V30 9753 N 927.833 -0.983272 4.52643 0
M  V30 9754 C 928.568 -1.1049 5.62654 0
M  V30 9755 N 928.064 -1.19193 6.8247 0
M  V30 9756 N 929.857 -1.13823 5.50455 0
M  V30 9757 H 922.008 0.601446 2.03707 0
M  V30 9758 H 924.271 0.207894 0.924924 0
M  V30 9759 H 923.977 0.183133 3.51223 0
M  V30 9760 H 923.851 -1.56525 3.4319 0
M  V30 9761 H 926.238 -1.65383 2.44402 0
M  V30 9762 H 926.319 0.110202 2.55563 0
M  V30 9763 H 925.963 -0.0553881 5.0787 0
M  V30 9764 H 925.893 -1.82994 4.93782 0
M  V30 9765 H 928.384 -0.927269 3.66347 0
M  V30 9766 H 928.697 -1.28387 7.62061 0
M  V30 9767 H 927.042 -1.16147 6.85226 0
M  V30 9768 H 930.233 -1.06673 4.55783 0
M  V30 9769 H 930.406 -1.22957 6.36228 0
M  V30 9770 N 923.813 -1.49104 -0.510467 0
M  V30 9771 C 925.053 -1.59723 -1.27545 0
M  V30 9772 C 925.417 -0.273525 -1.90042 0
M  V30 9773 O 926.618 -0.254835 -2.67589 0
M  V30 9774 C 924.889 -2.71771 -2.3211 0
M  V30 9775 S 926.448 -3.02282 -3.18074 0
M  V30 9776 H 923.266 -0.563489 -0.433591 0
M  V30 9777 H 925.868 -1.86719 -0.579328 0
M  V30 9778 H 924.572 -3.66483 -1.84711 0
M  V30 9779 H 924.103 -2.46739 -3.06404 0
M  V30 9780 H 926.118 -2.43076 -4.32583 0
M  V30 9781 N 925.291 0.760815 -1.38019 0
M  V30 9782 C 926.54 1.51506 -1.3315 0
M  V30 9783 C 926.853 1.95444 0.0782124 0
M  V30 9784 O 928.059 2.70352 0.249418 0
M  V30 9785 C 926.515 2.73636 -2.33776 0
M  V30 9786 C 926.123 2.36753 -3.80332 0
M  V30 9787 C 927.867 3.51548 -2.37937 0
M  V30 9788 C 925.774 3.55451 -4.72661 0
M  V30 9789 H 924.704 0.568844 -0.494907 0
M  V30 9790 H 927.355 0.832343 -1.63537 0
M  V30 9791 H 925.737 3.43852 -1.96422 0
M  V30 9792 H 926.911 1.7425 -4.26584 0
M  V30 9793 H 925.226 1.71991 -3.7922 0
M  V30 9794 H 927.823 4.39791 -3.04119 0
M  V30 9795 H 928.166 3.9219 -1.39617 0
M  V30 9796 H 928.699 2.88339 -2.74054 0
M  V30 9797 H 925.438 3.19882 -5.7215 0
M  V30 9798 H 924.958 4.17022 -4.31107 0
M  V30 9799 H 926.637 4.22125 -4.90326 0
M  V30 9800 N 926.769 1.22769 0.988202 0
M  V30 9801 C 927.699 1.02627 2.09738 0
M  V30 9802 C 928.68 -0.0543211 1.70013 0
M  V30 9803 O 929.865 0.108811 1.93895 0
M  V30 9804 C 926.995 0.608302 3.41931 0
M  V30 9805 C 925.949 1.63536 3.95525 0
M  V30 9806 C 925.275 1.07308 5.23822 0
M  V30 9807 C 926.575 3.02649 4.25677 0
M  V30 9808 H 928.269 1.954 2.26847 0
M  V30 9809 H 925.815 0.940888 1.09011 0
M  V30 9810 H 927.768 0.454478 4.18942 0
M  V30 9811 H 926.492 -0.355095 3.24664 0
M  V30 9812 H 925.151 1.77704 3.20651 0
M  V30 9813 H 924.799 0.100894 5.02899 0
M  V30 9814 H 924.499 1.75925 5.60646 0
M  V30 9815 H 926.023 0.930938 6.03462 0
M  V30 9816 H 927.437 2.91828 4.93467 0
M  V30 9817 H 925.834 3.68434 4.73684 0
M  V30 9818 H 926.904 3.52228 3.33262 0
M  V30 9819 N 928.247 -1.18576 1.03814 0
M  V30 9820 C 929.177 -2.24334 0.647795 0
M  V30 9821 C 930.158 -1.66508 -0.34774 0
M  V30 9822 O 931.343 -1.92852 -0.228401 0
M  V30 9823 C 928.473 -3.47299 0.00734922 0
M  V30 9824 C 927.427 -4.17859 0.926152 0
M  V30 9825 C 926.753 -5.34489 0.150317 0
M  V30 9826 C 928.053 -4.71632 2.24411 0
M  V30 9827 H 929.747 -2.57241 1.53191 0
M  V30 9828 H 927.293 -1.23649 0.738028 0
M  V30 9829 H 929.246 -4.20486 -0.277434 0
M  V30 9830 H 927.97 -3.13619 -0.911626 0
M  V30 9831 H 926.629 -3.46567 1.19528 0
M  V30 9832 H 926.277 -4.97056 -0.770985 0
M  V30 9833 H 925.977 -5.82633 0.762407 0
M  V30 9834 H 927.501 -6.10467 -0.127508 0
M  V30 9835 H 928.915 -5.36526 2.02021 0
M  V30 9836 H 927.312 -5.303 2.80894 0
M  V30 9837 H 928.382 -3.89192 2.89236 0
M  V30 9838 N 929.725 -0.817259 -1.34754 0
M  V30 9839 C 931.002 -0.325468 -1.92873 0
M  V30 9840 C 931.382 1.18643 -1.74606 0
M  V30 9841 O 930.73 1.9909 -1.1214 0
M  V30 9842 C 930.94 -0.74858 -3.40877 0
M  V30 9843 C 932.288 -0.744165 -4.18028 0
M  V30 9844 O 933.312 -0.690799 -3.49437 0
M  V30 9845 O 932.171 -0.812207 -5.40431 0
M  V30 9846 H 929.265 -0.0876397 -0.822343 0
M  V30 9847 H 931.811 -0.901671 -1.43764 0
M  V30 9848 H 930.583 -1.79017 -3.47949 0
M  V30 9849 H 930.206 -0.147764 -3.97325 0
M  V30 9850 N 931.203 1.46865 -0.571711 0
M  V30 9851 C 932.452 2.01636 -0.050881 0
M  V30 9852 C 932.765 1.45001 1.31279 0
M  V30 9853 O 933.971 1.91523 1.92435 0
M  V30 9854 C 932.427 3.59877 -0.0404114 0
M  V30 9855 C 932.035 4.25506 -1.40172 0
M  V30 9856 C 933.779 4.22346 0.42705 0
M  V30 9857 C 931.686 5.75795 -1.34958 0
M  V30 9858 H 930.616 0.753846 -0.0152514 0
M  V30 9859 H 933.267 1.68711 -0.721723 0
M  V30 9860 H 931.649 3.89829 0.696374 0
M  V30 9861 H 932.823 4.07178 -2.15737 0
M  V30 9862 H 931.138 3.75086 -1.8083 0
M  V30 9863 H 933.735 5.32499 0.484688 0
M  V30 9864 H 934.078 3.9052 1.44222 0
M  V30 9865 H 934.611 3.9698 -0.255326 0
M  V30 9866 H 931.35 6.12265 -2.3412 0
M  V30 9867 H 930.87 5.96419 -0.635962 0
M  V30 9868 H 932.549 6.38294 -1.05779 0
M  V30 9869 N 932.681 0.308908 1.54543 0
M  V30 9870 C 933.591 -0.572939 2.27496 0
M  V30 9871 C 934.607 -1.14171 1.31305 0
M  V30 9872 O 935.783 -1.16481 1.64299 0
M  V30 9873 C 932.848 -1.72483 3.0075 0
M  V30 9874 C 931.909 -1.18934 4.12496 0
M  V30 9875 C 931.142 -2.28634 4.82247 0
M  V30 9876 O 931.365 -3.48691 4.5141 0
M  V30 9877 O 930.299 -1.94879 5.69478 0
M  V30 9878 H 934.125 0.0190877 3.03694 0
M  V30 9879 H 931.71 0.0750943 1.49211 0
M  V30 9880 H 933.592 -2.39578 3.46671 0
M  V30 9881 H 932.267 -2.30332 2.2744 0
M  V30 9882 H 931.174 -0.483904 3.70957 0
M  V30 9883 H 932.507 -0.656185 4.87806 0
M  V30 9884 N 934.159 -1.57557 0.0367827 0
M  V30 9885 C 935.406 -1.92114 -0.640185 0
M  V30 9886 C 935.734 -0.913887 -1.71693 0
M  V30 9887 O 934.989 0.0760343 -1.95552 0
M  V30 9888 C 935.288 -3.33387 -1.28794 0
M  V30 9889 C 934.954 -4.4961 -0.340819 0
M  V30 9890 C 933.616 -4.81133 -0.0801574 0
M  V30 9891 C 935.968 -5.20283 0.309106 0
M  V30 9892 C 933.296 -5.80683 0.838107 0
M  V30 9893 C 935.648 -6.20813 1.21547 0
M  V30 9894 C 934.312 -6.50773 1.48495 0
M  V30 9895 H 933.582 -0.702996 -0.23426 0
M  V30 9896 H 936.229 -1.91238 0.100188 0
M  V30 9897 H 934.534 -3.30561 -2.10324 0
M  V30 9898 H 936.231 -3.57399 -1.81843 0
M  V30 9899 H 932.821 -4.25002 -0.554161 0
M  V30 9900 H 937.005 -4.96153 0.120794 0
M  V30 9901 H 932.261 -6.02238 1.05451 0
M  V30 9902 H 936.435 -6.74692 1.72522 0
M  V30 9903 H 934.062 -7.27727 2.19814 0
M  V30 9904 N 935.637 0.236453 -1.55816 0
M  V30 9905 C 936.862 0.98449 -1.82545 0
M  V30 9906 C 937.287 1.77755 -0.615206 0
M  V30 9907 O 936.645 1.75982 0.435895 0
M  V30 9908 C 936.693 1.88973 -3.07118 0
M  V30 9909 O 935.797 2.98298 -2.84766 0
M  V30 9910 H 935.138 0.279577 -0.602273 0
M  V30 9911 H 937.668 0.254277 -2.03014 0
M  V30 9912 H 937.678 2.3024 -3.36829 0
M  V30 9913 H 936.353 1.30671 -3.94839 0
M  V30 9914 H 934.93 2.61085 -2.6625 0
M  V30 9915 N 937.115 1.49373 0.502552 0
M  V30 9916 C 938.392 1.49282 1.26389 0
M  V30 9917 C 938.772 0.219674 2.09954 0
M  V30 9918 O 938.12 -0.797991 2.14113 0
M  V30 9919 C 938.33 2.77083 2.12194 0
M  V30 9920 C 939.678 3.26511 2.71433 0
M  V30 9921 O 940.702 2.78189 2.22462 0
M  V30 9922 O 939.561 4.10665 3.60578 0
M  V30 9923 H 936.655 0.597415 0.57186 0
M  V30 9924 H 939.201 1.61634 0.516951 0
M  V30 9925 H 937.973 3.61237 1.50411 0
M  V30 9926 H 937.596 2.67583 2.94084 0
M  V30 9927 N 938.594 -0.753485 1.38421 0
M  V30 9928 C 939.542 -1.8886 1.35774 0
M  V30 9929 C 940.536 -1.67639 0.243608 0
M  V30 9930 O 941.742 -1.75206 0.412649 0
M  V30 9931 H 938.117 -0.62137 0.42356 0
M  V30 9932 H 940.088 -1.88209 2.3156 0
M  V30 9933 C 938.837 -3.26344 1.19979 0
M  V30 9934 H 938.16 -3.43259 2.04971 0
M  V30 9935 H 939.6 -4.06015 1.22181 0
M  V30 9936 C 938.059 -3.36771 -0.0932867 0
M  V30 9937 O 938.589 -3.8718 -1.07027 0
M  V30 9938 N 936.795 -2.90212 -0.150154 0
M  V30 9939 H 936.342 -2.4938 0.645562 0
M  V30 9940 H 936.3 -2.97569 -1.0149 0
M  V30 9941 N 940.072 -1.23292 -0.981677 0
M  V30 9942 C 941.004 -0.970782 -2.07626 0
M  V30 9943 C 942.017 0.0547506 -1.62708 0
M  V30 9944 O 943.206 -0.180623 -1.77584 0
M  V30 9945 C 940.306 -0.44055 -3.36024 0
M  V30 9946 C 939.479 -1.52595 -4.09919 0
M  V30 9947 C 938.538 -1.00082 -5.16595 0
M  V30 9948 O 937.564 -1.68951 -5.43548 0
M  V30 9949 N 938.766 0.172017 -5.80245 0
M  V30 9950 H 941.531 -1.91316 -2.30691 0
M  V30 9951 H 939.092 -1.14133 -1.14828 0
M  V30 9952 H 941.084 -0.0743111 -4.04632 0
M  V30 9953 H 939.654 0.407211 -3.09936 0
M  V30 9954 H 938.874 -2.06501 -3.35784 0
M  V30 9955 H 940.162 -2.2559 -4.56055 0
M  V30 9956 H 939.56 0.748129 -5.60731 0
M  V30 9957 H 938.117 0.479532 -6.50034 0
M  V30 9958 N 941.55 1.18024 -1.04442 0
M  V30 9959 C 942.498 2.23834 -0.632557 0
M  V30 9960 C 943.492 1.65902 0.342488 0
M  V30 9961 O 944.698 1.78778 0.20937 0
M  V30 9962 H 941.073 0.728544 -0.186353 0
M  V30 9963 H 943.044 2.55876 -1.53526 0
M  V30 9964 C 941.793 3.47697 -0.0153661 0
M  V30 9965 H 941.116 3.92574 -0.756704 0
M  V30 9966 H 942.556 4.23345 0.235541 0
M  V30 9967 C 941.015 3.13416 1.23579 0
M  V30 9968 O 941.545 3.27499 2.3261 0
M  V30 9969 N 939.751 2.67708 1.13053 0
M  V30 9970 H 939.298 2.56449 0.243277 0
M  V30 9971 H 939.256 2.45143 1.96855 0
M  V30 9972 N 943.028 0.824394 1.34319 0
M  V30 9973 C 944.274 0.413779 1.98534 0
M  V30 9974 C 944.607 -1.02089 1.65201 0
M  V30 9975 O 943.882 -1.71129 0.924402 0
M  V30 9976 C 944.165 0.61801 3.54757 0
M  V30 9977 C 944.018 2.0989 3.97827 0
M  V30 9978 C 945.337 0.0549041 4.40066 0
M  V30 9979 H 942.456 0.151815 0.721194 0
M  V30 9980 H 945.098 1.03723 1.5919 0
M  V30 9981 H 943.248 0.0873107 3.88402 0
M  V30 9982 H 944.92 2.69335 3.74508 0
M  V30 9983 H 943.163 2.58881 3.48085 0
M  V30 9984 H 943.834 2.1926 5.06586 0
M  V30 9985 H 946.31 0.508348 4.12983 0
M  V30 9986 H 945.186 0.227595 5.48428 0
M  V30 9987 H 945.447 -1.04025 4.29687 0
M  V30 9988 N 944.506 -1.46559 0.579492 0
M  V30 9989 C 945.783 -1.956 -0.00287136 0
M  V30 9990 C 946.163 -1.52215 -1.46266 0
M  V30 9991 O 945.511 -0.771335 -2.15088 0
M  V30 9992 C 945.721 -3.48606 0.165824 0
M  V30 9993 C 947.069 -4.24588 0.0319807 0
M  V30 9994 O 948.093 -3.56075 0.094496 0
M  V30 9995 O 946.952 -5.46396 -0.106386 0
M  V30 9996 H 944.046 -0.825387 -0.0516274 0
M  V30 9997 H 946.592 -1.56858 0.647584 0
M  V30 9998 H 945.364 -3.7306 1.18076 0
M  V30 9999 H 944.987 -3.94169 -0.521212 0
M  V30 10000 N 945.984 -0.3171 -1.54377 0
M  V30 10001 C 946.916 0.58571 -2.2159 0
M  V30 10002 C 947.929 1.08495 -1.21378 0
M  V30 10003 O 949.118 0.999638 -1.47883 0
M  V30 10004 C 946.218 1.8157 -2.86156 0
M  V30 10005 C 945.391 1.45625 -4.12447 0
M  V30 10006 C 944.45 2.54308 -4.60667 0
M  V30 10007 O 943.476 2.18724 -5.25498 0
M  V30 10008 N 944.678 3.85129 -4.34345 0
M  V30 10009 H 947.443 0.0102247 -2.99698 0
M  V30 10010 H 945.004 -0.140011 -1.61293 0
M  V30 10011 H 946.996 2.53657 -3.15341 0
M  V30 10012 H 945.566 2.29919 -2.11793 0
M  V30 10013 H 944.786 0.567294 -3.90097 0
M  V30 10014 H 946.074 1.19169 -4.94648 0
M  V30 10015 H 945.472 4.16841 -3.8244 0
M  V30 10016 H 944.029 4.53466 -4.68201 0
M  V30 10017 N 947.462 1.57535 -0.0451378 0
M  V30 10018 C 948.711 1.91628 0.629415 0
M  V30 10019 C 949.024 0.924754 1.72359 0
M  V30 10020 O 950.23 1.15751 2.45589 0
M  V30 10021 C 948.686 3.40322 1.17084 0
M  V30 10022 C 948.294 4.47867 0.109101 0
M  V30 10023 C 950.038 3.83458 1.82099 0
M  V30 10024 C 947.945 5.87671 0.663072 0
M  V30 10025 H 946.875 0.715163 0.238868 0
M  V30 10026 H 949.526 1.83151 -0.113046 0
M  V30 10027 H 947.908 3.43783 1.96543 0
M  V30 10028 H 949.082 4.55988 -0.664201 0
M  V30 10029 H 947.397 4.14034 -0.443227 0
M  V30 10030 H 949.994 4.85273 2.2453 0
M  V30 10031 H 950.337 3.19379 2.67026 0
M  V30 10032 H 950.87 3.82488 1.09305 0
M  V30 10033 H 947.609 6.55332 -0.148423 0
M  V30 10034 H 947.129 5.83124 1.4045 0
M  V30 10035 H 948.808 6.36737 1.14785 0
M  V30 10036 N 948.94 -0.228186 1.55939 0
M  V30 10037 C 949.87 -1.28607 1.94891 0
M  V30 10038 C 950.851 -1.49236 0.816245 0
M  V30 10039 O 952.036 -1.61531 1.07803 0
M  V30 10040 C 949.166 -2.63719 2.25986 0
M  V30 10041 C 948.12 -2.57757 3.4168 0
M  V30 10042 C 947.446 -3.96837 3.58364 0
M  V30 10043 C 948.746 -2.13116 4.76843 0
M  V30 10044 H 950.44 -0.962531 2.83506 0
M  V30 10045 H 947.986 -0.461577 1.36402 0
M  V30 10046 H 949.939 -3.37878 2.51826 0
M  V30 10047 H 948.663 -2.97747 1.34217 0
M  V30 10048 H 947.322 -1.86055 3.15878 0
M  V30 10049 H 946.97 -4.28162 2.63982 0
M  V30 10050 H 946.67 -3.93731 4.36176 0
M  V30 10051 H 948.194 -4.72668 3.86545 0
M  V30 10052 H 949.608 -2.77015 5.01932 0
M  V30 10053 H 948.005 -2.21083 5.57891 0
M  V30 10054 H 949.075 -1.08326 4.72645 0
M  V30 10055 N 950.418 -1.49637 -0.494624 0
M  V30 10056 C 951.664 -1.60654 -1.24747 0
M  V30 10057 C 952.019 -0.292376 -1.90166 0
M  V30 10058 O 951.312 0.707918 -1.78042 0
M  V30 10059 C 951.506 -2.70749 -2.33302 0
M  V30 10060 C 951.335 -4.12744 -1.7853 0
M  V30 10061 C 950.105 -4.79451 -1.59546 0
M  V30 10062 C 952.303 -4.97767 -1.29353 0
M  V30 10063 N 950.285 -6.05738 -0.997702 0
M  V30 10064 C 951.656 -6.14587 -0.817517 0
M  V30 10065 C 953.711 -4.83719 -1.17986 0
M  V30 10066 C 952.414 -7.18903 -0.23907 0
M  V30 10067 C 954.44 -5.8819 -0.615375 0
M  V30 10068 C 953.802 -7.04241 -0.149622 0
M  V30 10069 H 949.901 -0.642198 -0.446213 0
M  V30 10070 H 952.485 -1.86668 -0.553469 0
M  V30 10071 H 950.656 -2.46497 -3.00156 0
M  V30 10072 H 952.388 -2.71253 -3.0034 0
M  V30 10073 H 949.143 -4.36354 -1.84098 0
M  V30 10074 H 949.567 -6.73183 -0.717911 0
M  V30 10075 H 954.209 -3.94304 -1.52592 0
M  V30 10076 H 951.927 -8.08012 0.11925 0
M  V30 10077 H 955.513 -5.7938 -0.530114 0
M  V30 10078 H 954.393 -7.83699 0.280349 0
M  V30 10079 N 951.896 0.746133 -1.38819 0
M  V30 10080 C 952.843 1.86001 -1.36647 0
M  V30 10081 C 953.813 1.6453 -0.227849 0
M  V30 10082 O 954.998 1.86092 -0.421241 0
M  V30 10083 C 952.138 3.23388 -1.20474 0
M  V30 10084 C 951.251 3.5664 -2.43786 0
M  V30 10085 C 950.386 4.8337 -2.20287 0
M  V30 10086 C 949.425 5.09431 -3.39332 0
M  V30 10087 N 948.562 6.2736 -3.1522 0
M  V30 10088 H 953.402 1.87192 -2.31869 0
M  V30 10089 H 950.939 0.914838 -1.15192 0
M  V30 10090 H 952.897 4.02679 -1.09112 0
M  V30 10091 H 951.527 3.21505 -0.288874 0
M  V30 10092 H 950.579 2.72135 -2.65794 0
M  V30 10093 H 951.891 3.71823 -3.3249 0
M  V30 10094 H 951.045 5.70619 -2.06103 0
M  V30 10095 H 949.784 4.70341 -1.28961 0
M  V30 10096 H 948.789 4.20648 -3.54027 0
M  V30 10097 H 950.014 5.24354 -4.31544 0
M  V30 10098 H 947.96 6.15639 -2.26549 0
M  V30 10099 H 947.877 6.43078 -3.97476 0
M  V30 10100 H 949.145 7.17477 -3.04707 0
M  V30 10101 N 953.375 1.23811 0.975125 0
M  V30 10102 C 954.323 1.02149 2.0897 0
M  V30 10103 C 955.317 -0.0412172 1.6935 0
M  V30 10104 O 956.523 0.112726 1.79647 0
M  V30 10105 H 952.898 0.313259 0.683647 0
M  V30 10106 H 954.869 1.96686 2.24404 0
M  V30 10107 C 953.618 0.635023 3.41852 0
M  V30 10108 H 952.941 1.44449 3.72793 0
M  V30 10109 H 954.381 0.52301 4.20762 0
M  V30 10110 C 952.84 -0.657207 3.30428 0
M  V30 10111 O 953.37 -1.70494 3.63723 0
M  V30 10112 N 951.576 -0.635122 2.83575 0
M  V30 10113 H 951.123 0.21784 2.56677 0
M  V30 10114 H 951.081 -1.49995 2.76313 0
M  V30 10115 N 954.853 -1.17469 1.05066 0
M  V30 10116 C 955.816 -2.19648 0.654793 0
M  V30 10117 C 956.816 -1.58107 -0.293063 0
M  V30 10118 O 958.006 -1.74029 -0.077106 0
M  V30 10119 C 955.138 -3.40878 -0.0384437 0
M  V30 10120 H 956.331 -2.56184 1.55915 0
M  V30 10121 H 953.884 -1.31528 0.844396 0
M  V30 10122 H 954.619 -3.09885 -0.956133 0
M  V30 10123 H 954.404 -3.86792 0.642961 0
M  V30 10124 H 955.894 -4.1651 -0.301568 0
M  V30 10125 N 956.331 -0.831506 -1.3388 0
M  V30 10126 C 957.578 -0.423674 -1.98018 0
M  V30 10127 C 957.906 1.01533 -1.65895 0
M  V30 10128 O 957.161 1.72342 -0.927183 0
M  V30 10129 C 957.46 -0.582733 -3.52617 0
M  V30 10130 C 957.126 -1.98874 -4.04673 0
M  V30 10131 C 955.788 -2.37334 -4.186 0
M  V30 10132 C 958.14 -2.90745 -4.3257 0
M  V30 10133 C 955.468 -3.66984 -4.57755 0
M  V30 10134 C 957.82 -4.19868 -4.73174 0
M  V30 10135 C 956.484 -4.58294 -4.85307 0
M  V30 10136 H 955.754 -0.155033 -0.7246 0
M  V30 10137 H 958.401 -1.05711 -1.59679 0
M  V30 10138 H 956.706 0.134052 -3.91571 0
M  V30 10139 H 958.403 -0.247576 -4.00235 0
M  V30 10140 H 954.993 -1.68001 -3.94301 0
M  V30 10141 H 959.177 -2.62272 -4.2134 0
M  V30 10142 H 954.433 -3.9657 -4.65341 0
M  V30 10143 H 958.607 -4.91138 -4.93717 0
M  V30 10144 H 956.234 -5.58805 -5.15404 0
M  V30 10145 N 957.809 1.4625 -0.587256 0
M  V30 10146 C 959.039 2.06444 -0.0802135 0
M  V30 10147 C 959.447 1.43585 1.23207 0
M  V30 10148 O 958.79 0.536956 1.75677 0
M  V30 10149 C 958.852 3.59165 0.155129 0
M  V30 10150 C 958.516 4.44243 -1.07225 0
M  V30 10151 C 959.513 4.80497 -1.98542 0
M  V30 10152 C 957.198 4.8531 -1.29537 0
M  V30 10153 C 959.192 5.56649 -3.10516 0
M  V30 10154 C 956.879 5.61221 -2.41815 0
M  V30 10155 C 957.877 5.96805 -3.32134 0
M  V30 10156 O 957.565 6.71181 -4.42461 0
M  V30 10157 H 957.297 0.673626 -0.0566063 0
M  V30 10158 H 959.851 1.88797 -0.809004 0
M  V30 10159 H 958.081 3.75137 0.938583 0
M  V30 10160 H 959.77 4.01271 0.611243 0
M  V30 10161 H 960.536 4.49345 -1.82522 0
M  V30 10162 H 956.415 4.5706 -0.601431 0
M  V30 10163 H 959.959 5.84343 -3.81037 0
M  V30 10164 H 955.856 5.91786 -2.57797 0
M  V30 10165 H 956.624 6.8961 -4.40886 0
M  V30 10166 N 959.287 0.325282 1.54207 0
M  V30 10167 C 960.219 -0.57395 2.21897 0
M  V30 10168 C 961.232 -1.0785 1.21952 0
M  V30 10169 O 962.421 -0.991782 1.48411 0
M  V30 10170 C 959.521 -1.8005 2.87115 0
M  V30 10171 C 958.694 -1.43435 4.13213 0
M  V30 10172 C 957.753 -2.51862 4.62009 0
M  V30 10173 O 956.779 -2.15934 5.26651 0
M  V30 10174 N 957.981 -3.8282 4.36382 0
M  V30 10175 H 960.746 0.00566918 2.99699 0
M  V30 10176 H 958.307 0.148563 1.61217 0
M  V30 10177 H 960.299 -2.51981 3.16682 0
M  V30 10178 H 958.869 -2.28792 2.13009 0
M  V30 10179 H 958.089 -0.546598 3.90392 0
M  V30 10180 H 959.377 -1.16544 4.95273 0
M  V30 10181 H 958.775 -4.14807 3.84645 0
M  V30 10182 H 957.332 -4.50976 4.70599 0
M  V30 10183 N 960.765 -1.57509 0.0534917 0
M  V30 10184 C 962.011 -1.93068 -0.62069 0
M  V30 10185 C 962.344 -0.932313 -1.70357 0
M  V30 10186 O 961.619 0.0413393 -1.94456 0
M  V30 10187 C 961.902 -3.38997 -1.21463 0
M  V30 10188 C 961.755 -4.49583 -0.13965 0
M  V30 10189 C 963.074 -3.85366 -2.12558 0
M  V30 10190 H 960.193 -0.702083 -0.224163 0
M  V30 10191 H 962.835 -1.89647 0.115729 0
M  V30 10192 H 960.985 -3.42043 -1.84226 0
M  V30 10193 H 962.657 -4.58664 0.492411 0
M  V30 10194 H 960.9 -4.30525 0.532006 0
M  V30 10195 H 961.571 -5.48781 -0.595287 0
M  V30 10196 H 964.047 -3.8421 -1.59755 0
M  V30 10197 H 962.923 -4.8812 -2.51058 0
M  V30 10198 H 963.184 -3.22256 -3.02661 0
M  V30 10199 N 962.243 0.219913 -1.56058 0
M  V30 10200 C 963.492 0.942119 -1.78345 0
M  V30 10201 C 963.805 1.85435 -0.622344 0
M  V30 10202 O 965.011 2.61533 -0.728886 0
M  V30 10203 C 963.467 1.72544 -3.15843 0
M  V30 10204 C 963.075 0.859263 -4.39682 0
M  V30 10205 C 964.819 2.43876 -3.47455 0
M  V30 10206 C 962.726 1.64003 -5.68205 0
M  V30 10207 H 961.656 0.355514 -0.664925 0
M  V30 10208 H 964.307 0.195963 -1.82451 0
M  V30 10209 H 962.689 2.51456 -3.05918 0
M  V30 10210 H 963.863 0.110562 -4.60667 0
M  V30 10211 H 962.178 0.257985 -4.156 0
M  V30 10212 H 964.775 3.02794 -4.40704 0
M  V30 10213 H 965.118 3.16843 -2.7003 0
M  V30 10214 H 965.651 1.71952 -3.58716 0
M  V30 10215 H 962.39 0.953606 -6.48526 0
M  V30 10216 H 961.91 2.3633 -5.51279 0
M  V30 10217 H 963.589 2.20028 -6.08438 0
M  V30 10218 N 963.721 1.49897 0.486681 0
M  V30 10219 C 964.631 1.70379 1.6127 0
M  V30 10220 C 965.647 0.58659 1.63814 0
M  V30 10221 O 966.823 0.863044 1.81971 0
M  V30 10222 C 963.888 1.77911 2.97571 0
M  V30 10223 C 962.949 3.01569 3.0554 0
M  V30 10224 C 962.182 3.08732 4.35339 0
M  V30 10225 O 962.405 2.23099 5.2496 0
M  V30 10226 O 961.339 4.01325 4.48578 0
M  V30 10227 H 965.165 2.65799 1.46916 0
M  V30 10228 H 962.75 1.33808 0.664516 0
M  V30 10229 H 964.632 1.85135 3.78554 0
M  V30 10230 H 963.307 0.856722 3.12157 0
M  V30 10231 H 962.214 2.99854 2.23693 0
M  V30 10232 H 963.547 3.93335 2.95886 0
M  V30 10233 N 965.199 -0.738761 1.39212 0
M  V30 10234 C 966.146 -1.85273 1.37631 0
M  V30 10235 C 967.116 -1.64407 0.236572 0
M  V30 10236 O 968.301 -1.85866 0.431104 0
M  V30 10237 C 965.441 -3.22745 1.22188 0
M  V30 10238 C 964.554 -3.55342 2.45674 0
M  V30 10239 C 963.689 -4.82195 2.22847 0
M  V30 10240 C 962.728 -5.07625 3.42029 0
M  V30 10241 N 961.865 -6.25679 3.18543 0
M  V30 10242 H 966.705 -1.85959 2.32859 0
M  V30 10243 H 964.242 -0.908716 1.15675 0
M  V30 10244 H 966.2 -4.02095 1.11245 0
M  V30 10245 H 964.83 -3.21347 0.30592 0
M  V30 10246 H 963.882 -2.70722 2.67233 0
M  V30 10247 H 965.194 -3.70054 3.34457 0
M  V30 10248 H 964.348 -5.69518 2.09126 0
M  V30 10249 H 963.087 -4.6965 1.31454 0
M  V30 10250 H 962.092 -4.18765 3.56253 0
M  V30 10251 H 963.317 -5.22058 4.34319 0
M  V30 10252 H 961.263 -6.14429 2.2981 0
M  V30 10253 H 961.18 -6.40961 4.0088 0
M  V30 10254 H 962.448 -7.15851 3.08508 0
M  V30 10255 N 966.677 -1.24326 -0.968545 0
M  V30 10256 C 967.924 -1.08245 -1.71141 0
M  V30 10257 C 968.252 0.378842 -1.90775 0
M  V30 10258 O 967.507 1.29634 -1.46607 0
M  V30 10259 C 967.806 -1.76644 -3.10695 0
M  V30 10260 C 967.472 -3.26572 -3.10905 0
M  V30 10261 C 966.134 -3.67475 -3.10669 0
M  V30 10262 C 968.486 -4.22422 -3.05302 0
M  V30 10263 C 965.814 -5.02666 -3.02562 0
M  V30 10264 C 968.166 -5.57619 -2.98737 0
M  V30 10265 C 966.83 -5.9787 -2.9683 0
M  V30 10266 H 966.1 -0.396098 -0.626249 0
M  V30 10267 H 968.747 -1.54418 -1.13258 0
M  V30 10268 H 967.052 -1.22864 -3.72037 0
M  V30 10269 H 968.749 -1.61668 -3.66967 0
M  V30 10270 H 965.339 -2.94017 -3.11852 0
M  V30 10271 H 969.523 -3.91821 -3.04614 0
M  V30 10272 H 964.779 -5.3305 -2.99446 0
M  V30 10273 H 968.953 -6.31595 -2.93361 0
M  V30 10274 H 966.58 -7.02587 -2.90303 0
M  V30 10275 N 968.156 1.1691 -1.05688 0
M  V30 10276 C 969.572 1.39288 -0.779167 0
M  V30 10277 C 969.772 1.91587 0.624231 0
M  V30 10278 O 968.828 2.11072 1.38582 0
M  V30 10279 C 970.141 2.37914 -1.83895 0
M  V30 10280 C 971.689 2.51611 -1.86175 0
M  V30 10281 C 972.164 3.53514 -2.9119 0
M  V30 10282 N 973.655 3.61036 -2.90184 0
M  V30 10283 C 974.39 4.39657 -3.68088 0
M  V30 10284 N 973.886 5.21752 -4.55793 0
M  V30 10285 N 975.679 4.3458 -3.56507 0
M  V30 10286 H 967.83 0.81296 -1.96226 0
M  V30 10287 H 970.093 0.419818 -0.849975 0
M  V30 10288 H 969.799 2.06568 -2.84645 0
M  V30 10289 H 969.673 3.37483 -1.68479 0
M  V30 10290 H 972.06 2.82264 -0.86087 0
M  V30 10291 H 972.141 1.52099 -2.05668 0
M  V30 10292 H 971.785 3.23599 -3.91467 0
M  V30 10293 H 971.715 4.52742 -2.68947 0
M  V30 10294 H 974.206 3.02428 -2.26596 0
M  V30 10295 H 974.519 5.78939 -5.11907 0
M  V30 10296 H 972.864 5.21116 -4.59851 0
M  V30 10297 H 976.055 3.69501 -2.87379 0
M  V30 10298 H 976.228 4.95607 -4.17466 0
M  V30 10299 N 969.634 0.838594 1.33437 0
M  V30 10300 C 970.566 0.229006 2.28053 0
M  V30 10301 C 971.579 -0.590103 1.51729 0
M  V30 10302 O 972.768 -0.417218 1.73556 0
M  V30 10303 C 969.868 -0.696251 3.31671 0
M  V30 10304 C 969.041 0.0834606 4.3732 0
M  V30 10305 C 968.1 -0.765097 5.20608 0
M  V30 10306 O 967.126 -0.2044 5.68833 0
M  V30 10307 N 968.328 -2.08249 5.4186 0
M  V30 10308 H 971.093 1.04196 2.81004 0
M  V30 10309 H 968.654 0.697031 1.46127 0
M  V30 10310 H 970.646 -1.26889 3.84293 0
M  V30 10311 H 969.216 -1.40992 2.78998 0
M  V30 10312 H 968.436 0.837481 3.85201 0
M  V30 10313 H 969.724 0.619613 5.05013 0
M  V30 10314 H 969.122 -2.56156 5.04381 0
M  V30 10315 H 967.679 -2.60362 5.97541 0
M  V30 10316 N 971.112 -1.45937 0.595003 0
M  V30 10317 C 972.042 -2.33198 -0.11871 0
M  V30 10318 C 973.023 -1.46083 -0.871423 0
M  V30 10319 O 974.208 -1.74879 -0.844461 0
M  V30 10320 C 971.338 -3.28576 -1.12495 0
M  V30 10321 C 970.292 -4.25229 -0.486275 0
M  V30 10322 C 969.618 -5.10204 -1.59986 0
M  V30 10323 C 970.918 -5.19019 0.584473 0
M  V30 10324 H 972.612 -2.93122 0.609886 0
M  V30 10325 H 970.158 -1.40951 0.294742 0
M  V30 10326 H 972.111 -3.88485 -1.6327 0
M  V30 10327 H 970.835 -2.66784 -1.88398 0
M  V30 10328 H 969.494 -3.666 0.000507962 0
M  V30 10329 H 969.142 -4.44789 -2.34886 0
M  V30 10330 H 968.842 -5.75669 -1.1781 0
M  V30 10331 H 970.366 -5.7298 -2.11014 0
M  V30 10332 H 971.78 -5.73073 0.161297 0
M  V30 10333 H 970.177 -5.92893 0.927256 0
M  V30 10334 H 971.247 -4.62208 1.46601 0
M  V30 10335 N 972.59 -0.333456 -1.54032 0
M  V30 10336 C 973.836 0.266527 -2.01041 0
M  V30 10337 C 974.169 1.51006 -1.2211 0
M  V30 10338 O 973.444 1.92078 -0.306016 0
M  V30 10339 C 973.727 0.59078 -3.55221 0
M  V30 10340 C 973.58 -0.664143 -4.4487 0
M  V30 10341 C 974.899 1.40447 -4.17088 0
M  V30 10342 H 972.018 0.0953979 -0.7308 0
M  V30 10343 H 974.66 -0.451995 -1.84545 0
M  V30 10344 H 972.81 1.20292 -3.69408 0
M  V30 10345 H 974.482 -1.30227 -4.42537 0
M  V30 10346 H 972.725 -1.29106 -4.14143 0
M  V30 10347 H 973.396 -0.392664 -5.50602 0
M  V30 10348 H 975.872 0.886946 -4.06537 0
M  V30 10349 H 974.748 1.6001 -5.2506 0
M  V30 10350 H 975.009 2.40357 -3.71054 0
M  V30 10351 N 974.068 1.57479 -0.061844 0
M  V30 10352 C 975.015 2.12152 0.908862 0
M  V30 10353 C 975.985 1.03152 1.30188 0
M  V30 10354 O 977.17 1.3076 1.38948 0
M  V30 10355 C 974.31 2.6796 2.17465 0
M  V30 10356 C 973.423 3.91083 1.83517 0
M  V30 10357 C 972.558 4.35169 3.04633 0
M  V30 10358 C 971.597 5.50964 2.66655 0
M  V30 10359 N 970.734 5.90055 3.80499 0
M  V30 10360 H 975.574 2.94797 0.435743 0
M  V30 10361 H 973.111 1.45686 0.203445 0
M  V30 10362 H 975.069 2.98421 2.91548 0
M  V30 10363 H 973.699 1.88096 2.62335 0
M  V30 10364 H 972.751 3.67146 0.995381 0
M  V30 10365 H 974.063 4.75214 1.51569 0
M  V30 10366 H 973.217 4.67239 3.87005 0
M  V30 10367 H 971.956 3.49871 3.39767 0
M  V30 10368 H 970.961 5.18556 1.82703 0
M  V30 10369 H 972.186 6.37986 2.32702 0
M  V30 10370 H 970.132 5.07708 4.15414 0
M  V30 10371 H 970.049 6.68903 3.52285 0
M  V30 10372 H 971.317 6.26744 4.63479 0
M  V30 10373 N 975.546 -0.211634 1.56173 0
M  V30 10374 C 976.823 -0.959467 1.70451 0
M  V30 10375 C 977.203 -2.02036 0.611942 0
M  V30 10376 O 976.551 -2.25325 -0.37959 0
M  V30 10377 C 976.761 -1.56092 3.12148 0
M  V30 10378 C 978.109 -2.04939 3.71867 0
M  V30 10379 O 979.133 -1.65966 3.15172 0
M  V30 10380 O 977.992 -2.766 4.71333 0
M  V30 10381 H 975.086 -0.448844 0.6946 0
M  V30 10382 H 977.632 -0.202633 1.68486 0
M  V30 10383 H 976.404 -0.79538 3.83131 0
M  V30 10384 H 976.027 -2.38303 3.18273 0
M  V30 10385 N 977.024 -1.50153 -0.478725 0
M  V30 10386 C 978.435 -1.53706 -1.05978 0
M  V30 10387 C 978.786 -0.336112 -1.933 0
M  V30 10388 O 977.911 0.551803 -2.09246 0
M  V30 10389 C 978.506 -2.78541 -1.92874 0
M  V30 10390 C 977.065 -2.848 -2.46102 0
M  V30 10391 C 976.212 -2.47902 -1.24257 0
M  V30 10392 H 979.163 -1.56528 -0.261664 0
M  V30 10393 H 979.184 -2.59964 -2.77847 0
M  V30 10394 H 978.696 -3.6593 -1.29293 0
M  V30 10395 H 976.797 -2.01744 -3.13257 0
M  V30 10396 H 976.91 -3.87511 -2.81731 0
M  V30 10397 H 975.274 -2.0017 -1.57493 0
M  V30 10398 H 976.057 -3.3759 -0.62351 0
M  V30 10399 N 978.502 0.731368 -1.39602 0
M  V30 10400 C 979.45 1.86676 -1.38761 0
M  V30 10401 C 980.444 1.6723 -0.270247 0
M  V30 10402 O 981.65 1.74528 -0.440471 0
M  V30 10403 H 978.025 0.614553 -0.433391 0
M  V30 10404 H 979.996 1.84501 -2.34525 0
M  V30 10405 C 978.745 3.24394 -1.25155 0
M  V30 10406 H 978.068 3.39955 -2.10406 0
M  V30 10407 H 979.508 4.04019 -1.28625 0
M  V30 10408 C 977.967 3.36877 0.0396976 0
M  V30 10409 O 978.497 3.88833 1.00854 0
M  V30 10410 N 976.703 2.90414 0.103965 0
M  V30 10411 H 976.25 2.48321 -0.685155 0
M  V30 10412 H 976.208 2.99146 0.967435 0
M  V30 10413 N 979.98 1.24838 0.961938 0
M  V30 10414 C 981.226 1.09313 1.70817 0
M  V30 10415 C 981.559 -0.366244 1.90715 0
M  V30 10416 O 980.834 -1.27036 1.47282 0
M  V30 10417 C 981.117 1.83988 3.09549 0
M  V30 10418 C 980.97 3.3771 2.97106 0
M  V30 10419 C 982.289 1.61718 4.09311 0
M  V30 10420 H 979.408 0.398498 0.619974 0
M  V30 10421 H 982.05 1.53579 1.11864 0
M  V30 10422 H 980.2 1.46363 3.59875 0
M  V30 10423 H 981.872 3.84967 2.54161 0
M  V30 10424 H 980.115 3.65795 2.33187 0
M  V30 10425 H 980.786 3.85166 3.95412 0
M  V30 10426 H 983.262 1.94458 3.67866 0
M  V30 10427 H 982.138 2.16415 5.04436 0
M  V30 10428 H 982.399 0.55677 4.3858 0
M  V30 10429 N 981.458 -1.16348 1.06306 0
M  V30 10430 C 982.368 -2.24375 0.685059 0
M  V30 10431 C 983.384 -1.71413 -0.298956 0
M  V30 10432 O 984.56 -2.00854 -0.148239 0
M  V30 10433 C 981.625 -3.46614 0.0774088 0
M  V30 10434 C 980.686 -4.14613 1.11331 0
M  V30 10435 C 979.919 -5.31016 0.534559 0
M  V30 10436 O 980.142 -5.66654 -0.65265 0
M  V30 10437 O 979.076 -5.88256 1.27431 0
M  V30 10438 H 982.902 -2.59018 1.58566 0
M  V30 10439 H 980.487 -1.23865 0.835332 0
M  V30 10440 H 982.369 -4.20599 -0.259716 0
M  V30 10441 H 981.044 -3.13743 -0.796677 0
M  V30 10442 H 979.951 -3.42597 1.50261 0
M  V30 10443 H 981.284 -4.51538 1.95893 0
M  V30 10444 N 982.937 -0.845659 -1.3299 0
M  V30 10445 C 983.885 -0.272412 -2.30999 0
M  V30 10446 C 984.879 0.599311 -1.58444 0
M  V30 10447 O 986.085 0.488117 -1.73255 0
M  V30 10448 H 982.46 -0.0693751 -0.748793 0
M  V30 10449 H 984.431 -1.11343 -2.76849 0
M  V30 10450 C 983.18 0.532019 -3.43606 0
M  V30 10451 H 982.503 -0.129455 -3.9959 0
M  V30 10452 H 983.943 0.898853 -4.14363 0
M  V30 10453 C 982.402 1.71364 -2.90062 0
M  V30 10454 O 982.932 2.81252 -2.8681 0
M  V30 10455 N 981.138 1.53775 -2.4658 0
M  V30 10456 H 980.685 0.643836 -2.49424 0
M  V30 10457 H 980.643 2.32982 -2.11108 0
M  V30 10458 N 984.415 1.45619 -0.602734 0
M  V30 10459 C 985.826 1.85814 -0.181636 0
M  V30 10460 C 986.177 1.5037 1.26029 0
M  V30 10461 O 985.302 0.928068 1.95489 0
M  V30 10462 C 985.897 3.37258 -0.322866 0
M  V30 10463 C 984.456 3.76375 0.043504 0
M  V30 10464 C 983.603 2.69585 -0.649561 0
M  V30 10465 H 986.554 1.36489 -0.809721 0
M  V30 10466 H 986.575 3.77874 0.446279 0
M  V30 10467 H 986.087 3.63024 -1.37241 0
M  V30 10468 H 984.188 3.56226 1.09241 0
M  V30 10469 H 984.301 4.77843 -0.346765 0
M  V30 10470 H 982.665 2.54549 -0.087706 0
M  V30 10471 H 983.448 2.98188 -1.70115 0
M  V30 10472 N 985.893 0.34162 1.53853 0
M  V30 10473 C 986.803 -0.524555 2.2866 0
M  V30 10474 C 987.819 -1.1136 1.33697 0
M  V30 10475 O 988.995 -1.1297 1.66732 0
M  V30 10476 C 986.06 -1.66065 3.04341 0
M  V30 10477 C 985.121 -1.10158 4.14926 0
M  V30 10478 C 984.354 -2.18353 4.86988 0
M  V30 10479 O 984.577 -3.39038 4.58704 0
M  V30 10480 O 983.511 -1.82756 5.73484 0
M  V30 10481 H 987.337 0.0835014 3.03585 0
M  V30 10482 H 984.922 0.106727 1.49018 0
M  V30 10483 H 986.804 -2.3217 3.51674 0
M  V30 10484 H 985.479 -2.25456 2.32275 0
M  V30 10485 H 984.386 -0.405109 3.719 0
M  V30 10486 H 985.719 -0.552567 4.89088 0
M  V30 10487 N 987.371 -1.57444 0.0701946 0
M  V30 10488 C 988.303 -2.09611 -0.927142 0
M  V30 10489 C 989.316 -1.02791 -1.26245 0
M  V30 10490 O 990.505 -1.30309 -1.21992 0
M  V30 10491 C 987.605 -2.54015 -2.24342 0
M  V30 10492 C 986.778 -3.84389 -2.08719 0
M  V30 10493 C 985.837 -4.14904 -3.23638 0
M  V30 10494 O 984.863 -4.84528 -2.98699 0
M  V30 10495 N 986.065 -3.68322 -4.48686 0
M  V30 10496 H 988.83 -2.95803 -0.481753 0
M  V30 10497 H 986.391 -1.61487 -0.115572 0
M  V30 10498 H 988.383 -2.71492 -3.00124 0
M  V30 10499 H 986.953 -1.72969 -2.60385 0
M  V30 10500 H 986.173 -3.76308 -1.17415 0
M  V30 10501 H 987.461 -4.69729 -1.9553 0
M  V30 10502 H 986.859 -3.12073 -4.71834 0
M  V30 10503 H 985.416 -3.91002 -5.21499 0
M  V30 10504 N 988.849 0.203349 -1.56283 0
M  V30 10505 C 990.098 0.92315 -1.79334 0
M  V30 10506 C 990.411 1.84765 -0.641977 0
M  V30 10507 O 991.617 2.60745 -0.756584 0
M  V30 10508 C 990.073 1.69184 -3.17655 0
M  V30 10509 C 989.681 0.812581 -4.40569 0
M  V30 10510 C 991.425 2.40177 -3.50022 0
M  V30 10511 C 989.332 1.57967 -5.69913 0
M  V30 10512 H 988.262 0.348442 -0.668659 0
M  V30 10513 H 990.913 0.1766 -1.82648 0
M  V30 10514 H 989.295 2.48197 -3.08568 0
M  V30 10515 H 990.469 0.0616956 -4.60759 0
M  V30 10516 H 988.784 0.21389 -4.1585 0
M  V30 10517 H 991.381 2.98103 -4.4389 0
M  V30 10518 H 991.724 3.13961 -2.73376 0
M  V30 10519 H 992.257 1.68138 -3.6052 0
M  V30 10520 H 988.996 0.884767 -6.49501 0
M  V30 10521 H 988.516 2.3047 -5.53754 0
M  V30 10522 H 990.195 2.13562 -6.10737 0
M  V30 10523 N 990.327 1.50405 0.470755 0
M  V30 10524 C 991.743 1.37838 0.804534 0
M  V30 10525 C 991.943 0.434743 1.96754 0
M  V30 10526 O 990.999 -0.122507 2.52203 0
M  V30 10527 C 992.312 2.79212 1.11629 0
M  V30 10528 C 993.86 2.88129 1.22272 0
M  V30 10529 C 994.335 4.30337 1.5676 0
M  V30 10530 N 995.826 4.3329 1.63751 0
M  V30 10531 C 996.561 5.4032 1.91942 0
M  V30 10532 N 996.057 6.57558 2.18151 0
M  V30 10533 N 997.85 5.27764 1.93446 0
M  V30 10534 H 990.001 2.10332 -0.295689 0
M  V30 10535 H 992.264 0.945429 -0.0697733 0
M  V30 10536 H 991.97 3.50103 0.334778 0
M  V30 10537 H 991.844 3.16475 2.0524 0
M  V30 10538 H 994.231 2.17457 1.9949 0
M  V30 10539 H 994.312 2.54409 0.2664 0
M  V30 10540 H 993.956 5.01547 0.800817 0
M  V30 10541 H 993.886 4.61545 2.53543 0
M  V30 10542 H 996.377 3.48752 1.45535 0
M  V30 10543 H 996.69 7.34935 2.38936 0
M  V30 10544 H 995.035 6.60732 2.15542 0
M  V30 10545 H 998.226 4.35169 1.72468 0
M  V30 10546 H 998.399 6.11264 2.15081 0
M  V30 10547 N 991.805 -0.723954 1.39988 0
M  V30 10548 C 992.753 -1.85938 1.39749 0
M  V30 10549 C 993.747 -1.67085 0.279112 0
M  V30 10550 O 994.953 -1.74291 0.44972 0
M  V30 10551 H 991.328 -0.612246 0.436644 0
M  V30 10552 H 993.299 -1.83255 2.355 0
M  V30 10553 C 992.048 -3.23726 1.26874 0
M  V30 10554 H 991.371 -3.38835 2.12206 0
M  V30 10555 H 992.811 -4.03332 1.30765 0
M  V30 10556 C 991.27 -3.36893 -0.0218317 0
M  V30 10557 O 991.8 -3.89363 -0.987905 0
M  V30 10558 N 990.006 -2.90465 -0.0885618 0
M  V30 10559 H 989.553 -2.47954 0.698314 0
M  V30 10560 H 989.511 -2.99654 -0.951557 0
M  V30 10561 N 993.283 -1.25346 -0.955304 0
M  V30 10562 C 994.699 -1.02154 -1.22625 0
M  V30 10563 C 994.899 0.26206 -1.99789 0
M  V30 10564 O 993.955 0.974958 -2.32918 0
M  V30 10565 C 995.268 -2.2443 -2.00129 0
M  V30 10566 C 996.816 -2.29185 -2.13174 0
M  V30 10567 C 997.291 -3.51117 -2.94077 0
M  V30 10568 N 998.782 -3.51509 -3.01655 0
M  V30 10569 C 999.517 -4.42517 -3.64645 0
M  V30 10570 N 999.013 -5.43796 -4.29252 0
M  V30 10571 N 1000.81 -4.302 -3.61779 0
M  V30 10572 H 992.957 -2.07812 -0.439071 0
M  V30 10573 H 995.22 -0.91258 -0.256715 0
M  V30 10574 H 994.926 -3.17717 -1.50827 0
M  V30 10575 H 994.8 -2.27548 -3.00835 0
M  V30 10576 H 997.187 -1.36422 -2.61674 0
M  V30 10577 H 997.268 -2.30087 -1.11775 0
M  V30 10578 H 996.912 -4.44201 -2.46268 0
M  V30 10579 H 996.842 -3.4746 -3.95701 0
M  V30 10580 H 999.333 -2.78245 -2.55711 0
M  V30 10581 H 999.646 -6.09453 -4.75171 0
M  V30 10582 H 997.991 -5.4767 -4.27882 0
M  V30 10583 H 1001.18 -3.50304 -3.10491 0
M  V30 10584 H 1001.36 -5.01323 -4.10584 0
M  V30 10585 N 994.761 1.15782 -1.06922 0
M  V30 10586 C 995.691 2.22538 -0.707045 0
M  V30 10587 C 996.672 1.67371 0.303471 0
M  V30 10588 O 997.857 1.9339 0.177189 0
M  V30 10589 C 994.987 3.47158 -0.0994269 0
M  V30 10590 C 993.941 4.15257 -1.03661 0
M  V30 10591 C 993.267 5.33902 -0.291974 0
M  V30 10592 C 994.567 4.65516 -2.36837 0
M  V30 10593 H 996.261 2.53089 -1.59958 0
M  V30 10594 H 993.807 1.21649 -0.770552 0
M  V30 10595 H 995.76 4.21073 0.165852 0
M  V30 10596 H 994.484 3.15926 0.828155 0
M  V30 10597 H 993.143 3.43276 -1.28674 0
M  V30 10598 H 992.791 4.98926 0.638928 0
M  V30 10599 H 992.491 5.80407 -0.916613 0
M  V30 10600 H 994.015 6.1059 -0.0343915 0
M  V30 10601 H 995.429 5.30981 -2.16175 0
M  V30 10602 H 993.826 5.22666 -2.94856 0
M  V30 10603 H 994.896 3.81387 -2.99453 0
M  V30 10604 N 996.239 0.8527 1.3254 0
M  V30 10605 C 997.169 0.311234 2.31416 0
M  V30 10606 C 998.15 -0.588557 1.59593 0
M  V30 10607 O 999.335 -0.509211 1.87405 0
M  V30 10608 C 996.465 -0.502892 3.4364 0
M  V30 10609 C 995.419 0.302296 4.26931 0
M  V30 10610 C 994.745 -0.636445 5.30899 0
M  V30 10611 C 996.045 1.52697 4.99481 0
M  V30 10612 H 997.739 1.13742 2.76953 0
M  V30 10613 H 995.285 0.548389 1.33149 0
M  V30 10614 H 997.238 -0.892092 4.11849 0
M  V30 10615 H 995.962 -1.36242 2.96826 0
M  V30 10616 H 994.621 0.673226 3.60365 0
M  V30 10617 H 994.269 -1.49277 4.80339 0
M  V30 10618 H 993.969 -0.101716 5.87512 0
M  V30 10619 H 995.493 -1.02286 6.01972 0
M  V30 10620 H 996.907 1.21017 5.60382 0
M  V30 10621 H 995.304 1.9995 5.65809 0
M  V30 10622 H 996.374 2.28929 4.27457 0
M  V30 10623 N 997.718 -1.45297 0.610449 0
M  V30 10624 C 998.628 -2.34349 -0.108475 0
M  V30 10625 C 999.644 -1.51409 -0.857397 0
M  V30 10626 O 1000.82 -1.84202 -0.814337 0
M  V30 10627 C 997.885 -3.29072 -1.09144 0
M  V30 10628 C 996.946 -4.27918 -0.344165 0
M  V30 10629 C 996.179 -5.18116 -1.28031 0
M  V30 10630 O 996.402 -5.11802 -2.51824 0
M  V30 10631 O 995.336 -5.96879 -0.775821 0
M  V30 10632 H 999.162 -2.97232 0.623421 0
M  V30 10633 H 996.747 -1.44728 0.3707 0
M  V30 10634 H 998.629 -3.87433 -1.65751 0
M  V30 10635 H 997.304 -2.68749 -1.80431 0
M  V30 10636 H 996.211 -3.73164 0.264437 0
M  V30 10637 H 997.544 -4.91104 0.328275 0
M  V30 10638 N 999.196 -0.349774 -1.5367 0
M  V30 10639 C 1000.13 0.496338 -2.28164 0
M  V30 10640 C 1001.11 1.09737 -1.29968 0
M  V30 10641 O 1002.29 1.11759 -1.58819 0
M  V30 10642 C 999.422 1.64428 -3.0591 0
M  V30 10643 C 998.376 1.17127 -4.11661 0
M  V30 10644 C 997.702 2.40822 -4.77398 0
M  V30 10645 C 999.002 0.267293 -5.21616 0
M  V30 10646 H 1000.7 -0.125117 -2.99138 0
M  V30 10647 H 998.242 -0.0616152 -1.43868 0
M  V30 10648 H 1000.19 2.2427 -3.56765 0
M  V30 10649 H 998.919 2.29272 -2.32598 0
M  V30 10650 H 997.578 0.595634 -3.61729 0
M  V30 10651 H 997.226 3.04088 -4.00674 0
M  V30 10652 H 996.926 2.09852 -5.48849 0
M  V30 10653 H 998.45 3.01378 -5.3104 0
M  V30 10654 H 999.864 0.772734 -5.68068 0
M  V30 10655 H 998.261 0.0491991 -6.0008 0
M  V30 10656 H 999.331 -0.694892 -4.79895 0
M  V30 10657 N 1000.67 1.57404 -0.0785433 0
M  V30 10658 C 1001.6 2.16131 0.883726 0
M  V30 10659 C 1002.58 1.09015 1.30575 0
M  V30 10660 O 1003.77 1.3708 1.37559 0
M  V30 10661 C 1000.9 2.72836 2.1489 0
M  V30 10662 C 999.854 3.85178 1.86605 0
M  V30 10663 C 999.18 4.28516 3.1981 0
M  V30 10664 C 1000.48 5.09118 1.16601 0
M  V30 10665 H 1002.17 2.9679 0.394484 0
M  V30 10666 H 999.72 1.42763 0.188304 0
M  V30 10667 H 1001.67 3.12567 2.8263 0
M  V30 10668 H 1000.4 1.89408 2.66068 0
M  V30 10669 H 999.056 3.45962 1.21268 0
M  V30 10670 H 998.704 3.42 3.68843 0
M  V30 10671 H 998.404 5.04249 3.01674 0
M  V30 10672 H 999.928 4.70868 3.88737 0
M  V30 10673 H 1001.34 5.46123 1.74422 0
M  V30 10674 H 999.739 5.90173 1.087 0
M  V30 10675 H 1000.81 4.8468 0.146138 0
M  V30 10676 N 1002.15 -0.195058 1.56388 0
M  V30 10677 C 1003.43 -0.941335 1.71459 0
M  V30 10678 C 1003.81 -2.01375 0.633336 0
M  V30 10679 O 1003.16 -2.25715 -0.35567 0
M  V30 10680 C 1003.37 -1.52772 3.13786 0
M  V30 10681 C 1004.71 -2.00983 3.7402 0
M  V30 10682 O 1005.74 -1.62614 3.16915 0
M  V30 10683 O 1004.6 -2.71586 4.7424 0
M  V30 10684 H 1001.69 -0.441451 0.699321 0
M  V30 10685 H 1004.24 -0.184752 1.68691 0
M  V30 10686 H 1003.01 -0.754699 3.83953 0
M  V30 10687 H 1002.63 -2.34914 3.20782 0
M  V30 10688 N 1003.63 -1.50653 -0.462772 0
M  V30 10689 C 1004.54 -1.72923 -1.58539 0
M  V30 10690 C 1005.56 -0.612577 -1.6286 0
M  V30 10691 O 1006.73 -0.891885 -1.80575 0
M  V30 10692 C 1003.8 -1.82623 -2.94703 0
M  V30 10693 C 1002.86 -3.06392 -3.00704 0
M  V30 10694 C 1002.09 -3.15618 -4.30373 0
M  V30 10695 O 1002.31 -2.31423 -5.21344 0
M  V30 10696 O 1001.25 -4.0841 -4.42136 0
M  V30 10697 H 1005.07 -2.68103 -1.42669 0
M  V30 10698 H 1002.66 -1.34848 -0.643144 0
M  V30 10699 H 1004.54 -1.91134 -3.7556 0
M  V30 10700 H 1003.22 -0.906275 -3.10754 0
M  V30 10701 H 1002.12 -3.03375 -2.18894 0
M  V30 10702 H 1003.46 -3.97992 -2.89591 0
M  V30 10703 N 1005.11 0.71652 -1.4037 0
M  V30 10704 C 1006.36 1.47347 -1.38324 0
M  V30 10705 C 1006.68 1.94995 0.0139949 0
M  V30 10706 O 1005.95 1.7028 0.968585 0
M  V30 10707 H 1004.53 0.546662 -0.509087 0
M  V30 10708 H 1007.19 0.849455 -1.75415 0
M  V30 10709 H 1006.29 2.34675 -2.05752 0
M  V30 10710 N 1006.59 1.25851 0.948643 0
M  V30 10711 C 1007.81 1.13813 1.73382 0
M  V30 10712 C 1008.24 -0.303615 1.85633 0
M  V30 10713 O 1007.59 -1.21997 1.34114 0
M  V30 10714 C 1007.64 1.80388 3.12238 0
M  V30 10715 O 1006.75 1.08759 3.978 0
M  V30 10716 H 1006.09 0.397006 0.532243 0
M  V30 10717 H 1008.62 1.66529 1.18866 0
M  V30 10718 H 1008.63 1.86913 3.62667 0
M  V30 10719 H 1007.3 2.85278 3.02637 0
M  V30 10720 H 1005.88 1.10157 3.56258 0
M  V30 10721 N 1008.06 -1.15214 1.07534 0
M  V30 10722 C 1009.34 -1.82155 0.71267 0
M  V30 10723 C 1009.72 -1.95163 -0.804655 0
M  V30 10724 O 1009.07 -1.50451 -1.71979 0
M  V30 10725 C 1009.28 -3.18392 1.42925 0
M  V30 10726 C 1010.63 -3.94005 1.58256 0
M  V30 10727 O 1011.65 -3.27952 1.39018 0
M  V30 10728 O 1010.51 -5.12436 1.89925 0
M  V30 10729 H 1007.6 -0.78709 0.253808 0
M  V30 10730 H 1010.15 -1.22309 1.17638 0
M  V30 10731 H 1008.92 -3.04034 2.46331 0
M  V30 10732 H 1008.55 -3.85925 0.956439 0
M  V30 10733 N 1009.54 -0.859717 -1.32086 0
M  V30 10734 C 1010.79 -0.465581 -1.97075 0
M  V30 10735 C 1011.12 0.979917 -1.68012 0
M  V30 10736 O 1010.37 1.70337 -0.96353 0
M  V30 10737 C 1010.67 -0.657397 -3.51302 0
M  V30 10738 C 1010.34 -2.07413 -4.00363 0
M  V30 10739 C 1009 -2.4616 -4.13472 0
M  V30 10740 C 1011.35 -2.99855 -4.26305 0
M  V30 10741 C 1008.68 -3.76611 -4.49868 0
M  V30 10742 C 1011.03 -4.2981 -4.64161 0
M  V30 10743 C 1009.7 -4.68485 -4.75476 0
M  V30 10744 H 1008.97 -0.170368 -0.721149 0
M  V30 10745 H 1011.61 -1.09074 -1.57401 0
M  V30 10746 H 1009.92 0.0509638 -3.91767 0
M  V30 10747 H 1011.61 -0.332416 -3.9962 0
M  V30 10748 H 1008.2 -1.76327 -3.90649 0
M  V30 10749 H 1012.39 -2.7115 -4.15682 0
M  V30 10750 H 1007.64 -4.06352 -4.56824 0
M  V30 10751 H 1011.82 -5.015 -4.83188 0
M  V30 10752 H 1009.45 -5.69612 -5.03435 0
M  V30 10753 N 1011.02 1.44971 -0.618145 0
M  V30 10754 C 1012.27 2.02159 -0.117482 0
M  V30 10755 C 1012.6 1.48517 1.2559 0
M  V30 10756 O 1011.85 0.654192 1.84442 0
M  V30 10757 C 1012.15 3.57378 -0.0394861 0
M  V30 10758 C 1011.82 4.30218 -1.34993 0
M  V30 10759 C 1010.48 4.49835 -1.70886 0
M  V30 10760 C 1012.83 4.71768 -2.21551 0
M  V30 10761 C 1010.16 5.08258 -2.9307 0
M  V30 10762 C 1012.51 5.31543 -3.42993 0
M  V30 10763 C 1011.17 5.49381 -3.79126 0
M  V30 10764 H 1010.44 0.739752 -0.0429897 0
M  V30 10765 H 1013.09 1.73903 -0.801871 0
M  V30 10766 H 1011.4 3.84973 0.728217 0
M  V30 10767 H 1013.09 3.99343 0.364213 0
M  V30 10768 H 1009.68 4.15271 -1.06057 0
M  V30 10769 H 1013.87 4.56336 -1.95117 0
M  V30 10770 H 1009.12 5.20257 -3.21158 0
M  V30 10771 H 1013.3 5.62691 -4.10308 0
M  V30 10772 H 1010.92 5.94419 -4.73888 0
M  V30 10773 N 1012.5 0.357919 1.53482 0
M  V30 10774 C 1013.78 -0.290164 1.93436 0
M  V30 10775 C 1014.16 -1.67039 1.29079 0
M  V30 10776 O 1013.5 -2.24085 0.447017 0
M  V30 10777 C 1013.71 -0.348055 3.4726 0
M  V30 10778 C 1015.06 -0.59206 4.20452 0
M  V30 10779 O 1016.09 -0.429581 3.536 0
M  V30 10780 O 1014.94 -0.907855 5.38907 0
M  V30 10781 H 1012.04 -0.172312 0.80885 0
M  V30 10782 H 1014.58 0.410144 1.64669 0
M  V30 10783 H 1013.36 0.619953 3.86358 0
M  V30 10784 H 1012.98 -1.09457 3.82237 0
M  V30 10785 N 1013.98 -1.5736 0.0868897 0
M  V30 10786 C 1015.2 -1.98809 -0.590757 0
M  V30 10787 C 1015.63 -0.965407 -1.61436 0
M  V30 10788 O 1014.98 0.067143 -1.81176 0
M  V30 10789 C 1015.03 -3.39249 -1.22238 0
M  V30 10790 O 1014.14 -3.39706 -2.33824 0
M  V30 10791 H 1013.48 -0.64669 -0.150626 0
M  V30 10792 H 1016.01 -2.03927 0.165873 0
M  V30 10793 H 1016.02 -3.76765 -1.56564 0
M  V30 10794 H 1014.69 -4.13208 -0.472434 0
M  V30 10795 H 1013.27 -3.13977 -2.01178 0
M  V30 10796 N 1015.45 0.186762 -1.56489 0
M  V30 10797 C 1016.38 1.23395 -1.98232 0
M  V30 10798 C 1017.37 1.4702 -0.855526 0
M  V30 10799 O 1018.55 1.58616 -1.12048 0
M  V30 10800 C 1015.68 2.57635 -2.32898 0
M  V30 10801 C 1014.63 2.48607 -3.48394 0
M  V30 10802 C 1013.96 3.87196 -3.68759 0
M  V30 10803 C 1015.26 2.00398 -4.82325 0
M  V30 10804 H 1016.95 0.887026 -2.85958 0
M  V30 10805 H 1014.5 0.42525 -1.37578 0
M  V30 10806 H 1016.45 3.31082 -2.60696 0
M  V30 10807 H 1015.18 2.94084 -1.42064 0
M  V30 10808 H 1013.84 1.77615 -3.207 0
M  V30 10809 H 1013.48 4.21012 -2.75241 0
M  V30 10810 H 1013.18 3.82029 -4.46462 0
M  V30 10811 H 1014.71 4.62253 -3.98941 0
M  V30 10812 H 1016.12 2.6361 -5.091 0
M  V30 10813 H 1014.52 2.06214 -5.63556 0
M  V30 10814 H 1015.59 0.957562 -4.75351 0
M  V30 10815 N 1016.93 1.50896 0.454776 0
M  V30 10816 C 1017.86 1.73885 1.5584 0
M  V30 10817 C 1018.84 0.588172 1.59607 0
M  V30 10818 O 1020.03 0.829054 1.75614 0
M  V30 10819 C 1017.16 1.84796 2.94054 0
M  V30 10820 C 1016.11 3.00111 3.05152 0
M  V30 10821 C 1015.44 2.96183 4.45174 0
M  V30 10822 C 1016.74 4.40365 2.80849 0
M  V30 10823 H 1018.43 2.66292 1.36854 0
M  V30 10824 H 1015.98 1.28142 0.656936 0
M  V30 10825 H 1017.93 1.99462 3.71204 0
M  V30 10826 H 1016.66 0.890235 3.14233 0
M  V30 10827 H 1015.31 2.85121 2.30438 0
M  V30 10828 H 1014.96 1.98224 4.62295 0
M  V30 10829 H 1014.66 3.73608 4.53532 0
M  V30 10830 H 1016.19 3.1292 5.24322 0
M  V30 10831 H 1017.6 4.55795 3.47741 0
M  V30 10832 H 1016 5.19363 3.00636 0
M  V30 10833 H 1017.07 4.51606 1.76579 0
M  V30 10834 N 1018.41 -0.709066 1.40748 0
M  V30 10835 C 1019.34 -1.83412 1.37451 0
M  V30 10836 C 1020.36 -1.60394 0.27884 0
M  V30 10837 O 1021.54 -1.70147 0.539642 0
M  V30 10838 C 1018.64 -3.19935 1.1178 0
M  V30 10839 C 1017.82 -3.70095 2.33128 0
M  V30 10840 C 1016.88 -4.85249 2.03518 0
M  V30 10841 O 1015.9 -4.97563 2.76442 0
M  V30 10842 N 1017.1 -5.7152 1.01714 0
M  V30 10843 H 1019.87 -1.86736 2.34414 0
M  V30 10844 H 1017.43 -0.890863 1.35186 0
M  V30 10845 H 1019.42 -3.94578 0.899464 0
M  V30 10846 H 1017.99 -3.11718 0.234624 0
M  V30 10847 H 1017.21 -2.8651 2.70751 0
M  V30 10848 H 1018.5 -4.00344 3.1401 0
M  V30 10849 H 1017.9 -5.64188 0.413307 0
M  V30 10850 H 1016.46 -6.46119 0.858696 0
M  V30 10851 N 1019.89 -1.26353 -0.941956 0
M  V30 10852 C 1020.84 -1.07842 -2.04056 0
M  V30 10853 C 1021.81 0.0163064 -1.66092 0
M  V30 10854 O 1022.99 -0.143313 -1.90261 0
M  V30 10855 C 1020.13 -0.716636 -3.37577 0
M  V30 10856 C 1019.24 -1.88754 -3.88582 0
M  V30 10857 C 1018.38 -1.46893 -5.10486 0
M  V30 10858 C 1017.42 -2.60819 -5.53751 0
M  V30 10859 N 1016.56 -2.19646 -6.66858 0
M  V30 10860 H 1021.4 -2.01856 -2.19221 0
M  V30 10861 H 1018.93 -1.00504 -1.07412 0
M  V30 10862 H 1020.89 -0.487768 -4.14339 0
M  V30 10863 H 1019.52 0.18653 -3.22261 0
M  V30 10864 H 1018.57 -2.22936 -3.08227 0
M  V30 10865 H 1019.88 -2.74264 -4.1663 0
M  V30 10866 H 1019.04 -1.20047 -5.94705 0
M  V30 10867 H 1017.78 -0.584721 -4.84182 0
M  V30 10868 H 1016.78 -2.88396 -4.6809 0
M  V30 10869 H 1018.01 -3.49838 -5.82057 0
M  V30 10870 H 1015.95 -1.33657 -6.4224 0
M  V30 10871 H 1015.87 -2.987 -6.94489 0
M  V30 10872 H 1017.14 -1.96009 -7.54454 0
M  V30 10873 N 1021.37 1.14642 -1.08144 0
M  V30 10874 C 1022.3 2.21775 -0.730609 0
M  V30 10875 C 1023.28 1.67683 0.285702 0
M  V30 10876 O 1024.46 1.93567 0.156667 0
M  V30 10877 C 1021.59 3.47033 -0.136242 0
M  V30 10878 C 1020.55 4.14134 -1.0806 0
M  V30 10879 C 1019.87 5.33563 -0.348585 0
M  V30 10880 C 1021.17 4.62978 -2.41761 0
M  V30 10881 H 1022.87 2.51378 -1.62633 0
M  V30 10882 H 1020.41 1.20825 -0.783411 0
M  V30 10883 H 1022.37 4.21226 0.121182 0
M  V30 10884 H 1021.09 3.16786 0.7946 0
M  V30 10885 H 1019.75 3.41892 -1.32308 0
M  V30 10886 H 1019.4 4.99575 0.585974 0
M  V30 10887 H 1019.1 5.79402 -0.978122 0
M  V30 10888 H 1020.62 6.10519 -0.0991508 0
M  V30 10889 H 1022.04 5.28659 -2.21795 0
M  V30 10890 H 1020.43 5.1951 -3.00383 0
M  V30 10891 H 1021.5 3.78189 -3.03482 0
M  V30 10892 N 1022.85 0.866709 1.31628 0
M  V30 10893 C 1023.78 0.277328 2.27516 0
M  V30 10894 C 1024.79 -0.557786 1.52946 0
M  V30 10895 O 1025.98 -0.38031 1.74402 0
M  V30 10896 C 1023.08 -0.625742 3.33073 0
M  V30 10897 C 1022.25 0.176204 4.37045 0
M  V30 10898 C 1021.31 -0.654497 5.22114 0
M  V30 10899 O 1020.34 -0.0836961 5.69138 0
M  V30 10900 N 1021.54 -1.96708 5.46156 0
M  V30 10901 H 1024.3 1.10133 2.78731 0
M  V30 10902 H 1021.87 0.72787 1.44616 0
M  V30 10903 H 1023.86 -1.18709 3.86898 0
M  V30 10904 H 1022.43 -1.35042 2.81926 0
M  V30 10905 H 1021.65 0.918999 3.83338 0
M  V30 10906 H 1022.94 0.726594 5.03585 0
M  V30 10907 H 1022.33 -2.454 5.09701 0
M  V30 10908 H 1020.89 -2.47629 6.02929 0
M  V30 10909 N 1024.32 -1.44642 0.625825 0
M  V30 10910 C 1025.57 -2.02393 0.128391 0
M  V30 10911 C 1025.9 -1.49075 -1.2446 0
M  V30 10912 O 1025.18 -0.672684 -1.82497 0
M  V30 10913 C 1025.46 -3.59934 0.109279 0
M  V30 10914 C 1025.31 -4.23546 1.51423 0
M  V30 10915 C 1026.63 -4.36406 -0.568985 0
M  V30 10916 H 1023.75 -0.735427 0.0481299 0
M  V30 10917 H 1026.39 -1.72277 0.801286 0
M  V30 10918 H 1024.54 -3.85722 -0.463726 0
M  V30 10919 H 1026.22 -4.08882 2.13572 0
M  V30 10920 H 1024.46 -3.81245 2.06966 0
M  V30 10921 H 1025.13 -5.32535 1.45294 0
M  V30 10922 H 1027.61 -4.1602 -0.0817516 0
M  V30 10923 H 1026.48 -5.46122 -0.551527 0
M  V30 10924 H 1026.74 -4.1062 -1.6384 0
M  V30 10925 N 1025.8 -0.366053 -1.5329 0
M  V30 10926 C 1027.03 0.224236 -2.05681 0
M  V30 10927 C 1027.44 1.42412 -1.23952 0
M  V30 10928 O 1026.8 1.80334 -0.280309 0
M  V30 10929 C 1026.85 0.617266 -3.56191 0
M  V30 10930 O 1026.57 -0.534931 -4.34822 0
M  V30 10931 C 1028.07 1.26589 -4.24841 0
M  V30 10932 H 1025.29 0.0392928 -0.669849 0
M  V30 10933 H 1027.84 -0.52456 -1.97658 0
M  V30 10934 H 1025.99 1.31598 -3.64364 0
M  V30 10935 H 1026.41 -0.217123 -5.2405 0
M  V30 10936 H 1027.88 1.49146 -5.31469 0
M  V30 10937 H 1028.36 2.22633 -3.78591 0
M  V30 10938 H 1028.96 0.6086 -4.20923 0
M  V30 10939 N 1027.28 1.57312 -0.0952337 0
M  V30 10940 C 1028.51 1.98409 0.575984 0
M  V30 10941 C 1028.92 0.973168 1.62253 0
M  V30 10942 O 1028.26 -0.0454416 1.83644 0
M  V30 10943 C 1028.32 3.35877 1.28167 0
M  V30 10944 C 1027.99 4.55368 0.385868 0
M  V30 10945 C 1028.98 5.1861 -0.366041 0
M  V30 10946 C 1026.67 5.0138 0.303885 0
M  V30 10947 C 1028.66 6.26233 -1.18791 0
M  V30 10948 C 1026.35 6.0887 -0.521637 0
M  V30 10949 C 1027.35 6.71161 -1.26618 0
M  V30 10950 O 1027.04 7.76577 -2.07804 0
M  V30 10951 H 1026.77 0.657018 0.159068 0
M  V30 10952 H 1029.32 2.04685 -0.171237 0
M  V30 10953 H 1027.55 3.26284 2.07547 0
M  V30 10954 H 1029.24 3.6142 1.84744 0
M  V30 10955 H 1030.01 4.83993 -0.312435 0
M  V30 10956 H 1025.89 4.52657 0.873065 0
M  V30 10957 H 1029.43 6.74784 -1.76955 0
M  V30 10958 H 1025.33 6.42918 -0.576722 0
M  V30 10959 H 1026.09 7.93566 -2.00489 0
M  V30 10960 N 1028.76 -0.17846 1.56586 0
M  V30 10961 C 1029.7 -1.22104 1.95855 0
M  V30 10962 C 1030.67 -1.44366 0.821447 0
M  V30 10963 O 1031.86 -1.57224 1.08098 0
M  V30 10964 C 1029 -2.55701 2.31757 0
M  V30 10965 C 1028.11 -2.40879 3.5861 0
M  V30 10966 C 1027.25 -3.67293 3.83757 0
M  V30 10967 C 1026.29 -3.47373 5.03982 0
M  V30 10968 N 1025.42 -4.65839 5.25298 0
M  V30 10969 H 1030.26 -0.879168 2.84736 0
M  V30 10970 H 1027.8 -0.422721 1.40895 0
M  V30 10971 H 1029.76 -3.33556 2.50592 0
M  V30 10972 H 1028.39 -2.87898 1.45995 0
M  V30 10973 H 1027.44 -1.54236 3.47729 0
M  V30 10974 H 1028.75 -2.22102 4.46623 0
M  V30 10975 H 1027.91 -4.53584 4.02922 0
M  V30 10976 H 1026.65 -3.89041 2.94107 0
M  V30 10977 H 1025.65 -2.59467 4.84723 0
M  V30 10978 H 1026.88 -3.27055 5.95157 0
M  V30 10979 H 1024.82 -4.8782 4.38598 0
M  V30 10980 H 1024.74 -4.4995 6.0752 0
M  V30 10981 H 1026.01 -5.53435 5.48936 0
M  V30 10982 N 1030.24 -1.51135 -0.446768 0
M  V30 10983 C 1031.48 -1.63336 -1.19698 0
M  V30 10984 C 1031.81 -0.345099 -1.91414 0
M  V30 10985 O 1031.07 0.670365 -1.8386 0
M  V30 10986 C 1031.36 -2.78034 -2.2457 0
M  V30 10987 C 1031.03 -4.17652 -1.69934 0
M  V30 10988 C 1029.69 -4.55636 -1.54756 0
M  V30 10989 C 1032.04 -5.04813 -1.29665 0
M  V30 10990 C 1029.37 -5.78496 -0.977689 0
M  V30 10991 C 1031.72 -6.28244 -0.741112 0
M  V30 10992 C 1030.39 -6.65009 -0.576156 0
M  V30 10993 H 1029.66 -0.597689 -0.438006 0
M  V30 10994 H 1032.31 -1.85141 -0.48939 0
M  V30 10995 H 1030.61 -2.50413 -3.01331 0
M  V30 10996 H 1032.31 -2.84675 -2.8242 0
M  V30 10997 H 1028.9 -3.87699 -1.82722 0
M  V30 10998 H 1033.08 -4.76081 -1.40216 0
M  V30 10999 H 1028.34 -6.05636 -0.837563 0
M  V30 11000 H 1032.51 -6.95129 -0.42053 0
M  V30 11001 H 1030.14 -7.60085 -0.132443 0
M  V30 11002 N 1031.71 0.701592 -1.41122 0
M  V30 11003 C 1032.66 1.81559 -1.42495 0
M  V30 11004 C 1033.63 1.63722 -0.280078 0
M  V30 11005 O 1034.82 1.84658 -0.480231 0
M  V30 11006 C 1031.96 3.19392 -1.30702 0
M  V30 11007 C 1031.07 3.48704 -2.55009 0
M  V30 11008 C 1030.2 4.76118 -2.35554 0
M  V30 11009 C 1029.24 4.98378 -3.55367 0
M  V30 11010 N 1028.38 6.17014 -3.3502 0
M  V30 11011 H 1033.22 1.7972 -2.37707 0
M  V30 11012 H 1030.76 0.877727 -1.18044 0
M  V30 11013 H 1032.71 3.99004 -1.21867 0
M  V30 11014 H 1031.34 3.20423 -0.391012 0
M  V30 11015 H 1030.4 2.63542 -2.74317 0
M  V30 11016 H 1031.71 3.61057 -3.44151 0
M  V30 11017 H 1030.86 5.63774 -2.24152 0
M  V30 11018 H 1029.6 4.66 -1.43859 0
M  V30 11019 H 1028.61 4.09172 -3.6723 0
M  V30 11020 H 1029.83 5.10359 -4.48007 0
M  V30 11021 H 1027.78 6.0812 -2.4602 0
M  V30 11022 H 1027.69 6.30107 -4.17733 0
M  V30 11023 H 1028.96 7.0742 -3.27379 0
M  V30 11024 N 1033.19 1.2685 0.935242 0
M  V30 11025 C 1034.12 1.1143 2.05196 0
M  V30 11026 C 1035.1 0.0178362 1.70091 0
M  V30 11027 O 1036.29 0.190951 1.93259 0
M  V30 11028 C 1033.42 0.752779 3.39044 0
M  V30 11029 C 1032.37 1.80164 3.88233 0
M  V30 11030 C 1031.7 1.29428 5.18799 0
M  V30 11031 C 1033 3.20431 4.12457 0
M  V30 11032 H 1034.69 2.04845 2.18355 0
M  V30 11033 H 1032.24 0.986276 1.04922 0
M  V30 11034 H 1034.19 0.631757 4.16637 0
M  V30 11035 H 1032.91 -0.217075 3.25878 0
M  V30 11036 H 1031.57 1.91144 3.12825 0
M  V30 11037 H 1031.22 0.3141 5.02018 0
M  V30 11038 H 1030.92 1.99546 5.5268 0
M  V30 11039 H 1032.45 1.18605 5.9897 0
M  V30 11040 H 1033.86 3.12495 4.80645 0
M  V30 11041 H 1032.26 3.88193 4.57631 0
M  V30 11042 H 1033.33 3.66046 3.18023 0
M  V30 11043 N 1034.67 -1.14067 1.0875 0
M  V30 11044 C 1035.58 -2.22871 0.732498 0
M  V30 11045 C 1036.6 -1.72008 -0.26253 0
M  V30 11046 O 1037.77 -2.01123 -0.105601 0
M  V30 11047 C 1034.84 -3.46371 0.150913 0
M  V30 11048 C 1033.9 -4.12158 1.201 0
M  V30 11049 C 1033.13 -5.29763 0.647075 0
M  V30 11050 O 1033.35 -5.67911 -0.532307 0
M  V30 11051 O 1032.29 -5.8542 1.3988 0
M  V30 11052 H 1036.11 -2.55596 1.64025 0
M  V30 11053 H 1033.7 -1.22065 0.861417 0
M  V30 11054 H 1035.58 -4.21055 -0.170442 0
M  V30 11055 H 1034.26 -3.15362 -0.729948 0
M  V30 11056 H 1033.16 -3.39332 1.57494 0
M  V30 11057 H 1034.5 -4.47282 2.05426 0
M  V30 11058 N 1036.15 -0.873678 -1.31166 0
M  V30 11059 C 1037.43 -0.40698 -1.91319 0
M  V30 11060 C 1037.81 1.1113 -1.79481 0
M  V30 11061 O 1037.15 1.94155 -1.20483 0
M  V30 11062 C 1037.36 -0.892484 -3.37396 0
M  V30 11063 C 1038.71 -0.920795 -4.14496 0
M  V30 11064 O 1039.74 -0.838386 -3.46193 0
M  V30 11065 O 1038.59 -1.04069 -5.365 0
M  V30 11066 H 1035.69 -0.122439 -0.817886 0
M  V30 11067 H 1038.23 -0.961835 -1.3981 0
M  V30 11068 H 1037.01 -1.93613 -3.40044 0
M  V30 11069 H 1036.63 -0.31615 -3.96341 0
M  V30 11070 N 1037.63 1.44308 -0.633487 0
M  V30 11071 C 1038.86 2.06085 -0.145852 0
M  V30 11072 C 1039.26 1.47432 1.18577 0
M  V30 11073 O 1038.61 0.592575 1.7388 0
M  V30 11074 C 1038.67 3.59477 0.0407848 0
M  V30 11075 C 1038.33 4.40607 -1.21304 0
M  V30 11076 C 1039.33 4.73937 -2.13728 0
M  V30 11077 C 1037.02 4.80943 -1.44911 0
M  V30 11078 C 1039.01 5.46489 -3.28068 0
M  V30 11079 C 1036.7 5.53243 -2.59548 0
M  V30 11080 C 1037.69 5.85936 -3.50953 0
M  V30 11081 O 1037.38 6.56764 -4.6359 0
M  V30 11082 H 1037.11 0.671484 -0.0780085 0
M  V30 11083 H 1039.67 1.86128 -0.868658 0
M  V30 11084 H 1037.9 3.77933 0.818761 0
M  V30 11085 H 1039.59 4.03013 0.483273 0
M  V30 11086 H 1040.35 4.43311 -1.96725 0
M  V30 11087 H 1036.23 4.54915 -0.746537 0
M  V30 11088 H 1039.78 5.71924 -3.99435 0
M  V30 11089 H 1035.67 5.83285 -2.76493 0
M  V30 11090 H 1036.44 6.75234 -4.62602 0
M  V30 11091 N 1039.1 0.374177 1.53094 0
M  V30 11092 C 1040.04 -0.511995 2.22382 0
M  V30 11093 C 1041.02 -1.07617 1.2189 0
M  V30 11094 O 1042.2 -1.13068 1.50824 0
M  V30 11095 C 1039.33 -1.70724 2.92525 0
M  V30 11096 C 1038.37 -1.26972 4.07161 0
M  V30 11097 S 1039.21 -0.263835 5.3485 0
M  V30 11098 C 1040.36 -1.46521 6.08508 0
M  V30 11099 H 1040.59 0.0764311 2.97202 0
M  V30 11100 H 1038.13 0.158307 1.53586 0
M  V30 11101 H 1040.09 -2.39279 3.3355 0
M  V30 11102 H 1038.75 -2.26693 2.17414 0
M  V30 11103 H 1037.94 -2.16172 4.55286 0
M  V30 11104 H 1037.54 -0.663273 3.68072 0
M  V30 11105 H 1039.83 -2.39483 6.33762 0
M  V30 11106 H 1040.78 -1.02517 7.0064 0
M  V30 11107 H 1041.18 -1.67516 5.39072 0
M  V30 11108 N 1040.58 -1.57259 0.103575 0
M  V30 11109 C 1041.86 -1.86143 -0.600852 0
M  V30 11110 C 1042.24 -1.00198 -1.85805 0
M  V30 11111 O 1041.59 -0.0766791 -2.28371 0
M  V30 11112 C 1041.8 -3.36978 -0.908108 0
M  V30 11113 C 1043.15 -4.05228 -1.26788 0
M  V30 11114 O 1044.17 -3.41908 -0.998859 0
M  V30 11115 O 1043.03 -5.16971 -1.7721 0
M  V30 11116 H 1040.12 -0.770064 -0.301547 0
M  V30 11117 H 1042.67 -1.69147 0.136914 0
M  V30 11118 H 1041.44 -3.91296 -0.0165615 0
M  V30 11119 H 1041.06 -3.5935 -1.70156 0
M  V30 11120 N 1042.06 0.170153 -1.56679 0
M  V30 11121 C 1043.31 0.884841 -1.817 0
M  V30 11122 C 1043.63 1.82731 -0.680763 0
M  V30 11123 O 1042.9 1.936 0.299294 0
M  V30 11124 H 1041.48 0.329738 -0.670285 0
M  V30 11125 H 1044.14 0.169691 -1.9416 0
M  V30 11126 H 1043.24 1.46104 -2.7579 0
M  V30 11127 N 1043.54 1.5137 0.438746 0
M  V30 11128 C 1044.47 1.75528 1.53987 0
M  V30 11129 C 1045.45 0.605067 1.58975 0
M  V30 11130 O 1046.63 0.847634 1.74725 0
M  V30 11131 C 1043.76 1.87904 2.92078 0
M  V30 11132 C 1042.72 3.0333 3.01951 0
M  V30 11133 C 1042.04 3.00888 4.42007 0
M  V30 11134 C 1043.34 4.43319 2.76163 0
M  V30 11135 H 1045.04 2.67728 1.34022 0
M  V30 11136 H 1042.58 1.28831 0.643308 0
M  V30 11137 H 1044.54 2.03388 3.69068 0
M  V30 11138 H 1043.26 0.923514 3.13271 0
M  V30 11139 H 1041.92 2.87549 2.274 0
M  V30 11140 H 1041.57 2.03116 4.60166 0
M  V30 11141 H 1041.27 3.78397 4.49544 0
M  V30 11142 H 1042.79 3.18464 5.20973 0
M  V30 11143 H 1044.21 4.59458 3.42887 0
M  V30 11144 H 1042.6 5.22523 2.9511 0
M  V30 11145 H 1043.67 4.53453 1.71779 0
M  V30 11146 N 1045.02 -0.694098 1.41492 0
M  V30 11147 C 1045.98 -1.78976 1.43179 0
M  V30 11148 C 1046.98 -1.57539 0.322191 0
M  V30 11149 O 1048.17 -1.64185 0.582138 0
M  V30 11150 C 1045.3 -3.17368 1.2446 0
M  V30 11151 H 1046.49 -1.78874 2.40716 0
M  V30 11152 H 1044.05 -0.901867 1.27656 0
M  V30 11153 H 1044.78 -3.23109 0.277691 0
M  V30 11154 H 1044.57 -3.3433 2.04856 0
M  V30 11155 H 1046.06 -3.97345 1.28479 0
M  V30 11156 N 1046.49 -1.27344 -0.928501 0
M  V30 11157 C 1047.74 -1.13019 -1.67061 0
M  V30 11158 C 1048.06 0.323614 -1.92904 0
M  V30 11159 O 1049.26 0.587752 -2.65062 0
M  V30 11160 C 1047.72 -1.97471 -3.00887 0
M  V30 11161 C 1047.33 -3.47504 -2.82746 0
M  V30 11162 C 1049.07 -1.91792 -3.78703 0
M  V30 11163 C 1046.98 -4.24158 -4.12122 0
M  V30 11164 H 1045.91 -0.419364 -0.626618 0
M  V30 11165 H 1048.56 -1.51759 -1.03158 0
M  V30 11166 H 1046.94 -1.51576 -3.65843 0
M  V30 11167 H 1048.11 -4.01256 -2.26562 0
M  V30 11168 H 1046.43 -3.54554 -2.18359 0
M  V30 11169 H 1049.03 -2.46339 -4.74575 0
M  V30 11170 H 1049.37 -0.891375 -4.06645 0
M  V30 11171 H 1049.9 -2.35578 -3.20543 0
M  V30 11172 H 1046.64 -5.27333 -3.89359 0
M  V30 11173 H 1046.16 -3.75183 -4.67972 0
M  V30 11174 H 1047.84 -4.33288 -4.80489 0
M  V30 11175 N 1047.97 1.13488 -1.09353 0
M  V30 11176 C 1049.39 1.36739 -0.823086 0
M  V30 11177 C 1049.59 1.93476 0.562963 0
M  V30 11178 O 1048.64 2.15374 1.31796 0
M  V30 11179 C 1049.96 2.31943 -1.91371 0
M  V30 11180 C 1051.51 2.4556 -1.94085 0
M  V30 11181 C 1051.98 3.44072 -3.02289 0
M  V30 11182 N 1053.47 3.51622 -3.01524 0
M  V30 11183 C 1054.21 4.27724 -3.8189 0
M  V30 11184 N 1053.7 5.06987 -4.72161 0
M  V30 11185 N 1055.5 4.23018 -3.70152 0
M  V30 11186 H 1047.65 0.75012 -1.98713 0
M  V30 11187 H 1049.91 0.392564 -0.862901 0
M  V30 11188 H 1049.62 1.97408 -2.91072 0
M  V30 11189 H 1049.49 3.31952 -1.79131 0
M  V30 11190 H 1051.88 2.79382 -0.950234 0
M  V30 11191 H 1051.96 1.45479 -2.10403 0
M  V30 11192 H 1051.6 3.10981 -4.01564 0
M  V30 11193 H 1051.53 4.43956 -2.83214 0
M  V30 11194 H 1054.02 2.95066 -2.36103 0
M  V30 11195 H 1054.34 5.6236 -5.30067 0
M  V30 11196 H 1052.68 5.06222 -4.76197 0
M  V30 11197 H 1055.87 3.60171 -2.98989 0
M  V30 11198 H 1056.04 4.82075 -4.33022 0
M  V30 11199 N 1049.45 0.880621 1.30701 0
M  V30 11200 C 1050.68 0.510909 2.01009 0
M  V30 11201 C 1051.1 -0.892041 1.65603 0
M  V30 11202 O 1050.46 -1.59045 0.870309 0
M  V30 11203 C 1050.51 0.687759 3.53981 0
M  V30 11204 O 1049.61 -0.268275 4.11526 0
M  V30 11205 H 1048.95 0.201864 0.632572 0
M  V30 11206 H 1051.48 1.18697 1.6665 0
M  V30 11207 H 1051.49 0.585095 4.03783 0
M  V30 11208 H 1050.17 1.71068 3.79089 0
M  V30 11209 H 1048.74 -0.119673 3.72708 0
M  V30 11210 N 1050.93 -1.4397 0.641131 0
M  V30 11211 C 1051.88 -2.30728 -0.0577905 0
M  V30 11212 C 1052.85 -1.44059 -0.826819 0
M  V30 11213 O 1054.03 -1.72947 -0.805853 0
M  V30 11214 C 1051.17 -3.29478 -1.02657 0
M  V30 11215 C 1050.28 -4.31247 -0.254913 0
M  V30 11216 C 1049.42 -5.17085 -1.2164 0
M  V30 11217 C 1048.46 -6.10556 -0.434481 0
M  V30 11218 N 1047.6 -6.89059 -1.34694 0
M  V30 11219 H 1052.44 -2.8995 0.687953 0
M  V30 11220 H 1049.97 -1.4285 0.351029 0
M  V30 11221 H 1051.93 -3.85228 -1.60173 0
M  V30 11222 H 1050.56 -2.71932 -1.73933 0
M  V30 11223 H 1049.61 -3.77889 0.436338 0
M  V30 11224 H 1050.92 -4.97545 0.353642 0
M  V30 11225 H 1050.08 -5.77402 -1.86258 0
M  V30 11226 H 1048.82 -4.50885 -1.85888 0
M  V30 11227 H 1047.82 -5.49339 0.225125 0
M  V30 11228 H 1049.05 -6.78795 0.203415 0
M  V30 11229 H 1046.99 -6.25518 -1.97644 0
M  V30 11230 H 1046.91 -7.51833 -0.792657 0
M  V30 11231 H 1048.18 -7.5389 -1.98165 0
M  V30 11232 N 1052.41 -0.382291 -1.52893 0
M  V30 11233 C 1053.82 0.0932841 -1.86467 0
M  V30 11234 C 1054.17 1.4675 -1.30226 0
M  V30 11235 O 1053.29 2.07001 -0.63084 0
M  V30 11236 C 1053.89 0.176048 -3.38342 0
M  V30 11237 C 1052.45 0.595904 -3.71653 0
M  V30 11238 C 1051.6 -0.246511 -2.76202 0
M  V30 11239 H 1054.55 -0.600443 -1.46903 0
M  V30 11240 H 1054.57 0.996512 -3.67219 0
M  V30 11241 H 1054.08 -0.824264 -3.79246 0
M  V30 11242 H 1052.18 1.60384 -3.36315 0
M  V30 11243 H 1052.29 0.358919 -4.77754 0
M  V30 11244 H 1050.66 0.287162 -2.53076 0
M  V30 11245 H 1051.44 -1.24467 -3.19942 0
M  V30 11246 N 1053.89 1.57202 -0.111913 0
M  V30 11247 C 1054.82 2.17957 0.837683 0
M  V30 11248 C 1055.8 1.1176 1.28233 0
M  V30 11249 O 1056.98 1.39967 1.34621 0
M  V30 11250 C 1054.11 2.77333 2.09054 0
M  V30 11251 C 1053.07 3.8905 1.78393 0
M  V30 11252 C 1052.39 4.35203 3.10649 0
M  V30 11253 C 1053.69 5.11477 1.05775 0
M  V30 11254 H 1055.39 2.9756 0.331441 0
M  V30 11255 H 1052.93 1.43131 0.157979 0
M  V30 11256 H 1054.88 3.18492 2.75936 0
M  V30 11257 H 1053.61 1.95009 2.6199 0
M  V30 11258 H 1052.27 3.48456 1.13903 0
M  V30 11259 H 1051.92 3.49747 3.61506 0
M  V30 11260 H 1051.62 5.10534 2.9091 0
M  V30 11261 H 1053.14 4.79007 3.78661 0
M  V30 11262 H 1054.55 5.497 1.62798 0
M  V30 11263 H 1052.95 5.92346 0.961573 0
M  V30 11264 H 1054.02 4.84881 0.043297 0
M  V30 11265 N 1055.36 -0.161842 1.56767 0
M  V30 11266 C 1056.78 -0.51396 1.51098 0
M  V30 11267 C 1056.98 -1.84158 0.817815 0
M  V30 11268 O 1056.04 -2.49592 0.382133 0
M  V30 11269 C 1057.35 -0.537966 2.95849 0
M  V30 11270 C 1058.9 -0.624512 3.06706 0
M  V30 11271 C 1059.37 -0.679322 4.52934 0
M  V30 11272 N 1060.86 -0.741953 4.57219 0
M  V30 11273 C 1061.6 -0.805096 5.6772 0
M  V30 11274 N 1061.09 -0.828492 6.87828 0
M  V30 11275 N 1062.89 -0.844843 5.55715 0
M  V30 11276 H 1055.04 0.708581 2.00232 0
M  V30 11277 H 1057.3 0.25663 0.912603 0
M  V30 11278 H 1057.01 0.369052 3.49758 0
M  V30 11279 H 1056.88 -1.38113 3.51005 0
M  V30 11280 H 1059.27 -1.52195 2.52825 0
M  V30 11281 H 1059.35 0.245515 2.54619 0
M  V30 11282 H 1058.99 0.213901 5.07449 0
M  V30 11283 H 1058.92 -1.56563 5.02788 0
M  V30 11284 H 1061.41 -0.731772 3.70747 0
M  V30 11285 H 1061.73 -0.878109 7.67795 0
M  V30 11286 H 1060.07 -0.796612 6.9042 0
M  V30 11287 H 1063.26 -0.823632 4.60797 0
M  V30 11288 H 1063.44 -0.890588 6.41851 0
M  V30 11289 N 1056.84 -1.516 -0.430713 0
M  V30 11290 C 1057.79 -1.73392 -1.52328 0
M  V30 11291 C 1058.76 -0.575758 -1.55802 0
M  V30 11292 O 1059.94 -0.810931 -1.72709 0
M  V30 11293 C 1057.08 -1.87092 -2.89984 0
M  V30 11294 C 1056.2 -3.14668 -2.95987 0
M  V30 11295 C 1055.33 -3.18923 -4.24807 0
M  V30 11296 C 1054.37 -4.40787 -4.24703 0
M  V30 11297 N 1053.51 -4.42556 -5.45059 0
M  V30 11298 H 1058.35 -2.6665 -1.33048 0
M  V30 11299 H 1055.88 -1.32146 -0.646207 0
M  V30 11300 H 1057.84 -1.93017 -3.69865 0
M  V30 11301 H 1056.47 -0.972363 -3.07807 0
M  V30 11302 H 1055.52 -3.1802 -2.08728 0
M  V30 11303 H 1056.84 -4.04562 -2.91772 0
M  V30 11304 H 1055.99 -3.23801 -5.13067 0
M  V30 11305 H 1054.73 -2.2693 -4.31688 0
M  V30 11306 H 1053.73 -4.36079 -3.34836 0
M  V30 11307 H 1054.96 -5.34053 -4.19481 0
M  V30 11308 H 1052.91 -3.53435 -5.52648 0
M  V30 11309 H 1052.82 -5.26267 -5.42751 0
M  V30 11310 H 1054.09 -4.51634 -6.35332 0
M  V30 11311 N 1058.32 0.686584 -1.41858 0
M  V30 11312 C 1059.55 1.47519 -1.45072 0
M  V30 11313 C 1059.96 1.88709 -0.0585868 0
M  V30 11314 O 1059.32 1.57373 0.924116 0
M  V30 11315 C 1059.37 2.73195 -2.36742 0
M  V30 11316 O 1059.09 2.33736 -3.70539 0
M  V30 11317 C 1060.59 3.66861 -2.48854 0
M  V30 11318 H 1057.81 0.454307 -0.493808 0
M  V30 11319 H 1060.36 0.844612 -1.86243 0
M  V30 11320 H 1058.51 3.32468 -1.98856 0
M  V30 11321 H 1058.93 3.14809 -4.19518 0
M  V30 11322 H 1060.4 4.51801 -3.17143 0
M  V30 11323 H 1060.88 4.11961 -1.52265 0
M  V30 11324 H 1061.48 3.13486 -2.87414 0
M  V30 11325 N 1059.8 1.27835 0.921735 0
M  V30 11326 C 1061.04 1.14692 1.67253 0
M  V30 11327 C 1061.38 -0.305384 1.91784 0
M  V30 11328 O 1060.65 -1.22286 1.51249 0
M  V30 11329 C 1060.93 1.93743 3.03539 0
M  V30 11330 C 1060.79 3.46991 2.86212 0
M  V30 11331 C 1062.11 1.74658 4.03959 0
M  V30 11332 H 1059.23 0.418021 0.606983 0
M  V30 11333 H 1061.87 1.5706 1.06922 0
M  V30 11334 H 1060.02 1.57738 3.55037 0
M  V30 11335 H 1061.69 3.92858 2.41785 0
M  V30 11336 H 1059.93 3.73029 2.21432 0
M  V30 11337 H 1060.6 3.97551 3.82958 0
M  V30 11338 H 1063.08 2.06063 3.61493 0
M  V30 11339 H 1061.96 2.32353 4.97296 0
M  V30 11340 H 1062.22 0.696019 4.36587 0
M  V30 11341 N 1061.28 -1.12907 1.09954 0
M  V30 11342 C 1062.22 -2.18485 0.743848 0
M  V30 11343 C 1063.19 -1.63766 -0.277494 0
M  V30 11344 O 1064.38 -1.90146 -0.157899 0
M  V30 11345 C 1061.52 -3.44649 0.176437 0
M  V30 11346 C 1060.63 -4.13445 1.25248 0
M  V30 11347 C 1059.77 -5.27242 0.647242 0
M  V30 11348 C 1058.8 -5.87897 1.70421 0
M  V30 11349 N 1057.94 -6.93116 1.1196 0
M  V30 11350 H 1062.78 -2.48257 1.64841 0
M  V30 11351 H 1060.32 -1.21891 0.823471 0
M  V30 11352 H 1062.28 -4.16852 -0.170384 0
M  V30 11353 H 1060.91 -3.15309 -0.69137 0
M  V30 11354 H 1059.96 -3.39471 1.7165 0
M  V30 11355 H 1061.27 -4.54601 2.05279 0
M  V30 11356 H 1060.42 -6.06186 0.249579 0
M  V30 11357 H 1059.16 -4.87351 -0.184556 0
M  V30 11358 H 1058.17 -5.07643 2.11136 0
M  V30 11359 H 1059.39 -6.2986 2.53877 0
M  V30 11360 H 1057.34 -6.55271 0.309181 0
M  V30 11361 H 1057.26 -7.32843 1.85681 0
M  V30 11362 H 1058.52 -7.759 0.748326 0
M  V30 11363 N 1062.75 -0.88754 -1.30232 0
M  V30 11364 C 1063.98 -0.521549 -1.99909 0
M  V30 11365 C 1064.39 0.895086 -1.66688 0
M  V30 11366 O 1063.73 1.60053 -0.90159 0
M  V30 11367 C 1063.8 -0.619564 -3.54121 0
M  V30 11368 C 1063.46 -2.00097 -4.10865 0
M  V30 11369 C 1064.46 -2.97068 -4.26669 0
M  V30 11370 C 1062.14 -2.30706 -4.46184 0
M  V30 11371 C 1064.14 -4.2278 -4.77007 0
M  V30 11372 C 1061.82 -3.56663 -4.96221 0
M  V30 11373 C 1062.82 -4.52515 -5.11585 0
M  V30 11374 O 1062.51 -5.76237 -5.60541 0
M  V30 11375 H 1062.24 -0.199904 -0.645766 0
M  V30 11376 H 1064.8 -1.19546 -1.67027 0
M  V30 11377 H 1063.03 0.111334 -3.8654 0
M  V30 11378 H 1064.71 -0.26448 -4.05037 0
M  V30 11379 H 1065.48 -2.74734 -3.99683 0
M  V30 11380 H 1061.36 -1.56865 -4.33491 0
M  V30 11381 H 1064.9 -4.97603 -4.88914 0
M  V30 11382 H 1060.8 -3.78834 -5.22643 0
M  V30 11383 H 1061.57 -5.78655 -5.78879 0
M  V30 11384 N 1064.23 1.43628 -0.648757 0
M  V30 11385 C 1065.2 2.29172 0.0360713 0
M  V30 11386 C 1066.2 1.41974 0.754976 0
M  V30 11387 O 1067.39 1.63654 0.5969 0
M  V30 11388 C 1064.52 3.23942 1.0618 0
M  V30 11389 H 1065.71 2.91214 -0.716544 0
M  V30 11390 H 1063.26 1.50833 -0.409759 0
M  V30 11391 H 1064 2.66786 1.8438 0
M  V30 11392 H 1063.78 3.88223 0.550016 0
M  V30 11393 H 1065.27 3.8816 1.54019 0
M  V30 11394 N 1065.71 0.390394 1.52688 0
M  V30 11395 C 1066.64 -0.43567 2.294 0
M  V30 11396 C 1067.62 -1.06253 1.32832 0
M  V30 11397 O 1068.81 -1.07509 1.61726 0
M  V30 11398 C 1065.94 -1.56259 3.10162 0
M  V30 11399 C 1064.89 -1.06172 4.14622 0
M  V30 11400 C 1064.22 -2.2808 4.83615 0
M  V30 11401 C 1065.52 -0.128902 5.22141 0
M  V30 11402 H 1067.21 0.204384 2.98702 0
M  V30 11403 H 1064.76 0.0997377 1.43654 0
M  V30 11404 H 1066.71 -2.14732 3.62585 0
M  V30 11405 H 1065.43 -2.23025 2.38595 0
M  V30 11406 H 1064.09 -0.499518 3.63181 0
M  V30 11407 H 1063.74 -2.93358 4.08595 0
M  V30 11408 H 1063.44 -1.95227 5.5422 0
M  V30 11409 H 1064.96 -2.87193 5.38844 0
M  V30 11410 H 1066.38 -0.621849 5.69917 0
M  V30 11411 H 1064.78 0.109919 5.99999 0
M  V30 11412 H 1065.85 0.821884 4.77884 0
M  V30 11413 N 1067.19 -1.57141 0.120249 0
M  V30 11414 C 1068.44 -1.94413 -0.53727 0
M  V30 11415 C 1068.75 -1.00594 -1.67751 0
M  V30 11416 O 1069.96 -1.27336 -2.39787 0
M  V30 11417 C 1068.41 -3.45521 -1.00714 0
M  V30 11418 C 1068.02 -4.47878 0.104706 0
M  V30 11419 C 1069.76 -3.9171 -1.63596 0
M  V30 11420 C 1067.67 -5.90165 -0.381932 0
M  V30 11421 H 1066.6 -0.725745 -0.204475 0
M  V30 11422 H 1069.25 -1.82404 0.200302 0
M  V30 11423 H 1067.63 -3.52769 -1.79917 0
M  V30 11424 H 1068.81 -4.523 0.881002 0
M  V30 11425 H 1067.12 -4.11448 0.640264 0
M  V30 11426 H 1069.72 -4.95433 -2.01122 0
M  V30 11427 H 1070.06 -3.31756 -2.51483 0
M  V30 11428 H 1070.6 -3.87268 -0.909319 0
M  V30 11429 H 1067.34 -6.53877 0.460921 0
M  V30 11430 H 1066.86 -5.89161 -1.12468 0
M  V30 11431 H 1068.53 -6.41488 -0.842748 0
M  V30 11432 N 1068.67 0.153526 -1.5685 0
M  V30 11433 C 1069.89 0.886343 -1.87507 0
M  V30 11434 C 1070.32 1.74244 -0.708565 0
M  V30 11435 O 1069.67 1.78045 0.341997 0
M  V30 11436 C 1069.72 1.72428 -3.16703 0
M  V30 11437 O 1068.83 2.82784 -3.00178 0
M  V30 11438 H 1068.17 0.247259 -0.616246 0
M  V30 11439 H 1070.7 0.146306 -2.04076 0
M  V30 11440 H 1070.71 2.12062 -3.4856 0
M  V30 11441 H 1069.38 1.09558 -4.01211 0
M  V30 11442 H 1067.96 2.46604 -2.79716 0
M  V30 11443 N 1070.14 1.51827 0.422667 0
M  V30 11444 C 1071.11 1.7359 1.49663 0
M  V30 11445 C 1072.11 0.605811 1.48952 0
M  V30 11446 O 1073.3 0.87354 1.50715 0
M  V30 11447 C 1070.43 1.80585 2.8914 0
M  V30 11448 H 1071.62 2.69453 1.31664 0
M  V30 11449 H 1069.18 1.42038 0.652298 0
M  V30 11450 H 1069.91 0.865895 3.12526 0
M  V30 11451 H 1069.7 2.62729 2.9106 0
M  V30 11452 H 1071.19 1.99212 3.67021 0
M  V30 11453 N 1071.62 -0.679052 1.4222 0
M  V30 11454 C 1072.55 -1.80455 1.41311 0
M  V30 11455 C 1073.57 -1.59767 0.312799 0
M  V30 11456 O 1074.76 -1.68964 0.575612 0
M  V30 11457 C 1071.86 -3.17492 1.18541 0
M  V30 11458 C 1071.03 -3.65066 2.40926 0
M  V30 11459 C 1070.09 -4.80823 2.13765 0
M  V30 11460 O 1069.11 -4.91587 2.86934 0
M  V30 11461 N 1070.32 -5.69233 1.13813 0
M  V30 11462 H 1073.08 -1.81722 2.38322 0
M  V30 11463 H 1070.64 -0.861988 1.37045 0
M  V30 11464 H 1072.63 -3.92581 0.982958 0
M  V30 11465 H 1071.2 -3.1115 0.300691 0
M  V30 11466 H 1070.42 -2.80702 2.76767 0
M  V30 11467 H 1071.71 -3.93593 3.22431 0
M  V30 11468 H 1071.11 -5.63185 0.532887 0
M  V30 11469 H 1069.67 -6.44152 0.995554 0
M  V30 11470 N 1073.1 -1.28322 -0.914942 0
M  V30 11471 C 1074.52 -1.06003 -1.19313 0
M  V30 11472 C 1074.72 0.198366 -2.00521 0
M  V30 11473 O 1073.77 0.900364 -2.35902 0
M  V30 11474 C 1075.09 -2.30684 -1.92887 0
M  V30 11475 C 1076.63 -2.35851 -2.05775 0
M  V30 11476 C 1077.11 -3.60295 -2.82757 0
M  V30 11477 N 1078.6 -3.60928 -2.9032 0
M  V30 11478 C 1079.33 -4.53894 -3.50383 0
M  V30 11479 N 1078.83 -5.57178 -4.11734 0
M  V30 11480 N 1080.62 -4.41492 -3.4791 0
M  V30 11481 H 1072.77 -2.09104 -0.372735 0
M  V30 11482 H 1075.04 -0.920285 -0.227552 0
M  V30 11483 H 1074.74 -3.22355 -1.40643 0
M  V30 11484 H 1074.62 -2.37003 -2.93444 0
M  V30 11485 H 1077 -1.44678 -2.57201 0
M  V30 11486 H 1077.09 -2.33526 -1.04399 0
M  V30 11487 H 1076.73 -4.51811 -2.32011 0
M  V30 11488 H 1076.66 -3.59873 -3.84446 0
M  V30 11489 H 1079.15 -2.8624 -2.46729 0
M  V30 11490 H 1079.46 -6.24261 -4.55541 0
M  V30 11491 H 1077.81 -5.61005 -4.10242 0
M  V30 11492 H 1081 -3.60005 -2.99189 0
M  V30 11493 H 1081.17 -5.14132 -3.94427 0
M  V30 11494 N 1074.58 1.12322 -1.10551 0
M  V30 11495 C 1075.82 1.85497 -0.858492 0
M  V30 11496 C 1076.18 1.8222 0.604966 0
M  V30 11497 O 1077.38 2.5075 0.968382 0
M  V30 11498 C 1075.65 3.29124 -1.39327 0
M  V30 11499 S 1077.21 4.19659 -1.28186 0
M  V30 11500 H 1074.03 0.639768 -0.31019 0
M  V30 11501 H 1076.63 1.35298 -1.41119 0
M  V30 11502 H 1075.34 3.29069 -2.45238 0
M  V30 11503 H 1074.87 3.84388 -0.837203 0
M  V30 11504 H 1076.88 4.95618 -0.240325 0
M  V30 11505 N 1076.06 0.894434 1.2976 0
M  V30 11506 C 1076.99 0.312806 2.26046 0
M  V30 11507 C 1077.97 -0.572024 1.52206 0
M  V30 11508 O 1079.15 -0.520009 1.81185 0
M  V30 11509 C 1076.28 -0.554624 3.34128 0
M  V30 11510 C 1075.32 0.262168 4.25693 0
M  V30 11511 S 1076.16 1.65656 5.09233 0
M  V30 11512 C 1077.31 0.795914 6.20819 0
M  V30 11513 H 1077.55 1.12895 2.75031 0
M  V30 11514 H 1075.08 0.694446 1.37901 0
M  V30 11515 H 1077.04 -1.04933 3.96862 0
M  V30 11516 H 1075.7 -1.34495 2.83848 0
M  V30 11517 H 1074.89 -0.400216 5.02408 0
M  V30 11518 H 1074.49 0.689829 3.67583 0
M  V30 11519 H 1076.79 0.0169942 6.77498 0
M  V30 11520 H 1077.73 1.53497 6.91263 0
M  V30 11521 H 1078.14 0.35263 5.63398 0
M  V30 11522 N 1077.53 -1.43282 0.656365 0
M  V30 11523 C 1078.78 -2.00996 0.168354 0
M  V30 11524 C 1079.1 -1.52408 -1.22601 0
M  V30 11525 O 1080.3 -2.02417 -1.80941 0
M  V30 11526 C 1078.76 -3.5903 0.250161 0
M  V30 11527 C 1078.37 -4.1661 1.64742 0
M  V30 11528 C 1080.11 -4.24118 -0.180084 0
M  V30 11529 C 1078.02 -5.66948 1.68299 0
M  V30 11530 H 1076.95 -0.751674 0.0591769 0
M  V30 11531 H 1079.6 -1.64216 0.818859 0
M  V30 11532 H 1077.98 -3.93226 -0.467908 0
M  V30 11533 H 1079.15 -3.93908 2.3911 0
M  V30 11534 H 1077.47 -3.63905 2.02391 0
M  V30 11535 H 1080.07 -5.34419 -0.173401 0
M  V30 11536 H 1080.41 -3.98264 -1.21208 0
M  V30 11537 H 1080.94 -3.94816 0.486343 0
M  V30 11538 H 1077.68 -5.97573 2.69419 0
M  V30 11539 H 1077.2 -5.91697 0.98261 0
M  V30 11540 H 1078.88 -6.31041 1.42813 0
M  V30 11541 N 1079.01 -0.398486 -1.52479 0
M  V30 11542 C 1080.25 0.180412 -2.03602 0
M  V30 11543 C 1080.62 1.43276 -1.27812 0
M  V30 11544 O 1081.82 2.08941 -1.69107 0
M  V30 11545 C 1080.09 0.432744 -3.5477 0
M  V30 11546 S 1081.65 0.980612 -4.27703 0
M  V30 11547 H 1078.47 0.0499981 -0.70924 0
M  V30 11548 H 1081.07 -0.548952 -1.87635 0
M  V30 11549 H 1079.77 -0.48568 -4.07516 0
M  V30 11550 H 1079.3 1.19028 -3.74961 0
M  V30 11551 H 1081.32 2.26216 -4.41634 0
M  V30 11552 N 1080.49 1.57075 -0.12858 0
M  V30 11553 C 1081.42 2.12907 0.848708 0
M  V30 11554 C 1082.44 1.07406 1.22343 0
M  V30 11555 O 1083.63 1.34746 1.17071 0
M  V30 11556 C 1080.73 2.62167 2.1476 0
M  V30 11557 C 1079.9 3.91871 1.94309 0
M  V30 11558 C 1078.96 4.26629 3.08016 0
M  V30 11559 O 1077.98 4.9528 2.80511 0
M  V30 11560 N 1079.19 3.84721 4.34706 0
M  V30 11561 H 1081.95 2.97387 0.371636 0
M  V30 11562 H 1079.51 1.61805 0.0555574 0
M  V30 11563 H 1081.5 2.82444 2.89841 0
M  V30 11564 H 1080.07 1.82514 2.53786 0
M  V30 11565 H 1079.29 3.80406 1.03367 0
M  V30 11566 H 1080.58 4.76662 1.77962 0
M  V30 11567 H 1079.98 3.2937 4.59926 0
M  V30 11568 H 1078.54 4.10087 5.06628 0
M  V30 11569 N 1081.97 -0.145205 1.5693 0
M  V30 11570 C 1083.22 -0.855822 1.83085 0
M  V30 11571 C 1083.54 -1.81625 0.709747 0
M  V30 11572 O 1082.81 -1.94052 -0.268456 0
M  V30 11573 H 1081.39 -0.319032 0.675446 0
M  V30 11574 H 1084.05 -0.138781 1.94405 0
M  V30 11575 H 1083.15 -1.41698 2.78079 0
M  V30 11576 N 1083.45 -1.52049 -0.414609 0
M  V30 11577 C 1084.72 -1.56397 -1.17471 0
M  V30 11578 C 1085.1 -0.34171 -2.08316 0
M  V30 11579 O 1084.45 0.6718 -2.18401 0
M  V30 11580 C 1084.66 -2.88983 -1.95678 0
M  V30 11581 C 1086.01 -3.41781 -2.51935 0
M  V30 11582 O 1087.03 -2.90686 -2.05865 0
M  V30 11583 O 1085.89 -4.30989 -3.36022 0
M  V30 11584 H 1082.99 -0.62974 -0.536056 0
M  V30 11585 H 1085.53 -1.64374 -0.421834 0
M  V30 11586 H 1084.31 -3.69392 -1.29094 0
M  V30 11587 H 1083.93 -2.84274 -2.77983 0
M  V30 11588 N 1084.93 0.6715 -1.42579 0
M  V30 11589 C 1086.17 1.42731 -1.42516 0
M  V30 11590 C 1086.49 1.95545 -0.0462407 0
M  V30 11591 O 1087.69 2.71391 0.0769798 0
M  V30 11592 C 1086.15 2.58215 -2.50705 0
M  V30 11593 C 1085.76 2.12086 -3.94618 0
M  V30 11594 C 1087.5 3.35705 -2.59813 0
M  V30 11595 C 1085.41 3.24672 -4.9431 0
M  V30 11596 H 1084.34 0.536218 -0.530081 0
M  V30 11597 H 1086.99 0.726655 -1.68499 0
M  V30 11598 H 1085.37 3.30665 -2.17892 0
M  V30 11599 H 1086.55 1.46768 -4.36802 0
M  V30 11600 H 1084.86 1.47526 -3.89391 0
M  V30 11601 H 1087.46 4.1956 -3.31472 0
M  V30 11602 H 1087.8 3.82517 -1.64276 0
M  V30 11603 H 1088.33 2.70326 -2.91836 0
M  V30 11604 H 1085.07 2.82848 -5.91335 0
M  V30 11605 H 1084.59 3.88761 -4.56755 0
M  V30 11606 H 1086.27 3.90088 -5.16179 0
M  V30 11607 N 1086.4 1.28806 0.908124 0
M  V30 11608 C 1087.37 1.13228 1.99279 0
M  V30 11609 C 1088.37 0.0702456 1.60646 0
M  V30 11610 O 1089.56 0.316494 1.71301 0
M  V30 11611 C 1086.69 0.729629 3.33 0
M  V30 11612 H 1087.88 2.09566 2.14528 0
M  V30 11613 H 1085.43 1.11872 1.09153 0
M  V30 11614 H 1086.17 -0.234268 3.23453 0
M  V30 11615 H 1085.95 1.49688 3.62403 0
M  V30 11616 H 1087.44 0.643449 4.12613 0
M  V30 11617 N 1087.88 -1.11734 1.11145 0
M  V30 11618 C 1089.3 -1.35412 0.844736 0
M  V30 11619 C 1089.5 -1.94347 -0.532111 0
M  V30 11620 O 1088.55 -2.17443 -1.28353 0
M  V30 11621 C 1089.87 -2.28869 1.95037 0
M  V30 11622 C 1091.41 -2.42442 1.97967 0
M  V30 11623 C 1091.89 -3.39219 3.07725 0
M  V30 11624 N 1093.38 -3.4678 3.07079 0
M  V30 11625 C 1094.12 -4.21595 3.88646 0
M  V30 11626 N 1093.61 -4.99411 4.80167 0
M  V30 11627 N 1095.4 -4.17075 3.76835 0
M  V30 11628 H 1087.56 -0.718412 1.99881 0
M  V30 11629 H 1089.82 -0.378787 0.869037 0
M  V30 11630 H 1089.52 -1.92752 2.94176 0
M  V30 11631 H 1089.4 -3.2906 1.84389 0
M  V30 11632 H 1091.79 -2.77835 0.994561 0
M  V30 11633 H 1091.87 -1.42113 2.12691 0
M  V30 11634 H 1091.51 -3.04553 4.0646 0
M  V30 11635 H 1091.44 -4.39394 2.90242 0
M  V30 11636 H 1093.93 -2.91272 2.40767 0
M  V30 11637 H 1094.24 -5.53856 5.38946 0
M  V30 11638 H 1092.59 -4.98582 4.84191 0
M  V30 11639 H 1095.78 -3.55369 3.04681 0
M  V30 11640 H 1095.95 -4.75125 4.40637 0
M  V30 11641 N 1089.36 -0.901303 -1.29284 0
M  V30 11642 C 1090.59 -0.542723 -1.99344 0
M  V30 11643 C 1091 0.877357 -1.67628 0
M  V30 11644 O 1090.34 1.59088 -0.918515 0
M  V30 11645 C 1090.4 -0.657088 -3.53444 0
M  V30 11646 C 1090.07 -2.04444 -4.0872 0
M  V30 11647 C 1091.06 -3.01577 -4.23494 0
M  V30 11648 C 1088.75 -2.35425 -4.43712 0
M  V30 11649 C 1090.74 -4.27816 -4.72496 0
M  V30 11650 C 1088.43 -3.61906 -4.9241 0
M  V30 11651 C 1089.43 -4.57916 -5.06757 0
M  V30 11652 O 1089.12 -5.8215 -5.54397 0
M  V30 11653 H 1088.85 -0.206742 -0.64361 0
M  V30 11654 H 1091.4 -1.21311 -1.65749 0
M  V30 11655 H 1089.63 0.0703305 -3.86636 0
M  V30 11656 H 1091.32 -0.307425 -4.04734 0
M  V30 11657 H 1092.09 -2.78957 -3.96747 0
M  V30 11658 H 1087.97 -1.61454 -4.31803 0
M  V30 11659 H 1091.51 -5.0276 -4.83609 0
M  V30 11660 H 1087.41 -3.84356 -5.18595 0
M  V30 11661 H 1088.17 -5.84762 -5.72709 0
M  V30 11662 N 1090.84 1.42931 -0.663954 0
M  V30 11663 C 1092.25 1.56098 -0.332496 0
M  V30 11664 C 1092.45 1.64564 1.16279 0
M  V30 11665 O 1091.51 1.6066 1.94794 0
M  V30 11666 C 1092.82 2.81649 -1.05329 0
M  V30 11667 C 1094.37 2.95408 -1.03457 0
M  V30 11668 C 1094.85 4.23805 -1.73647 0
M  V30 11669 N 1096.34 4.30693 -1.70462 0
M  V30 11670 C 1097.07 5.28833 -2.21637 0
M  V30 11671 N 1096.57 6.33189 -2.81147 0
M  V30 11672 N 1098.36 5.20558 -2.12075 0
M  V30 11673 H 1090.51 1.3568 -1.63416 0
M  V30 11674 H 1092.77 0.652361 -0.687844 0
M  V30 11675 H 1092.48 2.81494 -2.10842 0
M  V30 11676 H 1092.35 3.72208 -0.611626 0
M  V30 11677 H 1094.74 2.95097 0.0121936 0
M  V30 11678 H 1094.82 2.06109 -1.51502 0
M  V30 11679 H 1094.47 4.24876 -2.78285 0
M  V30 11680 H 1094.4 5.12019 -1.2306 0
M  V30 11681 H 1096.89 3.55904 -1.27046 0
M  V30 11682 H 1097.2 7.04411 -3.17844 0
M  V30 11683 H 1095.55 6.33781 -2.85212 0
M  V30 11684 H 1098.74 4.3795 -1.6528 0
M  V30 11685 H 1098.91 5.96881 -2.52264 0
M  V30 11686 N 1092.32 0.406567 1.52266 0
M  V30 11687 C 1093.23 -0.4271 2.30679 0
M  V30 11688 C 1094.24 -1.0559 1.383 0
M  V30 11689 O 1095.42 -1.05797 1.71374 0
M  V30 11690 C 1092.48 -1.53008 3.1111 0
M  V30 11691 C 1091.54 -0.924604 4.19225 0
M  V30 11692 C 1090.78 -1.97502 4.95811 0
M  V30 11693 O 1091 -3.19277 4.72671 0
M  V30 11694 O 1089.93 -1.58268 5.80719 0
M  V30 11695 H 1093.76 0.212187 3.02958 0
M  V30 11696 H 1091.34 0.169835 1.48432 0
M  V30 11697 H 1093.23 -2.17046 3.61205 0
M  V30 11698 H 1091.9 -2.15401 2.41628 0
M  V30 11699 H 1090.81 -0.247009 3.73284 0
M  V30 11700 H 1092.14 -0.34463 4.90992 0
M  V30 11701 N 1093.79 -1.57004 0.136909 0
M  V30 11702 C 1094.73 -2.13355 -0.837405 0
M  V30 11703 C 1095.74 -1.08053 -1.21772 0
M  V30 11704 O 1096.93 -1.35365 -1.16355 0
M  V30 11705 C 1094.03 -2.63302 -2.13366 0
M  V30 11706 C 1093.2 -3.92896 -1.92228 0
M  V30 11707 C 1092.26 -4.28257 -3.05749 0
M  V30 11708 O 1091.29 -4.96761 -2.7788 0
M  V30 11709 N 1092.49 -3.87021 -4.3266 0
M  V30 11710 H 1095.25 -2.9758 -0.35586 0
M  V30 11711 H 1092.81 -1.61832 -0.0469758 0
M  V30 11712 H 1094.81 -2.83977 -2.88339 0
M  V30 11713 H 1093.38 -1.83858 -2.52814 0
M  V30 11714 H 1092.6 -3.80949 -1.01349 0
M  V30 11715 H 1093.88 -4.776 -1.75431 0
M  V30 11716 H 1093.28 -3.31804 -4.58173 0
M  V30 11717 H 1091.84 -4.12768 -5.04446 0
M  V30 11718 N 1095.27 0.136881 -1.57004 0
M  V30 11719 C 1096.24 1.15267 -1.98106 0
M  V30 11720 C 1097.24 1.35305 -0.868856 0
M  V30 11721 O 1098.43 1.32126 -1.13527 0
M  V30 11722 C 1095.56 2.51092 -2.30577 0
M  V30 11723 H 1096.75 0.799821 -2.89038 0
M  V30 11724 H 1094.3 0.380576 -1.51596 0
M  V30 11725 H 1095.04 2.9133 -1.42469 0
M  V30 11726 H 1094.82 2.37906 -3.11678 0
M  V30 11727 H 1096.31 3.24232 -2.63179 0
M  V30 11728 N 1096.75 1.52266 0.40654 0
M  V30 11729 C 1097.98 1.70598 1.17945 0
M  V30 11730 C 1098.4 0.415793 1.83447 0
M  V30 11731 O 1097.76 -0.626968 1.70114 0
M  V30 11732 C 1097.81 2.84449 2.21633 0
M  V30 11733 O 1096.91 2.50199 3.27833 0
M  V30 11734 H 1096.25 0.567837 0.344177 0
M  V30 11735 H 1098.78 1.98981 0.476211 0
M  V30 11736 H 1098.79 3.09436 2.65919 0
M  V30 11737 H 1097.47 3.78055 1.73341 0
M  V30 11738 H 1096.04 2.35892 2.88807 0
M  V30 11739 N 1098.23 -0.663929 1.42933 0
M  V30 11740 C 1099.51 -1.42054 1.34462 0
M  V30 11741 C 1099.89 -2.11096 -0.0127801 0
M  V30 11742 O 1099.23 -2.04027 -1.02884 0
M  V30 11743 C 1099.44 -2.41406 2.5204 0
M  V30 11744 C 1100.79 -3.05726 2.94647 0
M  V30 11745 O 1101.82 -2.51733 2.52009 0
M  V30 11746 O 1100.67 -4.03593 3.68477 0
M  V30 11747 H 1097.77 -0.634149 0.530834 0
M  V30 11748 H 1100.31 -0.691738 1.54962 0
M  V30 11749 H 1099.09 -1.89263 3.42484 0
M  V30 11750 H 1098.71 -3.21752 2.33584 0
M  V30 11751 N 1099.71 -1.29285 -0.901281 0
M  V30 11752 C 1100.93 -1.20048 -1.68511 0
M  V30 11753 C 1101.35 0.239128 -1.8728 0
M  V30 11754 O 1100.71 1.16027 -1.40869 0
M  V30 11755 C 1100.76 -1.90798 -3.07048 0
M  V30 11756 O 1100.48 -3.29137 -2.89138 0
M  V30 11757 C 1101.98 -1.88017 -4.01453 0
M  V30 11758 H 1099.2 -0.416157 -0.52636 0
M  V30 11759 H 1101.74 -1.7063 -1.12719 0
M  V30 11760 H 1099.9 -1.44055 -3.5962 0
M  V30 11761 H 1100.31 -3.64747 -3.76908 0
M  V30 11762 H 1101.79 -2.42088 -4.96082 0
M  V30 11763 H 1102.26 -0.855341 -4.30791 0
M  V30 11764 H 1102.87 -2.34497 -3.54812 0
M  V30 11765 N 1101.18 1.11143 -1.11736 0
M  V30 11766 C 1102.15 2.15456 -0.78174 0
M  V30 11767 C 1103.15 1.59547 0.200383 0
M  V30 11768 O 1104.34 1.74183 -0.0244893 0
M  V30 11769 C 1101.47 3.40523 -0.160364 0
M  V30 11770 H 1102.66 2.46658 -1.70586 0
M  V30 11771 H 1100.22 1.26381 -0.919644 0
M  V30 11772 H 1100.95 3.14932 0.773835 0
M  V30 11773 H 1100.74 3.82386 -0.867378 0
M  V30 11774 H 1102.23 4.17559 0.0582175 0
M  V30 11775 N 1102.66 0.908147 1.28804 0
M  V30 11776 C 1103.61 0.382315 2.29437 0
M  V30 11777 C 1104.6 -0.523033 1.61123 0
M  V30 11778 O 1105.81 -0.404898 1.75387 0
M  V30 11779 H 1102.19 0.105022 0.74463 0
M  V30 11780 H 1104.16 1.24425 2.71221 0
M  V30 11781 C 1102.91 -0.367475 3.45753 0
M  V30 11782 H 1102.23 0.319957 3.98518 0
M  V30 11783 H 1103.67 -0.700131 4.1818 0
M  V30 11784 C 1102.13 -1.57329 2.97908 0
M  V30 11785 O 1102.66 -2.67248 2.99902 0
M  V30 11786 N 1100.86 -1.41835 2.53636 0
M  V30 11787 H 1100.41 -0.524099 2.52212 0
M  V30 11788 H 1100.37 -2.22645 2.21984 0
M  V30 11789 N 1104.14 -1.42577 0.671525 0
M  V30 11790 C 1105.37 -2.05625 0.20044 0
M  V30 11791 C 1105.78 -1.50524 -1.14626 0
M  V30 11792 O 1105.12 -0.638468 -1.72248 0
M  V30 11793 C 1105.18 -3.59459 0.0545385 0
M  V30 11794 C 1104.85 -4.37236 1.32943 0
M  V30 11795 C 1105.84 -4.68104 2.26219 0
M  V30 11796 C 1103.53 -4.76932 1.57612 0
M  V30 11797 C 1105.52 -5.37599 3.42442 0
M  V30 11798 C 1103.21 -5.46167 2.74125 0
M  V30 11799 C 1104.21 -5.76425 3.66364 0
M  V30 11800 O 1103.9 -6.44242 4.8084 0
M  V30 11801 H 1103.63 -0.66918 0.0957843 0
M  V30 11802 H 1106.18 -1.83759 0.917701 0
M  V30 11803 H 1104.41 -3.79971 -0.718271 0
M  V30 11804 H 1106.1 -4.04152 -0.376251 0
M  V30 11805 H 1106.87 -4.37939 2.08409 0
M  V30 11806 H 1102.75 -4.52776 0.866887 0
M  V30 11807 H 1106.29 -5.61133 4.14458 0
M  V30 11808 H 1102.19 -5.75749 2.91861 0
M  V30 11809 H 1102.96 -6.62732 4.80342 0
M  V30 11810 N 1105.62 -0.414636 -1.52048 0
M  V30 11811 C 1106.87 0.159034 -2.01473 0
M  V30 11812 C 1107.19 1.45176 -1.30188 0
M  V30 11813 O 1106.46 1.91134 -0.429469 0
M  V30 11814 H 1105.04 0.0617604 -0.744443 0
M  V30 11815 H 1107.7 -0.552141 -1.86916 0
M  V30 11816 H 1106.8 0.351217 -3.10118 0
M  V30 11817 N 1107.1 1.56929 -0.145233 0
M  V30 11818 C 1108.04 2.16671 0.795128 0
M  V30 11819 C 1109.01 1.09908 1.24537 0
M  V30 11820 O 1110.2 1.37941 1.31821 0
M  V30 11821 C 1107.34 2.79111 2.02956 0
M  V30 11822 C 1106.45 4.00261 1.62528 0
M  V30 11823 C 1105.59 4.50705 2.81137 0
M  V30 11824 C 1104.63 5.64324 2.37075 0
M  V30 11825 N 1103.76 6.09395 3.48687 0
M  V30 11826 H 1108.6 2.96692 0.278865 0
M  V30 11827 H 1106.14 1.4656 0.125934 0
M  V30 11828 H 1108.1 3.13456 2.7532 0
M  V30 11829 H 1106.73 2.01737 2.51996 0
M  V30 11830 H 1105.78 3.71906 0.799365 0
M  V30 11831 H 1107.09 4.8258 1.26166 0
M  V30 11832 H 1106.25 4.87096 3.61693 0
M  V30 11833 H 1104.98 3.67389 3.20744 0
M  V30 11834 H 1103.99 5.27511 1.54958 0
M  V30 11835 H 1105.21 6.49425 1.98556 0
M  V30 11836 H 1103.16 5.29014 3.87917 0
M  V30 11837 H 1103.08 6.86636 3.16333 0
M  V30 11838 H 1104.35 6.50431 4.29605 0
M  V30 11839 N 1108.58 -0.128553 1.57075 0
M  V30 11840 C 1109.54 -1.14215 1.98715 0
M  V30 11841 C 1110.54 -1.34843 0.876019 0
M  V30 11842 O 1111.73 -1.31522 1.14227 0
M  V30 11843 C 1108.86 -2.49865 2.31905 0
M  V30 11844 H 1110.05 -0.784481 2.89458 0
M  V30 11845 H 1107.61 -0.372531 1.51796 0
M  V30 11846 H 1108.34 -2.9057 1.44012 0
M  V30 11847 H 1108.13 -2.3625 3.12935 0
M  V30 11848 H 1109.62 -3.22832 2.64895 0
M  V30 11849 N 1110.05 -1.5248 -0.398459 0
M  V30 11850 C 1111.47 -1.4152 -0.737854 0
M  V30 11851 C 1111.67 -0.528122 -1.94456 0
M  V30 11852 O 1110.73 0.00203799 -2.525 0
M  V30 11853 C 1112.04 -2.8422 -0.9818 0
M  V30 11854 C 1113.59 -2.93635 -1.08386 0
M  V30 11855 C 1114.06 -4.37327 -1.3605 0
M  V30 11856 N 1115.55 -4.40609 -1.42892 0
M  V30 11857 C 1116.29 -5.48863 -1.65944 0
M  V30 11858 N 1115.78 -6.67217 -1.86529 0
M  V30 11859 N 1117.58 -5.36393 -1.68046 0
M  V30 11860 H 1109.73 -2.08681 0.395705 0
M  V30 11861 H 1111.99 -0.941023 0.114801 0
M  V30 11862 H 1111.7 -3.51302 -0.167358 0
M  V30 11863 H 1111.57 -3.25907 -1.89907 0
M  V30 11864 H 1113.96 -2.26728 -1.88888 0
M  V30 11865 H 1114.04 -2.5539 -0.144714 0
M  V30 11866 H 1113.68 -5.04797 -0.56061 0
M  V30 11867 H 1113.61 -4.73116 -2.31233 0
M  V30 11868 H 1116.1 -3.55298 -1.2873 0
M  V30 11869 H 1116.42 -7.45498 -2.03599 0
M  V30 11870 H 1114.76 -6.70263 -1.83773 0
M  V30 11871 H 1117.95 -4.42903 -1.51509 0
M  V30 11872 H 1118.13 -6.2083 -1.85672 0
M  V30 11873 N 1111.53 0.65634 -1.43283 0
M  V30 11874 C 1112.76 1.44906 -1.48382 0
M  V30 11875 C 1113.18 1.87823 -0.101993 0
M  V30 11876 O 1112.54 1.57178 0.903597 0
M  V30 11877 C 1112.59 2.66231 -2.43215 0
M  V30 11878 O 1111.69 3.65176 -1.91625 0
M  V30 11879 H 1111.03 0.434601 -0.502014 0
M  V30 11880 H 1113.56 0.803429 -1.88165 0
M  V30 11881 H 1113.57 3.14083 -2.60414 0
M  V30 11882 H 1112.25 2.34336 -3.43598 0
M  V30 11883 H 1110.82 3.24302 -1.84072 0
M  V30 11884 N 1113.01 1.29761 0.894412 0
M  V30 11885 C 1114.26 1.19224 1.64794 0
M  V30 11886 C 1114.61 -0.252648 1.90734 0
M  V30 11887 O 1113.9 -1.17881 1.51045 0
M  V30 11888 C 1114.1 1.94458 2.99868 0
M  V30 11889 C 1113.93 3.46115 2.87114 0
M  V30 11890 C 1112.7 4.15469 2.87599 0
M  V30 11891 C 1114.89 4.41518 2.63754 0
M  V30 11892 N 1112.88 5.53453 2.65637 0
M  V30 11893 C 1114.25 5.66999 2.50823 0
M  V30 11894 C 1116.3 4.31221 2.48903 0
M  V30 11895 C 1115.01 6.83351 2.24554 0
M  V30 11896 C 1117.03 5.4733 2.24018 0
M  V30 11897 C 1116.39 6.71786 2.11856 0
M  V30 11898 H 1112.49 0.491294 0.608403 0
M  V30 11899 H 1115.08 1.63656 1.05474 0
M  V30 11900 H 1113.25 1.52432 3.57238 0
M  V30 11901 H 1114.98 1.76142 3.64357 0
M  V30 11902 H 1111.73 3.67217 2.9908 0
M  V30 11903 H 1112.16 6.26037 2.57695 0
M  V30 11904 H 1116.8 3.35689 2.57046 0
M  V30 11905 H 1114.52 7.78933 2.15149 0
M  V30 11906 H 1118.1 5.41265 2.13363 0
M  V30 11907 H 1116.98 7.60113 1.92867 0
M  V30 11908 N 1114.49 -1.10549 1.12324 0
M  V30 11909 C 1115.72 -1.86 0.899312 0
M  V30 11910 C 1116.13 -1.80881 -0.554854 0
M  V30 11911 O 1115.47 -1.19485 -1.39531 0
M  V30 11912 C 1115.53 -3.35384 1.29452 0
M  V30 11913 C 1115.19 -3.64263 2.75974 0
M  V30 11914 C 1116.19 -3.60962 3.74169 0
M  V30 11915 C 1113.88 -3.92976 3.1285 0
M  V30 11916 C 1115.87 -3.85966 5.07256 0
M  V30 11917 C 1113.56 -4.17637 4.4612 0
M  V30 11918 C 1114.56 -4.14122 5.43132 0
M  V30 11919 O 1114.24 -4.38156 6.73999 0
M  V30 11920 H 1113.98 -0.594743 0.321337 0
M  V30 11921 H 1116.53 -1.40674 1.49667 0
M  V30 11922 H 1114.76 -3.81361 0.640358 0
M  V30 11923 H 1116.45 -3.9222 1.04491 0
M  V30 11924 H 1117.21 -3.38819 3.47025 0
M  V30 11925 H 1113.09 -3.94843 2.3795 0
M  V30 11926 H 1116.64 -3.83138 5.82967 0
M  V30 11927 H 1112.53 -4.39258 4.72993 0
M  V30 11928 H 1113.3 -4.55677 6.79927 0
M  V30 11929 N 1115.97 -0.914965 -1.28321 0
M  V30 11930 C 1116.9 -0.421292 -2.29668 0
M  V30 11931 C 1117.88 0.511743 -1.6222 0
M  V30 11932 O 1119.06 0.419218 -1.89621 0
M  V30 11933 C 1116.19 0.338364 -3.45648 0
M  V30 11934 C 1115.15 -0.505646 -4.25003 0
M  V30 11935 C 1114.47 0.382421 -5.33331 0
M  V30 11936 C 1115.77 -1.76354 -4.91626 0
M  V30 11937 H 1117.47 -1.26826 -2.71211 0
M  V30 11938 H 1115.01 -0.611291 -1.30381 0
M  V30 11939 H 1116.96 0.694578 -4.15636 0
M  V30 11940 H 1115.69 1.21925 -3.02988 0
M  V30 11941 H 1114.35 -0.844395 -3.56743 0
M  V30 11942 H 1114 1.26189 -4.86914 0
M  V30 11943 H 1113.7 -0.17871 -5.87328 0
M  V30 11944 H 1115.22 0.73449 -6.06166 0
M  V30 11945 H 1116.63 -1.47616 -5.5397 0
M  V30 11946 H 1115.03 -2.26717 -5.55625 0
M  V30 11947 H 1116.1 -2.49063 -4.16048 0
M  V30 11948 N 1117.44 1.42219 -0.679077 0
M  V30 11949 C 1118.39 2.308 -0.00340316 0
M  V30 11950 C 1119.36 1.462 0.788334 0
M  V30 11951 O 1120.55 1.75023 0.759716 0
M  V30 11952 C 1117.69 3.32084 0.938854 0
M  V30 11953 C 1116.8 4.31772 0.140485 0
M  V30 11954 C 1115.93 5.20128 1.07888 0
M  V30 11955 C 1114.97 6.11493 0.27245 0
M  V30 11956 N 1114.11 6.92388 1.16378 0
M  V30 11957 H 1118.95 2.88024 -0.764587 0
M  V30 11958 H 1116.49 1.41869 -0.38878 0
M  V30 11959 H 1118.44 3.89339 1.49903 0
M  V30 11960 H 1117.07 2.76448 1.66662 0
M  V30 11961 H 1116.13 3.76599 -0.536376 0
M  V30 11962 H 1117.44 4.96432 -0.485433 0
M  V30 11963 H 1116.59 5.82137 1.70884 0
M  V30 11964 H 1115.33 4.55655 1.73868 0
M  V30 11965 H 1114.34 5.48549 -0.370693 0
M  V30 11966 H 1115.56 6.78017 -0.383315 0
M  V30 11967 H 1113.51 6.30538 1.8099 0
M  V30 11968 H 1113.42 7.5367 0.593043 0
M  V30 11969 H 1114.69 7.58879 1.78107 0
M  V30 11970 N 1118.92 0.422693 1.51826 0
M  V30 11971 C 1119.88 -0.384307 2.25955 0
M  V30 11972 C 1120.88 -0.962184 1.28836 0
M  V30 11973 O 1122.07 -0.838931 1.52668 0
M  V30 11974 C 1119.21 -1.54228 3.04018 0
M  V30 11975 H 1120.4 0.265157 2.98726 0
M  V30 11976 H 1117.95 0.175515 1.55311 0
M  V30 11977 H 1118.69 -2.22822 2.35629 0
M  V30 11978 H 1118.47 -1.13425 3.75336 0
M  V30 11979 H 1119.96 -2.1128 3.60209 0
M  V30 11980 N 1120.4 -1.5685 0.153553 0
M  V30 11981 C 1121.33 -2.14231 -0.814729 0
M  V30 11982 C 1122.34 -1.09339 -1.20619 0
M  V30 11983 O 1123.53 -1.36592 -1.14913 0
M  V30 11984 C 1120.63 -2.6555 -2.10562 0
M  V30 11985 C 1119.81 -3.94912 -1.8805 0
M  V30 11986 C 1118.87 -4.31476 -3.0119 0
M  V30 11987 O 1117.89 -4.9968 -2.72596 0
M  V30 11988 N 1119.09 -3.91588 -4.28531 0
M  V30 11989 H 1121.86 -2.9794 -0.324277 0
M  V30 11990 H 1119.42 -1.61873 -0.0298087 0
M  V30 11991 H 1121.41 -2.87019 -2.85311 0
M  V30 11992 H 1119.98 -1.86529 -2.5085 0
M  V30 11993 H 1119.2 -3.82002 -0.973024 0
M  V30 11994 H 1120.49 -4.79433 -1.70356 0
M  V30 11995 H 1119.89 -3.36645 -4.54628 0
M  V30 11996 H 1118.44 -4.18095 -5.00039 0
M  V30 11997 N 1121.88 0.120221 -1.57141 0
M  V30 11998 C 1122.83 1.15332 -1.96679 0
M  V30 11999 C 1123.81 1.37134 -0.841607 0
M  V30 12000 O 1125 1.38247 -1.10529 0
M  V30 12001 C 1122.13 2.48021 -2.37361 0
M  V30 12002 C 1121.22 2.29699 -3.5651 0
M  V30 12003 N 1121.61 1.81186 -4.72234 0
M  V30 12004 C 1119.91 2.60359 -3.62118 0
M  V30 12005 C 1120.61 1.76542 -5.54263 0
M  V30 12006 N 1119.58 2.20843 -4.96719 0
M  V30 12007 H 1123.39 0.770763 -2.83613 0
M  V30 12008 H 1120.9 0.327979 -1.59054 0
M  V30 12009 H 1122.9 3.22739 -2.63903 0
M  V30 12010 H 1121.56 2.87036 -1.51791 0
M  V30 12011 H 1122.57 1.50751 -4.95474 0
M  V30 12012 H 1119.25 3.03067 -2.87152 0
M  V30 12013 H 1120.64 1.40298 -6.57089 0
M  V30 12014 N 1123.36 1.52689 0.390367 0
M  V30 12015 C 1124.61 1.6689 1.13272 0
M  V30 12016 C 1124.92 0.414433 1.91159 0
M  V30 12017 O 1126.12 0.436559 2.67967 0
M  V30 12018 C 1124.58 2.94929 2.06264 0
M  V30 12019 C 1124.19 4.27551 1.33805 0
M  V30 12020 C 1125.93 3.18497 2.80642 0
M  V30 12021 C 1123.84 5.46698 2.25554 0
M  V30 12022 H 1122.77 0.621749 0.426549 0
M  V30 12023 H 1125.42 1.79185 0.395615 0
M  V30 12024 H 1123.8 2.76378 2.83604 0
M  V30 12025 H 1124.98 4.56651 0.616997 0
M  V30 12026 H 1123.29 4.10234 0.713913 0
M  V30 12027 H 1125.89 4.04693 3.49467 0
M  V30 12028 H 1126.23 2.33511 3.44642 0
M  V30 12029 H 1126.76 3.37607 2.10395 0
M  V30 12030 H 1123.5 6.34088 1.66171 0
M  V30 12031 H 1123.02 5.21913 2.95579 0
M  V30 12032 H 1124.7 5.80519 2.85668 0
M  V30 12033 N 1124.83 -0.648732 1.43629 0
M  V30 12034 C 1125.8 -1.74331 1.488 0
M  V30 12035 C 1126.8 -1.56434 0.372147 0
M  V30 12036 O 1127.99 -1.6225 0.634078 0
M  V30 12037 C 1125.12 -3.13248 1.34494 0
M  V30 12038 H 1126.31 -1.71125 2.46285 0
M  V30 12039 H 1123.87 -0.860798 1.30461 0
M  V30 12040 H 1124.6 -3.22062 0.380345 0
M  V30 12041 H 1124.39 -3.27643 2.15389 0
M  V30 12042 H 1125.88 -3.93056 1.41055 0
M  V30 12043 N 1126.31 -1.30234 -0.887518 0
M  V30 12044 C 1127.72 -1.17048 -1.45453 0
M  V30 12045 C 1128.07 0.229793 -1.9485 0
M  V30 12046 O 1127.2 1.12628 -1.84781 0
M  V30 12047 C 1127.79 -2.11876 -2.64375 0
M  V30 12048 C 1126.35 -2.02676 -3.17174 0
M  V30 12049 C 1125.5 -2.02104 -1.89866 0
M  V30 12050 H 1128.45 -1.42541 -0.697694 0
M  V30 12051 H 1128.47 -1.69811 -3.40506 0
M  V30 12052 H 1127.98 -3.13781 -2.28392 0
M  V30 12053 H 1126.09 -1.03904 -3.57819 0
M  V30 12054 H 1126.2 -2.90939 -3.80646 0
M  V30 12055 H 1124.56 -1.4687 -2.0809 0
M  V30 12056 H 1125.35 -3.05735 -1.56145 0
M  V30 12057 N 1127.79 1.09952 -1.12909 0
M  V30 12058 C 1128.74 2.16436 -0.801514 0
M  V30 12059 C 1129.71 1.64444 0.233976 0
M  V30 12060 O 1130.89 1.90497 0.10743 0
M  V30 12061 C 1128.03 3.4406 -0.267753 0
M  V30 12062 C 1127.15 4.09979 -1.36165 0
M  V30 12063 C 1126.28 5.25341 -0.786803 0
M  V30 12064 C 1125.32 5.83172 -1.85948 0
M  V30 12065 N 1124.46 6.89904 -1.30298 0
M  V30 12066 H 1129.3 2.43799 -1.71365 0
M  V30 12067 H 1126.83 1.19665 -0.855499 0
M  V30 12068 H 1128.79 4.17157 0.0598031 0
M  V30 12069 H 1127.42 3.17031 0.607528 0
M  V30 12070 H 1126.47 3.34801 -1.8059 0
M  V30 12071 H 1127.79 4.48999 -2.17259 0
M  V30 12072 H 1126.94 6.05312 -0.410211 0
M  V30 12073 H 1125.68 4.87669 0.055279 0
M  V30 12074 H 1124.68 5.01867 -2.24521 0
M  V30 12075 H 1125.91 6.22907 -2.70487 0
M  V30 12076 H 1123.85 6.54221 -0.482806 0
M  V30 12077 H 1123.77 7.27662 -2.05046 0
M  V30 12078 H 1125.04 7.73643 -0.953779 0
M  V30 12079 N 1129.27 0.921757 1.27833 0
M  V30 12080 C 1130.22 0.406628 2.29018 0
M  V30 12081 C 1131.21 -0.505914 1.61669 0
M  V30 12082 O 1132.42 -0.386273 1.75807 0
M  V30 12083 H 1128.79 0.112914 0.743475 0
M  V30 12084 H 1130.76 1.27295 2.69886 0
M  V30 12085 C 1129.51 -0.330783 3.46123 0
M  V30 12086 H 1128.83 0.362207 3.98156 0
M  V30 12087 H 1130.27 -0.655738 4.18899 0
M  V30 12088 C 1128.73 -1.54161 2.9956 0
M  V30 12089 O 1129.26 -2.64052 3.0272 0
M  V30 12090 N 1127.47 -1.39137 2.55126 0
M  V30 12091 H 1127.02 -0.497319 2.52754 0
M  V30 12092 H 1126.97 -2.20278 2.24333 0
M  V30 12093 N 1130.75 -1.41857 0.686609 0
M  V30 12094 C 1131.99 -2.0097 0.213378 0
M  V30 12095 C 1132.32 -1.54618 -1.1882 0
M  V30 12096 O 1131.59 -0.772916 -1.80008 0
M  V30 12097 H 1130.17 -0.743134 0.0758968 0
M  V30 12098 H 1132.83 -1.73609 0.885763 0
M  V30 12099 H 1131.92 -3.11296 0.223826 0
M  V30 12100 N 1132.22 -0.430739 -1.51599 0
M  V30 12101 C 1133.64 -0.0826902 -1.59386 0
M  V30 12102 C 1133.84 1.40729 -1.44214 0
M  V30 12103 O 1132.9 2.1765 -1.28002 0
M  V30 12104 C 1134.21 -0.59691 -2.94716 0
M  V30 12105 C 1135.76 -0.556772 -3.08008 0
M  V30 12106 C 1136.23 -1.04786 -4.45852 0
M  V30 12107 N 1137.72 -1.00557 -4.52153 0
M  V30 12108 C 1138.46 -1.35649 -5.57124 0
M  V30 12109 N 1137.95 -1.77994 -6.69545 0
M  V30 12110 N 1139.75 -1.27508 -5.47447 0
M  V30 12111 H 1131.9 -1.40027 -1.59707 0
M  V30 12112 H 1134.16 -0.576606 -0.752482 0
M  V30 12113 H 1133.87 -1.63914 -3.11167 0
M  V30 12114 H 1133.74 -0.0182342 -3.77196 0
M  V30 12115 H 1136.13 0.476457 -2.91228 0
M  V30 12116 H 1136.21 -1.17177 -2.27383 0
M  V30 12117 H 1135.85 -2.07952 -4.63377 0
M  V30 12118 H 1135.78 -0.409461 -5.25006 0
M  V30 12119 H 1138.27 -0.694518 -3.71463 0
M  V30 12120 H 1138.59 -2.03026 -7.45654 0
M  V30 12121 H 1136.93 -1.81916 -6.70769 0
M  V30 12122 H 1140.12 -0.942969 -4.58504 0
M  V30 12123 H 1140.3 -1.55185 -6.29143 0
M  V30 12124 N 1133.7 1.56767 -0.161869 0
M  V30 12125 C 1135.11 1.83265 0.356466 0
M  V30 12126 C 1135.46 1.08127 1.63716 0
M  V30 12127 O 1134.59 0.33127 2.13849 0
M  V30 12128 C 1135.18 3.32437 0.653521 0
M  V30 12129 C 1133.74 3.59465 1.11633 0
M  V30 12130 C 1132.89 2.76909 0.147204 0
M  V30 12131 H 1135.84 1.53926 -0.386308 0
M  V30 12132 H 1135.86 3.49401 1.50662 0
M  V30 12133 H 1135.37 3.87098 -0.278766 0
M  V30 12134 H 1133.48 3.10206 2.06404 0
M  V30 12135 H 1133.59 4.67853 1.03202 0
M  V30 12136 H 1131.95 2.46457 0.642739 0
M  V30 12137 H 1132.74 3.34346 -0.778938 0
M  V30 12138 N 1135.18 -0.111886 1.57202 0
M  V30 12139 C 1136.41 -0.8312 1.89142 0
M  V30 12140 C 1136.82 -1.73614 0.751987 0
M  V30 12141 O 1136.16 -1.81462 -0.285877 0
M  V30 12142 C 1136.22 -1.71107 3.16169 0
M  V30 12143 C 1135.89 -0.9797 4.46375 0
M  V30 12144 C 1136.88 -0.317219 5.18931 0
M  V30 12145 C 1134.57 -0.958764 4.93065 0
M  V30 12146 C 1136.56 0.356419 6.36403 0
M  V30 12147 C 1134.25 -0.281332 6.10452 0
M  V30 12148 C 1135.25 0.375098 6.81969 0
M  V30 12149 O 1134.94 1.0417 7.97122 0
M  V30 12150 H 1134.67 -0.243855 0.630484 0
M  V30 12151 H 1137.22 -0.0986634 2.05163 0
M  V30 12152 H 1135.45 -2.48543 2.96249 0
M  V30 12153 H 1137.14 -2.30544 3.34072 0
M  V30 12154 H 1137.91 -0.324965 4.8391 0
M  V30 12155 H 1133.79 -1.45913 4.37299 0
M  V30 12156 H 1137.33 0.869362 6.92162 0
M  V30 12157 H 1133.23 -0.271374 6.44929 0
M  V30 12158 H 1134 0.946899 8.13004 0
M  V30 12159 N 1136.66 -1.52894 -0.382264 0
M  V30 12160 C 1137.61 -1.78799 -1.48774 0
M  V30 12161 C 1138.6 -0.65624 -1.56173 0
M  V30 12162 O 1139.81 -0.838856 -1.59258 0
M  V30 12163 H 1136.18 -0.565855 -0.49529 0
M  V30 12164 H 1138.15 -2.7136 -1.24122 0
M  V30 12165 C 1136.9 -1.97987 -2.85826 0
M  V30 12166 H 1136.22 -2.84505 -2.80886 0
M  V30 12167 H 1137.66 -2.20099 -3.62398 0
M  V30 12168 C 1136.12 -0.75427 -3.28348 0
M  V30 12169 O 1136.65 0.0650749 -4.01647 0
M  V30 12170 N 1134.86 -0.582457 -2.84703 0
M  V30 12171 H 1134.41 -1.25034 -2.2522 0
M  V30 12172 H 1134.36 0.236208 -3.13511 0
M  V30 12173 N 1138.14 0.641106 -1.43971 0
M  V30 12174 C 1139.07 1.76645 -1.46046 0
M  V30 12175 C 1140.08 1.58881 -0.355049 0
M  V30 12176 O 1141.27 1.67379 -0.620207 0
M  V30 12177 C 1138.37 3.14237 -1.26918 0
M  V30 12178 C 1137.54 3.5855 -2.50521 0
M  V30 12179 C 1136.6 4.74986 -2.26438 0
M  V30 12180 O 1135.63 4.83807 -2.99866 0
M  V30 12181 N 1136.83 5.66016 -1.28866 0
M  V30 12182 H 1139.6 1.75339 -2.43056 0
M  V30 12183 H 1137.16 0.82535 -1.39282 0
M  V30 12184 H 1139.15 3.89837 -1.0867 0
M  V30 12185 H 1137.72 3.10244 -0.383082 0
M  V30 12186 H 1136.94 2.73265 -2.84112 0
M  V30 12187 H 1138.23 3.84906 -3.32754 0
M  V30 12188 H 1137.63 5.61574 -0.682018 0
M  V30 12189 H 1136.18 6.41286 -1.16599 0
M  V30 12190 N 1139.62 1.30703 0.880598 0
M  V30 12191 C 1140.55 1.20033 2.00286 0
M  V30 12192 C 1141.53 0.0899614 1.69862 0
M  V30 12193 O 1142.71 0.272747 1.92275 0
M  V30 12194 C 1139.84 0.895902 3.35546 0
M  V30 12195 C 1138.8 1.96468 3.80242 0
M  V30 12196 C 1138.12 1.51316 5.12843 0
M  V30 12197 C 1139.42 3.37637 3.98496 0
M  V30 12198 H 1141.12 2.13922 2.0947 0
M  V30 12199 H 1138.66 1.02989 1.00644 0
M  V30 12200 H 1140.61 0.807899 4.13583 0
M  V30 12201 H 1139.34 -0.0786636 3.26505 0
M  V30 12202 H 1138 2.0424 3.04437 0
M  V30 12203 H 1137.65 0.52674 5.00234 0
M  V30 12204 H 1137.35 2.22807 5.43719 0
M  V30 12205 H 1138.87 1.43903 5.93401 0
M  V30 12206 H 1140.28 3.326 4.66959 0
M  V30 12207 H 1138.68 4.07253 4.40755 0
M  V30 12208 H 1139.75 3.79205 3.02211 0
M  V30 12209 N 1141.09 -1.09351 1.1349 0
M  V30 12210 C 1142.06 -2.14185 0.815919 0
M  V30 12211 C 1143.06 -1.59845 -0.174976 0
M  V30 12212 O 1144.25 -1.74122 0.0521971 0
M  V30 12213 C 1141.38 -3.40224 0.214517 0
M  V30 12214 H 1142.57 -2.43913 1.74489 0
M  V30 12215 H 1140.12 -1.24902 0.939634 0
M  V30 12216 H 1140.86 -3.16123 -0.723634 0
M  V30 12217 H 1140.64 -3.80958 0.928102 0
M  V30 12218 H 1142.13 -4.17599 0.00821999 0
M  V30 12219 N 1142.57 -0.928524 -1.27343 0
M  V30 12220 C 1143.5 -0.445627 -2.29208 0
M  V30 12221 C 1144.48 0.494508 -1.62753 0
M  V30 12222 O 1145.67 0.399082 -1.90055 0
M  V30 12223 C 1142.8 0.301684 -3.45987 0
M  V30 12224 C 1141.75 -0.550695 -4.24442 0
M  V30 12225 C 1141.08 0.325833 -5.33706 0
M  V30 12226 C 1142.38 -1.81559 -4.89728 0
M  V30 12227 H 1144.07 -1.29696 -2.69851 0
M  V30 12228 H 1141.62 -0.625085 -1.29725 0
M  V30 12229 H 1143.57 0.650455 -4.1635 0
M  V30 12230 H 1142.29 1.18705 -3.04264 0
M  V30 12231 H 1140.95 -0.882185 -3.55827 0
M  V30 12232 H 1140.6 1.21018 -4.88225 0
M  V30 12233 H 1140.3 -0.240994 -5.87106 0
M  V30 12234 H 1141.83 0.670156 -6.06911 0
M  V30 12235 H 1143.24 -1.53483 -5.52373 0
M  V30 12236 H 1141.64 -2.32598 -5.53189 0
M  V30 12237 H 1142.71 -2.53461 -4.13383 0
M  V30 12238 N 1144.05 1.41491 -0.694123 0
M  V30 12239 C 1144.98 2.33462 -0.0422169 0
M  V30 12240 C 1145.96 1.51739 0.76872 0
M  V30 12241 O 1147.15 1.8028 0.721985 0
M  V30 12242 C 1144.28 3.35545 0.895925 0
M  V30 12243 C 1143.23 4.27568 0.192188 0
M  V30 12244 C 1142.56 5.20014 1.24459 0
M  V30 12245 C 1143.86 5.1376 -0.940626 0
M  V30 12246 H 1145.55 2.88225 -0.810363 0
M  V30 12247 H 1143.1 1.38586 -0.39114 0
M  V30 12248 H 1145.05 3.9881 1.36121 0
M  V30 12249 H 1143.77 2.79129 1.69572 0
M  V30 12250 H 1142.43 3.65726 -0.25305 0
M  V30 12251 H 1142.08 4.59913 2.03687 0
M  V30 12252 H 1141.78 5.82417 0.778734 0
M  V30 12253 H 1143.3 5.86155 1.71041 0
M  V30 12254 H 1144.72 5.70601 -0.555692 0
M  V30 12255 H 1143.11 5.85097 -1.33349 0
M  V30 12256 H 1144.18 4.51011 -1.78093 0
M  V30 12257 N 1145.53 0.438773 1.51369 0
M  V30 12258 C 1146.49 -0.36032 2.2635 0
M  V30 12259 C 1147.49 -0.948465 1.29849 0
M  V30 12260 O 1148.68 -0.822692 1.53549 0
M  V30 12261 C 1145.81 -1.50994 3.05636 0
M  V30 12262 H 1147.01 0.296826 2.98427 0
M  V30 12263 H 1144.56 0.191978 1.55117 0
M  V30 12264 H 1145.29 -2.2031 2.37979 0
M  V30 12265 H 1145.08 -1.09437 3.76518 0
M  V30 12266 H 1146.57 -2.07447 3.6243 0
M  V30 12267 N 1147.01 -1.56678 0.170181 0
M  V30 12268 C 1148.25 -1.9714 -0.475767 0
M  V30 12269 C 1148.58 -1.05611 -1.62972 0
M  V30 12270 O 1147.86 -0.103017 -1.94227 0
M  V30 12271 C 1148.14 -3.47072 -0.959828 0
M  V30 12272 C 1148 -4.4938 0.194225 0
M  V30 12273 C 1149.31 -4.00071 -1.83387 0
M  V30 12274 H 1146.43 -0.716776 -0.171466 0
M  V30 12275 H 1149.08 -1.88266 0.256086 0
M  V30 12276 H 1147.23 -3.54766 -1.58346 0
M  V30 12277 H 1148.9 -4.53748 0.83128 0
M  V30 12278 H 1147.14 -4.25393 0.849893 0
M  V30 12279 H 1147.81 -5.51685 -0.186575 0
M  V30 12280 H 1150.29 -3.95002 -1.30815 0
M  V30 12281 H 1149.16 -5.05398 -2.14159 0
M  V30 12282 H 1149.42 -3.43819 -2.77923 0
M  V30 12283 N 1148.48 0.103547 -1.57259 0
M  V30 12284 C 1149.71 0.821158 -1.8958 0
M  V30 12285 C 1150.12 1.73213 -0.761184 0
M  V30 12286 O 1149.46 1.81611 0.27625 0
M  V30 12287 C 1149.53 1.69428 -3.17072 0
M  V30 12288 C 1149.19 0.956014 -4.46889 0
M  V30 12289 C 1150.19 0.289694 -5.19092 0
M  V30 12290 C 1147.87 0.932602 -4.93566 0
M  V30 12291 C 1149.87 -0.390164 -6.36205 0
M  V30 12292 C 1147.55 0.248954 -6.10593 0
M  V30 12293 C 1148.55 -0.411259 -6.81761 0
M  V30 12294 O 1148.24 -1.08396 -7.96559 0
M  V30 12295 H 1147.97 0.240508 -0.631769 0
M  V30 12296 H 1150.53 0.0877817 -2.05212 0
M  V30 12297 H 1148.76 2.46968 -2.97563 0
M  V30 12298 H 1150.44 2.28769 -3.3529 0
M  V30 12299 H 1151.21 0.299297 -4.84076 0
M  V30 12300 H 1147.09 1.43592 -4.38067 0
M  V30 12301 H 1150.63 -0.906057 -6.91691 0
M  V30 12302 H 1146.53 0.237168 -6.45064 0
M  V30 12303 H 1147.3 -0.990002 -8.12491 0
M  V30 12304 N 1149.96 1.53094 0.37415 0
M  V30 12305 C 1151.19 1.72758 1.13852 0
M  V30 12306 C 1151.6 0.452638 1.83294 0
M  V30 12307 O 1150.96 -0.573906 1.73241 0
M  V30 12308 C 1151.01 2.88724 2.17534 0
M  V30 12309 O 1150.73 4.11284 1.5092 0
M  V30 12310 C 1152.23 3.2019 3.06584 0
M  V30 12311 H 1149.45 0.578028 0.340771 0
M  V30 12312 H 1152 1.99805 0.435683 0
M  V30 12313 H 1150.15 2.64096 2.83429 0
M  V30 12314 H 1150.57 4.76162 2.19932 0
M  V30 12315 H 1152.04 4.04759 3.75332 0
M  V30 12316 H 1152.52 2.35193 3.70919 0
M  V30 12317 H 1153.12 3.46712 2.46315 0
M  V30 12318 N 1151.44 -0.633461 1.44309 0
M  V30 12319 C 1152.86 -0.951379 1.28144 0
M  V30 12320 C 1153.06 -2.00344 0.215512 0
M  V30 12321 O 1152.11 -2.49321 -0.399389 0
M  V30 12322 C 1153.42 -1.41686 2.65227 0
M  V30 12323 C 1154.97 -1.53247 2.72918 0
M  V30 12324 C 1155.45 -2.03179 4.10466 0
M  V30 12325 N 1156.94 -2.10453 4.1263 0
M  V30 12326 C 1157.67 -2.50254 5.15907 0
M  V30 12327 N 1157.17 -2.89209 6.29547 0
M  V30 12328 N 1158.96 -2.50368 5.03262 0
M  V30 12329 H 1151.11 0.0623574 2.12308 0
M  V30 12330 H 1153.38 -0.0347244 0.947364 0
M  V30 12331 H 1153.08 -0.71814 3.4429 0
M  V30 12332 H 1152.96 -2.3883 2.91959 0
M  V30 12333 H 1155.34 -2.22216 1.94176 0
M  V30 12334 H 1155.42 -0.544836 2.4993 0
M  V30 12335 H 1155.07 -1.34806 4.89683 0
M  V30 12336 H 1155 -3.02809 4.3083 0
M  V30 12337 H 1157.49 -1.83042 3.30612 0
M  V30 12338 H 1157.8 -3.18386 7.04166 0
M  V30 12339 H 1156.15 -2.86966 6.32989 0
M  V30 12340 H 1159.34 -2.19324 4.13539 0
M  V30 12341 H 1159.51 -2.81062 5.83873 0
M  V30 12342 N 1152.92 -1.31168 -0.873655 0
M  V30 12343 C 1154.33 -1.09745 -1.1588 0
M  V30 12344 C 1154.53 0.134471 -2.01051 0
M  V30 12345 O 1153.59 0.824857 -2.38647 0
M  V30 12346 C 1154.9 -2.36704 -1.85451 0
M  V30 12347 C 1156.45 -2.42278 -1.98167 0
M  V30 12348 C 1156.93 -3.69108 -2.71152 0
M  V30 12349 N 1158.42 -3.69981 -2.7869 0
M  V30 12350 C 1159.15 -4.64811 -3.35765 0
M  V30 12351 N 1158.65 -5.69995 -3.938 0
M  V30 12352 N 1160.44 -4.52337 -3.33688 0
M  V30 12353 H 1152.59 -2.10184 -0.306021 0
M  V30 12354 H 1154.86 -0.927058 -0.198159 0
M  V30 12355 H 1154.56 -3.26666 -1.30316 0
M  V30 12356 H 1154.44 -2.46219 -2.85755 0
M  V30 12357 H 1156.82 -1.52787 -2.52468 0
M  V30 12358 H 1156.9 -2.3673 -0.969164 0
M  V30 12359 H 1156.55 -4.58963 -2.1752 0
M  V30 12360 H 1156.48 -3.71922 -3.72803 0
M  V30 12361 H 1158.97 -2.93944 -2.37498 0
M  V30 12362 H 1159.28 -6.38438 -4.3545 0
M  V30 12363 H 1157.63 -5.73773 -3.92186 0
M  V30 12364 H 1160.82 -3.69341 -2.87584 0
M  V30 12365 H 1160.99 -5.2642 -3.77871 0
M  V30 12366 N 1154.4 1.08748 -1.14068 0
M  V30 12367 C 1155.34 2.15573 -0.824425 0
M  V30 12368 C 1156.31 1.64683 0.216522 0
M  V30 12369 O 1157.5 1.90601 0.0872193 0
M  V30 12370 C 1154.64 3.43756 -0.30423 0
M  V30 12371 C 1153.75 4.08512 -1.40506 0
M  V30 12372 C 1152.89 5.24477 -0.842479 0
M  V30 12373 C 1151.93 5.81167 -1.92123 0
M  V30 12374 N 1151.06 6.88483 -1.37608 0
M  V30 12375 H 1155.9 2.41968 -1.73941 0
M  V30 12376 H 1153.44 1.18751 -0.868143 0
M  V30 12377 H 1155.4 4.17197 0.0155546 0
M  V30 12378 H 1154.03 3.17658 0.573868 0
M  V30 12379 H 1153.08 3.32866 -1.84131 0
M  V30 12380 H 1154.39 4.46669 -2.2201 0
M  V30 12381 H 1153.55 6.04842 -0.474389 0
M  V30 12382 H 1152.28 4.877 0.00355212 0
M  V30 12383 H 1151.29 4.99458 -2.29831 0
M  V30 12384 H 1152.51 6.20003 -2.77079 0
M  V30 12385 H 1150.46 6.53672 -0.552168 0
M  V30 12386 H 1150.38 7.25446 -2.12752 0
M  V30 12387 H 1151.65 7.72588 -1.03578 0
M  V30 12388 N 1155.87 0.935264 1.26849 0
M  V30 12389 C 1156.8 0.457776 2.28969 0
M  V30 12390 C 1157.79 -0.48587 1.63013 0
M  V30 12391 O 1158.97 -0.388998 1.90264 0
M  V30 12392 C 1156.1 -0.283332 3.46142 0
M  V30 12393 C 1155.05 0.573196 4.24144 0
M  V30 12394 C 1154.38 -0.297525 5.33872 0
M  V30 12395 C 1155.68 1.84153 4.88759 0
M  V30 12396 H 1157.37 1.31125 2.69159 0
M  V30 12397 H 1154.92 0.631956 1.29392 0
M  V30 12398 H 1156.87 -0.628366 4.16689 0
M  V30 12399 H 1155.6 -1.1709 3.04889 0
M  V30 12400 H 1154.26 0.901043 3.55354 0
M  V30 12401 H 1153.9 -1.18427 4.8886 0
M  V30 12402 H 1153.6 0.272126 5.8697 0
M  V30 12403 H 1155.13 -0.637961 6.07258 0
M  V30 12404 H 1156.54 1.5641 5.51551 0
M  V30 12405 H 1154.94 2.35528 5.51948 0
M  V30 12406 H 1156.01 2.5565 4.12033 0
M  V30 12407 N 1157.35 -1.41121 0.701616 0
M  V30 12408 C 1158.63 -1.9492 0.162911 0
M  V30 12409 C 1159.01 -1.64064 -1.32839 0
M  V30 12410 O 1158.36 -0.950848 -2.07777 0
M  V30 12411 C 1158.57 -3.45946 0.460673 0
M  V30 12412 C 1159.92 -4.22789 0.391706 0
M  V30 12413 O 1160.94 -3.53993 0.395931 0
M  V30 12414 O 1159.8 -5.45332 0.357071 0
M  V30 12415 H 1156.89 -0.826793 0.0185103 0
M  V30 12416 H 1159.44 -1.50805 0.778192 0
M  V30 12417 H 1158.21 -3.61711 1.49269 0
M  V30 12418 H 1157.83 -3.97168 -0.185277 0
M  V30 12419 N 1158.83 -0.446794 -1.51134 0
M  V30 12420 C 1159.79 0.348311 -2.26538 0
M  V30 12421 C 1160.79 0.941566 -1.3035 0
M  V30 12422 O 1161.98 0.814537 -1.53984 0
M  V30 12423 C 1159.12 1.49371 -3.06433 0
M  V30 12424 H 1160.31 -0.312648 -2.98266 0
M  V30 12425 H 1157.86 -0.200201 -1.55013 0
M  V30 12426 H 1158.6 2.19045 -2.39144 0
M  V30 12427 H 1158.38 1.07439 -3.77093 0
M  V30 12428 H 1159.87 2.05522 -3.63525 0
M  V30 12429 N 1160.31 1.56586 -0.178487 0
M  V30 12430 C 1161.55 1.9739 0.465306 0
M  V30 12431 C 1161.89 1.06474 1.6241 0
M  V30 12432 O 1161.16 0.113316 1.9417 0
M  V30 12433 C 1161.45 3.47577 0.941408 0
M  V30 12434 C 1161.3 4.49271 -0.218054 0
M  V30 12435 C 1162.62 4.01038 1.81263 0
M  V30 12436 H 1159.74 0.717676 0.167663 0
M  V30 12437 H 1162.38 1.88128 -0.266067 0
M  V30 12438 H 1160.53 3.556 1.56463 0
M  V30 12439 H 1162.2 4.53301 -0.855332 0
M  V30 12440 H 1160.44 4.24936 -0.872441 0
M  V30 12441 H 1161.11 5.51776 0.157315 0
M  V30 12442 H 1163.59 3.9569 1.28718 0
M  V30 12443 H 1162.47 5.06526 2.11476 0
M  V30 12444 H 1162.73 3.45288 2.76096 0
M  V30 12445 N 1161.79 -0.095206 1.57312 0
M  V30 12446 C 1163.02 -0.811092 1.90013 0
M  V30 12447 C 1163.42 -1.72807 0.770359 0
M  V30 12448 O 1162.77 -1.81755 -0.266615 0
M  V30 12449 C 1162.83 -1.67744 3.17966 0
M  V30 12450 C 1162.49 -0.932301 4.47389 0
M  V30 12451 C 1163.49 -0.262161 5.19239 0
M  V30 12452 C 1161.18 -0.906414 4.94054 0
M  V30 12453 C 1163.17 0.423898 6.35989 0
M  V30 12454 C 1160.86 -0.216569 6.10716 0
M  V30 12455 C 1161.85 0.447408 6.81533 0
M  V30 12456 O 1161.54 1.12619 7.95972 0
M  V30 12457 H 1161.27 -0.237154 0.633035 0
M  V30 12458 H 1163.83 -0.0768976 2.05256 0
M  V30 12459 H 1162.06 -2.45387 2.98868 0
M  V30 12460 H 1163.75 -2.26988 3.36498 0
M  V30 12461 H 1164.51 -0.273621 4.84228 0
M  V30 12462 H 1160.39 -1.41267 4.38822 0
M  V30 12463 H 1163.94 0.942727 6.91201 0
M  V30 12464 H 1159.83 -0.202955 6.45181 0
M  V30 12465 H 1160.6 1.03308 8.11954 0
M  V30 12466 N 1163.26 -1.53291 -0.366026 0
M  V30 12467 C 1164.49 -1.73108 -1.1277 0
M  V30 12468 C 1164.9 -0.459662 -1.83531 0
M  V30 12469 O 1164.25 0.577151 -1.74398 0
M  V30 12470 C 1164.31 -2.84137 -2.20242 0
M  V30 12471 C 1163.97 -4.24503 -1.69252 0
M  V30 12472 C 1164.97 -5.06866 -1.15684 0
M  V30 12473 C 1162.65 -4.70912 -1.74778 0
M  V30 12474 C 1164.65 -6.33728 -0.683191 0
M  V30 12475 C 1162.33 -5.97752 -1.27025 0
M  V30 12476 C 1163.33 -6.78992 -0.738858 0
M  V30 12477 O 1163.02 -8.03452 -0.268375 0
M  V30 12478 H 1162.75 -0.582439 -0.343134 0
M  V30 12479 H 1165.31 -2.00828 -0.430969 0
M  V30 12480 H 1163.54 -2.5189 -2.93408 0
M  V30 12481 H 1165.23 -2.92136 -2.818 0
M  V30 12482 H 1165.99 -4.72185 -1.10753 0
M  V30 12483 H 1161.87 -4.07751 -2.15081 0
M  V30 12484 H 1165.41 -6.97086 -0.267746 0
M  V30 12485 H 1161.31 -6.31933 -1.31649 0
M  V30 12486 H 1162.08 -8.17581 -0.387745 0
M  V30 12487 N 1164.74 0.6258 -1.44643 0
M  V30 12488 C 1165.97 1.41028 -1.50979 0
M  V30 12489 C 1166.38 1.88717 -0.135092 0
M  V30 12490 O 1165.72 1.61778 0.870268 0
M  V30 12491 C 1165.79 2.66094 -2.41732 0
M  V30 12492 C 1165.45 2.40166 -3.88805 0
M  V30 12493 C 1166.45 2.01661 -4.79196 0
M  V30 12494 C 1164.13 2.53641 -4.33557 0
M  V30 12495 C 1166.13 1.76966 -6.12341 0
M  V30 12496 C 1163.81 2.2856 -5.66748 0
M  V30 12497 C 1164.81 1.90282 -6.55959 0
M  V30 12498 O 1164.5 1.65484 -7.86683 0
M  V30 12499 H 1164.23 0.438757 -0.514265 0
M  V30 12500 H 1166.78 0.772034 -1.90339 0
M  V30 12501 H 1165.01 3.32575 -1.97309 0
M  V30 12502 H 1166.7 3.28107 -2.38957 0
M  V30 12503 H 1167.47 1.90802 -4.45892 0
M  V30 12504 H 1163.35 2.82404 -3.64375 0
M  V30 12505 H 1166.89 1.47014 -6.81933 0
M  V30 12506 H 1162.79 2.3903 -5.99612 0
M  V30 12507 H 1163.56 1.79686 -7.98533 0
M  V30 12508 N 1166.22 1.31629 0.866686 0
M  V30 12509 C 1167.15 1.13886 1.9775 0
M  V30 12510 C 1168.13 0.0414887 1.62547 0
M  V30 12511 O 1169.32 0.198534 1.87452 0
M  V30 12512 C 1166.44 0.740858 3.30498 0
M  V30 12513 C 1165.49 1.84175 3.84684 0
M  V30 12514 S 1166.32 3.44781 4.09739 0
M  V30 12515 C 1167.48 3.06925 5.45479 0
M  V30 12516 H 1167.71 2.07923 2.12497 0
M  V30 12517 H 1165.24 1.16152 1.01725 0
M  V30 12518 H 1167.2 0.517974 4.07219 0
M  V30 12519 H 1165.86 -0.18045 3.13581 0
M  V30 12520 H 1165.06 1.51597 4.8066 0
M  V30 12521 H 1164.66 2.01986 3.14766 0
M  V30 12522 H 1166.95 2.56022 6.27263 0
M  V30 12523 H 1167.89 4.01877 5.8301 0
M  V30 12524 H 1168.3 2.44276 5.0891 0
M  V30 12525 N 1167.7 -1.08142 1.14644 0
M  V30 12526 C 1169.12 -1.32656 0.887388 0
M  V30 12527 C 1169.32 -1.95942 -0.470012 0
M  V30 12528 O 1168.37 -2.21417 -1.21371 0
M  V30 12529 C 1169.68 -2.22549 2.02219 0
M  V30 12530 C 1171.23 -2.36021 2.0558 0
M  V30 12531 C 1171.71 -3.29257 3.18361 0
M  V30 12532 N 1173.2 -3.36835 3.17957 0
M  V30 12533 C 1173.93 -4.09017 4.01862 0
M  V30 12534 N 1173.43 -4.83882 4.95812 0
M  V30 12535 N 1175.22 -4.04875 3.89913 0
M  V30 12536 H 1167.37 -0.654457 2.02066 0
M  V30 12537 H 1169.64 -0.350947 0.880648 0
M  V30 12538 H 1169.34 -1.83296 3.00159 0
M  V30 12539 H 1169.22 -3.23027 1.94765 0
M  V30 12540 H 1171.6 -2.74531 1.08245 0
M  V30 12541 H 1171.68 -1.35275 2.17105 0
M  V30 12542 H 1171.33 -2.91468 4.15944 0
M  V30 12543 H 1171.26 -4.29938 3.04074 0
M  V30 12544 H 1173.75 -2.83465 2.49912 0
M  V30 12545 H 1174.06 -5.3643 5.56294 0
M  V30 12546 H 1172.41 -4.82926 4.99808 0
M  V30 12547 H 1175.6 -3.45496 3.15833 0
M  V30 12548 H 1175.77 -4.60866 4.55529 0
M  V30 12549 N 1169.18 -0.941978 -1.26351 0
M  V30 12550 C 1170.4 -0.606231 -1.98342 0
M  V30 12551 C 1170.83 0.812014 -1.6967 0
M  V30 12552 O 1170.19 1.54712 -0.9452 0
M  V30 12553 C 1170.23 -0.855864 -3.50296 0
M  V30 12554 O 1169.34 0.0716251 -4.12338 0
M  V30 12555 H 1168.68 -0.231815 -0.62222 0
M  V30 12556 H 1171.21 -1.26513 -1.60797 0
M  V30 12557 H 1171.22 -0.777079 -4.00531 0
M  V30 12558 H 1169.89 -1.8896 -3.70496 0
M  V30 12559 H 1168.47 -0.0582866 -3.72854 0
M  V30 12560 N 1170.66 1.40747 -0.709091 0
M  V30 12561 C 1171.59 2.33404 -0.0669763 0
M  V30 12562 C 1172.57 1.52546 0.752582 0
M  V30 12563 O 1173.75 1.81036 0.702823 0
M  V30 12564 C 1170.88 3.36476 0.860285 0
M  V30 12565 C 1169.84 4.27748 0.146828 0
M  V30 12566 C 1169.16 5.21304 1.18937 0
M  V30 12567 C 1170.46 5.12734 -0.995064 0
M  V30 12568 H 1172.16 2.87349 -0.840888 0
M  V30 12569 H 1169.7 1.38163 -0.405817 0
M  V30 12570 H 1171.65 4.00231 1.31883 0
M  V30 12571 H 1170.38 2.80912 1.66602 0
M  V30 12572 H 1169.04 3.65437 -0.291826 0
M  V30 12573 H 1168.69 4.62048 1.98798 0
M  V30 12574 H 1168.39 5.8321 0.716917 0
M  V30 12575 H 1169.91 5.87936 1.64815 0
M  V30 12576 H 1171.32 5.69979 -0.61618 0
M  V30 12577 H 1169.72 5.83649 -1.39547 0
M  V30 12578 H 1170.79 4.49097 -1.82867 0
M  V30 12579 N 1172.13 0.454803 1.50895 0
M  V30 12580 C 1173.1 -0.336293 2.26719 0
M  V30 12581 C 1174.1 -0.93464 1.30848 0
M  V30 12582 O 1175.29 -0.80636 1.54413 0
M  V30 12583 C 1172.42 -1.47744 3.07221 0
M  V30 12584 H 1173.61 0.328462 2.98096 0
M  V30 12585 H 1171.16 0.208419 1.54904 0
M  V30 12586 H 1171.9 -2.17773 2.40302 0
M  V30 12587 H 1171.68 -1.05438 3.77658 0
M  V30 12588 H 1173.17 -2.03592 3.6461 0
M  V30 12589 N 1173.61 -1.56489 0.186789 0
M  V30 12590 C 1174.57 -2.17478 -0.723596 0
M  V30 12591 C 1175.57 -1.12698 -1.14699 0
M  V30 12592 O 1176.76 -1.38128 -1.06143 0
M  V30 12593 C 1173.9 -2.77015 -1.98685 0
M  V30 12594 H 1175.09 -2.99282 -0.192403 0
M  V30 12595 H 1172.64 -1.56174 -0.0628153 0
M  V30 12596 H 1173.38 -1.98987 -2.56076 0
M  V30 12597 H 1173.16 -3.53711 -1.69207 0
M  V30 12598 H 1174.65 -3.23872 -2.63622 0
M  V30 12599 N 1175.09 0.086862 -1.5736 0
M  V30 12600 C 1176.31 0.806017 -1.91097 0
M  V30 12601 C 1176.74 1.71082 -0.78183 0
M  V30 12602 O 1176.1 1.79335 0.266175 0
M  V30 12603 C 1176.15 1.5884 -3.23732 0
M  V30 12604 O 1175.25 2.69798 -3.11902 0
M  V30 12605 H 1174.59 0.220899 -0.626179 0
M  V30 12606 H 1177.12 0.059619 -2.04513 0
M  V30 12607 H 1177.13 1.97088 -3.5724 0
M  V30 12608 H 1175.81 0.924426 -4.05496 0
M  V30 12609 H 1174.38 2.34519 -2.89923 0
M  V30 12610 N 1176.57 1.53483 0.357892 0
M  V30 12611 C 1177.52 1.81143 1.45911 0
M  V30 12612 C 1178.51 0.681002 1.55109 0
M  V30 12613 O 1179.72 0.864086 1.57904 0
M  V30 12614 H 1176.09 0.573663 0.486225 0
M  V30 12615 H 1178.06 2.733 1.19789 0
M  V30 12616 C 1176.81 2.02509 2.8264 0
M  V30 12617 H 1176.13 2.88938 2.76324 0
M  V30 12618 H 1177.57 2.25837 3.58851 0
M  V30 12619 C 1176.03 0.806412 3.27106 0
M  V30 12620 O 1176.56 -0.00116809 4.017 0
M  V30 12621 N 1174.77 0.627677 2.8374 0
M  V30 12622 H 1174.32 1.28601 2.23203 0
M  V30 12623 H 1174.27 -0.186301 3.13848 0
M  V30 12624 N 1178.05 -0.61812 1.44973 0
M  V30 12625 C 1179.46 -1.19994 1.43033 0
M  V30 12626 C 1179.81 -1.95607 0.152422 0
M  V30 12627 O 1178.93 -2.03114 -0.746571 0
M  V30 12628 C 1179.53 -2.18269 2.59122 0
M  V30 12629 C 1178.09 -2.7185 2.60336 0
M  V30 12630 C 1177.23 -1.4707 2.35086 0
M  V30 12631 H 1180.18 -0.408034 1.53365 0
M  V30 12632 H 1180.21 -3.01113 2.32619 0
M  V30 12633 H 1179.72 -1.63208 3.52115 0
M  V30 12634 H 1177.82 -3.30878 1.7132 0
M  V30 12635 H 1177.93 -3.17001 3.59231 0
M  V30 12636 H 1176.3 -1.75658 1.84435 0
M  V30 12637 H 1177.08 -0.938928 3.30211 0
M  V30 12638 N 1179.52 -1.32087 -0.859693 0
M  V30 12639 C 1180.77 -1.21716 -1.60836 0
M  V30 12640 C 1181.09 0.220904 -1.94349 0
M  V30 12641 O 1182.29 0.446422 -2.67805 0
M  V30 12642 C 1180.75 -2.13143 -2.89997 0
M  V30 12643 C 1180.36 -3.62003 -2.63928 0
M  V30 12644 C 1182.1 -2.11596 -3.68004 0
M  V30 12645 C 1180.01 -4.45407 -3.89059 0
M  V30 12646 H 1178.94 -0.45199 -0.603507 0
M  V30 12647 H 1181.59 -1.57013 -0.949687 0
M  V30 12648 H 1179.97 -1.70755 -3.57294 0
M  V30 12649 H 1181.14 -4.12701 -2.04974 0
M  V30 12650 H 1179.46 -3.6563 -1.99258 0
M  V30 12651 H 1182.06 -2.71149 -4.6085 0
M  V30 12652 H 1182.4 -1.10568 -4.01348 0
M  V30 12653 H 1182.93 -2.52238 -3.07605 0
M  V30 12654 H 1179.67 -5.4723 -3.60859 0
M  V30 12655 H 1179.19 -3.99462 -4.47427 0
M  V30 12656 H 1180.87 -4.58149 -4.56846 0
M  V30 12657 N 1181 1.07532 -1.15215 0
M  V30 12658 C 1181.93 2.1668 -0.870171 0
M  V30 12659 C 1182.91 1.69161 0.178483 0
M  V30 12660 O 1184.1 1.94172 0.0332489 0
M  V30 12661 C 1181.23 3.45464 -0.356666 0
M  V30 12662 C 1180.18 4.06424 -1.34179 0
M  V30 12663 C 1179.51 5.30266 -0.687206 0
M  V30 12664 C 1180.81 4.46666 -2.70715 0
M  V30 12665 H 1182.5 2.40526 -1.7829 0
M  V30 12666 H 1180.05 1.15598 -0.858665 0
M  V30 12667 H 1182 4.21144 -0.146947 0
M  V30 12668 H 1180.72 3.21199 0.591527 0
M  V30 12669 H 1179.38 3.32786 -1.53783 0
M  V30 12670 H 1179.03 5.0229 0.267077 0
M  V30 12671 H 1178.73 5.72009 -1.34462 0
M  V30 12672 H 1180.26 6.08653 -0.487218 0
M  V30 12673 H 1181.67 5.13483 -2.54966 0
M  V30 12674 H 1180.07 4.99355 -3.32813 0
M  V30 12675 H 1181.14 3.58123 -3.26919 0
M  V30 12676 N 1182.48 0.948665 1.2585 0
M  V30 12677 C 1183.71 0.617229 1.97479 0
M  V30 12678 C 1184.12 -0.809406 1.7057 0
M  V30 12679 O 1183.48 -1.54066 0.97826 0
M  V30 12680 C 1183.53 0.859065 3.51144 0
M  V30 12681 O 1183.25 2.2296 3.77121 0
M  V30 12682 C 1184.75 0.539197 4.40009 0
M  V30 12683 H 1181.97 0.231933 0.629641 0
M  V30 12684 H 1184.52 1.27141 1.60173 0
M  V30 12685 H 1182.67 0.25138 3.86584 0
M  V30 12686 H 1183.09 2.29524 4.71613 0
M  V30 12687 H 1184.56 0.758986 5.46757 0
M  V30 12688 H 1185.04 -0.526062 4.36038 0
M  V30 12689 H 1185.64 1.12594 4.10125 0
M  V30 12690 N 1183.96 -1.40369 0.716545 0
M  V30 12691 C 1184.92 -2.29083 0.0733105 0
M  V30 12692 C 1185.92 -1.45415 -0.686378 0
M  V30 12693 O 1187.11 -1.66316 -0.518139 0
M  V30 12694 C 1184.24 -3.28639 -0.906032 0
M  V30 12695 H 1185.44 -2.87464 0.85467 0
M  V30 12696 H 1182.99 -1.48706 0.481256 0
M  V30 12697 H 1183.72 -2.75279 -1.71441 0
M  V30 12698 H 1183.51 -3.90405 -0.364163 0
M  V30 12699 H 1185 -3.95066 -1.35324 0
M  V30 12700 N 1185.44 -0.462799 -1.50652 0
M  V30 12701 C 1186.38 0.335664 -2.28346 0
M  V30 12702 C 1187.35 0.994541 -1.33034 0
M  V30 12703 O 1188.54 1.00857 -1.61964 0
M  V30 12704 C 1185.68 1.41648 -3.1469 0
M  V30 12705 C 1184.79 0.773207 -4.25024 0
M  V30 12706 C 1183.93 1.83121 -4.98638 0
M  V30 12707 C 1182.97 1.16774 -6.00858 0
M  V30 12708 N 1182.1 2.16823 -6.67782 0
M  V30 12709 H 1186.94 -0.333202 -2.96131 0
M  V30 12710 H 1184.48 -0.176166 -1.46041 0
M  V30 12711 H 1186.44 2.05468 -3.63096 0
M  V30 12712 H 1185.07 2.05462 -2.48968 0
M  V30 12713 H 1184.12 0.0226444 -3.80393 0
M  V30 12714 H 1185.43 0.249061 -4.98178 0
M  V30 12715 H 1184.59 2.54543 -5.5072 0
M  V30 12716 H 1183.32 2.38915 -4.25172 0
M  V30 12717 H 1182.33 0.439112 -5.48044 0
M  V30 12718 H 1183.55 0.616809 -6.76293 0
M  V30 12719 H 1181.5 2.71649 -5.97112 0
M  V30 12720 H 1181.42 1.69371 -7.36783 0
M  V30 12721 H 1182.69 2.8765 -7.24484 0
M  V30 12722 N 1186.91 1.56388 -0.195085 0
M  V30 12723 C 1187.82 2.22698 0.737743 0
M  V30 12724 C 1188.84 1.22605 1.23466 0
M  V30 12725 O 1190.02 1.55342 1.28183 0
M  V30 12726 C 1187.08 2.87333 1.94011 0
M  V30 12727 C 1186.14 4.02696 1.48776 0
M  V30 12728 C 1185.38 4.64239 2.63282 0
M  V30 12729 O 1185.6 4.24706 3.80763 0
M  V30 12730 O 1184.53 5.53705 2.35996 0
M  V30 12731 H 1188.36 3.03021 0.203013 0
M  V30 12732 H 1185.94 1.49361 0.0342044 0
M  V30 12733 H 1187.83 3.28226 2.64284 0
M  V30 12734 H 1186.5 2.0999 2.46345 0
M  V30 12735 H 1185.41 3.66426 0.753839 0
M  V30 12736 H 1186.74 4.81703 1.01109 0
M  V30 12737 N 1188.39 -0.0785156 1.57404 0
M  V30 12738 C 1189.62 -0.795871 1.91522 0
M  V30 12739 C 1190.04 -1.70665 0.790892 0
M  V30 12740 O 1189.4 -1.79474 -0.25666 0
M  V30 12741 C 1189.45 -1.57121 3.24569 0
M  V30 12742 O 1188.55 -2.6814 3.13328 0
M  V30 12743 H 1187.89 -0.217575 0.627341 0
M  V30 12744 H 1190.42 -0.0487724 2.04542 0
M  V30 12745 H 1190.43 -1.9519 3.5828 0
M  V30 12746 H 1189.11 -0.902909 4.05981 0
M  V30 12747 H 1187.69 -2.32978 2.91163 0
M  V30 12748 N 1189.87 -1.5367 -0.349747 0
M  V30 12749 C 1190.8 -1.84208 -1.43492 0
M  V30 12750 C 1191.78 -0.696725 -1.55177 0
M  V30 12751 O 1192.97 -0.948061 -1.69486 0
M  V30 12752 C 1190.1 -2.04613 -2.80625 0
M  V30 12753 C 1189.05 -3.20419 -2.83753 0
M  V30 12754 C 1188.38 -3.26147 -4.23713 0
M  V30 12755 C 1189.68 -4.58666 -2.49846 0
M  V30 12756 H 1191.37 -2.75087 -1.18185 0
M  V30 12757 H 1188.92 -1.32363 -0.567101 0
M  V30 12758 H 1190.87 -2.2456 -3.56582 0
M  V30 12759 H 1189.59 -1.10459 -3.07354 0
M  V30 12760 H 1188.25 -3.00318 -2.10249 0
M  V30 12761 H 1187.9 -2.29599 -4.47541 0
M  V30 12762 H 1187.6 -4.03963 -4.26717 0
M  V30 12763 H 1189.12 -3.48296 -5.0152 0
M  V30 12764 H 1190.54 -4.78668 -3.15516 0
M  V30 12765 H 1188.94 -5.3884 -2.64144 0
M  V30 12766 H 1190.01 -4.62697 -1.4505 0
M  V30 12767 N 1191.35 0.610423 -1.45298 0
M  V30 12768 C 1192.28 1.73493 -1.48241 0
M  V30 12769 C 1193.26 1.59025 -0.339065 0
M  V30 12770 O 1194.44 1.80625 -0.539144 0
M  V30 12771 C 1191.57 3.11291 -1.33476 0
M  V30 12772 C 1190.62 3.44355 -2.51638 0
M  V30 12773 S 1191.45 3.39512 -4.14116 0
M  V30 12774 C 1192.61 4.79895 -4.01811 0
M  V30 12775 H 1192.84 1.70734 -2.43387 0
M  V30 12776 H 1190.37 0.786833 -1.32847 0
M  V30 12777 H 1192.33 3.90799 -1.25644 0
M  V30 12778 H 1190.99 3.11568 -0.39805 0
M  V30 12779 H 1190.18 4.44679 -2.37226 0
M  V30 12780 H 1189.79 2.72356 -2.56317 0
M  V30 12781 H 1192.08 5.6963 -3.6678 0
M  V30 12782 H 1193.02 4.99363 -5.02038 0
M  V30 12783 H 1193.43 4.55443 -3.33515 0
M  V30 12784 N 1192.83 1.32541 0.852676 0
M  V30 12785 C 1194.05 1.2636 1.64462 0
M  V30 12786 C 1194.48 -0.16508 1.87374 0
M  V30 12787 O 1193.83 -1.11712 1.42794 0
M  V30 12788 C 1193.88 2.03052 2.97997 0
M  V30 12789 O 1192.99 1.37967 3.88637 0
M  V30 12790 H 1192.33 0.435393 0.501327 0
M  V30 12791 H 1194.86 1.74888 1.06186 0
M  V30 12792 H 1194.87 2.133 3.47803 0
M  V30 12793 H 1193.54 3.06941 2.80642 0
M  V30 12794 H 1192.12 1.36279 3.47106 0
M  V30 12795 N 1194.3 -1.0692 1.15784 0
M  V30 12796 C 1195.23 -2.16216 0.881649 0
M  V30 12797 C 1196.22 -1.69253 -0.16951 0
M  V30 12798 O 1197.4 -1.94186 -0.0229511 0
M  V30 12799 C 1194.53 -3.4527 0.374982 0
M  V30 12800 C 1193.48 -4.05706 1.36332 0
M  V30 12801 C 1192.81 -5.29894 0.715317 0
M  V30 12802 C 1194.11 -4.45224 2.7308 0
M  V30 12803 H 1195.8 -2.39577 1.79563 0
M  V30 12804 H 1193.35 -1.15141 0.864784 0
M  V30 12805 H 1195.3 -4.2106 0.169279 0
M  V30 12806 H 1194.03 -3.21508 -0.574485 0
M  V30 12807 H 1192.69 -3.31965 1.55546 0
M  V30 12808 H 1192.33 -5.02425 -0.240436 0
M  V30 12809 H 1192.03 -5.71287 1.37494 0
M  V30 12810 H 1193.56 -6.08386 0.519489 0
M  V30 12811 H 1194.97 -5.12124 2.57686 0
M  V30 12812 H 1193.37 -4.97583 3.35457 0
M  V30 12813 H 1194.44 -3.56384 3.28813 0
M  V30 12814 N 1195.78 -0.955326 -1.25345 0
M  V30 12815 C 1197.03 -0.610484 -1.93079 0
M  V30 12816 C 1197.36 0.852591 -1.74817 0
M  V30 12817 O 1196.61 1.6272 -1.08723 0
M  V30 12818 C 1196.91 -0.916173 -3.45458 0
M  V30 12819 C 1196.58 -2.36539 -3.83875 0
M  V30 12820 C 1195.24 -2.76152 -3.94073 0
M  V30 12821 C 1197.59 -3.30652 -4.02888 0
M  V30 12822 C 1194.92 -4.08944 -4.20692 0
M  V30 12823 C 1197.27 -4.63057 -4.31 0
M  V30 12824 C 1195.94 -5.02464 -4.39415 0
M  V30 12825 H 1195.21 -0.223392 -0.706525 0
M  V30 12826 H 1197.85 -1.20449 -1.48877 0
M  V30 12827 H 1196.16 -0.23978 -3.91066 0
M  V30 12828 H 1197.85 -0.627929 -3.96053 0
M  V30 12829 H 1194.44 -2.04819 -3.76493 0
M  V30 12830 H 1198.63 -3.01237 -3.94423 0
M  V30 12831 H 1193.88 -4.39118 -4.25423 0
M  V30 12832 H 1198.06 -5.3596 -4.44657 0
M  V30 12833 H 1195.69 -6.05386 -4.59795 0
M  V30 12834 N 1197.26 1.39987 -0.723979 0
M  V30 12835 C 1198.17 2.3447 -0.0780936 0
M  V30 12836 C 1199.19 1.57744 0.734368 0
M  V30 12837 O 1200.36 1.90091 0.665385 0
M  V30 12838 C 1197.43 3.36705 0.826492 0
M  V30 12839 C 1196.49 4.293 0.00303036 0
M  V30 12840 C 1195.72 5.26651 0.864535 0
M  V30 12841 O 1195.95 5.30194 2.10357 0
M  V30 12842 O 1194.88 6.01157 0.299057 0
M  V30 12843 H 1198.71 2.91338 -0.857646 0
M  V30 12844 H 1196.29 1.41324 -0.484536 0
M  V30 12845 H 1198.17 3.9938 1.34439 0
M  V30 12846 H 1196.85 2.82237 1.58505 0
M  V30 12847 H 1195.75 3.69883 -0.560136 0
M  V30 12848 H 1197.09 4.86942 -0.717494 0
M  V30 12849 N 1198.74 0.470782 1.50404 0
M  V30 12850 C 1199.65 -0.328877 2.32283 0
M  V30 12851 C 1200.67 -0.99629 1.42654 0
M  V30 12852 O 1201.84 -0.984331 1.75707 0
M  V30 12853 C 1198.91 -1.39675 3.1732 0
M  V30 12854 C 1197.97 -0.745965 4.22769 0
M  V30 12855 C 1197.2 -1.76295 5.03742 0
M  V30 12856 O 1197.42 -2.98943 4.85788 0
M  V30 12857 O 1196.36 -1.33495 5.86909 0
M  V30 12858 H 1200.18 0.340491 3.01785 0
M  V30 12859 H 1197.77 0.232637 1.47578 0
M  V30 12860 H 1199.65 -2.0153 3.70086 0
M  V30 12861 H 1198.33 -2.04959 2.50546 0
M  V30 12862 H 1197.23 -0.0884647 3.73995 0
M  V30 12863 H 1198.57 -0.136074 4.92012 0
M  V30 12864 N 1200.22 -1.56282 0.203376 0
M  V30 12865 C 1201.45 -2.02198 -0.438572 0
M  V30 12866 C 1201.86 -1.08343 -1.54619 0
M  V30 12867 O 1201.22 -0.0897594 -1.82279 0
M  V30 12868 C 1201.27 -3.4776 -0.987184 0
M  V30 12869 O 1200.99 -4.38034 0.0762552 0
M  V30 12870 C 1202.49 -4.09234 -1.70419 0
M  V30 12871 H 1199.71 -0.662041 -0.109282 0
M  V30 12872 H 1202.25 -2.02067 0.314509 0
M  V30 12873 H 1200.41 -3.48564 -1.69061 0
M  V30 12874 H 1200.82 -5.2344 -0.333322 0
M  V30 12875 H 1202.3 -5.1291 -2.04027 0
M  V30 12876 H 1202.77 -3.53172 -2.61087 0
M  V30 12877 H 1203.38 -4.12226 -1.04641 0
M  V30 12878 N 1201.7 0.070167 -1.57444 0
M  V30 12879 C 1202.64 1.08322 -2.03801 0
M  V30 12880 C 1203.61 1.38364 -0.918946 0
M  V30 12881 O 1204.8 1.49404 -1.18672 0
M  V30 12882 C 1201.94 2.39128 -2.48821 0
M  V30 12883 C 1201.05 2.15603 -3.74352 0
M  V30 12884 C 1200.19 3.39984 -4.08148 0
M  V30 12885 C 1199.22 3.1183 -5.26715 0
M  V30 12886 N 1198.36 4.28546 -5.56141 0
M  V30 12887 H 1203.2 0.680931 -2.90116 0
M  V30 12888 H 1200.74 0.324657 -1.43473 0
M  V30 12889 H 1202.7 3.15501 -2.72975 0
M  V30 12890 H 1201.33 2.77157 -1.65481 0
M  V30 12891 H 1200.38 1.29915 -3.57528 0
M  V30 12892 H 1201.69 1.90808 -4.60862 0
M  V30 12893 H 1200.84 4.2475 -4.33211 0
M  V30 12894 H 1199.58 3.67856 -3.20208 0
M  V30 12895 H 1198.59 2.2546 -5.01446 0
M  V30 12896 H 1199.81 2.85278 -6.16273 0
M  V30 12897 H 1197.76 4.56447 -4.71161 0
M  V30 12898 H 1197.68 4.0703 -6.37073 0
M  V30 12899 H 1198.94 5.14305 -5.85757 0
M  V30 12900 N 1203.17 1.53854 0.341593 0
M  V30 12901 C 1204.59 1.44161 0.684821 0
M  V30 12902 C 1204.79 0.599929 1.92362 0
M  V30 12903 O 1203.85 0.0916771 2.52334 0
M  V30 12904 C 1205.16 2.87668 0.875637 0
M  V30 12905 C 1206.71 2.97455 0.974131 0
M  V30 12906 C 1207.18 4.42075 1.19725 0
M  V30 12907 N 1208.67 4.45609 1.2644 0
M  V30 12908 C 1209.41 5.54643 1.45459 0
M  V30 12909 N 1208.9 6.7368 1.61637 0
M  V30 12910 N 1210.7 5.4226 1.48022 0
M  V30 12911 H 1202.85 2.07069 -0.472883 0
M  V30 12912 H 1205.11 0.936114 -0.149648 0
M  V30 12913 H 1204.82 3.51681 0.0368595 0
M  V30 12914 H 1204.69 3.32731 1.7768 0
M  V30 12915 H 1207.08 2.33582 1.80343 0
M  V30 12916 H 1207.16 2.55751 0.0498282 0
M  V30 12917 H 1206.8 5.06529 0.372872 0
M  V30 12918 H 1206.73 4.81372 2.13515 0
M  V30 12919 H 1209.22 3.59831 1.15455 0
M  V30 12920 H 1209.54 7.52541 1.7579 0
M  V30 12921 H 1207.88 6.76622 1.5877 0
M  V30 12922 H 1211.07 4.48221 1.34966 0
M  V30 12923 H 1211.25 6.27293 1.62502 0
M  V30 12924 N 1204.65 -0.602709 1.4562 0
M  V30 12925 C 1205.6 -1.71312 1.54664 0
M  V30 12926 C 1206.57 -1.61403 0.392197 0
M  V30 12927 O 1207.75 -1.80911 0.606297 0
M  V30 12928 C 1204.89 -3.09629 1.52393 0
M  V30 12929 C 1204.01 -3.30308 2.78425 0
M  V30 12930 C 1203.14 -4.5876 2.67793 0
M  V30 12931 C 1202.18 -4.72713 3.88855 0
M  V30 12932 N 1201.32 -5.92469 3.76729 0
M  V30 12933 H 1206.16 -1.62918 2.49523 0
M  V30 12934 H 1203.69 -0.794324 1.2381 0
M  V30 12935 H 1205.65 -3.89661 1.49064 0
M  V30 12936 H 1204.28 -3.16968 0.610816 0
M  V30 12937 H 1203.33 -2.44018 2.9182 0
M  V30 12938 H 1204.65 -3.36491 3.68205 0
M  V30 12939 H 1203.8 -5.46993 2.62457 0
M  V30 12940 H 1202.54 -4.54983 1.75619 0
M  V30 12941 H 1201.54 -3.82903 3.94545 0
M  V30 12942 H 1202.77 -4.78284 4.82101 0
M  V30 12943 H 1200.72 -5.89728 2.87328 0
M  V30 12944 H 1200.63 -5.99833 4.60148 0
M  V30 12945 H 1201.9 -6.83187 3.75334 0
M  V30 12946 N 1206.13 -1.32992 -0.845635 0
M  V30 12947 C 1207.09 -1.22607 -1.9365 0
M  V30 12948 C 1208.09 -0.146812 -1.60128 0
M  V30 12949 O 1209.28 -0.397863 -1.69596 0
M  V30 12950 C 1206.41 -0.887677 -3.2914 0
M  V30 12951 H 1207.61 -2.19563 -2.04285 0
M  V30 12952 H 1205.16 -1.16952 -1.03691 0
M  V30 12953 H 1205.9 0.0796777 -3.24202 0
M  V30 12954 H 1205.68 -1.66808 -3.54849 0
M  V30 12955 H 1207.17 -0.83958 -4.09073 0
M  V30 12956 N 1207.61 1.06304 -1.1635 0
M  V30 12957 C 1208.52 2.17296 -0.884289 0
M  V30 12958 C 1209.53 1.73408 0.143414 0
M  V30 12959 O 1210.71 2.01373 -0.0331987 0
M  V30 12960 C 1207.77 3.44509 -0.389163 0
M  V30 12961 C 1206.84 4.02906 -1.48208 0
M  V30 12962 C 1206.07 5.24047 -1.01048 0
M  V30 12963 O 1206.29 5.70229 0.139821 0
M  V30 12964 O 1205.23 5.74394 -1.79876 0
M  V30 12965 H 1209.05 2.4369 -1.81243 0
M  V30 12966 H 1206.64 1.15841 -0.943459 0
M  V30 12967 H 1208.52 4.21229 -0.120018 0
M  V30 12968 H 1207.19 3.19642 0.510968 0
M  V30 12969 H 1206.1 3.27677 -1.80496 0
M  V30 12970 H 1207.43 4.32068 -2.35751 0
M  V30 12971 N 1209.09 0.96196 1.24836 0
M  V30 12972 C 1210.02 0.445329 2.24832 0
M  V30 12973 C 1211.03 -0.442797 1.56663 0
M  V30 12974 O 1212.22 -0.249896 1.76742 0
M  V30 12975 C 1209.32 -0.376953 3.36797 0
M  V30 12976 C 1208.49 0.499908 4.34534 0
M  V30 12977 C 1207.55 -0.265402 5.2553 0
M  V30 12978 O 1206.58 0.338707 5.68191 0
M  V30 12979 N 1207.78 -1.55654 5.59243 0
M  V30 12980 H 1210.54 1.30505 2.69793 0
M  V30 12981 H 1208.11 0.833137 1.38818 0
M  V30 12982 H 1210.1 -0.896831 3.94638 0
M  V30 12983 H 1208.67 -1.13757 2.91167 0
M  V30 12984 H 1207.89 1.20082 3.75465 0
M  V30 12985 H 1209.18 1.09814 4.96808 0
M  V30 12986 H 1208.57 -2.06916 5.265 0
M  V30 12987 H 1207.13 -2.02223 6.19636 0
M  V30 12988 N 1210.56 -1.39601 0.731392 0
M  V30 12989 C 1211.5 -2.28169 0.0378735 0
M  V30 12990 C 1212.47 -1.44195 -0.751434 0
M  V30 12991 O 1213.66 -1.7359 -0.734753 0
M  V30 12992 C 1210.79 -3.24999 -0.953589 0
M  V30 12993 C 1209.83 -4.25748 -0.253203 0
M  V30 12994 S 1210.66 -5.25496 1.03025 0
M  V30 12995 C 1211.82 -6.25886 0.0412927 0
M  V30 12996 H 1212.05 -2.8664 0.788973 0
M  V30 12997 H 1209.59 -1.45271 0.523044 0
M  V30 12998 H 1211.54 -3.81308 -1.52035 0
M  V30 12999 H 1210.21 -2.65554 -1.6775 0
M  V30 13000 H 1209.4 -4.93913 -1.00328 0
M  V30 13001 H 1209 -3.7322 0.241426 0
M  V30 13002 H 1211.29 -6.72757 -0.800305 0
M  V30 13003 H 1212.24 -7.0473 0.68999 0
M  V30 13004 H 1212.64 -5.63538 -0.329495 0
M  V30 13005 N 1212.04 -0.478751 -1.50152 0
M  V30 13006 C 1212.95 0.316554 -2.32455 0
M  V30 13007 C 1213.97 0.98871 -1.4318 0
M  V30 13008 O 1215.14 0.974998 -1.76226 0
M  V30 13009 C 1212.21 1.3799 -3.18056 0
M  V30 13010 C 1211.27 0.723534 -4.23159 0
M  V30 13011 C 1210.5 1.73621 -5.0467 0
M  V30 13012 O 1210.73 2.96362 -4.87366 0
M  V30 13013 O 1209.66 1.30381 -5.87609 0
M  V30 13014 H 1213.49 -0.356491 -3.016 0
M  V30 13015 H 1211.07 -0.24046 -1.47452 0
M  V30 13016 H 1212.95 1.99565 -3.71149 0
M  V30 13017 H 1211.63 2.03627 -2.5163 0
M  V30 13018 H 1210.54 0.0686296 -3.74037 0
M  V30 13019 H 1211.87 0.109979 -4.92077 0
M  V30 13020 N 1213.52 1.56172 -0.211661 0
M  V30 13021 C 1214.47 2.19849 0.702515 0
M  V30 13022 C 1215.44 1.15091 1.19763 0
M  V30 13023 O 1216.62 1.43408 1.25852 0
M  V30 13024 C 1213.76 2.87468 1.90935 0
M  V30 13025 C 1212.88 4.06794 1.45406 0
M  V30 13026 C 1212.01 4.62224 2.61769 0
M  V30 13027 C 1211.05 5.73872 2.12926 0
M  V30 13028 N 1210.19 6.23635 3.22526 0
M  V30 13029 H 1215.03 2.97608 0.152777 0
M  V30 13030 H 1212.56 1.46962 0.0636596 0
M  V30 13031 H 1214.52 3.24851 2.61777 0
M  V30 13032 H 1213.15 2.12244 2.43213 0
M  V30 13033 H 1212.2 3.74962 0.640907 0
M  V30 13034 H 1213.52 4.87497 1.05584 0
M  V30 13035 H 1212.67 5.01999 3.40709 0
M  V30 13036 H 1211.41 3.80662 3.04873 0
M  V30 13037 H 1210.41 5.33609 1.32445 0
M  V30 13038 H 1211.64 6.57262 1.70833 0
M  V30 13039 H 1209.58 5.44991 3.65131 0
M  V30 13040 H 1209.5 6.99435 2.86926 0
M  V30 13041 H 1210.77 6.68066 4.01631 0
M  V30 13042 N 1215 -0.0618163 1.57479 0
M  V30 13043 C 1215.95 -1.0724 2.04373 0
M  V30 13044 C 1216.92 -1.37875 0.926271 0
M  V30 13045 O 1218.1 -1.48772 1.19463 0
M  V30 13046 C 1215.24 -2.37805 2.50085 0
M  V30 13047 C 1214.35 -2.13614 3.7549 0
M  V30 13048 C 1213.49 -3.37814 4.09945 0
M  V30 13049 C 1212.53 -3.09032 5.28361 0
M  V30 13050 N 1211.66 -4.25591 5.58406 0
M  V30 13051 H 1216.5 -0.665536 2.90473 0
M  V30 13052 H 1214.04 -0.317043 1.43643 0
M  V30 13053 H 1216 -3.14048 2.74644 0
M  V30 13054 H 1214.63 -2.76275 1.66948 0
M  V30 13055 H 1213.68 -1.28017 3.58212 0
M  V30 13056 H 1214.99 -1.88361 4.61867 0
M  V30 13057 H 1214.15 -4.22447 4.35458 0
M  V30 13058 H 1212.89 -3.66153 3.22154 0
M  V30 13059 H 1211.89 -2.22797 5.02635 0
M  V30 13060 H 1213.12 -2.82006 6.17778 0
M  V30 13061 H 1211.06 -4.53941 4.73575 0
M  V30 13062 H 1210.98 -4.03646 6.39223 0
M  V30 13063 H 1212.25 -5.11191 5.88476 0
M  V30 13064 N 1216.48 -1.54033 -0.333429 0
M  V30 13065 C 1217.41 -1.79056 -1.43079 0
M  V30 13066 C 1218.42 -0.672176 -1.48276 0
M  V30 13067 O 1219.61 -0.949103 -1.51176 0
M  V30 13068 C 1216.71 -1.88443 -2.81678 0
M  V30 13069 C 1215.88 -3.18493 -2.99802 0
M  V30 13070 C 1214.94 -3.18708 -4.18702 0
M  V30 13071 O 1213.97 -3.92389 -4.12334 0
M  V30 13072 N 1215.17 -2.41792 -5.27747 0
M  V30 13073 H 1217.94 -2.73753 -1.21981 0
M  V30 13074 H 1215.5 -1.53207 -0.523365 0
M  V30 13075 H 1217.49 -1.86027 -3.59411 0
M  V30 13076 H 1216.06 -1.00887 -2.95872 0
M  V30 13077 H 1215.28 -3.33951 -2.09453 0
M  V30 13078 H 1216.57 -4.04376 -3.088 0
M  V30 13079 H 1215.96 -1.81501 -5.35793 0
M  V30 13080 H 1214.52 -2.45163 -6.03936 0
M  V30 13081 N 1217.95 0.594978 -1.45938 0
M  V30 13082 C 1218.9 1.69949 -1.51991 0
M  V30 13083 C 1219.89 1.56301 -0.381956 0
M  V30 13084 O 1221.08 1.65423 -0.62961 0
M  V30 13085 C 1218.21 3.08723 -1.5015 0
M  V30 13086 C 1217.3 3.27712 -2.69194 0
M  V30 13087 N 1217.69 3.1691 -3.9421 0
M  V30 13088 C 1215.98 3.58618 -2.65158 0
M  V30 13089 C 1216.69 3.37572 -4.7373 0
M  V30 13090 N 1215.66 3.62154 -4.05395 0
M  V30 13091 H 1219.46 1.60109 -2.46459 0
M  V30 13092 H 1216.98 0.798634 -1.41406 0
M  V30 13093 H 1218.97 3.87978 -1.52573 0
M  V30 13094 H 1217.63 3.19702 -0.567488 0
M  V30 13095 H 1218.65 2.95039 -4.25643 0
M  V30 13096 H 1215.32 3.76358 -1.80724 0
M  V30 13097 H 1216.71 3.34507 -5.82713 0
M  V30 13098 N 1219.43 1.33438 0.838571 0
M  V30 13099 C 1220.34 1.25753 1.98049 0
M  V30 13100 C 1221.36 0.168051 1.73187 0
M  V30 13101 O 1222.53 0.391691 1.97554 0
M  V30 13102 C 1219.6 0.997148 3.32051 0
M  V30 13103 C 1218.66 2.17667 3.70027 0
M  V30 13104 C 1217.89 1.92861 4.97635 0
M  V30 13105 O 1218.12 0.879072 5.63585 0
M  V30 13106 O 1217.05 2.79402 5.33121 0
M  V30 13107 H 1220.88 2.21786 2.07472 0
M  V30 13108 H 1218.46 1.13488 0.971645 0
M  V30 13109 H 1220.34 0.869099 4.1234 0
M  V30 13110 H 1219.02 0.0671036 3.2363 0
M  V30 13111 H 1217.93 2.36025 2.90246 0
M  V30 13112 H 1219.26 3.09006 3.83114 0
M  V30 13113 N 1220.91 -1.05686 1.16912 0
M  V30 13114 C 1221.82 -2.16824 0.8958 0
M  V30 13115 C 1222.84 -1.73482 -0.134215 0
M  V30 13116 O 1224.01 -2.01352 0.0438776 0
M  V30 13117 C 1221.08 -3.44298 0.407427 0
M  V30 13118 C 1220.14 -4.02114 1.50342 0
M  V30 13119 C 1219.37 -5.23503 1.03826 0
M  V30 13120 O 1219.59 -5.70295 -0.109579 0
M  V30 13121 O 1218.53 -5.73432 1.8292 0
M  V30 13122 H 1222.35 -2.42725 1.82533 0
M  V30 13123 H 1219.94 -1.15339 0.949589 0
M  V30 13124 H 1221.82 -4.21159 0.142356 0
M  V30 13125 H 1220.5 -3.19908 -0.494009 0
M  V30 13126 H 1219.4 -3.26715 1.82231 0
M  V30 13127 H 1220.74 -4.30811 2.38039 0
M  V30 13128 N 1222.39 -0.968567 -1.24324 0
M  V30 13129 C 1223.64 -0.630928 -1.9242 0
M  V30 13130 C 1223.96 0.834001 -1.75712 0
M  V30 13131 O 1223.22 1.61558 -1.10442 0
M  V30 13132 C 1223.52 -0.952762 -3.44467 0
M  V30 13133 C 1223.18 -2.40597 -3.81345 0
M  V30 13134 C 1221.85 -2.80316 -3.91122 0
M  V30 13135 C 1224.2 -3.34906 -3.99359 0
M  V30 13136 C 1221.53 -4.13383 -4.16331 0
M  V30 13137 C 1223.88 -4.67602 -4.26065 0
M  V30 13138 C 1222.54 -5.07097 -4.34061 0
M  V30 13139 H 1221.81 -0.230873 -0.704116 0
M  V30 13140 H 1224.46 -1.22022 -1.47591 0
M  V30 13141 H 1222.76 -0.281244 -3.90789 0
M  V30 13142 H 1224.46 -0.6699 -3.95365 0
M  V30 13143 H 1221.05 -2.088 -3.743 0
M  V30 13144 H 1225.23 -3.05404 -3.91206 0
M  V30 13145 H 1220.49 -4.43606 -4.20742 0
M  V30 13146 H 1224.66 -5.40646 -4.38948 0
M  V30 13147 H 1222.29 -6.10229 -4.53349 0
M  V30 13148 N 1223.87 1.39211 -0.738786 0
M  V30 13149 C 1225.14 1.9442 -0.214533 0
M  V30 13150 C 1225.52 1.67528 1.28443 0
M  V30 13151 O 1224.87 1.0056 2.05183 0
M  V30 13152 C 1225.08 3.44603 -0.552232 0
M  V30 13153 C 1226.43 4.21602 -0.503663 0
M  V30 13154 O 1227.45 3.52819 -0.489647 0
M  V30 13155 O 1226.31 5.44194 -0.50153 0
M  V30 13156 H 1223.41 0.826011 -0.0404247 0
M  V30 13157 H 1225.95 1.48689 -0.817902 0
M  V30 13158 H 1224.72 3.57626 -1.58806 0
M  V30 13159 H 1224.35 3.9752 0.0799096 0
M  V30 13160 N 1225.34 0.486708 1.49896 0
M  V30 13161 C 1226.27 -0.288898 2.31706 0
M  V30 13162 C 1227.26 -0.975901 1.3932 0
M  V30 13163 O 1228.44 -0.970065 1.68236 0
M  V30 13164 C 1225.57 -1.36218 3.19471 0
M  V30 13165 C 1224.52 -0.795884 4.20535 0
M  V30 13166 C 1223.85 -1.96862 4.97141 0
M  V30 13167 C 1225.15 0.203421 5.21904 0
M  V30 13168 H 1226.84 0.393934 2.96797 0
M  V30 13169 H 1224.39 0.190894 1.42729 0
M  V30 13170 H 1226.34 -1.91238 3.75508 0
M  V30 13171 H 1225.07 -2.074 2.52295 0
M  V30 13172 H 1223.73 -0.267538 3.65622 0
M  V30 13173 H 1223.37 -2.66779 4.26425 0
M  V30 13174 H 1223.07 -1.59585 5.65514 0
M  V30 13175 H 1224.6 -2.52343 5.56017 0
M  V30 13176 H 1226.01 -0.258144 5.72719 0
M  V30 13177 H 1224.41 0.491273 5.98086 0
M  V30 13178 H 1225.48 1.12414 4.7169 0
M  V30 13179 N 1226.82 -1.56058 0.219941 0
M  V30 13180 C 1228.05 -2.031 -0.42014 0
M  V30 13181 C 1228.47 -1.09875 -1.52673 0
M  V30 13182 O 1227.83 -0.0866458 -1.81093 0
M  V30 13183 C 1227.88 -3.48389 -0.93047 0
M  V30 13184 O 1226.98 -3.583 -2.04192 0
M  V30 13185 H 1226.32 -0.657129 -0.0952772 0
M  V30 13186 H 1228.85 -2.01787 0.338105 0
M  V30 13187 H 1228.86 -3.88678 -1.2407 0
M  V30 13188 H 1227.54 -4.15725 -0.120539 0
M  V30 13189 H 1226.12 -3.29898 -1.73845 0
M  V30 13190 N 1228.3 0.053464 -1.57509 0
M  V30 13191 C 1229.71 0.603099 -1.76691 0
M  V30 13192 C 1230.06 1.76934 -0.847861 0
M  V30 13193 O 1229.19 2.16369 -0.0364962 0
M  V30 13194 C 1229.78 1.10084 -3.20417 0
M  V30 13195 C 1228.34 1.59618 -3.4088 0
M  V30 13196 C 1227.49 0.523516 -2.72313 0
M  V30 13197 H 1230.44 -0.172751 -1.57757 0
M  V30 13198 H 1230.46 1.9691 -3.25587 0
M  V30 13199 H 1229.97 0.251818 -3.87282 0
M  V30 13200 H 1228.07 2.46786 -2.79155 0
M  V30 13201 H 1228.19 1.6605 -4.49404 0
M  V30 13202 H 1226.55 0.972886 -2.35387 0
M  V30 13203 H 1227.33 -0.315629 -3.41846 0
M  V30 13204 N 1229.78 1.54207 0.325255 0
M  V30 13205 C 1231.06 1.6298 1.08153 0
M  V30 13206 C 1231.44 0.462583 2.05969 0
M  V30 13207 O 1230.78 -0.543323 2.21947 0
M  V30 13208 C 1230.99 2.999 1.78497 0
M  V30 13209 C 1232.34 3.55888 2.3158 0
M  V30 13210 O 1233.37 3.02194 1.88566 0
M  V30 13211 O 1232.23 4.49847 3.10322 0
M  V30 13212 H 1229.32 0.659923 0.498429 0
M  V30 13213 H 1231.87 1.66553 0.325282 0
M  V30 13214 H 1230.64 3.7629 1.07338 0
M  V30 13215 H 1230.26 2.99997 2.60936 0
M  V30 13216 N 1231.26 -0.58723 1.46251 0
M  V30 13217 C 1232.19 -1.71103 1.52501 0
M  V30 13218 C 1233.2 -1.57454 0.413772 0
M  V30 13219 O 1234.39 -1.64962 0.681902 0
M  V30 13220 C 1231.49 -3.0931 1.38493 0
M  V30 13221 C 1230.66 -3.49005 2.63655 0
M  V30 13222 C 1229.72 -4.66255 2.43911 0
M  V30 13223 O 1228.75 -4.72344 3.17616 0
M  V30 13224 N 1229.95 -5.60843 1.49784 0
M  V30 13225 H 1232.72 -1.66198 2.49396 0
M  V30 13226 H 1230.28 -0.773087 1.4225 0
M  V30 13227 H 1232.27 -3.85535 1.23064 0
M  V30 13228 H 1230.84 -3.08608 0.497963 0
M  V30 13229 H 1230.06 -2.62533 2.94058 0
M  V30 13230 H 1231.35 -3.72291 3.4681 0
M  V30 13231 H 1230.75 -5.58656 0.889972 0
M  V30 13232 H 1229.3 -6.36517 1.4032 0
M  V30 13233 N 1232.74 -1.33881 -0.831482 0
M  V30 13234 C 1233.98 -1.26951 -1.58918 0
M  V30 13235 C 1234.34 0.161359 -1.91722 0
M  V30 13236 O 1233.63 1.1054 -1.56498 0
M  V30 13237 C 1233.82 -2.08544 -2.90249 0
M  V30 13238 C 1233.65 -3.5942 -2.70273 0
M  V30 13239 C 1232.42 -4.28718 -2.67449 0
M  V30 13240 C 1234.62 -4.53599 -2.42388 0
M  V30 13241 N 1232.6 -5.65496 -2.38929 0
M  V30 13242 C 1233.97 -5.7832 -2.23485 0
M  V30 13243 C 1236.03 -4.42605 -2.28046 0
M  V30 13244 C 1234.73 -6.93286 -1.91695 0
M  V30 13245 C 1236.76 -5.57395 -1.97649 0
M  V30 13246 C 1236.12 -6.81129 -1.79563 0
M  V30 13247 H 1232.22 -0.519762 -0.58427 0
M  V30 13248 H 1234.8 -1.68502 -0.97546 0
M  V30 13249 H 1232.97 -1.69302 -3.49559 0
M  V30 13250 H 1234.71 -1.93325 -3.55538 0
M  V30 13251 H 1231.46 -3.81068 -2.81219 0
M  V30 13252 H 1231.88 -6.37619 -2.27532 0
M  V30 13253 H 1236.53 -3.47571 -2.40737 0
M  V30 13254 H 1234.24 -7.88311 -1.7774 0
M  V30 13255 H 1237.83 -5.50828 -1.87296 0
M  V30 13256 H 1236.71 -7.68449 -1.56382 0
M  V30 13257 N 1234.21 1.05064 -1.1747 0
M  V30 13258 C 1235.63 1.30256 -0.922248 0
M  V30 13259 C 1235.83 1.97119 0.417896 0
M  V30 13260 O 1234.89 2.24557 1.15457 0
M  V30 13261 C 1236.2 2.17109 -2.08049 0
M  V30 13262 C 1237.75 2.30487 -2.11766 0
M  V30 13263 C 1238.22 3.20701 -3.26979 0
M  V30 13264 N 1239.71 3.28287 -3.26775 0
M  V30 13265 C 1240.45 3.98218 -4.12565 0
M  V30 13266 N 1239.94 4.70567 -5.08467 0
M  V30 13267 N 1241.74 3.94395 -4.00511 0
M  V30 13268 H 1233.89 0.600653 -2.0373 0
M  V30 13269 H 1236.15 0.327475 -0.889643 0
M  V30 13270 H 1235.86 1.75273 -3.04914 0
M  V30 13271 H 1235.73 3.1775 -2.03261 0
M  V30 13272 H 1238.12 2.71564 -1.15486 0
M  V30 13273 H 1238.2 1.29471 -2.20615 0
M  V30 13274 H 1237.84 2.80337 -4.23525 0
M  V30 13275 H 1237.77 4.21725 -3.15366 0
M  V30 13276 H 1240.26 2.76739 -2.5734 0
M  V30 13277 H 1240.58 5.21492 -5.70321 0
M  V30 13278 H 1238.92 4.69505 -5.12436 0
M  V30 13279 H 1242.11 3.37 -3.24882 0
M  V30 13280 H 1242.29 4.48626 -4.67588 0
M  V30 13281 N 1235.69 0.975146 1.23809 0
M  V30 13282 C 1236.64 0.510761 2.25077 0
M  V30 13283 C 1237.61 -0.447605 1.59955 0
M  V30 13284 O 1238.79 -0.356318 1.87443 0
M  V30 13285 C 1235.93 -0.185755 3.446 0
M  V30 13286 C 1235.05 0.812254 4.24295 0
M  V30 13287 C 1234.18 0.0910835 5.31122 0
M  V30 13288 C 1233.22 1.07866 6.02521 0
M  V30 13289 N 1232.36 0.386995 7.01033 0
M  V30 13290 H 1237.2 1.37913 2.64166 0
M  V30 13291 H 1234.73 0.691184 1.2985 0
M  V30 13292 H 1236.69 -0.606341 4.1277 0
M  V30 13293 H 1235.32 -1.01803 3.06327 0
M  V30 13294 H 1234.37 1.35125 3.55592 0
M  V30 13295 H 1235.69 1.56502 4.73612 0
M  V30 13296 H 1234.84 -0.387129 6.05464 0
M  V30 13297 H 1233.58 -0.694324 4.82732 0
M  V30 13298 H 1232.58 1.56767 5.26976 0
M  V30 13299 H 1233.81 1.86464 6.52999 0
M  V30 13300 H 1231.76 -0.3793 6.54903 0
M  V30 13301 H 1231.67 1.0785 7.48268 0
M  V30 13302 H 1232.94 -0.0690036 7.79469 0
M  V30 13303 N 1237.17 -1.38817 0.746158 0
M  V30 13304 C 1238.42 -1.99885 0.298425 0
M  V30 13305 C 1238.74 -1.59518 -1.12156 0
M  V30 13306 O 1238.01 -0.848568 -1.76568 0
M  V30 13307 H 1236.59 -0.739247 0.107347 0
M  V30 13308 H 1239.25 -1.69696 0.9586 0
M  V30 13309 H 1238.35 -3.10067 0.355656 0
M  V30 13310 N 1238.65 -0.49465 -1.49636 0
M  V30 13311 C 1239.59 0.287153 -2.29007 0
M  V30 13312 C 1240.56 0.966099 -1.35114 0
M  V30 13313 O 1241.75 0.973991 -1.64067 0
M  V30 13314 C 1238.89 1.34941 -3.17624 0
M  V30 13315 C 1238 0.682879 -4.26569 0
M  V30 13316 C 1237.14 1.72503 -5.0241 0
M  V30 13317 C 1236.18 1.04003 -6.032 0
M  V30 13318 N 1235.31 2.0261 -6.7223 0
M  V30 13319 H 1240.15 -0.395941 -2.95358 0
M  V30 13320 H 1237.69 -0.207103 -1.45635 0
M  V30 13321 H 1239.65 1.9772 -3.67372 0
M  V30 13322 H 1238.28 2.00135 -2.5327 0
M  V30 13323 H 1237.33 -0.0580477 -3.80356 0
M  V30 13324 H 1238.64 0.143334 -4.98594 0
M  V30 13325 H 1237.8 2.42804 -5.55996 0
M  V30 13326 H 1236.54 2.29843 -4.30144 0
M  V30 13327 H 1235.54 0.322765 -5.48852 0
M  V30 13328 H 1236.77 0.473219 -6.77449 0
M  V30 13329 H 1234.71 2.58922 -6.0274 0
M  V30 13330 H 1234.63 1.53704 -7.4021 0
M  V30 13331 H 1235.9 2.72218 -7.30423 0
M  V30 13332 N 1240.13 1.55939 -0.228214 0
M  V30 13333 C 1241.07 2.20581 0.679157 0
M  V30 13334 C 1242.04 1.16355 1.18536 0
M  V30 13335 O 1243.23 1.44735 1.24324 0
M  V30 13336 C 1240.37 2.89477 1.87875 0
M  V30 13337 C 1239.48 4.08313 1.41083 0
M  V30 13338 C 1238.62 4.64974 2.56851 0
M  V30 13339 C 1237.65 5.76098 2.06828 0
M  V30 13340 N 1236.79 6.27021 3.15894 0
M  V30 13341 H 1241.63 2.97753 0.121203 0
M  V30 13342 H 1239.17 1.47021 0.0480688 0
M  V30 13343 H 1241.13 3.2761 2.58317 0
M  V30 13344 H 1239.76 2.14811 2.40948 0
M  V30 13345 H 1238.81 3.75621 0.601102 0
M  V30 13346 H 1240.12 4.8859 1.00408 0
M  V30 13347 H 1239.27 5.05584 3.35365 0
M  V30 13348 H 1238.01 3.83875 3.00818 0
M  V30 13349 H 1237.02 5.34984 1.26778 0
M  V30 13350 H 1238.24 6.59037 1.63852 0
M  V30 13351 H 1236.19 5.48833 3.5933 0
M  V30 13352 H 1236.11 7.02439 2.79491 0
M  V30 13353 H 1237.37 6.72289 3.94523 0
M  V30 13354 N 1241.6 -0.0451101 1.57535 0
M  V30 13355 C 1242.83 -0.755068 1.93167 0
M  V30 13356 C 1243.25 -1.68949 0.826915 0
M  V30 13357 O 1242.61 -1.79978 -0.218534 0
M  V30 13358 C 1242.66 -1.50201 3.27829 0
M  V30 13359 O 1241.76 -2.61434 3.18945 0
M  V30 13360 H 1241.11 -0.204219 0.631815 0
M  V30 13361 H 1243.64 -0.00537504 2.04599 0
M  V30 13362 H 1243.65 -1.87547 3.6234 0
M  V30 13363 H 1242.32 -0.816591 4.07805 0
M  V30 13364 H 1240.9 -2.26749 2.96039 0
M  V30 13365 N 1243.08 -1.54377 -0.317073 0
M  V30 13366 C 1244.31 -1.76865 -1.07362 0
M  V30 13367 C 1244.73 -0.520354 -1.81488 0
M  V30 13368 O 1244.08 0.509213 -1.75252 0
M  V30 13369 C 1244.13 -2.96598 -2.06668 0
M  V30 13370 O 1243.85 -4.16602 -1.35552 0
M  V30 13371 C 1245.36 -3.31348 -2.94489 0
M  V30 13372 H 1242.58 -0.590277 -0.319083 0
M  V30 13373 H 1245.12 -2.01284 -0.361227 0
M  V30 13374 H 1243.27 -2.74433 -2.73432 0
M  V30 13375 H 1243.69 -4.83996 -2.02108 0
M  V30 13376 H 1245.16 -4.1841 -3.60051 0
M  V30 13377 H 1245.64 -2.48797 -3.61935 0
M  V30 13378 H 1246.25 -3.55614 -2.33278 0
M  V30 13379 N 1244.56 0.579466 -1.4656 0
M  V30 13380 C 1245.81 1.33756 -1.52038 0
M  V30 13381 C 1246.14 1.93725 -0.173423 0
M  V30 13382 O 1245.39 1.77167 0.831293 0
M  V30 13383 C 1245.69 2.48417 -2.56951 0
M  V30 13384 C 1245.36 2.0642 -4.00876 0
M  V30 13385 C 1244.02 1.94682 -4.4006 0
M  V30 13386 C 1246.37 1.74066 -4.91274 0
M  V30 13387 C 1243.7 1.48852 -5.67503 0
M  V30 13388 C 1246.05 1.29714 -6.19158 0
M  V30 13389 C 1244.71 1.16555 -6.57245 0
M  V30 13390 H 1243.98 0.489447 -0.556347 0
M  V30 13391 H 1246.63 0.652176 -1.80053 0
M  V30 13392 H 1244.94 3.22416 -2.2261 0
M  V30 13393 H 1246.63 3.06629 -2.58418 0
M  V30 13394 H 1243.22 2.16492 -3.69904 0
M  V30 13395 H 1247.41 1.82019 -4.61717 0
M  V30 13396 H 1242.66 1.3731 -5.95782 0
M  V30 13397 H 1246.84 1.03734 -6.88631 0
M  V30 13398 H 1244.46 0.808193 -7.55892 0
M  V30 13399 N 1246.04 1.3432 0.824371 0
M  V30 13400 C 1247.45 1.1397 1.11727 0
M  V30 13401 C 1247.65 -0.0597597 2.01411 0
M  V30 13402 O 1246.71 -0.735717 2.41544 0
M  V30 13403 C 1248.02 2.43423 1.76538 0
M  V30 13404 C 1249.57 2.49466 1.89039 0
M  V30 13405 C 1250.05 3.78917 2.57266 0
M  V30 13406 N 1251.54 3.8007 2.64767 0
M  V30 13407 C 1252.27 4.76953 3.18282 0
M  V30 13408 N 1251.77 5.84217 3.72373 0
M  V30 13409 N 1253.56 4.6441 3.1667 0
M  V30 13410 H 1245.71 2.11175 0.227802 0
M  V30 13411 H 1247.98 0.933774 0.163615 0
M  V30 13412 H 1247.68 3.31278 1.18102 0
M  V30 13413 H 1247.56 2.56655 2.7642 0
M  V30 13414 H 1249.94 1.62052 2.46623 0
M  V30 13415 H 1250.02 2.40163 0.880635 0
M  V30 13416 H 1249.67 4.6672 2.00336 0
M  V30 13417 H 1249.6 3.85502 3.58742 0
M  V30 13418 H 1252.09 3.02556 2.26425 0
M  V30 13419 H 1252.4 6.54159 4.11455 0
M  V30 13420 H 1250.75 5.87933 3.70621 0
M  V30 13421 H 1253.94 3.7976 2.73678 0
M  V30 13422 H 1254.11 5.40081 3.58073 0
M  V30 13423 N 1247.52 -1.0444 1.18026 0
M  V30 13424 C 1248.47 -2.10671 0.871877 0
M  V30 13425 C 1249.45 -1.60134 -0.156798 0
M  V30 13426 O 1250.64 -1.76938 0.0467129 0
M  V30 13427 C 1247.77 -3.41017 0.395271 0
M  V30 13428 C 1246.86 -3.98331 1.4558 0
M  V30 13429 N 1247.25 -4.29508 2.67127 0
M  V30 13430 C 1245.55 -4.2616 1.31544 0
M  V30 13431 C 1246.25 -4.7532 3.35329 0
M  V30 13432 N 1245.22 -4.75904 2.6271 0
M  V30 13433 H 1249.03 -2.32647 1.79589 0
M  V30 13434 H 1246.54 -1.22158 1.0701 0
M  V30 13435 H 1248.54 -4.16609 0.155861 0
M  V30 13436 H 1247.2 -3.20469 -0.522452 0
M  V30 13437 H 1248.21 -4.19271 3.04027 0
M  V30 13438 H 1244.88 -4.14959 0.459962 0
M  V30 13439 H 1246.27 -5.08493 4.39186 0
M  V30 13440 N 1248.99 -0.981699 -1.2329 0
M  V30 13441 C 1250.24 -0.652266 -1.92024 0
M  V30 13442 C 1250.57 0.812297 -1.76396 0
M  V30 13443 O 1249.85 1.5861 -1.12575 0
M  V30 13444 C 1250.13 -1.04506 -3.44602 0
M  V30 13445 C 1249.98 -2.56735 -3.69333 0
M  V30 13446 C 1251.3 -0.589937 -4.36128 0
M  V30 13447 H 1248.42 -0.238437 -0.697364 0
M  V30 13448 H 1251.06 -1.22322 -1.45387 0
M  V30 13449 H 1249.21 -0.559242 -3.84454 0
M  V30 13450 H 1250.89 -3.12901 -3.38955 0
M  V30 13451 H 1249.13 -2.9931 -3.14 0
M  V30 13452 H 1249.8 -2.79269 -4.76144 0
M  V30 13453 H 1252.28 -1.00706 -4.0373 0
M  V30 13454 H 1251.15 -0.893192 -5.41584 0
M  V30 13455 H 1251.41 0.509707 -4.39152 0
M  V30 13456 N 1250.47 1.3842 -0.753509 0
M  V30 13457 C 1251.72 1.99723 -0.309021 0
M  V30 13458 C 1252.04 1.60111 1.11308 0
M  V30 13459 O 1251.31 0.85792 1.76115 0
M  V30 13460 H 1249.89 0.738667 -0.111266 0
M  V30 13461 H 1252.55 1.69186 -0.967586 0
M  V30 13462 H 1251.65 3.09874 -0.372095 0
M  V30 13463 N 1251.95 0.502579 1.49372 0
M  V30 13464 C 1253.23 -0.104472 1.95321 0
M  V30 13465 C 1253.61 -1.53975 1.44412 0
M  V30 13466 O 1252.96 -2.18804 0.658566 0
M  V30 13467 C 1253.17 -0.0154833 3.48997 0
M  V30 13468 C 1254.51 -0.188615 4.24181 0
M  V30 13469 O 1255.54 -0.090595 3.56085 0
M  V30 13470 O 1254.4 -0.390068 5.45106 0
M  V30 13471 H 1251.49 -0.0944325 0.821591 0
M  V30 13472 H 1254.04 0.565229 1.6001 0
M  V30 13473 H 1252.81 0.985383 3.7869 0
M  V30 13474 H 1252.43 -0.72526 3.90929 0
M  V30 13475 N 1253.43 -1.55816 0.23648 0
M  V30 13476 C 1254.71 -1.90565 -0.440933 0
M  V30 13477 C 1255.09 -1.15585 -1.76645 0
M  V30 13478 O 1254.43 -0.269949 -2.269 0
M  V30 13479 C 1254.64 -3.43462 -0.61925 0
M  V30 13480 C 1255.99 -4.14516 -0.91989 0
M  V30 13481 O 1257.02 -3.49144 -0.705496 0
M  V30 13482 O 1255.87 -5.3013 -1.32759 0
M  V30 13483 H 1252.97 -0.79285 -0.235199 0
M  V30 13484 H 1255.51 -1.67378 0.279774 0
M  V30 13485 H 1254.29 -3.90029 0.315124 0
M  V30 13486 H 1253.91 -3.72478 -1.39089 0
M  V30 13487 N 1254.91 0.036755 -1.57557 0
M  V30 13488 C 1256.13 0.741086 -1.93172 0
M  V30 13489 C 1256.55 1.69303 -0.835589 0
M  V30 13490 O 1255.91 1.81523 0.1886 0
M  V30 13491 C 1255.96 1.50477 -3.28693 0
M  V30 13492 O 1255.68 0.591046 -4.34095 0
M  V30 13493 C 1257.18 2.30695 -3.78543 0
M  V30 13494 H 1254.4 0.208731 -0.637709 0
M  V30 13495 H 1256.94 -0.00342776 -2.045 0
M  V30 13496 H 1255.1 2.20123 -3.18786 0
M  V30 13497 H 1255.51 1.12579 -5.12276 0
M  V30 13498 H 1256.99 2.79685 -4.759 0
M  V30 13499 H 1257.46 3.11778 -3.0934 0
M  V30 13500 H 1258.07 1.66138 -3.91508 0
M  V30 13501 N 1256.39 1.54543 0.308881 0
M  V30 13502 C 1257.61 1.77431 1.06422 0
M  V30 13503 C 1258.03 0.529972 1.81209 0
M  V30 13504 O 1257.39 -0.499912 1.7552 0
M  V30 13505 C 1257.44 2.9769 2.05092 0
M  V30 13506 O 1257.16 4.17315 1.33341 0
M  V30 13507 C 1258.66 3.32905 2.92727 0
M  V30 13508 H 1255.88 0.591961 0.315948 0
M  V30 13509 H 1258.42 2.01473 0.350547 0
M  V30 13510 H 1256.58 2.7588 2.71973 0
M  V30 13511 H 1256.99 4.85061 1.99539 0
M  V30 13512 H 1258.47 4.20314 3.57827 0
M  V30 13513 H 1258.94 2.50713 3.6061 0
M  V30 13514 H 1259.55 3.56847 2.31388 0
M  V30 13515 N 1257.86 -0.571685 1.46866 0
M  V30 13516 C 1259.28 -0.896172 1.32064 0
M  V30 13517 C 1259.48 -1.9925 0.300291 0
M  V30 13518 O 1258.54 -2.50791 -0.293284 0
M  V30 13519 C 1259.85 -1.3031 2.70998 0
M  V30 13520 C 1261.4 -1.41533 2.79173 0
M  V30 13521 C 1261.87 -1.85587 4.18714 0
M  V30 13522 N 1263.36 -1.92762 4.21185 0
M  V30 13523 C 1264.1 -2.28148 5.26057 0
M  V30 13524 N 1263.59 -2.62248 6.41247 0
M  V30 13525 N 1265.39 -2.28797 5.13428 0
M  V30 13526 H 1257.54 0.152349 2.11853 0
M  V30 13527 H 1259.8 0.00548777 0.947984 0
M  V30 13528 H 1259.51 -0.571469 3.47026 0
M  V30 13529 H 1259.38 -2.26233 3.01826 0
M  V30 13530 H 1261.77 -2.1378 2.03426 0
M  V30 13531 H 1261.85 -0.438342 2.52016 0
M  V30 13532 H 1261.49 -1.13915 4.9496 0
M  V30 13533 H 1261.42 -2.84264 4.43285 0
M  V30 13534 H 1263.91 -1.68854 3.38078 0
M  V30 13535 H 1264.23 -2.88234 7.17036 0
M  V30 13536 H 1262.57 -2.59861 6.44591 0
M  V30 13537 H 1265.76 -2.01587 4.22469 0
M  V30 13538 H 1265.94 -2.56045 5.95269 0
M  V30 13539 N 1259.34 -1.34755 -0.817236 0
M  V30 13540 C 1260.27 -1.29452 -1.94331 0
M  V30 13541 C 1261.25 -0.170902 -1.69239 0
M  V30 13542 O 1262.44 -0.364173 -1.90755 0
M  V30 13543 C 1259.57 -1.05497 -3.30889 0
M  V30 13544 C 1258.52 -2.14386 -3.70436 0
M  V30 13545 C 1257.85 -1.75612 -5.05039 0
M  V30 13546 C 1259.15 -3.56265 -3.81933 0
M  V30 13547 H 1260.84 -2.23672 -1.99025 0
M  V30 13548 H 1258.39 -1.07674 -0.956159 0
M  V30 13549 H 1260.34 -1.0043 -4.09257 0
M  V30 13550 H 1259.06 -0.0772059 -3.26509 0
M  V30 13551 H 1257.72 -2.18532 -2.94345 0
M  V30 13552 H 1257.37 -0.764809 -4.97152 0
M  V30 13553 H 1257.07 -2.48495 -5.3247 0
M  V30 13554 H 1258.6 -1.72051 -5.85859 0
M  V30 13555 H 1260.01 -3.545 -4.50558 0
M  V30 13556 H 1258.41 -4.27818 -4.20822 0
M  V30 13557 H 1259.48 -3.93192 -2.83775 0
M  V30 13558 N 1260.82 1.03812 -1.18578 0
M  V30 13559 C 1261.73 2.15371 -0.930182 0
M  V30 13560 C 1262.75 1.73673 0.106599 0
M  V30 13561 O 1263.92 2.01257 -0.0759054 0
M  V30 13562 C 1260.99 3.43606 -0.462151 0
M  V30 13563 C 1260.05 3.99671 -1.5672 0
M  V30 13564 C 1259.28 5.21785 -1.12141 0
M  V30 13565 O 1259.5 5.70397 0.0188357 0
M  V30 13566 O 1258.44 5.70449 -1.9202 0
M  V30 13567 H 1262.26 2.39791 -1.86371 0
M  V30 13568 H 1259.85 1.13814 -0.967819 0
M  V30 13569 H 1261.73 4.2088 -0.20934 0
M  V30 13570 H 1260.41 3.20654 0.443052 0
M  V30 13571 H 1259.31 3.23774 -1.87406 0
M  V30 13572 H 1260.65 4.2697 -2.44862 0
M  V30 13573 N 1262.3 0.988223 1.22768 0
M  V30 13574 C 1263.55 0.656941 1.90702 0
M  V30 13575 C 1263.86 -0.814058 1.77855 0
M  V30 13576 O 1265.07 -1.25673 2.40663 0
M  V30 13577 C 1263.52 1.12445 3.41883 0
M  V30 13578 C 1263.13 2.62034 3.63376 0
M  V30 13579 C 1264.87 0.867277 4.15546 0
M  V30 13580 C 1262.78 3.02412 5.08233 0
M  V30 13581 H 1261.71 0.242012 0.714105 0
M  V30 13582 H 1264.36 1.19716 1.39069 0
M  V30 13583 H 1262.74 0.512386 3.92671 0
M  V30 13584 H 1263.92 3.28546 3.23101 0
M  V30 13585 H 1262.23 2.85583 3.03037 0
M  V30 13586 H 1264.83 1.14471 5.22303 0
M  V30 13587 H 1265.17 -0.196611 4.15835 0
M  V30 13588 H 1265.71 1.4413 3.70771 0
M  V30 13589 H 1262.44 4.07957 5.1308 0
M  V30 13590 H 1261.96 2.406 5.49429 0
M  V30 13591 H 1263.64 2.93452 5.76624 0
M  V30 13592 N 1263.78 -1.38018 0.760839 0
M  V30 13593 C 1265.02 -2.0071 0.329695 0
M  V30 13594 C 1265.38 -1.59315 -1.07872 0
M  V30 13595 O 1264.67 -0.824077 -1.72973 0
M  V30 13596 C 1264.86 -3.55168 0.398778 0
M  V30 13597 C 1264.69 -4.11562 1.81237 0
M  V30 13598 C 1263.46 -4.43003 2.43056 0
M  V30 13599 C 1265.66 -4.3332 2.77018 0
M  V30 13600 N 1263.64 -4.85048 3.76301 0
M  V30 13601 C 1265.01 -4.77853 3.9504 0
M  V30 13602 C 1267.07 -4.15432 2.74446 0
M  V30 13603 C 1265.77 -5.06373 5.10861 0
M  V30 13604 C 1267.8 -4.45081 3.89431 0
M  V30 13605 C 1267.16 -4.89845 5.06193 0
M  V30 13606 H 1263.26 -0.76386 0.167457 0
M  V30 13607 H 1265.84 -1.67513 0.992343 0
M  V30 13608 H 1264.01 -3.87697 -0.233635 0
M  V30 13609 H 1265.75 -4.04665 -0.0533765 0
M  V30 13610 H 1262.5 -4.317 1.94762 0
M  V30 13611 H 1262.92 -5.10394 4.44778 0
M  V30 13612 H 1267.57 -3.80006 1.85353 0
M  V30 13613 H 1265.28 -5.40693 6.00564 0
M  V30 13614 H 1268.87 -4.32839 3.88769 0
M  V30 13615 H 1267.75 -5.12348 5.93691 0
M  V30 13616 N 1265.25 -0.510493 -1.49103 0
M  V30 13617 C 1266.5 0.0325393 -2.01674 0
M  V30 13618 C 1266.82 1.37162 -1.39448 0
M  V30 13619 O 1268.02 2.00189 -1.83402 0
M  V30 13620 C 1266.48 0.108433 -3.59737 0
M  V30 13621 C 1266.09 -1.22458 -4.30939 0
M  V30 13622 C 1267.83 0.601326 -4.20219 0
M  V30 13623 C 1265.74 -1.11033 -5.80884 0
M  V30 13624 H 1264.67 0.0159333 -0.753832 0
M  V30 13625 H 1267.32 -0.651344 -1.71551 0
M  V30 13626 H 1265.7 0.856974 -3.86616 0
M  V30 13627 H 1266.87 -1.98715 -4.15751 0
M  V30 13628 H 1265.19 -1.65166 -3.82242 0
M  V30 13629 H 1267.79 0.704462 -5.30039 0
M  V30 13630 H 1268.13 1.60247 -3.84222 0
M  V30 13631 H 1268.66 -0.0909561 -3.97696 0
M  V30 13632 H 1265.4 -2.08603 -6.21422 0
M  V30 13633 H 1264.92 -0.388798 -5.98539 0
M  V30 13634 H 1266.6 -0.792949 -6.42123 0
M  V30 13635 N 1266.73 1.55688 -0.24474 0
M  V30 13636 C 1267.68 2.17946 0.669596 0
M  V30 13637 C 1268.67 1.13468 1.14078 0
M  V30 13638 O 1269.86 1.39385 1.09091 0
M  V30 13639 C 1266.99 2.8808 1.86721 0
M  V30 13640 C 1266.07 3.99811 1.41463 0
M  V30 13641 N 1266.46 5.01261 0.676131 0
M  V30 13642 C 1264.76 4.12327 1.70008 0
M  V30 13643 C 1265.46 5.80017 0.442113 0
M  V30 13644 N 1264.44 5.34216 1.00569 0
M  V30 13645 H 1268.24 2.93739 0.0971953 0
M  V30 13646 H 1265.75 1.62332 -0.0469646 0
M  V30 13647 H 1267.75 3.31109 2.53322 0
M  V30 13648 H 1266.41 2.13789 2.44385 0
M  V30 13649 H 1267.42 5.1687 0.326459 0
M  V30 13650 H 1264.1 3.49206 2.28827 0
M  V30 13651 H 1265.49 6.71739 -0.14729 0
M  V30 13652 N 1268.21 -0.0283989 1.57574 0
M  V30 13653 C 1269.62 -0.574912 1.77628 0
M  V30 13654 C 1269.97 -1.75563 0.875903 0
M  V30 13655 O 1269.1 -2.16284 0.0709141 0
M  V30 13656 C 1269.69 -1.04972 3.22128 0
M  V30 13657 C 1268.25 -1.54175 3.43376 0
M  V30 13658 C 1267.4 -0.480127 2.73112 0
M  V30 13659 H 1270.35 0.197826 1.57462 0
M  V30 13660 H 1270.37 -1.91705 3.28678 0
M  V30 13661 H 1269.88 -0.190173 3.87634 0
M  V30 13662 H 1267.98 -2.42313 2.83046 0
M  V30 13663 H 1268.1 -1.58879 4.51989 0
M  V30 13664 H 1266.46 -0.935314 2.36905 0
M  V30 13665 H 1267.24 0.369973 3.41301 0
M  V30 13666 N 1269.69 -1.54705 -0.300681 0
M  V30 13667 C 1270.91 -1.78318 -1.05913 0
M  V30 13668 C 1271.34 -0.541177 -1.80147 0
M  V30 13669 O 1270.7 0.508291 -1.74029 0
M  V30 13670 C 1270.74 -2.99041 -2.01511 0
M  V30 13671 O 1269.85 -2.72188 -3.09818 0
M  V30 13672 H 1269.19 -0.590197 -0.304242 0
M  V30 13673 H 1271.72 -2.01789 -0.338006 0
M  V30 13674 H 1271.73 -3.2702 -2.43971 0
M  V30 13675 H 1270.4 -3.89098 -1.46886 0
M  V30 13676 H 1268.98 -2.55227 -2.71871 0
M  V30 13677 N 1271.17 0.563888 -1.47167 0
M  V30 13678 C 1272.12 1.66687 -1.55562 0
M  V30 13679 C 1273.1 1.55455 -0.415024 0
M  V30 13680 O 1274.29 1.64051 -0.664557 0
M  V30 13681 C 1271.42 3.05469 -1.56665 0
M  V30 13682 C 1270.51 3.21928 -2.76085 0
M  V30 13683 N 1270.9 3.08477 -4.00844 0
M  V30 13684 C 1269.2 3.52913 -2.72706 0
M  V30 13685 C 1269.9 3.27447 -4.80784 0
M  V30 13686 N 1268.87 3.53474 -4.12986 0
M  V30 13687 H 1272.68 1.54846 -2.498 0
M  V30 13688 H 1270.19 0.76846 -1.43068 0
M  V30 13689 H 1272.19 3.84655 -1.60768 0
M  V30 13690 H 1270.85 3.18427 -0.635174 0
M  V30 13691 H 1271.86 2.85944 -4.31806 0
M  V30 13692 H 1268.53 3.7244 -1.88666 0
M  V30 13693 H 1269.92 3.22072 -5.89677 0
M  V30 13694 N 1272.64 1.35187 0.810078 0
M  V30 13695 C 1274.06 1.25329 1.38381 0
M  V30 13696 C 1274.41 -0.115799 1.95858 0
M  V30 13697 O 1273.53 -1.01663 1.91033 0
M  V30 13698 C 1274.13 2.2693 2.51572 0
M  V30 13699 C 1272.69 2.20824 3.04818 0
M  V30 13700 C 1271.83 2.1283 1.7776 0
M  V30 13701 H 1274.78 1.46366 0.613402 0
M  V30 13702 H 1274.8 1.89375 3.30026 0
M  V30 13703 H 1274.32 3.26563 2.09709 0
M  V30 13704 H 1272.42 1.24589 3.51153 0
M  V30 13705 H 1272.53 3.12637 3.63036 0
M  V30 13706 H 1270.89 1.58752 1.99173 0
M  V30 13707 H 1271.68 3.14318 1.38054 0
M  V30 13708 N 1274.12 -1.03182 1.19127 0
M  V30 13709 C 1275.54 -1.28773 0.942854 0
M  V30 13710 C 1275.74 -1.97759 -0.386483 0
M  V30 13711 O 1274.79 -2.26365 -1.1187 0
M  V30 13712 C 1276.11 -2.13771 2.11476 0
M  V30 13713 C 1277.66 -2.27089 2.15406 0
M  V30 13714 C 1278.13 -3.15458 3.32039 0
M  V30 13715 N 1279.62 -3.23046 3.31957 0
M  V30 13716 C 1280.36 -3.91604 4.18848 0
M  V30 13717 N 1279.85 -4.62418 5.15889 0
M  V30 13718 N 1281.65 -3.87974 4.06734 0
M  V30 13719 H 1273.8 -0.568165 2.0466 0
M  V30 13720 H 1276.06 -0.31328 0.89474 0
M  V30 13721 H 1275.77 -1.704 3.07663 0
M  V30 13722 H 1275.64 -3.14476 2.0829 0
M  V30 13723 H 1278.03 -2.69693 1.19791 0
M  V30 13724 H 1278.11 -1.25945 2.22647 0
M  V30 13725 H 1277.75 -2.73564 4.27931 0
M  V30 13726 H 1277.68 -4.16654 3.22035 0
M  V30 13727 H 1280.17 -2.7261 2.6171 0
M  V30 13728 H 1280.49 -5.12353 5.78545 0
M  V30 13729 H 1278.83 -4.61293 5.1984 0
M  V30 13730 H 1282.02 -3.31789 3.30202 0
M  V30 13731 H 1282.19 -4.4113 4.74666 0
M  V30 13732 N 1275.6 -0.99472 -1.22242 0
M  V30 13733 C 1276.83 -0.689809 -1.95592 0
M  V30 13734 C 1277.25 0.739321 -1.72961 0
M  V30 13735 O 1276.61 1.50563 -1.00997 0
M  V30 13736 C 1276.66 -1.00367 -3.46351 0
M  V30 13737 O 1275.76 -0.103326 -4.12271 0
M  V30 13738 H 1275.1 -0.257997 -0.611828 0
M  V30 13739 H 1277.63 -1.33219 -1.55286 0
M  V30 13740 H 1277.64 -0.946259 -3.96875 0
M  V30 13741 H 1276.32 -2.04504 -3.62148 0
M  V30 13742 H 1274.89 -0.216374 -3.72272 0
M  V30 13743 N 1277.08 1.37613 -0.768148 0
M  V30 13744 C 1278.3 2.04579 -0.340892 0
M  V30 13745 C 1278.73 1.57556 1.02751 0
M  V30 13746 O 1278.09 0.734151 1.65771 0
M  V30 13747 C 1278.13 3.58495 -0.389099 0
M  V30 13748 O 1277.24 4.07838 0.611741 0
M  V30 13749 H 1276.58 0.647246 -0.148216 0
M  V30 13750 H 1279.11 1.75999 -1.04333 0
M  V30 13751 H 1279.12 4.07263 -0.245116 0
M  V30 13752 H 1277.79 3.92076 -1.38742 0
M  V30 13753 H 1276.37 3.70399 0.431173 0
M  V30 13754 N 1278.56 0.518393 1.4883 0
M  V30 13755 C 1279.49 -0.287642 2.27388 0
M  V30 13756 C 1280.5 -0.914974 1.34655 0
M  V30 13757 O 1281.69 -0.795373 1.598 0
M  V30 13758 C 1278.79 -1.42149 3.07647 0
M  V30 13759 C 1277.96 -0.898238 4.28078 0
M  V30 13760 C 1277.02 -1.91179 4.90242 0
M  V30 13761 O 1276.05 -1.47337 5.498 0
M  V30 13762 N 1277.25 -3.24331 4.81445 0
M  V30 13763 H 1280.02 0.386047 2.97203 0
M  V30 13764 H 1277.58 0.352002 1.58027 0
M  V30 13765 H 1279.57 -2.09745 3.46106 0
M  V30 13766 H 1278.14 -1.99903 2.40328 0
M  V30 13767 H 1277.36 -0.0466326 3.94172 0
M  V30 13768 H 1278.65 -0.527338 5.0606 0
M  V30 13769 H 1278.04 -3.62627 4.34187 0
M  V30 13770 H 1276.6 -3.87593 5.24037 0
M  V30 13771 N 1280.03 -1.55556 0.252993 0
M  V30 13772 C 1281.28 -1.98697 -0.369319 0
M  V30 13773 C 1281.6 -1.14256 -1.58021 0
M  V30 13774 O 1280.87 -0.226779 -1.94583 0
M  V30 13775 H 1279.45 -0.733869 -0.139444 0
M  V30 13776 H 1282.12 -1.91673 0.353197 0
M  V30 13777 H 1281.21 -3.04728 -0.674312 0
M  V30 13778 N 1281.51 0.0200419 -1.57587 0
M  V30 13779 C 1282.74 0.720556 -1.93947 0
M  V30 13780 C 1283.16 1.68407 -0.853499 0
M  V30 13781 O 1282.51 1.81713 0.169337 0
M  V30 13782 C 1282.56 1.46982 -3.3027 0
M  V30 13783 O 1282.28 0.544971 -4.34697 0
M  V30 13784 C 1283.79 2.26667 -3.80968 0
M  V30 13785 H 1281.01 0.201956 -0.639887 0
M  V30 13786 H 1283.55 -0.0251175 -2.04485 0
M  V30 13787 H 1281.7 2.16729 -3.21103 0
M  V30 13788 H 1282.12 1.07139 -5.13441 0
M  V30 13789 H 1283.59 2.74621 -4.78839 0
M  V30 13790 H 1284.07 3.0848 -3.12629 0
M  V30 13791 H 1284.68 1.61976 -3.93248 0
M  V30 13792 N 1282.99 1.54862 0.292472 0
M  V30 13793 C 1283.9 1.89472 1.38339 0
M  V30 13794 C 1284.92 0.789783 1.55043 0
M  V30 13795 O 1286.09 1.08705 1.69544 0
M  V30 13796 C 1283.16 2.14244 2.72581 0
M  V30 13797 C 1282.22 3.37913 2.64789 0
M  V30 13798 C 1281.45 3.61494 3.92629 0
M  V30 13799 O 1281.67 2.87931 4.92394 0
M  V30 13800 O 1280.61 4.55019 3.94007 0
M  V30 13801 H 1284.43 2.82298 1.11989 0
M  V30 13802 H 1282.02 1.41161 0.489291 0
M  V30 13803 H 1283.9 2.31689 3.51991 0
M  V30 13804 H 1282.58 1.24603 2.98757 0
M  V30 13805 H 1281.48 3.25823 1.83821 0
M  V30 13806 H 1282.82 4.27711 2.43565 0
M  V30 13807 N 1284.47 -0.556076 1.47464 0
M  V30 13808 C 1285.69 -1.3434 1.58011 0
M  V30 13809 C 1286.12 -1.86674 0.231138 0
M  V30 13810 O 1285.48 -1.63029 -0.793174 0
M  V30 13811 C 1285.52 -2.48844 2.60977 0
M  V30 13812 O 1284.63 -3.51108 2.16326 0
M  V30 13813 H 1283.97 -0.398986 0.53076 0
M  V30 13814 H 1286.5 -0.671898 1.93253 0
M  V30 13815 H 1286.51 -2.95398 2.81432 0
M  V30 13816 H 1285.18 -2.10109 3.58925 0
M  V30 13817 H 1283.76 -3.10852 2.05975 0
M  V30 13818 N 1285.95 -1.35615 -0.802897 0
M  V30 13819 C 1287.2 -1.28839 -1.55708 0
M  V30 13820 C 1287.52 0.135906 -1.94526 0
M  V30 13821 O 1286.79 1.07317 -1.6389 0
M  V30 13822 H 1285.37 -0.473906 -0.577427 0
M  V30 13823 H 1288.03 -1.69759 -0.957487 0
M  V30 13824 H 1287.12 -1.90675 -2.47082 0
M  V30 13825 N 1287.43 1.02549 -1.19673 0
M  V30 13826 C 1288.37 2.109 -0.937536 0
M  V30 13827 C 1289.34 1.65599 0.128923 0
M  V30 13828 O 1290.53 1.90795 -0.0139366 0
M  V30 13829 C 1287.67 3.4166 -0.48602 0
M  V30 13830 C 1286.78 4.0049 -1.61963 0
M  V30 13831 C 1285.92 5.19273 -1.11931 0
M  V30 13832 C 1284.95 5.70166 -2.22659 0
M  V30 13833 N 1284.09 6.80221 -1.73909 0
M  V30 13834 H 1288.93 2.32408 -1.86523 0
M  V30 13835 H 1286.47 1.13982 -0.929869 0
M  V30 13836 H 1288.43 4.16693 -0.205614 0
M  V30 13837 H 1287.06 3.20253 0.404678 0
M  V30 13838 H 1286.11 3.22638 -2.01516 0
M  V30 13839 H 1287.42 4.34273 -2.45374 0
M  V30 13840 H 1286.57 6.01478 -0.794336 0
M  V30 13841 H 1285.31 4.87033 -0.254972 0
M  V30 13842 H 1284.32 4.86572 -2.55983 0
M  V30 13843 H 1285.54 6.04444 -3.09554 0
M  V30 13844 H 1283.49 6.49826 -0.897889 0
M  V30 13845 H 1283.41 7.13149 -2.50907 0
M  V30 13846 H 1284.67 7.66011 -1.44386 0
M  V30 13847 N 1288.9 1.00119 1.21713 0
M  V30 13848 C 1290.18 0.597366 1.86255 0
M  V30 13849 C 1290.56 -0.925124 1.89749 0
M  V30 13850 O 1289.91 -1.8105 1.39402 0
M  V30 13851 C 1290.12 1.22735 3.26707 0
M  V30 13852 C 1291.47 1.33307 4.03131 0
M  V30 13853 O 1292.49 1.18237 3.36003 0
M  V30 13854 O 1291.35 1.57509 5.2331 0
M  V30 13855 H 1288.44 0.204091 0.801421 0
M  V30 13856 H 1290.99 1.09759 1.29426 0
M  V30 13857 H 1289.76 2.26837 3.18843 0
M  V30 13858 H 1289.38 0.713232 3.91151 0
M  V30 13859 N 1290.38 -1.37203 0.775435 0
M  V30 13860 C 1291.61 -2.04396 0.351737 0
M  V30 13861 C 1292.03 -1.58099 -1.01913 0
M  V30 13862 O 1291.39 -0.742932 -1.65379 0
M  V30 13863 C 1291.44 -3.58283 0.408105 0
M  V30 13864 O 1290.54 -4.08156 -0.590104 0
M  V30 13865 H 1289.88 -0.646451 0.151647 0
M  V30 13866 H 1292.41 -1.75443 1.05265 0
M  V30 13867 H 1292.42 -4.07127 0.266711 0
M  V30 13868 H 1291.1 -3.91335 1.40819 0
M  V30 13869 H 1289.67 -3.70622 -0.411524 0
M  V30 13870 N 1291.86 -0.526279 -1.48553 0
M  V30 13871 C 1292.77 0.24244 -2.33344 0
M  V30 13872 C 1293.79 0.942658 -1.46253 0
M  V30 13873 O 1294.96 0.91844 -1.79239 0
M  V30 13874 C 1292.03 1.27801 -3.22285 0
M  V30 13875 C 1291.09 0.588543 -4.25247 0
M  V30 13876 C 1290.32 1.57478 -5.09938 0
M  V30 13877 O 1290.54 2.80707 -4.96548 0
M  V30 13878 O 1289.48 1.11621 -5.9146 0
M  V30 13879 H 1293.3 -0.452262 -3.00314 0
M  V30 13880 H 1290.89 -0.287249 -1.46613 0
M  V30 13881 H 1292.77 1.87656 -3.7731 0
M  V30 13882 H 1291.45 1.95519 -2.57981 0
M  V30 13883 H 1290.35 -0.0504022 -3.74066 0
M  V30 13884 H 1291.69 -0.046627 -4.92178 0
M  V30 13885 N 1293.34 1.5542 -0.261239 0
M  V30 13886 C 1294.27 2.19334 0.665214 0
M  V30 13887 C 1295.28 1.17388 1.128 0
M  V30 13888 O 1296.47 1.44183 1.0523 0
M  V30 13889 C 1293.57 2.79425 1.91768 0
M  V30 13890 C 1292.74 4.06929 1.60399 0
M  V30 13891 C 1291.8 4.51199 2.70751 0
M  V30 13892 O 1290.83 5.17272 2.37526 0
M  V30 13893 N 1292.03 4.20179 4.00537 0
M  V30 13894 H 1294.8 2.99467 0.118262 0
M  V30 13895 H 1292.36 1.61693 -0.0817727 0
M  V30 13896 H 1294.35 3.05992 2.64861 0
M  V30 13897 H 1292.92 2.03366 2.37405 0
M  V30 13898 H 1292.14 3.87798 0.707559 0
M  V30 13899 H 1293.43 4.9003 1.36924 0
M  V30 13900 H 1292.83 3.67164 4.30357 0
M  V30 13901 H 1291.38 4.51549 4.7005 0
M  V30 13902 N 1294.82 -0.0116844 1.57596 0
M  V30 13903 C 1295.73 -1.02342 2.111 0
M  V30 13904 C 1296.74 -1.38478 1.05355 0
M  V30 13905 O 1297.92 -1.47447 1.37191 0
M  V30 13906 C 1294.98 -2.30016 2.5941 0
M  V30 13907 C 1294.04 -2.003 3.79708 0
M  V30 13908 C 1293.28 -3.21888 4.25704 0
M  V30 13909 O 1293.5 -4.33171 3.71106 0
M  V30 13910 O 1292.43 -3.0657 5.17975 0
M  V30 13911 H 1296.26 -0.598637 2.97742 0
M  V30 13912 H 1293.84 -0.229779 1.47622 0
M  V30 13913 H 1295.73 -3.05044 2.90733 0
M  V30 13914 H 1294.4 -2.71755 1.75871 0
M  V30 13915 H 1293.31 -1.22785 3.53376 0
M  V30 13916 H 1294.64 -1.63406 4.64284 0
M  V30 13917 N 1296.29 -1.55015 -0.284256 0
M  V30 13918 C 1297.24 -1.87898 -1.37102 0
M  V30 13919 C 1298.24 -0.754231 -1.51683 0
M  V30 13920 O 1299.44 -0.93844 -1.53601 0
M  V30 13921 H 1295.82 -0.596208 -0.458301 0
M  V30 13922 H 1297.79 -2.78704 -1.06613 0
M  V30 13923 C 1296.54 -2.15764 -2.72656 0
M  V30 13924 H 1295.86 -3.01792 -2.62224 0
M  V30 13925 H 1297.3 -2.42701 -3.47667 0
M  V30 13926 C 1295.76 -0.961561 -3.22886 0
M  V30 13927 O 1296.29 -0.190489 -4.01248 0
M  V30 13928 N 1294.49 -0.762338 -2.80422 0
M  V30 13929 H 1294.04 -1.39104 -2.16813 0
M  V30 13930 H 1294 0.0363482 -3.14379 0
M  V30 13931 N 1297.77 0.548248 -1.47757 0
M  V30 13932 C 1299.02 1.30243 -1.54535 0
M  V30 13933 C 1299.34 1.93832 -0.213089 0
M  V30 13934 O 1298.61 1.80397 0.763782 0
M  V30 13935 H 1297.19 0.483684 -0.569262 0
M  V30 13936 H 1299.85 0.639485 -1.8411 0
M  V30 13937 H 1298.95 2.09128 -2.31672 0
M  V30 13938 N 1299.25 1.36039 0.795694 0
M  V30 13939 C 1300.18 1.32528 1.92246 0
M  V30 13940 C 1301.16 0.197805 1.68946 0
M  V30 13941 O 1302.35 0.394474 1.90151 0
M  V30 13942 C 1299.48 1.10748 3.29169 0
M  V30 13943 C 1298.43 2.20253 3.66978 0
M  V30 13944 C 1297.76 1.83624 5.02181 0
M  V30 13945 C 1299.06 3.62296 3.76216 0
M  V30 13946 H 1300.75 2.2681 1.95442 0
M  V30 13947 H 1298.3 1.09181 0.938908 0
M  V30 13948 H 1300.25 1.06929 4.07608 0
M  V30 13949 H 1298.97 0.129141 3.26345 0
M  V30 13950 H 1297.63 2.23187 2.90832 0
M  V30 13951 H 1297.28 0.843804 4.95872 0
M  V30 13952 H 1296.98 2.56935 5.28449 0
M  V30 13953 H 1298.5 1.81349 5.83048 0
M  V30 13954 H 1299.92 3.61623 4.44861 0
M  V30 13955 H 1298.31 4.34459 4.13963 0
M  V30 13956 H 1299.38 3.97657 2.77483 0
M  V30 13957 N 1300.73 -1.01913 1.20215 0
M  V30 13958 C 1301.98 -1.75124 1.00876 0
M  V30 13959 C 1302.3 -1.89485 -0.460475 0
M  V30 13960 O 1301.57 -1.43552 -1.33302 0
M  V30 13961 H 1300.15 -0.648777 0.370266 0
M  V30 13962 H 1302.81 -1.22883 1.5128 0
M  V30 13963 H 1301.91 -2.7558 1.46499 0
M  V30 13964 N 1302.21 -1.00763 -1.2118 0
M  V30 13965 C 1303.43 -0.710515 -1.9485 0
M  V30 13966 C 1303.86 0.720934 -1.73736 0
M  V30 13967 O 1303.21 1.49484 -1.02588 0
M  V30 13968 C 1303.26 -1.04035 -3.45267 0
M  V30 13969 O 1302.37 -0.147047 -4.12138 0
M  V30 13970 H 1301.71 -0.264472 -0.609057 0
M  V30 13971 H 1304.24 -1.34858 -1.53865 0
M  V30 13972 H 1304.25 -0.9883 -3.95849 0
M  V30 13973 H 1302.92 -2.08334 -3.59958 0
M  V30 13974 H 1301.5 -0.255847 -3.72021 0
M  V30 13975 N 1303.68 1.3679 -0.7827 0
M  V30 13976 C 1304.61 2.32721 -0.190604 0
M  V30 13977 C 1305.6 1.56321 0.670663 0
M  V30 13978 O 1306.78 1.84507 0.605871 0
M  V30 13979 C 1303.91 3.40564 0.680717 0
M  V30 13980 C 1302.86 4.27925 -0.080118 0
M  V30 13981 C 1302.19 5.26876 0.911361 0
M  V30 13982 C 1303.49 5.06738 -1.26545 0
M  V30 13983 H 1305.18 2.82488 -0.992023 0
M  V30 13984 H 1302.73 1.35818 -0.478484 0
M  V30 13985 H 1304.68 4.06659 1.10482 0
M  V30 13986 H 1303.41 2.89348 1.51477 0
M  V30 13987 H 1302.07 3.63376 -0.485125 0
M  V30 13988 H 1301.71 4.71936 1.74026 0
M  V30 13989 H 1301.41 5.8619 0.406762 0
M  V30 13990 H 1302.94 5.95846 1.33418 0
M  V30 13991 H 1304.35 5.65911 -0.917448 0
M  V30 13992 H 1302.75 5.75432 -1.70289 0
M  V30 13993 H 1303.82 4.38772 -2.06415 0
M  V30 13994 N 1305.16 0.53415 1.48272 0
M  V30 13995 C 1306.39 0.00368464 2.074 0
M  V30 13996 C 1306.81 -1.27003 1.38751 0
M  V30 13997 O 1306.17 -1.75502 0.454817 0
M  V30 13998 C 1306.22 -0.199034 3.6005 0
M  V30 13999 O 1305.32 -1.26679 3.92462 0
M  V30 14000 H 1304.66 0.0409936 0.662733 0
M  V30 14001 H 1307.19 0.743253 1.90622 0
M  V30 14002 H 1307.2 -0.420404 4.05828 0
M  V30 14003 H 1305.88 0.731391 4.09418 0
M  V30 14004 H 1304.46 -1.02775 3.58457 0
M  V30 14005 N 1306.64 -1.55279 0.269478 0
M  V30 14006 C 1308.05 -1.85286 -0.229372 0
M  V30 14007 C 1308.4 -1.19148 -1.55879 0
M  V30 14008 O 1307.53 -0.4778 -2.11059 0
M  V30 14009 C 1308.12 -3.3615 -0.42296 0
M  V30 14010 C 1306.68 -3.66301 -0.866047 0
M  V30 14011 C 1305.83 -2.77265 0.0439028 0
M  V30 14012 H 1308.78 -1.509 0.491427 0
M  V30 14013 H 1308.8 -3.5895 -1.26234 0
M  V30 14014 H 1308.31 -3.84258 0.544768 0
M  V30 14015 H 1306.41 -3.23688 -1.84545 0
M  V30 14016 H 1306.53 -4.73851 -0.707274 0
M  V30 14017 H 1304.89 -2.50299 -0.471433 0
M  V30 14018 H 1305.67 -3.28186 1.00741 0
M  V30 14019 N 1308.12 0.00332656 -1.576 0
M  V30 14020 C 1309.34 0.703587 -1.95101 0
M  V30 14021 C 1309.77 1.66697 -0.871418 0
M  V30 14022 O 1309.13 1.80494 0.170739 0
M  V30 14023 C 1309.17 1.41457 -3.31696 0
M  V30 14024 O 1308.28 2.52885 -3.25765 0
M  V30 14025 H 1307.62 0.187396 -0.637008 0
M  V30 14026 H 1310.15 -0.0488727 -2.04542 0
M  V30 14027 H 1310.16 1.77874 -3.67185 0
M  V30 14028 H 1308.83 0.708182 -4.09826 0
M  V30 14029 H 1307.41 2.18821 -3.01947 0
M  V30 14030 N 1309.6 1.55164 0.276031 0
M  V30 14031 C 1310.87 1.66338 1.02913 0
M  V30 14032 C 1311.25 0.527876 2.04393 0
M  V30 14033 O 1310.6 -0.472437 2.23563 0
M  V30 14034 C 1310.81 3.05427 1.68865 0
M  V30 14035 C 1312.16 3.63075 2.2014 0
M  V30 14036 O 1313.18 3.0804 1.78857 0
M  V30 14037 O 1312.04 4.59492 2.95854 0
M  V30 14038 H 1309.14 0.675446 0.477181 0
M  V30 14039 H 1311.68 1.67504 0.272129 0
M  V30 14040 H 1310.45 3.79514 0.953125 0
M  V30 14041 H 1310.08 3.08147 2.5126 0
M  V30 14042 N 1311.07 -0.540404 1.48045 0
M  V30 14043 C 1312 -1.65538 1.6468 0
M  V30 14044 C 1312.99 -1.62713 0.495847 0
M  V30 14045 O 1314.17 -1.80072 0.727172 0
M  V30 14046 C 1311.3 -3.0415 1.67661 0
M  V30 14047 C 1310.25 -3.2183 2.82152 0
M  V30 14048 C 1309.58 -4.61397 2.70216 0
M  V30 14049 C 1310.88 -3.05596 4.23567 0
M  V30 14050 H 1312.57 -1.51873 2.58021 0
M  V30 14051 H 1310.12 -0.729208 1.24171 0
M  V30 14052 H 1312.07 -3.82013 1.77887 0
M  V30 14053 H 1310.8 -3.18814 0.708907 0
M  V30 14054 H 1309.46 -2.4638 2.71463 0
M  V30 14055 H 1309.1 -4.72883 1.71437 0
M  V30 14056 H 1308.8 -4.74174 3.47035 0
M  V30 14057 H 1310.33 -5.41374 2.82395 0
M  V30 14058 H 1311.74 -3.73261 4.35143 0
M  V30 14059 H 1310.14 -3.29871 5.01303 0
M  V30 14060 H 1311.21 -2.0214 4.40758 0
M  V30 14061 N 1312.55 -1.36459 -0.788468 0
M  V30 14062 C 1313.5 -1.30924 -1.92254 0
M  V30 14063 C 1314.49 -0.200866 -1.68205 0
M  V30 14064 O 1315.7 -0.367927 -1.762 0
M  V30 14065 H 1312.08 -0.407609 -0.631949 0
M  V30 14066 H 1314.05 -2.26695 -1.94041 0
M  V30 14067 C 1312.8 -1.11635 -3.29292 0
M  V30 14068 H 1312.12 -1.96168 -3.48365 0
M  V30 14069 H 1313.56 -1.11808 -4.08993 0
M  V30 14070 C 1312.02 0.178963 -3.36424 0
M  V30 14071 O 1312.55 1.16846 -3.8433 0
M  V30 14072 N 1310.75 0.223962 -2.89736 0
M  V30 14073 H 1310.3 -0.581888 -2.50942 0
M  V30 14074 H 1310.26 1.0903 -2.94889 0
M  V30 14075 N 1314.03 1.01274 -1.20754 0
M  V30 14076 C 1314.98 2.09894 -0.959852 0
M  V30 14077 C 1315.95 1.65726 0.111351 0
M  V30 14078 O 1317.13 1.90769 -0.0341721 0
M  V30 14079 C 1314.27 3.41126 -0.52223 0
M  V30 14080 C 1313.39 3.98749 -1.66202 0
M  V30 14081 C 1312.52 5.18057 -1.17432 0
M  V30 14082 C 1311.56 5.67772 -2.28694 0
M  V30 14083 N 1310.7 6.78338 -1.81114 0
M  V30 14084 H 1315.54 2.30416 -1.88977 0
M  V30 14085 H 1313.07 1.12989 -0.941906 0
M  V30 14086 H 1315.03 4.16451 -0.249799 0
M  V30 14087 H 1313.66 3.20665 0.370688 0
M  V30 14088 H 1312.71 3.20483 -2.04927 0
M  V30 14089 H 1314.03 4.31646 -2.49967 0
M  V30 14090 H 1313.18 6.00601 -0.858086 0
M  V30 14091 H 1311.92 4.86735 -0.306614 0
M  V30 14092 H 1310.92 4.8383 -2.61129 0
M  V30 14093 H 1312.15 6.01127 -3.15948 0
M  V30 14094 H 1310.09 6.48837 -0.966761 0
M  V30 14095 H 1310.01 7.10448 -2.58457 0
M  V30 14096 H 1311.28 7.64437 -1.52502 0
M  V30 14097 N 1315.51 1.01404 1.20644 0
M  V30 14098 C 1316.93 0.728446 1.42006 0
M  V30 14099 C 1317.13 -0.692894 1.89212 0
M  V30 14100 O 1316.18 -1.46101 2.05939 0
M  V30 14101 C 1317.49 1.75198 2.44389 0
M  V30 14102 C 1319.04 1.76983 2.58159 0
M  V30 14103 C 1319.52 2.78256 3.63782 0
M  V30 14104 N 1321.01 2.7698 3.71263 0
M  V30 14105 C 1321.74 3.51999 4.52641 0
M  V30 14106 N 1321.24 4.36687 5.37844 0
M  V30 14107 N 1323.03 3.40608 4.47149 0
M  V30 14108 H 1315.18 1.93168 0.883172 0
M  V30 14109 H 1317.45 0.834287 0.450187 0
M  V30 14110 H 1317.15 2.77013 2.16695 0
M  V30 14111 H 1317.03 1.56203 3.43337 0
M  V30 14112 H 1319.41 0.758551 2.85184 0
M  V30 14113 H 1319.49 2.00051 1.59415 0
M  V30 14114 H 1319.14 3.79546 3.37501 0
M  V30 14115 H 1319.07 2.5245 4.62143 0
M  V30 14116 H 1321.56 2.15546 3.104 0
M  V30 14117 H 1321.87 4.90703 5.97018 0
M  V30 14118 H 1320.22 4.40766 5.37355 0
M  V30 14119 H 1323.41 2.73872 3.79621 0
M  V30 14120 H 1323.58 3.99327 5.10335 0
M  V30 14121 N 1316.99 -1.36373 0.789944 0
M  V30 14122 C 1318.23 -1.99227 0.362582 0
M  V30 14123 C 1318.56 -1.62694 -1.06587 0
M  V30 14124 O 1317.82 -0.873748 -1.75112 0
M  V30 14125 C 1318.12 -3.54243 0.474025 0
M  V30 14126 C 1317.78 -4.10597 1.86336 0
M  V30 14127 C 1316.44 -4.257 2.24349 0
M  V30 14128 C 1318.8 -4.41306 2.77306 0
M  V30 14129 C 1316.12 -4.68824 3.52734 0
M  V30 14130 C 1318.48 -4.85861 4.05119 0
M  V30 14131 C 1317.14 -4.9917 4.43154 0
M  V30 14132 H 1316.41 -0.729025 0.132678 0
M  V30 14133 H 1319.06 -1.62854 1.00751 0
M  V30 14134 H 1317.36 -3.90973 -0.254399 0
M  V30 14135 H 1319.06 -4.00807 0.124384 0
M  V30 14136 H 1315.65 -3.99281 1.55797 0
M  V30 14137 H 1319.83 -4.29205 2.49191 0
M  V30 14138 H 1315.09 -4.77315 3.82073 0
M  V30 14139 H 1319.26 -5.08587 4.75723 0
M  V30 14140 H 1316.89 -5.32344 5.42692 0
M  V30 14141 N 1318.47 -0.542005 -1.47987 0
M  V30 14142 C 1319.71 -0.010246 -2.01697 0
M  V30 14143 C 1320.03 1.34173 -1.42327 0
M  V30 14144 O 1321.23 1.96254 -1.87607 0
M  V30 14145 C 1319.69 0.0321032 -3.59886 0
M  V30 14146 C 1319.3 -1.31571 -4.28244 0
M  V30 14147 C 1321.04 0.512056 -4.214 0
M  V30 14148 C 1318.95 -1.23329 -5.78398 0
M  V30 14149 H 1317.88 -6.02097e-05 -0.754 0
M  V30 14150 H 1320.53 -0.687586 -1.70131 0
M  V30 14151 H 1318.91 0.774774 -3.88347 0
M  V30 14152 H 1320.09 -2.07489 -4.11442 0
M  V30 14153 H 1318.4 -1.73237 -3.78653 0
M  V30 14154 H 1321 0.591875 -5.31414 0
M  V30 14155 H 1321.34 1.52061 -3.87535 0
M  V30 14156 H 1321.87 -0.175293 -3.97414 0
M  V30 14157 H 1318.61 -2.21737 -6.16857 0
M  V30 14158 H 1318.13 -0.51567 -5.97579 0
M  V30 14159 H 1319.81 -0.928975 -6.40296 0
M  V30 14160 N 1319.94 1.55134 -0.277709 0
M  V30 14161 C 1320.87 2.256 0.602232 0
M  V30 14162 C 1321.85 1.24708 1.15681 0
M  V30 14163 O 1323.04 1.53433 1.19046 0
M  V30 14164 C 1320.17 2.97907 1.78519 0
M  V30 14165 C 1319.12 4.0575 1.36203 0
M  V30 14166 C 1318.45 4.65644 2.62829 0
M  V30 14167 C 1319.75 5.19801 0.510327 0
M  V30 14168 H 1321.44 2.99396 0.0145622 0
M  V30 14169 H 1318.99 1.43999 0.00556389 0
M  V30 14170 H 1320.94 3.45915 2.40668 0
M  V30 14171 H 1319.67 2.21649 2.39873 0
M  V30 14172 H 1318.33 3.58557 0.763726 0
M  V30 14173 H 1317.97 3.86053 3.22447 0
M  V30 14174 H 1317.67 5.38463 2.35227 0
M  V30 14175 H 1319.2 5.16403 3.25823 0
M  V30 14176 H 1320.61 5.63845 1.03689 0
M  V30 14177 H 1319.01 5.99197 0.329073 0
M  V30 14178 H 1320.08 4.82614 -0.470273 0
M  V30 14179 N 1321.42 0.00503138 1.57599 0
M  V30 14180 C 1322.65 -0.693231 1.95471 0
M  V30 14181 C 1323.07 -1.66233 0.880246 0
M  V30 14182 O 1322.43 -1.80582 -0.161164 0
M  V30 14183 C 1322.48 -1.39696 3.32442 0
M  V30 14184 O 1321.58 -2.51154 3.27101 0
M  V30 14185 H 1320.92 -0.184015 0.637992 0
M  V30 14186 H 1323.45 0.0597194 2.04513 0
M  V30 14187 H 1323.46 -1.75924 3.68123 0
M  V30 14188 H 1322.14 -0.686438 4.10196 0
M  V30 14189 H 1320.71 -2.17216 3.03103 0
M  V30 14190 N 1322.9 -1.55308 -0.267798 0
M  V30 14191 C 1324.15 -1.76159 -0.998707 0
M  V30 14192 C 1324.47 -0.565573 -1.86095 0
M  V30 14193 O 1323.73 0.45178 -1.90414 0
M  V30 14194 C 1324.03 -3.02286 -1.90678 0
M  V30 14195 C 1323.69 -4.34594 -1.20161 0
M  V30 14196 C 1322.36 -4.70553 -1.00664 0
M  V30 14197 C 1324.71 -5.16475 -0.7002 0
M  V30 14198 C 1322.04 -5.85945 -0.297629 0
M  V30 14199 C 1324.39 -6.326 -0.00475187 0
M  V30 14200 C 1323.05 -6.67195 0.20188 0
M  V30 14201 H 1322.32 -0.644613 -0.365453 0
M  V30 14202 H 1324.97 -1.89579 -0.270545 0
M  V30 14203 H 1323.27 -2.83788 -2.70133 0
M  V30 14204 H 1324.97 -3.15615 -2.47362 0
M  V30 14205 H 1321.56 -4.06334 -1.36348 0
M  V30 14206 H 1325.75 -4.89167 -0.838435 0
M  V30 14207 H 1321 -6.11268 -0.126864 0
M  V30 14208 H 1325.18 -6.95299 0.39151 0
M  V30 14209 H 1322.8 -7.56459 0.753252 0
M  V30 14210 N 1324.38 0.532545 -1.4833 0
M  V30 14211 C 1325.31 1.64662 -1.65555 0
M  V30 14212 C 1326.29 1.62447 -0.50447 0
M  V30 14213 O 1327.47 1.79684 -0.736712 0
M  V30 14214 C 1324.6 3.03256 -1.69272 0
M  V30 14215 C 1323.56 3.20329 -2.83854 0
M  V30 14216 C 1322.88 4.59958 -2.72659 0
M  V30 14217 C 1324.18 3.03345 -4.25181 0
M  V30 14218 H 1325.88 1.50502 -2.58823 0
M  V30 14219 H 1323.42 0.722612 -1.24556 0
M  V30 14220 H 1325.38 3.81064 -1.79911 0
M  V30 14221 H 1324.1 3.18433 -0.725805 0
M  V30 14222 H 1322.76 2.44937 -2.72766 0
M  V30 14223 H 1322.41 4.71967 -1.73942 0
M  V30 14224 H 1322.11 4.72327 -3.49544 0
M  V30 14225 H 1323.63 5.39869 -2.85262 0
M  V30 14226 H 1325.05 3.70948 -4.37116 0
M  V30 14227 H 1323.44 3.27208 -5.03045 0
M  V30 14228 H 1324.51 1.998 -4.41824 0
M  V30 14229 N 1325.86 1.36875 0.78122 0
M  V30 14230 C 1326.81 1.28392 1.88413 0
M  V30 14231 C 1327.79 0.173687 1.5996 0
M  V30 14232 O 1328.98 0.407238 1.72251 0
M  V30 14233 C 1326.11 1.08368 3.25747 0
M  V30 14234 C 1325.2 2.23894 3.60184 0
M  V30 14235 N 1325.59 3.49247 3.65869 0
M  V30 14236 C 1323.89 2.1584 3.90294 0
M  V30 14237 C 1324.59 4.2537 3.96781 0
M  V30 14238 N 1323.56 3.54402 4.1219 0
M  V30 14239 H 1327.36 2.23334 1.91047 0
M  V30 14240 H 1324.88 1.29711 0.977175 0
M  V30 14241 H 1326.88 1.00376 4.04636 0
M  V30 14242 H 1325.54 0.143334 3.24383 0
M  V30 14243 H 1326.55 3.83276 3.4831 0
M  V30 14244 H 1323.22 1.29808 3.96807 0
M  V30 14245 H 1324.61 5.33814 4.08035 0
M  V30 14246 N 1327.33 -1.00632 1.21289 0
M  V30 14247 C 1328.3 -2.07543 0.972548 0
M  V30 14248 C 1329.3 -1.60703 -0.0559244 0
M  V30 14249 O 1330.49 -1.73255 0.181213 0
M  V30 14250 C 1327.62 -3.37696 0.466297 0
M  V30 14251 H 1328.81 -2.30298 1.92101 0
M  V30 14252 H 1326.36 -1.17588 1.02969 0
M  V30 14253 H 1327.1 -3.2062 -0.487148 0
M  V30 14254 H 1326.88 -3.73024 1.20813 0
M  V30 14255 H 1328.37 -4.16388 0.317962 0
M  V30 14256 N 1328.81 -1.02043 -1.20104 0
M  V30 14257 C 1329.76 -0.564679 -2.20897 0
M  V30 14258 C 1330.75 0.382041 -1.56299 0
M  V30 14259 O 1331.94 0.204384 -1.75816 0
M  V30 14260 C 1329.07 0.0917516 -3.43177 0
M  V30 14261 C 1328.15 -0.876903 -4.14935 0
M  V30 14262 N 1328.54 -2.03596 -4.63014 0
M  V30 14263 C 1326.84 -0.698538 -4.40496 0
M  V30 14264 C 1327.54 -2.64621 -5.18026 0
M  V30 14265 N 1326.52 -1.92651 -5.08317 0
M  V30 14266 H 1330.32 -1.44825 -2.5574 0
M  V30 14267 H 1327.83 -0.88628 -1.36084 0
M  V30 14268 H 1329.83 0.43582 -4.14616 0
M  V30 14269 H 1328.49 0.971116 -3.09838 0
M  V30 14270 H 1329.5 -2.41573 -4.58108 0
M  V30 14271 H 1326.18 0.132449 -4.1729 0
M  V30 14272 H 1327.57 -3.62732 -5.65575 0
M  V30 14273 N 1330.29 1.35952 -0.797165 0
M  V30 14274 C 1331.54 1.98639 -0.372405 0
M  V30 14275 C 1331.86 1.63571 1.06158 0
M  V30 14276 O 1331.13 0.913516 1.73297 0
M  V30 14277 H 1329.71 0.734753 -0.13471 0
M  V30 14278 H 1332.37 1.66022 -1.02092 0
M  V30 14279 H 1331.47 3.08533 -0.47049 0
M  V30 14280 N 1331.77 0.549846 1.47697 0
M  V30 14281 C 1332.72 -0.201961 2.29915 0
M  V30 14282 C 1333.69 -0.915287 1.38606 0
M  V30 14283 O 1334.87 -0.912427 1.67569 0
M  V30 14284 C 1332.01 -1.2306 3.22413 0
M  V30 14285 C 1331.12 -0.524091 4.28809 0
M  V30 14286 C 1330.26 -1.53738 5.08466 0
M  V30 14287 C 1329.3 -0.815437 6.06644 0
M  V30 14288 N 1328.43 -1.77521 6.79287 0
M  V30 14289 H 1333.27 0.505289 2.93685 0
M  V30 14290 H 1330.81 0.261012 1.44766 0
M  V30 14291 H 1332.77 -1.83949 3.74458 0
M  V30 14292 H 1331.4 -1.90597 2.60523 0
M  V30 14293 H 1330.45 0.199174 3.79878 0
M  V30 14294 H 1331.76 0.0418145 4.98782 0
M  V30 14295 H 1330.92 -2.22001 5.64624 0
M  V30 14296 H 1329.66 -2.1372 4.38378 0
M  V30 14297 H 1328.66 -0.11884 5.49672 0
M  V30 14298 H 1329.89 -0.221462 6.78739 0
M  V30 14299 H 1327.83 -2.36374 6.11934 0
M  V30 14300 H 1327.75 -1.26126 7.45405 0
M  V30 14301 H 1329.02 -2.44921 7.40023 0
M  V30 14302 N 1333.25 -1.54984 0.285932 0
M  V30 14303 C 1334.18 -2.25916 -0.590259 0
M  V30 14304 C 1335.16 -1.25319 -1.15018 0
M  V30 14305 O 1336.34 -1.54062 -1.18231 0
M  V30 14306 C 1333.47 -2.98849 -1.76936 0
M  V30 14307 C 1332.43 -4.06466 -1.3405 0
M  V30 14308 C 1331.75 -4.67032 -2.60356 0
M  V30 14309 C 1333.05 -5.20064 -0.482754 0
M  V30 14310 H 1334.75 -2.994 0.00131571 0
M  V30 14311 H 1332.29 -1.44 0.00207281 0
M  V30 14312 H 1334.25 -3.47186 -2.3883 0
M  V30 14313 H 1332.97 -2.22918 -2.38694 0
M  V30 14314 H 1331.63 -3.58957 -0.7447 0
M  V30 14315 H 1331.28 -3.87757 -3.20396 0
M  V30 14316 H 1330.98 -5.39703 -2.32368 0
M  V30 14317 H 1332.5 -5.18124 -3.23079 0
M  V30 14318 H 1333.91 -5.64387 -1.00697 0
M  V30 14319 H 1332.31 -5.99363 -0.297291 0
M  V30 14320 H 1333.38 -4.82358 0.495861 0
M  V30 14321 N 1334.72 -0.0133892 -1.57594 0
M  V30 14322 C 1335.97 0.668634 -1.91143 0
M  V30 14323 C 1336.3 1.7303 -0.888299 0
M  V30 14324 O 1335.55 1.95418 0.105056 0
M  V30 14325 C 1335.85 1.33729 -3.31438 0
M  V30 14326 C 1335.52 0.407527 -4.49055 0
M  V30 14327 C 1334.18 0.151573 -4.80961 0
M  V30 14328 C 1336.53 -0.231835 -5.20684 0
M  V30 14329 C 1333.86 -0.751812 -5.81863 0
M  V30 14330 C 1336.21 -1.12318 -6.22549 0
M  V30 14331 C 1334.88 -1.38818 -6.52906 0
M  V30 14332 H 1334.15 0.24467 -0.699441 0
M  V30 14333 H 1336.79 -0.0717876 -1.91365 0
M  V30 14334 H 1335.1 2.15209 -3.27403 0
M  V30 14335 H 1336.8 1.87128 -3.5466 0
M  V30 14336 H 1333.39 0.617192 -4.24133 0
M  V30 14337 H 1337.57 -0.0471268 -4.96278 0
M  V30 14338 H 1332.83 -0.964991 -6.03737 0
M  V30 14339 H 1337 -1.62488 -6.77179 0
M  V30 14340 H 1334.63 -2.08986 -7.3091 0
M  V30 14341 N 1336.2 1.55448 0.259558 0
M  V30 14342 C 1337.43 1.80727 1.00723 0
M  V30 14343 C 1337.85 0.587354 1.79431 0
M  V30 14344 O 1337.2 -0.443819 1.77021 0
M  V30 14345 C 1337.25 3.04064 1.95517 0
M  V30 14346 O 1336.97 4.21346 1.19996 0
M  V30 14347 C 1338.48 3.42049 2.81988 0
M  V30 14348 H 1335.7 0.601713 0.296956 0
M  V30 14349 H 1338.24 2.02486 0.286273 0
M  V30 14350 H 1336.39 2.84392 2.63058 0
M  V30 14351 H 1336.81 4.91164 1.84006 0
M  V30 14352 H 1338.28 4.31485 3.44274 0
M  V30 14353 H 1338.76 2.62059 3.52451 0
M  V30 14354 H 1339.37 3.64027 2.19918 0
M  V30 14355 N 1337.68 -0.524672 1.4861 0
M  V30 14356 C 1339.1 -0.853703 1.34848 0
M  V30 14357 C 1339.3 -1.98194 0.363529 0
M  V30 14358 O 1338.35 -2.51597 -0.213348 0
M  V30 14359 C 1339.67 -1.21622 2.75006 0
M  V30 14360 C 1341.21 -1.3258 2.83534 0
M  V30 14361 C 1341.69 -1.72172 4.24406 0
M  V30 14362 N 1343.18 -1.79265 4.27105 0
M  V30 14363 C 1343.91 -2.11296 5.33049 0
M  V30 14364 N 1343.41 -2.41714 6.49266 0
M  V30 14365 N 1345.2 -2.12347 5.20447 0
M  V30 14366 H 1337.35 0.219671 2.11261 0
M  V30 14367 H 1339.62 0.0356444 0.94733 0
M  V30 14368 H 1339.32 -0.460776 3.48669 0
M  V30 14369 H 1339.2 -2.16516 3.0887 0
M  V30 14370 H 1341.58 -2.072 2.10124 0
M  V30 14371 H 1341.67 -0.357943 2.53283 0
M  V30 14372 H 1341.31 -0.981108 4.98334 0
M  V30 14373 H 1341.24 -2.70017 4.52104 0
M  V30 14374 H 1343.73 -1.58013 3.43279 0
M  V30 14375 H 1344.04 -2.65276 7.25843 0
M  V30 14376 H 1342.39 -2.39222 6.52532 0
M  V30 14377 H 1345.58 -1.88044 4.28669 0
M  V30 14378 H 1345.75 -2.36978 6.03113 0
M  V30 14379 N 1339.16 -1.37287 -0.77395 0
M  V30 14380 C 1340.41 -1.31698 -1.52769 0
M  V30 14381 C 1340.72 0.0968585 -1.9536 0
M  V30 14382 O 1341.93 0.275205 -2.70102 0
M  V30 14383 C 1340.38 -2.31154 -2.75854 0
M  V30 14384 C 1339.99 -3.78055 -2.40371 0
M  V30 14385 C 1341.73 -2.34572 -3.53803 0
M  V30 14386 C 1339.64 -4.69248 -3.59945 0
M  V30 14387 H 1338.57 -0.489456 -0.573541 0
M  V30 14388 H 1341.22 -1.62735 -0.84791 0
M  V30 14389 H 1339.6 -1.93132 -3.45711 0
M  V30 14390 H 1340.78 -4.24902 -1.78312 0
M  V30 14391 H 1339.09 -3.77562 -1.75602 0
M  V30 14392 H 1341.69 -2.99908 -4.42673 0
M  V30 14393 H 1342.03 -1.35868 -3.93504 0
M  V30 14394 H 1342.57 -2.7129 -2.90941 0
M  V30 14395 H 1339.31 -5.69072 -3.25327 0
M  V30 14396 H 1338.83 -4.27108 -4.21117 0
M  V30 14397 H 1340.5 -4.86275 -4.26785 0
M  V30 14398 N 1340.64 0.999871 -1.21821 0
M  V30 14399 C 1341.88 1.73497 -1.0365 0
M  V30 14400 C 1342.21 1.90194 0.430271 0
M  V30 14401 O 1341.48 1.45655 1.31002 0
M  V30 14402 H 1340.06 0.642804 -0.380541 0
M  V30 14403 H 1342.72 1.20461 -1.53216 0
M  V30 14404 H 1341.81 2.73215 -1.50864 0
M  V30 14405 N 1342.11 1.02678 1.19562 0
M  V30 14406 C 1343.05 0.550355 2.21464 0
M  V30 14407 C 1344.03 -0.407674 1.57406 0
M  V30 14408 O 1345.21 -0.325272 1.85672 0
M  V30 14409 C 1342.34 -0.197777 3.38122 0
M  V30 14410 C 1341.38 0.711362 4.20526 0
M  V30 14411 S 1342.22 2.18636 4.88834 0
M  V30 14412 C 1343.37 1.44868 6.08904 0
M  V30 14413 H 1343.6 1.41377 2.61534 0
M  V30 14414 H 1341.14 0.836535 1.29775 0
M  V30 14415 H 1343.1 -0.62329 4.0574 0
M  V30 14416 H 1341.76 -1.03689 2.96492 0
M  V30 14417 H 1340.95 0.133916 5.03822 0
M  V30 14418 H 1340.55 1.0751 3.58214 0
M  V30 14419 H 1342.84 0.734143 6.73511 0
M  V30 14420 H 1343.79 2.25816 6.71128 0
M  V30 14421 H 1344.19 0.947098 5.56498 0
M  V30 14422 N 1343.59 -1.35528 0.804364 0
M  V30 14423 C 1344.5 -2.33616 0.214663 0
M  V30 14424 C 1345.52 -1.61757 -0.64115 0
M  V30 14425 O 1346.69 -1.93647 -0.553424 0
M  V30 14426 C 1343.76 -3.40951 -0.628778 0
M  V30 14427 C 1342.82 -4.28587 0.247269 0
M  V30 14428 C 1342.05 -5.30796 -0.556012 0
M  V30 14429 O 1342.28 -5.41557 -1.79088 0
M  V30 14430 O 1341.21 -6.01878 0.0519437 0
M  V30 14431 H 1345.04 -2.85843 1.02605 0
M  V30 14432 H 1342.62 -1.38259 0.566108 0
M  V30 14433 H 1344.5 -4.06538 -1.10926 0
M  V30 14434 H 1343.18 -2.90999 -1.4178 0
M  V30 14435 H 1342.09 -3.65988 0.774835 0
M  V30 14436 H 1343.42 -4.81931 1.00017 0
M  V30 14437 N 1345.07 -0.557671 -1.47404 0
M  V30 14438 C 1346.3 -0.0386599 -2.06864 0
M  V30 14439 C 1346.71 1.25527 -1.41027 0
M  V30 14440 O 1346.07 1.75318 -0.506949 0
M  V30 14441 C 1346.12 0.160141 -3.61145 0
M  V30 14442 O 1345.84 -1.08255 -4.24515 0
M  V30 14443 C 1347.34 0.716381 -4.37473 0
M  V30 14444 H 1344.56 -0.0460523 -0.669418 0
M  V30 14445 H 1347.11 -0.771214 -1.894 0
M  V30 14446 H 1345.26 0.842826 -3.78121 0
M  V30 14447 H 1345.68 -0.88057 -5.17055 0
M  V30 14448 H 1347.15 0.804773 -5.46102 0
M  V30 14449 H 1347.63 1.72776 -4.03788 0
M  V30 14450 H 1348.23 0.0693787 -4.25243 0
M  V30 14451 N 1346.55 1.54831 -0.294147 0
M  V30 14452 C 1347.8 2.00001 0.317135 0
M  V30 14453 C 1348.12 1.18256 1.54421 0
M  V30 14454 O 1347.38 0.245035 1.9416 0
M  V30 14455 C 1347.68 3.4997 0.72495 0
M  V30 14456 C 1347.34 4.49126 -0.399616 0
M  V30 14457 C 1346.01 4.75958 -0.708354 0
M  V30 14458 C 1348.36 5.08208 -1.15644 0
M  V30 14459 C 1345.69 5.59137 -1.77716 0
M  V30 14460 C 1348.04 5.9255 -2.21512 0
M  V30 14461 C 1346.7 6.17695 -2.52999 0
M  V30 14462 H 1345.97 0.731856 0.116048 0
M  V30 14463 H 1348.62 1.87019 -0.41182 0
M  V30 14464 H 1346.92 3.60526 1.53388 0
M  V30 14465 H 1348.62 3.82341 1.20898 0
M  V30 14466 H 1345.21 4.28341 -0.148877 0
M  V30 14467 H 1349.4 4.87486 -0.931178 0
M  V30 14468 H 1344.65 5.76859 -2.02592 0
M  V30 14469 H 1348.83 6.37359 -2.80617 0
M  V30 14470 H 1346.45 6.81939 -3.35951 0
M  V30 14471 N 1348.03 0.0217466 1.57585 0
M  V30 14472 C 1349.44 -0.51811 1.79367 0
M  V30 14473 C 1349.79 -1.72688 0.931313 0
M  V30 14474 O 1348.91 -2.15949 0.139687 0
M  V30 14475 C 1349.51 -0.946711 3.25304 0
M  V30 14476 C 1348.07 -1.43173 3.48107 0
M  V30 14477 C 1347.22 -0.392996 2.74501 0
M  V30 14478 H 1350.17 0.247822 1.56753 0
M  V30 14479 H 1350.19 -1.81152 3.34611 0
M  V30 14480 H 1349.7 -0.0667536 3.88043 0
M  V30 14481 H 1347.8 -2.33186 2.90612 0
M  V30 14482 H 1347.91 -1.44419 4.56815 0
M  V30 14483 H 1346.28 -0.859471 2.39761 0
M  V30 14484 H 1347.06 0.478368 3.39951 0
M  V30 14485 N 1349.51 -1.55583 -0.251311 0
M  V30 14486 C 1350.47 -1.89148 -1.29443 0
M  V30 14487 C 1351.47 -0.7676 -1.41296 0
M  V30 14488 O 1352.66 -1.03563 -1.40073 0
M  V30 14489 C 1349.79 -2.11601 -2.67279 0
M  V30 14490 H 1350.98 -2.82416 -1.00901 0
M  V30 14491 H 1348.54 -1.48407 -0.490398 0
M  V30 14492 H 1349.27 -1.20787 -3.00967 0
M  V30 14493 H 1349.06 -2.93449 -2.60058 0
M  V30 14494 H 1350.55 -2.38768 -3.42607 0
M  V30 14495 N 1350.98 0.516783 -1.48886 0
M  V30 14496 C 1352.23 1.27375 -1.57808 0
M  V30 14497 C 1352.56 1.92492 -0.256963 0
M  V30 14498 O 1351.84 1.79947 0.738193 0
M  V30 14499 C 1352.12 2.35295 -2.72595 0
M  V30 14500 C 1351.97 1.74783 -4.14453 0
M  V30 14501 C 1353.29 3.36973 -2.83085 0
M  V30 14502 H 1350.41 0.46175 -0.574418 0
M  V30 14503 H 1353.05 0.57434 -1.81111 0
M  V30 14504 H 1351.2 2.94951 -2.52857 0
M  V30 14505 H 1352.88 1.19076 -4.45666 0
M  V30 14506 H 1351.12 1.05258 -4.20836 0
M  V30 14507 H 1351.79 2.52985 -4.90615 0
M  V30 14508 H 1354.27 2.87289 -3.01005 0
M  V30 14509 H 1353.14 4.09864 -3.65106 0
M  V30 14510 H 1353.4 3.98336 -1.91784 0
M  V30 14511 N 1352.46 1.37696 0.766659 0
M  V30 14512 C 1353.42 1.33688 1.86172 0
M  V30 14513 C 1354.42 0.239922 1.59 0
M  V30 14514 O 1355.61 0.496066 1.66988 0
M  V30 14515 C 1352.75 1.07807 3.23405 0
M  V30 14516 H 1353.94 2.311 1.91136 0
M  V30 14517 H 1351.49 1.22799 0.966961 0
M  V30 14518 H 1352.23 0.109477 3.24115 0
M  V30 14519 H 1352.01 1.87213 3.4452 0
M  V30 14520 H 1353.5 1.07665 4.03482 0
M  V30 14521 N 1353.94 -0.993397 1.22349 0
M  V30 14522 C 1354.85 -2.11771 1.00947 0
M  V30 14523 C 1355.87 -1.73949 -0.0420679 0
M  V30 14524 O 1357.04 -2.00837 0.150548 0
M  V30 14525 C 1354.11 -3.41654 0.589359 0
M  V30 14526 C 1353.17 -3.93579 1.71446 0
M  V30 14527 C 1352.4 -5.17264 1.3143 0
M  V30 14528 O 1352.62 -5.70074 0.192876 0
M  V30 14529 O 1351.56 -5.62929 2.13059 0
M  V30 14530 H 1355.38 -2.32708 1.95142 0
M  V30 14531 H 1352.97 -1.10144 1.00939 0
M  V30 14532 H 1354.85 -4.19813 0.365403 0
M  V30 14533 H 1353.53 -3.22077 -0.323738 0
M  V30 14534 H 1352.43 -3.16596 1.99294 0
M  V30 14535 H 1353.77 -4.17588 2.6054 0
M  V30 14536 N 1355.42 -1.03311 -1.19015 0
M  V30 14537 C 1356.36 -0.617567 -2.22384 0
M  V30 14538 C 1357.33 0.370779 -1.61909 0
M  V30 14539 O 1358.52 0.266481 -1.8893 0
M  V30 14540 C 1355.66 0.0211303 -3.45094 0
M  V30 14541 C 1354.77 -1.01377 -4.19937 0
M  V30 14542 C 1353.91 -0.344385 -5.30082 0
M  V30 14543 C 1352.95 -1.3649 -5.96688 0
M  V30 14544 N 1352.08 -0.721026 -6.98388 0
M  V30 14545 H 1356.92 -1.5036 -2.57286 0
M  V30 14546 H 1354.46 -0.75235 -1.26405 0
M  V30 14547 H 1356.42 0.408713 -4.15193 0
M  V30 14548 H 1355.05 0.870721 -3.10835 0
M  V30 14549 H 1354.1 -1.51937 -3.4874 0
M  V30 14550 H 1355.41 -1.78921 -4.65606 0
M  V30 14551 H 1354.57 0.097814 -6.06621 0
M  V30 14552 H 1353.31 0.463216 -4.85495 0
M  V30 14553 H 1352.31 -1.81732 -5.18897 0
M  V30 14554 H 1353.54 -2.17407 -6.43359 0
M  V30 14555 H 1351.48 0.0664057 -6.55966 0
M  V30 14556 H 1351.4 -1.43428 -7.4227 0
M  V30 14557 H 1352.67 -0.30297 -7.78911 0
M  V30 14558 N 1356.9 1.35099 -0.81154 0
M  V30 14559 C 1358.14 1.9892 -0.394815 0
M  V30 14560 C 1358.47 1.6422 1.0366 0
M  V30 14561 O 1357.75 0.908031 1.72003 0
M  V30 14562 C 1358.03 3.55331 -0.58413 0
M  V30 14563 C 1357.89 3.99812 -2.06084 0
M  V30 14564 C 1359.2 4.40098 -0.0129096 0
M  V30 14565 H 1356.32 0.72261 -0.144926 0
M  V30 14566 H 1358.97 1.60173 -1.02199 0
M  V30 14567 H 1357.12 3.88468 -0.0502446 0
M  V30 14568 H 1358.79 3.77061 -2.65749 0
M  V30 14569 H 1357.03 3.50539 -2.55548 0
M  V30 14570 H 1357.7 5.08655 -2.14416 0
M  V30 14571 H 1360.18 4.13449 -0.468917 0
M  V30 14572 H 1359.05 5.4862 -0.175252 0
M  V30 14573 H 1359.31 4.28675 1.0812 0
M  V30 14574 N 1358.37 0.56548 1.47106 0
M  V30 14575 C 1359.3 -0.16567 2.32912 0
M  V30 14576 C 1360.28 -0.900678 1.44298 0
M  V30 14577 O 1361.47 -0.879523 1.73142 0
M  V30 14578 C 1358.6 -1.19092 3.26243 0
M  V30 14579 C 1357.55 -0.571849 4.24163 0
M  V30 14580 C 1356.88 -1.70233 5.06878 0
M  V30 14581 C 1358.18 0.479785 5.20092 0
M  V30 14582 H 1359.87 0.550705 2.94292 0
M  V30 14583 H 1357.42 0.266284 1.41517 0
M  V30 14584 H 1359.37 -1.71064 3.85117 0
M  V30 14585 H 1358.1 -1.93734 2.62934 0
M  V30 14586 H 1356.76 -0.073353 3.66527 0
M  V30 14587 H 1356.4 -2.438 4.39967 0
M  V30 14588 H 1356.1 -1.29384 5.73178 0
M  V30 14589 H 1357.63 -2.22515 5.68612 0
M  V30 14590 H 1359.04 0.0458042 5.73282 0
M  V30 14591 H 1357.44 0.807615 5.94641 0
M  V30 14592 H 1358.51 1.37259 4.65068 0
M  V30 14593 N 1359.85 -1.54672 0.302354 0
M  V30 14594 C 1360.8 -2.2357 -0.573141 0
M  V30 14595 C 1361.77 -1.21878 -1.12849 0
M  V30 14596 O 1362.95 -1.50502 -1.17277 0
M  V30 14597 C 1360.09 -2.98111 -1.7385 0
M  V30 14598 C 1359.21 -4.14579 -1.21441 0
M  V30 14599 C 1358.34 -4.76699 -2.34374 0
M  V30 14600 C 1357.38 -5.8531 -1.79106 0
M  V30 14601 N 1356.52 -6.41379 -2.85618 0
M  V30 14602 H 1361.36 -2.97993 0.0209969 0
M  V30 14603 H 1358.9 -1.47083 0.0221318 0
M  V30 14604 H 1360.85 -3.39561 -2.42392 0
M  V30 14605 H 1359.48 -2.26063 -2.30425 0
M  V30 14606 H 1358.54 -3.78061 -0.421204 0
M  V30 14607 H 1359.85 -4.92824 -0.769821 0
M  V30 14608 H 1359 -5.21009 -3.10861 0
M  V30 14609 H 1357.74 -3.9779 -2.8216 0
M  V30 14610 H 1356.75 -5.40423 -1.01109 0
M  V30 14611 H 1357.97 -6.66104 -1.32222 0
M  V30 14612 H 1355.92 -5.65352 -3.32735 0
M  V30 14613 H 1355.83 -7.14974 -2.45659 0
M  V30 14614 H 1357.1 -6.90346 -3.61998 0
M  V30 14615 N 1361.33 -0.0301034 -1.57571 0
M  V30 14616 C 1362.24 0.967086 -2.1374 0
M  V30 14617 C 1363.26 1.35636 -1.0899 0
M  V30 14618 O 1364.43 1.43758 -1.41052 0
M  V30 14619 C 1361.5 2.23058 -2.65417 0
M  V30 14620 C 1360.56 1.90163 -3.84885 0
M  V30 14621 C 1359.79 3.10488 -4.34088 0
M  V30 14622 O 1360.01 4.23179 -3.8246 0
M  V30 14623 O 1358.95 2.92729 -5.25921 0
M  V30 14624 H 1362.77 0.519486 -2.99224 0
M  V30 14625 H 1360.36 0.190559 -1.4818 0
M  V30 14626 H 1362.24 2.97229 -2.98719 0
M  V30 14627 H 1360.92 2.66997 -1.83015 0
M  V30 14628 H 1359.82 1.13373 -3.56507 0
M  V30 14629 H 1361.16 1.51039 -4.68453 0
M  V30 14630 N 1362.81 1.55714 0.243056 0
M  V30 14631 C 1364.06 1.77726 0.970555 0
M  V30 14632 C 1364.38 0.595108 1.85172 0
M  V30 14633 O 1363.64 -0.42143 1.91108 0
M  V30 14634 C 1363.94 3.05281 1.85845 0
M  V30 14635 C 1363.6 4.36451 1.13232 0
M  V30 14636 C 1362.27 4.72095 0.931656 0
M  V30 14637 C 1364.62 5.17524 0.617944 0
M  V30 14638 C 1361.95 5.86344 0.204373 0
M  V30 14639 C 1364.3 6.32527 -0.0958899 0
M  V30 14640 C 1362.96 6.66789 -0.308 0
M  V30 14641 H 1362.23 0.650345 0.355151 0
M  V30 14642 H 1364.88 1.89986 0.240351 0
M  V30 14643 H 1363.18 2.8805 2.65584 0
M  V30 14644 H 1364.88 3.19511 2.4231 0
M  V30 14645 H 1361.47 4.08451 1.29867 0
M  V30 14646 H 1365.65 4.90439 0.760507 0
M  V30 14647 H 1360.91 6.11393 0.0296 0
M  V30 14648 H 1365.08 6.94588 -0.502077 0
M  V30 14649 H 1362.71 7.55165 -0.873502 0
M  V30 14650 N 1364.29 -0.50888 1.49158 0
M  V30 14651 C 1365.22 -1.62778 1.61356 0
M  V30 14652 C 1366.23 -1.55039 0.496653 0
M  V30 14653 O 1367.42 -1.61115 0.768386 0
M  V30 14654 C 1364.52 -3.01534 1.54694 0
M  V30 14655 C 1363.69 -3.34539 2.81785 0
M  V30 14656 C 1362.75 -4.5267 2.68283 0
M  V30 14657 O 1361.78 -4.54844 3.42207 0
M  V30 14658 N 1362.98 -5.52115 1.79303 0
M  V30 14659 H 1365.75 -1.52744 2.57855 0
M  V30 14660 H 1363.31 -0.696597 1.46148 0
M  V30 14661 H 1365.3 -3.7847 1.43327 0
M  V30 14662 H 1363.87 -3.05535 0.660849 0
M  V30 14663 H 1363.09 -2.46576 3.07561 0
M  V30 14664 H 1364.38 -3.53384 3.66057 0
M  V30 14665 H 1363.77 -5.53153 1.18485 0
M  V30 14666 H 1362.33 -6.28184 1.73863 0
M  V30 14667 N 1365.76 -1.381 -0.759346 0
M  V30 14668 C 1367.01 -1.3419 -1.52055 0
M  V30 14669 C 1367.34 0.0697657 -1.94075 0
M  V30 14670 O 1366.62 1.02975 -1.65004 0
M  V30 14671 C 1366.9 -2.29236 -2.7771 0
M  V30 14672 C 1366.75 -3.79237 -2.41866 0
M  V30 14673 C 1368.07 -2.22511 -3.79706 0
M  V30 14674 H 1365.19 -0.488768 -0.551611 0
M  V30 14675 H 1367.83 -1.68902 -0.870174 0
M  V30 14676 H 1365.98 -1.99764 -3.33206 0
M  V30 14677 H 1367.66 -4.19358 -1.92189 0
M  V30 14678 H 1365.9 -3.97199 -1.74399 0
M  V30 14679 H 1366.57 -4.41193 -3.31742 0
M  V30 14680 H 1369.05 -2.48516 -3.33735 0
M  V30 14681 H 1367.92 -2.91134 -4.6533 0
M  V30 14682 H 1368.18 -1.22206 -4.24874 0
M  V30 14683 N 1367.24 0.986894 -1.22875 0
M  V30 14684 C 1368.17 2.09628 -1.0285 0
M  V30 14685 C 1369.15 1.70019 0.0525118 0
M  V30 14686 O 1370.34 1.93883 -0.110874 0
M  V30 14687 C 1367.47 3.41866 -0.61194 0
M  V30 14688 C 1366.42 3.95351 -1.63956 0
M  V30 14689 C 1365.75 5.23707 -1.07865 0
M  V30 14690 C 1367.05 4.25354 -3.03102 0
M  V30 14691 H 1368.74 2.26639 -1.95641 0
M  V30 14692 H 1366.29 1.0891 -0.942048 0
M  V30 14693 H 1368.24 4.18893 -0.458936 0
M  V30 14694 H 1366.97 3.24701 0.35164 0
M  V30 14695 H 1365.62 3.20462 -1.78045 0
M  V30 14696 H 1365.27 5.02888 -0.106246 0
M  V30 14697 H 1364.97 5.60459 -1.76522 0
M  V30 14698 H 1366.5 6.03362 -0.937359 0
M  V30 14699 H 1367.91 4.93156 -2.92353 0
M  V30 14700 H 1366.31 4.73292 -3.68938 0
M  V30 14701 H 1367.38 3.32887 -3.52583 0
M  V30 14702 N 1368.72 1.0394 1.18466 0
M  V30 14703 C 1369.65 0.650182 2.24265 0
M  V30 14704 C 1370.63 -0.345968 1.66545 0
M  V30 14705 O 1371.82 -0.226348 1.92876 0
M  V30 14706 C 1368.95 0.0110451 3.47298 0
M  V30 14707 C 1367.9 0.930599 4.17761 0
M  V30 14708 C 1367.23 0.156005 5.34472 0
M  V30 14709 C 1368.53 2.24913 4.71393 0
M  V30 14710 H 1370.22 1.53465 2.57078 0
M  V30 14711 H 1367.77 0.739343 1.23571 0
M  V30 14712 H 1369.72 -0.272959 4.20515 0
M  V30 14713 H 1368.44 -0.908288 3.13716 0
M  V30 14714 H 1367.1 1.19897 3.4644 0
M  V30 14715 H 1366.75 -0.765695 4.97138 0
M  V30 14716 H 1366.45 0.768606 5.82551 0
M  V30 14717 H 1367.97 -0.121011 6.1048 0
M  V30 14718 H 1369.39 2.02592 5.36311 0
M  V30 14719 H 1367.79 2.81459 5.30001 0
M  V30 14720 H 1368.86 2.8965 3.88884 0
M  V30 14721 N 1370.2 -1.34667 0.818693 0
M  V30 14722 C 1371.13 -2.28368 0.195126 0
M  V30 14723 C 1372.14 -1.50836 -0.612562 0
M  V30 14724 O 1373.33 -1.72917 -0.442936 0
M  V30 14725 C 1370.43 -3.30601 -0.745411 0
M  V30 14726 C 1369.61 -4.37396 0.0185308 0
M  V30 14727 C 1368.66 -5.19415 -0.842298 0
M  V30 14728 O 1367.69 -5.68467 -0.288821 0
M  V30 14729 N 1368.89 -5.38709 -2.1627 0
M  V30 14730 H 1371.66 -2.8252 1.00013 0
M  V30 14731 H 1369.22 -1.47146 0.675262 0
M  V30 14732 H 1371.21 -3.82367 -1.3258 0
M  V30 14733 H 1369.78 -2.76875 -1.45118 0
M  V30 14734 H 1369 -3.86402 0.780205 0
M  V30 14735 H 1370.29 -5.05877 0.544575 0
M  V30 14736 H 1369.69 -5.00523 -2.63616 0
M  V30 14737 H 1368.24 -5.9361 -2.69204 0
M  V30 14738 N 1371.68 -0.573274 -1.46804 0
M  V30 14739 C 1372.63 0.186085 -2.27239 0
M  V30 14740 C 1373.61 0.870579 -1.35313 0
M  V30 14741 O 1374.8 0.766233 -1.59555 0
M  V30 14742 C 1371.93 1.2052 -3.21449 0
M  V30 14743 C 1371.02 0.523305 -4.20859 0
M  V30 14744 N 1371.41 -0.415768 -5.04088 0
M  V30 14745 C 1369.71 0.775236 -4.39211 0
M  V30 14746 C 1370.41 -0.81341 -5.75985 0
M  V30 14747 N 1369.38 -0.164647 -5.43351 0
M  V30 14748 H 1373.19 -0.535687 -2.88977 0
M  V30 14749 H 1370.7 -0.394373 -1.57539 0
M  V30 14750 H 1372.7 1.76331 -3.77774 0
M  V30 14751 H 1371.36 1.9279 -2.61271 0
M  V30 14752 H 1372.37 -0.790798 -5.11827 0
M  V30 14753 H 1369.04 1.48522 -3.90189 0
M  V30 14754 H 1370.43 -1.58598 -6.52914 0
M  V30 14755 N 1373.15 1.5451 -0.310553 0
M  V30 14756 C 1374.38 2.05204 0.301013 0
M  V30 14757 C 1374.8 1.1859 1.46007 0
M  V30 14758 O 1374.16 0.192081 1.8028 0
M  V30 14759 C 1374.21 3.53221 0.725767 0
M  V30 14760 O 1373.31 3.69596 1.82955 0
M  V30 14761 H 1372.66 0.661566 0.0568026 0
M  V30 14762 H 1375.19 1.99473 -0.455178 0
M  V30 14763 H 1375.2 3.9525 1.01198 0
M  V30 14764 H 1373.87 4.15721 -0.122046 0
M  V30 14765 H 1372.45 3.39472 1.54315 0
M  V30 14766 N 1374.63 0.0384594 1.57553 0
M  V30 14767 C 1376.04 -0.499057 1.79906 0
M  V30 14768 C 1376.4 -1.7169 0.949577 0
M  V30 14769 O 1375.52 -2.15788 0.162584 0
M  V30 14770 C 1376.12 -0.912155 3.2629 0
M  V30 14771 C 1374.67 -1.39473 3.49606 0
M  V30 14772 C 1373.82 -0.363859 2.74902 0
M  V30 14773 H 1376.77 0.264433 1.56481 0
M  V30 14774 H 1376.79 -1.77592 3.36513 0
M  V30 14775 H 1376.31 -0.0255928 3.88092 0
M  V30 14776 H 1374.41 -2.3009 2.93068 0
M  V30 14777 H 1374.52 -1.39566 4.58321 0
M  V30 14778 H 1372.88 -0.833993 2.40659 0
M  V30 14779 H 1373.67 0.514398 3.39424 0
M  V30 14780 N 1376.11 -1.55841 -0.234795 0
M  V30 14781 C 1377.34 -1.82649 -0.982547 0
M  V30 14782 C 1377.76 -0.617097 -1.77689 0
M  V30 14783 O 1377.12 0.434022 -1.76028 0
M  V30 14784 C 1377.17 -3.07319 -1.88646 0
M  V30 14785 O 1376.27 -2.85084 -2.97995 0
M  V30 14786 H 1375.61 -0.60257 -0.278936 0
M  V30 14787 H 1378.14 -2.03041 -0.252117 0
M  V30 14788 H 1378.15 -3.37073 -2.29882 0
M  V30 14789 H 1376.83 -3.94978 -1.30251 0
M  V30 14790 H 1375.4 -2.66528 -2.60801 0
M  V30 14791 N 1377.59 0.500963 -1.49426 0
M  V30 14792 C 1379 1.08248 -1.52116 0
M  V30 14793 C 1379.35 1.93777 -0.30738 0
M  V30 14794 O 1378.48 2.08404 0.582805 0
M  V30 14795 C 1379.07 1.96988 -2.75647 0
M  V30 14796 C 1377.63 2.50303 -2.81115 0
M  V30 14797 C 1376.78 1.27924 -2.4603 0
M  V30 14798 H 1379.73 0.284872 -1.56122 0
M  V30 14799 H 1379.75 2.81675 -2.55811 0
M  V30 14800 H 1379.26 1.34711 -3.6397 0
M  V30 14801 H 1377.36 3.16218 -1.97072 0
M  V30 14802 H 1377.48 2.87453 -3.83286 0
M  V30 14803 H 1375.84 1.60447 -1.9781 0
M  V30 14804 H 1376.62 0.673557 -3.36628 0
M  V30 14805 N 1379.07 1.38501 0.752011 0
M  V30 14806 C 1380.32 1.34112 1.50655 0
M  V30 14807 C 1380.63 -0.0657661 1.95489 0
M  V30 14808 O 1381.84 -0.232199 2.70505 0
M  V30 14809 C 1380.29 2.35514 2.72142 0
M  V30 14810 C 1379.9 3.81831 2.34326 0
M  V30 14811 C 1381.64 2.40171 3.50026 0
M  V30 14812 C 1379.55 4.74915 3.52434 0
M  V30 14813 H 1378.48 0.498519 0.565681 0
M  V30 14814 H 1381.13 1.64064 0.821913 0
M  V30 14815 H 1379.51 1.98607 3.42595 0
M  V30 14816 H 1380.69 4.27685 1.7153 0
M  V30 14817 H 1379 3.80308 1.69573 0
M  V30 14818 H 1381.6 3.06913 4.37845 0
M  V30 14819 H 1381.94 1.42111 3.91293 0
M  V30 14820 H 1382.48 2.75884 2.86588 0
M  V30 14821 H 1379.21 5.74176 3.16232 0
M  V30 14822 H 1378.73 4.33753 4.14268 0
M  V30 14823 H 1380.41 4.93003 4.18995 0
M  V30 14824 N 1380.55 -0.980364 1.23396 0
M  V30 14825 C 1381.79 -1.71826 1.06397 0
M  V30 14826 C 1382.11 -1.90854 -0.399958 0
M  V30 14827 O 1381.38 -1.47721 -1.28668 0
M  V30 14828 H 1379.96 -0.636669 0.390719 0
M  V30 14829 H 1382.63 -1.18008 1.55113 0
M  V30 14830 H 1381.72 -2.7078 1.55192 0
M  V30 14831 N 1382.02 -1.04567 -1.17913 0
M  V30 14832 C 1383.25 -0.772146 -1.92491 0
M  V30 14833 C 1383.67 0.665297 -1.75942 0
M  V30 14834 O 1383.03 1.46144 -1.07292 0
M  V30 14835 C 1383.08 -1.14966 -3.41782 0
M  V30 14836 O 1382.18 -0.278091 -4.11461 0
M  V30 14837 H 1381.52 -0.283715 -0.600335 0
M  V30 14838 H 1384.05 -1.39685 -1.49496 0
M  V30 14839 H 1384.06 -1.11374 -3.92505 0
M  V30 14840 H 1382.74 -2.1968 -3.53148 0
M  V30 14841 H 1381.32 -0.374073 -3.71019 0
M  V30 14842 N 1383.5 1.34231 -0.825823 0
M  V30 14843 C 1384.73 2.02417 -0.428348 0
M  V30 14844 C 1385.14 1.62181 0.966573 0
M  V30 14845 O 1384.5 0.828691 1.62601 0
M  V30 14846 C 1384.55 3.57678 -0.524271 0
M  V30 14847 O 1384.27 3.96458 -1.86422 0
M  V30 14848 C 1385.77 4.43132 -0.122069 0
M  V30 14849 H 1382.99 0.648699 -0.171554 0
M  V30 14850 H 1385.54 1.71443 -1.11478 0
M  V30 14851 H 1383.69 3.87232 0.114112 0
M  V30 14852 H 1384.11 4.91147 -1.84051 0
M  V30 14853 H 1385.58 5.51477 -0.240264 0
M  V30 14854 H 1386.06 4.29139 0.934705 0
M  V30 14855 H 1386.66 4.18912 -0.734366 0
M  V30 14856 N 1384.98 0.581051 1.46498 0
M  V30 14857 C 1386.4 0.242599 1.57745 0
M  V30 14858 C 1386.6 -1.25508 1.57639 0
M  V30 14859 O 1385.65 -2.0367 1.49247 0
M  V30 14860 C 1386.96 0.890342 2.87217 0
M  V30 14861 C 1388.51 0.863778 3.00845 0
M  V30 14862 C 1388.99 1.49103 4.3305 0
M  V30 14863 N 1390.48 1.4553 4.39745 0
M  V30 14864 C 1391.21 1.91003 5.40653 0
M  V30 14865 N 1390.71 2.44442 6.48244 0
M  V30 14866 N 1392.5 1.8193 5.31844 0
M  V30 14867 H 1384.65 1.55382 1.44811 0
M  V30 14868 H 1386.92 0.649375 0.690664 0
M  V30 14869 H 1386.62 1.94383 2.93101 0
M  V30 14870 H 1386.5 0.397569 3.75099 0
M  V30 14871 H 1388.88 -0.181089 2.94544 0
M  V30 14872 H 1388.96 1.39455 2.14443 0
M  V30 14873 H 1388.61 2.53509 4.40109 0
M  V30 14874 H 1388.54 0.935496 5.18224 0
M  V30 14875 H 1391.03 1.06466 3.62593 0
M  V30 14876 H 1391.34 2.77002 7.2145 0
M  V30 14877 H 1389.69 2.48467 6.49068 0
M  V30 14878 H 1392.88 1.3994 4.46693 0
M  V30 14879 H 1393.05 2.17685 6.10342 0
M  V30 14880 N 1386.46 -1.54343 0.318742 0
M  V30 14881 C 1387.39 -2.20392 -0.591833 0
M  V30 14882 C 1388.37 -1.17931 -1.11942 0
M  V30 14883 O 1389.55 -1.4665 -1.18432 0
M  V30 14884 C 1386.68 -2.8618 -1.81159 0
M  V30 14885 C 1385.73 -4.02319 -1.41568 0
M  V30 14886 S 1386.56 -5.33551 -0.456481 0
M  V30 14887 C 1387.71 -6.02831 -1.68363 0
M  V30 14888 H 1387.95 -2.97284 -0.0307625 0
M  V30 14889 H 1385.48 -1.54057 0.102835 0
M  V30 14890 H 1387.44 -3.24707 -2.51148 0
M  V30 14891 H 1386.1 -2.091 -2.34384 0
M  V30 14892 H 1385.29 -4.47197 -2.32445 0
M  V30 14893 H 1384.89 -3.65441 -0.795535 0
M  V30 14894 H 1387.19 -6.24716 -2.62175 0
M  V30 14895 H 1388.13 -6.96488 -1.27709 0
M  V30 14896 H 1388.54 -5.32682 -1.86841 0
M  V30 14897 N 1387.94 -0.0468143 -1.5753 0
M  V30 14898 C 1388.87 0.927092 -2.14306 0
M  V30 14899 C 1389.85 1.32745 -1.06362 0
M  V30 14900 O 1391.03 1.40293 -1.34281 0
M  V30 14901 C 1388.16 2.20343 -2.68452 0
M  V30 14902 C 1387.12 1.94328 -3.81341 0
M  V30 14903 C 1386.44 3.28379 -4.21985 0
M  V30 14904 C 1387.74 1.26835 -5.06666 0
M  V30 14905 H 1389.44 0.454199 -2.95935 0
M  V30 14906 H 1386.98 0.217029 -1.42355 0
M  V30 14907 H 1388.93 2.8887 -3.0681 0
M  V30 14908 H 1387.66 2.6983 -1.84009 0
M  V30 14909 H 1386.32 1.28214 -3.43448 0
M  V30 14910 H 1385.97 3.75658 -3.34499 0
M  V30 14911 H 1385.67 3.11772 -4.98068 0
M  V30 14912 H 1387.19 3.98145 -4.6294 0
M  V30 14913 H 1388.6 1.85389 -5.42498 0
M  V30 14914 H 1387 1.20569 -5.87863 0
M  V30 14915 H 1388.07 0.243759 -4.84287 0
M  V30 14916 N 1389.41 1.55964 0.226527 0
M  V30 14917 C 1390.35 1.88487 1.30405 0
M  V30 14918 C 1391.36 0.772723 1.43293 0
M  V30 14919 O 1392.55 1.05099 1.44279 0
M  V30 14920 C 1389.65 2.074 2.68027 0
M  V30 14921 C 1388.82 3.38389 2.77149 0
M  V30 14922 C 1387.88 3.46795 3.95752 0
M  V30 14923 O 1386.91 4.19862 3.84323 0
M  V30 14924 N 1388.11 2.77573 5.09836 0
M  V30 14925 H 1390.87 2.81506 1.02833 0
M  V30 14926 H 1388.43 1.56449 0.416581 0
M  V30 14927 H 1390.43 2.10344 3.45742 0
M  V30 14928 H 1389 1.2103 2.8822 0
M  V30 14929 H 1388.22 3.47586 1.8595 0
M  V30 14930 H 1389.5 4.24688 2.8021 0
M  V30 14931 H 1388.9 2.17979 5.22017 0
M  V30 14932 H 1387.46 2.86185 5.85612 0
M  V30 14933 N 1390.89 -0.493031 1.4969 0
M  V30 14934 C 1391.82 -1.60215 1.69863 0
M  V30 14935 C 1392.8 -1.61053 0.547362 0
M  V30 14936 O 1393.99 -1.77667 0.784093 0
M  V30 14937 C 1391.12 -2.98662 1.77252 0
M  V30 14938 C 1390.07 -3.1269 2.92248 0
M  V30 14939 C 1389.4 -4.52567 2.84758 0
M  V30 14940 C 1390.7 -2.91965 4.33074 0
M  V30 14941 H 1392.39 -1.43587 2.62723 0
M  V30 14942 H 1389.94 -0.689334 1.26429 0
M  V30 14943 H 1391.89 -3.7616 1.89951 0
M  V30 14944 H 1390.62 -3.16397 0.809976 0
M  V30 14945 H 1389.27 -2.37619 2.79164 0
M  V30 14946 H 1388.92 -4.6719 1.86394 0
M  V30 14947 H 1388.62 -4.62893 3.61944 0
M  V30 14948 H 1390.15 -5.32116 2.99475 0
M  V30 14949 H 1391.56 -3.59228 4.46798 0
M  V30 14950 H 1389.96 -3.13756 5.11544 0
M  V30 14951 H 1391.03 -1.88015 4.46966 0
M  V30 14952 N 1392.37 -1.38898 -0.744656 0
M  V30 14953 C 1393.3 -1.31228 -1.86693 0
M  V30 14954 C 1394.28 -0.187667 -1.61513 0
M  V30 14955 O 1395.47 -0.366497 -1.84903 0
M  V30 14956 C 1392.59 -1.03541 -3.22486 0
M  V30 14957 C 1391.64 -2.18061 -3.6654 0
M  V30 14958 S 1392.47 -3.80271 -3.77033 0
M  V30 14959 C 1393.63 -3.5479 -5.15631 0
M  V30 14960 H 1393.86 -2.26211 -1.92914 0
M  V30 14961 H 1391.39 -1.24839 -0.908544 0
M  V30 14962 H 1393.35 -0.882504 -4.00902 0
M  V30 14963 H 1392.01 -0.102611 -3.13932 0
M  V30 14964 H 1391.21 -1.94257 -4.65059 0
M  V30 14965 H 1390.81 -2.29505 -2.95302 0
M  V30 14966 H 1393.1 -3.11457 -6.01665 0
M  V30 14967 H 1394.04 -4.52735 -5.4446 0
M  V30 14968 H 1394.45 -2.89103 -4.8485 0
M  V30 14969 N 1393.85 0.973806 -1.23914 0
M  V30 14970 C 1395.08 1.75107 -1.10206 0
M  V30 14971 C 1395.49 1.85604 0.345935 0
M  V30 14972 O 1394.85 1.33996 1.239 0
M  V30 14973 C 1394.9 3.17466 -1.72909 0
M  V30 14974 O 1394.62 3.07504 -3.12047 0
M  V30 14975 C 1396.12 4.11557 -1.6473 0
M  V30 14976 H 1393.34 0.549318 -0.385345 0
M  V30 14977 H 1395.89 1.22301 -1.63898 0
M  V30 14978 H 1394.04 3.67277 -1.23234 0
M  V30 14979 H 1394.45 3.97169 -3.42575 0
M  V30 14980 H 1395.93 5.09126 -2.13295 0
M  V30 14981 H 1396.41 4.3498 -0.607352 0
M  V30 14982 H 1397.01 3.67653 -2.13802 0
M  V30 14983 N 1395.33 1.05191 1.17357 0
M  V30 14984 C 1396.58 0.757104 1.86951 0
M  V30 14985 C 1396.89 -0.718637 1.8192 0
M  V30 14986 O 1398.09 -1.12739 2.46986 0
M  V30 14987 C 1396.55 1.30409 3.35442 0
M  V30 14988 C 1396.16 2.80928 3.48975 0
M  V30 14989 C 1397.9 1.08633 4.10365 0
M  V30 14990 C 1395.81 3.28927 4.91488 0
M  V30 14991 H 1394.74 0.279525 0.700273 0
M  V30 14992 H 1397.39 1.2692 1.32528 0
M  V30 14993 H 1395.77 0.719812 3.89403 0
M  V30 14994 H 1396.95 3.45211 3.05231 0
M  V30 14995 H 1395.26 3.01245 2.87473 0
M  V30 14996 H 1397.86 1.41996 5.15501 0
M  V30 14997 H 1398.2 0.0240903 4.16293 0
M  V30 14998 H 1398.73 1.63581 3.6261 0
M  V30 14999 H 1395.47 4.34581 4.90734 0
M  V30 15000 H 1394.99 2.69386 5.35902 0
M  V30 15001 H 1396.67 3.23605 5.60258 0
M  V30 15002 N 1396.8 -1.33791 0.83293 0
M  V30 15003 C 1397.75 -2.31249 0.250357 0
M  V30 15004 C 1398.75 -1.57865 -0.614403 0
M  V30 15005 O 1399.95 -1.72782 -0.504627 0
M  V30 15006 H 1396.33 -0.749421 0.0622268 0
M  V30 15007 H 1398.3 -2.77899 1.08697 0
M  V30 15008 C 1397.05 -3.43082 -0.564783 0
M  V30 15009 H 1396.37 -3.99696 0.0913189 0
M  V30 15010 H 1397.81 -4.13486 -0.938351 0
M  V30 15011 C 1396.27 -2.88414 -1.74124 0
M  V30 15012 O 1396.8 -2.84113 -2.83976 0
M  V30 15013 N 1395.01 -2.45101 -1.56121 0
M  V30 15014 H 1394.55 -2.48799 -0.667607 0
M  V30 15015 H 1394.51 -2.08875 -2.34986 0
M  V30 15016 N 1398.28 -0.588812 -1.46187 0
M  V30 15017 C 1399.22 0.189417 -2.27413 0
M  V30 15018 C 1400.19 0.891224 -1.36 0
M  V30 15019 O 1401.38 0.903883 -1.65415 0
M  V30 15020 C 1398.5 1.27233 -3.13894 0
M  V30 15021 C 1397.55 0.675705 -4.21113 0
M  V30 15022 S 1398.38 -0.502093 -5.33141 0
M  V30 15023 C 1399.54 0.581875 -6.23189 0
M  V30 15024 H 1399.77 -0.499754 -2.9307 0
M  V30 15025 H 1397.31 -0.375854 -1.49755 0
M  V30 15026 H 1399.26 1.89233 -3.64282 0
M  V30 15027 H 1397.92 1.93348 -2.47538 0
M  V30 15028 H 1397.12 1.48991 -4.81475 0
M  V30 15029 H 1396.72 0.131249 -3.7377 0
M  V30 15030 H 1399.01 1.46594 -6.6145 0
M  V30 15031 H 1399.95 0.0148739 -7.08098 0
M  V30 15032 H 1400.36 0.888764 -5.5746 0
M  V30 15033 N 1399.76 1.54172 -0.326923 0
M  V30 15034 C 1401.01 2.00629 0.274641 0
M  V30 15035 C 1401.34 1.21505 1.51878 0
M  V30 15036 O 1400.59 0.286164 1.93596 0
M  V30 15037 C 1400.89 3.51429 0.650553 0
M  V30 15038 C 1400.56 4.48177 -0.494792 0
M  V30 15039 C 1399.22 4.74348 -0.809153 0
M  V30 15040 C 1401.57 5.05641 -1.26398 0
M  V30 15041 C 1398.9 5.55241 -1.89536 0
M  V30 15042 C 1401.25 5.87718 -2.34031 0
M  V30 15043 C 1399.91 6.1219 -2.66045 0
M  V30 15044 H 1399.18 0.734153 0.100498 0
M  V30 15045 H 1401.83 1.86104 -0.451397 0
M  V30 15046 H 1400.14 3.63699 1.45706 0
M  V30 15047 H 1401.83 3.84819 1.12761 0
M  V30 15048 H 1398.42 4.27929 -0.239701 0
M  V30 15049 H 1402.61 4.85401 -1.03437 0
M  V30 15050 H 1397.86 5.72432 -2.14783 0
M  V30 15051 H 1402.04 6.31264 -2.94074 0
M  V30 15052 H 1399.66 6.7466 -3.5034 0
M  V30 15053 N 1401.24 0.0551678 1.57503 0
M  V30 15054 C 1402.2 -0.903065 2.10659 0
M  V30 15055 C 1403.2 -1.23728 1.02703 0
M  V30 15056 O 1404.39 -1.17331 1.2876 0
M  V30 15057 C 1401.52 -2.21171 2.59415 0
M  V30 15058 H 1402.72 -0.442197 2.96622 0
M  V30 15059 H 1400.27 -0.193297 1.551 0
M  V30 15060 H 1401 -2.71831 1.76858 0
M  V30 15061 H 1400.79 -1.98216 3.38309 0
M  V30 15062 H 1402.28 -2.89802 3.00674 0
M  V30 15063 N 1402.72 -1.56081 -0.218252 0
M  V30 15064 C 1403.96 -1.79513 -0.943553 0
M  V30 15065 C 1404.3 -0.625367 -1.83855 0
M  V30 15066 O 1403.57 0.375226 -1.90846 0
M  V30 15067 C 1403.85 -3.13049 -1.77967 0
M  V30 15068 C 1403.71 -4.40479 -0.910939 0
M  V30 15069 C 1405.03 -3.43057 -2.7568 0
M  V30 15070 H 1402.14 -0.653057 -0.341593 0
M  V30 15071 H 1404.79 -1.88811 -0.212226 0
M  V30 15072 H 1402.94 -3.05254 -2.40318 0
M  V30 15073 H 1404.61 -4.60298 -0.303922 0
M  V30 15074 H 1402.85 -4.33259 -0.216513 0
M  V30 15075 H 1403.52 -5.3036 -1.53042 0
M  V30 15076 H 1406 -3.51002 -2.23465 0
M  V30 15077 H 1404.87 -4.37657 -3.31282 0
M  V30 15078 H 1405.14 -2.65389 -3.53584 0
M  V30 15079 N 1404.2 0.485086 -1.49949 0
M  V30 15080 C 1405.15 1.58207 -1.64179 0
M  V30 15081 C 1406.13 1.53037 -0.496844 0
M  V30 15082 O 1407.32 1.60297 -0.750582 0
M  V30 15083 C 1404.45 2.96735 -1.72637 0
M  V30 15084 C 1403.54 3.06841 -2.92762 0
M  V30 15085 N 1403.93 2.86795 -4.16632 0
M  V30 15086 C 1402.23 3.37961 -2.91029 0
M  V30 15087 C 1402.93 3.01502 -4.97465 0
M  V30 15088 N 1401.9 3.31085 -4.31142 0
M  V30 15089 H 1405.7 1.41387 -2.57657 0
M  V30 15090 H 1403.22 0.691542 -1.4694 0
M  V30 15091 H 1405.22 3.75592 -1.80932 0
M  V30 15092 H 1403.88 3.14612 -0.803072 0
M  V30 15093 H 1404.89 2.62653 -4.46356 0
M  V30 15094 H 1401.56 3.61915 -2.08143 0
M  V30 15095 H 1402.95 2.90361 -6.05921 0
M  V30 15096 N 1405.67 1.39291 0.737279 0
M  V30 15097 C 1406.62 1.37969 1.87263 0
M  V30 15098 C 1407.62 0.263156 1.67344 0
M  V30 15099 O 1408.82 0.433069 1.74713 0
M  V30 15100 H 1405.2 0.430782 0.616385 0
M  V30 15101 H 1407.17 2.33741 1.85494 0
M  V30 15102 C 1405.92 1.23779 3.24922 0
M  V30 15103 H 1405.24 2.08963 3.40844 0
M  V30 15104 H 1406.68 1.26911 4.04561 0
M  V30 15105 C 1405.14 -0.0539778 3.36857 0
M  V30 15106 O 1405.67 -1.02501 3.88402 0
M  V30 15107 N 1403.87 -0.116275 2.90367 0
M  V30 15108 H 1403.42 0.674622 2.48609 0
M  V30 15109 H 1403.38 -0.980107 2.98733 0
M  V30 15110 N 1407.15 -0.967221 1.24429 0
M  V30 15111 C 1408.38 -1.75053 1.11226 0
M  V30 15112 C 1408.8 -1.85162 -0.331139 0
M  V30 15113 O 1408.16 -1.32288 -1.23974 0
M  V30 15114 C 1408.21 -3.14882 1.75733 0
M  V30 15115 O 1407.31 -3.99371 1.02842 0
M  V30 15116 H 1406.65 -0.538078 0.389061 0
M  V30 15117 H 1409.18 -1.21325 1.64746 0
M  V30 15118 H 1409.19 -3.65402 1.81509 0
M  V30 15119 H 1407.87 -3.06839 2.80754 0
M  V30 15120 H 1406.44 -3.57854 1.04856 0
M  V30 15121 N 1408.63 -1.05812 -1.16797 0
M  V30 15122 C 1409.56 -0.622584 -2.20582 0
M  V30 15123 C 1410.57 0.316905 -1.59686 0
M  V30 15124 O 1411.76 0.108657 -1.78169 0
M  V30 15125 C 1408.86 0.108124 -3.38727 0
M  V30 15126 C 1408.04 -0.84363 -4.29187 0
M  V30 15127 C 1407.1 -0.15305 -5.25977 0
M  V30 15128 O 1406.12 -0.78915 -5.63703 0
M  V30 15129 N 1407.32 1.10721 -5.69843 0
M  V30 15130 H 1410.09 -1.51532 -2.5857 0
M  V30 15131 H 1407.65 -0.940815 -1.31758 0
M  V30 15132 H 1409.64 0.580395 -4.00517 0
M  V30 15133 H 1408.21 0.902599 -2.99286 0
M  V30 15134 H 1407.43 -1.49538 -3.64735 0
M  V30 15135 H 1408.72 -1.48946 -4.86511 0
M  V30 15136 H 1408.12 1.64423 -5.41278 0
M  V30 15137 H 1406.67 1.52344 -6.33746 0
M  V30 15138 N 1410.11 1.33347 -0.840014 0
M  V30 15139 C 1411.04 2.31703 -0.289138 0
M  V30 15140 C 1412.02 1.59024 0.603759 0
M  V30 15141 O 1413.2 1.86911 0.527071 0
M  V30 15142 C 1410.33 3.43144 0.53566 0
M  V30 15143 C 1409.29 4.272 -0.261544 0
M  V30 15144 C 1408.61 5.30267 0.687075 0
M  V30 15145 C 1409.91 5.00915 -1.47924 0
M  V30 15146 H 1411.61 2.78026 -1.11094 0
M  V30 15147 H 1409.15 1.33666 -0.535658 0
M  V30 15148 H 1411.11 4.10979 0.931351 0
M  V30 15149 H 1409.83 2.95512 1.39069 0
M  V30 15150 H 1408.49 3.60991 -0.638809 0
M  V30 15151 H 1408.14 4.78893 1.53853 0
M  V30 15152 H 1407.84 5.87388 0.157773 0
M  V30 15153 H 1409.36 6.00968 1.08026 0
M  V30 15154 H 1410.78 5.61511 -1.15664 0
M  V30 15155 H 1409.17 5.67692 -1.94541 0
M  V30 15156 H 1410.24 4.29622 -2.24839 0
M  V30 15157 N 1411.59 0.596556 1.45873 0
M  V30 15158 C 1412.53 -0.128713 2.30441 0
M  V30 15159 C 1413.5 -0.870727 1.41448 0
M  V30 15160 O 1414.69 -0.858654 1.70387 0
M  V30 15161 C 1411.83 -1.1274 3.26165 0
M  V30 15162 C 1410.94 -0.387403 4.30259 0
M  V30 15163 C 1410.08 -1.37484 5.131 0
M  V30 15164 C 1409.11 -0.622025 6.08931 0
M  V30 15165 N 1408.25 -1.5582 6.84591 0
M  V30 15166 H 1413.09 0.598466 2.91929 0
M  V30 15167 H 1410.63 0.306936 1.43862 0
M  V30 15168 H 1412.59 -1.71943 3.8012 0
M  V30 15169 H 1411.22 -1.82213 2.66455 0
M  V30 15170 H 1410.27 0.319929 3.79052 0
M  V30 15171 H 1411.58 0.200477 4.98397 0
M  V30 15172 H 1410.73 -2.03926 5.71401 0
M  V30 15173 H 1409.47 -1.99665 4.44955 0
M  V30 15174 H 1408.48 0.0560936 5.49771 0
M  V30 15175 H 1409.7 -0.00541426 6.791 0
M  V30 15176 H 1407.65 -2.16786 6.19145 0
M  V30 15177 H 1407.57 -1.02347 7.4904 0
M  V30 15178 H 1408.83 -2.21254 7.4744 0
M  V30 15179 N 1413.06 -1.53996 0.335095 0
M  V30 15180 C 1414.34 -1.92984 -0.318848 0
M  V30 15181 C 1414.72 -1.26585 -1.68936 0
M  V30 15182 O 1414.07 -0.413702 -2.24724 0
M  V30 15183 C 1414.28 -3.46705 -0.399568 0
M  V30 15184 C 1415.63 -4.19527 -0.654411 0
M  V30 15185 O 1416.65 -3.52923 -0.482026 0
M  V30 15186 O 1415.51 -5.37499 -0.987756 0
M  V30 15187 H 1412.6 -0.806202 -0.1843 0
M  V30 15188 H 1415.15 -1.6526 0.385653 0
M  V30 15189 H 1413.92 -3.87235 0.56253 0
M  V30 15190 H 1413.54 -3.8057 -1.15119 0
M  V30 15191 N 1414.54 -0.0635198 -1.57472 0
M  V30 15192 C 1415.78 0.611234 -1.95047 0
M  V30 15193 C 1416.15 1.67274 -0.94251 0
M  V30 15194 O 1417.35 2.40246 -1.20563 0
M  V30 15195 C 1415.62 1.18071 -3.37334 0
M  V30 15196 S 1417.18 1.87174 -3.96877 0
M  V30 15197 H 1413.99 0.20037 -0.682182 0
M  V30 15198 H 1416.6 -0.135403 -1.95031 0
M  V30 15199 H 1415.3 0.396176 -4.08483 0
M  V30 15200 H 1414.83 1.96388 -3.40874 0
M  V30 15201 H 1416.85 3.15346 -3.83107 0
M  V30 15202 N 1416.02 1.56195 0.209972 0
M  V30 15203 C 1417.27 1.79745 0.932638 0
M  V30 15204 C 1417.59 0.634252 1.83868 0
M  V30 15205 O 1416.85 -0.380798 1.91959 0
M  V30 15206 C 1417.15 3.09154 1.79328 0
M  V30 15207 C 1416.81 4.38754 1.03949 0
M  V30 15208 C 1415.48 4.73965 0.831308 0
M  V30 15209 C 1417.83 5.18718 0.508031 0
M  V30 15210 C 1415.16 5.86646 0.0799547 0
M  V30 15211 C 1417.51 6.32182 -0.230037 0
M  V30 15212 C 1416.17 6.65986 -0.449366 0
M  V30 15213 H 1415.44 0.657732 0.341276 0
M  V30 15214 H 1418.09 1.90453 0.199998 0
M  V30 15215 H 1416.39 2.93618 2.59414 0
M  V30 15216 H 1418.09 3.24578 2.35478 0
M  V30 15217 H 1414.68 4.11114 1.21174 0
M  V30 15218 H 1418.87 4.91941 0.656306 0
M  V30 15219 H 1414.12 6.11318 -0.100092 0
M  V30 15220 H 1418.3 6.93367 -0.649296 0
M  V30 15221 H 1415.92 7.53142 -1.03349 0
M  V30 15222 N 1417.5 -0.477127 1.50204 0
M  V30 15223 C 1418.72 -1.25775 1.6491 0
M  V30 15224 C 1419.15 -1.85187 0.329765 0
M  V30 15225 O 1418.51 -1.67004 -0.705641 0
M  V30 15226 C 1418.55 -2.3466 2.73801 0
M  V30 15227 O 1417.66 -3.39147 2.34634 0
M  V30 15228 H 1417 -0.370291 0.551163 0
M  V30 15229 H 1419.53 -0.568514 1.96543 0
M  V30 15230 H 1419.54 -2.80065 2.96695 0
M  V30 15231 H 1418.21 -1.90788 3.69557 0
M  V30 15232 H 1416.79 -2.99496 2.22163 0
M  V30 15233 N 1418.98 -1.3968 -0.729882 0
M  V30 15234 C 1419.89 -1.41094 -1.87429 0
M  V30 15235 C 1420.9 -0.305142 -1.71303 0
M  V30 15236 O 1422.08 -0.54744 -1.93817 0
M  V30 15237 C 1419.14 -1.25786 -3.23077 0
M  V30 15238 C 1418.2 -2.46382 -3.5156 0
M  V30 15239 C 1417.44 -2.31795 -4.80735 0
M  V30 15240 O 1417.66 -1.32415 -5.54818 0
M  V30 15241 O 1416.59 -3.20883 -5.09232 0
M  V30 15242 H 1420.42 -2.37571 -1.89192 0
M  V30 15243 H 1418.01 -1.2085 -0.878389 0
M  V30 15244 H 1419.89 -1.19402 -4.0413 0
M  V30 15245 H 1418.56 -0.324065 -3.22074 0
M  V30 15246 H 1417.47 -2.58343 -2.70573 0
M  V30 15247 H 1418.8 -3.38473 -3.57347 0
M  V30 15248 N 1420.45 0.960609 -1.2494 0
M  V30 15249 C 1421.36 2.0902 -1.06527 0
M  V30 15250 C 1422.38 1.74 -0.00406641 0
M  V30 15251 O 1423.56 2.00367 -0.203744 0
M  V30 15252 C 1420.62 3.39971 -0.679736 0
M  V30 15253 C 1419.68 3.88895 -1.81821 0
M  V30 15254 C 1418.92 5.13597 -1.45098 0
M  V30 15255 O 1419.14 5.69362 -0.343954 0
M  V30 15256 O 1418.07 5.57083 -2.27909 0
M  V30 15257 H 1421.9 2.27453 -2.01243 0
M  V30 15258 H 1419.48 1.07429 -1.03824 0
M  V30 15259 H 1421.37 4.18696 -0.47658 0
M  V30 15260 H 1420.04 3.22822 0.238231 0
M  V30 15261 H 1418.95 3.11201 -2.07617 0
M  V30 15262 H 1420.28 4.10533 -2.7152 0
M  V30 15263 N 1421.93 1.0643 1.16234 0
M  V30 15264 C 1423.17 0.791061 1.88472 0
M  V30 15265 C 1423.54 -0.670265 1.79921 0
M  V30 15266 O 1424.74 -1.05815 2.47096 0
M  V30 15267 C 1423.01 1.27371 3.33933 0
M  V30 15268 S 1424.57 1.12974 4.24008 0
M  V30 15269 H 1421.39 0.286924 0.650535 0
M  V30 15270 H 1423.99 1.3615 1.40298 0
M  V30 15271 H 1422.69 2.33215 3.37696 0
M  V30 15272 H 1422.22 0.698083 3.87157 0
M  V30 15273 H 1424.24 0.0614942 4.96162 0
M  V30 15274 N 1423.41 -1.329 0.847073 0
M  V30 15275 C 1424.83 -1.50333 0.53593 0
M  V30 15276 C 1425.03 -1.78492 -0.93504 0
M  V30 15277 O 1424.08 -1.85001 -1.71846 0
M  V30 15278 C 1425.4 -2.65254 1.41636 0
M  V30 15279 C 1426.94 -2.79139 1.416 0
M  V30 15280 C 1427.42 -3.97131 2.28147 0
M  V30 15281 N 1428.91 -4.0438 2.25901 0
M  V30 15282 C 1429.64 -4.94893 2.89601 0
M  V30 15283 N 1429.14 -5.90466 3.62383 0
M  V30 15284 N 1430.93 -4.87955 2.79028 0
M  V30 15285 H 1423.08 -1.12886 1.79918 0
M  V30 15286 H 1425.35 -0.555707 0.768045 0
M  V30 15287 H 1425.05 -2.51151 2.46203 0
M  V30 15288 H 1424.93 -3.60856 1.09829 0
M  V30 15289 H 1427.31 -2.92669 0.378013 0
M  V30 15290 H 1427.4 -1.84273 1.77418 0
M  V30 15291 H 1427.04 -3.8436 3.32009 0
M  V30 15292 H 1426.97 -4.91258 1.89665 0
M  V30 15293 H 1429.46 -3.35986 1.72979 0
M  V30 15294 H 1429.77 -6.56212 4.08174 0
M  V30 15295 H 1428.12 -5.90516 3.66491 0
M  V30 15296 H 1431.31 -4.12258 2.21723 0
M  V30 15297 H 1431.48 -5.58295 3.28954 0
M  V30 15298 N 1424.89 -0.604284 -1.45555 0
M  V30 15299 C 1426.11 -0.102634 -2.07146 0
M  V30 15300 C 1426.54 1.20239 -1.44652 0
M  V30 15301 O 1425.9 1.73133 -0.538033 0
M  V30 15302 C 1425.94 0.0270231 -3.6059 0
M  V30 15303 O 1425.05 1.0781 -3.98059 0
M  V30 15304 H 1424.39 -0.0725667 -0.660023 0
M  V30 15305 H 1426.92 -0.833355 -1.86859 0
M  V30 15306 H 1426.93 0.226299 -4.07372 0
M  V30 15307 H 1425.6 -0.925896 -4.05463 0
M  V30 15308 H 1424.18 0.855552 -3.62953 0
M  V30 15309 N 1426.37 1.53816 -0.343257 0
M  V30 15310 C 1427.61 2.01207 0.253721 0
M  V30 15311 C 1427.95 1.23069 1.50225 0
M  V30 15312 O 1427.22 0.31824 1.91879 0
M  V30 15313 C 1427.5 3.5559 0.56815 0
M  V30 15314 C 1427.36 4.44438 -0.692457 0
M  V30 15315 C 1428.68 4.17974 1.37788 0
M  V30 15316 H 1425.79 0.731392 0.0907427 0
M  V30 15317 H 1428.44 1.84254 -0.463736 0
M  V30 15318 H 1426.59 3.70166 1.17937 0
M  V30 15319 H 1428.26 4.41698 -1.33042 0
M  V30 15320 H 1426.5 4.13312 -1.3174 0
M  V30 15321 H 1427.17 5.5034 -0.427715 0
M  V30 15322 H 1429.65 4.07094 0.861043 0
M  V30 15323 H 1428.52 5.26068 1.56663 0
M  V30 15324 H 1428.79 3.72577 2.3799 0
M  V30 15325 N 1427.84 0.0718701 1.57436 0
M  V30 15326 C 1429.09 -0.596799 1.92669 0
M  V30 15327 C 1429.41 -1.70765 0.953876 0
M  V30 15328 O 1430.61 -2.43589 1.19903 0
M  V30 15329 C 1429.07 -1.11291 3.42261 0
M  V30 15330 C 1428.68 -0.0330681 4.47988 0
M  V30 15331 C 1430.42 -1.75564 3.86494 0
M  V30 15332 C 1428.33 -0.56323 5.88712 0
M  V30 15333 H 1427.26 -0.226695 0.719114 0
M  V30 15334 H 1429.91 0.144117 1.82933 0
M  V30 15335 H 1428.29 -1.9068 3.4707 0
M  V30 15336 H 1429.46 0.741501 4.54795 0
M  V30 15337 H 1427.78 0.513438 4.13222 0
M  V30 15338 H 1430.38 -2.16261 4.89014 0
M  V30 15339 H 1430.72 -2.61566 3.23865 0
M  V30 15340 H 1431.25 -1.02798 3.84288 0
M  V30 15341 H 1427.99 0.259632 6.54986 0
M  V30 15342 H 1427.51 -1.30532 5.85424 0
M  V30 15343 H 1429.19 -1.03961 6.38593 0
M  V30 15344 N 1429.32 -1.56304 -0.201686 0
M  V30 15345 C 1430.25 -1.90538 -1.27389 0
M  V30 15346 C 1431.27 -0.795422 -1.42045 0
M  V30 15347 O 1432.46 -1.07381 -1.42589 0
M  V30 15348 C 1429.56 -2.11638 -2.64694 0
M  V30 15349 C 1428.73 -3.42755 -2.71731 0
M  V30 15350 C 1427.79 -3.53047 -3.90185 0
M  V30 15351 O 1426.81 -4.25923 -3.77595 0
M  V30 15352 N 1428.02 -2.85649 -5.05356 0
M  V30 15353 H 1430.78 -2.83106 -0.983411 0
M  V30 15354 H 1428.34 -1.57092 -0.391638 0
M  V30 15355 H 1430.33 -2.15818 -3.42352 0
M  V30 15356 H 1428.9 -1.256 -2.86258 0
M  V30 15357 H 1428.12 -3.50501 -1.80397 0
M  V30 15358 H 1429.41 -4.29092 -2.73418 0
M  V30 15359 H 1428.81 -2.26256 -5.18483 0
M  V30 15360 H 1427.37 -2.95465 -5.80985 0
M  V30 15361 N 1430.8 0.469154 -1.50455 0
M  V30 15362 C 1431.71 1.59271 -1.7225 0
M  V30 15363 C 1432.73 1.63119 -0.605668 0
M  V30 15364 O 1433.9 1.80952 -0.884222 0
M  V30 15365 C 1430.97 2.95475 -1.81372 0
M  V30 15366 C 1430.03 3.02 -3.05114 0
M  V30 15367 C 1429.26 4.31707 -3.13791 0
M  V30 15368 O 1429.48 5.2232 -2.29211 0
M  V30 15369 O 1428.42 4.43864 -4.06532 0
M  V30 15370 H 1432.24 1.43804 -2.67496 0
M  V30 15371 H 1429.83 0.648855 -1.34574 0
M  V30 15372 H 1431.71 3.76367 -1.89541 0
M  V30 15373 H 1430.39 3.11136 -0.893094 0
M  V30 15374 H 1429.29 2.20178 -3.02444 0
M  V30 15375 H 1430.63 2.91275 -3.96761 0
M  V30 15376 N 1432.28 1.40065 0.722464 0
M  V30 15377 C 1433.21 1.35695 1.84715 0
M  V30 15378 C 1434.22 0.263522 1.60653 0
M  V30 15379 O 1435.41 0.523382 1.70655 0
M  V30 15380 C 1432.51 1.08722 3.20987 0
M  V30 15381 C 1431.69 2.29586 3.72302 0
M  V30 15382 C 1430.74 1.98879 4.87169 0
M  V30 15383 O 1429.77 2.71681 5.00178 0
M  V30 15384 N 1430.97 0.962554 5.72464 0
M  V30 15385 H 1433.74 2.32621 1.88964 0
M  V30 15386 H 1431.3 1.3433 0.903723 0
M  V30 15387 H 1433.29 0.861772 3.95418 0
M  V30 15388 H 1431.86 0.204869 3.11928 0
M  V30 15389 H 1431.08 2.68004 2.8908 0
M  V30 15390 H 1432.37 3.10176 4.03322 0
M  V30 15391 H 1431.77 0.359452 5.64557 0
M  V30 15392 H 1430.32 0.797003 6.46909 0
M  V30 15393 N 1433.76 -0.95397 1.25448 0
M  V30 15394 C 1434.72 -2.03231 1.0597 0
M  V30 15395 C 1435.72 -1.60795 0.0122855 0
M  V30 15396 O 1436.91 -1.7233 0.254533 0
M  V30 15397 C 1434.04 -3.35414 0.609105 0
M  V30 15398 H 1435.24 -2.21943 2.01696 0
M  V30 15399 H 1432.79 -1.13115 1.07864 0
M  V30 15400 H 1433.52 -3.22398 -0.350723 0
M  V30 15401 H 1433.31 -3.67564 1.36526 0
M  V30 15402 H 1434.8 -4.14664 0.49428 0
M  V30 15403 N 1435.24 -1.07045 -1.15668 0
M  V30 15404 C 1436.2 -0.69198 -2.18505 0
M  V30 15405 C 1437.2 0.266185 -1.58582 0
M  V30 15406 O 1438.39 0.0475566 -1.74135 0
M  V30 15407 C 1435.52 -0.0194196 -3.40894 0
M  V30 15408 H 1436.71 -1.60241 -2.53501 0
M  V30 15409 H 1434.27 -0.866598 -1.30076 0
M  V30 15410 H 1435 0.903398 -3.11463 0
M  V30 15411 H 1434.79 -0.708519 -3.85645 0
M  V30 15412 H 1436.28 0.230829 -4.16962 0
M  V30 15413 N 1436.71 1.32449 -0.85411 0
M  V30 15414 C 1437.68 2.27183 -0.303377 0
M  V30 15415 C 1438.68 1.51582 0.536622 0
M  V30 15416 O 1439.87 1.70684 0.348211 0
M  V30 15417 C 1437 3.36086 0.570852 0
M  V30 15418 H 1438.19 2.77408 -1.1395 0
M  V30 15419 H 1435.74 1.43111 -0.628402 0
M  V30 15420 H 1436.48 2.91128 1.42881 0
M  V30 15421 H 1436.26 3.92088 -0.030399 0
M  V30 15422 H 1437.75 4.06675 0.948972 0
M  V30 15423 N 1438.19 0.611994 1.45232 0
M  V30 15424 C 1439.12 -0.0914869 2.33321 0
M  V30 15425 C 1440.1 -0.854315 1.4709 0
M  V30 15426 O 1441.29 -0.823994 1.75852 0
M  V30 15427 C 1438.42 -1.08652 3.29867 0
M  V30 15428 C 1437.37 -0.436615 4.25767 0
M  V30 15429 C 1436.7 -1.54021 5.12037 0
M  V30 15430 C 1438 0.645005 5.18302 0
M  V30 15431 H 1439.69 0.644053 2.92391 0
M  V30 15432 H 1437.24 0.311171 1.40598 0
M  V30 15433 H 1439.19 -1.58726 3.90364 0
M  V30 15434 H 1437.91 -1.85271 2.68965 0
M  V30 15435 H 1436.57 0.0432918 3.66574 0
M  V30 15436 H 1436.22 -2.29679 4.475 0
M  V30 15437 H 1435.92 -1.11084 5.77005 0
M  V30 15438 H 1437.45 -2.04313 5.75403 0
M  V30 15439 H 1438.86 0.228166 5.72846 0
M  V30 15440 H 1437.26 0.996387 5.9177 0
M  V30 15441 H 1438.33 1.51985 4.60466 0
M  V30 15442 N 1439.67 -1.53632 0.351409 0
M  V30 15443 C 1440.92 -2.00643 -0.242208 0
M  V30 15444 C 1441.24 -1.24074 -1.50435 0
M  V30 15445 O 1440.51 -0.350067 -1.92747 0
M  V30 15446 H 1439.09 -0.741252 -0.0924904 0
M  V30 15447 H 1441.75 -1.89039 0.474379 0
M  V30 15448 H 1440.85 -3.084 -0.479151 0
M  V30 15449 N 1441.15 -0.0802183 -1.57396 0
M  V30 15450 C 1442.08 0.881426 -2.16225 0
M  V30 15451 C 1443.06 1.30459 -1.09154 0
M  V30 15452 O 1444.24 1.37413 -1.37227 0
M  V30 15453 C 1441.37 2.14599 -2.73065 0
M  V30 15454 C 1440.33 1.86195 -3.85377 0
M  V30 15455 C 1439.65 3.19354 -4.28856 0
M  V30 15456 C 1440.95 1.16059 -5.09242 0
M  V30 15457 H 1442.65 0.391325 -2.96832 0
M  V30 15458 H 1440.19 0.186785 -1.42783 0
M  V30 15459 H 1442.15 2.82297 -3.12868 0
M  V30 15460 H 1440.87 2.65866 -1.89691 0
M  V30 15461 H 1439.53 1.209 -3.46091 0
M  V30 15462 H 1439.18 3.68479 -3.42392 0
M  V30 15463 H 1438.88 3.01137 -5.04569 0
M  V30 15464 H 1440.4 3.88235 -4.71281 0
M  V30 15465 H 1441.82 1.7384 -5.46308 0
M  V30 15466 H 1440.21 1.08072 -5.90288 0
M  V30 15467 H 1441.28 0.14098 -4.84695 0
M  V30 15468 N 1442.63 1.56409 0.193394 0
M  V30 15469 C 1443.59 1.93822 1.22334 0
M  V30 15470 C 1444.59 0.819513 1.3835 0
M  V30 15471 O 1445.78 1.0869 1.36132 0
M  V30 15472 C 1442.91 2.21375 2.59241 0
M  V30 15473 H 1444.1 2.85967 0.903502 0
M  V30 15474 H 1441.66 1.50125 0.43498 0
M  V30 15475 H 1442.39 1.31874 2.96277 0
M  V30 15476 H 1442.18 3.02899 2.48988 0
M  V30 15477 H 1443.67 2.51319 3.33509 0
M  V30 15478 N 1444.1 -0.461169 1.50702 0
M  V30 15479 C 1445.04 -1.57702 1.64941 0
M  V30 15480 C 1446.01 -1.54808 0.497312 0
M  V30 15481 O 1447.2 -1.74286 0.718104 0
M  V30 15482 C 1444.33 -2.96285 1.64112 0
M  V30 15483 C 1443.37 -3.17296 2.85001 0
M  V30 15484 S 1444.2 -2.96134 4.46167 0
M  V30 15485 C 1445.36 -4.37042 4.48046 0
M  V30 15486 H 1445.59 -1.45386 2.59327 0
M  V30 15487 H 1443.13 -0.649209 1.40088 0
M  V30 15488 H 1445.08 -3.76178 1.64318 0
M  V30 15489 H 1443.75 -3.05983 0.709442 0
M  V30 15490 H 1442.94 -4.18561 2.80754 0
M  V30 15491 H 1442.54 -2.45191 2.82413 0
M  V30 15492 H 1444.83 -5.29846 4.2222 0
M  V30 15493 H 1445.78 -4.4633 5.49723 0
M  V30 15494 H 1446.18 -4.19584 3.77637 0
M  V30 15495 N 1445.58 -1.40446 -0.715026 0
M  V30 15496 C 1446.83 -1.38754 -1.47491 0
M  V30 15497 C 1447.16 0.0099443 -1.94497 0
M  V30 15498 O 1446.41 0.99458 -1.68543 0
M  V30 15499 C 1446.71 -2.32392 -2.7153 0
M  V30 15500 C 1446.38 -3.79635 -2.43286 0
M  V30 15501 C 1445.04 -4.19751 -2.35293 0
M  V30 15502 C 1447.39 -4.72681 -2.19596 0
M  V30 15503 C 1444.72 -5.50947 -2.01679 0
M  V30 15504 C 1447.07 -6.04176 -1.87495 0
M  V30 15505 C 1445.73 -6.43333 -1.77985 0
M  V30 15506 H 1445 -0.507738 -0.539706 0
M  V30 15507 H 1447.65 -1.73104 -0.81898 0
M  V30 15508 H 1445.96 -1.91229 -3.41963 0
M  V30 15509 H 1447.65 -2.28366 -3.29621 0
M  V30 15510 H 1444.24 -3.47852 -2.50393 0
M  V30 15511 H 1448.43 -4.42506 -2.24727 0
M  V30 15512 H 1443.68 -5.80187 -1.92854 0
M  V30 15513 H 1447.86 -6.75788 -1.68179 0
M  V30 15514 H 1445.48 -7.44909 -1.51706 0
M  V30 15515 N 1447.06 0.947303 -1.25952 0
M  V30 15516 C 1448.28 1.73261 -1.13997 0
M  V30 15517 C 1448.71 1.85666 0.301639 0
M  V30 15518 O 1448.07 1.34244 1.21854 0
M  V30 15519 C 1448.12 3.12046 -1.8072 0
M  V30 15520 O 1447.22 3.97684 -1.09182 0
M  V30 15521 H 1446.56 0.53182 -0.397572 0
M  V30 15522 H 1449.09 1.18689 -1.66656 0
M  V30 15523 H 1449.1 3.62468 -1.87299 0
M  V30 15524 H 1447.78 3.02334 -2.856 0
M  V30 15525 H 1446.35 3.56141 -1.10536 0
M  V30 15526 N 1448.54 1.07657 1.15099 0
M  V30 15527 C 1449.47 0.721201 2.22083 0
M  V30 15528 C 1450.45 -0.292808 1.67561 0
M  V30 15529 O 1451.63 -0.164872 1.93499 0
M  V30 15530 C 1448.76 0.12153 3.47087 0
M  V30 15531 C 1447.72 1.06303 4.14588 0
M  V30 15532 C 1447.04 0.325964 5.33706 0
M  V30 15533 C 1448.34 2.39796 4.63999 0
M  V30 15534 H 1450.04 1.61566 2.52065 0
M  V30 15535 H 1447.58 0.778282 1.21156 0
M  V30 15536 H 1449.54 -0.139037 4.21171 0
M  V30 15537 H 1448.26 -0.808022 3.16447 0
M  V30 15538 H 1446.92 1.30858 3.4245 0
M  V30 15539 H 1446.57 -0.607147 4.99322 0
M  V30 15540 H 1446.27 0.953552 5.79811 0
M  V30 15541 H 1447.79 0.0732695 6.10556 0
M  V30 15542 H 1449.21 2.19552 5.29594 0
M  V30 15543 H 1447.6 2.98178 5.20778 0
M  V30 15544 H 1448.67 3.01876 3.79472 0
M  V30 15545 N 1450.02 -1.31994 0.861122 0
M  V30 15546 C 1450.95 -2.31214 0.325963 0
M  V30 15547 C 1451.93 -1.59965 -0.578383 0
M  V30 15548 O 1453.11 -1.87726 -0.497268 0
M  V30 15549 C 1450.24 -3.43953 -0.481001 0
M  V30 15550 C 1449.2 -4.2673 0.329474 0
M  V30 15551 C 1448.52 -5.31293 -0.602627 0
M  V30 15552 C 1449.82 -4.98498 1.55874 0
M  V30 15553 H 1451.52 -2.76223 1.15503 0
M  V30 15554 H 1449.06 -1.32797 0.556856 0
M  V30 15555 H 1451.02 -4.12409 -0.86585 0
M  V30 15556 H 1449.74 -2.97687 -1.3435 0
M  V30 15557 H 1448.4 -3.59929 0.696159 0
M  V30 15558 H 1448.05 -4.8128 -1.46215 0
M  V30 15559 H 1447.75 -5.87565 -0.0643044 0
M  V30 15560 H 1449.27 -6.02611 -0.984512 0
M  V30 15561 H 1450.68 -5.596 1.24583 0
M  V30 15562 H 1449.08 -5.64525 2.03548 0
M  V30 15563 H 1450.15 -4.25991 2.31646 0
M  V30 15564 N 1451.49 -0.619688 -1.44906 0
M  V30 15565 C 1452.74 -0.11981 -2.02446 0
M  V30 15566 C 1453.07 1.2509 -1.48546 0
M  V30 15567 O 1452.35 1.82781 -0.664942 0
M  V30 15568 C 1452.63 -0.0940205 -3.59977 0
M  V30 15569 C 1452.48 -1.49626 -4.24184 0
M  V30 15570 C 1453.8 0.58748 -4.36161 0
M  V30 15571 H 1450.92 -0.0450119 -0.735624 0
M  V30 15572 H 1453.56 -0.793975 -1.72615 0
M  V30 15573 H 1451.71 0.480073 -3.85522 0
M  V30 15574 H 1453.39 -2.11836 -4.09784 0
M  V30 15575 H 1451.63 -2.05348 -3.82119 0
M  V30 15576 H 1452.3 -1.43035 -5.33146 0
M  V30 15577 H 1454.78 0.0993863 -4.15981 0
M  V30 15578 H 1453.65 0.574672 -5.45883 0
M  V30 15579 H 1453.91 1.65579 -4.09922 0
M  V30 15580 N 1452.97 1.53444 -0.359552 0
M  V30 15581 C 1454.39 1.59598 -0.00824946 0
M  V30 15582 C 1454.59 1.37492 1.47303 0
M  V30 15583 O 1453.64 1.1771 2.23385 0
M  V30 15584 C 1454.96 2.9718 -0.45878 0
M  V30 15585 C 1456.51 3.1027 -0.412485 0
M  V30 15586 C 1456.98 4.50255 -0.838733 0
M  V30 15587 N 1458.47 4.56352 -0.793552 0
M  V30 15588 C 1459.21 5.62845 -1.09513 0
M  V30 15589 N 1458.7 6.77119 -1.46567 0
M  V30 15590 N 1460.5 5.52799 -1.01832 0
M  V30 15591 H 1452.65 1.66065 -1.32424 0
M  V30 15592 H 1454.91 0.778561 -0.540876 0
M  V30 15593 H 1454.62 3.18475 -1.4922 0
M  V30 15594 H 1454.49 3.7687 0.157741 0
M  V30 15595 H 1456.88 2.88689 0.611791 0
M  V30 15596 H 1456.96 2.32602 -1.06442 0
M  V30 15597 H 1456.6 4.72573 -1.8611 0
M  V30 15598 H 1456.53 5.26344 -0.164109 0
M  V30 15599 H 1459.02 3.74299 -0.52048 0
M  V30 15600 H 1459.34 7.54313 -1.68021 0
M  V30 15601 H 1457.68 6.78525 -1.50427 0
M  V30 15602 H 1460.87 4.62403 -0.728059 0
M  V30 15603 H 1461.04 6.35698 -1.25668 0
M  V30 15604 N 1454.45 0.0885642 1.57351 0
M  V30 15605 C 1455.87 -0.268088 1.57332 0
M  V30 15606 C 1456.07 -1.68875 1.09924 0
M  V30 15607 O 1455.12 -2.40385 0.772729 0
M  V30 15608 C 1456.44 -0.0624654 3.00635 0
M  V30 15609 C 1457.98 -0.130717 3.12727 0
M  V30 15610 C 1458.46 0.0468305 4.57976 0
M  V30 15611 N 1459.95 -0.00822093 4.63199 0
M  V30 15612 C 1460.68 0.104497 5.73305 0
M  V30 15613 N 1460.18 0.271682 6.92267 0
M  V30 15614 N 1461.97 0.0462333 5.62081 0
M  V30 15615 H 1454.12 1.01686 1.86477 0
M  V30 15616 H 1456.39 0.397971 0.86042 0
M  V30 15617 H 1456.09 0.918505 3.39494 0
M  V30 15618 H 1455.97 -0.807602 3.68453 0
M  V30 15619 H 1458.35 -1.10219 2.73744 0
M  V30 15620 H 1458.44 0.645801 2.47514 0
M  V30 15621 H 1458.08 1.01514 4.97652 0
M  V30 15622 H 1458.01 -0.7493 5.21242 0
M  V30 15623 H 1460.5 -0.135164 3.77658 0
M  V30 15624 H 1460.81 0.349381 7.7201 0
M  V30 15625 H 1459.16 0.307265 6.9432 0
M  V30 15626 H 1462.35 -0.0831995 4.68026 0
M  V30 15627 H 1462.52 0.137529 6.47854 0
M  V30 15628 N 1455.93 -1.56509 -0.185096 0
M  V30 15629 C 1457.17 -1.82997 -0.910576 0
M  V30 15630 C 1457.53 -0.667514 -1.80023 0
M  V30 15631 O 1458.73 -0.812514 -2.56226 0
M  V30 15632 C 1457 -3.14549 -1.69688 0
M  V30 15633 S 1458.56 -3.62474 -2.47301 0
M  V30 15634 H 1455.38 -0.642148 -0.305233 0
M  V30 15635 H 1457.98 -1.94731 -0.173217 0
M  V30 15636 H 1456.69 -3.97158 -1.0341 0
M  V30 15637 H 1456.22 -3.05719 -2.47587 0
M  V30 15638 H 1458.23 -3.28705 -3.71709 0
M  V30 15639 N 1457.41 0.45317 -1.50944 0
M  V30 15640 C 1458.63 1.22672 -1.66611 0
M  V30 15641 C 1459.05 1.85398 -0.356814 0
M  V30 15642 O 1458.41 1.70026 0.663122 0
M  V30 15643 C 1458.46 2.32238 -2.77034 0
M  V30 15644 O 1458.18 1.72081 -4.02889 0
M  V30 15645 C 1459.68 3.22802 -3.03832 0
M  V30 15646 H 1456.9 0.370337 -0.559546 0
M  V30 15647 H 1459.44 0.538884 -1.97272 0
M  V30 15648 H 1457.6 2.96765 -2.49017 0
M  V30 15649 H 1458.01 2.4437 -4.64095 0
M  V30 15650 H 1459.49 3.95851 -3.84716 0
M  V30 15651 H 1459.96 3.82636 -2.15608 0
M  V30 15652 H 1460.57 2.63993 -3.33449 0
M  V30 15653 N 1458.88 1.40823 0.707568 0
M  V30 15654 C 1460.12 1.40992 1.47989 0
M  V30 15655 C 1460.49 0.0138056 1.91995 0
M  V30 15656 O 1461.69 -0.109666 2.68576 0
M  V30 15657 C 1459.96 2.37857 2.66756 0
M  V30 15658 S 1461.52 2.56453 3.56058 0
M  V30 15659 H 1458.34 0.499622 0.505864 0
M  V30 15660 H 1460.94 1.77161 0.826703 0
M  V30 15661 H 1459.64 3.38113 2.32611 0
M  V30 15662 H 1459.17 2.03 3.36979 0
M  V30 15663 H 1461.19 1.82294 4.61501 0
M  V30 15664 N 1460.36 -0.94061 1.26453 0
M  V30 15665 C 1461.29 -2.05667 1.10559 0
M  V30 15666 C 1462.27 -1.70097 0.0106258 0
M  V30 15667 O 1463.46 -1.93338 0.182756 0
M  V30 15668 C 1460.59 -3.3936 0.7384 0
M  V30 15669 C 1459.54 -3.88993 1.78517 0
M  V30 15670 C 1458.87 -5.19343 1.27228 0
M  V30 15671 C 1460.17 -4.13812 3.1868 0
M  V30 15672 H 1461.86 -2.19221 2.03918 0
M  V30 15673 H 1459.41 -1.05339 0.98182 0
M  V30 15674 H 1461.36 -4.16902 0.61409 0
M  V30 15675 H 1460.09 -3.25783 -0.230887 0
M  V30 15676 H 1458.74 -3.13633 1.89816 0
M  V30 15677 H 1458.39 -5.02147 0.292816 0
M  V30 15678 H 1458.09 -5.53521 1.97201 0
M  V30 15679 H 1459.62 -5.99468 1.16065 0
M  V30 15680 H 1461.03 -4.81966 3.10455 0
M  V30 15681 H 1459.43 -4.59273 3.86249 0
M  V30 15682 H 1460.5 -3.19571 3.64695 0
M  V30 15683 N 1461.84 -1.08266 -1.14527 0
M  V30 15684 C 1462.77 -0.732968 -2.21698 0
M  V30 15685 C 1463.75 0.283917 -1.67714 0
M  V30 15686 O 1464.94 0.154607 -1.93584 0
M  V30 15687 C 1462.07 -0.139935 -3.47018 0
M  V30 15688 C 1461.02 -1.08501 -4.14019 0
M  V30 15689 C 1460.35 -0.354263 -5.33525 0
M  V30 15690 C 1461.65 -2.42254 -4.62721 0
M  V30 15691 H 1463.34 -1.629 -2.51205 0
M  V30 15692 H 1460.89 -0.784696 -1.20742 0
M  V30 15693 H 1462.84 0.1167 -4.21238 0
M  V30 15694 H 1461.56 0.791228 -3.16871 0
M  V30 15695 H 1460.22 -1.32672 -3.41751 0
M  V30 15696 H 1459.87 0.580658 -4.99637 0
M  V30 15697 H 1459.57 -0.984287 -5.79297 0
M  V30 15698 H 1461.09 -0.105648 -6.10509 0
M  V30 15699 H 1462.51 -2.22357 -5.28422 0
M  V30 15700 H 1460.91 -3.00935 -5.1919 0
M  V30 15701 H 1461.98 -3.03884 -3.77866 0
M  V30 15702 N 1463.32 1.31536 -0.86811 0
M  V30 15703 C 1464.27 2.28562 -0.320602 0
M  V30 15704 C 1465.24 1.55648 0.579902 0
M  V30 15705 O 1466.42 1.83804 0.51194 0
M  V30 15706 C 1463.56 3.41836 0.473499 0
M  V30 15707 C 1462.67 4.29604 -0.454311 0
M  V30 15708 C 1461.81 5.30021 0.353733 0
M  V30 15709 C 1460.85 6.09434 -0.570624 0
M  V30 15710 N 1459.99 7.01812 0.201058 0
M  V30 15711 H 1464.83 2.74782 -1.15322 0
M  V30 15712 H 1462.36 1.35179 -0.580088 0
M  V30 15713 H 1464.32 4.06248 0.949662 0
M  V30 15714 H 1462.95 2.96732 1.27083 0
M  V30 15715 H 1462 3.65653 -1.04892 0
M  V30 15716 H 1463.31 4.85048 -1.16316 0
M  V30 15717 H 1462.47 6.001 0.892484 0
M  V30 15718 H 1461.21 4.75228 1.09589 0
M  V30 15719 H 1460.21 5.38247 -1.12115 0
M  V30 15720 H 1461.44 6.66314 -1.3116 0
M  V30 15721 H 1459.38 6.49431 0.926058 0
M  V30 15722 H 1459.3 7.54668 -0.448494 0
M  V30 15723 H 1460.57 7.76157 0.7211 0
M  V30 15724 N 1464.8 0.627364 1.44575 0
M  V30 15725 C 1465.71 -0.0811184 2.3446 0
M  V30 15726 C 1466.72 -0.839668 1.52399 0
M  V30 15727 O 1467.9 -0.792784 1.8514 0
M  V30 15728 C 1464.96 -1.05296 3.30323 0
M  V30 15729 C 1464.03 -0.294201 4.28291 0
M  V30 15730 C 1463.26 -1.21975 5.19575 0
M  V30 15731 O 1463.48 -2.45834 5.14706 0
M  V30 15732 O 1462.42 -0.70611 5.97744 0
M  V30 15733 H 1466.24 0.658067 2.96485 0
M  V30 15734 H 1463.83 0.387565 1.44285 0
M  V30 15735 H 1465.71 -1.61218 3.89341 0
M  V30 15736 H 1464.38 -1.77283 2.70837 0
M  V30 15737 H 1463.29 0.307969 3.7283 0
M  V30 15738 H 1464.62 0.385567 4.90687 0
M  V30 15739 N 1466.28 -1.53251 0.367684 0
M  V30 15740 C 1467.5 -2.0618 -0.224645 0
M  V30 15741 C 1467.93 -1.23927 -1.41505 0
M  V30 15742 O 1467.28 -0.258858 -1.79443 0
M  V30 15743 C 1467.33 -3.55671 -0.594171 0
M  V30 15744 O 1466.44 -3.76132 -1.69112 0
M  V30 15745 H 1465.78 -0.663218 -0.0322099 0
M  V30 15746 H 1468.31 -1.97646 0.528897 0
M  V30 15747 H 1468.32 -3.98734 -0.864589 0
M  V30 15748 H 1466.99 -4.14982 0.276254 0
M  V30 15749 H 1465.57 -3.44965 -1.41609 0
M  V30 15750 N 1467.75 -0.0969077 -1.57302 0
M  V30 15751 C 1468.72 0.846895 -2.1298 0
M  V30 15752 C 1469.72 1.20962 -1.05947 0
M  V30 15753 O 1470.91 1.13876 -1.31826 0
M  V30 15754 C 1468.04 2.14215 -2.65188 0
M  V30 15755 H 1469.23 0.363398 -2.9769 0
M  V30 15756 H 1466.78 0.152107 -1.55558 0
M  V30 15757 H 1467.52 2.67046 -1.84002 0
M  V30 15758 H 1467.3 1.89176 -3.43445 0
M  V30 15759 H 1468.79 2.81728 -3.08252 0
M  V30 15760 N 1469.23 1.56605 0.176793 0
M  V30 15761 C 1470.18 1.95985 1.21896 0
M  V30 15762 C 1471.15 0.822983 1.44278 0
M  V30 15763 O 1472.33 1.08266 1.57109 0
M  V30 15764 C 1469.47 2.32029 2.55454 0
M  V30 15765 C 1468.59 3.58867 2.40497 0
M  V30 15766 C 1467.72 3.84148 3.66884 0
M  V30 15767 C 1466.76 5.04352 3.46837 0
M  V30 15768 N 1465.9 5.25794 4.6528 0
M  V30 15769 H 1470.74 2.84829 0.876137 0
M  V30 15770 H 1468.27 1.4094 0.421221 0
M  V30 15771 H 1470.23 2.50947 3.33289 0
M  V30 15772 H 1468.86 1.46301 2.87743 0
M  V30 15773 H 1467.91 3.47893 1.53866 0
M  V30 15774 H 1469.23 4.46859 2.21627 0
M  V30 15775 H 1468.38 4.03404 4.53155 0
M  V30 15776 H 1467.12 2.9452 3.88727 0
M  V30 15777 H 1466.12 4.84999 2.58952 0
M  V30 15778 H 1467.35 5.95505 3.26421 0
M  V30 15779 H 1465.3 4.39117 4.87352 0
M  V30 15780 H 1465.21 6.07999 4.49303 0
M  V30 15781 H 1466.48 5.49524 5.5285 0
M  V30 15782 N 1470.71 -0.445159 1.51182 0
M  V30 15783 C 1471.67 -1.52224 1.71349 0
M  V30 15784 C 1472.67 -1.49834 0.583632 0
M  V30 15785 O 1473.86 -1.51995 0.85107 0
M  V30 15786 C 1470.99 -2.91789 1.76273 0
M  V30 15787 H 1472.19 -1.35649 2.67468 0
M  V30 15788 H 1469.74 -0.673312 1.41054 0
M  V30 15789 H 1470.48 -3.13777 0.819405 0
M  V30 15790 H 1470.26 -2.94928 2.58379 0
M  V30 15791 H 1471.75 -3.69938 1.93741 0
M  V30 15792 N 1472.19 -1.41197 -0.700089 0
M  V30 15793 C 1473.12 -1.38616 -1.82533 0
M  V30 15794 C 1474.13 -0.289047 -1.60213 0
M  V30 15795 O 1475.32 -0.550465 -1.698 0
M  V30 15796 C 1472.42 -1.13815 -3.19217 0
M  V30 15797 C 1471.59 -2.3548 -3.68603 0
M  V30 15798 C 1470.65 -2.06604 -4.83943 0
M  V30 15799 O 1469.68 -2.79604 -4.95792 0
M  V30 15800 N 1470.88 -1.05351 -5.7086 0
M  V30 15801 H 1473.65 -2.35598 -1.8524 0
M  V30 15802 H 1471.21 -1.3575 -0.882238 0
M  V30 15803 H 1473.2 -0.924571 -3.93997 0
M  V30 15804 H 1471.77 -0.254468 -3.11563 0
M  V30 15805 H 1470.99 -2.72569 -2.8478 0
M  V30 15806 H 1472.28 -3.16553 -3.98336 0
M  V30 15807 H 1471.68 -0.449223 -5.63914 0
M  V30 15808 H 1470.23 -0.899819 -6.45559 0
M  V30 15809 N 1473.67 0.933891 -1.2695 0
M  V30 15810 C 1474.6 2.05078 -1.11649 0
M  V30 15811 C 1475.58 1.70089 -0.0196463 0
M  V30 15812 O 1476.76 1.93239 -0.193007 0
M  V30 15813 C 1473.89 3.38963 -0.756387 0
M  V30 15814 C 1472.85 3.88041 -1.80577 0
M  V30 15815 C 1472.17 5.18661 -1.2998 0
M  V30 15816 C 1473.47 4.12116 -3.2087 0
M  V30 15817 H 1475.17 2.18137 -2.05077 0
M  V30 15818 H 1472.71 1.04817 -0.987392 0
M  V30 15819 H 1474.66 4.1657 -0.63619 0
M  V30 15820 H 1473.39 3.25901 0.213607 0
M  V30 15821 H 1472.05 3.12622 -1.91477 0
M  V30 15822 H 1471.7 5.01985 -0.319442 0
M  V30 15823 H 1471.4 5.52467 -2.00134 0
M  V30 15824 H 1472.92 5.98844 -1.19242 0
M  V30 15825 H 1474.33 4.80312 -3.13006 0
M  V30 15826 H 1472.73 4.57218 -3.88679 0
M  V30 15827 H 1473.8 3.17633 -3.66384 0
M  V30 15828 N 1475.14 1.08871 1.13951 0
M  V30 15829 C 1476.37 0.843055 1.89492 0
M  V30 15830 C 1476.79 -0.599539 1.78289 0
M  V30 15831 O 1476.15 -1.42062 1.12642 0
M  V30 15832 C 1476.2 1.27572 3.3728 0
M  V30 15833 O 1475.3 0.430611 4.10146 0
M  V30 15834 H 1474.64 0.3058 0.589391 0
M  V30 15835 H 1477.17 1.45137 1.44209 0
M  V30 15836 H 1477.18 1.25864 3.88101 0
M  V30 15837 H 1475.86 2.32635 3.44751 0
M  V30 15838 H 1474.44 0.511516 3.69375 0
M  V30 15839 N 1476.62 -1.31073 0.875073 0
M  V30 15840 C 1477.85 -2.01223 0.502383 0
M  V30 15841 C 1478.27 -1.65223 -0.899053 0
M  V30 15842 O 1477.63 -0.863559 -1.59412 0
M  V30 15843 C 1477.68 -3.54269 0.672747 0
M  V30 15844 O 1476.78 -4.11409 -0.285718 0
M  V30 15845 H 1476.12 -0.633422 0.199181 0
M  V30 15846 H 1478.65 -1.67152 1.17989 0
M  V30 15847 H 1478.66 -4.04027 0.567973 0
M  V30 15848 H 1477.34 -3.79811 1.69459 0
M  V30 15849 H 1475.91 -3.72654 -0.135472 0
M  V30 15850 N 1478.1 -0.635022 -1.4424 0
M  V30 15851 C 1479.51 -0.222982 -1.85364 0
M  V30 15852 C 1479.86 1.22648 -1.5314 0
M  V30 15853 O 1478.99 1.93373 -0.971384 0
M  V30 15854 C 1479.58 -0.397912 -3.36455 0
M  V30 15855 C 1478.14 -0.0403458 -3.76378 0
M  V30 15856 C 1477.29 -0.709451 -2.68071 0
M  V30 15857 H 1480.24 -0.839923 -1.34651 0
M  V30 15858 H 1480.26 0.361996 -3.78774 0
M  V30 15859 H 1479.77 -1.45294 -3.59877 0
M  V30 15860 H 1477.87 1.01279 -3.58571 0
M  V30 15861 H 1477.99 -0.453121 -4.76952 0
M  V30 15862 H 1476.35 -0.144386 -2.5429 0
M  V30 15863 H 1477.13 -1.76715 -2.94324 0
M  V30 15864 N 1479.58 1.53054 -0.375806 0
M  V30 15865 C 1480.49 2.29772 0.47349 0
M  V30 15866 C 1481.5 1.36144 1.08355 0
M  V30 15867 O 1482.68 1.69208 1.09228 0
M  V30 15868 C 1479.75 3.07964 1.59245 0
M  V30 15869 C 1478.81 4.17277 1.00888 0
M  V30 15870 C 1478.04 4.91731 2.07451 0
M  V30 15871 O 1478.26 4.66143 3.28736 0
M  V30 15872 O 1477.2 5.77413 1.69936 0
M  V30 15873 H 1481.02 3.03324 -0.151105 0
M  V30 15874 H 1478.61 1.48744 -0.139895 0
M  V30 15875 H 1480.49 3.56759 2.24279 0
M  V30 15876 H 1479.16 2.37239 2.20226 0
M  V30 15877 H 1478.07 3.7271 0.322167 0
M  V30 15878 H 1479.4 4.90198 0.443483 0
M  V30 15879 N 1481.06 0.105248 1.57248 0
M  V30 15880 C 1482.33 -0.598871 1.86207 0
M  V30 15881 C 1482.71 -1.85698 1.00396 0
M  V30 15882 O 1482.06 -2.28363 0.0791093 0
M  V30 15883 C 1482.27 -0.904522 3.37075 0
M  V30 15884 C 1483.62 -1.26357 4.05363 0
M  V30 15885 O 1484.64 -0.99522 3.42014 0
M  V30 15886 O 1483.5 -1.76659 5.17159 0
M  V30 15887 H 1480.6 -0.300727 0.770384 0
M  V30 15888 H 1483.14 0.138713 1.69132 0
M  V30 15889 H 1481.91 -0.0123974 3.91298 0
M  V30 15890 H 1481.54 -1.69774 3.59531 0
M  V30 15891 N 1482.53 -1.56697 -0.168486 0
M  V30 15892 C 1483.47 -1.93197 -1.23319 0
M  V30 15893 C 1484.48 -0.825373 -1.40326 0
M  V30 15894 O 1485.67 -1.10381 -1.40279 0
M  V30 15895 C 1482.77 -2.17205 -2.60145 0
M  V30 15896 C 1481.94 -3.48442 -2.64399 0
M  V30 15897 C 1481 -3.61244 -3.82609 0
M  V30 15898 O 1480.03 -4.33837 -3.68476 0
M  V30 15899 N 1481.23 -2.96304 -4.99183 0
M  V30 15900 H 1483.99 -2.85128 -0.923138 0
M  V30 15901 H 1481.55 -1.57887 -0.358229 0
M  V30 15902 H 1483.55 -2.23031 -3.37697 0
M  V30 15903 H 1482.12 -1.31643 -2.83529 0
M  V30 15904 H 1481.34 -3.54248 -1.72922 0
M  V30 15905 H 1482.62 -4.34795 -2.64255 0
M  V30 15906 H 1482.02 -2.37203 -5.13567 0
M  V30 15907 H 1480.58 -3.07722 -5.74587 0
M  V30 15908 N 1484.01 0.437135 -1.51416 0
M  V30 15909 C 1485.29 1.1978 -1.54636 0
M  V30 15910 C 1485.67 2.088 -0.310747 0
M  V30 15911 O 1485.02 2.1738 0.704148 0
M  V30 15912 C 1485.23 1.99947 -2.86046 0
M  V30 15913 C 1486.58 2.56981 -3.38003 0
M  V30 15914 O 1487.6 2.10157 -2.87598 0
M  V30 15915 O 1486.46 3.42383 -4.25953 0
M  V30 15916 H 1483.55 0.545346 -0.621713 0
M  V30 15917 H 1486.1 0.446189 -1.63729 0
M  V30 15918 H 1484.87 1.34564 -3.67435 0
M  V30 15919 H 1484.49 2.82172 -2.80115 0
M  V30 15920 N 1485.49 1.41566 0.692592 0
M  V30 15921 C 1486.77 1.31572 1.44735 0
M  V30 15922 C 1487.15 -0.0553081 2.11028 0
M  V30 15923 O 1486.5 -1.06974 2.01913 0
M  V30 15924 C 1486.71 2.47125 2.46435 0
M  V30 15925 C 1488.05 2.88427 3.11601 0
M  V30 15926 O 1489.08 2.46886 2.5676 0
M  V30 15927 O 1487.94 3.6027 4.10935 0
M  V30 15928 H 1485.03 0.517949 0.644715 0
M  V30 15929 H 1487.58 1.53536 0.722818 0
M  V30 15930 H 1486.35 3.38601 1.96124 0
M  V30 15931 H 1485.97 2.27054 3.26393 0
M  V30 15932 N 1486.97 -0.927146 1.27443 0
M  V30 15933 C 1487.9 -2.03209 1.06013 0
M  V30 15934 C 1488.91 -1.62792 0.016041 0
M  V30 15935 O 1490.1 -1.76631 0.25766 0
M  V30 15936 C 1487.2 -3.33791 0.586225 0
M  V30 15937 C 1486.38 -4.02897 1.70273 0
M  V30 15938 C 1485.43 -5.11755 1.22447 0
M  V30 15939 O 1484.46 -5.35688 1.92423 0
M  V30 15940 N 1485.66 -5.80444 0.0804162 0
M  V30 15941 H 1488.43 -2.22155 2.01165 0
M  V30 15942 H 1485.99 -1.09757 1.19017 0
M  V30 15943 H 1487.98 -4.03926 0.250161 0
M  V30 15944 H 1486.55 -3.11414 -0.272076 0
M  V30 15945 H 1485.77 -3.26489 2.20905 0
M  V30 15946 H 1487.06 -4.45816 2.45205 0
M  V30 15947 H 1486.46 -5.63454 -0.503635 0
M  V30 15948 H 1485.01 -6.51504 -0.196466 0
M  V30 15949 N 1488.45 -1.09474 -1.13372 0
M  V30 15950 C 1489.72 -0.743485 -1.80919 0
M  V30 15951 C 1490.1 0.771414 -1.965 0
M  V30 15952 O 1489.45 1.694 -1.53349 0
M  V30 15953 C 1489.66 -1.48309 -3.1592 0
M  V30 15954 C 1491.01 -1.64921 -3.91263 0
M  V30 15955 O 1492.03 -1.44564 -3.25545 0
M  V30 15956 O 1490.89 -1.98595 -5.09139 0
M  V30 15957 H 1487.99 -0.26713 -0.782669 0
M  V30 15958 H 1490.53 -1.19697 -1.20294 0
M  V30 15959 H 1489.3 -2.51456 -2.99809 0
M  V30 15960 H 1488.93 -1.02181 -3.84246 0
M  V30 15961 N 1489.92 1.30607 -0.882012 0
M  V30 15962 C 1491.2 1.91056 -0.419153 0
M  V30 15963 C 1491.58 1.80185 1.09985 0
M  V30 15964 O 1490.93 1.21717 1.93384 0
M  V30 15965 C 1491.14 3.3682 -0.913949 0
M  V30 15966 C 1492.49 4.13901 -0.947169 0
M  V30 15967 O 1493.51 3.45652 -0.860412 0
M  V30 15968 O 1492.37 5.35826 -1.07483 0
M  V30 15969 H 1489.46 0.81709 -0.127645 0
M  V30 15970 H 1492.01 1.39195 -0.970717 0
M  V30 15971 H 1490.78 3.38804 -1.95774 0
M  V30 15972 H 1490.41 3.96132 -0.34138 0
M  V30 15973 N 1491.4 0.642663 1.43901 0
M  V30 15974 C 1492.65 0.149167 2.01148 0
M  V30 15975 C 1492.96 -1.2405 1.51231 0
M  V30 15976 O 1494.17 -1.82864 2.00681 0
M  V30 15977 C 1492.63 0.215891 3.59252 0
M  V30 15978 C 1492.23 1.60759 4.18163 0
M  V30 15979 C 1493.98 -0.220546 4.23927 0
M  V30 15980 C 1491.89 1.62881 5.68528 0
M  V30 15981 H 1490.82 0.0520015 0.752205 0
M  V30 15982 H 1493.47 0.803152 1.6499 0
M  V30 15983 H 1491.85 -0.505409 3.92762 0
M  V30 15984 H 1493.02 2.3534 3.96171 0
M  V30 15985 H 1491.34 1.9891 3.65819 0
M  V30 15986 H 1493.93 -0.224389 5.34229 0
M  V30 15987 H 1494.28 -1.25003 3.97089 0
M  V30 15988 H 1494.81 0.448646 3.95262 0
M  V30 15989 H 1491.55 2.63704 6.00117 0
M  V30 15990 H 1491.07 0.926104 5.92607 0
M  V30 15991 H 1492.75 1.36785 6.32375 0
M  V30 15992 N 1492.88 -1.52852 0.383918 0
M  V30 15993 C 1493.83 -2.26294 -0.453826 0
M  V30 15994 C 1494.8 -1.27688 -1.0623 0
M  V30 15995 O 1495.98 -1.56507 -1.09134 0
M  V30 15996 C 1493.12 -3.06907 -1.57803 0
M  V30 15997 C 1492.24 -4.20434 -0.992943 0
M  V30 15998 C 1491.37 -4.88453 -2.08776 0
M  V30 15999 C 1490.41 -5.93981 -1.47828 0
M  V30 16000 N 1489.55 -6.55617 -2.51218 0
M  V30 16001 H 1494.39 -2.97462 0.178927 0
M  V30 16002 H 1491.92 -1.46759 0.100066 0
M  V30 16003 H 1493.88 -3.51933 -2.24052 0
M  V30 16004 H 1492.51 -2.37959 -2.18118 0
M  V30 16005 H 1491.56 -3.79762 -0.22021 0
M  V30 16006 H 1492.88 -4.96211 -0.507504 0
M  V30 16007 H 1492.03 -5.36755 -2.82806 0
M  V30 16008 H 1490.77 -4.12187 -2.60678 0
M  V30 16009 H 1489.77 -5.45023 -0.723202 0
M  V30 16010 H 1491 -6.72176 -0.967278 0
M  V30 16011 H 1488.95 -5.82195 -3.02299 0
M  V30 16012 H 1488.86 -7.26991 -2.07414 0
M  V30 16013 H 1490.13 -7.08564 -3.24895 0
M  V30 16014 N 1494.36 -0.113586 -1.5719 0
M  V30 16015 C 1495.61 0.546529 -1.95297 0
M  V30 16016 C 1495.94 1.66674 -0.996671 0
M  V30 16017 O 1495.21 1.94472 -0.0329298 0
M  V30 16018 C 1495.5 1.08433 -3.43387 0
M  V30 16019 C 1495.35 -0.0320929 -4.49789 0
M  V30 16020 C 1496.67 1.97691 -3.932 0
M  V30 16021 H 1493.79 0.197195 -0.710129 0
M  V30 16022 H 1496.43 -0.188048 -1.89067 0
M  V30 16023 H 1494.58 1.71033 -3.48827 0
M  V30 16024 H 1496.25 -0.66716 -4.5645 0
M  V30 16025 H 1494.49 -0.695983 -4.2818 0
M  V30 16026 H 1495.17 0.385341 -5.50653 0
M  V30 16027 H 1497.64 1.4497 -3.90029 0
M  V30 16028 H 1496.52 2.3224 -4.97349 0
M  V30 16029 H 1496.78 2.90137 -3.33576 0
M  V30 16030 N 1495.84 1.56784 0.160173 0
M  V30 16031 C 1497.06 1.87129 0.894283 0
M  V30 16032 C 1497.49 0.701172 1.74543 0
M  V30 16033 O 1496.85 -0.349542 1.77899 0
M  V30 16034 C 1496.89 3.15969 1.73769 0
M  V30 16035 O 1496 2.98977 2.84054 0
M  V30 16036 H 1495.34 0.615192 0.249869 0
M  V30 16037 H 1497.87 2.04012 0.154956 0
M  V30 16038 H 1497.88 3.47657 2.13538 0
M  V30 16039 H 1496.55 4.00742 1.11258 0
M  V30 16040 H 1495.13 2.78668 2.47788 0
M  V30 16041 N 1497.32 -0.429099 1.51646 0
M  V30 16042 C 1498.54 -1.20465 1.68828 0
M  V30 16043 C 1498.97 -1.84044 0.388514 0
M  V30 16044 O 1498.32 -1.69165 -0.652152 0
M  V30 16045 C 1498.37 -2.25831 2.81128 0
M  V30 16046 O 1497.48 -3.31511 2.45305 0
M  V30 16047 H 1496.82 -0.352568 0.562665 0
M  V30 16048 H 1499.35 -0.505698 1.98252 0
M  V30 16049 H 1499.36 -2.70484 3.05455 0
M  V30 16050 H 1498.03 -1.78934 3.7544 0
M  V30 16051 H 1496.61 -2.92277 2.31579 0
M  V30 16052 N 1498.79 -1.41931 -0.685074 0
M  V30 16053 C 1500.04 -1.41852 -1.44514 0
M  V30 16054 C 1500.37 -0.0313137 -1.94475 0
M  V30 16055 O 1499.62 0.958606 -1.70614 0
M  V30 16056 C 1499.92 -2.38099 -2.6654 0
M  V30 16057 C 1499.59 -3.8471 -2.35178 0
M  V30 16058 C 1498.25 -4.24647 -2.26336 0
M  V30 16059 C 1500.6 -4.77232 -2.0952 0
M  V30 16060 C 1497.93 -5.55101 -1.89947 0
M  V30 16061 C 1500.28 -6.08017 -1.74638 0
M  V30 16062 C 1498.95 -6.46964 -1.64299 0
M  V30 16063 H 1498.22 -0.519072 -0.528815 0
M  V30 16064 H 1500.86 -1.74802 -0.782078 0
M  V30 16065 H 1499.17 -1.9844 -3.3783 0
M  V30 16066 H 1500.87 -2.35306 -3.24703 0
M  V30 16067 H 1497.46 -3.53085 -2.42959 0
M  V30 16068 H 1501.64 -4.47173 -2.1529 0
M  V30 16069 H 1496.9 -5.84148 -1.80503 0
M  V30 16070 H 1501.07 -6.79203 -1.53807 0
M  V30 16071 H 1498.7 -7.47959 -1.35871 0
M  V30 16072 N 1500.27 0.920374 -1.27933 0
M  V30 16073 C 1501.52 1.67131 -1.1487 0
M  V30 16074 C 1501.85 1.91816 0.303343 0
M  V30 16075 O 1501.13 1.51379 1.22125 0
M  V30 16076 C 1501.41 3.03332 -1.94066 0
M  V30 16077 C 1501.26 2.85842 -3.47296 0
M  V30 16078 C 1502.58 4.03773 -1.75087 0
M  V30 16079 H 1499.7 0.606537 -0.418666 0
M  V30 16080 H 1502.34 1.06755 -1.57173 0
M  V30 16081 H 1500.49 3.54869 -1.58116 0
M  V30 16082 H 1502.16 2.41367 -3.93115 0
M  V30 16083 H 1500.41 2.21035 -3.73264 0
M  V30 16084 H 1501.08 3.82535 -3.97958 0
M  V30 16085 H 1503.55 3.61274 -2.06447 0
M  V30 16086 H 1502.43 4.97048 -2.32882 0
M  V30 16087 H 1502.69 4.36512 -0.700665 0
M  V30 16088 N 1501.75 1.10074 1.1279 0
M  V30 16089 C 1503.16 0.859181 1.65756 0
M  V30 16090 C 1503.51 -0.611193 1.86437 0
M  V30 16091 O 1502.64 -1.46997 1.58811 0
M  V30 16092 C 1503.23 1.55312 3.01104 0
M  V30 16093 C 1501.79 1.35836 3.51035 0
M  V30 16094 C 1500.94 1.60491 2.26137 0
M  V30 16095 H 1503.89 1.25897 0.966211 0
M  V30 16096 H 1503.91 0.990001 3.67395 0
M  V30 16097 H 1503.42 2.62325 2.8602 0
M  V30 16098 H 1501.52 0.309694 3.71311 0
M  V30 16099 H 1501.64 2.09777 4.30732 0
M  V30 16100 H 1500 1.02742 2.33058 0
M  V30 16101 H 1500.78 2.68748 2.1361 0
M  V30 16102 N 1503.23 -1.30138 0.888926 0
M  V30 16103 C 1504.5 -1.90831 0.42928 0
M  V30 16104 C 1504.88 -1.80765 -1.09028 0
M  V30 16105 O 1504.23 -1.22741 -1.92735 0
M  V30 16106 C 1504.44 -3.36331 0.931798 0
M  V30 16107 C 1505.79 -4.13393 0.969106 0
M  V30 16108 O 1506.81 -3.45191 0.878731 0
M  V30 16109 O 1505.67 -5.35249 1.10323 0
M  V30 16110 H 1502.77 -0.816401 0.131976 0
M  V30 16111 H 1505.31 -1.38678 0.978086 0
M  V30 16112 H 1504.09 -3.37761 1.97568 0
M  V30 16113 H 1503.71 -3.95945 0.362383 0
M  V30 16114 N 1504.71 -0.650285 -1.43559 0
M  V30 16115 C 1505.64 0.0295939 -2.33481 0
M  V30 16116 C 1506.62 0.815017 -1.49303 0
M  V30 16117 O 1507.8 0.77708 -1.77975 0
M  V30 16118 C 1504.93 0.998683 -3.32631 0
M  V30 16119 C 1503.89 0.323577 -4.26775 0
M  V30 16120 C 1503.21 1.40391 -5.1594 0
M  V30 16121 C 1504.51 -0.782197 -5.1641 0
M  V30 16122 H 1506.21 -0.721349 -2.9058 0
M  V30 16123 H 1503.75 -0.348339 -1.39723 0
M  V30 16124 H 1505.7 1.4832 -3.94435 0
M  V30 16125 H 1504.43 1.78075 -2.73782 0
M  V30 16126 H 1503.09 -0.140467 -3.66331 0
M  V30 16127 H 1502.74 2.17734 -4.53432 0
M  V30 16128 H 1502.44 0.957462 -5.79747 0
M  V30 16129 H 1503.96 1.88985 -5.80618 0
M  V30 16130 H 1505.37 -0.379966 -5.72039 0
M  V30 16131 H 1503.77 -1.15293 -5.88921 0
M  V30 16132 H 1504.84 -1.6414 -4.56274 0
M  V30 16133 N 1506.18 1.52647 -0.392018 0
M  V30 16134 C 1507.13 2.26532 0.441819 0
M  V30 16135 C 1508.1 1.2825 1.05552 0
M  V30 16136 O 1509.29 1.57083 1.08303 0
M  V30 16137 C 1506.43 3.0774 1.56174 0
M  V30 16138 C 1505.54 4.20955 0.970632 0
M  V30 16139 C 1504.67 4.89553 2.06183 0
M  V30 16140 C 1503.71 5.94756 1.44676 0
M  V30 16141 N 1502.85 6.5694 2.47738 0
M  V30 16142 H 1507.69 2.97363 -0.194699 0
M  V30 16143 H 1505.23 1.46704 -0.107848 0
M  V30 16144 H 1507.18 3.53116 2.22183 0
M  V30 16145 H 1505.81 2.39112 2.16853 0
M  V30 16146 H 1504.87 3.79874 0.200067 0
M  V30 16147 H 1506.18 4.96474 0.481181 0
M  V30 16148 H 1505.33 5.38247 2.79956 0
M  V30 16149 H 1504.07 4.13564 2.58488 0
M  V30 16150 H 1503.08 5.45399 0.694288 0
M  V30 16151 H 1504.3 6.72679 0.931617 0
M  V30 16152 H 1502.25 5.8379 2.99208 0
M  V30 16153 H 1502.16 7.2808 2.03556 0
M  V30 16154 H 1503.43 7.10277 3.21133 0
M  V30 16155 N 1507.66 0.121921 1.57128 0
M  V30 16156 C 1508.57 -0.840825 2.19014 0
M  V30 16157 C 1509.59 -1.29051 1.16712 0
M  V30 16158 O 1510.76 -1.35289 1.49194 0
M  V30 16159 C 1507.83 -2.07204 2.7797 0
M  V30 16160 C 1506.89 -1.67399 3.95318 0
M  V30 16161 C 1506.12 -2.84652 4.51452 0
M  V30 16162 O 1506.35 -4.00161 4.06482 0
M  V30 16163 O 1505.28 -2.61568 5.42094 0
M  V30 16164 H 1509.11 -0.344146 3.01744 0
M  V30 16165 H 1506.69 -0.103841 1.49039 0
M  V30 16166 H 1508.57 -2.79307 3.1554 0
M  V30 16167 H 1507.25 -2.55872 1.9827 0
M  V30 16168 H 1506.16 -0.92395 3.62511 0
M  V30 16169 H 1507.49 -1.2347 4.76462 0
M  V30 16170 N 1509.14 -1.56867 -0.151857 0
M  V30 16171 C 1510.07 -2.00932 -1.18949 0
M  V30 16172 C 1511.05 -0.888062 -1.45077 0
M  V30 16173 O 1512.24 -1.15553 -1.56081 0
M  V30 16174 C 1509.37 -2.3858 -2.52383 0
M  V30 16175 C 1508.32 -3.53845 -2.40785 0
M  V30 16176 C 1507.65 -3.77292 -3.78886 0
M  V30 16177 C 1508.95 -4.8667 -1.89605 0
M  V30 16178 H 1510.64 -2.87863 -0.823107 0
M  V30 16179 H 1508.19 -1.38491 -0.394499 0
M  V30 16180 H 1510.14 -2.68006 -3.25193 0
M  V30 16181 H 1508.86 -1.48579 -2.90847 0
M  V30 16182 H 1507.52 -3.24577 -1.70427 0
M  V30 16183 H 1507.17 -2.84551 -4.14777 0
M  V30 16184 H 1506.87 -4.54861 -3.71989 0
M  V30 16185 H 1508.39 -4.09139 -4.53252 0
M  V30 16186 H 1509.81 -5.14846 -2.52204 0
M  V30 16187 H 1508.21 -5.6801 -1.93609 0
M  V30 16188 H 1509.28 -4.77366 -0.851438 0
M  V30 16189 N 1510.62 0.421051 -1.51871 0
M  V30 16190 C 1511.55 1.51928 -1.77313 0
M  V30 16191 C 1512.53 1.58258 -0.623579 0
M  V30 16192 O 1513.71 1.73724 -0.867967 0
M  V30 16193 C 1510.84 2.89865 -1.913 0
M  V30 16194 C 1509.8 2.98391 -3.06834 0
M  V30 16195 C 1509.12 4.38466 -3.06026 0
M  V30 16196 C 1510.42 2.7097 -4.46511 0
M  V30 16197 H 1512.12 1.30889 -2.69274 0
M  V30 16198 H 1509.66 0.628229 -1.29573 0
M  V30 16199 H 1511.62 3.66669 -2.07682 0
M  V30 16200 H 1510.34 3.12172 -0.960011 0
M  V30 16201 H 1509 2.24029 -2.90184 0
M  V30 16202 H 1508.65 4.57764 -2.08472 0
M  V30 16203 H 1508.35 4.45097 -3.83618 0
M  V30 16204 H 1509.87 5.17221 -3.24522 0
M  V30 16205 H 1511.29 3.37501 -4.63428 0
M  V30 16206 H 1509.68 2.88992 -5.25931 0
M  V30 16207 H 1510.75 1.66476 -4.55427 0
M  V30 16208 N 1512.1 1.42293 0.677538 0
M  V30 16209 C 1513.51 1.37948 1.25806 0
M  V30 16210 C 1513.86 0.071408 1.9607 0
M  V30 16211 O 1512.98 -0.829921 1.99853 0
M  V30 16212 C 1513.58 2.49875 2.28797 0
M  V30 16213 C 1512.14 2.48872 2.82382 0
M  V30 16214 C 1511.28 2.28804 1.56665 0
M  V30 16215 H 1514.24 1.51546 0.471102 0
M  V30 16216 H 1514.26 2.19969 3.10474 0
M  V30 16217 H 1513.77 3.45065 1.77629 0
M  V30 16218 H 1511.87 1.57492 3.37679 0
M  V30 16219 H 1511.98 3.45816 3.31585 0
M  V30 16220 H 1510.35 1.77014 1.83135 0
M  V30 16221 H 1511.13 3.26046 1.07467 0
M  V30 16222 N 1513.57 -0.913576 1.28419 0
M  V30 16223 C 1514.8 -1.70178 1.18551 0
M  V30 16224 C 1515.22 -1.864 -0.252307 0
M  V30 16225 O 1514.58 -1.37427 -1.18252 0
M  V30 16226 C 1514.63 -3.07145 1.8893 0
M  V30 16227 O 1513.73 -3.9465 1.19688 0
M  V30 16228 H 1513.08 -0.521092 0.411533 0
M  V30 16229 H 1515.61 -1.14228 1.69744 0
M  V30 16230 H 1515.62 -3.57375 1.96843 0
M  V30 16231 H 1514.29 -2.94655 2.93515 0
M  V30 16232 H 1512.87 -3.53085 1.19939 0
M  V30 16233 N 1515.05 -1.1067 -1.12204 0
M  V30 16234 C 1516.3 -0.85189 -1.8404 0
M  V30 16235 C 1516.63 0.620988 -1.84004 0
M  V30 16236 O 1515.91 1.45801 -1.28734 0
M  V30 16237 C 1516.19 -1.40401 -3.31602 0
M  V30 16238 C 1516.04 -2.94392 -3.40078 0
M  V30 16239 C 1517.36 -1.04834 -4.27432 0
M  V30 16240 H 1514.48 -0.310924 -0.668203 0
M  V30 16241 H 1517.12 -1.37026 -1.3162 0
M  V30 16242 H 1515.27 -0.963107 -3.76373 0
M  V30 16243 H 1516.94 -3.47027 -3.03924 0
M  V30 16244 H 1515.19 -3.3087 -2.80548 0
M  V30 16245 H 1515.86 -3.28107 -4.43903 0
M  V30 16246 H 1518.33 -1.42882 -3.90799 0
M  V30 16247 H 1517.21 -1.46153 -5.29085 0
M  V30 16248 H 1517.47 0.0419272 -4.4208 0
M  V30 16249 N 1516.53 1.29665 -0.895815 0
M  V30 16250 C 1517.48 2.27831 -0.369011 0
M  V30 16251 C 1518.45 1.56843 0.546756 0
M  V30 16252 O 1519.63 1.84848 0.472837 0
M  V30 16253 C 1516.77 3.42764 0.400884 0
M  V30 16254 C 1515.89 4.28544 -0.545335 0
M  V30 16255 C 1515.02 5.30652 0.241228 0
M  V30 16256 C 1514.06 6.08087 -0.699765 0
M  V30 16257 N 1513.2 7.02081 0.0521477 0
M  V30 16258 H 1518.04 2.72274 -1.21124 0
M  V30 16259 H 1515.57 1.33918 -0.608631 0
M  V30 16260 H 1517.53 4.08171 0.863277 0
M  V30 16261 H 1516.16 2.99361 1.2076 0
M  V30 16262 H 1515.21 3.63346 -1.12624 0
M  V30 16263 H 1516.53 4.82472 -1.26579 0
M  V30 16264 H 1515.68 6.01858 0.764994 0
M  V30 16265 H 1514.42 4.77446 0.994838 0
M  V30 16266 H 1513.42 5.35748 -1.23507 0
M  V30 16267 H 1514.65 6.63382 -1.45264 0
M  V30 16268 H 1512.59 6.51249 0.788096 0
M  V30 16269 H 1512.51 7.53547 -0.60847 0
M  V30 16270 H 1513.78 7.77512 0.556304 0
M  V30 16271 N 1518.01 0.657889 1.43212 0
M  V30 16272 C 1519.25 0.173443 2.02057 0
M  V30 16273 C 1519.59 -1.21108 1.51811 0
M  V30 16274 O 1518.86 -1.80953 0.71317 0
M  V30 16275 C 1519.15 0.189429 3.59601 0
M  V30 16276 C 1519 1.6082 4.20068 0
M  V30 16277 C 1520.32 -0.471633 4.37566 0
M  V30 16278 H 1517.44 0.0644999 0.734172 0
M  V30 16279 H 1520.08 0.839462 1.7045 0
M  V30 16280 H 1518.23 -0.377689 3.8666 0
M  V30 16281 H 1519.9 2.22627 4.04024 0
M  V30 16282 H 1518.14 2.15407 3.7654 0
M  V30 16283 H 1518.81 1.5712 5.29167 0
M  V30 16284 H 1521.29 0.0109387 4.16099 0
M  V30 16285 H 1520.17 -0.429739 5.47215 0
M  V30 16286 H 1520.43 -1.54652 4.14168 0
M  V30 16287 N 1519.49 -1.52437 0.400108 0
M  V30 16288 C 1520.73 -2.02677 -0.171293 0
M  V30 16289 C 1521.09 -1.28088 -1.43566 0
M  V30 16290 O 1520.38 -0.37592 -1.87876 0
M  V30 16291 C 1520.57 -3.54133 -0.482141 0
M  V30 16292 C 1520.4 -4.43392 0.750551 0
M  V30 16293 C 1519.17 -4.89 1.27306 0
M  V30 16294 C 1521.37 -4.87918 1.62604 0
M  V30 16295 N 1519.35 -5.62361 2.46217 0
M  V30 16296 C 1520.72 -5.59969 2.66148 0
M  V30 16297 C 1522.78 -4.69945 1.64486 0
M  V30 16298 C 1521.48 -6.15955 3.71473 0
M  V30 16299 C 1523.51 -5.26821 2.68725 0
M  V30 16300 C 1522.87 -5.98787 3.7099 0
M  V30 16301 H 1518.97 -0.781617 -0.0244842 0
M  V30 16302 H 1521.55 -1.86698 0.552429 0
M  V30 16303 H 1519.72 -3.70203 -1.17491 0
M  V30 16304 H 1521.46 -3.91065 -1.04164 0
M  V30 16305 H 1518.21 -4.66227 0.832434 0
M  V30 16306 H 1518.64 -6.03688 3.06414 0
M  V30 16307 H 1523.28 -4.13801 0.867657 0
M  V30 16308 H 1521 -6.71175 4.50055 0
M  V30 16309 H 1524.58 -5.14789 2.71078 0
M  V30 16310 H 1523.46 -6.4201 4.50325 0
M  V30 16311 N 1520.96 -0.130252 -1.57061 0
M  V30 16312 C 1522.19 0.535707 -2.00362 0
M  V30 16313 C 1522.61 1.58712 -1.00956 0
M  V30 16314 O 1521.97 1.81292 0.0171546 0
M  V30 16315 C 1522.02 1.12836 -3.42491 0
M  V30 16316 O 1521.12 2.24367 -3.46025 0
M  V30 16317 H 1520.47 0.132735 -0.650598 0
M  V30 16318 H 1523 -0.222047 -2.03392 0
M  V30 16319 H 1523.01 1.46115 -3.80939 0
M  V30 16320 H 1521.68 0.358304 -4.14354 0
M  V30 16321 H 1520.26 1.92443 -3.19406 0
M  V30 16322 N 1522.44 1.56945 0.143535 0
M  V30 16323 C 1523.72 1.74461 0.884454 0
M  V30 16324 C 1524.1 0.699201 1.99184 0
M  V30 16325 O 1523.45 -0.281267 2.26762 0
M  V30 16326 C 1523.66 3.18639 1.42373 0
M  V30 16327 C 1525.01 3.80426 1.88577 0
M  V30 16328 O 1526.03 3.2209 1.52107 0
M  V30 16329 O 1524.89 4.82913 2.55847 0
M  V30 16330 H 1521.98 0.713457 0.41822 0
M  V30 16331 H 1524.53 1.69208 0.12919 0
M  V30 16332 H 1523.3 3.86227 0.628056 0
M  V30 16333 H 1522.92 3.28332 2.2424 0
M  V30 16334 N 1523.92 -0.412991 1.52093 0
M  V30 16335 C 1525.17 -1.15878 1.67164 0
M  V30 16336 C 1525.52 -1.88306 0.394772 0
M  V30 16337 O 1524.82 -1.8161 -0.610614 0
M  V30 16338 C 1525.01 -2.18321 2.82968 0
M  V30 16339 C 1524.84 -1.55951 4.21793 0
M  V30 16340 C 1523.61 -1.33389 4.87376 0
M  V30 16341 C 1525.81 -1.02249 5.04033 0
M  V30 16342 N 1523.79 -0.668717 6.10247 0
M  V30 16343 C 1525.16 -0.484011 6.18108 0
M  V30 16344 C 1527.21 -0.916583 4.89391 0
M  V30 16345 C 1525.92 0.149993 7.19144 0
M  V30 16346 C 1527.94 -0.296438 5.90657 0
M  V30 16347 C 1527.31 0.231383 7.0402 0
M  V30 16348 H 1523.4 -0.410837 0.665385 0
M  V30 16349 H 1525.99 -0.451728 1.89387 0
M  V30 16350 H 1524.16 -2.86389 2.62366 0
M  V30 16351 H 1525.89 -2.85234 2.87095 0
M  V30 16352 H 1522.65 -1.60235 4.4567 0
M  V30 16353 H 1523.07 -0.352867 6.7608 0
M  V30 16354 H 1527.71 -1.31049 4.01978 0
M  V30 16355 H 1525.43 0.555971 8.06185 0
M  V30 16356 H 1529.02 -0.216065 5.81399 0
M  V30 16357 H 1527.9 0.703689 7.81036 0
M  V30 16358 N 1525.4 -1.4265 -0.669982 0
M  V30 16359 C 1526.33 -1.4094 -1.79475 0
M  V30 16360 C 1527.31 -0.273018 -1.60292 0
M  V30 16361 O 1528.49 -0.463994 -1.827 0
M  V30 16362 C 1525.62 -1.20489 -3.16544 0
M  V30 16363 C 1524.67 -2.37184 -3.54466 0
M  V30 16364 S 1525.5 -3.99722 -3.56346 0
M  V30 16365 C 1526.66 -3.81624 -4.96099 0
M  V30 16366 H 1526.89 -2.36119 -1.80652 0
M  V30 16367 H 1524.42 -1.2948 -0.841092 0
M  V30 16368 H 1526.38 -1.09377 -3.9566 0
M  V30 16369 H 1525.04 -0.268876 -3.12947 0
M  V30 16370 H 1524.23 -2.18636 -4.54108 0
M  V30 16371 H 1523.84 -2.44836 -2.82722 0
M  V30 16372 H 1526.13 -3.42912 -5.8431 0
M  V30 16373 H 1527.07 -4.8096 -5.19696 0
M  V30 16374 H 1527.48 -3.14397 -4.68844 0
M  V30 16375 N 1526.88 0.906753 -1.28902 0
M  V30 16376 C 1527.81 2.02663 -1.15974 0
M  V30 16377 C 1528.79 1.70009 -0.0557202 0
M  V30 16378 O 1529.97 1.92786 -0.233952 0
M  V30 16379 C 1527.1 3.37283 -0.828115 0
M  V30 16380 C 1526.06 3.84123 -1.88767 0
M  V30 16381 C 1525.38 5.15787 -1.40953 0
M  V30 16382 C 1526.68 4.05217 -3.2954 0
M  V30 16383 H 1528.38 2.13738 -2.09658 0
M  V30 16384 H 1525.92 1.02699 -1.0094 0
M  V30 16385 H 1527.88 4.15127 -0.724408 0
M  V30 16386 H 1526.6 3.2628 0.14443 0
M  V30 16387 H 1525.26 3.0849 -1.98065 0
M  V30 16388 H 1524.91 5.01194 -0.425848 0
M  V30 16389 H 1524.61 5.48098 -2.11807 0
M  V30 16390 H 1526.13 5.9618 -1.31918 0
M  V30 16391 H 1527.55 4.73565 -3.23124 0
M  V30 16392 H 1525.94 4.48871 -3.9829 0
M  V30 16393 H 1527.01 3.0979 -3.73039 0
M  V30 16394 N 1528.36 1.11264 1.11616 0
M  V30 16395 C 1529.6 0.858664 1.82952 0
M  V30 16396 C 1529.92 -0.617439 1.84967 0
M  V30 16397 O 1529.19 -1.44849 1.31893 0
M  V30 16398 H 1527.77 0.314671 0.677489 0
M  V30 16399 H 1530.44 1.40466 1.35113 0
M  V30 16400 H 1529.53 1.22921 2.86874 0
M  V30 16401 N 1529.83 -1.29188 0.902679 0
M  V30 16402 C 1531.06 -1.99286 0.544844 0
M  V30 16403 C 1531.47 -1.67721 -0.875572 0
M  V30 16404 O 1530.81 -0.920207 -1.5899 0
M  V30 16405 C 1530.88 -3.53374 0.660849 0
M  V30 16406 C 1530.54 -4.08502 2.04878 0
M  V30 16407 C 1531.54 -4.23173 3.02028 0
M  V30 16408 C 1529.22 -4.43461 2.35897 0
M  V30 16409 C 1531.22 -4.7204 4.28318 0
M  V30 16410 C 1528.9 -4.92024 3.6243 0
M  V30 16411 C 1529.9 -5.06269 4.58455 0
M  V30 16412 O 1529.59 -5.53778 5.8274 0
M  V30 16413 H 1529.32 -0.64339 0.207427 0
M  V30 16414 H 1531.88 -1.6562 1.21487 0
M  V30 16415 H 1530.11 -3.86643 -0.066216 0
M  V30 16416 H 1531.79 -4.04701 0.311732 0
M  V30 16417 H 1532.56 -3.96449 2.79379 0
M  V30 16418 H 1528.44 -4.31631 1.61913 0
M  V30 16419 H 1531.98 -4.83074 5.03275 0
M  V30 16420 H 1527.88 -5.18186 3.84907 0
M  V30 16421 H 1528.65 -5.72086 5.85372 0
M  V30 16422 N 1531.31 -0.665475 -1.42861 0
M  V30 16423 C 1532.72 -0.26225 -1.84849 0
M  V30 16424 C 1533.07 1.19372 -1.55707 0
M  V30 16425 O 1532.2 1.91269 -1.01218 0
M  V30 16426 C 1532.79 -0.469189 -3.35535 0
M  V30 16427 C 1531.35 -0.120172 -3.76208 0
M  V30 16428 C 1530.5 -0.766153 -2.66506 0
M  V30 16429 H 1533.45 -0.868296 -1.32839 0
M  V30 16430 H 1533.47 0.281571 -3.79457 0
M  V30 16431 H 1532.98 -1.52894 -3.56714 0
M  V30 16432 H 1531.08 0.936505 -3.60639 0
M  V30 16433 H 1531.2 -0.554188 -4.75884 0
M  V30 16434 H 1529.56 -0.198292 -2.53927 0
M  V30 16435 H 1530.34 -1.82918 -2.9051 0
M  V30 16436 N 1532.79 1.52222 -0.408187 0
M  V30 16437 C 1534.07 1.94285 0.22641 0
M  V30 16438 C 1534.45 1.34501 1.62705 0
M  V30 16439 O 1533.79 0.52045 2.22494 0
M  V30 16440 C 1534 3.48217 0.233695 0
M  V30 16441 C 1535.35 4.22171 0.453504 0
M  V30 16442 O 1536.38 3.54821 0.313093 0
M  V30 16443 O 1535.24 5.416 0.730183 0
M  V30 16444 H 1532.33 0.814078 0.145625 0
M  V30 16445 H 1534.88 1.63232 -0.464062 0
M  V30 16446 H 1533.65 3.84111 -0.746644 0
M  V30 16447 H 1533.27 3.85629 0.968305 0
M  V30 16448 N 1534.27 0.138579 1.5699 0
M  V30 16449 C 1535.5 -0.521806 2.00212 0
M  V30 16450 C 1535.91 -1.58967 1.01857 0
M  V30 16451 O 1535.27 -1.82494 0.0143099 0
M  V30 16452 C 1535.32 -1.13014 3.4338 0
M  V30 16453 O 1535.04 -0.104938 4.37974 0
M  V30 16454 C 1536.54 -1.87195 4.01837 0
M  V30 16455 H 1533.76 -0.136564 0.656956 0
M  V30 16456 H 1536.3 0.230685 2.03195 0
M  V30 16457 H 1534.46 -1.8333 3.41275 0
M  V30 16458 H 1534.87 -0.54948 5.21614 0
M  V30 16459 H 1536.35 -2.25061 5.04035 0
M  V30 16460 H 1536.82 -2.75467 3.42074 0
M  V30 16461 H 1537.43 -1.21597 4.07547 0
M  V30 16462 N 1535.75 -1.57019 -0.13521 0
M  V30 16463 C 1536.99 -1.85146 -0.842178 0
M  V30 16464 C 1537.35 -0.724176 -1.78251 0
M  V30 16465 O 1536.64 0.277042 -1.89586 0
M  V30 16466 C 1536.83 -3.17358 -1.64373 0
M  V30 16467 C 1536.66 -4.42839 -0.782516 0
M  V30 16468 C 1535.43 -5.03349 -0.443581 0
M  V30 16469 C 1537.63 -5.14188 -0.107475 0
M  V30 16470 N 1535.61 -6.12392 0.429998 0
M  V30 16471 C 1536.98 -6.16834 0.62576 0
M  V30 16472 C 1539.04 -4.97891 -0.0293703 0
M  V30 16473 C 1537.74 -7.04947 1.42974 0
M  V30 16474 C 1539.77 -5.86478 0.761385 0
M  V30 16475 C 1539.13 -6.88615 1.48286 0
M  V30 16476 H 1535.23 -0.727972 -0.285624 0
M  V30 16477 H 1537.81 -1.94407 -0.106834 0
M  V30 16478 H 1535.98 -3.09223 -2.35023 0
M  V30 16479 H 1537.72 -3.33349 -2.29478 0
M  V30 16480 H 1534.47 -4.67098 -0.782098 0
M  V30 16481 H 1534.89 -6.71539 0.85816 0
M  V30 16482 H 1539.54 -4.18902 -0.572813 0
M  V30 16483 H 1537.25 -7.83356 1.9844 0
M  V30 16484 H 1540.84 -5.75936 0.823965 0
M  V30 16485 H 1539.72 -7.55977 2.08491 0
M  V30 16486 N 1537.22 0.404919 -1.52309 0
M  V30 16487 C 1538.17 1.51412 -1.7657 0
M  V30 16488 C 1539.17 1.5713 -0.632983 0
M  V30 16489 O 1540.37 1.60486 -0.815121 0
M  V30 16490 H 1536.75 0.503636 -0.55844 0
M  V30 16491 H 1538.72 1.28137 -2.69488 0
M  V30 16492 C 1537.47 2.88733 -1.93722 0
M  V30 16493 H 1536.79 2.85078 -2.80304 0
M  V30 16494 H 1538.23 3.65626 -2.14695 0
M  V30 16495 C 1536.69 3.29431 -0.705444 0
M  V30 16496 O 1537.22 4.01506 0.124693 0
M  V30 16497 N 1535.43 2.85536 -0.540128 0
M  V30 16498 H 1534.97 2.27052 -1.21677 0
M  V30 16499 H 1534.93 3.13126 0.282723 0
M  V30 16500 N 1538.7 1.43003 0.662408 0
M  V30 16501 C 1540.11 1.39275 1.24336 0
M  V30 16502 C 1540.46 0.0921999 1.95983 0
M  V30 16503 O 1539.59 -0.808677 2.00722 0
M  V30 16504 C 1540.18 2.52287 2.26134 0
M  V30 16505 C 1538.74 2.51853 2.79727 0
M  V30 16506 C 1537.89 2.30453 1.5423 0
M  V30 16507 H 1540.84 1.52038 0.455002 0
M  V30 16508 H 1540.86 2.23249 3.08123 0
M  V30 16509 H 1540.37 3.46929 1.73959 0
M  V30 16510 H 1538.48 1.61064 3.3599 0
M  V30 16511 H 1538.59 3.49313 3.27898 0
M  V30 16512 H 1536.95 1.78946 1.81247 0
M  V30 16513 H 1537.74 3.27167 1.04003 0
M  V30 16514 N 1540.18 -0.899904 1.29381 0
M  V30 16515 C 1541.59 -1.46563 1.15655 0
M  V30 16516 C 1541.94 -1.94622 -0.248375 0
M  V30 16517 O 1541.07 -1.83698 -1.14386 0
M  V30 16518 C 1541.66 -2.66384 2.09344 0
M  V30 16519 C 1540.22 -3.19093 1.99641 0
M  V30 16520 C 1539.37 -1.91786 2.00283 0
M  V30 16521 H 1542.32 -0.711264 1.41869 0
M  V30 16522 H 1542.34 -3.42111 1.66554 0
M  V30 16523 H 1541.85 -2.31376 3.11587 0
M  V30 16524 H 1539.95 -3.58795 1.00485 0
M  V30 16525 H 1540.07 -3.83405 2.87293 0
M  V30 16526 H 1538.43 -2.09482 1.44878 0
M  V30 16527 H 1539.21 -1.59055 3.04231 0
M  V30 16528 N 1541.66 -1.11854 -1.11024 0
M  V30 16529 C 1543.07 -0.885443 -1.64368 0
M  V30 16530 C 1543.42 0.581455 -1.87386 0
M  V30 16531 O 1542.55 1.44452 -1.61129 0
M  V30 16532 C 1543.14 -1.60082 -2.98595 0
M  V30 16533 C 1541.7 -1.41403 -3.4883 0
M  V30 16534 C 1540.85 -1.64069 -2.23555 0
M  V30 16535 H 1543.8 -1.27418 -0.94606 0
M  V30 16536 H 1543.82 -1.04832 -3.65774 0
M  V30 16537 H 1543.33 -2.66842 -2.8181 0
M  V30 16538 H 1541.43 -0.368727 -3.70771 0
M  V30 16539 H 1541.54 -2.16603 -4.27341 0
M  V30 16540 H 1539.91 -1.06437 -2.31394 0
M  V30 16541 H 1540.69 -2.72112 -2.09308 0
M  V30 16542 N 1543.14 1.28707 -0.909517 0
M  V30 16543 C 1544.36 1.99283 -0.556211 0
M  V30 16544 C 1544.78 1.68 0.861475 0
M  V30 16545 O 1544.14 0.930421 1.57001 0
M  V30 16546 C 1544.19 3.5362 -0.75068 0
M  V30 16547 O 1543.91 3.83799 -2.11258 0
M  V30 16548 C 1545.41 4.41459 -0.403637 0
M  V30 16549 H 1542.63 0.636476 -0.212462 0
M  V30 16550 H 1545.17 1.64007 -1.22156 0
M  V30 16551 H 1543.33 3.87174 -0.132384 0
M  V30 16552 H 1543.74 4.78448 -2.14913 0
M  V30 16553 H 1545.22 5.48833 -0.590496 0
M  V30 16554 H 1545.69 4.34214 0.659897 0
M  V30 16555 H 1546.3 4.13394 -0.999292 0
M  V30 16556 N 1544.61 0.673042 1.42506 0
M  V30 16557 C 1545.84 0.201349 2.0642 0
M  V30 16558 C 1546.26 -1.132 1.50224 0
M  V30 16559 O 1545.62 -1.70368 0.620024 0
M  V30 16560 C 1545.67 0.14505 3.60308 0
M  V30 16561 O 1544.77 -0.886953 4.02749 0
M  V30 16562 H 1544.12 0.103975 0.655809 0
M  V30 16563 H 1546.65 0.921559 1.8267 0
M  V30 16564 H 1546.66 -0.0316792 4.07988 0
M  V30 16565 H 1545.33 1.11829 4.00583 0
M  V30 16566 H 1543.91 -0.681408 3.66621 0
M  V30 16567 N 1546.09 -1.52004 0.416254 0
M  V30 16568 C 1547.02 -2.30106 -0.396671 0
M  V30 16569 C 1548 -1.34616 -1.03983 0
M  V30 16570 O 1549.19 -1.63528 -1.04749 0
M  V30 16571 C 1546.32 -3.12769 -1.50972 0
M  V30 16572 C 1545.27 -4.16365 -0.99119 0
M  V30 16573 C 1544.6 -4.87417 -2.19838 0
M  V30 16574 C 1545.9 -5.22284 -0.0402599 0
M  V30 16575 H 1547.59 -2.98312 0.255054 0
M  V30 16576 H 1545.14 -1.43464 0.124106 0
M  V30 16577 H 1547.09 -3.66178 -2.08547 0
M  V30 16578 H 1545.82 -2.42346 -2.18943 0
M  V30 16579 H 1544.47 -3.63976 -0.437803 0
M  V30 16580 H 1544.12 -4.13516 -2.8638 0
M  V30 16581 H 1543.82 -5.57454 -1.85792 0
M  V30 16582 H 1545.35 -5.43641 -2.78006 0
M  V30 16583 H 1546.76 -5.70891 -0.525027 0
M  V30 16584 H 1545.16 -5.99726 0.211742 0
M  V30 16585 H 1546.23 -4.7642 0.902877 0
M  V30 16586 N 1547.57 -0.146903 -1.56914 0
M  V30 16587 C 1548.85 0.549291 -1.87729 0
M  V30 16588 C 1549.23 1.82971 -1.05284 0
M  V30 16589 O 1548.58 2.28073 -0.139628 0
M  V30 16590 C 1548.79 0.814835 -3.39354 0
M  V30 16591 C 1550.13 1.15565 -4.0857 0
M  V30 16592 O 1551.16 0.904191 -3.44533 0
M  V30 16593 O 1550.02 1.62886 -5.21661 0
M  V30 16594 H 1547.11 0.280196 -0.778087 0
M  V30 16595 H 1549.66 -0.183507 -1.68705 0
M  V30 16596 H 1548.43 -0.0913527 -3.91193 0
M  V30 16597 H 1548.05 1.60182 -3.63906 0
M  V30 16598 N 1549.05 1.57088 0.126881 0
M  V30 16599 C 1549.98 2.02799 1.15737 0
M  V30 16600 C 1550.96 0.911031 1.43646 0
M  V30 16601 O 1552.14 1.18021 1.54223 0
M  V30 16602 C 1549.27 2.42565 2.48555 0
M  V30 16603 C 1548.23 3.57631 2.35125 0
M  V30 16604 C 1547.55 3.83272 3.72836 0
M  V30 16605 C 1548.85 4.89625 1.81838 0
M  V30 16606 H 1550.55 2.89136 0.777207 0
M  V30 16607 H 1548.09 1.39101 0.372416 0
M  V30 16608 H 1550.05 2.73146 3.20888 0
M  V30 16609 H 1548.77 1.53188 2.88446 0
M  V30 16610 H 1547.43 3.27247 1.65242 0
M  V30 16611 H 1547.08 2.91114 4.10197 0
M  V30 16612 H 1546.78 4.60721 3.64705 0
M  V30 16613 H 1548.3 4.16298 4.46686 0
M  V30 16614 H 1549.72 5.18793 2.43981 0
M  V30 16615 H 1548.11 5.71018 1.84548 0
M  V30 16616 H 1549.18 4.7866 0.775385 0
M  V30 16617 N 1550.53 -0.396836 1.52522 0
M  V30 16618 C 1551.94 -0.975124 1.59211 0
M  V30 16619 C 1552.29 -1.91199 0.440138 0
M  V30 16620 O 1551.41 -2.11924 -0.437856 0
M  V30 16621 C 1552.01 -1.77531 2.88562 0
M  V30 16622 C 1550.57 -2.30343 2.9769 0
M  V30 16623 C 1549.71 -1.10671 2.54258 0
M  V30 16624 H 1552.67 -0.176646 1.57714 0
M  V30 16625 H 1552.69 -2.63384 2.74607 0
M  V30 16626 H 1552.2 -1.09318 3.72386 0
M  V30 16627 H 1550.3 -3.01891 2.18387 0
M  V30 16628 H 1550.41 -2.60366 4.02177 0
M  V30 16629 H 1548.78 -1.46439 2.08393 0
M  V30 16630 H 1549.56 -0.440061 3.40468 0
M  V30 16631 N 1552.01 -1.43353 -0.654814 0
M  V30 16632 C 1553.23 -1.48536 -1.44748 0
M  V30 16633 C 1553.66 -0.103991 -1.87812 0
M  V30 16634 O 1553.01 0.901924 -1.57274 0
M  V30 16635 C 1553.06 -2.43498 -2.65972 0
M  V30 16636 O 1552.17 -1.92014 -3.64972 0
M  V30 16637 H 1551.51 -0.502476 -0.434067 0
M  V30 16638 H 1554.04 -1.88251 -0.801427 0
M  V30 16639 H 1554.05 -2.60748 -3.13806 0
M  V30 16640 H 1552.72 -3.43847 -2.3397 0
M  V30 16641 H 1551.3 -1.84417 -3.24106 0
M  V30 16642 N 1553.48 0.89303 -1.29857 0
M  V30 16643 C 1554.43 1.98497 -1.12173 0
M  V30 16644 C 1555.42 1.60852 -0.039207 0
M  V30 16645 O 1556.61 1.75055 -0.261652 0
M  V30 16646 C 1553.74 3.33674 -0.807259 0
M  V30 16647 C 1552.82 3.77658 -1.92965 0
M  V30 16648 N 1553.22 3.93814 -3.17402 0
M  V30 16649 C 1551.51 4.06988 -1.82419 0
M  V30 16650 C 1552.21 4.30988 -3.90671 0
M  V30 16651 N 1551.19 4.40403 -3.18662 0
M  V30 16652 H 1554.99 2.09068 -2.06562 0
M  V30 16653 H 1552.51 1.0823 -1.21078 0
M  V30 16654 H 1554.5 4.11617 -0.661603 0
M  V30 16655 H 1553.16 3.24445 0.128646 0
M  V30 16656 H 1554.17 3.79164 -3.52782 0
M  V30 16657 H 1550.85 4.06279 -0.961436 0
M  V30 16658 H 1552.24 4.51278 -4.97793 0
M  V30 16659 N 1554.96 1.12442 1.10429 0
M  V30 16660 C 1556.21 0.881062 1.82661 0
M  V30 16661 C 1556.54 -0.591636 1.84968 0
M  V30 16662 O 1555.82 -1.43734 1.31037 0
M  V30 16663 C 1556.1 1.45658 3.29326 0
M  V30 16664 C 1555.95 2.99766 3.35352 0
M  V30 16665 C 1557.27 1.1162 4.2571 0
M  V30 16666 H 1554.39 0.321516 0.663172 0
M  V30 16667 H 1557.03 1.39102 1.29424 0
M  V30 16668 H 1555.18 1.02286 3.74793 0
M  V30 16669 H 1556.85 3.51818 2.98365 0
M  V30 16670 H 1555.1 3.35292 2.75249 0
M  V30 16671 H 1555.77 3.35128 4.38627 0
M  V30 16672 H 1558.24 1.49081 3.88477 0
M  V30 16673 H 1557.12 1.54552 5.26692 0
M  V30 16674 H 1557.38 0.0284093 4.42091 0
M  V30 16675 N 1556.44 -1.28223 0.91633 0
M  V30 16676 C 1557.4 -2.25477 0.411423 0
M  V30 16677 C 1558.4 -1.53969 -0.463689 0
M  V30 16678 O 1559.59 -1.72151 -0.266379 0
M  V30 16679 C 1556.72 -3.38427 -0.409851 0
M  V30 16680 H 1557.92 -2.71656 1.27056 0
M  V30 16681 H 1555.47 -1.3995 0.695966 0
M  V30 16682 H 1556.21 -2.97614 -1.28828 0
M  V30 16683 H 1555.99 -3.91497 0.217435 0
M  V30 16684 H 1557.48 -4.10739 -0.753862 0
M  V30 16685 N 1557.92 -0.68059 -1.42147 0
M  V30 16686 C 1559.16 -0.205567 -2.01755 0
M  V30 16687 C 1559.5 1.18677 -1.53718 0
M  V30 16688 O 1558.77 1.79796 -0.741867 0
M  V30 16689 C 1559.05 -0.246615 -3.59255 0
M  V30 16690 C 1558.91 -1.67483 -4.17456 0
M  V30 16691 C 1560.23 0.40196 -4.38261 0
M  V30 16692 H 1557.35 -0.0761717 -0.733053 0
M  V30 16693 H 1559.99 -0.866473 -1.69092 0
M  V30 16694 H 1558.14 0.316127 -3.87212 0
M  V30 16695 H 1559.81 -2.29026 -4.00431 0
M  V30 16696 H 1558.05 -2.2137 -3.73065 0
M  V30 16697 H 1558.72 -1.65519 -5.266 0
M  V30 16698 H 1561.2 -0.077135 -4.16028 0
M  V30 16699 H 1560.08 0.342627 -5.4783 0
M  V30 16700 H 1560.34 1.48044 -4.16576 0
M  V30 16701 N 1559.4 1.51781 -0.424309 0
M  V30 16702 C 1560.67 1.94514 0.205791 0
M  V30 16703 C 1561.05 1.36219 1.61269 0
M  V30 16704 O 1560.4 0.544019 2.21929 0
M  V30 16705 C 1560.61 3.48445 0.196749 0
M  V30 16706 C 1561.96 4.22628 0.408702 0
M  V30 16707 O 1562.98 3.55133 0.275441 0
M  V30 16708 O 1561.84 5.42344 0.672698 0
M  V30 16709 H 1558.94 0.815576 0.136983 0
M  V30 16710 H 1561.48 1.6273 -0.481349 0
M  V30 16711 H 1560.25 3.83297 -0.787342 0
M  V30 16712 H 1559.88 3.86634 0.92735 0
M  V30 16713 N 1560.87 0.155222 1.56834 0
M  V30 16714 C 1562.12 -0.494557 1.96677 0
M  V30 16715 C 1562.45 -1.63973 1.04051 0
M  V30 16716 O 1561.73 -1.94316 0.0844791 0
M  V30 16717 C 1562.01 -0.992902 3.46141 0
M  V30 16718 C 1561.86 0.151335 4.49545 0
M  V30 16719 C 1563.18 -1.87197 3.98303 0
M  V30 16720 H 1560.3 -0.178298 0.715107 0
M  V30 16721 H 1562.94 0.23811 1.88502 0
M  V30 16722 H 1561.09 -1.61724 3.53239 0
M  V30 16723 H 1562.77 0.787945 4.54521 0
M  V30 16724 H 1561.01 0.809262 4.26185 0
M  V30 16725 H 1561.68 -0.23921 5.51481 0
M  V30 16726 H 1564.16 -1.34578 3.93736 0
M  V30 16727 H 1563.03 -2.18972 5.03331 0
M  V30 16728 H 1563.29 -2.81191 3.41151 0
M  V30 16729 N 1562.35 -1.57153 -0.118549 0
M  V30 16730 C 1563.6 -1.86029 -0.822493 0
M  V30 16731 C 1563.95 -0.743041 -1.77473 0
M  V30 16732 O 1563.25 0.256918 -1.8987 0
M  V30 16733 C 1563.44 -3.19084 -1.60998 0
M  V30 16734 C 1563.27 -4.43644 -0.735503 0
M  V30 16735 C 1562.04 -5.03791 -0.390169 0
M  V30 16736 C 1564.24 -5.14273 -0.0529326 0
M  V30 16737 N 1562.22 -6.11902 0.494927 0
M  V30 16738 C 1563.59 -6.16136 0.691148 0
M  V30 16739 C 1565.64 -4.97894 0.0234393 0
M  V30 16740 C 1564.35 -7.03391 1.50443 0
M  V30 16741 C 1566.37 -5.85638 0.823546 0
M  V30 16742 C 1565.74 -6.87003 1.55582 0
M  V30 16743 H 1561.83 -0.73096 -0.277887 0
M  V30 16744 H 1564.42 -1.94509 -0.086209 0
M  V30 16745 H 1562.59 -3.11698 -2.3173 0
M  V30 16746 H 1564.32 -3.35765 -2.2593 0
M  V30 16747 H 1561.08 -4.67901 -0.732512 0
M  V30 16748 H 1561.5 -6.70591 0.929337 0
M  V30 16749 H 1566.14 -4.19486 -0.528351 0
M  V30 16750 H 1563.86 -7.81208 2.06737 0
M  V30 16751 H 1567.45 -5.75029 0.885004 0
M  V30 16752 H 1566.33 -7.53723 2.16498 0
M  V30 16753 N 1563.83 0.388742 -1.5273 0
M  V30 16754 C 1565.05 1.15946 -1.71963 0
M  V30 16755 C 1565.48 1.82949 -0.437173 0
M  V30 16756 O 1564.84 1.70834 0.607072 0
M  V30 16757 C 1564.89 2.18298 -2.87016 0
M  V30 16758 O 1563.99 3.24891 -2.54008 0
M  V30 16759 H 1563.33 0.337526 -0.571815 0
M  V30 16760 H 1565.86 0.452957 -1.99523 0
M  V30 16761 H 1565.87 2.6229 -3.12519 0
M  V30 16762 H 1564.55 1.68917 -3.80052 0
M  V30 16763 H 1563.12 2.86034 -2.39246 0
M  V30 16764 N 1565.31 1.43698 0.647203 0
M  V30 16765 C 1566.54 1.49085 1.43462 0
M  V30 16766 C 1566.95 0.110605 1.88476 0
M  V30 16767 O 1566.31 -0.880365 1.59862 0
M  V30 16768 C 1566.36 2.44186 2.66562 0
M  V30 16769 O 1566.08 3.76844 2.23429 0
M  V30 16770 C 1567.58 2.58876 3.59858 0
M  V30 16771 H 1564.8 0.506148 0.440517 0
M  V30 16772 H 1567.34 1.88502 0.792931 0
M  V30 16773 H 1565.5 2.07949 3.26858 0
M  V30 16774 H 1565.91 4.2804 3.0312 0
M  V30 16775 H 1567.39 3.29482 4.42883 0
M  V30 16776 H 1567.86 1.63567 4.07606 0
M  V30 16777 H 1568.47 2.95949 3.05441 0
M  V30 16778 N 1566.79 -0.886131 1.30328 0
M  V30 16779 C 1567.72 -2.00793 1.19183 0
M  V30 16780 C 1568.7 -1.69899 0.08276 0
M  V30 16781 O 1569.88 -1.92389 0.264593 0
M  V30 16782 C 1567.01 -3.35922 0.881669 0
M  V30 16783 C 1565.97 -3.81072 1.94855 0
M  V30 16784 C 1565.29 -5.1348 1.4914 0
M  V30 16785 C 1566.59 -3.99923 3.35944 0
M  V30 16786 H 1568.29 -2.10375 2.13032 0
M  V30 16787 H 1565.83 -1.0108 1.02561 0
M  V30 16788 H 1567.79 -4.13922 0.790359 0
M  V30 16789 H 1566.51 -3.26469 -0.0925037 0
M  V30 16790 H 1565.17 -3.053 2.02947 0
M  V30 16791 H 1564.82 -5.00453 0.50553 0
M  V30 16792 H 1564.52 -5.44659 2.205 0
M  V30 16793 H 1566.04 -5.94005 1.41386 0
M  V30 16794 H 1567.45 -4.68364 3.30617 0
M  V30 16795 H 1565.85 -4.42477 4.05381 0
M  V30 16796 H 1566.92 -3.03816 3.77921 0
M  V30 16797 N 1568.26 -1.13026 -1.09832 0
M  V30 16798 C 1569.23 -0.806832 -2.14529 0
M  V30 16799 C 1570.23 0.18175 -1.5977 0
M  V30 16800 O 1571.42 -0.0448155 -1.74142 0
M  V30 16801 C 1568.55 -0.200093 -3.40312 0
M  V30 16802 H 1569.74 -1.73453 -2.44651 0
M  V30 16803 H 1567.3 -0.934331 -1.25299 0
M  V30 16804 H 1568.03 0.737028 -3.15814 0
M  V30 16805 H 1567.82 -0.911945 -3.81348 0
M  V30 16806 H 1569.31 0.00948247 -4.17599 0
M  V30 16807 N 1569.74 1.27735 -0.923117 0
M  V30 16808 C 1571.02 1.89626 -0.479724 0
M  V30 16809 C 1571.4 1.83592 1.04197 0
M  V30 16810 O 1570.75 1.27808 1.89413 0
M  V30 16811 C 1570.96 3.33742 -1.02064 0
M  V30 16812 C 1572.31 4.10678 -1.07837 0
M  V30 16813 O 1573.33 3.4274 -0.969943 0
M  V30 16814 O 1572.19 5.32135 -1.24476 0
M  V30 16815 H 1569.28 0.812615 -0.153575 0
M  V30 16816 H 1571.83 1.36036 -1.01451 0
M  V30 16817 H 1570.6 3.32404 -2.06454 0
M  V30 16818 H 1570.22 3.94845 -0.467234 0
M  V30 16819 N 1571.22 0.688118 1.41784 0
M  V30 16820 C 1572.47 0.215944 2.01345 0
M  V30 16821 C 1572.8 -1.18197 1.54466 0
M  V30 16822 O 1572.05 -1.81032 0.743374 0
M  V30 16823 C 1572.35 0.213747 3.5676 0
M  V30 16824 C 1572.02 1.55816 4.23122 0
M  V30 16825 C 1570.68 1.92623 4.40964 0
M  V30 16826 C 1573.03 2.44297 4.604 0
M  V30 16827 C 1570.36 3.17511 4.93359 0
M  V30 16828 C 1572.71 3.68511 5.14182 0
M  V30 16829 C 1571.37 4.0547 5.30236 0
M  V30 16830 H 1570.64 0.0790193 0.736775 0
M  V30 16831 H 1573.29 0.885737 1.69785 0
M  V30 16832 H 1571.6 -0.539583 3.88067 0
M  V30 16833 H 1573.29 -0.169004 4.00644 0
M  V30 16834 H 1569.88 1.26186 4.09604 0
M  V30 16835 H 1574.07 2.17143 4.46277 0
M  V30 16836 H 1569.32 3.46151 5.03973 0
M  V30 16837 H 1573.5 4.37264 5.42008 0
M  V30 16838 H 1571.12 5.02316 5.70598 0
M  V30 16839 N 1572.7 -1.51554 0.432352 0
M  V30 16840 C 1573.94 -2.03954 -0.135014 0
M  V30 16841 C 1574.3 -1.30972 -1.40393 0
M  V30 16842 O 1575.5 -1.73719 -2.05122 0
M  V30 16843 C 1573.77 -3.55646 -0.35361 0
M  V30 16844 S 1575.33 -4.29781 -0.885096 0
M  V30 16845 H 1572.15 -0.710178 -0.0341871 0
M  V30 16846 H 1574.75 -1.86365 0.590612 0
M  V30 16847 H 1573.46 -4.06333 0.576335 0
M  V30 16848 H 1572.99 -3.7752 -1.10646 0
M  V30 16849 H 1575 -4.46564 -2.16322 0
M  V30 16850 N 1574.18 -0.163538 -1.56749 0
M  V30 16851 C 1575.12 0.786745 -2.18891 0
M  V30 16852 C 1576.12 1.24323 -1.15066 0
M  V30 16853 O 1577.32 1.20979 -1.33282 0
M  V30 16854 H 1573.7 0.271967 -0.701098 0
M  V30 16855 H 1575.67 0.2386 -2.97445 0
M  V30 16856 C 1574.42 2.00905 -2.83782 0
M  V30 16857 H 1573.74 1.66681 -3.63397 0
M  V30 16858 H 1575.18 2.65302 -3.30743 0
M  V30 16859 C 1573.64 2.8277 -1.83148 0
M  V30 16860 O 1574.17 3.79666 -1.31213 0
M  V30 16861 N 1572.38 2.47629 -1.52079 0
M  V30 16862 H 1571.92 1.68896 -1.94504 0
M  V30 16863 H 1571.88 3.02693 -0.849963 0
M  V30 16864 N 1575.65 1.57214 0.110213 0
M  V30 16865 C 1576.9 1.84498 0.815059 0
M  V30 16866 C 1577.22 0.750531 1.80628 0
M  V30 16867 O 1578.42 0.910042 2.55794 0
M  V30 16868 C 1576.88 3.27138 1.50028 0
M  V30 16869 C 1576.49 4.44616 0.549603 0
M  V30 16870 C 1578.23 3.63662 2.18975 0
M  V30 16871 C 1576.14 5.78285 1.23855 0
M  V30 16872 H 1575.07 0.688165 0.308132 0
M  V30 16873 H 1577.72 1.83374 0.0678595 0
M  V30 16874 H 1576.1 3.22758 2.29441 0
M  V30 16875 H 1577.27 4.60312 -0.211944 0
M  V30 16876 H 1575.59 4.16387 -0.0333571 0
M  V30 16877 H 1578.19 4.60804 2.71226 0
M  V30 16878 H 1578.53 2.91532 2.97178 0
M  V30 16879 H 1579.06 3.69865 1.46439 0
M  V30 16880 H 1575.8 6.53608 0.497629 0
M  V30 16881 H 1575.32 5.66459 1.9719 0
M  V30 16882 H 1577 6.22338 1.76929 0
M  V30 16883 N 1577.13 -0.380637 1.52934 0
M  V30 16884 C 1578.06 -1.47174 1.81279 0
M  V30 16885 C 1579.04 -1.56549 0.665319 0
M  V30 16886 O 1580.23 -1.71362 0.913722 0
M  V30 16887 C 1577.36 -2.84691 1.98918 0
M  V30 16888 C 1576.31 -2.90151 3.14637 0
M  V30 16889 C 1575.64 -4.30198 3.17544 0
M  V30 16890 C 1576.94 -2.59037 4.53539 0
M  V30 16891 H 1578.63 -1.23703 2.7265 0
M  V30 16892 H 1576.18 -0.593654 1.31194 0
M  V30 16893 H 1578.13 -3.61034 2.1733 0
M  V30 16894 H 1576.86 -3.09517 1.04244 0
M  V30 16895 H 1575.51 -2.16257 2.96021 0
M  V30 16896 H 1575.16 -4.52076 2.20536 0
M  V30 16897 H 1574.86 -4.3477 3.95284 0
M  V30 16898 H 1576.39 -5.08435 3.38121 0
M  V30 16899 H 1577.8 -3.25096 4.72214 0
M  V30 16900 H 1576.2 -2.74946 5.33408 0
M  V30 16901 H 1577.27 -1.54342 4.59681 0
M  V30 16902 N 1578.61 -1.44039 -0.639573 0
M  V30 16903 C 1579.84 -1.49844 -1.42669 0
M  V30 16904 C 1580.25 -0.120599 -1.88414 0
M  V30 16905 O 1579.61 0.871875 -1.60327 0
M  V30 16906 C 1579.66 -2.45597 -2.65263 0
M  V30 16907 O 1579.38 -3.78023 -2.21427 0
M  V30 16908 C 1580.88 -2.60781 -3.5848 0
M  V30 16909 H 1578.1 -0.508477 -0.437826 0
M  V30 16910 H 1580.65 -1.88919 -0.782923 0
M  V30 16911 H 1578.8 -2.09679 -3.2575 0
M  V30 16912 H 1579.22 -4.29642 -3.00846 0
M  V30 16913 H 1580.69 -3.31826 -4.4113 0
M  V30 16914 H 1581.17 -1.65727 -4.06732 0
M  V30 16915 H 1581.77 -2.97565 -3.03867 0
M  V30 16916 N 1580.09 0.879207 -1.30796 0
M  V30 16917 C 1581.05 1.96707 -1.17639 0
M  V30 16918 C 1582.05 1.6045 -0.106013 0
M  V30 16919 O 1583.24 1.70553 -0.354573 0
M  V30 16920 C 1580.37 3.31292 -0.803625 0
M  V30 16921 H 1581.57 2.09806 -2.14293 0
M  V30 16922 H 1579.12 1.06634 -1.14276 0
M  V30 16923 H 1579.85 3.23894 0.162159 0
M  V30 16924 H 1579.64 3.58979 -1.57723 0
M  V30 16925 H 1581.13 4.11077 -0.735201 0
M  V30 16926 N 1581.57 1.13606 1.09231 0
M  V30 16927 C 1582.81 0.900386 1.81717 0
M  V30 16928 C 1583.15 -0.571984 1.85586 0
M  V30 16929 O 1582.42 -1.42336 1.32554 0
M  V30 16930 C 1582.7 1.49143 3.27763 0
M  V30 16931 C 1582.56 3.03306 3.32153 0
M  V30 16932 C 1583.88 1.16129 4.24502 0
M  V30 16933 H 1581 0.328531 0.659724 0
M  V30 16934 H 1583.64 1.40467 1.27941 0
M  V30 16935 H 1581.79 1.06256 3.73687 0
M  V30 16936 H 1583.46 3.54963 2.94617 0
M  V30 16937 H 1581.7 3.38192 2.71677 0
M  V30 16938 H 1582.37 3.39761 4.35047 0
M  V30 16939 H 1584.85 1.53193 3.86874 0
M  V30 16940 H 1583.73 1.60129 5.25024 0
M  V30 16941 H 1583.99 0.0752973 4.42036 0
M  V30 16942 N 1583.05 -1.27244 0.929878 0
M  V30 16943 C 1583.99 -2.28755 0.421202 0
M  V30 16944 C 1584.99 -1.61988 -0.49561 0
M  V30 16945 O 1586.19 -1.76049 -0.375071 0
M  V30 16946 H 1582.57 -0.742741 0.117646 0
M  V30 16947 H 1584.54 -2.6907 1.29011 0
M  V30 16948 C 1583.29 -3.46327 -0.308737 0
M  V30 16949 H 1582.61 -3.97917 0.387552 0
M  V30 16950 H 1584.05 -4.19308 -0.629052 0
M  V30 16951 C 1582.51 -3.00535 -1.5225 0
M  V30 16952 O 1583.04 -3.04395 -2.62119 0
M  V30 16953 N 1581.25 -2.56007 -1.3751 0
M  V30 16954 H 1580.79 -2.53065 -0.481215 0
M  V30 16955 H 1580.75 -2.25731 -2.18845 0
M  V30 16956 N 1584.52 -0.695628 -1.41417 0
M  V30 16957 C 1585.46 0.00883515 -2.29198 0
M  V30 16958 C 1586.47 0.744337 -1.44788 0
M  V30 16959 O 1587.66 0.59503 -1.6829 0
M  V30 16960 C 1584.76 1.0366 -3.22657 0
M  V30 16961 C 1583.93 0.37071 -4.35826 0
M  V30 16962 C 1582.99 1.3011 -5.09861 0
M  V30 16963 O 1582.02 0.793461 -5.63642 0
M  V30 16964 N 1583.22 2.63343 -5.1733 0
M  V30 16965 H 1585.98 -0.744795 -2.90298 0
M  V30 16966 H 1583.54 -0.541663 -1.5257 0
M  V30 16967 H 1585.54 1.66075 -3.69054 0
M  V30 16968 H 1584.11 1.69177 -2.62865 0
M  V30 16969 H 1583.33 -0.433315 -3.91811 0
M  V30 16970 H 1584.61 -0.0923178 -5.08716 0
M  V30 16971 H 1584.01 3.07103 -4.75083 0
M  V30 16972 H 1582.57 3.20952 -5.67303 0
M  V30 16973 N 1586 1.51322 -0.440383 0
M  V30 16974 C 1587.23 2.07017 0.126018 0
M  V30 16975 C 1587.65 1.30537 1.35431 0
M  V30 16976 O 1587.01 0.344178 1.78003 0
M  V30 16977 C 1587.06 3.58101 0.4238 0
M  V30 16978 O 1586.16 3.83772 1.50973 0
M  V30 16979 H 1585.5 0.664 0.000530178 0
M  V30 16980 H 1588.03 1.94897 -0.622594 0
M  V30 16981 H 1588.04 4.02405 0.673363 0
M  V30 16982 H 1586.72 4.13191 -0.473932 0
M  V30 16983 H 1585.29 3.51329 1.24989 0
M  V30 16984 N 1587.48 0.171848 1.5666 0
M  V30 16985 C 1588.39 -0.770721 2.21579 0
M  V30 16986 C 1589.41 -1.25273 1.20759 0
M  V30 16987 O 1590.58 -1.30474 1.53422 0
M  V30 16988 C 1587.65 -1.98256 2.84422 0
M  V30 16989 C 1586.71 -1.54738 4.00443 0
M  V30 16990 C 1585.94 -2.70145 4.6028 0
M  V30 16991 O 1586.16 -3.87026 4.19007 0
M  V30 16992 O 1585.1 -2.44189 5.50141 0
M  V30 16993 H 1588.92 -0.247974 3.02686 0
M  V30 16994 H 1586.51 -0.0563734 1.49294 0
M  V30 16995 H 1588.39 -2.69127 3.24266 0
M  V30 16996 H 1587.07 -2.49435 2.0631 0
M  V30 16997 H 1585.97 -0.808152 3.65267 0
M  V30 16998 H 1587.31 -1.08249 4.80149 0
M  V30 16999 N 1588.96 -1.5727 -0.101874 0
M  V30 17000 C 1590.2 -1.86017 -0.807795 0
M  V30 17001 C 1590.54 -0.760024 -1.7871 0
M  V30 17002 O 1589.81 0.232627 -1.93104 0
M  V30 17003 C 1590.09 -3.25388 -1.54255 0
M  V30 17004 C 1589.95 -4.46023 -0.581693 0
M  V30 17005 C 1591.27 -3.62561 -2.49474 0
M  V30 17006 H 1588.39 -0.676596 -0.29221 0
M  V30 17007 H 1591.03 -1.89865 -0.0715861 0
M  V30 17008 H 1589.18 -3.22239 -2.17013 0
M  V30 17009 H 1590.85 -4.61284 0.0383529 0
M  V30 17010 H 1589.09 -4.33672 0.105465 0
M  V30 17011 H 1589.76 -5.40251 -1.1328 0
M  V30 17012 H 1592.24 -3.66611 -1.96813 0
M  V30 17013 H 1591.12 -4.61025 -2.97905 0
M  V30 17014 H 1591.38 -2.90885 -3.32924 0
M  V30 17015 N 1590.44 0.372521 -1.53134 0
M  V30 17016 C 1591.85 0.949671 -1.60742 0
M  V30 17017 C 1592.2 1.90475 -0.470501 0
M  V30 17018 O 1591.32 2.12594 0.404085 0
M  V30 17019 C 1591.92 1.72918 -2.9135 0
M  V30 17020 C 1590.48 2.25577 -3.01317 0
M  V30 17021 C 1589.62 1.06612 -2.55986 0
M  V30 17022 H 1592.57 0.151533 -1.57975 0
M  V30 17023 H 1592.6 2.58982 -2.78763 0
M  V30 17024 H 1592.11 1.0338 -3.74078 0
M  V30 17025 H 1590.21 2.98378 -2.23162 0
M  V30 17026 H 1590.32 2.53935 -4.06268 0
M  V30 17027 H 1588.69 1.43105 -2.10697 0
M  V30 17028 H 1589.47 0.38584 -3.41125 0
M  V30 17029 N 1591.91 1.44376 0.631925 0
M  V30 17030 C 1592.84 1.54005 1.75512 0
M  V30 17031 C 1593.82 0.393126 1.65495 0
M  V30 17032 O 1595.01 0.613143 1.84267 0
M  V30 17033 C 1592.14 1.48313 3.14039 0
M  V30 17034 C 1591.09 2.61474 3.38844 0
M  V30 17035 C 1590.42 2.40834 4.77392 0
M  V30 17036 C 1591.72 4.03627 3.31485 0
M  V30 17037 H 1593.41 2.48019 1.6771 0
M  V30 17038 H 1590.96 1.19368 0.80543 0
M  V30 17039 H 1592.91 1.5365 3.9239 0
M  V30 17040 H 1591.64 0.508152 3.22623 0
M  V30 17041 H 1590.3 2.55525 2.62874 0
M  V30 17042 H 1589.94 1.4153 4.82678 0
M  V30 17043 H 1589.64 3.16703 4.94947 0
M  V30 17044 H 1591.17 2.47988 5.57974 0
M  V30 17045 H 1592.58 4.1095 3.99741 0
M  V30 17046 H 1590.98 4.79694 3.60574 0
M  V30 17047 H 1592.05 4.27255 2.29307 0
M  V30 17048 N 1593.39 -0.872258 1.31261 0
M  V30 17049 C 1594.62 -1.65555 1.23593 0
M  V30 17050 C 1595.03 -1.88124 -0.201532 0
M  V30 17051 O 1594.37 -1.43792 -1.14323 0
M  V30 17052 C 1594.43 -3.04726 1.90742 0
M  V30 17053 C 1594.1 -3.05276 3.40082 0
M  V30 17054 C 1595.1 -2.83401 4.35867 0
M  V30 17055 C 1592.78 -3.26469 3.81737 0
M  V30 17056 C 1594.77 -2.82697 5.71281 0
M  V30 17057 C 1592.46 -3.25393 5.17265 0
M  V30 17058 C 1593.46 -3.03533 6.11847 0
M  V30 17059 O 1593.15 -3.02297 7.44897 0
M  V30 17060 H 1592.88 -0.52296 0.428356 0
M  V30 17061 H 1595.43 -1.09717 1.73641 0
M  V30 17062 H 1593.66 -3.62281 1.35239 0
M  V30 17063 H 1595.35 -3.65265 1.7702 0
M  V30 17064 H 1596.12 -2.66812 4.05014 0
M  V30 17065 H 1592 -3.42515 3.08552 0
M  V30 17066 H 1595.54 -2.65553 6.45079 0
M  V30 17067 H 1591.44 -3.41522 5.47753 0
M  V30 17068 H 1592.21 -3.18375 7.54042 0
M  V30 17069 N 1594.87 -1.14184 -1.08627 0
M  V30 17070 C 1595.82 -0.826718 -2.15486 0
M  V30 17071 C 1596.79 0.214769 -1.64706 0
M  V30 17072 O 1597.97 0.0851909 -1.9061 0
M  V30 17073 C 1595.11 -0.307888 -3.43724 0
M  V30 17074 C 1594.22 -1.40941 -4.08362 0
M  V30 17075 C 1593.36 -0.848059 -5.24387 0
M  V30 17076 C 1592.4 -1.92741 -5.80962 0
M  V30 17077 N 1591.54 -1.3834 -6.88336 0
M  V30 17078 H 1596.38 -1.74198 -2.41783 0
M  V30 17079 H 1593.91 -0.869406 -1.18658 0
M  V30 17080 H 1595.87 0.0111149 -4.17199 0
M  V30 17081 H 1594.5 0.570488 -3.17719 0
M  V30 17082 H 1593.55 -1.84485 -3.3267 0
M  V30 17083 H 1594.86 -2.22485 -4.46433 0
M  V30 17084 H 1594.02 -0.480826 -6.04792 0
M  V30 17085 H 1592.76 -0.00163783 -4.877 0
M  V30 17086 H 1591.76 -2.30362 -4.99213 0
M  V30 17087 H 1592.99 -2.77738 -6.19708 0
M  V30 17088 H 1590.93 -0.559124 -6.53613 0
M  V30 17089 H 1590.85 -2.13524 -7.2522 0
M  V30 17090 H 1592.12 -1.044 -7.72477 0
M  V30 17091 N 1596.35 1.26749 -0.936613 0
M  V30 17092 C 1597.63 1.89106 -0.49981 0
M  V30 17093 C 1598.01 1.84687 1.02244 0
M  V30 17094 O 1597.35 1.2981 1.88047 0
M  V30 17095 C 1597.56 3.32641 -1.05598 0
M  V30 17096 C 1598.91 4.09511 -1.12187 0
M  V30 17097 O 1599.94 3.41692 -1.00624 0
M  V30 17098 O 1598.79 5.30785 -1.30113 0
M  V30 17099 H 1595.89 0.810941 -0.162185 0
M  V30 17100 H 1598.43 1.34952 -1.02888 0
M  V30 17101 H 1597.21 3.30196 -2.09968 0
M  V30 17102 H 1596.83 3.94327 -0.509086 0
M  V30 17103 N 1597.83 0.703118 1.41046 0
M  V30 17104 C 1599.24 0.311167 1.84089 0
M  V30 17105 C 1599.59 -1.15202 1.58818 0
M  V30 17106 O 1598.71 -1.88518 1.06254 0
M  V30 17107 C 1599.31 0.557986 3.34174 0
M  V30 17108 C 1597.87 0.219875 3.75757 0
M  V30 17109 C 1597.01 0.836543 2.64381 0
M  V30 17110 H 1599.97 0.903211 1.30491 0
M  V30 17111 H 1599.99 -0.180865 3.8007 0
M  V30 17112 H 1599.5 1.62298 3.52535 0
M  V30 17113 H 1597.6 -0.840559 3.62995 0
M  V30 17114 H 1597.71 0.680165 4.74247 0
M  V30 17115 H 1596.08 0.265547 2.53312 0
M  V30 17116 H 1596.86 1.90556 2.85558 0
M  V30 17117 N 1599.3 -1.51086 0.448402 0
M  V30 17118 C 1600.58 -1.94817 -0.174819 0
M  V30 17119 C 1600.96 -1.38767 -1.59081 0
M  V30 17120 O 1600.31 -0.579257 -2.21036 0
M  V30 17121 C 1600.52 -3.48714 -0.14129 0
M  V30 17122 C 1601.87 -4.23225 -0.341414 0
M  V30 17123 O 1602.89 -3.55527 -0.218908 0
M  V30 17124 O 1601.75 -5.43346 -0.586331 0
M  V30 17125 H 1598.84 -0.817652 -0.12399 0
M  V30 17126 H 1601.39 -1.61944 0.507177 0
M  V30 17127 H 1600.16 -3.81996 0.848222 0
M  V30 17128 H 1599.79 -3.88061 -0.865722 0
M  V30 17129 N 1600.78 -0.180154 -1.56567 0
M  V30 17130 C 1602.06 0.509347 -1.88852 0
M  V30 17131 C 1602.44 1.80697 -1.09141 0
M  V30 17132 O 1601.79 2.27726 -0.187974 0
M  V30 17133 C 1602 0.742669 -3.41006 0
M  V30 17134 C 1603.35 1.06873 -4.1093 0
M  V30 17135 O 1604.37 0.830907 -3.46373 0
M  V30 17136 O 1603.23 1.51784 -5.24999 0
M  V30 17137 H 1600.32 0.263629 -0.783855 0
M  V30 17138 H 1602.87 -0.219251 -1.68278 0
M  V30 17139 H 1601.64 -0.17431 -3.90912 0
M  V30 17140 H 1601.26 1.52427 -3.67222 0
M  V30 17141 N 1602.26 1.57322 0.0935319 0
M  V30 17142 C 1603.54 1.77187 0.828503 0
M  V30 17143 C 1603.92 0.762216 1.96859 0
M  V30 17144 O 1603.27 -0.208982 2.27542 0
M  V30 17145 C 1603.48 3.23007 1.32163 0
M  V30 17146 C 1604.82 3.86233 1.76379 0
M  V30 17147 O 1605.85 3.26766 1.41783 0
M  V30 17148 O 1604.71 4.90808 2.40354 0
M  V30 17149 H 1601.8 0.726401 0.395311 0
M  V30 17150 H 1604.35 1.69533 0.0752924 0
M  V30 17151 H 1603.12 3.88029 0.504863 0
M  V30 17152 H 1602.74 3.353 2.13681 0
M  V30 17153 N 1603.74 -0.364395 1.53329 0
M  V30 17154 C 1604.67 -1.45243 1.8283 0
M  V30 17155 C 1605.65 -1.55834 0.681886 0
M  V30 17156 O 1606.83 -1.70383 0.931845 0
M  V30 17157 C 1603.96 -2.82565 2.01926 0
M  V30 17158 C 1602.92 -2.86797 3.17697 0
M  V30 17159 C 1602.24 -4.26806 3.22089 0
M  V30 17160 C 1603.54 -2.54212 4.56261 0
M  V30 17161 H 1605.24 -1.20804 2.73946 0
M  V30 17162 H 1602.78 -0.579705 1.31816 0
M  V30 17163 H 1604.74 -3.58709 2.21147 0
M  V30 17164 H 1603.46 -3.08394 1.07521 0
M  V30 17165 H 1602.12 -2.13105 2.98298 0
M  V30 17166 H 1601.77 -4.49712 2.25318 0
M  V30 17167 H 1601.47 -4.30553 3.99873 0
M  V30 17168 H 1602.99 -5.04821 3.43495 0
M  V30 17169 H 1604.41 -3.20069 4.75635 0
M  V30 17170 H 1602.8 -2.69273 5.36295 0
M  V30 17171 H 1603.87 -1.49458 4.61292 0
M  V30 17172 N 1605.22 -1.44709 -0.62426 0
M  V30 17173 C 1606.44 -1.51348 -1.41072 0
M  V30 17174 C 1606.86 -0.140576 -1.88276 0
M  V30 17175 O 1606.22 0.854821 -1.61242 0
M  V30 17176 C 1606.27 -2.48396 -2.62643 0
M  V30 17177 O 1605.99 -3.8035 -2.17406 0
M  V30 17178 C 1607.49 -2.64568 -3.55694 0
M  V30 17179 H 1604.71 -0.513092 -0.432409 0
M  V30 17180 H 1607.25 -1.89739 -0.762841 0
M  V30 17181 H 1605.41 -2.13122 -3.23508 0
M  V30 17182 H 1605.82 -4.32809 -2.96272 0
M  V30 17183 H 1607.3 -3.36486 -4.37585 0
M  V30 17184 H 1607.77 -1.70031 -4.04952 0
M  V30 17185 H 1608.38 -3.00771 -3.00694 0
M  V30 17186 N 1606.69 0.865285 -1.31722 0
M  V30 17187 C 1607.62 1.98871 -1.22362 0
M  V30 17188 C 1608.61 1.69745 -0.109779 0
M  V30 17189 O 1609.79 1.91944 -0.295167 0
M  V30 17190 C 1606.92 3.34477 -0.935 0
M  V30 17191 C 1605.87 3.77924 -2.00892 0
M  V30 17192 C 1605.2 5.11042 -1.57291 0
M  V30 17193 C 1606.5 3.94528 -3.42264 0
M  V30 17194 H 1608.19 2.06959 -2.16352 0
M  V30 17195 H 1605.74 0.994355 -1.04157 0
M  V30 17196 H 1607.69 4.12612 -0.856111 0
M  V30 17197 H 1606.42 3.26575 0.0405536 0
M  V30 17198 H 1605.08 3.02032 -2.07779 0
M  V30 17199 H 1604.72 4.99586 -0.585084 0
M  V30 17200 H 1604.42 5.41082 -2.29138 0
M  V30 17201 H 1605.95 5.91681 -1.50818 0
M  V30 17202 H 1607.36 4.63045 -3.38027 0
M  V30 17203 H 1605.76 4.35972 -4.12369 0
M  V30 17204 H 1606.83 2.97765 -3.82706 0
M  V30 17205 N 1608.17 1.14759 1.0802 0
M  V30 17206 C 1609.1 0.860977 2.17047 0
M  V30 17207 C 1610.08 -0.185652 1.69084 0
M  V30 17208 O 1611.27 -0.0414797 1.94156 0
M  V30 17209 C 1608.4 0.342018 3.45612 0
M  V30 17210 C 1607.35 1.32455 4.06989 0
M  V30 17211 C 1606.68 0.664721 5.30552 0
M  V30 17212 C 1607.98 2.68819 4.4781 0
M  V30 17213 H 1609.67 1.77269 2.4128 0
M  V30 17214 H 1607.22 0.853757 1.15961 0
M  V30 17215 H 1609.17 0.129093 4.21202 0
M  V30 17216 H 1607.9 -0.605138 3.20945 0
M  V30 17217 H 1606.55 1.52371 3.33435 0
M  V30 17218 H 1606.2 -0.288367 5.02173 0
M  V30 17219 H 1605.9 1.32036 5.72573 0
M  V30 17220 H 1607.43 0.461412 6.08854 0
M  V30 17221 H 1608.84 2.52787 5.14559 0
M  V30 17222 H 1607.24 3.30694 5.00761 0
M  V30 17223 H 1608.31 3.25398 3.59506 0
M  V30 17224 N 1609.65 -1.26251 0.943322 0
M  V30 17225 C 1610.9 -1.92946 0.587764 0
M  V30 17226 C 1611.21 -1.74805 -0.877647 0
M  V30 17227 O 1612.42 -2.35976 -1.34267 0
M  V30 17228 C 1610.87 -3.45715 1.00047 0
M  V30 17229 C 1610.48 -3.72586 2.48764 0
M  V30 17230 C 1612.23 -4.18403 0.716905 0
M  V30 17231 C 1610.13 -5.18805 2.83893 0
M  V30 17232 H 1609.06 -0.722366 0.21611 0
M  V30 17233 H 1611.71 -1.43295 1.14625 0
M  V30 17234 H 1610.1 -3.94263 0.370491 0
M  V30 17235 H 1611.27 -3.34735 3.16684 0
M  V30 17236 H 1609.59 -3.13136 2.74472 0
M  V30 17237 H 1612.18 -5.2609 0.955669 0
M  V30 17238 H 1612.53 -4.14856 -0.346396 0
M  V30 17239 H 1613.06 -3.75726 1.3067 0
M  V30 17240 H 1609.8 -5.27454 3.89195 0
M  V30 17241 H 1609.32 -5.57745 2.20636 0
M  V30 17242 H 1611 -5.86828 2.72474 0
M  V30 17243 N 1611.13 -0.710588 -1.40671 0
M  V30 17244 C 1612.06 -0.0694601 -2.33397 0
M  V30 17245 C 1613.04 0.750959 -1.52626 0
M  V30 17246 O 1614.23 0.700896 -1.81111 0
M  V30 17247 C 1611.36 0.856704 -3.36568 0
M  V30 17248 C 1610.31 0.142276 -4.27763 0
M  V30 17249 C 1609.64 1.18382 -5.21431 0
M  V30 17250 C 1610.94 -1.00052 -5.12627 0
M  V30 17251 H 1612.63 -0.843945 -2.87259 0
M  V30 17252 H 1610.18 -0.407287 -1.3812 0
M  V30 17253 H 1612.13 1.31457 -4.00371 0
M  V30 17254 H 1610.85 1.66303 -2.81089 0
M  V30 17255 H 1609.51 -0.295714 -3.65405 0
M  V30 17256 H 1609.16 1.98306 -4.62259 0
M  V30 17257 H 1608.86 0.71071 -5.83286 0
M  V30 17258 H 1610.38 1.64189 -5.88111 0
M  V30 17259 H 1611.8 -0.622246 -5.69913 0
M  V30 17260 H 1610.19 -1.40168 -5.83501 0
M  V30 17261 H 1611.26 -1.83345 -4.48902 0
M  V30 17262 N 1612.61 1.50847 -0.456408 0
M  V30 17263 C 1613.52 2.31959 0.351027 0
M  V30 17264 C 1614.53 1.41697 1.00986 0
M  V30 17265 O 1615.71 1.7476 1.00105 0
M  V30 17266 C 1612.77 3.15973 1.42696 0
M  V30 17267 C 1611.84 4.22038 0.786272 0
M  V30 17268 C 1611.07 5.02036 1.81094 0
M  V30 17269 O 1611.29 4.82913 3.03564 0
M  V30 17270 O 1610.23 5.85609 1.3909 0
M  V30 17271 H 1614.05 3.02096 -0.311678 0
M  V30 17272 H 1611.64 1.47793 -0.218544 0
M  V30 17273 H 1613.52 3.68146 2.05053 0
M  V30 17274 H 1612.19 2.48579 2.0734 0
M  V30 17275 H 1611.1 3.73894 0.124148 0
M  V30 17276 H 1612.43 4.9186 0.183016 0
M  V30 17277 N 1614.09 0.188454 1.56469 0
M  V30 17278 C 1615 -0.747176 2.22384 0
M  V30 17279 C 1616.01 -1.23985 1.22081 0
M  V30 17280 O 1617.19 -1.2884 1.54797 0
M  V30 17281 C 1614.25 -1.95228 2.86508 0
M  V30 17282 C 1613.31 -1.50482 4.02062 0
M  V30 17283 C 1612.55 -2.65248 4.63119 0
M  V30 17284 O 1612.77 -3.8256 4.23088 0
M  V30 17285 O 1611.7 -2.38341 5.527 0
M  V30 17286 H 1615.53 -0.215857 3.02932 0
M  V30 17287 H 1613.11 -0.0405356 1.49345 0
M  V30 17288 H 1615 -2.65673 3.27103 0
M  V30 17289 H 1613.67 -2.47233 2.08944 0
M  V30 17290 H 1612.58 -0.769365 3.66103 0
M  V30 17291 H 1613.91 -1.03151 4.8127 0
M  V30 17292 N 1615.56 -1.5737 -0.0851874 0
M  V30 17293 C 1616.84 -1.77624 -0.819094 0
M  V30 17294 C 1617.22 -0.772645 -1.96452 0
M  V30 17295 O 1616.57 0.196912 -2.2765 0
M  V30 17296 C 1616.78 -3.23704 -1.30449 0
M  V30 17297 C 1618.13 -3.87163 -1.74328 0
M  V30 17298 O 1619.15 -3.27513 -1.40048 0
M  V30 17299 O 1618.01 -4.92075 -2.37748 0
M  V30 17300 H 1615.1 -0.728487 -0.391453 0
M  V30 17301 H 1617.65 -1.6957 -0.0663006 0
M  V30 17302 H 1616.42 -3.88292 -0.484277 0
M  V30 17303 H 1616.04 -3.36429 -2.119 0
M  V30 17304 N 1617.04 0.356258 -1.53521 0
M  V30 17305 C 1618.46 0.698546 -1.43501 0
M  V30 17306 C 1618.66 1.92926 -0.581547 0
M  V30 17307 O 1617.71 2.5241 -0.0675947 0
M  V30 17308 C 1619.03 0.903047 -2.8682 0
M  V30 17309 C 1620.57 1.00247 -2.96512 0
M  V30 17310 C 1621.05 1.23938 -4.40912 0
M  V30 17311 N 1622.54 1.30687 -4.44382 0
M  V30 17312 C 1623.28 1.50745 -5.5323 0
M  V30 17313 N 1622.77 1.68058 -6.72107 0
M  V30 17314 N 1624.56 1.5319 -5.40823 0
M  V30 17315 H 1616.72 -0.453102 -2.07511 0
M  V30 17316 H 1618.98 -0.140708 -0.937499 0
M  V30 17317 H 1618.68 0.070416 -3.5163 0
M  V30 17318 H 1618.56 1.80847 -3.3102 0
M  V30 17319 H 1620.95 1.82564 -2.3185 0
M  V30 17320 H 1621.03 0.0742303 -2.55692 0
M  V30 17321 H 1620.67 0.421189 -5.06151 0
M  V30 17322 H 1620.6 2.18098 -4.79313 0
M  V30 17323 H 1623.09 1.18883 -3.58713 0
M  V30 17324 H 1623.4 1.82963 -7.50829 0
M  V30 17325 H 1621.75 1.65219 -6.75076 0
M  V30 17326 H 1624.94 1.39237 -4.46912 0
M  V30 17327 H 1625.11 1.6848 -6.25714 0
M  V30 17328 N 1618.52 1.45038 0.616577 0
M  V30 17329 C 1619.45 1.55858 1.73869 0
M  V30 17330 C 1620.43 0.410657 1.65069 0
M  V30 17331 O 1621.62 0.632652 1.83606 0
M  V30 17332 C 1618.75 1.51635 3.12448 0
M  V30 17333 C 1617.7 2.65053 3.36052 0
M  V30 17334 C 1617.03 2.45883 4.74811 0
M  V30 17335 C 1618.33 4.07121 3.27185 0
M  V30 17336 H 1620.02 2.49784 1.6507 0
M  V30 17337 H 1617.57 1.20216 0.792724 0
M  V30 17338 H 1619.52 1.57803 3.90738 0
M  V30 17339 H 1618.24 0.542342 3.22066 0
M  V30 17340 H 1616.9 2.58299 2.60149 0
M  V30 17341 H 1616.55 1.46641 4.8115 0
M  V30 17342 H 1616.25 3.21935 4.9156 0
M  V30 17343 H 1617.77 2.53892 5.55312 0
M  V30 17344 H 1619.19 4.15167 3.9536 0
M  V30 17345 H 1617.58 4.83491 3.55466 0
M  V30 17346 H 1618.65 4.29663 2.24762 0
M  V30 17347 N 1620 -0.858287 1.32179 0
M  V30 17348 C 1620.93 -1.98219 1.23415 0
M  V30 17349 C 1621.91 -1.69685 0.118779 0
M  V30 17350 O 1623.09 -1.91785 0.305342 0
M  V30 17351 C 1620.22 -3.33977 0.952725 0
M  V30 17352 C 1619.18 -3.76853 2.02894 0
M  V30 17353 C 1618.5 -5.10201 1.59999 0
M  V30 17354 C 1619.8 -3.92707 3.44352 0
M  V30 17355 H 1621.5 -2.05809 2.17446 0
M  V30 17356 H 1619.04 -0.988817 1.04682 0
M  V30 17357 H 1621 -4.12152 0.87798 0
M  V30 17358 H 1619.72 -3.26592 -0.023234 0
M  V30 17359 H 1618.38 -3.00926 2.09378 0
M  V30 17360 H 1618.03 -4.99268 0.61157 0
M  V30 17361 H 1617.73 -5.39859 2.32004 0
M  V30 17362 H 1619.25 -5.90873 1.53954 0
M  V30 17363 H 1620.67 -4.61246 3.40477 0
M  V30 17364 H 1619.06 -4.33779 4.14675 0
M  V30 17365 H 1620.13 -2.95731 3.8428 0
M  V30 17366 N 1621.48 -1.1533 -1.07409 0
M  V30 17367 C 1622.7 -0.952101 -1.84255 0
M  V30 17368 C 1623.13 0.494571 -1.81482 0
M  V30 17369 O 1622.48 1.35253 -1.20733 0
M  V30 17370 C 1622.53 -1.47019 -3.29268 0
M  V30 17371 O 1621.64 -0.669005 -4.06937 0
M  V30 17372 H 1620.98 -0.339643 -0.57056 0
M  V30 17373 H 1623.51 -1.53298 -1.35502 0
M  V30 17374 H 1623.52 -1.48278 -3.80102 0
M  V30 17375 H 1622.19 -2.5234 -3.30602 0
M  V30 17376 H 1620.77 -0.726003 -3.65764 0
M  V30 17377 N 1622.95 1.25748 -0.950004 0
M  V30 17378 C 1624.2 1.92954 -0.601104 0
M  V30 17379 C 1624.52 1.74817 0.863953 0
M  V30 17380 O 1623.79 1.10904 1.61484 0
M  V30 17381 H 1622.37 0.714077 -0.219325 0
M  V30 17382 H 1625.03 1.53009 -1.20724 0
M  V30 17383 H 1624.13 3.00959 -0.826447 0
M  V30 17384 N 1624.43 0.718038 1.40292 0
M  V30 17385 C 1625.68 0.258603 2.00842 0
M  V30 17386 C 1626.01 -1.14894 1.56938 0
M  V30 17387 O 1625.26 -1.79414 0.781606 0
M  V30 17388 C 1625.56 0.289374 3.56227 0
M  V30 17389 C 1625.23 1.64756 4.19722 0
M  V30 17390 C 1623.89 2.01934 4.36779 0
M  V30 17391 C 1626.24 2.54008 4.55115 0
M  V30 17392 C 1623.57 3.27905 4.86513 0
M  V30 17393 C 1625.92 3.79334 5.06249 0
M  V30 17394 C 1624.58 4.16626 5.21516 0
M  V30 17395 H 1623.85 0.0946296 0.734933 0
M  V30 17396 H 1626.5 0.921552 1.67868 0
M  V30 17397 H 1624.81 -0.457147 3.89124 0
M  V30 17398 H 1626.5 -0.0839832 4.00912 0
M  V30 17399 H 1623.09 1.34846 4.06835 0
M  V30 17400 H 1627.28 2.2656 4.4157 0
M  V30 17401 H 1622.53 3.56763 4.96518 0
M  V30 17402 H 1626.71 4.48663 5.32611 0
M  V30 17403 H 1624.33 5.14306 5.59815 0
M  V30 17404 N 1625.91 -1.50602 0.464402 0
M  V30 17405 C 1627.16 -2.02587 -0.0930295 0
M  V30 17406 C 1627.49 -1.34618 -1.3997 0
M  V30 17407 O 1626.76 -0.469711 -1.88743 0
M  V30 17408 C 1627.05 -3.5898 -0.283783 0
M  V30 17409 C 1626.9 -4.3753 1.04344 0
M  V30 17410 C 1628.22 -4.27602 -1.04138 0
M  V30 17411 H 1625.34 -0.73629 -0.0323356 0
M  V30 17412 H 1627.98 -1.79986 0.608687 0
M  V30 17413 H 1626.13 -3.78368 -0.881488 0
M  V30 17414 H 1627.8 -4.29729 1.67721 0
M  V30 17415 H 1626.05 -4.01536 1.64168 0
M  V30 17416 H 1626.72 -5.45201 0.863691 0
M  V30 17417 H 1629.19 -4.12649 -0.534822 0
M  V30 17418 H 1628.07 -5.36854 -1.14364 0
M  V30 17419 H 1628.33 -3.9031 -2.0763 0
M  V30 17420 N 1627.39 -0.19675 -1.56367 0
M  V30 17421 C 1628.8 0.315555 -1.84014 0
M  V30 17422 C 1629.15 1.61267 -1.11747 0
M  V30 17423 O 1628.28 2.13058 -0.378824 0
M  V30 17424 C 1628.87 0.579307 -3.33811 0
M  V30 17425 C 1627.43 1.03598 -3.61862 0
M  V30 17426 C 1626.58 0.0854845 -2.77168 0
M  V30 17427 H 1629.53 -0.4205 -1.53028 0
M  V30 17428 H 1629.55 1.42841 -3.52671 0
M  V30 17429 H 1629.06 -0.364925 -3.86381 0
M  V30 17430 H 1627.16 1.99443 -3.14727 0
M  V30 17431 H 1627.27 0.927547 -4.70035 0
M  V30 17432 H 1625.64 0.58768 -2.47827 0
M  V30 17433 H 1626.42 -0.853221 -3.32528 0
M  V30 17434 N 1628.87 1.57413 0.0768405 0
M  V30 17435 C 1629.8 2.06378 1.09226 0
M  V30 17436 C 1630.78 0.956269 1.40675 0
M  V30 17437 O 1631.96 1.22868 1.5039 0
M  V30 17438 C 1629.09 2.50349 2.40712 0
M  V30 17439 C 1628.05 3.64931 2.23628 0
M  V30 17440 C 1627.37 3.9494 3.60453 0
M  V30 17441 C 1628.67 4.95162 1.66169 0
M  V30 17442 H 1630.37 2.91463 0.684827 0
M  V30 17443 H 1627.91 1.40215 0.327974 0
M  V30 17444 H 1629.87 2.83216 3.12036 0
M  V30 17445 H 1628.59 1.62287 2.83426 0
M  V30 17446 H 1627.25 3.32339 1.54747 0
M  V30 17447 H 1626.9 3.04016 4.00728 0
M  V30 17448 H 1626.6 4.72091 3.49863 0
M  V30 17449 H 1628.12 4.30299 4.33215 0
M  V30 17450 H 1629.53 5.26292 2.27353 0
M  V30 17451 H 1627.93 5.76601 1.66289 0
M  V30 17452 H 1629 4.80885 0.62271 0
M  V30 17453 N 1630.34 -0.348112 1.53707 0
M  V30 17454 C 1631.27 -1.43296 1.8436 0
M  V30 17455 C 1632.26 -1.55102 0.698376 0
M  V30 17456 O 1633.44 -1.69385 0.949864 0
M  V30 17457 C 1630.57 -2.80407 2.04912 0
M  V30 17458 C 1629.52 -2.83412 3.20721 0
M  V30 17459 C 1628.85 -4.23365 3.26597 0
M  V30 17460 C 1630.15 -2.49358 4.58931 0
M  V30 17461 H 1631.84 -1.17892 2.75212 0
M  V30 17462 H 1629.39 -0.565692 1.32423 0
M  V30 17463 H 1631.34 -3.56343 2.24939 0
M  V30 17464 H 1630.07 -3.07236 1.10786 0
M  V30 17465 H 1628.73 -2.09929 3.00542 0
M  V30 17466 H 1628.37 -4.47297 2.30076 0
M  V30 17467 H 1628.07 -4.26287 4.04417 0
M  V30 17468 H 1629.6 -5.01149 3.4883 0
M  V30 17469 H 1631.01 -3.15006 4.79003 0
M  V30 17470 H 1629.41 -2.6357 5.3912 0
M  V30 17471 H 1630.48 -1.44557 4.62851 0
M  V30 17472 N 1631.82 -1.45363 -0.608876 0
M  V30 17473 C 1632.79 -1.53551 -1.70161 0
M  V30 17474 C 1633.79 -0.415146 -1.55349 0
M  V30 17475 O 1634.98 -0.67858 -1.6044 0
M  V30 17476 C 1632.11 -1.43081 -3.0942 0
M  V30 17477 H 1633.3 -2.5091 -1.64268 0
M  V30 17478 H 1630.85 -1.32785 -0.824493 0
M  V30 17479 H 1631.59 -0.469016 -3.20891 0
M  V30 17480 H 1631.37 -2.24343 -3.21579 0
M  V30 17481 H 1632.86 -1.51841 -3.89017 0
M  V30 17482 N 1633.3 0.851265 -1.32632 0
M  V30 17483 C 1634.26 1.94168 -1.21785 0
M  V30 17484 C 1635.26 1.60189 -0.140023 0
M  V30 17485 O 1636.45 1.69763 -0.390671 0
M  V30 17486 C 1633.59 3.29513 -0.873717 0
M  V30 17487 H 1634.78 2.05214 -2.18695 0
M  V30 17488 H 1632.33 1.04186 -1.16512 0
M  V30 17489 H 1633.07 3.24165 0.0934202 0
M  V30 17490 H 1632.85 3.55552 -1.65302 0
M  V30 17491 H 1634.34 4.09425 -0.822231 0
M  V30 17492 N 1634.78 1.15898 1.06796 0
M  V30 17493 C 1636.19 0.945837 1.60968 0
M  V30 17494 C 1636.54 -0.511507 1.89415 0
M  V30 17495 O 1635.67 -1.38372 1.66379 0
M  V30 17496 C 1636.26 1.71054 2.92448 0
M  V30 17497 C 1634.82 1.54252 3.43341 0
M  V30 17498 C 1633.97 1.72253 2.17311 0
M  V30 17499 H 1636.92 1.30842 0.898118 0
M  V30 17500 H 1636.94 1.18336 3.61631 0
M  V30 17501 H 1636.45 2.77117 2.71712 0
M  V30 17502 H 1634.55 0.506082 3.69147 0
M  V30 17503 H 1634.66 2.32314 4.19007 0
M  V30 17504 H 1633.03 1.14952 2.27284 0
M  V30 17505 H 1633.81 2.79693 1.99064 0
M  V30 17506 N 1636.26 -1.25243 0.956659 0
M  V30 17507 C 1637.19 -2.25019 0.435795 0
M  V30 17508 C 1638.2 -1.56473 -0.449435 0
M  V30 17509 O 1639.39 -1.76635 -0.257386 0
M  V30 17510 C 1636.49 -3.36634 -0.391226 0
M  V30 17511 C 1635.66 -4.34742 0.481483 0
M  V30 17512 C 1634.72 -5.25413 -0.287678 0
M  V30 17513 O 1633.75 -5.6833 0.314618 0
M  V30 17514 N 1634.95 -5.58578 -1.58023 0
M  V30 17515 H 1637.72 -2.70344 1.2936 0
M  V30 17516 H 1635.28 -1.3917 0.827245 0
M  V30 17517 H 1637.27 -3.94254 -0.913552 0
M  V30 17518 H 1635.84 -2.90682 -1.14991 0
M  V30 17519 H 1635.06 -3.75971 1.18489 0
M  V30 17520 H 1636.35 -4.97269 1.07707 0
M  V30 17521 H 1635.74 -5.25618 -2.09146 0
M  V30 17522 H 1634.3 -6.18774 -2.04848 0
M  V30 17523 N 1637.73 -0.725468 -1.3991 0
M  V30 17524 C 1639.01 -0.195971 -1.94616 0
M  V30 17525 C 1639.39 1.30035 -1.66295 0
M  V30 17526 O 1638.74 2.06133 -0.985977 0
M  V30 17527 C 1638.95 -0.519325 -3.45115 0
M  V30 17528 C 1640.3 -0.46341 -4.22064 0
M  V30 17529 O 1641.32 -0.455958 -3.5327 0
M  V30 17530 O 1640.18 -0.449579 -5.44648 0
M  V30 17531 H 1637.27 -0.0325409 -0.82636 0
M  V30 17532 H 1639.82 -0.803676 -1.49463 0
M  V30 17533 H 1638.59 -1.55386 -3.59125 0
M  V30 17534 H 1638.22 0.117838 -3.97425 0
M  V30 17535 N 1639.21 1.50354 -0.472382 0
M  V30 17536 C 1640.62 1.86692 -0.0175768 0
M  V30 17537 C 1640.97 1.38708 1.3876 0
M  V30 17538 O 1640.1 0.752614 2.02891 0
M  V30 17539 C 1640.69 3.38791 -0.0251205 0
M  V30 17540 C 1639.25 3.74535 0.37422 0
M  V30 17541 C 1638.4 2.74252 -0.410045 0
M  V30 17542 H 1641.35 1.43079 -0.686593 0
M  V30 17543 H 1641.37 3.72487 0.776754 0
M  V30 17544 H 1640.88 3.73684 -1.04795 0
M  V30 17545 H 1638.99 3.45243 1.40135 0
M  V30 17546 H 1639.1 4.79042 0.0746666 0
M  V30 17547 H 1637.46 2.54334 0.136417 0
M  V30 17548 H 1638.25 3.11989 -1.43241 0
M  V30 17549 N 1640.69 0.205039 1.56261 0
M  V30 17550 C 1641.93 -0.433144 1.99758 0
M  V30 17551 C 1642.3 -1.58109 1.08929 0
M  V30 17552 O 1643.5 -2.28415 1.41703 0
M  V30 17553 C 1641.77 -0.872197 3.46594 0
M  V30 17554 S 1643.33 -1.50682 4.12117 0
M  V30 17555 H 1640.14 -0.138137 0.697452 0
M  V30 17556 H 1642.75 0.310446 1.93019 0
M  V30 17557 H 1641.45 -0.0267951 4.10391 0
M  V30 17558 H 1640.98 -1.64901 3.57171 0
M  V30 17559 H 1643 -2.79573 4.09943 0
M  V30 17560 N 1642.17 -1.57451 -0.0684915 0
M  V30 17561 C 1643.4 -1.91362 -0.778724 0
M  V30 17562 C 1643.81 -0.799579 -1.71474 0
M  V30 17563 O 1643.15 0.235727 -1.82181 0
M  V30 17564 C 1643.21 -3.20767 -1.62323 0
M  V30 17565 C 1642.88 -4.48907 -0.85623 0
M  V30 17566 C 1643.87 -5.19609 -0.173992 0
M  V30 17567 C 1641.56 -4.95521 -0.822427 0
M  V30 17568 C 1643.55 -6.35178 0.531784 0
M  V30 17569 C 1641.24 -6.10996 -0.11288 0
M  V30 17570 C 1642.24 -6.80675 0.563022 0
M  V30 17571 O 1641.93 -7.93946 1.26113 0
M  V30 17572 H 1641.66 -0.636969 -0.226376 0
M  V30 17573 H 1644.21 -2.05357 -0.0420481 0
M  V30 17574 H 1642.44 -3.0299 -2.40279 0
M  V30 17575 H 1644.13 -3.40303 -2.21244 0
M  V30 17576 H 1644.9 -4.84622 -0.191393 0
M  V30 17577 H 1640.78 -4.41156 -1.33798 0
M  V30 17578 H 1644.32 -6.89501 1.05991 0
M  V30 17579 H 1640.22 -6.45432 -0.0934182 0
M  V30 17580 H 1640.98 -8.10084 1.17074 0
M  V30 17581 N 1643.65 0.339955 -1.5389 0
M  V30 17582 C 1644.89 1.08139 -1.71563 0
M  V30 17583 C 1645.23 1.88193 -0.479292 0
M  V30 17584 O 1644.5 1.87317 0.523702 0
M  V30 17585 C 1644.78 2.01963 -2.98132 0
M  V30 17586 C 1644.64 1.25349 -4.31981 0
M  V30 17587 C 1645.96 3.01729 -3.20387 0
M  V30 17588 H 1643.08 0.391744 -0.624264 0
M  V30 17589 H 1645.72 0.359609 -1.86566 0
M  V30 17590 H 1643.87 2.63511 -2.85472 0
M  V30 17591 H 1645.54 0.66388 -4.56498 0
M  V30 17592 H 1643.78 0.555541 -4.30228 0
M  V30 17593 H 1644.45 1.94154 -5.16728 0
M  V30 17594 H 1646.93 2.50297 -3.32401 0
M  V30 17595 H 1645.81 3.64577 -4.10335 0
M  V30 17596 H 1646.07 3.73303 -2.36849 0
M  V30 17597 N 1645.13 1.45684 0.601159 0
M  V30 17598 C 1646.04 1.57396 1.73965 0
M  V30 17599 C 1647.05 0.458133 1.6786 0
M  V30 17600 O 1648.23 0.719717 1.88101 0
M  V30 17601 C 1645.29 1.54363 3.1044 0
M  V30 17602 C 1644.35 2.77034 3.27949 0
M  V30 17603 C 1643.59 2.74136 4.57914 0
M  V30 17604 O 1643.81 1.81829 5.40643 0
M  V30 17605 O 1642.74 3.65428 4.78274 0
M  V30 17606 H 1646.57 2.5364 1.67034 0
M  V30 17607 H 1644.15 1.28267 0.766017 0
M  V30 17608 H 1646.04 1.55302 3.91739 0
M  V30 17609 H 1644.71 0.612723 3.17848 0
M  V30 17610 H 1643.62 2.81655 2.46214 0
M  V30 17611 H 1644.95 3.69272 3.25422 0
M  V30 17612 N 1646.6 -0.84422 1.33082 0
M  V30 17613 C 1647.55 -1.95363 1.2289 0
M  V30 17614 C 1648.52 -1.65744 0.108705 0
M  V30 17615 O 1649.71 -1.88643 0.286057 0
M  V30 17616 C 1646.85 -3.31228 0.968594 0
M  V30 17617 C 1645.96 -3.73279 2.17455 0
M  V30 17618 C 1645.09 -4.97987 1.84885 0
M  V30 17619 C 1644.13 -5.32558 3.01743 0
M  V30 17620 N 1643.27 -6.48442 2.69197 0
M  V30 17621 H 1648.11 -2.03412 2.17778 0
M  V30 17622 H 1645.65 -0.995461 1.083 0
M  V30 17623 H 1647.6 -4.09494 0.798129 0
M  V30 17624 H 1646.23 -3.22751 0.0564631 0
M  V30 17625 H 1645.29 -2.9058 2.45494 0
M  V30 17626 H 1646.6 -3.94814 3.04834 0
M  V30 17627 H 1645.75 -5.83987 1.64451 0
M  V30 17628 H 1644.49 -4.7841 0.947356 0
M  V30 17629 H 1643.5 -4.45064 3.22797 0
M  V30 17630 H 1644.72 -5.54085 3.9264 0
M  V30 17631 H 1642.67 -6.30363 1.816 0
M  V30 17632 H 1642.58 -6.70046 3.50106 0
M  V30 17633 H 1643.85 -7.37568 2.52217 0
M  V30 17634 N 1648.08 -1.16463 -1.0618 0
M  V30 17635 C 1649.31 -0.971075 -1.82696 0
M  V30 17636 C 1649.72 0.480716 -1.82578 0
M  V30 17637 O 1649.08 1.33366 -1.24579 0
M  V30 17638 C 1649.13 -1.49235 -3.29259 0
M  V30 17639 O 1648.85 -2.88728 -3.29496 0
M  V30 17640 C 1650.35 -1.34197 -4.225 0
M  V30 17641 H 1647.57 -0.34415 -0.576023 0
M  V30 17642 H 1650.12 -1.54517 -1.33958 0
M  V30 17643 H 1648.27 -0.960503 -3.75304 0
M  V30 17644 H 1648.69 -3.12618 -4.21153 0
M  V30 17645 H 1650.16 -1.75499 -5.23358 0
M  V30 17646 H 1650.64 -0.287685 -4.38257 0
M  V30 17647 H 1651.24 -1.86349 -3.82301 0
M  V30 17648 N 1649.56 1.24734 -0.963288 0
M  V30 17649 C 1650.78 1.97285 -0.639808 0
M  V30 17650 C 1651.21 1.71024 0.783099 0
M  V30 17651 O 1650.57 0.971324 1.53085 0
M  V30 17652 C 1650.62 3.48793 -0.915197 0
M  V30 17653 O 1649.72 4.124 0.00162805 0
M  V30 17654 H 1649.06 0.618196 -0.242343 0
M  V30 17655 H 1651.59 1.58627 -1.29224 0
M  V30 17656 H 1651.6 3.99155 -0.84495 0
M  V30 17657 H 1650.28 3.67235 -1.95221 0
M  V30 17658 H 1648.85 3.72702 -0.121563 0
M  V30 17659 N 1651.04 0.732878 1.39523 0
M  V30 17660 C 1652.31 0.20629 1.94509 0
M  V30 17661 C 1652.69 -1.29152 1.66982 0
M  V30 17662 O 1652.04 -2.05607 0.996895 0
M  V30 17663 C 1652.25 0.537619 3.44834 0
M  V30 17664 C 1653.6 0.485787 4.21812 0
M  V30 17665 O 1654.62 0.474686 3.53023 0
M  V30 17666 O 1653.48 0.478457 5.44402 0
M  V30 17667 H 1650.58 0.0369228 0.826175 0
M  V30 17668 H 1653.12 0.811591 1.49035 0
M  V30 17669 H 1651.9 1.57289 3.58296 0
M  V30 17670 H 1651.52 -0.0967601 3.97482 0
M  V30 17671 N 1652.52 -1.50101 0.480349 0
M  V30 17672 C 1653.46 -2.28722 -0.308993 0
M  V30 17673 C 1654.43 -1.34186 -0.978948 0
M  V30 17674 O 1655.62 -1.6313 -0.989602 0
M  V30 17675 C 1652.76 -3.16322 -1.37966 0
M  V30 17676 C 1651.87 -4.25898 -0.723552 0
M  V30 17677 C 1651.01 -5.00741 -1.7729 0
M  V30 17678 C 1650.04 -6.0218 -1.09754 0
M  V30 17679 N 1649.18 -6.70266 -2.09015 0
M  V30 17680 H 1654.02 -2.95722 0.367739 0
M  V30 17681 H 1651.56 -1.45826 0.193197 0
M  V30 17682 H 1653.52 -3.65469 -2.01217 0
M  V30 17683 H 1652.15 -2.51349 -2.02543 0
M  V30 17684 H 1651.2 -3.80394 0.0217507 0
M  V30 17685 H 1652.51 -4.98435 -0.190905 0
M  V30 17686 H 1651.66 -5.53653 -2.48098 0
M  V30 17687 H 1650.4 -4.27931 -2.33937 0
M  V30 17688 H 1649.41 -5.48519 -0.375123 0
M  V30 17689 H 1650.63 -6.76967 -0.537841 0
M  V30 17690 H 1648.58 -6.00242 -2.64662 0
M  V30 17691 H 1648.5 -7.3871 -1.6076 0
M  V30 17692 H 1649.76 -7.27792 -2.79175 0
M  V30 17693 N 1653.99 -0.213323 -1.5615 0
M  V30 17694 C 1655.24 0.421221 -1.98377 0
M  V30 17695 C 1655.57 1.59998 -1.10065 0
M  V30 17696 O 1654.85 1.93869 -0.15654 0
M  V30 17697 C 1655.13 0.86375 -3.49587 0
M  V30 17698 C 1654.98 -0.318077 -4.48674 0
M  V30 17699 C 1656.3 1.72285 -4.04976 0
M  V30 17700 H 1653.42 0.151635 -0.721232 0
M  V30 17701 H 1656.06 -0.307907 -1.87488 0
M  V30 17702 H 1654.21 1.48503 -3.58998 0
M  V30 17703 H 1655.89 -0.956094 -4.51283 0
M  V30 17704 H 1654.13 -0.966881 -4.22888 0
M  V30 17705 H 1654.8 0.0343662 -5.51989 0
M  V30 17706 H 1657.28 1.19872 -3.98459 0
M  V30 17707 H 1656.15 2.0014 -5.11112 0
M  V30 17708 H 1656.41 2.68336 -3.51352 0
M  V30 17709 N 1655.47 1.57485 0.0601405 0
M  V30 17710 C 1656.72 1.86998 0.75595 0
M  V30 17711 C 1657.03 0.807616 1.78149 0
M  V30 17712 O 1658.24 0.99096 2.52769 0
M  V30 17713 C 1656.7 3.31746 1.39545 0
M  V30 17714 C 1656.3 4.46139 0.407874 0
M  V30 17715 C 1658.05 3.70445 2.07294 0
M  V30 17716 C 1655.96 5.81933 1.05395 0
M  V30 17717 H 1654.89 0.697619 0.286083 0
M  V30 17718 H 1657.54 1.83498 0.00948593 0
M  V30 17719 H 1655.92 3.29894 2.19057 0
M  V30 17720 H 1657.09 4.59405 -0.358281 0
M  V30 17721 H 1655.41 4.1607 -0.16581 0
M  V30 17722 H 1658 4.692 2.56428 0
M  V30 17723 H 1658.35 3.00839 2.87753 0
M  V30 17724 H 1658.88 3.74337 1.34598 0
M  V30 17725 H 1655.62 6.54861 0.289437 0
M  V30 17726 H 1655.14 5.72446 1.79068 0
M  V30 17727 H 1656.82 6.27652 1.5704 0
M  V30 17728 N 1656.95 -0.331789 1.54068 0
M  V30 17729 C 1657.91 -1.39094 1.82169 0
M  V30 17730 C 1658.91 -1.45092 0.693168 0
M  V30 17731 O 1660.1 -1.45263 0.961471 0
M  V30 17732 C 1657.24 -2.77909 1.97432 0
M  V30 17733 H 1658.43 -1.15435 2.76794 0
M  V30 17734 H 1655.98 -0.566827 1.4566 0
M  V30 17735 H 1656.72 -3.06835 1.0499 0
M  V30 17736 H 1656.5 -2.7495 2.79544 0
M  V30 17737 H 1657.99 -3.54548 2.20649 0
M  V30 17738 N 1658.43 -1.46001 -0.593424 0
M  V30 17739 C 1659.39 -1.55347 -1.68523 0
M  V30 17740 C 1660.39 -0.431599 -1.549 0
M  V30 17741 O 1661.58 -0.695559 -1.59711 0
M  V30 17742 C 1658.71 -1.46355 -3.07885 0
M  V30 17743 H 1659.91 -2.52639 -1.61597 0
M  V30 17744 H 1657.46 -1.33652 -0.810363 0
M  V30 17745 H 1658.19 -0.503024 -3.20375 0
M  V30 17746 H 1657.98 -2.27741 -3.19181 0
M  V30 17747 H 1659.47 -1.55958 -3.87385 0
M  V30 17748 N 1659.91 0.83715 -1.33527 0
M  V30 17749 C 1661.18 1.57727 -1.15678 0
M  V30 17750 C 1661.56 2.09286 0.276178 0
M  V30 17751 O 1660.91 1.89589 1.27547 0
M  V30 17752 C 1661.12 2.70978 -2.19936 0
M  V30 17753 C 1662.47 3.40114 -2.5418 0
M  V30 17754 O 1663.49 2.81221 -2.18616 0
M  V30 17755 O 1662.35 4.46431 -3.15217 0
M  V30 17756 H 1659.45 0.69545 -0.447525 0
M  V30 17757 H 1661.99 0.879756 -1.45115 0
M  V30 17758 H 1660.76 2.30532 -3.16181 0
M  V30 17759 H 1660.39 3.48393 -1.91594 0
M  V30 17760 N 1661.38 1.17024 1.05561 0
M  V30 17761 C 1662.62 0.967099 1.80074 0
M  V30 17762 C 1662.99 -0.495724 1.8549 0
M  V30 17763 O 1664.19 -0.817816 2.56057 0
M  V30 17764 C 1662.46 1.5862 3.20273 0
M  V30 17765 S 1664.02 1.52873 4.11309 0
M  V30 17766 H 1660.84 0.347623 0.620225 0
M  V30 17767 H 1663.44 1.48902 1.26682 0
M  V30 17768 H 1662.14 2.64341 3.1393 0
M  V30 17769 H 1661.67 1.06392 3.7874 0
M  V30 17770 H 1663.69 0.534126 4.93317 0
M  V30 17771 N 1662.86 -1.24221 0.969889 0
M  V30 17772 C 1663.81 -2.25292 0.501215 0
M  V30 17773 C 1664.78 -1.59764 -0.454382 0
M  V30 17774 O 1665.96 -1.87291 -0.364261 0
M  V30 17775 C 1663.1 -3.44518 -0.200361 0
M  V30 17776 C 1662.22 -4.24636 0.79426 0
M  V30 17777 C 1661.35 -5.31156 0.068568 0
M  V30 17778 C 1660.39 -6.02973 1.05311 0
M  V30 17779 N 1659.53 -7.0119 0.357274 0
M  V30 17780 H 1664.37 -2.64749 1.36792 0
M  V30 17781 H 1661.91 -1.30142 0.685673 0
M  V30 17782 H 1663.86 -4.1251 -0.623833 0
M  V30 17783 H 1662.49 -3.05892 -1.03101 0
M  V30 17784 H 1661.55 -3.56161 1.33616 0
M  V30 17785 H 1662.86 -4.74271 1.54493 0
M  V30 17786 H 1662.01 -6.05294 -0.412792 0
M  V30 17787 H 1660.75 -4.82434 -0.714781 0
M  V30 17788 H 1659.76 -5.27636 1.54532 0
M  V30 17789 H 1660.98 -6.53784 1.83694 0
M  V30 17790 H 1658.93 -6.54736 -0.407059 0
M  V30 17791 H 1658.84 -7.48718 1.04677 0
M  V30 17792 H 1660.11 -7.79433 -0.102045 0
M  V30 17793 N 1664.34 -0.740267 -1.39132 0
M  V30 17794 C 1665.76 -0.416412 -1.54072 0
M  V30 17795 C 1665.96 1.07211 -1.70611 0
M  V30 17796 O 1665.01 1.85822 -1.70958 0
M  V30 17797 C 1666.33 -1.20403 -2.75542 0
M  V30 17798 C 1667.87 -1.19278 -2.89382 0
M  V30 17799 C 1668.35 -1.96308 -4.13796 0
M  V30 17800 N 1669.84 -1.93501 -4.20846 0
M  V30 17801 C 1670.57 -2.49907 -5.16075 0
M  V30 17802 N 1670.07 -3.14973 -6.17061 0
M  V30 17803 N 1671.86 -2.39911 -5.0833 0
M  V30 17804 H 1664.01 -1.70513 -1.26645 0
M  V30 17805 H 1666.28 -0.722111 -0.614214 0
M  V30 17806 H 1665.98 -2.25754 -2.69681 0
M  V30 17807 H 1665.86 -0.811986 -3.68357 0
M  V30 17808 H 1668.24 -0.147385 -2.94732 0
M  V30 17809 H 1668.33 -1.62424 -1.97616 0
M  V30 17810 H 1667.97 -3.00851 -4.09208 0
M  V30 17811 H 1667.9 -1.50565 -5.04617 0
M  V30 17812 H 1670.39 -1.46104 -3.48514 0
M  V30 17813 H 1670.7 -3.55467 -6.86195 0
M  V30 17814 H 1669.05 -3.19064 -6.17433 0
M  V30 17815 H 1672.24 -1.88718 -4.28373 0
M  V30 17816 H 1672.41 -2.84169 -5.82368 0
M  V30 17817 N 1665.82 1.49844 -0.488302 0
M  V30 17818 C 1667.06 2.02709 0.060788 0
M  V30 17819 C 1667.4 1.36828 1.37811 0
M  V30 17820 O 1666.67 0.499679 1.87972 0
M  V30 17821 C 1666.96 3.59386 0.226637 0
M  V30 17822 C 1666.81 4.35814 -1.11292 0
M  V30 17823 C 1668.13 4.29204 0.973218 0
M  V30 17824 H 1665.25 0.736712 0.0206177 0
M  V30 17825 H 1667.89 1.78995 -0.637245 0
M  V30 17826 H 1666.04 3.79722 0.821182 0
M  V30 17827 H 1667.71 4.27007 -1.74536 0
M  V30 17828 H 1665.95 3.98874 -1.70535 0
M  V30 17829 H 1666.62 5.43758 -0.950319 0
M  V30 17830 H 1669.1 4.13447 0.469106 0
M  V30 17831 H 1667.98 5.38605 1.05809 0
M  V30 17832 H 1668.24 3.93564 2.01394 0
M  V30 17833 N 1667.3 0.221601 1.56034 0
M  V30 17834 C 1668.52 -0.414945 2.02696 0
M  V30 17835 C 1668.94 -1.53344 1.10141 0
M  V30 17836 O 1668.3 -1.82162 0.111026 0
M  V30 17837 C 1668.35 -0.946532 3.48888 0
M  V30 17838 O 1668.07 0.12737 4.37915 0
M  V30 17839 C 1669.57 -1.65631 4.11195 0
M  V30 17840 H 1666.79 -0.101548 0.663271 0
M  V30 17841 H 1669.33 0.338069 2.01686 0
M  V30 17842 H 1667.49 -1.64982 3.50514 0
M  V30 17843 H 1667.9 -0.272211 5.23793 0
M  V30 17844 H 1669.38 -1.98027 5.15257 0
M  V30 17845 H 1669.85 -2.56947 3.56195 0
M  V30 17846 H 1670.46 -0.998231 4.13419 0
M  V30 17847 N 1668.77 -1.57515 -0.0517878 0
M  V30 17848 C 1670.02 -1.88493 -0.748206 0
M  V30 17849 C 1670.35 -0.816494 -1.76202 0
M  V30 17850 O 1669.63 0.171075 -1.93746 0
M  V30 17851 C 1669.91 -3.30131 -1.43825 0
M  V30 17852 C 1669.76 -4.47648 -0.4395 0
M  V30 17853 C 1671.08 -3.70315 -2.37813 0
M  V30 17854 H 1668.2 -0.68555 -0.270537 0
M  V30 17855 H 1670.84 -1.89997 -0.0111457 0
M  V30 17856 H 1668.99 -3.2898 -2.06651 0
M  V30 17857 H 1670.67 -4.60929 0.185088 0
M  V30 17858 H 1668.91 -4.33117 0.243381 0
M  V30 17859 H 1669.58 -5.43582 -0.96035 0
M  V30 17860 H 1672.06 -3.72687 -1.8505 0
M  V30 17861 H 1670.93 -4.70269 -2.83087 0
M  V30 17862 H 1671.19 -3.0133 -3.23501 0
M  V30 17863 N 1670.25 0.323614 -1.54242 0
M  V30 17864 C 1671.18 1.40344 -1.86616 0
M  V30 17865 C 1672.16 1.53972 -0.722963 0
M  V30 17866 O 1673.35 1.67852 -0.976692 0
M  V30 17867 C 1670.48 2.77112 -2.09347 0
M  V30 17868 C 1669.43 2.78273 -3.25189 0
M  V30 17869 C 1668.76 4.18116 -3.33291 0
M  V30 17870 C 1670.06 2.42025 -4.6284 0
M  V30 17871 H 1671.75 1.13499 -2.77053 0
M  V30 17872 H 1669.3 0.544553 -1.33306 0
M  V30 17873 H 1671.25 3.52719 -2.3058 0
M  V30 17874 H 1669.98 3.05435 -1.1566 0
M  V30 17875 H 1668.64 2.05121 -3.03844 0
M  V30 17876 H 1668.28 4.4358 -2.37163 0
M  V30 17877 H 1667.98 4.19799 -4.11147 0
M  V30 17878 H 1669.51 4.95536 -3.56758 0
M  V30 17879 H 1670.92 3.07346 -4.83954 0
M  V30 17880 H 1669.32 2.5496 -5.43245 0
M  V30 17881 H 1670.39 1.37175 -4.65092 0
M  V30 17882 N 1671.73 1.46313 0.585673 0
M  V30 17883 C 1672.68 1.56653 1.69495 0
M  V30 17884 C 1673.65 0.411007 1.60935 0
M  V30 17885 O 1674.83 0.627369 1.80191 0
M  V30 17886 C 1671.97 1.55996 3.0783 0
M  V30 17887 C 1671.09 2.82261 3.27036 0
M  V30 17888 C 1670.22 2.73129 4.55603 0
M  V30 17889 C 1669.26 3.94346 4.68143 0
M  V30 17890 N 1668.4 3.83617 5.88032 0
M  V30 17891 H 1673.24 2.51407 1.59995 0
M  V30 17892 H 1670.77 1.24729 0.779821 0
M  V30 17893 H 1672.73 1.53602 3.87895 0
M  V30 17894 H 1671.36 0.647766 3.16234 0
M  V30 17895 H 1670.41 2.94648 2.40596 0
M  V30 17896 H 1671.73 3.72107 3.32171 0
M  V30 17897 H 1670.88 2.68823 5.43893 0
M  V30 17898 H 1669.62 1.80917 4.52902 0
M  V30 17899 H 1668.62 3.98987 3.78272 0
M  V30 17900 H 1669.85 4.8765 4.72625 0
M  V30 17901 H 1667.8 2.9419 5.86334 0
M  V30 17902 H 1667.71 4.67117 5.94422 0
M  V30 17903 H 1668.98 3.83281 6.7876 0
M  V30 17904 N 1673.21 -0.830057 1.33969 0
M  V30 17905 C 1674.44 -1.61539 1.28797 0
M  V30 17906 C 1674.85 -1.8867 -0.14158 0
M  V30 17907 O 1674.19 -1.47356 -1.0969 0
M  V30 17908 C 1674.25 -2.98503 2.0034 0
M  V30 17909 C 1673.92 -2.94302 3.49622 0
M  V30 17910 C 1674.91 -2.69391 4.44662 0
M  V30 17911 C 1672.6 -3.14159 3.9193 0
M  V30 17912 C 1674.59 -2.64379 5.79985 0
M  V30 17913 C 1672.28 -3.08772 5.27355 0
M  V30 17914 C 1673.28 -2.83914 6.21194 0
M  V30 17915 O 1672.97 -2.78446 7.54137 0
M  V30 17916 H 1672.7 -0.509067 0.444777 0
M  V30 17917 H 1675.25 -1.04137 1.77044 0
M  V30 17918 H 1673.48 -3.57795 1.46697 0
M  V30 17919 H 1675.17 -3.59449 1.88551 0
M  V30 17920 H 1675.94 -2.53792 4.13298 0
M  V30 17921 H 1671.82 -3.32526 3.19293 0
M  V30 17922 H 1675.36 -2.44896 6.53201 0
M  V30 17923 H 1671.26 -3.23922 5.58341 0
M  V30 17924 H 1672.02 -2.94224 7.63789 0
M  V30 17925 N 1674.69 -1.17582 -1.04939 0
M  V30 17926 C 1675.93 -0.965778 -1.77986 0
M  V30 17927 C 1676.26 0.505366 -1.8782 0
M  V30 17928 O 1675.52 1.39132 -1.37625 0
M  V30 17929 C 1675.82 -1.55507 -3.21796 0
M  V30 17930 C 1675.48 -3.05086 -3.32014 0
M  V30 17931 C 1674.14 -3.45914 -3.3451 0
M  V30 17932 C 1676.5 -4.01096 -3.32824 0
M  V30 17933 C 1673.82 -4.81344 -3.35447 0
M  V30 17934 C 1676.18 -5.3643 -3.353 0
M  V30 17935 C 1674.84 -5.76718 -3.36084 0
M  V30 17936 H 1674.11 -0.353403 -0.651297 0
M  V30 17937 H 1676.76 -1.46512 -1.23315 0
M  V30 17938 H 1675.06 -0.977509 -3.7941 0
M  V30 17939 H 1676.76 -1.36807 -3.76941 0
M  V30 17940 H 1673.35 -2.72541 -3.30786 0
M  V30 17941 H 1677.53 -3.7061 -3.30094 0
M  V30 17942 H 1672.79 -5.11868 -3.34366 0
M  V30 17943 H 1676.96 -6.106 -3.34874 0
M  V30 17944 H 1674.59 -6.81637 -3.36563 0
M  V30 17945 N 1676.17 1.23705 -0.976463 0
M  V30 17946 C 1677.1 2.2734 -0.532809 0
M  V30 17947 C 1678.08 1.64523 0.432012 0
M  V30 17948 O 1679.26 1.9144 0.326233 0
M  V30 17949 C 1676.39 3.46887 0.169374 0
M  V30 17950 C 1675.35 4.22031 -0.712336 0
M  V30 17951 C 1674.67 5.34561 0.121838 0
M  V30 17952 C 1675.97 4.8244 -2.00123 0
M  V30 17953 H 1677.67 2.64702 -1.39904 0
M  V30 17954 H 1675.21 1.27244 -0.674156 0
M  V30 17955 H 1677.16 4.18529 0.491028 0
M  V30 17956 H 1675.89 3.08574 1.07002 0
M  V30 17957 H 1674.55 3.522 -1.01739 0
M  V30 17958 H 1674.2 4.92489 1.0229 0
M  V30 17959 H 1673.9 5.85758 -0.464962 0
M  V30 17960 H 1675.42 6.09027 0.437963 0
M  V30 17961 H 1676.83 5.46111 -1.7446 0
M  V30 17962 H 1675.23 5.43906 -2.53548 0
M  V30 17963 H 1676.3 4.03405 -2.69059 0
M  V30 17964 N 1677.64 0.747635 1.38738 0
M  V30 17965 C 1678.55 0.117879 2.34304 0
M  V30 17966 C 1679.57 -0.707488 1.58967 0
M  V30 17967 O 1680.75 -0.633025 1.91193 0
M  V30 17968 C 1677.81 -0.769223 3.38059 0
M  V30 17969 C 1676.87 0.0698358 4.29243 0
M  V30 17970 C 1676.1 -0.775021 5.28043 0
M  V30 17971 O 1676.33 -2.01328 5.33688 0
M  V30 17972 O 1675.26 -0.196978 6.01578 0
M  V30 17973 H 1679.09 0.906972 2.89841 0
M  V30 17974 H 1676.67 0.508453 1.40482 0
M  V30 17975 H 1678.55 -1.27641 4.01604 0
M  V30 17976 H 1677.23 -1.53691 2.84887 0
M  V30 17977 H 1676.14 0.622836 3.68879 0
M  V30 17978 H 1677.47 0.80004 4.85654 0
M  V30 17979 N 1679.12 -1.49583 0.496242 0
M  V30 17980 C 1680.08 -2.27561 -0.273642 0
M  V30 17981 C 1681.08 -1.33375 -0.8982 0
M  V30 17982 O 1682.27 -1.56578 -0.76347 0
M  V30 17983 C 1679.41 -3.11178 -1.39216 0
M  V30 17984 H 1680.6 -2.97077 0.410543 0
M  V30 17985 H 1678.15 -1.54271 0.251058 0
M  V30 17986 H 1678.89 -2.46217 -2.11064 0
M  V30 17987 H 1678.67 -3.80422 -0.949829 0
M  V30 17988 H 1680.16 -3.70085 -1.93459 0
M  V30 17989 N 1680.6 -0.229873 -1.55915 0
M  V30 17990 C 1681.53 0.671321 -2.23642 0
M  V30 17991 C 1682.51 1.19461 -1.21091 0
M  V30 17992 O 1683.7 1.23708 -1.49699 0
M  V30 17993 C 1680.83 1.87595 -2.92276 0
M  V30 17994 C 1679.78 1.48616 -4.01369 0
M  V30 17995 C 1679.11 2.77024 -4.57342 0
M  V30 17996 C 1680.41 0.669928 -5.17986 0
M  V30 17997 H 1682.1 0.106622 -2.9921 0
M  V30 17998 H 1679.65 0.0498418 -1.43914 0
M  V30 17999 H 1681.6 2.51191 -3.3835 0
M  V30 18000 H 1680.32 2.46576 -2.14168 0
M  V30 18001 H 1678.98 0.873623 -3.56038 0
M  V30 18002 H 1678.63 3.34166 -3.75955 0
M  V30 18003 H 1678.33 2.51674 -5.30975 0
M  V30 18004 H 1679.85 3.41548 -5.0614 0
M  V30 18005 H 1681.27 1.20978 -5.6039 0
M  V30 18006 H 1679.66 0.513174 -5.97902 0
M  V30 18007 H 1680.73 -0.321644 -4.83832 0
M  V30 18008 N 1682.08 1.5754 0.0434337 0
M  V30 18009 C 1683.32 1.90452 0.742119 0
M  V30 18010 C 1683.68 0.826884 1.73282 0
M  V30 18011 O 1684.88 1.0399 2.4787 0
M  V30 18012 C 1683.15 3.28549 1.40679 0
M  V30 18013 S 1684.71 3.83268 2.13662 0
M  V30 18014 H 1681.53 0.667021 0.246178 0
M  V30 18015 H 1684.13 1.955 -0.00280947 0
M  V30 18016 H 1682.84 4.04856 0.672322 0
M  V30 18017 H 1682.37 3.26769 2.19056 0
M  V30 18018 H 1684.38 3.60836 3.40605 0
M  V30 18019 N 1683.56 -0.31543 1.54411 0
M  V30 18020 C 1684.8 -1.05033 1.72663 0
M  V30 18021 C 1685.12 -1.8828 0.507504 0
M  V30 18022 O 1684.39 -1.89968 -0.478418 0
M  V30 18023 H 1682.97 -0.39077 0.636638 0
M  V30 18024 H 1685.64 -0.3499 1.91733 0
M  V30 18025 H 1684.73 -1.71171 2.60973 0
M  V30 18026 N 1685.03 -1.46622 -0.577906 0
M  V30 18027 C 1685.97 -1.53587 -1.70128 0
M  V30 18028 C 1686.98 -0.423789 -1.57187 0
M  V30 18029 O 1688.17 -0.692392 -1.64524 0
M  V30 18030 C 1685.27 -1.40459 -3.08422 0
M  V30 18031 C 1684.44 -2.65872 -3.47319 0
M  V30 18032 C 1683.5 -2.46875 -4.64693 0
M  V30 18033 O 1682.53 -3.20617 -4.70312 0
M  V30 18034 N 1683.73 -1.53352 -5.59878 0
M  V30 18035 H 1686.49 -2.50449 -1.64606 0
M  V30 18036 H 1684.05 -1.42739 -0.764014 0
M  V30 18037 H 1686.05 -1.25516 -3.84744 0
M  V30 18038 H 1684.62 -0.517603 -3.08285 0
M  V30 18039 H 1683.84 -2.95724 -2.60655 0
M  V30 18040 H 1685.12 -3.49173 -3.70075 0
M  V30 18041 H 1684.52 -0.925526 -5.58078 0
M  V30 18042 H 1683.08 -1.4437 -6.3561 0
M  V30 18043 N 1686.51 0.822941 -1.34408 0
M  V30 18044 C 1687.42 1.96567 -1.28056 0
M  V30 18045 C 1688.44 1.72979 -0.188251 0
M  V30 18046 O 1689.61 1.97084 -0.41472 0
M  V30 18047 C 1686.68 3.30865 -1.03583 0
M  V30 18048 C 1685.74 3.67461 -2.2197 0
M  V30 18049 C 1684.97 4.9535 -1.98655 0
M  V30 18050 O 1685.2 5.62521 -0.944785 0
M  V30 18051 O 1684.13 5.29824 -2.85605 0
M  V30 18052 H 1687.96 2.0487 -2.24192 0
M  V30 18053 H 1685.54 0.958334 -1.14614 0
M  V30 18054 H 1687.42 4.11298 -0.917162 0
M  V30 18055 H 1686.1 3.2353 -0.104868 0
M  V30 18056 H 1685.01 2.87472 -2.39396 0
M  V30 18057 H 1686.34 3.79481 -3.13456 0
M  V30 18058 N 1687.99 1.18137 1.04314 0
M  V30 18059 C 1688.9 0.921044 2.15764 0
M  V30 18060 C 1689.92 -0.11396 1.73626 0
M  V30 18061 O 1691.09 0.0673733 2.01287 0
M  V30 18062 C 1688.16 0.447581 3.43799 0
M  V30 18063 C 1687.22 1.55025 4.00332 0
M  V30 18064 C 1686.45 1.09928 5.22256 0
M  V30 18065 O 1686.67 -0.0430152 5.70384 0
M  V30 18066 O 1685.61 1.896 5.71258 0
M  V30 18067 H 1689.43 1.85353 2.40579 0
M  V30 18068 H 1687.02 0.962985 1.14223 0
M  V30 18069 H 1688.9 0.191497 4.20965 0
M  V30 18070 H 1687.58 -0.456641 3.20463 0
M  V30 18071 H 1686.48 1.86032 3.24566 0
M  V30 18072 H 1687.82 2.4305 4.28004 0
M  V30 18073 N 1689.47 -1.23186 0.98301 0
M  V30 18074 C 1690.88 -1.73484 0.689933 0
M  V30 18075 C 1691.23 -1.79428 -0.793724 0
M  V30 18076 O 1690.36 -1.43391 -1.62074 0
M  V30 18077 C 1690.95 -3.15068 1.24571 0
M  V30 18078 C 1689.51 -3.62812 1.00222 0
M  V30 18079 C 1688.66 -2.40988 1.37186 0
M  V30 18080 H 1691.61 -1.08672 1.15655 0
M  V30 18081 H 1691.63 -3.75425 0.619406 0
M  V30 18082 H 1691.14 -3.10709 2.32554 0
M  V30 18083 H 1689.24 -3.72549 -0.0614202 0
M  V30 18084 H 1689.35 -4.49473 1.65863 0
M  V30 18085 H 1687.72 -2.42127 0.79035 0
M  V30 18086 H 1688.5 -2.39299 2.46152 0
M  V30 18087 N 1690.95 -0.754982 -1.38339 0
M  V30 18088 C 1691.88 -0.143678 -2.33058 0
M  V30 18089 C 1692.86 0.702022 -1.54938 0
M  V30 18090 O 1694.04 0.642922 -1.83249 0
M  V30 18091 C 1691.17 0.749194 -3.39123 0
M  V30 18092 C 1690.13 0.00611459 -4.28 0
M  V30 18093 C 1689.45 1.01733 -5.24933 0
M  V30 18094 C 1690.75 -1.1631 -5.09185 0
M  V30 18095 H 1692.45 -0.934907 -2.84429 0
M  V30 18096 H 1689.99 -0.451023 -1.36754 0
M  V30 18097 H 1691.95 1.18653 -4.04351 0
M  V30 18098 H 1690.67 1.57276 -2.86237 0
M  V30 18099 H 1689.33 -0.411816 -3.6428 0
M  V30 18100 H 1688.98 1.83499 -4.68334 0
M  V30 18101 H 1688.68 0.524783 -5.85252 0
M  V30 18102 H 1690.2 1.45395 -5.93037 0
M  V30 18103 H 1691.61 -0.803244 -5.67645 0
M  V30 18104 H 1690.01 -1.5866 -5.78746 0
M  V30 18105 H 1691.08 -1.97533 -4.42842 0
M  V30 18106 N 1692.42 1.49318 -0.504168 0
M  V30 18107 C 1693.35 2.32027 0.261837 0
M  V30 18108 C 1694.34 1.4045 0.959575 0
M  V30 18109 O 1695.52 1.69357 0.950365 0
M  V30 18110 C 1692.65 3.21039 1.3248 0
M  V30 18111 C 1691.6 4.21435 0.746752 0
M  V30 18112 C 1690.93 4.99405 1.91047 0
M  V30 18113 C 1692.23 5.21631 -0.264315 0
M  V30 18114 H 1693.92 2.96317 -0.428544 0
M  V30 18115 H 1691.47 1.42497 -0.207539 0
M  V30 18116 H 1693.42 3.77714 1.86843 0
M  V30 18117 H 1692.15 2.54699 2.04441 0
M  V30 18118 H 1690.81 3.6591 0.22485 0
M  V30 18119 H 1690.45 4.29509 2.61784 0
M  V30 18120 H 1690.15 5.67338 1.52975 0
M  V30 18121 H 1691.68 5.58924 2.45837 0
M  V30 18122 H 1693.09 5.72981 0.191288 0
M  V30 18123 H 1691.49 5.97472 -0.561039 0
M  V30 18124 H 1692.56 4.70346 -1.17911 0
M  V30 18125 N 1693.9 0.238138 1.5579 0
M  V30 18126 C 1694.87 -0.651703 2.1974 0
M  V30 18127 C 1695.87 -1.10932 1.16408 0
M  V30 18128 O 1697.06 -1.01544 1.41543 0
M  V30 18129 C 1694.19 -1.8947 2.83397 0
M  V30 18130 H 1695.38 -0.0939013 2.99753 0
M  V30 18131 H 1692.93 -0.0114348 1.56296 0
M  V30 18132 H 1693.67 -2.49395 2.07298 0
M  V30 18133 H 1693.45 -1.57486 3.59083 0
M  V30 18134 H 1694.94 -2.52831 3.32365 0
M  V30 18135 N 1695.38 -1.57561 -0.0350783 0
M  V30 18136 C 1696.63 -1.88996 -0.727095 0
M  V30 18137 C 1696.96 -0.834671 -1.7568 0
M  V30 18138 O 1696.21 0.165098 -1.95002 0
M  V30 18139 C 1696.51 -3.27169 -1.43858 0
M  V30 18140 C 1696.18 -4.47589 -0.545421 0
M  V30 18141 C 1694.84 -4.80268 -0.2994 0
M  V30 18142 C 1697.19 -5.21151 0.0716124 0
M  V30 18143 C 1694.52 -5.839 0.57253 0
M  V30 18144 C 1696.87 -6.25709 0.931209 0
M  V30 18145 C 1695.53 -6.56866 1.18675 0
M  V30 18146 H 1694.8 -0.691586 -0.266063 0
M  V30 18147 H 1697.45 -1.91496 0.0129076 0
M  V30 18148 H 1695.76 -3.2063 -2.25175 0
M  V30 18149 H 1697.45 -3.48738 -1.97946 0
M  V30 18150 H 1694.04 -4.22034 -0.747323 0
M  V30 18151 H 1698.23 -4.96188 -0.105504 0
M  V30 18152 H 1693.48 -6.06418 0.778882 0
M  V30 18153 H 1697.66 -6.81855 1.41587 0
M  V30 18154 H 1695.28 -7.3699 1.86412 0
M  V30 18155 N 1696.86 0.307236 -1.54576 0
M  V30 18156 C 1697.81 1.3787 -1.85096 0
M  V30 18157 C 1698.78 1.5066 -0.69935 0
M  V30 18158 O 1699.96 1.65618 -0.947373 0
M  V30 18159 C 1697.1 2.73976 -2.09836 0
M  V30 18160 C 1696.21 2.69687 -3.3748 0
M  V30 18161 C 1695.35 3.97746 -3.52096 0
M  V30 18162 C 1694.39 3.87829 -4.73556 0
M  V30 18163 N 1693.52 5.07651 -4.8501 0
M  V30 18164 H 1698.36 1.11144 -2.76498 0
M  V30 18165 H 1695.9 0.537696 -1.36921 0
M  V30 18166 H 1697.86 3.53121 -2.22174 0
M  V30 18167 H 1696.49 2.98977 -1.21707 0
M  V30 18168 H 1695.54 1.82441 -3.33795 0
M  V30 18169 H 1696.85 2.58247 -4.26743 0
M  V30 18170 H 1696.01 4.85327 -3.64065 0
M  V30 18171 H 1694.75 4.12012 -2.60955 0
M  V30 18172 H 1693.75 2.98633 -4.61626 0
M  V30 18173 H 1694.98 3.75114 -5.66098 0
M  V30 18174 H 1692.92 5.22393 -3.9679 0
M  V30 18175 H 1692.84 4.9861 -5.68264 0
M  V30 18176 H 1694.11 5.969 -5.01328 0
M  V30 18177 N 1698.34 1.46926 0.570122 0
M  V30 18178 C 1699.58 1.52585 1.32523 0
M  V30 18179 C 1699.91 0.184291 1.94127 0
M  V30 18180 O 1699.18 -0.790478 1.79244 0
M  V30 18181 H 1697.76 0.562019 0.492081 0
M  V30 18182 H 1700.42 1.83141 0.666746 0
M  V30 18183 H 1699.51 2.28541 2.12545 0
M  V30 18184 N 1699.82 -0.815801 1.34842 0
M  V30 18185 C 1701.06 -1.5693 1.27347 0
M  V30 18186 C 1701.38 -1.94387 -0.154462 0
M  V30 18187 O 1700.65 -1.62858 -1.08876 0
M  V30 18188 H 1699.23 -0.581923 0.468374 0
M  V30 18189 H 1701.9 -0.973642 1.68838 0
M  V30 18190 H 1700.99 -2.4889 1.88308 0
M  V30 18191 N 1701.29 -1.18689 -1.03686 0
M  V30 18192 C 1702.24 -0.917369 -2.11785 0
M  V30 18193 C 1703.21 0.144719 -1.65468 0
M  V30 18194 O 1704.4 0.00427016 -1.908 0
M  V30 18195 C 1701.54 -0.453396 -3.42109 0
M  V30 18196 C 1700.65 -1.58134 -4.02017 0
M  V30 18197 C 1699.78 -1.06971 -5.20318 0
M  V30 18198 C 1698.82 -2.17208 -5.72265 0
M  V30 18199 N 1697.96 -1.67411 -6.81849 0
M  V30 18200 H 1702.8 -1.84297 -2.34177 0
M  V30 18201 H 1700.34 -0.918951 -1.14864 0
M  V30 18202 H 1702.29 -0.165843 -4.1687 0
M  V30 18203 H 1700.92 0.435219 -3.19853 0
M  V30 18204 H 1699.98 -1.98429 -3.24546 0
M  V30 18205 H 1701.29 -2.41219 -4.36594 0
M  V30 18206 H 1700.44 -0.736906 -6.02208 0
M  V30 18207 H 1699.18 -0.208487 -4.87254 0
M  V30 18208 H 1698.19 -2.51328 -4.88993 0
M  V30 18209 H 1699.41 -3.03772 -6.07371 0
M  V30 18210 H 1697.36 -0.83584 -6.50653 0
M  V30 18211 H 1697.27 -2.44091 -7.15511 0
M  V30 18212 H 1698.54 -1.3707 -7.67354 0
M  V30 18213 N 1702.77 1.22662 -0.989529 0
M  V30 18214 C 1704 1.9506 -0.680833 0
M  V30 18215 C 1704.41 1.73354 0.757953 0
M  V30 18216 O 1703.75 1.02755 1.52273 0
M  V30 18217 C 1703.81 3.47982 -0.902711 0
M  V30 18218 C 1703.48 3.93418 -2.32533 0
M  V30 18219 C 1704.48 4.01362 -3.30462 0
M  V30 18220 C 1702.16 4.26157 -2.65886 0
M  V30 18221 C 1704.15 4.41413 -4.59819 0
M  V30 18222 C 1701.84 4.65888 -3.95463 0
M  V30 18223 C 1702.84 4.73484 -4.92241 0
M  V30 18224 O 1702.53 5.12318 -6.19504 0
M  V30 18225 H 1702.26 0.627572 -0.251256 0
M  V30 18226 H 1704.81 1.56858 -1.32608 0
M  V30 18227 H 1703.04 3.86181 -0.200292 0
M  V30 18228 H 1704.73 4.01592 -0.589781 0
M  V30 18229 H 1705.5 3.76262 -3.06026 0
M  V30 18230 H 1701.38 4.19451 -1.91263 0
M  V30 18231 H 1704.92 4.47257 -5.35357 0
M  V30 18232 H 1700.82 4.90439 -4.1969 0
M  V30 18233 H 1701.59 5.30402 -6.23391 0
M  V30 18234 N 1704.25 0.762308 1.37937 0
M  V30 18235 C 1705.5 0.322846 2.00214 0
M  V30 18236 C 1705.83 -1.09513 1.60376 0
M  V30 18237 O 1705.1 -1.75165 0.845432 0
M  V30 18238 C 1705.39 0.455651 3.57206 0
M  V30 18239 C 1705.24 1.91537 4.06981 0
M  V30 18240 C 1706.56 -0.145758 4.39859 0
M  V30 18241 H 1703.68 0.118781 0.727365 0
M  V30 18242 H 1706.32 0.963585 1.63753 0
M  V30 18243 H 1704.47 -0.0898341 3.88396 0
M  V30 18244 H 1706.14 2.51983 3.86397 0
M  V30 18245 H 1704.38 2.42744 3.59524 0
M  V30 18246 H 1705.06 1.9594 5.16054 0
M  V30 18247 H 1707.53 0.31956 4.14871 0
M  V30 18248 H 1706.41 -0.0226441 5.48895 0
M  V30 18249 H 1706.67 -1.23504 4.24499 0
M  V30 18250 N 1705.73 -1.49049 0.51208 0
M  V30 18251 C 1706.95 -2.07382 -0.0271044 0
M  V30 18252 C 1707.38 -1.3685 -1.29049 0
M  V30 18253 O 1706.74 -0.428713 -1.76158 0
M  V30 18254 C 1706.78 -3.59715 -0.252462 0
M  V30 18255 O 1705.89 -3.90538 -1.32491 0
M  V30 18256 H 1705.23 -0.663269 0.0311507 0
M  V30 18257 H 1707.76 -1.91705 0.714873 0
M  V30 18258 H 1707.77 -4.05159 -0.480603 0
M  V30 18259 H 1706.44 -4.10459 0.670531 0
M  V30 18260 H 1705.02 -3.56892 -1.08085 0
M  V30 18261 N 1707.21 -0.246397 -1.55662 0
M  V30 18262 C 1708.45 0.379047 -1.99226 0
M  V30 18263 C 1708.78 1.57627 -1.13434 0
M  V30 18264 O 1708.06 1.93493 -0.197627 0
M  V30 18265 C 1708.34 0.789403 -3.51341 0
M  V30 18266 C 1708.2 -0.413176 -4.47898 0
M  V30 18267 C 1709.51 1.63656 -4.0854 0
M  V30 18268 H 1706.63 0.136302 -0.724286 0
M  V30 18269 H 1709.28 -0.347607 -1.86793 0
M  V30 18270 H 1707.43 1.40854 -3.62067 0
M  V30 18271 H 1709.1 -1.0516 -4.49154 0
M  V30 18272 H 1707.34 -1.05636 -4.20741 0
M  V30 18273 H 1708.01 -0.0827267 -5.51938 0
M  V30 18274 H 1710.49 1.11393 -4.00912 0
M  V30 18275 H 1709.36 1.89254 -5.15242 0
M  V30 18276 H 1709.62 2.60823 -3.56965 0
M  V30 18277 N 1708.68 1.57577 0.026722 0
M  V30 18278 C 1709.65 2.05684 1.01127 0
M  V30 18279 C 1710.65 0.961373 1.28896 0
M  V30 18280 O 1711.84 1.22491 1.23861 0
M  V30 18281 C 1708.97 2.47576 2.34348 0
M  V30 18282 H 1710.16 2.93925 0.595681 0
M  V30 18283 H 1707.71 1.53887 0.273603 0
M  V30 18284 H 1708.45 1.62498 2.80651 0
M  V30 18285 H 1708.23 3.27556 2.15521 0
M  V30 18286 H 1709.72 2.85214 3.05029 0
M  V30 18287 N 1710.16 -0.299034 1.54737 0
M  V30 18288 C 1711.57 -0.871897 1.6509 0
M  V30 18289 C 1711.92 -1.88013 0.560843 0
M  V30 18290 O 1711.05 -2.1428 -0.302194 0
M  V30 18291 C 1711.64 -1.5882 2.99269 0
M  V30 18292 C 1710.2 -2.10944 3.11736 0
M  V30 18293 C 1709.35 -0.942776 2.60782 0
M  V30 18294 H 1712.3 -0.0759883 1.58518 0
M  V30 18295 H 1712.32 -2.45387 2.90802 0
M  V30 18296 H 1711.83 -0.854144 3.78584 0
M  V30 18297 H 1709.93 -2.87391 2.37144 0
M  V30 18298 H 1710.05 -2.34262 4.17921 0
M  V30 18299 H 1708.41 -1.3289 2.17284 0
M  V30 18300 H 1709.19 -0.222646 3.42577 0
M  V30 18301 N 1711.64 -1.47227 -0.562322 0
M  V30 18302 C 1712.89 -1.53816 -1.32168 0
M  V30 18303 C 1713.22 -0.197649 -1.93192 0
M  V30 18304 O 1712.49 0.793178 -1.77592 0
M  V30 18305 C 1712.78 -2.65231 -2.43566 0
M  V30 18306 C 1712.63 -4.08882 -1.87445 0
M  V30 18307 C 1713.95 -2.72589 -3.45519 0
M  V30 18308 H 1711.07 -0.559947 -0.479195 0
M  V30 18309 H 1713.71 -1.7926 -0.629762 0
M  V30 18310 H 1711.86 -2.43667 -3.02587 0
M  V30 18311 H 1713.53 -4.41794 -1.32725 0
M  V30 18312 H 1711.77 -4.17401 -1.18149 0
M  V30 18313 H 1712.45 -4.82603 -2.67952 0
M  V30 18314 H 1714.92 -2.92028 -2.9641 0
M  V30 18315 H 1713.8 -3.5233 -4.20898 0
M  V30 18316 H 1714.06 -1.79444 -4.04045 0
M  V30 18317 N 1713.12 0.808639 -1.35273 0
M  V30 18318 C 1714.53 1.38248 -1.25477 0
M  V30 18319 C 1714.88 1.9587 0.113715 0
M  V30 18320 O 1714 1.91141 1.0146 0
M  V30 18321 C 1714.6 2.5133 -2.27197 0
M  V30 18322 C 1713.16 3.04582 -2.21148 0
M  V30 18323 C 1712.31 1.77534 -2.13019 0
M  V30 18324 H 1715.26 0.611844 -1.46431 0
M  V30 18325 H 1715.28 3.29825 -1.89726 0
M  V30 18326 H 1714.79 2.09362 -3.26786 0
M  V30 18327 H 1712.89 3.5102 -1.24963 0
M  V30 18328 H 1713 3.62703 -3.13023 0
M  V30 18329 H 1711.37 1.99004 -1.58964 0
M  V30 18330 H 1712.15 1.3772 -3.14465 0
M  V30 18331 N 1714.6 1.19237 1.03055 0
M  V30 18332 C 1715.87 0.903353 1.7349 0
M  V30 18333 C 1716.25 -0.591365 2.02648 0
M  V30 18334 O 1715.6 -1.54906 1.67978 0
M  V30 18335 C 1715.81 1.7615 3.01284 0
M  V30 18336 C 1717.16 1.99477 3.74825 0
M  V30 18337 O 1718.18 1.73287 3.11207 0
M  V30 18338 O 1717.04 2.43628 4.89191 0
M  V30 18339 H 1714.14 0.336512 0.755439 0
M  V30 18340 H 1716.68 1.30041 1.09029 0
M  V30 18341 H 1715.45 2.77428 2.75952 0
M  V30 18342 H 1715.08 1.36361 3.73486 0
M  V30 18343 N 1716.07 -1.22136 0.99602 0
M  V30 18344 C 1717.3 -1.94978 0.692172 0
M  V30 18345 C 1717.72 -1.73536 -0.743696 0
M  V30 18346 O 1717.07 -1.03637 -1.50219 0
M  V30 18347 C 1717.13 -3.47609 0.992498 0
M  V30 18348 O 1716.85 -3.68334 2.37195 0
M  V30 18349 C 1718.35 -4.37629 0.70679 0
M  V30 18350 H 1715.57 -0.620327 0.255802 0
M  V30 18351 H 1718.11 -1.55202 1.33164 0
M  V30 18352 H 1716.27 -3.85342 0.398785 0
M  V30 18353 H 1716.68 -4.62506 2.47362 0
M  V30 18354 H 1718.15 -5.43461 0.967173 0
M  V30 18355 H 1718.63 -4.37729 -0.359208 0
M  V30 18356 H 1719.24 -4.05528 1.2817 0
M  V30 18357 N 1717.55 -0.769612 -1.37531 0
M  V30 18358 C 1718.49 -0.100781 -2.27977 0
M  V30 18359 C 1719.46 0.711383 -1.46213 0
M  V30 18360 O 1720.65 0.686602 -1.75551 0
M  V30 18361 C 1717.77 0.863601 -3.27505 0
M  V30 18362 C 1716.82 0.135698 -4.26284 0
M  V30 18363 S 1717.65 -1.17477 -5.22455 0
M  V30 18364 C 1718.81 -0.213878 -6.25534 0
M  V30 18365 H 1719.04 -0.86772 -2.84355 0
M  V30 18366 H 1716.58 -0.562906 -1.43773 0
M  V30 18367 H 1718.53 1.41462 -3.85355 0
M  V30 18368 H 1717.19 1.60363 -2.70079 0
M  V30 18369 H 1716.39 0.866694 -4.96492 0
M  V30 18370 H 1715.99 -0.344257 -3.72412 0
M  V30 18371 H 1718.28 0.614474 -6.74708 0
M  V30 18372 H 1719.22 -0.884072 -7.02559 0
M  V30 18373 H 1719.63 0.173963 -5.64232 0
M  V30 18374 N 1719.03 1.48775 -0.519977 0
M  V30 18375 C 1720.28 2.02092 0.0177154 0
M  V30 18376 C 1720.6 1.40024 1.35714 0
M  V30 18377 O 1719.87 0.562115 1.87662 0
M  V30 18378 H 1718.45 0.746939 0.00953578 0
M  V30 18379 H 1721.11 1.82595 -0.681535 0
M  V30 18380 H 1720.21 3.11815 0.133431 0
M  V30 18381 N 1720.51 0.254649 1.55529 0
M  V30 18382 C 1721.46 -0.64162 2.21702 0
M  V30 18383 C 1722.43 -1.16544 1.1835 0
M  V30 18384 O 1723.61 -1.2185 1.46824 0
M  V30 18385 C 1720.75 -1.82935 2.92624 0
M  V30 18386 C 1719.86 -1.34132 4.10649 0
M  V30 18387 C 1719 -2.48922 4.69267 0
M  V30 18388 C 1718.04 -1.9702 5.79525 0
M  V30 18389 N 1717.17 -3.05206 6.32293 0
M  V30 18390 H 1722.01 -0.0706476 2.97916 0
M  V30 18391 H 1719.55 -0.0231077 1.47082 0
M  V30 18392 H 1721.51 -2.52719 3.31947 0
M  V30 18393 H 1720.14 -2.37267 2.1887 0
M  V30 18394 H 1719.19 -0.53726 3.76587 0
M  V30 18395 H 1720.5 -0.921003 4.90223 0
M  V30 18396 H 1719.66 -3.26735 5.11203 0
M  V30 18397 H 1718.4 -2.94259 3.88925 0
M  V30 18398 H 1717.4 -1.17679 5.37058 0
M  V30 18399 H 1718.63 -1.52643 6.61723 0
M  V30 18400 H 1716.57 -3.49963 5.54853 0
M  V30 18401 H 1716.49 -2.67528 7.07082 0
M  V30 18402 H 1717.76 -3.83055 6.78888 0
M  V30 18403 N 1721.99 -1.57589 -0.0183649 0
M  V30 18404 C 1722.9 -2.10665 -1.03235 0
M  V30 18405 C 1723.91 -1.04767 -1.38924 0
M  V30 18406 O 1725.09 -1.36565 -1.48027 0
M  V30 18407 C 1722.15 -2.58432 -2.31114 0
M  V30 18408 C 1721.21 -3.78856 -2.01908 0
M  V30 18409 C 1720.45 -4.24335 -3.2369 0
M  V30 18410 O 1720.67 -3.69266 -4.3474 0
M  V30 18411 O 1719.6 -5.16671 -3.08763 0
M  V30 18412 H 1723.43 -2.97485 -0.611254 0
M  V30 18413 H 1721.02 -1.47524 -0.236035 0
M  V30 18414 H 1722.9 -2.89438 -3.06274 0
M  V30 18415 H 1721.57 -1.74718 -2.72498 0
M  V30 18416 H 1720.48 -3.52852 -1.24282 0
M  V30 18417 H 1721.81 -4.63587 -1.65373 0
M  V30 18418 N 1723.46 0.290824 -1.54893 0
M  V30 18419 C 1724.4 1.38393 -1.81446 0
M  V30 18420 C 1725.38 1.48322 -0.666282 0
M  V30 18421 O 1726.56 1.65225 -0.907354 0
M  V30 18422 C 1723.69 2.76211 -1.96024 0
M  V30 18423 C 1722.73 2.83655 -3.18499 0
M  V30 18424 S 1723.57 2.44713 -4.76315 0
M  V30 18425 C 1724.72 3.84539 -4.93843 0
M  V30 18426 H 1724.95 1.15664 -2.73878 0
M  V30 18427 H 1722.49 0.489495 -1.46435 0
M  V30 18428 H 1724.45 3.55585 -2.05108 0
M  V30 18429 H 1723.11 2.96203 -1.04511 0
M  V30 18430 H 1722.3 3.84765 -3.25533 0
M  V30 18431 H 1721.9 2.12285 -3.07914 0
M  V30 18432 H 1724.19 4.79639 -4.7849 0
M  V30 18433 H 1725.14 3.82469 -5.95922 0
M  V30 18434 H 1725.54 3.75014 -4.2193 0
M  V30 18435 N 1724.94 1.47523 0.554506 0
M  V30 18436 C 1726.19 1.53982 1.30897 0
M  V30 18437 C 1726.51 0.20487 1.93921 0
M  V30 18438 O 1725.78 -0.771422 1.80072 0
M  V30 18439 H 1724.36 0.567206 0.486092 0
M  V30 18440 H 1727.02 1.83838 0.647284 0
M  V30 18441 H 1726.12 2.30783 2.10109 0
M  V30 18442 N 1726.42 -0.801453 1.357 0
M  V30 18443 C 1727.65 -1.59518 1.32547 0
M  V30 18444 C 1728.07 -1.87868 -0.0934243 0
M  V30 18445 O 1727.43 -1.46955 -1.06179 0
M  V30 18446 C 1727.48 -2.90028 2.14281 0
M  V30 18447 O 1726.58 -3.83086 1.52704 0
M  V30 18448 H 1725.92 -0.48434 0.454215 0
M  V30 18449 H 1728.45 -0.994315 1.78814 0
M  V30 18450 H 1728.46 -3.39406 2.26423 0
M  V30 18451 H 1727.14 -2.6872 3.17431 0
M  V30 18452 H 1725.71 -3.4165 1.49432 0
M  V30 18453 N 1727.9 -1.19782 -1.02421 0
M  V30 18454 C 1728.83 -0.897544 -2.10895 0
M  V30 18455 C 1729.84 0.111644 -1.62417 0
M  V30 18456 O 1731.03 -0.118381 -1.78107 0
M  V30 18457 C 1728.13 -0.322714 -3.3736 0
M  V30 18458 C 1727.31 -1.38159 -4.15007 0
M  V30 18459 C 1726.36 -0.819462 -5.1978 0
M  V30 18460 O 1725.39 -1.4983 -5.49126 0
M  V30 18461 N 1726.59 0.374925 -5.79288 0
M  V30 18462 H 1729.36 -1.83127 -2.37243 0
M  V30 18463 H 1726.92 -1.10045 -1.1875 0
M  V30 18464 H 1728.91 0.0673046 -4.04644 0
M  V30 18465 H 1727.48 0.5154 -3.08322 0
M  V30 18466 H 1726.7 -1.94627 -3.42803 0
M  V30 18467 H 1727.99 -2.09496 -4.63669 0
M  V30 18468 H 1727.39 0.943856 -5.5777 0
M  V30 18469 H 1725.94 0.706668 -6.47958 0
M  V30 18470 N 1729.38 1.21606 -1.00248 0
M  V30 18471 C 1730.29 2.2757 -0.570004 0
M  V30 18472 C 1731.3 1.69669 0.385788 0
M  V30 18473 O 1732.48 1.99839 0.250246 0
M  V30 18474 C 1729.54 3.46558 0.0990566 0
M  V30 18475 C 1728.61 4.19741 -0.9009 0
M  V30 18476 C 1727.84 5.33048 -0.263673 0
M  V30 18477 O 1728.06 5.62599 0.940131 0
M  V30 18478 O 1727 5.93978 -0.973342 0
M  V30 18479 H 1730.82 2.66751 -1.45182 0
M  V30 18480 H 1728.41 1.27955 -0.771224 0
M  V30 18481 H 1730.29 4.18733 0.47339 0
M  V30 18482 H 1728.96 3.09283 0.955285 0
M  V30 18483 H 1727.87 3.49798 -1.32634 0
M  V30 18484 H 1729.2 4.60921 -1.72664 0
M  V30 18485 N 1730.86 0.776895 1.37121 0
M  V30 18486 C 1732.1 0.342876 1.9917 0
M  V30 18487 C 1732.42 -1.08574 1.61977 0
M  V30 18488 O 1731.69 -1.74634 0.887689 0
M  V30 18489 H 1730.27 0.123788 0.736672 0
M  V30 18490 H 1732.94 0.996163 1.67519 0
M  V30 18491 H 1732.03 0.424637 3.09198 0
M  V30 18492 N 1732.33 -1.48497 0.527859 0
M  V30 18493 C 1733.56 -2.069 -0.00302594 0
M  V30 18494 C 1733.98 -1.38469 -1.28342 0
M  V30 18495 O 1733.33 -0.471524 -1.76303 0
M  V30 18496 C 1733.38 -3.60749 -0.232871 0
M  V30 18497 O 1733.11 -4.26609 0.996797 0
M  V30 18498 C 1734.61 -4.35941 -0.804376 0
M  V30 18499 H 1731.83 -0.67021 0.0325559 0
M  V30 18500 H 1734.37 -1.90916 0.732897 0
M  V30 18501 H 1732.53 -3.76346 -0.918837 0
M  V30 18502 H 1732.94 -5.18725 0.776217 0
M  V30 18503 H 1734.41 -5.4437 -0.914635 0
M  V30 18504 H 1734.89 -4.00225 -1.80876 0
M  V30 18505 H 1735.5 -4.25017 -0.155041 0
M  V30 18506 N 1733.81 -0.262893 -1.55392 0
M  V30 18507 C 1735.23 0.09157 -1.59337 0
M  V30 18508 C 1735.43 1.55612 -1.28012 0
M  V30 18509 O 1734.48 2.30308 -1.0351 0
M  V30 18510 C 1735.8 -0.272043 -2.99467 0
M  V30 18511 C 1737.34 -0.217653 -3.12242 0
M  V30 18512 C 1737.82 -0.555528 -4.54618 0
M  V30 18513 N 1739.31 -0.506623 -4.60421 0
M  V30 18514 C 1740.05 -0.741013 -5.68592 0
M  V30 18515 N 1739.54 -1.03937 -6.84959 0
M  V30 18516 N 1741.33 -0.670636 -5.58085 0
M  V30 18517 H 1733.49 -1.2178 -1.74021 0
M  V30 18518 H 1735.75 -0.491131 -0.81086 0
M  V30 18519 H 1735.45 -1.29012 -3.27183 0
M  V30 18520 H 1735.33 0.393105 -3.75146 0
M  V30 18521 H 1737.72 0.791123 -2.84298 0
M  V30 18522 H 1737.8 -0.916884 -2.38803 0
M  V30 18523 H 1737.44 -1.56193 -4.83287 0
M  V30 18524 H 1737.37 0.165358 -5.2634 0
M  V30 18525 H 1739.86 -0.285397 -3.76821 0
M  V30 18526 H 1740.17 -1.20522 -7.63344 0
M  V30 18527 H 1738.52 -1.07702 -6.86604 0
M  V30 18528 H 1741.71 -0.437473 -4.66051 0
M  V30 18529 H 1741.88 -0.856692 -6.42312 0
M  V30 18530 N 1735.29 1.57597 0.0100073 0
M  V30 18531 C 1736.22 2.10825 1.00375 0
M  V30 18532 C 1737.2 1.01507 1.36493 0
M  V30 18533 O 1738.39 1.29136 1.45043 0
M  V30 18534 C 1735.52 2.60334 2.29878 0
M  V30 18535 C 1734.47 3.74087 2.07949 0
M  V30 18536 C 1733.8 4.09873 3.43378 0
M  V30 18537 C 1735.1 5.01764 1.45018 0
M  V30 18538 H 1736.79 2.94105 0.560591 0
M  V30 18539 H 1734.34 1.4148 0.268208 0
M  V30 18540 H 1736.29 2.96196 2.99743 0
M  V30 18541 H 1735.01 1.74162 2.76288 0
M  V30 18542 H 1733.67 3.38603 1.40512 0
M  V30 18543 H 1733.32 3.20739 3.87473 0
M  V30 18544 H 1733.02 4.86505 3.29525 0
M  V30 18545 H 1734.54 4.48285 4.14575 0
M  V30 18546 H 1735.96 5.35462 2.04826 0
M  V30 18547 H 1734.35 5.83135 1.41683 0
M  V30 18548 H 1735.42 4.83093 0.41819 0
M  V30 18549 N 1736.77 -0.282606 1.55045 0
M  V30 18550 C 1737.68 -1.37129 1.90349 0
M  V30 18551 C 1738.69 -1.54537 0.799639 0
M  V30 18552 O 1739.87 -1.68849 1.09782 0
M  V30 18553 C 1736.93 -2.71211 2.15975 0
M  V30 18554 C 1736 -2.62632 3.39592 0
M  V30 18555 C 1735.23 -3.90319 3.63987 0
M  V30 18556 O 1735.45 -4.90551 2.9106 0
M  V30 18557 O 1734.39 -3.91102 4.57518 0
M  V30 18558 H 1738.21 -1.10189 2.83006 0
M  V30 18559 H 1735.8 -0.480293 1.41469 0
M  V30 18560 H 1737.68 -3.50509 2.33926 0
M  V30 18561 H 1736.35 -2.97958 1.26503 0
M  V30 18562 H 1735.26 -1.81743 3.26987 0
M  V30 18563 H 1736.59 -2.40836 4.29254 0
M  V30 18564 N 1738.25 -1.47815 -0.546675 0
M  V30 18565 C 1739.52 -1.45464 -1.30765 0
M  V30 18566 C 1739.9 -0.157249 -2.10514 0
M  V30 18567 O 1739.25 0.861203 -2.1165 0
M  V30 18568 C 1739.46 -2.70661 -2.20326 0
M  V30 18569 C 1740.81 -3.18309 -2.81007 0
M  V30 18570 O 1741.83 -2.71462 -2.30623 0
M  V30 18571 O 1740.69 -3.9978 -3.7261 0
M  V30 18572 H 1737.79 -0.580175 -0.589343 0
M  V30 18573 H 1740.33 -1.60029 -0.564707 0
M  V30 18574 H 1739.1 -3.56612 -1.61069 0
M  V30 18575 H 1738.73 -2.58734 -3.01898 0
M  V30 18576 N 1739.72 0.794246 -1.36123 0
M  V30 18577 C 1740.63 1.93807 -1.32197 0
M  V30 18578 C 1741.65 1.7254 -0.2249 0
M  V30 18579 O 1742.83 1.9616 -0.456431 0
M  V30 18580 C 1739.89 3.28593 -1.10578 0
M  V30 18581 C 1738.95 3.6267 -2.29715 0
M  V30 18582 C 1738.18 4.91025 -2.09118 0
M  V30 18583 O 1738.41 5.6039 -1.06389 0
M  V30 18584 O 1737.34 5.23647 -2.96779 0
M  V30 18585 H 1741.17 2.00068 -2.28487 0
M  V30 18586 H 1738.75 0.933808 -1.16621 0
M  V30 18587 H 1740.63 4.0926 -1.0042 0
M  V30 18588 H 1739.31 3.23235 -0.17347 0
M  V30 18589 H 1738.22 2.82329 -2.4544 0
M  V30 18590 H 1739.55 3.72747 -3.21435 0
M  V30 18591 N 1741.2 1.20323 1.01785 0
M  V30 18592 C 1742.11 0.966603 2.13761 0
M  V30 18593 C 1743.13 -0.0771059 1.73829 0
M  V30 18594 O 1744.3 0.110054 2.01099 0
M  V30 18595 C 1741.37 0.520405 3.42772 0
M  V30 18596 C 1740.43 1.63482 3.96954 0
M  V30 18597 C 1739.66 1.20981 5.19807 0
M  V30 18598 O 1739.89 0.0779814 5.70347 0
M  V30 18599 O 1738.82 2.01674 5.67108 0
M  V30 18600 H 1742.65 1.90414 2.36593 0
M  V30 18601 H 1740.23 0.986997 1.12155 0
M  V30 18602 H 1742.11 0.280747 4.20464 0
M  V30 18603 H 1740.79 -0.388563 3.21359 0
M  V30 18604 H 1739.69 1.92874 3.20547 0
M  V30 18605 H 1741.03 2.52074 4.22752 0
M  V30 18606 N 1742.68 -1.21073 1.00892 0
M  V30 18607 C 1743.59 -2.27265 0.582065 0
M  V30 18608 C 1744.61 -1.69872 -0.376785 0
M  V30 18609 O 1745.78 -1.99969 -0.239644 0
M  V30 18610 C 1742.85 -3.46606 -0.0806764 0
M  V30 18611 C 1741.91 -4.19257 0.923147 0
M  V30 18612 C 1741.14 -5.32901 0.291938 0
M  V30 18613 O 1741.36 -5.6309 -0.910282 0
M  V30 18614 O 1740.3 -5.93453 1.00483 0
M  V30 18615 H 1744.12 -2.65977 1.46594 0
M  V30 18616 H 1741.71 -1.27544 0.777999 0
M  V30 18617 H 1743.59 -4.18978 -0.451177 0
M  V30 18618 H 1742.27 -3.09785 -0.93887 0
M  V30 18619 H 1741.17 -3.4909 1.34488 0
M  V30 18620 H 1742.51 -4.59999 1.75106 0
M  V30 18621 N 1744.16 -0.784156 -1.36707 0
M  V30 18622 C 1745.44 -0.278338 -1.93609 0
M  V30 18623 C 1745.82 1.22865 -1.71661 0
M  V30 18624 O 1745.16 2.01765 -1.07252 0
M  V30 18625 C 1745.37 -0.665232 -3.42601 0
M  V30 18626 C 1746.72 -0.642005 -4.19718 0
M  V30 18627 O 1747.75 -0.605381 -3.51018 0
M  V30 18628 O 1746.6 -0.680178 -5.42251 0
M  V30 18629 H 1743.7 -0.0675603 -0.824236 0
M  V30 18630 H 1746.24 -0.866345 -1.4592 0
M  V30 18631 H 1745.02 -1.70478 -3.52211 0
M  V30 18632 H 1744.64 -0.0508295 -3.97568 0
M  V30 18633 N 1745.64 1.48215 -0.535727 0
M  V30 18634 C 1746.88 2.028 -0.00373305 0
M  V30 18635 C 1747.22 1.41143 1.33388 0
M  V30 18636 O 1746.49 0.559227 1.86287 0
M  V30 18637 C 1746.77 3.59925 0.112186 0
M  V30 18638 C 1746.63 4.32053 -1.251 0
M  V30 18639 C 1747.95 4.32083 0.836177 0
M  V30 18640 H 1745.06 0.736995 -0.00283063 0
M  V30 18641 H 1747.71 1.76877 -0.693868 0
M  V30 18642 H 1745.86 3.82142 0.69996 0
M  V30 18643 H 1747.53 4.21238 -1.88033 0
M  V30 18644 H 1745.77 3.93246 -1.83139 0
M  V30 18645 H 1746.44 5.4046 -1.12283 0
M  V30 18646 H 1748.92 4.1473 0.337333 0
M  V30 18647 H 1747.79 5.41699 0.886196 0
M  V30 18648 H 1748.06 3.99772 1.88771 0
M  V30 18649 N 1747.11 0.27113 1.5525 0
M  V30 18650 C 1748.36 -0.347304 1.99804 0
M  V30 18651 C 1748.69 -1.55803 1.15928 0
M  V30 18652 O 1747.97 -1.93154 0.228386 0
M  V30 18653 C 1748.25 -0.733408 3.52552 0
M  V30 18654 C 1748.1 0.48438 4.47184 0
M  V30 18655 C 1749.42 -1.57136 4.11092 0
M  V30 18656 H 1746.54 -0.124762 0.726363 0
M  V30 18657 H 1749.18 0.37728 1.86217 0
M  V30 18658 H 1747.33 -1.35076 3.64262 0
M  V30 18659 H 1749.01 1.12293 4.47424 0
M  V30 18660 H 1747.25 1.12317 4.19008 0
M  V30 18661 H 1747.92 0.170525 5.51737 0
M  V30 18662 H 1750.4 -1.05001 4.02634 0
M  V30 18663 H 1749.27 -1.81033 5.18187 0
M  V30 18664 H 1749.53 -2.55111 3.61069 0
M  V30 18665 N 1748.59 -1.576 -0.00164943 0
M  V30 18666 C 1749.84 -1.89675 -0.686026 0
M  V30 18667 C 1750.15 -0.873179 -1.75028 0
M  V30 18668 O 1751.36 -1.08409 -2.48917 0
M  V30 18669 C 1749.82 -3.36696 -1.27136 0
M  V30 18670 C 1749.42 -4.47346 -0.242011 0
M  V30 18671 C 1751.17 -3.77883 -1.93402 0
M  V30 18672 C 1749.08 -5.85444 -0.837241 0
M  V30 18673 H 1748.01 -0.707756 -0.259994 0
M  V30 18674 H 1750.66 -1.83406 0.0586245 0
M  V30 18675 H 1749.04 -3.37797 -2.06662 0
M  V30 18676 H 1750.21 -4.57759 0.528539 0
M  V30 18677 H 1748.53 -4.15168 0.320118 0
M  V30 18678 H 1751.12 -4.78394 -2.38838 0
M  V30 18679 H 1751.47 -3.11311 -2.76389 0
M  V30 18680 H 1752 -3.79075 -1.20612 0
M  V30 18681 H 1748.74 -6.55484 -0.04619 0
M  V30 18682 H 1748.26 -5.78698 -1.57699 0
M  V30 18683 H 1749.94 -6.33048 -1.33637 0
M  V30 18684 N 1750.07 0.274379 -1.55193 0
M  V30 18685 C 1750.98 1.36118 -1.91073 0
M  V30 18686 C 1752 1.54111 -0.807823 0
M  V30 18687 O 1753.17 1.68264 -1.10676 0
M  V30 18688 C 1750.24 2.70062 -2.17411 0
M  V30 18689 C 1749.3 2.60827 -3.4098 0
M  V30 18690 C 1748.53 3.88384 -3.66052 0
M  V30 18691 O 1748.75 4.89 -2.93657 0
M  V30 18692 O 1747.69 3.8867 -4.59586 0
M  V30 18693 H 1751.51 1.08686 -2.83586 0
M  V30 18694 H 1749.1 0.472784 -1.41722 0
M  V30 18695 H 1750.98 3.49264 -2.35782 0
M  V30 18696 H 1749.66 2.97283 -1.28081 0
M  V30 18697 H 1748.56 1.80006 -3.27946 0
M  V30 18698 H 1749.9 2.38556 -4.30525 0
M  V30 18699 N 1751.55 1.48103 0.538828 0
M  V30 18700 C 1752.83 1.46155 1.29992 0
M  V30 18701 C 1753.21 0.16841 2.10427 0
M  V30 18702 O 1752.55 -0.849967 2.12103 0
M  V30 18703 C 1752.76 2.71826 2.18888 0
M  V30 18704 C 1754.11 3.19794 2.79315 0
M  V30 18705 O 1755.14 2.72681 2.2918 0
M  V30 18706 O 1753.99 4.0175 3.70485 0
M  V30 18707 H 1751.09 0.583293 0.586258 0
M  V30 18708 H 1753.63 1.60326 0.556212 0
M  V30 18709 H 1752.41 3.57462 1.59176 0
M  V30 18710 H 1752.03 2.60332 3.00521 0
M  V30 18711 N 1753.03 -0.787016 1.36542 0
M  V30 18712 C 1754.27 -1.54499 1.30906 0
M  V30 18713 C 1754.6 -1.94183 -0.110963 0
M  V30 18714 O 1753.86 -1.63149 -1.08079 0
M  V30 18715 C 1754.16 -2.83235 2.17974 0
M  V30 18716 C 1753.82 -2.62677 3.66485 0
M  V30 18717 C 1752.48 -2.56779 4.06962 0
M  V30 18718 C 1754.84 -2.43853 4.60636 0
M  V30 18719 C 1752.16 -2.30026 5.39727 0
M  V30 18720 C 1754.52 -2.18626 5.93621 0
M  V30 18721 C 1753.18 -2.11162 6.33219 0
M  V30 18722 H 1752.45 -0.565352 0.479017 0
M  V30 18723 H 1755.1 -0.907794 1.68616 0
M  V30 18724 H 1753.4 -3.51435 1.73208 0
M  V30 18725 H 1755.1 -3.41038 2.10936 0
M  V30 18726 H 1751.69 -2.68125 3.34376 0
M  V30 18727 H 1755.87 -2.4741 4.30235 0
M  V30 18728 H 1751.13 -2.22731 5.69386 0
M  V30 18729 H 1755.3 -2.03056 6.66139 0
M  V30 18730 H 1752.93 -1.90195 7.36023 0
M  V30 18731 N 1754.5 -1.20861 -1.01145 0
M  V30 18732 C 1755.41 -0.977926 -2.13246 0
M  V30 18733 C 1756.43 0.0678862 -1.73868 0
M  V30 18734 O 1757.61 -0.120717 -2.01038 0
M  V30 18735 C 1754.67 -0.538575 -3.42491 0
M  V30 18736 C 1753.73 -1.65584 -3.96081 0
M  V30 18737 C 1752.97 -1.23736 -5.19158 0
M  V30 18738 O 1753.19 -0.108227 -5.70297 0
M  V30 18739 O 1752.12 -2.04679 -5.6603 0
M  V30 18740 H 1755.95 -1.91666 -2.3558 0
M  V30 18741 H 1753.53 -0.992931 -1.1163 0
M  V30 18742 H 1755.42 -0.303041 -4.20309 0
M  V30 18743 H 1754.09 0.371515 -3.21561 0
M  V30 18744 H 1753 -1.94572 -3.19519 0
M  V30 18745 H 1754.33 -2.54313 -4.21409 0
M  V30 18746 N 1755.98 1.20536 -1.01532 0
M  V30 18747 C 1756.89 2.26953 -0.594109 0
M  V30 18748 C 1757.91 1.70069 0.367771 0
M  V30 18749 O 1759.08 2.00093 0.229036 0
M  V30 18750 C 1756.15 3.46644 0.0622939 0
M  V30 18751 C 1755.21 4.18762 -0.945368 0
M  V30 18752 C 1754.44 5.32739 -0.320195 0
M  V30 18753 O 1754.67 5.63565 0.880407 0
M  V30 18754 O 1753.6 5.92912 -1.03629 0
M  V30 18755 H 1757.43 2.65196 -1.48003 0
M  V30 18756 H 1755.01 1.2713 -0.784752 0
M  V30 18757 H 1756.89 4.19211 0.428952 0
M  V30 18758 H 1755.57 3.10279 0.922428 0
M  V30 18759 H 1754.48 3.48372 -1.36337 0
M  V30 18760 H 1755.81 4.59064 -1.77543 0
M  V30 18761 N 1757.46 0.791395 1.36289 0
M  V30 18762 C 1758.74 0.288602 1.93459 0
M  V30 18763 C 1759.12 -1.21953 1.7231 0
M  V30 18764 O 1758.47 -2.01194 1.0832 0
M  V30 18765 C 1758.68 0.683392 3.42244 0
M  V30 18766 C 1760.02 0.664255 4.19372 0
M  V30 18767 O 1761.05 0.623988 3.50692 0
M  V30 18768 O 1759.91 0.708926 5.41882 0
M  V30 18769 H 1757 0.0719305 0.823866 0
M  V30 18770 H 1759.55 0.874071 1.45458 0
M  V30 18771 H 1758.32 1.72344 3.51302 0
M  V30 18772 H 1757.94 0.0719128 3.97535 0
M  V30 18773 N 1758.94 -1.47929 0.54358 0
M  V30 18774 C 1760.16 -2.07393 0.0168905 0
M  V30 18775 C 1760.59 -1.39557 -1.26117 0
M  V30 18776 O 1759.95 -0.465983 -1.75209 0
M  V30 18777 C 1760 -3.6017 -0.176105 0
M  V30 18778 O 1759.1 -3.9326 -1.24178 0
M  V30 18779 H 1758.44 -0.662459 0.0452126 0
M  V30 18780 H 1760.97 -1.90145 0.755376 0
M  V30 18781 H 1760.98 -4.06088 -0.394555 0
M  V30 18782 H 1759.66 -4.08944 0.757445 0
M  V30 18783 H 1758.23 -3.59105 -1.0049 0
M  V30 18784 N 1760.42 -0.27936 -1.55104 0
M  V30 18785 C 1761.33 0.616249 -2.26361 0
M  V30 18786 C 1762.34 1.16656 -1.29102 0
M  V30 18787 O 1763.52 1.19596 -1.62046 0
M  V30 18788 C 1760.58 1.78191 -2.97403 0
M  V30 18789 C 1759.65 1.26785 -4.10151 0
M  V30 18790 C 1758.88 2.37795 -4.77796 0
M  V30 18791 O 1759.1 3.57242 -4.44673 0
M  V30 18792 O 1758.04 2.05711 -5.65656 0
M  V30 18793 H 1761.86 0.0388715 -3.03675 0
M  V30 18794 H 1759.45 -0.0466058 -1.49327 0
M  V30 18795 H 1761.33 2.4615 -3.42036 0
M  V30 18796 H 1760 2.3463 -2.23003 0
M  V30 18797 H 1758.91 0.554608 -3.69966 0
M  V30 18798 H 1760.24 0.749157 -4.86465 0
M  V30 18799 N 1761.9 1.57599 -0.0067085 0
M  V30 18800 C 1762.86 2.07783 0.967417 0
M  V30 18801 C 1763.86 0.988498 1.26828 0
M  V30 18802 O 1765.05 1.25091 1.21235 0
M  V30 18803 C 1762.18 2.52491 2.29044 0
M  V30 18804 H 1763.37 2.95122 0.533201 0
M  V30 18805 H 1760.93 1.54432 0.2409 0
M  V30 18806 H 1761.66 1.68415 2.77141 0
M  V30 18807 H 1761.45 3.32054 2.08525 0
M  V30 18808 H 1762.94 2.9162 2.98911 0
M  V30 18809 N 1763.37 -0.266145 1.55336 0
M  V30 18810 C 1764.28 -1.35103 1.91793 0
M  V30 18811 C 1765.3 -1.5368 0.815985 0
M  V30 18812 O 1766.48 -1.67675 1.11567 0
M  V30 18813 C 1763.54 -2.68905 2.1884 0
M  V30 18814 C 1762.6 -2.59015 3.42359 0
M  V30 18815 C 1761.83 -3.86437 3.68106 0
M  V30 18816 O 1762.06 -4.87436 2.96247 0
M  V30 18817 O 1760.99 -3.86227 4.61641 0
M  V30 18818 H 1764.82 -1.07181 2.84158 0
M  V30 18819 H 1762.4 -0.465262 1.41971 0
M  V30 18820 H 1764.28 -3.48008 2.3763 0
M  V30 18821 H 1762.96 -2.96599 1.29656 0
M  V30 18822 H 1761.87 -1.78264 3.28896 0
M  V30 18823 H 1763.2 -2.3627 4.31784 0
M  V30 18824 N 1764.85 -1.48386 -0.530967 0
M  V30 18825 C 1766.1 -1.56045 -1.28431 0
M  V30 18826 C 1766.42 -0.235695 -1.9357 0
M  V30 18827 O 1765.69 0.742677 -1.81276 0
M  V30 18828 H 1764.27 -0.574868 -0.477007 0
M  V30 18829 H 1766.93 -1.84844 -0.617955 0
M  V30 18830 H 1766.03 -2.34096 -2.0641 0
M  V30 18831 N 1766.33 0.779763 -1.36958 0
M  V30 18832 C 1767.55 1.57389 -1.35068 0
M  V30 18833 C 1767.98 1.87993 0.0635244 0
M  V30 18834 O 1767.34 1.48625 1.03828 0
M  V30 18835 C 1767.39 2.86582 -2.18868 0
M  V30 18836 O 1766.49 3.80609 -1.58779 0
M  V30 18837 H 1765.83 0.477052 -0.461863 0
M  V30 18838 H 1768.36 0.965741 -1.80373 0
M  V30 18839 H 1768.37 3.35761 -2.31794 0
M  V30 18840 H 1767.05 2.63635 -3.21666 0
M  V30 18841 H 1765.62 3.39229 -1.54848 0
M  V30 18842 N 1767.81 1.21396 1.00503 0
M  V30 18843 C 1769.06 1.02913 1.73935 0
M  V30 18844 C 1769.38 -0.438329 1.9001 0
M  V30 18845 O 1768.65 -1.31618 1.45098 0
M  V30 18846 H 1767.23 0.377813 0.644412 0
M  V30 18847 H 1769.89 1.52704 1.21109 0
M  V30 18848 H 1768.98 1.49705 2.73852 0
M  V30 18849 N 1769.29 -1.19996 1.0217 0
M  V30 18850 C 1770.53 -1.89121 0.712579 0
M  V30 18851 C 1770.85 -1.79556 -0.760561 0
M  V30 18852 O 1770.12 -1.2013 -1.54744 0
M  V30 18853 H 1768.7 -0.700075 0.260585 0
M  V30 18854 H 1771.37 -1.4571 1.2944 0
M  V30 18855 H 1770.46 -2.95629 1.00051 0
M  V30 18856 N 1770.76 -0.798611 -1.35867 0
M  V30 18857 C 1771.67 -0.204758 -2.33705 0
M  V30 18858 C 1772.69 0.648001 -1.61484 0
M  V30 18859 O 1773.87 0.561628 -1.93411 0
M  V30 18860 C 1770.93 0.643225 -3.40681 0
M  V30 18861 C 1769.99 -0.229099 -4.28688 0
M  V30 18862 C 1769.22 0.578508 -5.30555 0
M  V30 18863 O 1769.45 1.81382 -5.40793 0
M  V30 18864 O 1768.38 -0.0264291 -6.01894 0
M  V30 18865 H 1772.21 -1.01392 -2.86275 0
M  V30 18866 H 1769.79 -0.560242 -1.38498 0
M  V30 18867 H 1771.67 1.12648 -4.06065 0
M  V30 18868 H 1770.35 1.43012 -2.90395 0
M  V30 18869 H 1769.26 -0.759314 -3.66313 0
M  V30 18870 H 1770.59 -0.979736 -4.82351 0
M  V30 18871 N 1772.24 1.47639 -0.551417 0
M  V30 18872 C 1773.52 1.95559 0.0401983 0
M  V30 18873 C 1773.9 1.49396 1.49144 0
M  V30 18874 O 1773.25 0.730148 2.1652 0
M  V30 18875 C 1773.46 3.48859 -0.0992677 0
M  V30 18876 C 1774.8 4.24572 0.0490517 0
M  V30 18877 O 1775.83 3.5619 -0.026527 0
M  V30 18878 O 1774.69 5.46094 0.210638 0
M  V30 18879 H 1771.78 0.824251 0.0673694 0
M  V30 18880 H 1774.33 1.58065 -0.617532 0
M  V30 18881 H 1773.1 3.75245 -1.10936 0
M  V30 18882 H 1772.72 3.93102 0.596339 0
M  V30 18883 N 1773.72 0.287581 1.54954 0
M  V30 18884 C 1775 -0.378041 1.91912 0
M  V30 18885 C 1775.38 -1.72749 1.2133 0
M  V30 18886 O 1774.73 -2.2589 0.344403 0
M  V30 18887 C 1774.94 -0.505993 3.45312 0
M  V30 18888 C 1776.28 -0.783109 4.17316 0
M  V30 18889 O 1777.31 -0.590324 3.51274 0
M  V30 18890 O 1776.17 -1.15257 5.34208 0
M  V30 18891 H 1773.26 -0.209004 0.800154 0
M  V30 18892 H 1775.81 0.334653 1.66368 0
M  V30 18893 H 1774.58 0.443187 3.88782 0
M  V30 18894 H 1774.2 -1.26767 3.7685 0
M  V30 18895 N 1775.2 -1.57593 0.0150662 0
M  V30 18896 C 1776.45 -1.90392 -0.66587 0
M  V30 18897 C 1776.76 -0.891694 -1.74092 0
M  V30 18898 O 1777.97 -1.11043 -2.47753 0
M  V30 18899 C 1776.42 -3.38026 -1.23558 0
M  V30 18900 C 1776.03 -4.47577 -0.19455 0
M  V30 18901 C 1777.77 -3.79913 -1.89384 0
M  V30 18902 C 1775.68 -5.86299 -0.7751 0
M  V30 18903 H 1774.61 -0.710474 -0.252473 0
M  V30 18904 H 1777.26 -1.83334 0.0780739 0
M  V30 18905 H 1775.64 -3.3997 -2.03068 0
M  V30 18906 H 1776.82 -4.57172 0.577061 0
M  V30 18907 H 1775.13 -4.14805 0.364134 0
M  V30 18908 H 1777.73 -4.809 -2.3375 0
M  V30 18909 H 1778.07 -3.14225 -2.73072 0
M  V30 18910 H 1778.61 -3.80333 -1.16585 0
M  V30 18911 H 1775.35 -6.55496 0.0233354 0
M  V30 18912 H 1774.87 -5.80338 -1.51552 0
M  V30 18913 H 1776.54 -6.3443 -1.26915 0
M  V30 18914 N 1776.68 0.257904 -1.55475 0
M  V30 18915 C 1778.09 0.605871 -1.47653 0
M  V30 18916 C 1778.29 1.88837 -0.703063 0
M  V30 18917 O 1777.35 2.51469 -0.227981 0
M  V30 18918 C 1778.66 0.718813 -2.91982 0
M  V30 18919 C 1780.21 0.81187 -3.02287 0
M  V30 18920 C 1780.68 0.956465 -4.47901 0
M  V30 18921 N 1782.18 1.02161 -4.51793 0
M  V30 18922 C 1782.91 1.15256 -5.61697 0
M  V30 18923 N 1782.41 1.24975 -6.81435 0
M  V30 18924 N 1784.2 1.18485 -5.4947 0
M  V30 18925 H 1776.35 -0.584154 -2.04209 0
M  V30 18926 H 1778.61 -0.200045 -0.926653 0
M  V30 18927 H 1778.32 -0.15335 -3.51366 0
M  V30 18928 H 1778.19 1.59429 -3.41851 0
M  V30 18929 H 1780.58 1.67449 -2.42991 0
M  V30 18930 H 1780.66 -0.0885307 -2.55647 0
M  V30 18931 H 1780.31 0.0984438 -5.07805 0
M  V30 18932 H 1780.24 1.87174 -4.92213 0
M  V30 18933 H 1782.73 0.958295 -3.65548 0
M  V30 18934 H 1783.04 1.34843 -7.60945 0
M  V30 18935 H 1781.38 1.21952 -6.84217 0
M  V30 18936 H 1784.58 1.10534 -4.54863 0
M  V30 18937 H 1784.75 1.28346 -6.35162 0
M  V30 18938 N 1778.15 1.48666 0.52309 0
M  V30 18939 C 1779.06 1.66396 1.65377 0
M  V30 18940 C 1780.08 0.546469 1.65196 0
M  V30 18941 O 1781.26 0.818413 1.84022 0
M  V30 18942 C 1778.32 1.70602 3.01821 0
M  V30 18943 C 1777.38 2.94028 3.12803 0
M  V30 18944 C 1776.62 2.98024 4.42739 0
M  V30 18945 O 1776.84 2.10232 5.30244 0
M  V30 18946 O 1775.77 3.90266 4.58231 0
M  V30 18947 H 1779.6 2.62138 1.53354 0
M  V30 18948 H 1777.18 1.32148 0.696948 0
M  V30 18949 H 1779.07 1.75849 3.82956 0
M  V30 18950 H 1777.74 0.780346 3.14153 0
M  V30 18951 H 1776.65 2.9431 2.30938 0
M  V30 18952 H 1777.98 3.86003 3.0539 0
M  V30 18953 N 1779.63 -0.772489 1.37369 0
M  V30 18954 C 1780.56 -1.89969 1.35772 0
M  V30 18955 C 1781.54 -1.68586 0.226452 0
M  V30 18956 O 1782.73 -1.89454 0.426692 0
M  V30 18957 C 1779.86 -3.27242 1.16319 0
M  V30 18958 C 1778.81 -3.63187 2.2645 0
M  V30 18959 C 1778.14 -4.98992 1.92121 0
M  V30 18960 C 1779.44 -3.70013 3.6863 0
M  V30 18961 H 1781.13 -1.91564 2.30095 0
M  V30 18962 H 1778.68 -0.920241 1.10759 0
M  V30 18963 H 1780.63 -4.05734 1.13832 0
M  V30 18964 H 1779.36 -3.26078 0.184513 0
M  V30 18965 H 1778.01 -2.87001 2.28091 0
M  V30 18966 H 1777.66 -4.94368 0.927848 0
M  V30 18967 H 1777.36 -5.24012 2.65867 0
M  V30 18968 H 1778.89 -5.79886 1.91219 0
M  V30 18969 H 1780.3 -4.38659 3.69122 0
M  V30 18970 H 1778.7 -4.06529 4.41423 0
M  V30 18971 H 1779.77 -2.70694 4.02309 0
M  V30 18972 N 1781.11 -1.21927 -0.998575 0
M  V30 18973 C 1782.53 -0.978007 -1.26124 0
M  V30 18974 C 1782.73 0.3318 -1.98749 0
M  V30 18975 O 1781.78 1.05585 -2.29364 0
M  V30 18976 C 1783.1 -2.17291 -2.07858 0
M  V30 18977 C 1784.64 -2.21586 -2.21062 0
M  V30 18978 C 1785.12 -3.40613 -3.06181 0
M  V30 18979 N 1786.61 -3.40739 -3.13769 0
M  V30 18980 C 1787.34 -4.29488 -3.79905 0
M  V30 18981 N 1786.84 -5.28445 -4.48015 0
M  V30 18982 N 1788.63 -4.17279 -3.76609 0
M  V30 18983 H 1780.78 -2.06149 -0.51151 0
M  V30 18984 H 1783.05 -0.903039 -0.288487 0
M  V30 18985 H 1782.75 -3.12246 -1.61851 0
M  V30 18986 H 1782.63 -2.16883 -3.08612 0
M  V30 18987 H 1785.01 -1.27183 -2.66286 0
M  V30 18988 H 1785.1 -2.26035 -1.19757 0
M  V30 18989 H 1784.74 -4.35313 -2.61659 0
M  V30 18990 H 1784.67 -3.33403 -4.07615 0
M  V30 18991 H 1787.16 -2.69128 -2.65289 0
M  V30 18992 H 1787.47 -5.92454 -4.96203 0
M  V30 18993 H 1785.82 -5.32364 -4.46782 0
M  V30 18994 H 1789.01 -3.39226 -3.22557 0
M  V30 18995 H 1789.18 -4.86651 -4.27873 0
M  V30 18996 N 1782.59 1.19452 -1.02805 0
M  V30 18997 C 1783.55 2.20857 -0.612757 0
M  V30 18998 C 1784.55 1.57519 0.323182 0
M  V30 18999 O 1785.74 1.7385 0.110303 0
M  V30 19000 C 1782.87 3.40743 0.103488 0
M  V30 19001 H 1784.07 2.59113 -1.50998 0
M  V30 19002 H 1781.62 1.33116 -0.819142 0
M  V30 19003 H 1782.35 3.08004 1.0151 0
M  V30 19004 H 1782.14 3.87949 -0.56903 0
M  V30 19005 H 1783.63 4.15858 0.380998 0
M  V30 19006 N 1784.07 0.805805 1.35442 0
M  V30 19007 C 1785.01 0.213632 2.29809 0
M  V30 19008 C 1785.98 -0.651878 1.52774 0
M  V30 19009 O 1787.17 -0.597124 1.81216 0
M  V30 19010 C 1784.31 -0.632444 3.39255 0
M  V30 19011 C 1783.42 0.253414 4.31256 0
M  V30 19012 C 1782.56 -0.600593 5.27794 0
M  V30 19013 C 1781.6 0.285712 6.11433 0
M  V30 19014 N 1780.73 -0.528222 7.0011 0
M  V30 19015 H 1785.57 1.02378 2.79862 0
M  V30 19016 H 1783.11 0.516397 1.37738 0
M  V30 19017 H 1785.07 -1.13814 4.01376 0
M  V30 19018 H 1783.7 -1.40786 2.90481 0
M  V30 19019 H 1782.75 0.877202 3.70148 0
M  V30 19020 H 1784.06 0.935631 4.89946 0
M  V30 19021 H 1783.22 -1.17145 5.95283 0
M  V30 19022 H 1781.95 -1.31638 4.69598 0
M  V30 19023 H 1780.96 0.868843 5.42891 0
M  V30 19024 H 1782.18 0.999349 6.71707 0
M  V30 19025 H 1780.13 -1.228 6.44404 0
M  V30 19026 H 1780.05 0.0959658 7.55939 0
M  V30 19027 H 1781.32 -1.08238 7.71949 0
M  V30 19028 N 1785.54 -1.47344 0.559239 0
M  V30 19029 C 1786.49 -2.30039 -0.187317 0
M  V30 19030 C 1787.46 -1.39186 -0.906443 0
M  V30 19031 O 1788.65 -1.68147 -0.901739 0
M  V30 19032 C 1785.79 -3.2319 -1.21004 0
M  V30 19033 C 1784.9 -4.29134 -0.496776 0
M  V30 19034 C 1784.03 -5.09435 -1.50497 0
M  V30 19035 C 1783.07 -6.07151 -0.776794 0
M  V30 19036 N 1782.21 -6.80404 -1.73192 0
M  V30 19037 H 1787.05 -2.93357 0.523978 0
M  V30 19038 H 1784.59 -1.44597 0.270225 0
M  V30 19039 H 1786.55 -3.75621 -1.81561 0
M  V30 19040 H 1785.18 -2.61732 -1.88935 0
M  V30 19041 H 1784.23 -3.79744 0.223359 0
M  V30 19042 H 1785.54 -4.98746 0.0735731 0
M  V30 19043 H 1784.69 -5.66026 -2.18402 0
M  V30 19044 H 1783.43 -4.3973 -2.10924 0
M  V30 19045 H 1782.44 -5.49736 -0.0838382 0
M  V30 19046 H 1783.66 -6.78866 -0.178239 0
M  V30 19047 H 1781.61 -6.13427 -2.32472 0
M  V30 19048 H 1781.53 -7.46193 -1.21377 0
M  V30 19049 H 1782.79 -7.41567 -2.40204 0
M  V30 19050 N 1787.02 -0.295795 -1.54799 0
M  V30 19051 C 1787.95 0.575863 -2.26288 0
M  V30 19052 C 1788.93 1.14217 -1.26049 0
M  V30 19053 O 1790.12 1.17248 -1.54812 0
M  V30 19054 C 1787.25 1.7503 -2.9997 0
M  V30 19055 C 1786.2 1.31459 -4.07311 0
M  V30 19056 C 1785.53 2.57377 -4.6868 0
M  V30 19057 C 1786.83 0.449629 -5.20361 0
M  V30 19058 H 1788.52 -0.0203797 -2.99393 0
M  V30 19059 H 1786.07 -0.0112418 -1.43996 0
M  V30 19060 H 1788.02 2.36615 -3.487 0
M  V30 19061 H 1786.75 2.3727 -2.24434 0
M  V30 19062 H 1785.4 0.721829 -3.59423 0
M  V30 19063 H 1785.05 3.1792 -3.89789 0
M  V30 19064 H 1784.75 2.28927 -5.41171 0
M  V30 19065 H 1786.28 3.19774 -5.2017 0
M  V30 19066 H 1787.69 0.971014 -5.65017 0
M  V30 19067 H 1786.09 0.259121 -5.9954 0
M  V30 19068 H 1787.16 -0.526564 -4.82032 0
M  V30 19069 N 1788.5 1.57583 -0.0234236 0
M  V30 19070 C 1789.46 2.08797 0.945325 0
M  V30 19071 C 1790.46 1.00189 1.25773 0
M  V30 19072 O 1791.65 1.2637 1.19901 0
M  V30 19073 C 1788.79 2.54906 2.26353 0
M  V30 19074 H 1789.98 2.95671 0.50187 0
M  V30 19075 H 1787.53 1.54679 0.224507 0
M  V30 19076 H 1788.27 1.71345 2.75339 0
M  V30 19077 H 1788.05 3.34247 2.04991 0
M  V30 19078 H 1789.54 2.94774 2.95801 0
M  V30 19079 N 1789.98 -0.249655 1.5561 0
M  V30 19080 C 1790.91 -1.31281 1.931 0
M  V30 19081 C 1791.89 -1.50347 0.795601 0
M  V30 19082 O 1793.08 -1.63001 1.05566 0
M  V30 19083 C 1790.21 -2.66808 2.2233 0
M  V30 19084 C 1789.16 -2.62441 3.38096 0
M  V30 19085 C 1788.49 -4.01738 3.52861 0
M  V30 19086 C 1789.79 -2.19667 4.7386 0
M  V30 19087 H 1791.48 -1.00151 2.82153 0
M  V30 19088 H 1789.03 -0.480331 1.35753 0
M  V30 19089 H 1790.98 -3.41316 2.47146 0
M  V30 19090 H 1789.7 -2.99569 1.30101 0
M  V30 19091 H 1788.36 -1.90391 3.13284 0
M  V30 19092 H 1788.01 -4.31759 2.58056 0
M  V30 19093 H 1787.71 -3.99705 4.30708 0
M  V30 19094 H 1789.23 -4.7795 3.79995 0
M  V30 19095 H 1790.65 -2.83906 4.98067 0
M  V30 19096 H 1789.04 -2.28751 5.54791 0
M  V30 19097 H 1790.11 -1.14829 4.71108 0
M  V30 19098 N 1791.46 -1.48941 -0.515198 0
M  V30 19099 C 1792.42 -1.64062 -1.60051 0
M  V30 19100 C 1793.42 -0.513101 -1.52394 0
M  V30 19101 O 1794.61 -0.77924 -1.558 0
M  V30 19102 C 1791.74 -1.6247 -2.99694 0
M  V30 19103 H 1792.94 -2.60849 -1.47978 0
M  V30 19104 H 1790.49 -1.37759 -0.738378 0
M  V30 19105 H 1791.22 -0.672141 -3.17258 0
M  V30 19106 H 1791.01 -2.4434 -3.0666 0
M  V30 19107 H 1792.5 -1.76273 -3.78573 0
M  V30 19108 N 1792.94 0.765193 -1.37777 0
M  V30 19109 C 1794.35 1.06666 -1.1872 0
M  V30 19110 C 1794.55 2.01481 -0.0278636 0
M  V30 19111 O 1793.61 2.44514 0.630006 0
M  V30 19112 C 1794.92 1.65787 -2.50868 0
M  V30 19113 C 1796.47 1.78014 -2.57449 0
M  V30 19114 C 1796.94 2.40548 -3.89744 0
M  V30 19115 N 1798.43 2.47992 -3.91221 0
M  V30 19116 C 1799.17 2.97245 -4.9034 0
M  V30 19117 N 1798.67 3.46621 -5.99855 0
M  V30 19118 N 1800.46 2.96179 -4.77739 0
M  V30 19119 H 1792.61 0.135775 -2.11966 0
M  V30 19120 H 1794.87 0.122863 -0.940005 0
M  V30 19121 H 1794.58 1.03588 -3.36099 0
M  V30 19122 H 1794.45 2.65 -2.6843 0
M  V30 19123 H 1796.84 2.39345 -1.72621 0
M  V30 19124 H 1796.92 0.775388 -2.43765 0
M  V30 19125 H 1796.56 1.79855 -4.74989 0
M  V30 19126 H 1796.49 3.41643 -4.00734 0
M  V30 19127 H 1798.99 2.13056 -3.12114 0
M  V30 19128 H 1799.3 3.82625 -6.7143 0
M  V30 19129 H 1797.64 3.44709 -6.0349 0
M  V30 19130 H 1800.83 2.56909 -3.913 0
M  V30 19131 H 1801.01 3.34253 -5.55139 0
M  V30 19132 N 1794.41 1.22455 0.992094 0
M  V30 19133 C 1795.36 0.99534 2.08235 0
M  V30 19134 C 1796.33 -0.0832064 1.65891 0
M  V30 19135 O 1797.52 0.0665468 1.90684 0
M  V30 19136 C 1794.66 0.580055 3.4019 0
M  V30 19137 C 1793.77 1.72946 3.95871 0
M  V30 19138 C 1792.9 1.26208 5.15989 0
M  V30 19139 C 1791.94 2.38298 5.63809 0
M  V30 19140 N 1791.08 1.92602 6.75166 0
M  V30 19141 H 1795.92 1.92861 2.27175 0
M  V30 19142 H 1793.46 0.960948 1.11374 0
M  V30 19143 H 1795.41 0.320448 4.15968 0
M  V30 19144 H 1794.04 -0.316208 3.21248 0
M  V30 19145 H 1793.1 2.10337 3.16958 0
M  V30 19146 H 1794.41 2.57257 4.27341 0
M  V30 19147 H 1793.56 0.959904 5.99058 0
M  V30 19148 H 1792.3 0.389184 4.86145 0
M  V30 19149 H 1791.31 2.69304 4.79328 0
M  V30 19150 H 1792.53 3.26105 5.95678 0
M  V30 19151 H 1790.48 1.07675 6.47103 0
M  V30 19152 H 1790.39 2.70478 7.05959 0
M  V30 19153 H 1791.66 1.65455 7.61738 0
M  V30 19154 N 1795.89 -1.18905 1.03437 0
M  V30 19155 C 1797.14 -1.88055 0.729268 0
M  V30 19156 C 1797.45 -1.80833 -0.745564 0
M  V30 19157 O 1798.66 -2.45285 -1.16393 0
M  V30 19158 C 1797.12 -3.37341 1.25415 0
M  V30 19159 C 1796.72 -3.53107 2.75716 0
M  V30 19160 C 1798.47 -4.11932 1.02529 0
M  V30 19161 C 1796.37 -4.96317 3.21595 0
M  V30 19162 H 1795.3 -0.704345 0.269098 0
M  V30 19163 H 1797.96 -1.34397 1.24938 0
M  V30 19164 H 1796.34 -3.90429 0.661925 0
M  V30 19165 H 1797.51 -3.10322 3.40642 0
M  V30 19166 H 1795.83 -2.91913 2.96944 0
M  V30 19167 H 1798.42 -5.17552 1.34328 0
M  V30 19168 H 1798.77 -4.16283 -0.0377114 0
M  V30 19169 H 1799.3 -3.64998 1.5818 0
M  V30 19170 H 1796.04 -4.97131 4.27248 0
M  V30 19171 H 1795.56 -5.39842 2.61401 0
M  V30 19172 H 1797.24 -5.65 3.15253 0
M  V30 19173 N 1797.37 -0.812977 -1.35013 0
M  V30 19174 C 1798.33 -0.233373 -2.28009 0
M  V30 19175 C 1799.33 0.58298 -1.4986 0
M  V30 19176 O 1800.52 0.400533 -1.69533 0
M  V30 19177 C 1797.65 0.673931 -3.34172 0
M  V30 19178 H 1798.85 -1.05366 -2.80781 0
M  V30 19179 H 1796.4 -0.584097 -1.44976 0
M  V30 19180 H 1797.14 1.51766 -2.86597 0
M  V30 19181 H 1796.92 0.0901848 -3.91996 0
M  V30 19182 H 1798.41 1.07358 -4.03564 0
M  V30 19183 N 1798.85 1.47045 -0.567045 0
M  V30 19184 C 1799.76 2.33924 0.177998 0
M  V30 19185 C 1800.77 1.48797 0.901967 0
M  V30 19186 O 1801.95 1.81704 0.868662 0
M  V30 19187 C 1799.01 3.25687 1.18865 0
M  V30 19188 C 1798.08 4.26708 0.471049 0
M  V30 19189 C 1797.31 5.14087 1.43355 0
M  V30 19190 O 1797.53 5.041 2.66907 0
M  V30 19191 O 1796.47 5.94313 0.952674 0
M  V30 19192 H 1800.29 2.98952 -0.534907 0
M  V30 19193 H 1797.88 1.45765 -0.327571 0
M  V30 19194 H 1799.76 3.82342 1.7718 0
M  V30 19195 H 1798.43 2.63274 1.8833 0
M  V30 19196 H 1797.34 3.73785 -0.153539 0
M  V30 19197 H 1798.67 4.91862 -0.182337 0
M  V30 19198 N 1800.33 0.304 1.5464 0
M  V30 19199 C 1801.26 -0.604475 2.21085 0
M  V30 19200 C 1802.27 -1.0952 1.20454 0
M  V30 19201 O 1803.46 -1.01214 1.47031 0
M  V30 19202 C 1800.56 -1.8399 2.84607 0
M  V30 19203 C 1799.73 -1.49116 4.11197 0
M  V30 19204 C 1798.79 -2.58205 4.58494 0
M  V30 19205 O 1797.82 -2.23171 5.23625 0
M  V30 19206 N 1799.02 -3.88798 4.31065 0
M  V30 19207 H 1801.78 -0.035633 2.99679 0
M  V30 19208 H 1799.35 0.126332 1.61406 0
M  V30 19209 H 1801.34 -2.56322 3.13179 0
M  V30 19210 H 1799.91 -2.31706 2.09836 0
M  V30 19211 H 1799.13 -0.600347 3.89602 0
M  V30 19212 H 1800.42 -1.23358 4.93619 0
M  V30 19213 H 1799.81 -4.20068 3.78892 0
M  V30 19214 H 1798.37 -4.57419 4.6434 0
M  V30 19215 N 1801.8 -1.57568 0.0317802 0
M  V30 19216 C 1802.74 -2.07288 -0.977981 0
M  V30 19217 C 1803.75 -0.99682 -1.28714 0
M  V30 19218 O 1804.94 -1.27295 -1.25133 0
M  V30 19219 C 1802.04 -2.48469 -2.3047 0
M  V30 19220 C 1801.21 -3.79185 -2.18031 0
M  V30 19221 C 1800.27 -4.06888 -3.33659 0
M  V30 19222 O 1799.3 -4.771 -3.10426 0
M  V30 19223 N 1800.5 -3.57271 -4.57534 0
M  V30 19224 H 1803.26 -2.9454 -0.553743 0
M  V30 19225 H 1800.82 -1.61157 -0.154917 0
M  V30 19226 H 1802.82 -2.64092 -3.06655 0
M  V30 19227 H 1801.39 -1.66568 -2.64526 0
M  V30 19228 H 1800.61 -3.73333 -1.26556 0
M  V30 19229 H 1801.89 -4.64821 -2.06926 0
M  V30 19230 H 1801.29 -3.00474 -4.79303 0
M  V30 19231 H 1799.85 -3.78168 -5.30878 0
M  V30 19232 N 1803.28 0.241399 -1.5574 0
M  V30 19233 C 1804.7 0.590176 -1.48287 0
M  V30 19234 C 1804.9 1.8808 -0.723052 0
M  V30 19235 O 1803.95 2.51213 -0.25464 0
M  V30 19236 C 1805.27 0.687804 -2.92728 0
M  V30 19237 C 1806.82 0.779763 -3.03131 0
M  V30 19238 C 1807.29 0.908905 -4.48891 0
M  V30 19239 N 1808.78 0.973636 -4.52852 0
M  V30 19240 C 1809.52 1.09292 -5.62888 0
M  V30 19241 N 1809.01 1.1774 -6.82722 0
M  V30 19242 N 1810.81 1.12651 -5.50696 0
M  V30 19243 H 1802.96 -0.605781 -2.03578 0
M  V30 19244 H 1805.22 -0.209862 -0.924479 0
M  V30 19245 H 1804.93 -0.190608 -3.51183 0
M  V30 19246 H 1804.8 1.55794 -3.43523 0
M  V30 19247 H 1807.19 1.64863 -2.44754 0
M  V30 19248 H 1807.27 -0.115641 -2.55538 0
M  V30 19249 H 1806.91 0.0445788 -5.0788 0
M  V30 19250 H 1806.84 1.81943 -4.9417 0
M  V30 19251 H 1809.33 0.919469 -3.66544 0
M  V30 19252 H 1809.65 1.26764 -7.62332 0
M  V30 19253 H 1807.99 1.14688 -6.85472 0
M  V30 19254 H 1811.18 1.05703 -4.56009 0
M  V30 19255 H 1811.35 1.21602 -6.36488 0
M  V30 19256 N 1804.76 1.49212 0.507292 0
M  V30 19257 C 1806.18 1.35835 0.837908 0
M  V30 19258 C 1806.38 0.386634 1.97756 0
M  V30 19259 O 1805.43 -0.183971 2.51829 0
M  V30 19260 C 1806.75 2.76407 1.18404 0
M  V30 19261 C 1808.29 2.85062 1.29262 0
M  V30 19262 C 1808.77 4.26387 1.67208 0
M  V30 19263 N 1810.26 4.29168 1.74268 0
M  V30 19264 C 1810.99 5.35479 2.05061 0
M  V30 19265 N 1810.49 6.52042 2.34121 0
M  V30 19266 N 1812.28 5.2289 2.06259 0
M  V30 19267 H 1804.43 2.1099 -0.244311 0
M  V30 19268 H 1806.7 0.946849 -0.0466977 0
M  V30 19269 H 1806.4 3.49183 0.420053 0
M  V30 19270 H 1806.28 3.11376 2.12896 0
M  V30 19271 H 1808.66 2.12528 2.04734 0
M  V30 19272 H 1808.75 2.53684 0.328359 0
M  V30 19273 H 1808.39 4.99445 0.922884 0
M  V30 19274 H 1808.32 4.55225 2.64723 0
M  V30 19275 H 1810.81 3.45099 1.53996 0
M  V30 19276 H 1811.12 7.2889 2.56787 0
M  V30 19277 H 1809.47 6.55279 2.31591 0
M  V30 19278 H 1812.66 4.30834 1.83028 0
M  V30 19279 H 1812.83 6.05838 2.29923 0
M  V30 19280 N 1806.24 -0.757876 1.38181 0
M  V30 19281 C 1807.17 -1.88108 1.3095 0
M  V30 19282 C 1808.18 -1.61272 0.222551 0
M  V30 19283 O 1809.37 -1.71931 0.479782 0
M  V30 19284 C 1806.47 -3.2365 1.00518 0
M  V30 19285 C 1805.65 -3.78024 2.20037 0
M  V30 19286 C 1804.7 -4.92073 1.86416 0
M  V30 19287 O 1803.73 -5.0693 2.58864 0
M  V30 19288 N 1804.93 -5.74728 0.816553 0
M  V30 19289 H 1807.7 -1.94823 2.27737 0
M  V30 19290 H 1805.26 -0.937616 1.31986 0
M  V30 19291 H 1807.25 -3.97483 0.760861 0
M  V30 19292 H 1805.82 -3.12348 0.125418 0
M  V30 19293 H 1805.04 -2.95807 2.60561 0
M  V30 19294 H 1806.33 -4.11085 2.99811 0
M  V30 19295 H 1805.73 -5.65289 0.215659 0
M  V30 19296 H 1804.28 -6.48728 0.63211 0
M  V30 19297 N 1807.72 -1.22979 -0.985586 0
M  V30 19298 C 1808.63 -1.02294 -2.11124 0
M  V30 19299 C 1809.64 0.030991 -1.73972 0
M  V30 19300 O 1810.82 -0.163333 -2.00737 0
M  V30 19301 C 1807.88 -0.611102 -3.41272 0
M  V30 19302 C 1806.94 -1.73949 -3.9248 0
M  V30 19303 C 1806.18 -1.34721 -5.16417 0
M  V30 19304 O 1806.4 -0.229171 -5.69939 0
M  V30 19305 O 1805.33 -2.16639 -5.61561 0
M  V30 19306 H 1809.16 -1.9662 -2.31461 0
M  V30 19307 H 1806.75 -1.01639 -1.09499 0
M  V30 19308 H 1808.63 -0.392127 -4.19572 0
M  V30 19309 H 1807.3 0.303224 -3.22277 0
M  V30 19310 H 1806.21 -2.01305 -3.1532 0
M  V30 19311 H 1807.54 -2.63194 -4.1592 0
M  V30 19312 N 1809.19 1.18355 -1.04066 0
M  V30 19313 C 1810.14 2.21987 -0.631714 0
M  V30 19314 C 1811.11 1.62142 0.360462 0
M  V30 19315 O 1812.3 1.89096 0.254445 0
M  V30 19316 C 1809.44 3.451 -0.000843566 0
M  V30 19317 C 1808.55 4.19283 -1.04048 0
M  V30 19318 C 1807.68 5.29852 -0.37813 0
M  V30 19319 C 1806.72 5.95807 -1.40287 0
M  V30 19320 N 1805.86 6.97915 -0.765481 0
M  V30 19321 H 1810.7 2.56323 -1.51995 0
M  V30 19322 H 1808.24 1.25923 -0.760384 0
M  V30 19323 H 1810.2 4.15445 0.382267 0
M  V30 19324 H 1808.83 3.11383 0.850911 0
M  V30 19325 H 1807.88 3.47765 -1.54154 0
M  V30 19326 H 1809.19 4.64457 -1.81882 0
M  V30 19327 H 1808.34 6.06671 0.059186 0
M  V30 19328 H 1807.08 4.8578 0.432293 0
M  V30 19329 H 1806.09 5.17729 -1.85032 0
M  V30 19330 H 1807.31 6.41962 -2.21499 0
M  V30 19331 H 1805.26 6.55995 0.0246364 0
M  V30 19332 H 1805.18 7.41341 -1.48152 0
M  V30 19333 H 1806.44 7.78702 -0.35256 0
M  V30 19334 N 1810.67 0.820125 1.3458 0
M  V30 19335 C 1811.92 0.403287 1.97627 0
M  V30 19336 C 1812.23 -1.0385 1.65754 0
M  V30 19337 O 1813.44 -1.55911 2.2227 0
M  V30 19338 C 1811.9 0.670161 3.53606 0
M  V30 19339 C 1811.5 2.12538 3.94375 0
M  V30 19340 C 1813.25 0.31935 4.23297 0
M  V30 19341 C 1811.16 2.3373 5.43254 0
M  V30 19342 H 1810.09 0.147062 0.739519 0
M  V30 19343 H 1812.74 1.00609 1.53461 0
M  V30 19344 H 1811.12 -0.00276896 3.96 0
M  V30 19345 H 1812.29 2.83724 3.63094 0
M  V30 19346 H 1810.61 2.43736 3.37612 0
M  V30 19347 H 1813.2 0.45555 5.32756 0
M  V30 19348 H 1813.55 -0.735875 4.09745 0
M  V30 19349 H 1814.08 0.946743 3.8637 0
M  V30 19350 H 1810.82 3.37747 5.61789 0
M  V30 19351 H 1810.34 1.67084 5.76058 0
M  V30 19352 H 1812.02 2.1595 6.09897 0
M  V30 19353 N 1812.15 -1.46743 0.574835 0
M  V30 19354 C 1813.08 -2.2832 -0.20062 0
M  V30 19355 C 1814.1 -1.3805 -0.862898 0
M  V30 19356 O 1815.28 -1.6272 -0.733785 0
M  V30 19357 C 1812.38 -3.1285 -1.303 0
M  V30 19358 C 1811.56 -4.31195 -0.734153 0
M  V30 19359 C 1810.62 -4.97183 -1.72324 0
M  V30 19360 O 1809.64 -5.55025 -1.26239 0
M  V30 19361 N 1810.84 -4.93476 -3.05714 0
M  V30 19362 H 1813.61 -2.95513 0.499231 0
M  V30 19363 H 1811.17 -1.56568 0.412077 0
M  V30 19364 H 1813.16 -3.53861 -1.96378 0
M  V30 19365 H 1811.73 -2.47784 -1.90583 0
M  V30 19366 H 1810.95 -3.94063 0.103888 0
M  V30 19367 H 1812.24 -5.07704 -0.333751 0
M  V30 19368 H 1811.64 -4.47715 -3.45786 0
M  V30 19369 H 1810.2 -5.38453 -3.67304 0
M  V30 19370 N 1813.63 -0.312197 -1.54477 0
M  V30 19371 C 1814.59 0.54612 -2.22599 0
M  V30 19372 C 1815.59 1.05252 -1.21568 0
M  V30 19373 O 1816.78 0.946756 -1.46226 0
M  V30 19374 C 1813.91 1.75733 -2.92114 0
M  V30 19375 H 1815.11 -0.0492216 -2.9986 0
M  V30 19376 H 1812.66 -0.063149 -1.56172 0
M  V30 19377 H 1813.39 2.39221 -2.18961 0
M  V30 19378 H 1813.18 1.40175 -3.66188 0
M  V30 19379 H 1814.67 2.36685 -3.44049 0
M  V30 19380 N 1815.11 1.57549 -0.040136 0
M  V30 19381 C 1816.35 1.92535 0.637037 0
M  V30 19382 C 1816.69 0.917836 1.71141 0
M  V30 19383 O 1815.96 -0.057824 1.94414 0
M  V30 19384 C 1816.24 3.37955 1.24333 0
M  V30 19385 C 1816.1 4.49449 0.177761 0
M  V30 19386 C 1817.42 3.8355 2.15818 0
M  V30 19387 H 1814.53 0.700157 0.230107 0
M  V30 19388 H 1817.18 1.89739 -0.0996468 0
M  V30 19389 H 1815.33 3.40468 1.87119 0
M  V30 19390 H 1817 4.59065 -0.453507 0
M  V30 19391 H 1815.24 4.30961 -0.495486 0
M  V30 19392 H 1815.91 5.48256 0.641792 0
M  V30 19393 H 1818.39 3.82842 1.63006 0
M  V30 19394 H 1817.26 4.85974 2.55188 0
M  V30 19395 H 1817.53 3.19678 3.05382 0
M  V30 19396 N 1816.58 -0.233136 1.55866 0
M  V30 19397 C 1817.51 -1.29225 1.94482 0
M  V30 19398 C 1818.5 -1.49495 0.811503 0
M  V30 19399 O 1819.68 -1.61872 1.07289 0
M  V30 19400 C 1816.81 -2.64435 2.25147 0
M  V30 19401 C 1815.76 -2.5884 3.4086 0
M  V30 19402 C 1815.09 -3.97973 3.57102 0
M  V30 19403 C 1816.39 -2.14629 4.76164 0
M  V30 19404 H 1818.08 -0.971527 2.83199 0
M  V30 19405 H 1815.63 -0.465905 1.36255 0
M  V30 19406 H 1817.58 -3.38676 2.50752 0
M  V30 19407 H 1816.31 -2.98172 1.33271 0
M  V30 19408 H 1814.97 -1.87057 3.15286 0
M  V30 19409 H 1814.61 -4.28998 2.62621 0
M  V30 19410 H 1814.31 -3.95114 4.34924 0
M  V30 19411 H 1815.84 -4.73893 3.85043 0
M  V30 19412 H 1817.25 -2.78607 5.0105 0
M  V30 19413 H 1815.65 -2.22853 5.57186 0
M  V30 19414 H 1816.72 -1.09826 4.72299 0
M  V30 19415 N 1818.06 -1.49479 -0.499372 0
M  V30 19416 C 1818.97 -1.69006 -1.62709 0
M  V30 19417 C 1819.99 -0.572681 -1.64306 0
M  V30 19418 O 1821.17 -0.847586 -1.82696 0
M  V30 19419 C 1818.23 -1.75382 -2.99069 0
M  V30 19420 C 1817.29 -2.98968 -3.08086 0
M  V30 19421 C 1816.52 -3.0503 -4.37941 0
M  V30 19422 O 1816.75 -2.18641 -5.26832 0
M  V30 19423 O 1815.68 -3.97507 -4.51964 0
M  V30 19424 H 1819.51 -2.64544 -1.49164 0
M  V30 19425 H 1817.09 -1.3324 -0.675836 0
M  V30 19426 H 1818.97 -1.81919 -3.8011 0
M  V30 19427 H 1817.65 -0.830226 -3.12872 0
M  V30 19428 H 1816.56 -2.97947 -2.26227 0
M  V30 19429 H 1817.89 -3.90812 -2.9921 0
M  V30 19430 N 1819.54 0.750537 -1.38581 0
M  V30 19431 C 1820.82 1.50051 -1.25475 0
M  V30 19432 C 1821.2 2.10618 0.142521 0
M  V30 19433 O 1820.55 1.97317 1.15231 0
M  V30 19434 C 1820.76 2.56443 -2.36724 0
M  V30 19435 C 1822.1 3.23261 -2.75296 0
M  V30 19436 O 1823.13 2.66749 -2.36058 0
M  V30 19437 O 1821.99 4.25481 -3.4297 0
M  V30 19438 H 1819.08 0.665581 -0.490847 0
M  V30 19439 H 1821.63 0.785688 -1.50416 0
M  V30 19440 H 1820.4 2.09958 -3.30202 0
M  V30 19441 H 1820.02 3.35503 -2.13363 0
M  V30 19442 N 1821.02 1.235 0.979051 0
M  V30 19443 C 1821.97 0.984512 2.05649 0
M  V30 19444 C 1822.95 -0.0699833 1.60748 0
M  V30 19445 O 1824.15 0.142316 1.76427 0
M  V30 19446 C 1821.27 0.579082 3.38381 0
M  V30 19447 C 1820.36 1.66905 3.89876 0
M  V30 19448 N 1820.75 2.8996 4.14436 0
M  V30 19449 C 1819.05 1.54394 4.18424 0
M  V30 19450 C 1819.75 3.60539 4.56493 0
M  V30 19451 N 1818.73 2.88058 4.61003 0
M  V30 19452 H 1822.53 1.91906 2.22597 0
M  V30 19453 H 1820.04 1.13459 1.16193 0
M  V30 19454 H 1822.04 0.380896 4.15156 0
M  V30 19455 H 1820.7 -0.348408 3.22825 0
M  V30 19456 H 1821.71 3.26252 4.02219 0
M  V30 19457 H 1818.39 0.683659 4.11864 0
M  V30 19458 H 1819.78 4.66038 4.84002 0
M  V30 19459 N 1822.5 -1.17802 1.04693 0
M  V30 19460 C 1823.72 -1.92408 0.774194 0
M  V30 19461 C 1824.15 -1.76012 -0.663424 0
M  V30 19462 O 1823.51 -1.07447 -1.4603 0
M  V30 19463 C 1823.55 -3.4166 1.1533 0
M  V30 19464 O 1822.66 -4.11431 0.282469 0
M  V30 19465 H 1822 -0.600033 0.284353 0
M  V30 19466 H 1824.53 -1.49348 1.39844 0
M  V30 19467 H 1824.54 -3.92386 1.11791 0
M  V30 19468 H 1823.21 -3.52914 2.20056 0
M  V30 19469 H 1821.79 -3.70979 0.378021 0
M  V30 19470 N 1823.98 -0.827251 -1.34143 0
M  V30 19471 C 1824.91 -0.209663 -2.28239 0
M  V30 19472 C 1825.92 0.602945 -1.51223 0
M  V30 19473 O 1827.11 0.431917 -1.73196 0
M  V30 19474 C 1824.21 0.724345 -3.31069 0
M  V30 19475 C 1823.38 -0.0463812 -4.37375 0
M  V30 19476 C 1822.44 0.809208 -5.19941 0
M  V30 19477 O 1821.47 0.252619 -5.68639 0
M  V30 19478 N 1822.67 2.12835 -5.40075 0
M  V30 19479 H 1825.43 -1.0181 -2.81877 0
M  V30 19480 H 1823 -0.684618 -1.46713 0
M  V30 19481 H 1824.99 1.30143 -3.83204 0
M  V30 19482 H 1823.56 1.43352 -2.77793 0
M  V30 19483 H 1822.78 -0.804793 -3.85897 0
M  V30 19484 H 1824.07 -0.576775 -5.0552 0
M  V30 19485 H 1823.46 2.60423 -5.02191 0
M  V30 19486 H 1822.02 2.65419 -5.95312 0
M  V30 19487 N 1825.45 1.46436 -0.582609 0
M  V30 19488 C 1826.39 2.2733 0.199056 0
M  V30 19489 C 1827.36 1.35621 0.896981 0
M  V30 19490 O 1828.55 1.65031 0.910887 0
M  V30 19491 C 1825.68 3.13352 1.28563 0
M  V30 19492 C 1824.72 4.20823 0.69355 0
M  V30 19493 S 1825.55 5.33349 -0.479488 0
M  V30 19494 C 1826.71 6.22937 0.608287 0
M  V30 19495 H 1826.94 2.93279 -0.487326 0
M  V30 19496 H 1824.48 1.49913 -0.369502 0
M  V30 19497 H 1826.43 3.63476 1.90775 0
M  V30 19498 H 1825.1 2.46716 1.94396 0
M  V30 19499 H 1824.29 4.80839 1.5103 0
M  V30 19500 H 1823.89 3.73711 0.147092 0
M  V30 19501 H 1826.18 6.60823 1.49397 0
M  V30 19502 H 1827.13 7.08086 0.0448907 0
M  V30 19503 H 1827.53 5.57078 0.912387 0
M  V30 19504 N 1826.93 0.320385 1.54309 0
M  V30 19505 C 1828.35 -0.0323699 1.59567 0
M  V30 19506 C 1828.55 -1.50754 1.33699 0
M  V30 19507 O 1827.6 -2.26308 1.11987 0
M  V30 19508 C 1828.92 0.383001 2.98251 0
M  V30 19509 C 1830.46 0.33339 3.11219 0
M  V30 19510 C 1830.94 0.723874 4.52243 0
M  V30 19511 N 1832.43 0.677156 4.58224 0
M  V30 19512 C 1833.17 0.951531 5.6545 0
M  V30 19513 N 1832.66 1.29288 6.8063 0
M  V30 19514 N 1834.45 0.877303 5.55211 0
M  V30 19515 H 1826.61 1.28155 1.69381 0
M  V30 19516 H 1828.87 0.520887 0.792074 0
M  V30 19517 H 1828.57 1.41067 3.22169 0
M  V30 19518 H 1828.45 -0.253601 3.76347 0
M  V30 19519 H 1830.84 -0.685063 2.87038 0
M  V30 19520 H 1830.92 1.00488 2.35236 0
M  V30 19521 H 1830.56 1.74023 4.77157 0
M  V30 19522 H 1830.49 0.0301039 5.26591 0
M  V30 19523 H 1832.98 0.425055 3.75502 0
M  V30 19524 H 1833.29 1.4877 7.58345 0
M  V30 19525 H 1831.64 1.33111 6.82134 0
M  V30 19526 H 1834.83 0.610144 4.64107 0
M  V30 19527 H 1835 1.09449 6.3869 0
M  V30 19528 N 1828.41 -1.57525 0.0484906 0
M  V30 19529 C 1829.34 -2.08313 -0.955941 0
M  V30 19530 C 1830.35 -1.01042 -1.2765 0
M  V30 19531 O 1831.54 -1.28615 -1.23776 0
M  V30 19532 C 1828.64 -2.509 -2.27821 0
M  V30 19533 C 1827.82 -3.81476 -2.13997 0
M  V30 19534 C 1826.88 -4.10404 -3.29325 0
M  V30 19535 O 1825.9 -4.80366 -3.05348 0
M  V30 19536 N 1827.1 -3.62104 -4.53719 0
M  V30 19537 H 1829.87 -2.95111 -0.522472 0
M  V30 19538 H 1827.43 -1.61312 -0.137816 0
M  V30 19539 H 1829.42 -2.6733 -3.03837 0
M  V30 19540 H 1827.99 -1.69365 -2.62744 0
M  V30 19541 H 1827.21 -3.74654 -1.22589 0
M  V30 19542 H 1828.5 -4.6699 -2.01985 0
M  V30 19543 H 1827.9 -3.05541 -4.7609 0
M  V30 19544 H 1826.45 -3.83778 -5.26838 0
M  V30 19545 N 1829.89 0.224867 -1.55988 0
M  V30 19546 C 1830.82 1.30573 -1.87152 0
M  V30 19547 C 1831.8 1.45363 -0.728591 0
M  V30 19548 O 1832.98 1.61228 -0.976615 0
M  V30 19549 C 1830.11 2.67648 -2.07563 0
M  V30 19550 C 1829.16 2.69891 -3.30244 0
M  V30 19551 S 1829.99 2.2429 -4.86265 0
M  V30 19552 C 1831.14 3.63247 -5.09708 0
M  V30 19553 H 1831.38 1.03943 -2.78537 0
M  V30 19554 H 1828.91 0.426946 -1.4838 0
M  V30 19555 H 1830.87 3.46566 -2.20005 0
M  V30 19556 H 1829.53 2.91504 -1.1698 0
M  V30 19557 H 1828.72 3.70612 -3.41559 0
M  V30 19558 H 1828.32 1.99034 -3.16641 0
M  V30 19559 H 1830.62 4.58913 -4.98403 0
M  V30 19560 H 1831.56 3.5685 -6.11608 0
M  V30 19561 H 1831.97 3.56781 -4.37456 0
M  V30 19562 N 1831.37 1.49742 0.491438 0
M  V30 19563 C 1832.28 1.69866 1.6181 0
M  V30 19564 C 1833.29 0.581386 1.64 0
M  V30 19565 O 1834.47 0.857263 1.82244 0
M  V30 19566 C 1831.53 1.76965 2.98135 0
M  V30 19567 C 1830.59 3.00597 3.06496 0
M  V30 19568 C 1829.83 3.07348 4.36317 0
M  V30 19569 O 1830.05 2.21432 5.25665 0
M  V30 19570 O 1828.98 3.99898 4.4985 0
M  V30 19571 H 1832.81 2.65332 1.47759 0
M  V30 19572 H 1830.39 1.33596 0.668761 0
M  V30 19573 H 1832.28 1.83932 3.7914 0
M  V30 19574 H 1830.95 0.846807 3.12427 0
M  V30 19575 H 1829.86 2.99142 2.24643 0
M  V30 19576 H 1831.19 3.92393 2.97133 0
M  V30 19577 N 1832.84 -0.743177 1.38977 0
M  V30 19578 C 1833.77 -1.87047 1.3977 0
M  V30 19579 C 1834.76 -1.68068 0.262161 0
M  V30 19580 O 1835.94 -1.88507 0.466782 0
M  V30 19581 C 1833.07 -3.24701 1.23234 0
M  V30 19582 C 1832.02 -3.58302 2.34102 0
M  V30 19583 C 1831.35 -4.94805 2.02663 0
M  V30 19584 C 1832.65 -3.62111 3.76395 0
M  V30 19585 H 1834.34 -1.8664 2.34107 0
M  V30 19586 H 1831.89 -0.896541 1.12686 0
M  V30 19587 H 1833.84 -4.03228 1.22412 0
M  V30 19588 H 1832.57 -3.25614 0.253638 0
M  V30 19589 H 1831.23 -2.82099 2.34128 0
M  V30 19590 H 1830.87 -4.92289 1.0325 0
M  V30 19591 H 1830.57 -5.18254 2.76922 0
M  V30 19592 H 1832.1 -5.75699 2.03477 0
M  V30 19593 H 1833.51 -4.30731 3.78343 0
M  V30 19594 H 1831.91 -3.97075 4.49946 0
M  V30 19595 H 1832.98 -2.62099 4.07961 0
M  V30 19596 N 1834.32 -1.24018 -0.972487 0
M  V30 19597 C 1835.23 -1.04527 -2.10027 0
M  V30 19598 C 1836.25 0.0125372 -1.73995 0
M  V30 19599 O 1837.42 -0.184615 -2.00552 0
M  V30 19600 C 1834.49 -0.647264 -3.40604 0
M  V30 19601 C 1833.55 -1.78102 -3.90613 0
M  V30 19602 C 1832.78 -1.4019 -5.14959 0
M  V30 19603 O 1833.01 -0.289608 -5.69664 0
M  V30 19604 O 1831.94 -2.22583 -5.59232 0
M  V30 19605 H 1835.77 -1.99064 -2.29363 0
M  V30 19606 H 1833.35 -1.02794 -1.08414 0
M  V30 19607 H 1835.23 -0.436606 -4.19132 0
M  V30 19608 H 1833.91 0.269025 -3.2258 0
M  V30 19609 H 1832.82 -2.04638 -3.13168 0
M  V30 19610 H 1834.15 -2.67591 -4.13105 0
M  V30 19611 N 1835.8 1.17245 -1.05316 0
M  V30 19612 C 1837.05 1.86871 -0.759093 0
M  V30 19613 C 1837.36 1.81997 0.7167 0
M  V30 19614 O 1838.57 2.47106 1.12476 0
M  V30 19615 C 1837.02 3.35303 -1.30766 0
M  V30 19616 C 1836.63 3.48676 -2.81299 0
M  V30 19617 C 1838.38 4.10249 -1.0907 0
M  V30 19618 C 1836.28 4.91138 -3.2945 0
M  V30 19619 H 1835.21 0.699975 -0.28027 0
M  V30 19620 H 1837.86 1.32393 -1.27061 0
M  V30 19621 H 1836.25 3.89326 -0.723955 0
M  V30 19622 H 1837.42 3.04864 -3.45536 0
M  V30 19623 H 1835.74 2.87152 -3.0155 0
M  V30 19624 H 1838.33 5.1535 -1.42545 0
M  V30 19625 H 1838.68 4.1629 -0.0285204 0
M  V30 19626 H 1839.21 3.62436 -1.63967 0
M  V30 19627 H 1835.95 4.90271 -4.35103 0
M  V30 19628 H 1835.47 5.35615 -2.69956 0
M  V30 19629 H 1837.15 5.59913 -3.24201 0
M  V30 19630 N 1837.28 0.834353 1.33702 0
M  V30 19631 C 1838.69 0.52156 1.50837 0
M  V30 19632 C 1838.89 -0.95203 1.77591 0
M  V30 19633 O 1837.95 -1.73603 1.83353 0
M  V30 19634 C 1839.26 1.39099 2.66593 0
M  V30 19635 C 1840.81 1.3893 2.80477 0
M  V30 19636 C 1841.29 2.24347 3.9929 0
M  V30 19637 N 1842.78 2.22032 4.06517 0
M  V30 19638 C 1843.51 2.84865 4.97634 0
M  V30 19639 N 1843.01 3.56732 5.93897 0
M  V30 19640 N 1844.8 2.74359 4.90595 0
M  V30 19641 H 1836.95 1.78832 1.14598 0
M  V30 19642 H 1839.22 0.762708 0.563011 0
M  V30 19643 H 1838.92 2.43795 2.53489 0
M  V30 19644 H 1838.8 1.06381 3.61888 0
M  V30 19645 H 1841.18 0.350069 2.93016 0
M  V30 19646 H 1841.26 1.75652 1.85957 0
M  V30 19647 H 1840.91 3.28326 3.8751 0
M  V30 19648 H 1840.84 1.84969 4.93046 0
M  V30 19649 H 1843.33 1.69765 3.37621 0
M  V30 19650 H 1843.64 4.01893 6.60077 0
M  V30 19651 H 1841.99 3.6084 5.93986 0
M  V30 19652 H 1845.18 2.17779 4.14355 0
M  V30 19653 H 1845.35 3.23612 5.61408 0
M  V30 19654 N 1838.76 -1.46125 0.590367 0
M  V30 19655 C 1840.17 -1.85962 0.165876 0
M  V30 19656 C 1840.52 -1.49296 -1.27299 0
M  V30 19657 O 1839.64 -0.911461 -1.96269 0
M  V30 19658 C 1840.24 -3.3752 0.294262 0
M  V30 19659 C 1838.8 -3.76324 -0.0754118 0
M  V30 19660 C 1837.94 -2.70126 0.626682 0
M  V30 19661 H 1840.9 -1.3717 0.79812 0
M  V30 19662 H 1840.92 -3.77482 -0.4783 0
M  V30 19663 H 1840.43 -3.64175 1.34159 0
M  V30 19664 H 1838.53 -3.55287 -1.12258 0
M  V30 19665 H 1838.64 -4.7812 0.306241 0
M  V30 19666 H 1837.01 -2.54614 0.0661219 0
M  V30 19667 H 1837.79 -2.99619 1.6758 0
M  V30 19668 N 1840.23 -0.328564 -1.54137 0
M  V30 19669 C 1841.16 0.527734 -2.27458 0
M  V30 19670 C 1842.15 1.11518 -1.28444 0
M  V30 19671 O 1843.33 1.13938 -1.57264 0
M  V30 19672 C 1840.46 1.68628 -3.03615 0
M  V30 19673 C 1839.41 1.22789 -4.10008 0
M  V30 19674 C 1838.74 2.47378 -4.74034 0
M  V30 19675 C 1840.04 0.339152 -5.21198 0
M  V30 19676 H 1841.73 -0.0838808 -2.99282 0
M  V30 19677 H 1839.28 -0.0417829 -1.43939 0
M  V30 19678 H 1841.23 2.29165 -3.5364 0
M  V30 19679 H 1839.96 2.32456 -2.29416 0
M  V30 19680 H 1838.62 0.645427 -3.60874 0
M  V30 19681 H 1838.26 3.09581 -3.96445 0
M  V30 19682 H 1837.96 2.17396 -5.45905 0
M  V30 19683 H 1839.49 3.08668 -5.26836 0
M  V30 19684 H 1840.9 0.850947 -5.6695 0
M  V30 19685 H 1839.3 0.131892 -5.99955 0
M  V30 19686 H 1840.37 -0.628692 -4.80807 0
M  V30 19687 N 1841.71 1.57497 -0.0568439 0
M  V30 19688 C 1842.96 1.92914 0.615668 0
M  V30 19689 C 1843.29 0.935677 1.70515 0
M  V30 19690 O 1842.54 -0.0511255 1.95633 0
M  V30 19691 C 1842.84 3.35 1.24538 0
M  V30 19692 C 1842.51 4.50008 0.283536 0
M  V30 19693 C 1841.17 4.81196 0.0188809 0
M  V30 19694 C 1843.52 5.19847 -0.375336 0
M  V30 19695 C 1840.85 5.79569 -0.911986 0
M  V30 19696 C 1843.2 6.19215 -1.29443 0
M  V30 19697 C 1841.87 6.48829 -1.5677 0
M  V30 19698 H 1841.14 0.705922 0.225289 0
M  V30 19699 H 1843.78 1.91095 -0.124533 0
M  V30 19700 H 1842.09 3.33213 2.06098 0
M  V30 19701 H 1843.78 3.59686 1.77277 0
M  V30 19702 H 1840.37 4.25674 0.499994 0
M  V30 19703 H 1844.56 4.95959 -0.183967 0
M  V30 19704 H 1839.81 6.00846 -1.13112 0
M  V30 19705 H 1843.99 6.7244 -1.811 0
M  V30 19706 H 1841.62 7.24868 -2.29063 0
M  V30 19707 N 1843.19 -0.216591 1.56105 0
M  V30 19708 C 1844.12 -1.27155 1.95841 0
M  V30 19709 C 1845.1 -1.48626 0.827313 0
M  V30 19710 O 1846.29 -1.60725 1.09 0
M  V30 19711 C 1843.42 -2.62032 2.27939 0
M  V30 19712 C 1842.37 -2.55211 3.43586 0
M  V30 19713 C 1841.7 -3.94163 3.61303 0
M  V30 19714 C 1843 -2.09566 4.78413 0
M  V30 19715 H 1844.69 -0.941435 2.84214 0
M  V30 19716 H 1842.24 -0.451427 1.36741 0
M  V30 19717 H 1844.19 -3.35997 2.5433 0
M  V30 19718 H 1842.91 -2.96742 1.36426 0
M  V30 19719 H 1841.57 -1.83703 3.17252 0
M  V30 19720 H 1841.22 -4.26188 2.67156 0
M  V30 19721 H 1840.92 -3.90479 4.3909 0
M  V30 19722 H 1842.44 -4.69782 3.90047 0
M  V30 19723 H 1843.86 -2.73277 5.03977 0
M  V30 19724 H 1842.26 -2.16931 5.59518 0
M  V30 19725 H 1843.33 -1.0481 4.73437 0
M  V30 19726 N 1844.67 -1.5 -0.48349 0
M  V30 19727 C 1845.91 -1.60606 -1.23829 0
M  V30 19728 C 1846.25 -0.299778 -1.91872 0
M  V30 19729 O 1845.52 0.697925 -1.81547 0
M  V30 19730 C 1845.81 -2.77769 -2.29165 0
M  V30 19731 C 1845.66 -4.18243 -1.65507 0
M  V30 19732 C 1846.98 -2.90521 -3.30584 0
M  V30 19733 H 1844.1 -0.584561 -0.44884 0
M  V30 19734 H 1846.74 -1.82346 -0.533855 0
M  V30 19735 H 1844.89 -2.59364 -2.89245 0
M  V30 19736 H 1846.56 -4.48208 -1.09119 0
M  V30 19737 H 1844.8 -4.23077 -0.958577 0
M  V30 19738 H 1845.47 -4.96128 -2.41994 0
M  V30 19739 H 1847.95 -3.0733 -2.80513 0
M  V30 19740 H 1846.83 -3.74146 -4.0163 0
M  V30 19741 H 1847.09 -2.00609 -3.93965 0
M  V30 19742 N 1846.15 0.735796 -1.39369 0
M  V30 19743 C 1847.56 1.31402 -1.32628 0
M  V30 19744 C 1847.91 1.96198 0.00972836 0
M  V30 19745 O 1847.03 1.9625 0.91185 0
M  V30 19746 C 1847.63 2.38934 -2.402 0
M  V30 19747 C 1846.19 2.92432 -2.36982 0
M  V30 19748 C 1845.33 1.65992 -2.2213 0
M  V30 19749 H 1848.29 0.533364 -1.49469 0
M  V30 19750 H 1848.31 3.19304 -2.06942 0
M  V30 19751 H 1847.82 1.91745 -3.37425 0
M  V30 19752 H 1845.92 3.43903 -1.43394 0
M  V30 19753 H 1846.03 3.456 -3.31809 0
M  V30 19754 H 1844.4 1.90298 -1.69289 0
M  V30 19755 H 1845.18 1.20857 -3.21323 0
M  V30 19756 N 1847.63 1.24532 0.965897 0
M  V30 19757 C 1848.9 0.994047 1.68458 0
M  V30 19758 C 1849.28 -0.483115 2.05497 0
M  V30 19759 O 1848.63 -1.45784 1.75953 0
M  V30 19760 C 1848.84 1.91872 2.91524 0
M  V30 19761 C 1850.19 2.19066 3.63724 0
M  V30 19762 O 1851.21 1.8954 3.01584 0
M  V30 19763 O 1850.07 2.69217 4.75589 0
M  V30 19764 H 1847.17 0.376083 0.73654 0
M  V30 19765 H 1849.71 1.35638 1.01982 0
M  V30 19766 H 1848.48 2.91665 2.60858 0
M  V30 19767 H 1848.11 1.55966 3.65732 0
M  V30 19768 N 1849.1 -1.16685 1.05936 0
M  V30 19769 C 1850.33 -1.91035 0.794553 0
M  V30 19770 C 1850.75 -1.77234 -0.650663 0
M  V30 19771 O 1850.1 -1.11454 -1.44514 0
M  V30 19772 C 1850.15 -3.41859 1.17536 0
M  V30 19773 O 1849.88 -3.55243 2.56386 0
M  V30 19774 C 1851.38 -4.33267 0.937774 0
M  V30 19775 H 1848.6 -0.605896 0.288325 0
M  V30 19776 H 1851.14 -1.47925 1.41203 0
M  V30 19777 H 1849.3 -3.82686 0.602486 0
M  V30 19778 H 1849.71 -4.48744 2.71531 0
M  V30 19779 H 1851.18 -5.3757 1.25389 0
M  V30 19780 H 1851.66 -4.39017 -0.126673 0
M  V30 19781 H 1852.27 -3.98163 1.49486 0
M  V30 19782 N 1850.58 -0.841432 -1.33258 0
M  V30 19783 C 1851.53 -0.265077 -2.31085 0
M  V30 19784 C 1852.52 0.604339 -1.58253 0
M  V30 19785 O 1853.73 0.493615 -1.731 0
M  V30 19786 H 1850.1 -0.0669974 -0.74901 0
M  V30 19787 H 1852.08 -1.10464 -2.77201 0
M  V30 19788 C 1850.82 0.542926 -3.43435 0
M  V30 19789 H 1850.15 -0.116767 -3.99629 0
M  V30 19790 H 1851.59 0.912004 -4.14075 0
M  V30 19791 C 1850.05 1.72284 -2.89517 0
M  V30 19792 O 1850.58 2.82161 -2.85916 0
M  V30 19793 N 1848.78 1.54557 -2.4609 0
M  V30 19794 H 1848.33 0.651752 -2.49219 0
M  V30 19795 H 1848.29 2.33651 -2.10367 0
M  V30 19796 N 1852.06 1.4581 -0.598108 0
M  V30 19797 C 1853.31 2.01902 -0.0894342 0
M  V30 19798 C 1853.63 1.47021 1.281 0
M  V30 19799 O 1852.9 0.6608 1.84419 0
M  V30 19800 H 1851.48 0.746394 -0.0300712 0
M  V30 19801 H 1854.14 1.78726 -0.777367 0
M  V30 19802 H 1853.24 3.12084 -0.0320424 0
M  V30 19803 N 1853.54 0.336733 1.53961 0
M  V30 19804 C 1854.78 -0.26186 2.008 0
M  V30 19805 C 1855.11 -1.51101 1.22469 0
M  V30 19806 O 1854.37 -1.9341 0.298485 0
M  V30 19807 C 1854.67 -0.628163 3.51836 0
M  V30 19808 C 1854.33 0.523319 4.47853 0
M  V30 19809 C 1852.99 0.83934 4.73823 0
M  V30 19810 C 1855.35 1.29615 5.04826 0
M  V30 19811 C 1852.67 1.93068 5.54023 0
M  V30 19812 C 1855.03 2.37768 5.86216 0
M  V30 19813 C 1853.69 2.69937 6.10483 0
M  V30 19814 H 1852.96 -0.0958214 0.734778 0
M  V30 19815 H 1855.61 0.463238 1.85813 0
M  V30 19816 H 1853.91 -1.43388 3.64619 0
M  V30 19817 H 1855.61 -1.10309 3.8553 0
M  V30 19818 H 1852.2 0.266944 4.27768 0
M  V30 19819 H 1856.38 1.06526 4.84733 0
M  V30 19820 H 1851.64 2.18423 5.71053 0
M  V30 19821 H 1855.81 2.98087 6.29378 0
M  V30 19822 H 1853.44 3.54629 6.72415 0
M  V30 19823 N 1855.02 -1.57465 0.0651956 0
M  V30 19824 C 1856.26 -1.92414 -0.604961 0
M  V30 19825 C 1856.58 -0.946628 -1.71167 0
M  V30 19826 O 1857.78 -1.18869 -2.44095 0
M  V30 19827 C 1856.24 -3.41786 -1.12741 0
M  V30 19828 C 1855.85 -4.4797 -0.0520584 0
M  V30 19829 C 1857.59 -3.85746 -1.77201 0
M  V30 19830 C 1855.5 -5.88468 -0.588181 0
M  V30 19831 H 1854.43 -0.718147 -0.229742 0
M  V30 19832 H 1857.08 -1.82993 0.136361 0
M  V30 19833 H 1855.46 -3.46258 -1.92149 0
M  V30 19834 H 1856.64 -4.55105 0.722215 0
M  V30 19835 H 1854.95 -4.13436 0.495917 0
M  V30 19836 H 1857.55 -4.88093 -2.18332 0
M  V30 19837 H 1857.89 -3.22754 -2.62937 0
M  V30 19838 H 1858.42 -3.83849 -1.04426 0
M  V30 19839 H 1855.16 -6.5509 0.231865 0
M  V30 19840 H 1854.68 -5.84866 -1.33012 0
M  V30 19841 H 1856.36 -6.38147 -1.06667 0
M  V30 19842 N 1856.49 0.20831 -1.56217 0
M  V30 19843 C 1857.77 0.955838 -1.70655 0
M  V30 19844 C 1858.15 2.01905 -0.61624 0
M  V30 19845 O 1857.5 2.25405 0.374793 0
M  V30 19846 C 1857.71 1.55427 -3.1248 0
M  V30 19847 C 1859.06 2.04147 -3.72303 0
M  V30 19848 O 1860.08 1.65295 -3.15525 0
M  V30 19849 O 1858.94 2.75597 -4.7192 0
M  V30 19850 H 1856.03 0.447364 -0.695553 0
M  V30 19851 H 1858.58 0.199047 -1.68529 0
M  V30 19852 H 1857.35 0.787224 -3.83299 0
M  V30 19853 H 1856.97 2.37625 -3.18779 0
M  V30 19854 N 1857.97 1.50255 0.475528 0
M  V30 19855 C 1858.92 1.65183 1.57158 0
M  V30 19856 C 1859.91 0.506578 1.52717 0
M  V30 19857 O 1861.1 0.760774 1.59816 0
M  V30 19858 C 1858.23 1.74523 2.95629 0
M  V30 19859 C 1857.31 2.94709 3.04971 0
M  V30 19860 N 1857.7 4.1845 2.84137 0
M  V30 19861 C 1856 2.93175 3.36102 0
M  V30 19862 C 1856.7 4.99375 2.98328 0
M  V30 19863 N 1855.68 4.33242 3.28333 0
M  V30 19864 H 1859.48 2.58552 1.39743 0
M  V30 19865 H 1856.99 1.47378 0.682172 0
M  V30 19866 H 1858.99 1.8332 3.74432 0
M  V30 19867 H 1857.65 0.823089 3.14094 0
M  V30 19868 H 1858.66 4.48019 2.59806 0
M  V30 19869 H 1855.34 2.10443 3.60583 0
M  V30 19870 H 1856.73 6.07757 2.86497 0
M  V30 19871 N 1859.45 -0.728395 1.39758 0
M  V30 19872 C 1860.38 -1.85554 1.41747 0
M  V30 19873 C 1861.36 -1.6778 0.279972 0
M  V30 19874 O 1862.55 -1.88001 0.48675 0
M  V30 19875 C 1859.68 -3.23375 1.26671 0
M  V30 19876 C 1858.63 -3.55799 2.37889 0
M  V30 19877 C 1857.96 -4.92628 2.07899 0
M  V30 19878 C 1859.26 -3.58098 3.80215 0
M  V30 19879 H 1860.95 -1.84146 2.36073 0
M  V30 19880 H 1858.5 -0.884539 1.13631 0
M  V30 19881 H 1860.45 -4.01907 1.26682 0
M  V30 19882 H 1859.17 -3.25326 0.288159 0
M  V30 19883 H 1857.83 -2.796 2.37107 0
M  V30 19884 H 1857.48 -4.91166 1.08466 0
M  V30 19885 H 1857.18 -5.15288 2.82404 0
M  V30 19886 H 1858.7 -5.73509 2.09571 0
M  V30 19887 H 1860.12 -4.26694 3.82891 0
M  V30 19888 H 1858.51 -3.9228 4.54133 0
M  V30 19889 H 1859.58 -2.57758 4.10718 0
M  V30 19890 N 1860.93 -1.25042 -0.959279 0
M  V30 19891 C 1861.89 -1.05107 -2.03679 0
M  V30 19892 C 1862.89 -0.0054691 -1.60799 0
M  V30 19893 O 1864.08 -0.247225 -1.72437 0
M  V30 19894 C 1861.21 -0.594881 -3.35669 0
M  V30 19895 H 1862.41 -2.00753 -2.22796 0
M  V30 19896 H 1859.96 -1.07384 -1.13571 0
M  V30 19897 H 1860.69 0.364387 -3.22246 0
M  V30 19898 H 1860.48 -1.34966 -3.68139 0
M  V30 19899 H 1861.97 -0.476698 -4.1487 0
M  V30 19900 N 1862.41 1.16121 -1.06553 0
M  V30 19901 C 1863.63 1.91152 -0.804706 0
M  V30 19902 C 1864.06 1.77045 0.635338 0
M  V30 19903 O 1863.41 1.09757 1.44302 0
M  V30 19904 C 1863.46 3.39782 -1.20751 0
M  V30 19905 O 1862.57 4.1093 -0.347889 0
M  V30 19906 H 1861.91 0.595433 -0.293863 0
M  V30 19907 H 1864.44 1.47104 -1.42203 0
M  V30 19908 H 1864.45 3.90558 -1.1802 0
M  V30 19909 H 1863.12 3.49369 -2.25642 0
M  V30 19910 H 1861.7 3.70331 -0.436993 0
M  V30 19911 N 1863.88 0.848487 1.3281 0
M  V30 19912 C 1864.81 0.303885 2.31514 0
M  V30 19913 C 1865.8 -0.593621 1.59406 0
M  V30 19914 O 1866.98 -0.515158 1.87243 0
M  V30 19915 C 1864.11 -0.5138 3.43478 0
M  V30 19916 C 1863.06 0.28874 4.27025 0
M  V30 19917 C 1862.39 -0.653297 5.30694 0
M  V30 19918 C 1863.69 1.51111 4.99963 0
M  V30 19919 H 1865.38 1.12862 2.77313 0
M  V30 19920 H 1862.93 0.544158 1.33323 0
M  V30 19921 H 1864.88 -0.905164 4.11564 0
M  V30 19922 H 1863.61 -1.37184 2.96392 0
M  V30 19923 H 1862.27 0.661782 3.60577 0
M  V30 19924 H 1861.91 -1.50801 4.79863 0
M  V30 19925 H 1861.61 -0.120368 5.87477 0
M  V30 19926 H 1863.14 -1.04197 6.01644 0
M  V30 19927 H 1864.55 1.19237 5.60763 0
M  V30 19928 H 1862.95 1.98152 5.66441 0
M  V30 19929 H 1864.02 2.2757 4.28182 0
M  V30 19930 N 1865.36 -1.4549 0.605832 0
M  V30 19931 C 1866.33 -2.28964 -0.104089 0
M  V30 19932 C 1867.33 -1.39671 -0.796791 0
M  V30 19933 O 1868.52 -1.6181 -0.645221 0
M  V30 19934 C 1865.65 -3.20647 -1.1575 0
M  V30 19935 H 1866.84 -2.93213 0.629776 0
M  V30 19936 H 1864.39 -1.51983 0.3648 0
M  V30 19937 H 1865.13 -2.61194 -1.92219 0
M  V30 19938 H 1864.91 -3.86419 -0.665025 0
M  V30 19939 H 1866.4 -3.83416 -1.65474 0
M  V30 19940 N 1866.84 -0.344893 -1.5378 0
M  V30 19941 C 1868.26 0.00698009 -1.59598 0
M  V30 19942 C 1868.46 1.48608 -1.36081 0
M  V30 19943 O 1867.51 2.24498 -1.15573 0
M  V30 19944 C 1868.83 -0.430402 -2.97604 0
M  V30 19945 C 1870.37 -0.38286 -3.1065 0
M  V30 19946 C 1870.85 -0.795731 -4.51035 0
M  V30 19947 N 1872.34 -0.74997 -4.57088 0
M  V30 19948 C 1873.07 -1.04137 -5.63864 0
M  V30 19949 N 1872.57 -1.401 -6.78487 0
M  V30 19950 N 1874.36 -0.965521 -5.53746 0
M  V30 19951 H 1866.51 -1.30834 -1.67321 0
M  V30 19952 H 1868.78 -0.533422 -0.783686 0
M  V30 19953 H 1868.48 -1.46174 -3.19884 0
M  V30 19954 H 1868.36 0.193696 -3.76702 0
M  V30 19955 H 1870.74 0.639311 -2.88092 0
M  V30 19956 H 1870.83 -1.04218 -2.33607 0
M  V30 19957 H 1870.47 -1.81592 -4.74328 0
M  V30 19958 H 1870.4 -0.113876 -5.26477 0
M  V30 19959 H 1872.89 -0.48474 -3.74778 0
M  V30 19960 H 1873.2 -1.60815 -7.55882 0
M  V30 19961 H 1871.55 -1.43946 -6.7993 0
M  V30 19962 H 1874.74 -0.683902 -4.63077 0
M  V30 19963 H 1874.91 -1.19596 -6.36868 0
M  V30 19964 N 1868.32 1.57428 -0.0735454 0
M  V30 19965 C 1869.25 2.15849 0.890584 0
M  V30 19966 C 1870.23 1.086 1.3092 0
M  V30 19967 O 1871.41 1.36643 1.37994 0
M  V30 19968 C 1868.54 2.72153 2.15755 0
M  V30 19969 C 1867.5 3.84584 1.87827 0
M  V30 19970 C 1866.82 4.27498 3.21169 0
M  V30 19971 C 1868.12 5.08746 1.18217 0
M  V30 19972 H 1869.82 2.96663 0.403904 0
M  V30 19973 H 1867.36 1.42703 0.192836 0
M  V30 19974 H 1869.32 3.11668 2.83621 0
M  V30 19975 H 1868.04 1.88562 2.66668 0
M  V30 19976 H 1866.7 3.45575 1.22366 0
M  V30 19977 H 1866.35 3.40827 3.69927 0
M  V30 19978 H 1866.05 5.03288 3.03273 0
M  V30 19979 H 1867.57 4.69631 3.9023 0
M  V30 19980 H 1868.99 5.45566 1.76155 0
M  V30 19981 H 1867.38 5.89825 1.10573 0
M  V30 19982 H 1868.45 4.84631 0.161525 0
M  V30 19983 N 1869.8 -0.200022 1.56326 0
M  V30 19984 C 1870.73 -1.25071 1.97179 0
M  V30 19985 C 1871.71 -1.4774 0.84303 0
M  V30 19986 O 1872.89 -1.5956 1.10699 0
M  V30 19987 C 1870.02 -2.596 2.30706 0
M  V30 19988 C 1868.98 -2.51552 3.46274 0
M  V30 19989 C 1868.3 -3.90309 3.65463 0
M  V30 19990 C 1869.6 -2.0448 4.80609 0
M  V30 19991 H 1871.3 -0.911238 2.85196 0
M  V30 19992 H 1868.84 -0.436899 1.37212 0
M  V30 19993 H 1870.8 -3.33281 2.5788 0
M  V30 19994 H 1869.52 -2.95278 1.39565 0
M  V30 19995 H 1868.18 -1.80327 3.19183 0
M  V30 19996 H 1867.83 -4.23331 2.71662 0
M  V30 19997 H 1867.53 -3.858 4.43207 0
M  V30 19998 H 1869.05 -4.65619 3.95008 0
M  V30 19999 H 1870.46 -2.67917 5.06847 0
M  V30 20000 H 1868.86 -2.10985 5.61788 0
M  V30 20001 H 1869.93 -0.997828 4.74522 0
M  V30 20002 N 1871.27 -1.50505 -0.467553 0
M  V30 20003 C 1872.18 -1.72419 -1.59087 0
M  V30 20004 C 1873.2 -0.607403 -1.63054 0
M  V30 20005 O 1874.38 -0.886148 -1.80857 0
M  V30 20006 C 1871.44 -1.81686 -2.95281 0
M  V30 20007 C 1870.5 -3.05435 -3.01675 0
M  V30 20008 C 1869.74 -3.1425 -4.31373 0
M  V30 20009 O 1869.96 -2.29766 -5.22076 0
M  V30 20010 O 1868.89 -4.07005 -4.43431 0
M  V30 20011 H 1872.72 -2.67649 -1.43519 0
M  V30 20012 H 1870.3 -1.34643 -0.647422 0
M  V30 20013 H 1872.19 -1.89941 -3.76165 0
M  V30 20014 H 1870.86 -0.896404 -3.11041 0
M  V30 20015 H 1869.77 -3.02678 -2.19856 0
M  V30 20016 H 1871.1 -3.97071 -2.90853 0
M  V30 20017 N 1872.75 0.720973 -1.40142 0
M  V30 20018 C 1873.98 1.51519 -1.41622 0
M  V30 20019 C 1874.4 1.88093 -0.0162669 0
M  V30 20020 O 1873.76 1.52895 0.974307 0
M  V30 20021 C 1873.81 2.77041 -2.30826 0
M  V30 20022 O 1872.91 3.73532 -1.74779 0
M  V30 20023 H 1872.25 0.457034 -0.481681 0
M  V30 20024 H 1874.78 0.88837 -1.84307 0
M  V30 20025 H 1874.79 3.25628 -2.45826 0
M  V30 20026 H 1873.47 2.49755 -3.32558 0
M  V30 20027 H 1872.05 3.32356 -1.69097 0
M  V30 20028 N 1874.23 1.25549 0.952634 0
M  V30 20029 C 1875.65 1.02414 1.22407 0
M  V30 20030 C 1875.85 -0.257807 1.99844 0
M  V30 20031 O 1874.9 -0.969999 2.33125 0
M  V30 20032 C 1876.22 2.24856 1.9965 0
M  V30 20033 C 1877.76 2.29638 2.12686 0
M  V30 20034 C 1878.24 3.51742 2.93329 0
M  V30 20035 N 1879.73 3.5215 3.00907 0
M  V30 20036 C 1880.46 4.43292 3.63703 0
M  V30 20037 N 1879.96 5.44709 4.28094 0
M  V30 20038 N 1881.75 4.30969 3.60863 0
M  V30 20039 H 1873.9 2.07905 0.434647 0
M  V30 20040 H 1876.17 0.913124 0.254772 0
M  V30 20041 H 1875.87 3.18037 1.5015 0
M  V30 20042 H 1875.75 2.28188 3.0035 0
M  V30 20043 H 1878.13 1.36978 2.61383 0
M  V30 20044 H 1878.22 2.30324 1.11285 0
M  V30 20045 H 1877.86 4.44724 2.45322 0
M  V30 20046 H 1877.79 3.48301 3.9496 0
M  V30 20047 H 1880.28 2.78789 2.55118 0
M  V30 20048 H 1880.59 6.10462 4.73873 0
M  V30 20049 H 1878.94 5.48579 4.26715 0
M  V30 20050 H 1882.13 3.50964 3.09745 0
M  V30 20051 H 1882.3 5.02196 4.09516 0
M  V30 20052 N 1875.71 -1.15554 1.07168 0
M  V30 20053 C 1876.66 -2.20234 0.690348 0
M  V30 20054 C 1877.63 -1.6304 -0.317346 0
M  V30 20055 O 1878.81 -1.89704 -0.20422 0
M  V30 20056 C 1875.95 -3.44976 0.0923404 0
M  V30 20057 C 1875.06 -4.16377 1.15128 0
M  V30 20058 C 1874.2 -5.28664 0.518478 0
M  V30 20059 C 1873.24 -5.91878 1.56034 0
M  V30 20060 N 1872.37 -6.9564 0.950251 0
M  V30 20061 H 1877.21 -2.52203 1.58738 0
M  V30 20062 H 1874.75 -1.23863 0.793502 0
M  V30 20063 H 1876.71 -4.16312 -0.271985 0
M  V30 20064 H 1875.34 -3.1353 -0.768054 0
M  V30 20065 H 1874.39 -3.43556 1.63321 0
M  V30 20066 H 1875.7 -4.59472 1.94132 0
M  V30 20067 H 1874.86 -6.06615 0.101683 0
M  V30 20068 H 1873.6 -4.86756 -0.303345 0
M  V30 20069 H 1872.6 -5.12641 1.98694 0
M  V30 20070 H 1873.83 -6.35864 2.38442 0
M  V30 20071 H 1871.77 -6.5583 0.149298 0
M  V30 20072 H 1871.69 -7.37153 1.67755 0
M  V30 20073 H 1872.96 -7.77494 0.558895 0
M  V30 20074 N 1877.19 -0.855519 -1.32358 0
M  V30 20075 C 1878.42 -0.472645 -2.01121 0
M  V30 20076 C 1878.83 0.935468 -1.64456 0
M  V30 20077 O 1878.17 1.62204 -0.862292 0
M  V30 20078 C 1878.23 -0.533025 -3.55527 0
M  V30 20079 C 1877.89 -1.90018 -4.15622 0
M  V30 20080 C 1878.89 -2.86576 -4.33786 0
M  V30 20081 C 1876.58 -2.19756 -4.51677 0
M  V30 20082 C 1878.57 -4.11023 -4.87175 0
M  V30 20083 C 1876.26 -3.44456 -5.0477 0
M  V30 20084 C 1877.26 -4.39905 -5.22468 0
M  V30 20085 O 1876.94 -5.62397 -5.74426 0
M  V30 20086 H 1876.68 -0.184097 -0.650449 0
M  V30 20087 H 1879.23 -1.15437 -1.69892 0
M  V30 20088 H 1877.46 0.205561 -3.86153 0
M  V30 20089 H 1879.15 -0.165631 -4.05562 0
M  V30 20090 H 1879.91 -2.64905 -4.06264 0
M  V30 20091 H 1875.79 -1.46247 -4.37187 0
M  V30 20092 H 1879.34 -4.85532 -5.00903 0
M  V30 20093 H 1875.23 -3.65976 -5.31725 0
M  V30 20094 H 1876 -5.64367 -5.92817 0
M  V30 20095 N 1878.67 1.45167 -0.61354 0
M  V30 20096 C 1879.91 2.01407 -0.10861 0
M  V30 20097 C 1880.23 1.48701 1.27072 0
M  V30 20098 O 1881.43 1.96956 1.8687 0
M  V30 20099 C 1879.89 3.59614 -0.143466 0
M  V30 20100 C 1879.5 4.21317 -1.52302 0
M  V30 20101 C 1881.24 4.23396 0.305912 0
M  V30 20102 C 1879.15 5.71694 -1.51393 0
M  V30 20103 H 1878.08 0.7531 -0.0368359 0
M  V30 20104 H 1880.73 1.66575 -0.769748 0
M  V30 20105 H 1879.11 3.91664 0.584438 0
M  V30 20106 H 1880.29 4.00832 -2.2731 0
M  V30 20107 H 1878.6 3.69753 -1.91499 0
M  V30 20108 H 1881.2 5.33668 0.331977 0
M  V30 20109 H 1881.54 3.9449 1.32978 0
M  V30 20110 H 1882.07 3.96086 -0.36892 0
M  V30 20111 H 1878.81 6.05308 -2.5156 0
M  V30 20112 H 1878.33 5.94353 -0.80652 0
M  V30 20113 H 1880.01 6.35003 -1.24017 0
M  V30 20114 N 1880.14 0.353044 1.53595 0
M  V30 20115 C 1881.07 -0.491481 2.28269 0
M  V30 20116 C 1882.05 -1.0946 1.30201 0
M  V30 20117 O 1883.24 -1.11421 1.59056 0
M  V30 20118 C 1880.37 -1.63776 3.06259 0
M  V30 20119 C 1879.32 -1.16251 4.1191 0
M  V30 20120 C 1878.65 -2.39805 4.7791 0
M  V30 20121 C 1879.95 -0.256191 5.21671 0
M  V30 20122 H 1881.64 0.131483 2.99111 0
M  V30 20123 H 1879.19 0.0646771 1.43855 0
M  V30 20124 H 1881.14 -2.2351 3.57241 0
M  V30 20125 H 1879.87 -2.28777 2.33085 0
M  V30 20126 H 1878.53 -0.587934 3.61855 0
M  V30 20127 H 1878.17 -3.03234 4.0132 0
M  V30 20128 H 1877.87 -2.08684 5.49295 0
M  V30 20129 H 1879.4 -3.00248 5.3168 0
M  V30 20130 H 1880.81 -0.760642 5.68232 0
M  V30 20131 H 1879.21 -0.0364273 6.00089 0
M  V30 20132 H 1880.28 0.705105 4.79746 0
M  V30 20133 N 1881.62 -1.57387 0.0818932 0
M  V30 20134 C 1882.87 -1.94156 -0.585765 0
M  V30 20135 C 1883.2 -0.962889 -1.68648 0
M  V30 20136 O 1882.48 0.00625819 -1.94499 0
M  V30 20137 C 1882.76 -3.41132 -1.15329 0
M  V30 20138 C 1882.61 -4.49762 -0.0585349 0
M  V30 20139 C 1883.93 -3.89137 -2.05573 0
M  V30 20140 H 1881.05 -0.706012 -0.211463 0
M  V30 20141 H 1883.69 -1.89408 0.149918 0
M  V30 20142 H 1881.84 -3.4531 -1.78026 0
M  V30 20143 H 1883.51 -4.57702 0.575061 0
M  V30 20144 H 1881.76 -4.29496 0.609574 0
M  V30 20145 H 1882.43 -5.49765 -0.496206 0
M  V30 20146 H 1884.9 -3.87029 -1.52798 0
M  V30 20147 H 1883.78 -4.92569 -2.42213 0
M  V30 20148 H 1884.04 -3.27663 -2.96799 0
M  V30 20149 N 1883.1 0.191729 -1.56429 0
M  V30 20150 C 1884.35 0.912948 -1.81089 0
M  V30 20151 C 1884.68 1.82767 -0.656483 0
M  V30 20152 O 1883.95 1.91456 0.342779 0
M  V30 20153 C 1884.24 1.72628 -3.16025 0
M  V30 20154 C 1884.09 0.836045 -4.41962 0
M  V30 20155 C 1885.41 2.69818 -3.47687 0
M  V30 20156 H 1882.53 0.33046 -0.658761 0
M  V30 20157 H 1885.17 0.180148 -1.89144 0
M  V30 20158 H 1883.32 2.35102 -3.09289 0
M  V30 20159 H 1884.99 0.225751 -4.60747 0
M  V30 20160 H 1883.23 0.142944 -4.33564 0
M  V30 20161 H 1883.91 1.44019 -5.32881 0
M  V30 20162 H 1886.38 2.17475 -3.54745 0
M  V30 20163 H 1885.26 3.23806 -4.43216 0
M  V30 20164 H 1885.52 3.49028 -2.71352 0
M  V30 20165 N 1884.58 1.50751 0.459565 0
M  V30 20166 C 1885.99 1.55043 1.04012 0
M  V30 20167 C 1886.34 0.360701 1.92856 0
M  V30 20168 O 1885.46 -0.525112 2.09932 0
M  V30 20169 C 1886.06 2.80975 1.89311 0
M  V30 20170 C 1884.62 2.87911 2.42455 0
M  V30 20171 C 1883.77 2.49464 1.2109 0
M  V30 20172 H 1886.72 1.56849 0.24171 0
M  V30 20173 H 1886.74 2.63482 2.74514 0
M  V30 20174 H 1886.25 3.67547 1.24623 0
M  V30 20175 H 1884.35 2.05717 3.10663 0
M  V30 20176 H 1884.46 3.91067 2.76773 0
M  V30 20177 H 1882.83 2.0216 1.54931 0
M  V30 20178 H 1883.61 3.38357 0.580469 0
M  V30 20179 N 1886.06 -0.713531 1.40522 0
M  V30 20180 C 1886.99 -1.8404 1.43707 0
M  V30 20181 C 1887.97 -1.67474 0.297751 0
M  V30 20182 O 1889.15 -1.87474 0.506662 0
M  V30 20183 C 1886.28 -3.22014 1.30094 0
M  V30 20184 C 1885.24 -3.53255 2.4165 0
M  V30 20185 C 1884.56 -4.90395 2.13113 0
M  V30 20186 C 1885.86 -3.54045 3.83991 0
M  V30 20187 H 1887.56 -1.81632 2.38013 0
M  V30 20188 H 1885.1 -0.872437 1.14562 0
M  V30 20189 H 1887.05 -4.00541 1.30938 0
M  V30 20190 H 1885.78 -3.25002 0.322648 0
M  V30 20191 H 1884.44 -2.77069 2.40059 0
M  V30 20192 H 1884.09 -4.89988 1.13669 0
M  V30 20193 H 1883.79 -5.12264 2.87853 0
M  V30 20194 H 1885.31 -5.71254 2.15642 0
M  V30 20195 H 1886.72 -4.22609 3.87395 0
M  V30 20196 H 1885.12 -3.87441 4.58268 0
M  V30 20197 H 1886.19 -2.53387 4.13428 0
M  V30 20198 N 1887.53 -1.26053 -0.945962 0
M  V30 20199 C 1888.78 -1.10706 -1.68603 0
M  V30 20200 C 1889.1 0.350167 -1.9244 0
M  V30 20201 O 1890.3 0.624224 -2.64227 0
M  V30 20202 C 1888.76 -1.93306 -3.0358 0
M  V30 20203 C 1888.37 -3.43574 -2.87508 0
M  V30 20204 C 1890.11 -1.86555 -3.8131 0
M  V30 20205 C 1888.02 -4.18438 -4.17928 0
M  V30 20206 H 1886.95 -0.410689 -0.632337 0
M  V30 20207 H 1889.6 -1.50322 -1.0524 0
M  V30 20208 H 1887.98 -1.4652 -3.67897 0
M  V30 20209 H 1889.15 -3.98096 -2.3207 0
M  V30 20210 H 1887.47 -3.51511 -2.23224 0
M  V30 20211 H 1890.07 -2.39775 -4.77925 0
M  V30 20212 H 1890.41 -0.83525 -4.07835 0
M  V30 20213 H 1890.94 -2.31138 -3.23759 0
M  V30 20214 H 1887.68 -5.21917 -3.96589 0
M  V30 20215 H 1887.2 -3.68698 -4.73098 0
M  V30 20216 H 1888.88 -4.26626 -4.86415 0
M  V30 20217 N 1889.01 1.14984 -1.07779 0
M  V30 20218 C 1890.26 1.86148 -0.804777 0
M  V30 20219 C 1890.59 1.82364 0.667615 0
M  V30 20220 O 1889.87 1.24982 1.4903 0
M  V30 20221 C 1890.15 3.35067 -1.31916 0
M  V30 20222 C 1890 3.4746 -2.85642 0
M  V30 20223 C 1891.32 4.29961 -0.939217 0
M  V30 20224 H 1888.44 0.675899 -0.293818 0
M  V30 20225 H 1891.08 1.35065 -1.33632 0
M  V30 20226 H 1889.23 3.78702 -0.867011 0
M  V30 20227 H 1890.9 3.12658 -3.3918 0
M  V30 20228 H 1889.15 2.88878 -3.23623 0
M  V30 20229 H 1889.82 4.52109 -3.16704 0
M  V30 20230 H 1892.29 3.94309 -1.3289 0
M  V30 20231 H 1891.17 5.32633 -1.32641 0
M  V30 20232 H 1891.43 4.4183 0.15442 0
M  V30 20233 N 1890.49 0.862526 1.31902 0
M  V30 20234 C 1891.74 0.465956 1.96244 0
M  V30 20235 C 1892.05 -0.985243 1.68974 0
M  V30 20236 O 1893.26 -1.48761 2.27118 0
M  V30 20237 C 1891.71 0.782319 3.51294 0
M  V30 20238 C 1891.32 2.24978 3.87413 0
M  V30 20239 C 1893.07 0.453857 4.22067 0
M  V30 20240 C 1890.97 2.50894 5.35543 0
M  V30 20241 H 1889.9 0.170515 0.734466 0
M  V30 20242 H 1892.55 1.0544 1.50182 0
M  V30 20243 H 1890.94 0.123217 3.95808 0
M  V30 20244 H 1892.11 2.95132 3.53884 0
M  V30 20245 H 1890.42 2.54354 3.29687 0
M  V30 20246 H 1893.02 0.624812 5.31037 0
M  V30 20247 H 1893.36 -0.605145 4.11878 0
M  V30 20248 H 1893.9 1.06918 3.83162 0
M  V30 20249 H 1890.64 3.55449 5.5076 0
M  V30 20250 H 1890.16 1.85326 5.70451 0
M  V30 20251 H 1891.84 2.35244 6.02718 0
M  V30 20252 N 1891.97 -1.4484 0.62123 0
M  V30 20253 C 1892.92 -2.32377 -0.1019 0
M  V30 20254 C 1893.91 -1.4677 -0.845862 0
M  V30 20255 O 1895.12 -1.63174 -0.759882 0
M  V30 20256 H 1891.49 -0.75022 -0.0517143 0
M  V30 20257 H 1893.46 -2.91131 0.654623 0
M  V30 20258 C 1892.21 -3.30611 -1.07665 0
M  V30 20259 H 1891.53 -3.96487 -0.513612 0
M  V30 20260 H 1892.97 -3.94563 -1.5523 0
M  V30 20261 C 1891.43 -2.58795 -2.157 0
M  V30 20262 O 1891.96 -2.37947 -3.23642 0
M  V30 20263 N 1890.17 -2.187 -1.9136 0
M  V30 20264 H 1889.72 -2.35856 -1.03584 0
M  V30 20265 H 1889.67 -1.70975 -2.63847 0
M  V30 20266 N 1893.45 -0.361184 -1.53405 0
M  V30 20267 C 1894.36 0.495394 -2.2931 0
M  V30 20268 C 1895.37 1.09649 -1.35104 0
M  V30 20269 O 1896.55 1.10838 -1.68158 0
M  V30 20270 C 1893.61 1.62176 -3.06431 0
M  V30 20271 C 1892.67 1.04865 -4.16295 0
M  V30 20272 C 1891.91 2.12134 -4.89729 0
M  V30 20273 O 1892.13 3.33169 -4.62985 0
M  V30 20274 O 1891.06 1.75438 -5.75765 0
M  V30 20275 H 1894.89 -0.122155 -3.03454 0
M  V30 20276 H 1892.48 -0.125695 -1.4887 0
M  V30 20277 H 1894.36 2.27673 -3.54603 0
M  V30 20278 H 1893.03 2.22479 -2.35127 0
M  V30 20279 H 1891.94 0.357717 -3.72386 0
M  V30 20280 H 1893.27 0.490239 -4.89752 0
M  V30 20281 N 1894.92 1.57341 -0.0902386 0
M  V30 20282 C 1895.85 2.16782 0.86764 0
M  V30 20283 C 1896.84 1.09982 1.29761 0
M  V30 20284 O 1898.02 1.38099 1.36537 0
M  V30 20285 C 1895.15 2.74426 2.12856 0
M  V30 20286 C 1894.1 3.86555 1.83738 0
M  V30 20287 C 1893.43 4.3088 3.16617 0
M  V30 20288 C 1894.73 5.09971 1.12814 0
M  V30 20289 H 1896.42 2.97075 0.372417 0
M  V30 20290 H 1893.97 1.42899 0.177689 0
M  V30 20291 H 1895.92 3.14659 2.80299 0
M  V30 20292 H 1894.65 1.9138 2.64653 0
M  V30 20293 H 1893.31 3.46853 1.18694 0
M  V30 20294 H 1892.95 3.44732 3.66291 0
M  V30 20295 H 1892.65 5.06477 2.97918 0
M  V30 20296 H 1894.18 4.73743 3.85227 0
M  V30 20297 H 1895.59 5.47404 1.70358 0
M  V30 20298 H 1893.99 5.90965 1.04311 0
M  V30 20299 H 1895.06 4.84775 0.110114 0
M  V30 20300 N 1896.4 -0.183431 1.56529 0
M  V30 20301 C 1897.68 -0.928567 1.72154 0
M  V30 20302 C 1898.06 -2.00899 0.648284 0
M  V30 20303 O 1897.41 -2.25973 -0.338886 0
M  V30 20304 C 1897.62 -1.50436 3.14913 0
M  V30 20305 C 1898.97 -1.98198 3.75503 0
M  V30 20306 O 1899.99 -1.60255 3.18115 0
M  V30 20307 O 1898.85 -2.68054 4.76245 0
M  V30 20308 H 1895.94 -0.436242 0.702582 0
M  V30 20309 H 1898.49 -0.17221 1.68824 0
M  V30 20310 H 1897.26 -0.726145 3.84503 0
M  V30 20311 H 1896.88 -2.32523 3.22519 0
M  V30 20312 N 1897.88 -1.50992 -0.451564 0
M  V30 20313 C 1899.13 -1.62633 -1.19978 0
M  V30 20314 C 1899.45 -0.337971 -1.92049 0
M  V30 20315 O 1898.72 0.645542 -1.84958 0
M  V30 20316 H 1897.3 -0.599345 -0.445864 0
M  V30 20317 H 1899.96 -1.8786 -0.519104 0
M  V30 20318 H 1899.06 -2.44709 -1.93711 0
M  V30 20319 N 1899.36 0.706069 -1.40899 0
M  V30 20320 C 1900.29 1.83275 -1.44681 0
M  V30 20321 C 1901.27 1.67313 -0.306629 0
M  V30 20322 O 1902.45 1.87203 -0.516597 0
M  V30 20323 C 1899.58 3.21319 -1.318 0
M  V30 20324 C 1898.54 3.51969 -2.4352 0
M  V30 20325 C 1897.86 4.89258 -2.1571 0
M  V30 20326 C 1899.16 3.52004 -3.85864 0
M  V30 20327 H 1900.86 1.80367 -2.38973 0
M  V30 20328 H 1898.4 0.866349 -1.15023 0
M  V30 20329 H 1900.36 3.99841 -1.3306 0
M  V30 20330 H 1899.08 3.24827 -0.339879 0
M  V30 20331 H 1897.74 2.75792 -2.41525 0
M  V30 20332 H 1897.39 4.89378 -1.16266 0
M  V30 20333 H 1897.09 5.1073 -2.90566 0
M  V30 20334 H 1898.61 5.70102 -2.18669 0
M  V30 20335 H 1900.03 4.20548 -3.8963 0
M  V30 20336 H 1898.42 3.85005 -4.60316 0
M  V30 20337 H 1899.49 2.51191 -4.14766 0
M  V30 20338 N 1900.84 1.26553 0.939264 0
M  V30 20339 C 1901.8 1.08335 2.01981 0
M  V30 20340 C 1902.8 0.0310501 1.6077 0
M  V30 20341 O 1903.99 0.274627 1.72022 0
M  V30 20342 C 1901.12 0.648208 3.34681 0
M  V30 20343 H 1902.31 2.04272 2.19574 0
M  V30 20344 H 1899.87 1.09177 1.11849 0
M  V30 20345 H 1900.6 -0.313074 3.22785 0
M  V30 20346 H 1900.39 1.40806 3.65946 0
M  V30 20347 H 1901.88 0.54264 4.14059 0
M  V30 20348 N 1902.31 -1.14411 1.08387 0
M  V30 20349 C 1903.26 -2.19489 0.713668 0
M  V30 20350 C 1904.23 -1.63368 -0.300036 0
M  V30 20351 O 1905.42 -1.8991 -0.184088 0
M  V30 20352 C 1902.56 -3.44859 0.128925 0
M  V30 20353 C 1901.67 -4.15132 1.19538 0
M  V30 20354 C 1900.8 -5.28084 0.574521 0
M  V30 20355 C 1899.84 -5.9019 1.62303 0
M  V30 20356 N 1898.98 -6.94593 1.02398 0
M  V30 20357 H 1903.82 -2.50505 1.61404 0
M  V30 20358 H 1901.36 -1.23014 0.806595 0
M  V30 20359 H 1903.32 -4.16578 -0.227814 0
M  V30 20360 H 1901.95 -3.14327 -0.734757 0
M  V30 20361 H 1901 -3.41804 1.66955 0
M  V30 20362 H 1902.31 -4.57387 1.98994 0
M  V30 20363 H 1901.46 -6.06473 0.166017 0
M  V30 20364 H 1900.2 -4.8705 -0.251701 0
M  V30 20365 H 1899.21 -5.10505 2.0412 0
M  V30 20366 H 1900.43 -6.33299 2.45172 0
M  V30 20367 H 1898.38 -6.55635 0.218849 0
M  V30 20368 H 1898.3 -7.35332 1.75564 0
M  V30 20369 H 1899.56 -7.76857 0.641327 0
M  V30 20370 N 1903.79 -0.869509 -1.31443 0
M  V30 20371 C 1905.04 -0.479265 -1.96335 0
M  V30 20372 C 1905.36 0.971583 -1.69072 0
M  V30 20373 O 1904.63 1.68104 -1.00588 0
M  V30 20374 H 1903.21 -0.174241 -0.726394 0
M  V30 20375 H 1905.87 -1.1092 -1.60259 0
M  V30 20376 H 1904.97 -0.636628 -3.05538 0
M  V30 20377 N 1905.27 1.44508 -0.628902 0
M  V30 20378 C 1906.2 2.28908 0.115743 0
M  V30 20379 C 1907.22 1.41158 0.811067 0
M  V30 20380 O 1908.4 1.65331 0.672887 0
M  V30 20381 C 1905.5 3.17471 1.18599 0
M  V30 20382 C 1904.68 4.33622 0.573612 0
M  V30 20383 C 1903.74 5.03236 1.53752 0
M  V30 20384 O 1902.76 5.59328 1.05553 0
M  V30 20385 N 1903.96 5.04483 2.87189 0
M  V30 20386 H 1906.73 2.93456 -0.608565 0
M  V30 20387 H 1904.29 1.54931 -0.469902 0
M  V30 20388 H 1906.28 3.60906 1.8311 0
M  V30 20389 H 1904.85 2.54687 1.81255 0
M  V30 20390 H 1904.07 3.93406 -0.25007 0
M  V30 20391 H 1905.36 5.08593 0.14509 0
M  V30 20392 H 1904.76 4.6024 3.28931 0
M  V30 20393 H 1903.32 5.51714 3.47066 0
M  V30 20394 N 1906.75 0.369315 1.53212 0
M  V30 20395 C 1907.66 -0.483226 2.29569 0
M  V30 20396 C 1908.68 -1.08931 1.35684 0
M  V30 20397 O 1909.85 -1.09944 1.68743 0
M  V30 20398 C 1906.92 -1.60549 3.07286 0
M  V30 20399 C 1905.98 -1.02656 4.16846 0
M  V30 20400 C 1905.21 -2.09534 4.90847 0
M  V30 20401 O 1905.43 -3.30709 4.64745 0
M  V30 20402 O 1904.37 -1.72382 5.76687 0
M  V30 20403 H 1908.19 0.138246 3.03385 0
M  V30 20404 H 1905.78 0.133589 1.48802 0
M  V30 20405 H 1907.66 -2.25789 3.55805 0
M  V30 20406 H 1906.34 -2.21229 2.36303 0
M  V30 20407 H 1905.24 -0.337963 3.7257 0
M  V30 20408 H 1906.58 -0.464259 4.90006 0
M  V30 20409 N 1908.23 -1.57291 0.0985816 0
M  V30 20410 C 1909.46 -1.98819 -0.57259 0
M  V30 20411 C 1909.87 -0.977787 -1.61508 0
M  V30 20412 O 1909.23 0.0321385 -1.82472 0
M  V30 20413 C 1909.28 -3.40393 -1.21716 0
M  V30 20414 O 1909 -4.37565 -0.216366 0
M  V30 20415 C 1910.5 -3.96943 -1.97361 0
M  V30 20416 H 1907.72 -0.653268 -0.153239 0
M  V30 20417 H 1910.26 -2.03716 0.178898 0
M  V30 20418 H 1908.42 -3.36499 -1.91956 0
M  V30 20419 H 1908.83 -5.20046 -0.68205 0
M  V30 20420 H 1910.31 -4.98144 -2.37816 0
M  V30 20421 H 1910.78 -3.34953 -2.84083 0
M  V30 20422 H 1911.39 -4.0432 -1.3193 0
M  V30 20423 N 1909.71 0.175127 -1.56624 0
M  V30 20424 C 1910.98 0.919424 -1.72644 0
M  V30 20425 C 1911.36 2.00553 -0.658929 0
M  V30 20426 O 1910.71 2.2615 0.326897 0
M  V30 20427 C 1910.92 1.48764 -3.15706 0
M  V30 20428 C 1912.27 1.96204 -3.76549 0
M  V30 20429 O 1913.29 1.58565 -3.1896 0
M  V30 20430 O 1912.15 2.65525 -4.7766 0
M  V30 20431 H 1909.25 0.43251 -0.704886 0
M  V30 20432 H 1911.79 0.163255 -1.68913 0
M  V30 20433 H 1910.56 0.705743 -3.84883 0
M  V30 20434 H 1910.19 2.3081 -3.23748 0
M  V30 20435 N 1911.18 1.5123 0.44355 0
M  V30 20436 C 1912.13 1.68479 1.53619 0
M  V30 20437 C 1913.12 0.538858 1.51608 0
M  V30 20438 O 1914.31 0.794502 1.58167 0
M  V30 20439 C 1911.44 1.80754 2.91861 0
M  V30 20440 C 1910.52 3.01112 2.98651 0
M  V30 20441 N 1910.92 4.24382 2.75197 0
M  V30 20442 C 1909.21 3.00239 3.29807 0
M  V30 20443 C 1909.91 5.0559 2.87668 0
M  V30 20444 N 1908.89 4.40109 3.1907 0
M  V30 20445 H 1912.69 2.61458 1.34227 0
M  V30 20446 H 1910.21 1.48791 0.650758 0
M  V30 20447 H 1912.2 1.91221 3.70459 0
M  V30 20448 H 1910.86 0.889528 3.12278 0
M  V30 20449 H 1911.87 4.53429 2.50244 0
M  V30 20450 H 1908.55 2.18044 3.56038 0
M  V30 20451 H 1909.94 6.13698 2.73541 0
M  V30 20452 N 1912.66 -0.698586 1.41271 0
M  V30 20453 C 1914.08 -1.0088 1.23674 0
M  V30 20454 C 1914.28 -2.01118 0.123961 0
M  V30 20455 O 1913.33 -2.47242 -0.512628 0
M  V30 20456 C 1914.65 -1.53629 2.58493 0
M  V30 20457 C 1916.19 -1.65528 2.65649 0
M  V30 20458 C 1916.67 -2.21679 4.00777 0
M  V30 20459 N 1918.16 -2.29044 4.02608 0
M  V30 20460 C 1918.9 -2.73512 5.03963 0
M  V30 20461 N 1918.39 -3.17607 6.15709 0
M  V30 20462 N 1920.18 -2.73049 4.91326 0
M  V30 20463 H 1912.34 -0.0344888 2.12372 0
M  V30 20464 H 1914.6 -0.0778742 0.944796 0
M  V30 20465 H 1914.3 -0.874339 3.40658 0
M  V30 20466 H 1914.18 -2.51891 2.80768 0
M  V30 20467 H 1916.57 -2.30836 1.83844 0
M  V30 20468 H 1916.65 -0.658201 2.47187 0
M  V30 20469 H 1916.29 -1.56988 4.83029 0
M  V30 20470 H 1916.22 -3.22134 4.16578 0
M  V30 20471 H 1918.71 -1.97922 3.21924 0
M  V30 20472 H 1919.02 -3.50155 6.88921 0
M  V30 20473 H 1917.37 -3.15523 6.1925 0
M  V30 20474 H 1920.56 -2.37947 4.03112 0
M  V30 20475 H 1920.73 -3.07386 5.70454 0
M  V30 20476 N 1914.14 -1.27049 -0.93254 0
M  V30 20477 C 1915.1 -1.09404 -2.01404 0
M  V30 20478 C 1916.1 -0.0395757 -1.60751 0
M  V30 20479 O 1917.29 -0.283746 -1.71874 0
M  V30 20480 C 1914.42 -0.665948 -3.34332 0
M  V30 20481 H 1915.62 -2.05434 -2.18488 0
M  V30 20482 H 1913.17 -1.09768 -1.11268 0
M  V30 20483 H 1913.91 0.295952 -3.22947 0
M  V30 20484 H 1913.69 -1.42745 -3.65194 0
M  V30 20485 H 1915.18 -0.564591 -4.13766 0
M  V30 20486 N 1915.62 1.13835 -1.08993 0
M  V30 20487 C 1916.87 1.84645 -0.82163 0
M  V30 20488 C 1917.19 1.83685 0.65458 0
M  V30 20489 O 1916.46 1.28948 1.47477 0
M  V30 20490 H 1915.04 0.683691 -0.300958 0
M  V30 20491 H 1917.7 1.37915 -1.37715 0
M  V30 20492 H 1916.79 2.89292 -1.17117 0
M  V30 20493 N 1917.1 0.876467 1.3098 0
M  V30 20494 C 1918.34 0.489671 1.96078 0
M  V30 20495 C 1918.66 -0.962603 1.69585 0
M  V30 20496 O 1917.93 -1.67568 1.01478 0
M  V30 20497 H 1916.51 0.178091 0.72546 0
M  V30 20498 H 1919.18 1.11768 1.59668 0
M  V30 20499 H 1918.27 0.652822 3.05196 0
M  V30 20500 N 1918.57 -1.44173 0.636557 0
M  V30 20501 C 1919.8 -2.06053 0.150237 0
M  V30 20502 C 1920.21 -1.47684 -1.18263 0
M  V30 20503 O 1919.55 -0.596274 -1.73753 0
M  V30 20504 C 1919.62 -3.59485 -0.0331338 0
M  V30 20505 C 1919.28 -4.40348 1.22241 0
M  V30 20506 C 1920.28 -4.73481 2.14736 0
M  V30 20507 C 1917.96 -4.80633 1.45934 0
M  V30 20508 C 1919.96 -5.45789 3.29231 0
M  V30 20509 C 1917.64 -5.5269 2.60725 0
M  V30 20510 C 1918.64 -5.85188 3.52199 0
M  V30 20511 O 1918.33 -6.55776 4.64987 0
M  V30 20512 H 1918.06 -0.671316 0.0794375 0
M  V30 20513 H 1920.62 -1.85942 0.872618 0
M  V30 20514 H 1918.85 -3.78106 -0.810716 0
M  V30 20515 H 1920.53 -4.03115 -0.474694 0
M  V30 20516 H 1921.3 -4.42891 1.97668 0
M  V30 20517 H 1917.18 -4.54755 0.756218 0
M  V30 20518 H 1920.72 -5.71073 4.00651 0
M  V30 20519 H 1916.62 -5.82695 2.77734 0
M  V30 20520 H 1917.39 -6.74248 4.64038 0
M  V30 20521 N 1920.05 -0.377435 -1.53014 0
M  V30 20522 C 1921.01 0.451217 -2.24715 0
M  V30 20523 C 1922.01 1.00001 -1.25923 0
M  V30 20524 O 1923.2 0.883884 -1.5011 0
M  V30 20525 C 1920.34 1.63185 -2.99305 0
M  V30 20526 H 1921.53 -0.176358 -2.99381 0
M  V30 20527 H 1919.08 -0.12933 -1.55764 0
M  V30 20528 H 1919.82 2.29718 -2.2891 0
M  V30 20529 H 1919.6 1.24517 -3.71804 0
M  V30 20530 H 1921.09 2.2188 -3.53778 0
M  V30 20531 N 1921.53 1.57237 -0.106922 0
M  V30 20532 C 1922.95 1.57634 0.249708 0
M  V30 20533 C 1923.15 1.11888 1.67581 0
M  V30 20534 O 1922.2 0.80073 2.39467 0
M  V30 20535 C 1923.52 3.00688 0.0273757 0
M  V30 20536 C 1925.06 3.12858 0.0942116 0
M  V30 20537 C 1925.54 4.5789 -0.100275 0
M  V30 20538 N 1927.03 4.63177 -0.045837 0
M  V30 20539 C 1927.76 5.73144 -0.171398 0
M  V30 20540 N 1927.26 6.91903 -0.352455 0
M  V30 20541 N 1929.05 5.61989 -0.111827 0
M  V30 20542 H 1921.2 1.85278 -1.03855 0
M  V30 20543 H 1923.47 0.855717 -0.407985 0
M  V30 20544 H 1923.17 3.38399 -0.958063 0
M  V30 20545 H 1923.05 3.6937 0.764546 0
M  V30 20546 H 1925.43 2.75012 1.07016 0
M  V30 20547 H 1925.52 2.46743 -0.674643 0
M  V30 20548 H 1925.16 4.96433 -1.07315 0
M  V30 20549 H 1925.09 5.22081 0.688418 0
M  V30 20550 H 1927.58 3.7779 0.0910806 0
M  V30 20551 H 1927.89 7.7155 -0.439454 0
M  V30 20552 H 1926.24 6.93915 -0.388274 0
M  V30 20553 H 1929.43 4.68091 0.0285732 0
M  V30 20554 H 1929.6 6.47649 -0.213127 0
M  V30 20555 N 1923.01 -0.166818 1.56715 0
M  V30 20556 C 1924.25 -0.884023 1.82518 0
M  V30 20557 C 1924.59 -1.817 0.685477 0
M  V30 20558 O 1923.86 -1.91977 -0.312277 0
M  V30 20559 C 1924.15 -1.67578 3.18731 0
M  V30 20560 C 1924 -0.765627 4.43236 0
M  V30 20561 C 1925.32 -2.64252 3.51936 0
M  V30 20562 H 1922.44 -0.319938 0.663934 0
M  V30 20563 H 1925.08 -0.150034 1.89407 0
M  V30 20564 H 1923.23 -2.30152 3.1299 0
M  V30 20565 H 1924.9 -0.152422 4.61048 0
M  V30 20566 H 1923.14 -0.0739497 4.33737 0
M  V30 20567 H 1923.81 -1.35523 5.35105 0
M  V30 20568 H 1926.29 -2.11804 3.5816 0
M  V30 20569 H 1925.17 -3.16714 4.48312 0
M  V30 20570 H 1925.43 -3.44667 2.7687 0
M  V30 20571 N 1924.49 -1.51463 -0.435524 0
M  V30 20572 C 1925.73 -1.64464 -1.18656 0
M  V30 20573 C 1926.07 -0.360669 -1.90821 0
M  V30 20574 O 1925.34 0.639814 -1.83675 0
M  V30 20575 C 1925.62 -2.84919 -2.20212 0
M  V30 20576 C 1925.48 -4.23297 -1.52117 0
M  V30 20577 C 1926.8 -3.00891 -3.21174 0
M  V30 20578 H 1923.91 -0.598545 -0.430015 0
M  V30 20579 H 1926.56 -1.83952 -0.475572 0
M  V30 20580 H 1924.71 -2.68435 -2.80847 0
M  V30 20581 H 1926.38 -4.51453 -0.948048 0
M  V30 20582 H 1924.62 -4.25912 -0.823493 0
M  V30 20583 H 1925.29 -5.03576 -2.26087 0
M  V30 20584 H 1927.77 -3.16099 -2.70594 0
M  V30 20585 H 1926.64 -3.86734 -3.89523 0
M  V30 20586 H 1926.91 -2.13041 -3.87383 0
M  V30 20587 N 1925.96 0.691085 -1.4164 0
M  V30 20588 C 1926.9 1.81646 -1.39776 0
M  V30 20589 C 1927.91 1.60026 -0.299243 0
M  V30 20590 O 1929.1 1.69446 -0.561266 0
M  V30 20591 C 1926.2 3.18486 -1.15845 0
M  V30 20592 C 1925.37 3.67096 -2.37822 0
M  V30 20593 C 1924.43 4.82618 -2.09681 0
M  V30 20594 O 1923.46 4.94002 -2.82756 0
M  V30 20595 N 1924.66 5.70178 -1.08983 0
M  V30 20596 H 1927.42 1.83736 -2.36773 0
M  V30 20597 H 1924.98 0.873576 -1.36309 0
M  V30 20598 H 1926.98 3.934 -0.949639 0
M  V30 20599 H 1925.55 3.11394 -0.274301 0
M  V30 20600 H 1924.77 2.83038 -2.74377 0
M  V30 20601 H 1926.05 3.96312 -3.19083 0
M  V30 20602 H 1925.45 5.63616 -0.48512 0
M  V30 20603 H 1924.01 6.44973 -0.940906 0
M  V30 20604 N 1927.44 1.27542 0.925789 0
M  V30 20605 C 1928.35 1.1225 2.06002 0
M  V30 20606 C 1929.37 0.0520487 1.73922 0
M  V30 20607 O 1930.54 0.258921 1.99729 0
M  V30 20608 C 1927.61 0.773231 3.37967 0
M  V30 20609 C 1926.67 1.92476 3.83733 0
M  V30 20610 C 1925.9 1.59206 5.09401 0
M  V30 20611 O 1926.13 0.500836 5.68197 0
M  V30 20612 O 1925.06 2.43185 5.50586 0
M  V30 20613 H 1928.89 2.07439 2.21817 0
M  V30 20614 H 1926.47 1.06747 1.04525 0
M  V30 20615 H 1928.35 0.591863 4.17223 0
M  V30 20616 H 1927.03 -0.149116 3.23356 0
M  V30 20617 H 1925.94 2.1612 3.05357 0
M  V30 20618 H 1927.27 2.82738 4.02889 0
M  V30 20619 N 1928.92 -1.13255 1.09595 0
M  V30 20620 C 1929.87 -2.1872 0.736907 0
M  V30 20621 C 1930.84 -1.63677 -0.282692 0
M  V30 20622 O 1932.02 -1.90094 -0.163936 0
M  V30 20623 C 1929.16 -3.44703 0.165494 0
M  V30 20624 C 1928.28 -4.13841 1.23934 0
M  V30 20625 C 1927.41 -5.27445 0.630499 0
M  V30 20626 C 1926.45 -5.88435 1.68554 0
M  V30 20627 N 1925.59 -6.93468 1.09759 0
M  V30 20628 H 1930.43 -2.48779 1.64052 0
M  V30 20629 H 1927.96 -1.22152 0.819597 0
M  V30 20630 H 1929.92 -4.16796 -0.183618 0
M  V30 20631 H 1928.55 -3.15088 -0.701377 0
M  V30 20632 H 1927.6 -3.40014 1.70571 0
M  V30 20633 H 1928.92 -4.5525 2.03834 0
M  V30 20634 H 1928.07 -6.06263 0.230332 0
M  V30 20635 H 1926.81 -4.8729 -0.200028 0
M  V30 20636 H 1925.81 -5.08311 2.09523 0
M  V30 20637 H 1927.04 -6.30663 2.51876 0
M  V30 20638 H 1924.98 -6.55366 0.288376 0
M  V30 20639 H 1924.9 -7.33429 1.83353 0
M  V30 20640 H 1926.17 -7.76133 0.723688 0
M  V30 20641 N 1930.4 -0.883401 -1.30514 0
M  V30 20642 C 1931.36 -0.353908 -2.26451 0
M  V30 20643 C 1932.36 0.502723 -1.52739 0
M  V30 20644 O 1933.55 0.310104 -1.71418 0
M  V30 20645 C 1930.68 0.495846 -3.37275 0
M  V30 20646 H 1931.88 -1.20101 -2.74801 0
M  V30 20647 H 1929.43 -0.660124 -1.41676 0
M  V30 20648 H 1930.16 1.3636 -2.94239 0
M  V30 20649 H 1929.95 -0.117731 -3.91923 0
M  V30 20650 H 1931.44 0.858149 -4.08688 0
M  V30 20651 N 1931.88 1.43833 -0.644194 0
M  V30 20652 C 1933.29 1.56542 -0.310952 0
M  V30 20653 C 1933.49 1.62946 1.18536 0
M  V30 20654 O 1932.55 1.57961 1.96989 0
M  V30 20655 C 1933.86 2.83074 -1.01437 0
M  V30 20656 C 1935.41 2.96805 -0.993759 0
M  V30 20657 C 1935.88 4.26158 -1.6779 0
M  V30 20658 N 1937.38 4.33002 -1.64511 0
M  V30 20659 C 1938.11 5.31837 -2.14328 0
M  V30 20660 N 1937.61 6.37003 -2.72394 0
M  V30 20661 N 1939.4 5.23431 -2.04881 0
M  V30 20662 H 1931.55 1.37919 -1.61531 0
M  V30 20663 H 1933.81 0.661778 -0.678789 0
M  V30 20664 H 1933.52 2.84372 -2.06943 0
M  V30 20665 H 1933.39 3.73016 -0.560273 0
M  V30 20666 H 1935.78 2.95053 0.0528599 0
M  V30 20667 H 1935.86 2.08177 -1.48647 0
M  V30 20668 H 1935.51 4.28671 -2.72404 0
M  V30 20669 H 1935.44 5.13667 -1.15992 0
M  V30 20670 H 1937.93 3.57621 -1.22129 0
M  V30 20671 H 1938.24 7.08724 -3.08107 0
M  V30 20672 H 1936.58 6.37652 -2.76451 0
M  V30 20673 H 1939.78 4.40186 -1.59229 0
M  V30 20674 H 1939.95 6.00301 -2.44015 0
M  V30 20675 N 1933.35 0.385544 1.52811 0
M  V30 20676 C 1934.3 -0.451417 2.26342 0
M  V30 20677 C 1935.27 -1.06094 1.27801 0
M  V30 20678 O 1936.46 -1.08968 1.56623 0
M  V30 20679 C 1933.6 -1.57477 3.07075 0
M  V30 20680 C 1932.71 -0.988468 4.20539 0
M  V30 20681 C 1931.84 -2.08256 4.88675 0
M  V30 20682 C 1930.88 -1.47196 5.94138 0
M  V30 20683 N 1930.02 -2.5052 6.55884 0
M  V30 20684 H 1934.86 0.182092 2.97443 0
M  V30 20685 H 1932.4 0.101628 1.46749 0
M  V30 20686 H 1934.36 -2.23677 3.52171 0
M  V30 20687 H 1932.99 -2.17864 2.38191 0
M  V30 20688 H 1932.04 -0.216168 3.79785 0
M  V30 20689 H 1933.35 -0.502223 4.96265 0
M  V30 20690 H 1932.5 -2.82235 5.37055 0
M  V30 20691 H 1931.24 -2.60239 4.12464 0
M  V30 20692 H 1930.25 -0.717401 5.45099 0
M  V30 20693 H 1931.47 -0.960124 6.72279 0
M  V30 20694 H 1929.42 -3.0168 5.82516 0
M  V30 20695 H 1929.34 -2.0664 7.27211 0
M  V30 20696 H 1930.6 -3.24141 7.0891 0
M  V30 20697 N 1934.83 -1.57178 0.115259 0
M  V30 20698 C 1936.06 -1.99842 -0.554802 0
M  V30 20699 C 1936.48 -0.994368 -1.59668 0
M  V30 20700 O 1935.84 0.0344531 -1.81267 0
M  V30 20701 C 1935.89 -3.41399 -1.16099 0
M  V30 20702 O 1934.99 -3.43868 -2.27659 0
M  V30 20703 H 1934.33 -0.649301 -0.138937 0
M  V30 20704 H 1936.86 -2.03594 0.202629 0
M  V30 20705 H 1936.87 -3.79527 -1.49743 0
M  V30 20706 H 1935.55 -4.13993 -0.397827 0
M  V30 20707 H 1934.13 -3.17555 -1.95482 0
M  V30 20708 N 1936.31 0.158505 -1.56801 0
M  V30 20709 C 1937.56 0.871408 -1.81905 0
M  V30 20710 C 1937.87 1.8285 -0.694632 0
M  V30 20711 O 1939.08 2.58471 -0.830953 0
M  V30 20712 C 1937.54 1.60017 -3.2237 0
M  V30 20713 C 1937.14 0.686065 -4.42716 0
M  V30 20714 C 1938.89 2.30054 -3.56757 0
M  V30 20715 C 1936.79 1.41579 -5.74203 0
M  V30 20716 H 1935.72 0.329148 -0.678364 0
M  V30 20717 H 1938.38 0.124216 -1.83079 0
M  V30 20718 H 1936.76 2.39258 -3.1555 0
M  V30 20719 H 1937.93 -0.0702946 -4.60746 0
M  V30 20720 H 1936.25 0.0947 -4.16292 0
M  V30 20721 H 1938.84 2.85268 -4.52246 0
M  V30 20722 H 1939.19 3.06002 -2.82256 0
M  V30 20723 H 1939.72 1.57744 -3.65187 0
M  V30 20724 H 1936.46 0.698382 -6.51769 0
M  V30 20725 H 1935.98 2.14515 -5.60128 0
M  V30 20726 H 1937.66 1.95983 -6.16603 0
M  V30 20727 N 1937.79 1.51692 0.427485 0
M  V30 20728 C 1938.7 1.76576 1.5446 0
M  V30 20729 C 1939.72 0.650421 1.61386 0
M  V30 20730 O 1940.89 0.933787 1.78444 0
M  V30 20731 C 1937.96 1.89451 2.90361 0
M  V30 20732 C 1937.02 3.13326 2.93471 0
M  V30 20733 C 1936.25 3.25577 4.22889 0
M  V30 20734 O 1936.47 2.43528 5.15801 0
M  V30 20735 O 1935.41 4.18618 4.32484 0
M  V30 20736 H 1939.23 2.7136 1.36373 0
M  V30 20737 H 1936.82 1.36312 0.611496 0
M  V30 20738 H 1938.7 1.99848 3.70997 0
M  V30 20739 H 1937.38 0.978556 3.08555 0
M  V30 20740 H 1936.28 3.08401 2.11754 0
M  V30 20741 H 1937.62 4.04643 2.80223 0
M  V30 20742 N 1939.27 -0.683564 1.42004 0
M  V30 20743 C 1940.51 -1.44363 1.42005 0
M  V30 20744 C 1940.84 -1.94471 0.0333832 0
M  V30 20745 O 1940.1 -1.70716 -0.95679 0
M  V30 20746 C 1940.4 -2.66286 2.38383 0
M  V30 20747 C 1940.06 -2.34769 3.8496 0
M  V30 20748 C 1938.72 -2.25884 4.24888 0
M  V30 20749 C 1941.08 -2.09012 4.77455 0
M  V30 20750 C 1938.4 -1.89356 5.55303 0
M  V30 20751 C 1940.76 -1.73991 6.08202 0
M  V30 20752 C 1939.42 -1.6361 6.47138 0
M  V30 20753 H 1938.69 -0.528262 0.519634 0
M  V30 20754 H 1941.34 -0.780217 1.74885 0
M  V30 20755 H 1939.64 -3.37618 1.98799 0
M  V30 20756 H 1941.34 -3.24452 2.35652 0
M  V30 20757 H 1937.93 -2.42583 3.53343 0
M  V30 20758 H 1942.11 -2.14814 4.47402 0
M  V30 20759 H 1937.37 -1.79882 5.84339 0
M  V30 20760 H 1941.54 -1.53084 6.79366 0
M  V30 20761 H 1939.17 -1.35075 7.48103 0
M  V30 20762 N 1940.75 -1.28031 -0.919012 0
M  V30 20763 C 1941.68 -1.14034 -2.03761 0
M  V30 20764 C 1942.66 -0.039495 -1.70054 0
M  V30 20765 O 1943.84 -0.215546 -1.93 0
M  V30 20766 C 1940.97 -0.795894 -3.38057 0
M  V30 20767 C 1939.93 -1.85093 -3.85907 0
M  V30 20768 C 1939.25 -1.36024 -5.17109 0
M  V30 20769 C 1940.55 -3.25658 -4.08343 0
M  V30 20770 H 1942.25 -2.07609 -2.15729 0
M  V30 20771 H 1939.79 -0.999558 -1.03657 0
M  V30 20772 H 1941.74 -0.684762 -4.15799 0
M  V30 20773 H 1940.47 0.175558 -3.26128 0
M  V30 20774 H 1939.13 -1.95112 -3.10366 0
M  V30 20775 H 1938.78 -0.378004 -5.01578 0
M  V30 20776 H 1938.48 -2.06568 -5.50094 0
M  V30 20777 H 1940 -1.26223 -5.97411 0
M  V30 20778 H 1941.41 -3.1859 -4.76627 0
M  V30 20779 H 1939.81 -3.93989 -4.52651 0
M  V30 20780 H 1940.88 -3.70066 -3.13335 0
M  V30 20781 N 1942.22 1.12672 -1.10194 0
M  V30 20782 C 1943.13 2.2192 -0.76082 0
M  V30 20783 C 1944.15 1.72328 0.240604 0
M  V30 20784 O 1945.33 2.01241 0.0799808 0
M  V30 20785 C 1942.39 3.46151 -0.19501 0
M  V30 20786 C 1941.45 4.10595 -1.25339 0
M  V30 20787 C 1940.68 5.28896 -0.714485 0
M  V30 20788 O 1940.91 5.68543 0.459943 0
M  V30 20789 O 1939.84 5.83592 -1.47324 0
M  V30 20790 H 1943.67 2.53487 -1.67266 0
M  V30 20791 H 1941.25 1.20959 -0.876892 0
M  V30 20792 H 1943.13 4.21238 0.116809 0
M  V30 20793 H 1941.81 3.16266 0.689729 0
M  V30 20794 H 1940.72 3.37299 -1.61803 0
M  V30 20795 H 1942.05 4.44629 -2.11106 0
M  V30 20796 N 1943.7 0.89031 1.30043 0
M  V30 20797 C 1944.63 0.31832 2.26979 0
M  V30 20798 C 1945.65 -0.530108 1.53928 0
M  V30 20799 O 1946.84 -0.348791 1.75059 0
M  V30 20800 C 1943.94 -0.565563 3.34148 0
M  V30 20801 C 1943.11 0.255006 4.36656 0
M  V30 20802 C 1942.17 -0.560216 5.23209 0
M  V30 20803 O 1941.19 0.0189739 5.69197 0
M  V30 20804 N 1942.4 -1.86825 5.49615 0
M  V30 20805 H 1945.16 1.15143 2.76699 0
M  V30 20806 H 1942.72 0.753836 1.43279 0
M  V30 20807 H 1944.71 -1.11711 3.88976 0
M  V30 20808 H 1943.28 -1.29935 2.84316 0
M  V30 20809 H 1942.5 0.987993 3.81618 0
M  V30 20810 H 1943.79 0.817308 5.02193 0
M  V30 20811 H 1943.19 -2.36167 5.14045 0
M  V30 20812 H 1941.75 -2.36713 6.07297 0
M  V30 20813 N 1945.18 -1.43489 0.651812 0
M  V30 20814 C 1946.6 -1.56374 0.31925 0
M  V30 20815 C 1946.8 -1.63573 -1.1767 0
M  V30 20816 O 1945.85 -1.59003 -1.96149 0
M  V30 20817 C 1947.16 -2.82532 1.02937 0
M  V30 20818 C 1948.71 -2.96274 1.00949 0
M  V30 20819 C 1949.19 -4.25262 1.70047 0
M  V30 20820 N 1950.68 -4.32123 1.66805 0
M  V30 20821 C 1951.41 -5.30693 2.17146 0
M  V30 20822 N 1950.91 -6.3555 2.75769 0
M  V30 20823 N 1952.7 -5.22337 2.07654 0
M  V30 20824 H 1944.85 -1.3706 1.6226 0
M  V30 20825 H 1947.12 -0.658169 0.682289 0
M  V30 20826 H 1946.82 -2.83271 2.08448 0
M  V30 20827 H 1946.7 -3.72713 0.580047 0
M  V30 20828 H 1949.08 -2.95077 -0.0372118 0
M  V30 20829 H 1949.16 -2.07386 1.49749 0
M  V30 20830 H 1948.81 -4.2722 2.74673 0
M  V30 20831 H 1948.74 -5.13044 1.18714 0
M  V30 20832 H 1951.23 -3.56968 1.24024 0
M  V30 20833 H 1951.54 -7.0708 3.11861 0
M  V30 20834 H 1949.89 -6.36177 2.79829 0
M  V30 20835 H 1953.08 -4.39336 1.61561 0
M  V30 20836 H 1953.25 -5.98998 2.47195 0
M  V30 20837 N 1946.66 -0.393643 -1.52605 0
M  V30 20838 C 1947.9 0.187154 -2.01633 0
M  V30 20839 C 1948.23 1.46451 -1.27993 0
M  V30 20840 O 1947.49 1.92169 -0.370063 0
M  V30 20841 C 1947.79 0.497148 -3.53925 0
M  V30 20842 C 1947.45 -0.689176 -4.45602 0
M  V30 20843 C 1946.11 -1.01462 -4.70382 0
M  V30 20844 C 1948.47 -1.48262 -4.99668 0
M  V30 20845 C 1945.79 -2.13497 -5.46476 0
M  V30 20846 C 1948.15 -2.59361 -5.76987 0
M  V30 20847 C 1946.81 -2.92409 -6.00044 0
M  V30 20848 H 1946.08 0.0684846 -0.737828 0
M  V30 20849 H 1948.73 -0.531882 -1.83965 0
M  V30 20850 H 1947.03 1.29756 -3.6969 0
M  V30 20851 H 1948.73 0.959239 -3.89358 0
M  V30 20852 H 1945.32 -0.425524 -4.26482 0
M  V30 20853 H 1949.5 -1.24443 -4.80445 0
M  V30 20854 H 1944.76 -2.39467 -5.62553 0
M  V30 20855 H 1948.93 -3.21241 -6.17881 0
M  V30 20856 H 1946.56 -3.79341 -6.5879 0
M  V30 20857 N 1948.14 1.57115 -0.123593 0
M  V30 20858 C 1949.05 2.19104 0.838493 0
M  V30 20859 C 1950.06 1.1685 1.28927 0
M  V30 20860 O 1951.24 1.49337 1.35131 0
M  V30 20861 C 1948.3 2.78191 2.06908 0
M  V30 20862 C 1947.36 3.95495 1.66979 0
M  V30 20863 C 1946.6 4.51755 2.84171 0
M  V30 20864 O 1946.82 4.06908 3.99728 0
M  V30 20865 O 1945.75 5.42372 2.60991 0
M  V30 20866 H 1949.58 3.0178 0.340935 0
M  V30 20867 H 1947.16 1.4905 0.102255 0
M  V30 20868 H 1949.05 3.15837 2.78971 0
M  V30 20869 H 1947.72 1.98542 2.55661 0
M  V30 20870 H 1946.63 3.62609 0.920091 0
M  V30 20871 H 1947.96 4.76593 1.22963 0
M  V30 20872 N 1949.61 -0.150187 1.56883 0
M  V30 20873 C 1950.84 -0.88235 1.87695 0
M  V30 20874 C 1951.26 -1.74093 0.712272 0
M  V30 20875 O 1950.62 -1.78118 -0.338207 0
M  V30 20876 C 1950.67 -1.71754 3.1707 0
M  V30 20877 O 1949.77 -2.82145 3.00779 0
M  V30 20878 H 1949.11 -0.245947 0.616771 0
M  V30 20879 H 1951.64 -0.141963 2.04107 0
M  V30 20880 H 1951.65 -2.1132 3.4901 0
M  V30 20881 H 1950.33 -1.08704 4.01443 0
M  V30 20882 H 1948.91 -2.46008 2.8024 0
M  V30 20883 N 1951.09 -1.51916 -0.419434 0
M  V30 20884 C 1952.51 -1.4049 -0.757287 0
M  V30 20885 C 1952.71 -0.501274 -1.95165 0
M  V30 20886 O 1951.76 0.0368349 -2.52473 0
M  V30 20887 C 1953.08 -2.8284 -1.02088 0
M  V30 20888 C 1954.63 -2.92113 -1.12422 0
M  V30 20889 C 1955.1 -4.3541 -1.42064 0
M  V30 20890 N 1956.59 -4.38598 -1.4895 0
M  V30 20891 C 1957.33 -5.46524 -1.73492 0
M  V30 20892 N 1956.82 -6.64583 -1.95706 0
M  V30 20893 N 1958.62 -5.34026 -1.75422 0
M  V30 20894 H 1950.77 -2.09207 0.366909 0
M  V30 20895 H 1953.03 -0.942516 0.101822 0
M  V30 20896 H 1952.74 -3.51038 -0.215755 0
M  V30 20897 H 1952.61 -3.23259 -1.9438 0
M  V30 20898 H 1955 -2.24103 -1.91994 0
M  V30 20899 H 1955.08 -2.55167 -0.179896 0
M  V30 20900 H 1954.72 -5.03976 -0.630123 0
M  V30 20901 H 1954.65 -4.69884 -2.37731 0
M  V30 20902 H 1957.14 -3.53491 -1.33614 0
M  V30 20903 H 1957.46 -7.42621 -2.13854 0
M  V30 20904 H 1955.8 -6.67667 -1.92992 0
M  V30 20905 H 1958.99 -4.40773 -1.57598 0
M  V30 20906 H 1959.16 -6.18212 -1.9421 0
M  V30 20907 N 1952.57 0.676023 -1.42365 0
M  V30 20908 C 1953.85 1.43189 -1.33252 0
M  V30 20909 C 1954.23 2.11078 0.0306765 0
M  V30 20910 O 1953.58 2.03148 1.0461 0
M  V30 20911 C 1953.79 2.43534 -2.49984 0
M  V30 20912 C 1955.13 3.08213 -2.92044 0
M  V30 20913 O 1956.16 2.53861 -2.49866 0
M  V30 20914 O 1955.02 4.06702 -3.65042 0
M  V30 20915 H 1952.11 0.638626 -0.525438 0
M  V30 20916 H 1954.66 0.704851 -1.5437 0
M  V30 20917 H 1953.43 1.92159 -3.40867 0
M  V30 20918 H 1953.05 3.23721 -2.30847 0
M  V30 20919 N 1954.05 1.28517 0.912209 0
M  V30 20920 C 1955.27 1.18732 1.70052 0
M  V30 20921 C 1955.7 -0.250323 1.86427 0
M  V30 20922 O 1955.06 -1.18105 1.37553 0
M  V30 20923 C 1955.1 1.89256 3.06944 0
M  V30 20924 O 1954.21 1.20108 3.94522 0
M  V30 20925 H 1953.55 0.412087 0.520654 0
M  V30 20926 H 1956.08 1.69866 1.14048 0
M  V30 20927 H 1956.09 1.97223 3.57165 0
M  V30 20928 H 1954.76 2.93829 2.94343 0
M  V30 20929 H 1953.34 1.20315 3.52957 0
M  V30 20930 N 1955.53 -1.12086 1.1079 0
M  V30 20931 C 1956.77 -1.85314 0.862439 0
M  V30 20932 C 1957.13 -1.82348 -0.601087 0
M  V30 20933 O 1958.33 -2.50956 -0.963043 0
M  V30 20934 C 1956.6 -3.28827 1.40027 0
M  V30 20935 S 1958.16 -4.19385 1.29079 0
M  V30 20936 H 1954.98 -0.639107 0.311551 0
M  V30 20937 H 1957.58 -1.34998 1.41407 0
M  V30 20938 H 1956.29 -3.28547 2.45938 0
M  V30 20939 H 1955.82 -3.84209 0.845382 0
M  V30 20940 H 1957.83 -4.95565 0.250873 0
M  V30 20941 N 1957 -0.897194 -1.29569 0
M  V30 20942 C 1957.93 -0.389601 -2.30227 0
M  V30 20943 C 1958.92 0.53405 -1.61499 0
M  V30 20944 O 1960.1 0.44531 -1.89025 0
M  V30 20945 C 1957.23 0.385966 -3.45149 0
M  V30 20946 C 1956.18 -0.447028 -4.25659 0
M  V30 20947 C 1955.51 0.455883 -5.32753 0
M  V30 20948 C 1956.81 -1.69562 -4.9401 0
M  V30 20949 H 1958.5 -1.23077 -2.72933 0
M  V30 20950 H 1956.05 -0.593265 -1.31211 0
M  V30 20951 H 1958 0.751791 -4.1464 0
M  V30 20952 H 1956.73 1.26089 -3.01279 0
M  V30 20953 H 1955.39 -0.795152 -3.57873 0
M  V30 20954 H 1955.03 1.32887 -4.85129 0
M  V30 20955 H 1954.73 -0.0977528 -5.87519 0
M  V30 20956 H 1956.26 0.817956 -6.05097 0
M  V30 20957 H 1957.67 -1.39968 -5.55951 0
M  V30 20958 H 1956.07 -2.19039 -5.58697 0
M  V30 20959 H 1957.14 -2.43305 -4.19441 0
M  V30 20960 N 1958.48 1.43142 -0.659413 0
M  V30 20961 C 1959.9 1.56203 -0.327538 0
M  V30 20962 C 1960.1 1.64194 1.16801 0
M  V30 20963 O 1959.15 1.60041 1.95303 0
M  V30 20964 C 1960.47 2.81982 -1.04434 0
M  V30 20965 C 1962.02 2.95735 -1.02518 0
M  V30 20966 C 1962.49 4.24354 -1.723 0
M  V30 20967 N 1963.98 4.31232 -1.69094 0
M  V30 20968 C 1964.72 5.29534 -2.19957 0
M  V30 20969 N 1964.21 6.34078 -2.79135 0
M  V30 20970 N 1966.01 5.21229 -2.10421 0
M  V30 20971 H 1958.16 1.36198 -1.62984 0
M  V30 20972 H 1960.42 0.654541 -0.685769 0
M  V30 20973 H 1960.13 2.82162 -2.09947 0
M  V30 20974 H 1960 3.72401 -0.599805 0
M  V30 20975 H 1962.39 2.95092 0.0215626 0
M  V30 20976 H 1962.47 2.06589 -1.50846 0
M  V30 20977 H 1962.11 4.25758 -2.76935 0
M  V30 20978 H 1962.04 5.12408 -1.21433 0
M  V30 20979 H 1964.53 3.56306 -1.25915 0
M  V30 20980 H 1964.85 7.05417 -3.15606 0
M  V30 20981 H 1963.19 6.34684 -2.83199 0
M  V30 20982 H 1966.38 4.38473 -1.63888 0
M  V30 20983 H 1966.55 5.97679 -2.50368 0
M  V30 20984 N 1959.96 0.40173 1.52394 0
M  V30 20985 C 1960.92 -0.41541 2.25404 0
M  V30 20986 C 1961.92 -0.979848 1.27498 0
M  V30 20987 O 1963.11 -0.859891 1.51498 0
M  V30 20988 C 1960.25 -1.58403 3.01863 0
M  V30 20989 H 1961.44 0.223965 2.99063 0
M  V30 20990 H 1958.99 0.154095 1.55539 0
M  V30 20991 H 1959.73 -2.26048 2.32536 0
M  V30 20992 H 1959.51 -1.18586 3.73737 0
M  V30 20993 H 1961 -2.16224 3.57263 0
M  V30 20994 N 1961.44 -1.57047 0.131923 0
M  V30 20995 C 1962.37 -2.19006 -0.809859 0
M  V30 20996 C 1963.35 -1.13384 -1.26799 0
M  V30 20997 O 1964.53 -1.4167 -1.32827 0
M  V30 20998 C 1961.66 -2.79973 -2.05505 0
M  V30 20999 C 1960.62 -3.9129 -1.73424 0
M  V30 21000 C 1959.94 -4.39123 -3.05081 0
M  V30 21001 C 1961.24 -5.12783 -0.992535 0
M  V30 21002 H 1962.94 -2.97958 -0.293522 0
M  V30 21003 H 1960.48 -1.4332 -0.13974 0
M  V30 21004 H 1962.44 -3.2198 -2.71858 0
M  V30 21005 H 1961.16 -1.9833 -2.59486 0
M  V30 21006 H 1959.82 -3.49879 -1.09456 0
M  V30 21007 H 1959.47 -3.54322 -3.57022 0
M  V30 21008 H 1959.17 -5.14197 -2.84385 0
M  V30 21009 H 1960.69 -4.8379 -3.72531 0
M  V30 21010 H 1962.11 -5.51728 -1.55785 0
M  V30 21011 H 1960.5 -5.93522 -0.886062 0
M  V30 21012 H 1961.57 -4.84896 0.0184538 0
M  V30 21013 N 1962.92 0.141865 -1.5696 0
M  V30 21014 C 1964.14 0.868403 -1.87793 0
M  V30 21015 C 1964.56 1.74504 -0.720691 0
M  V30 21016 O 1963.92 1.79859 0.309372 0
M  V30 21017 C 1963.97 1.72086 -3.17913 0
M  V30 21018 O 1963.69 0.879548 -4.2918 0
M  V30 21019 C 1965.19 2.55454 -3.62296 0
M  V30 21020 H 1962.41 0.250842 -0.62235 0
M  V30 21021 H 1964.95 0.133113 -2.04066 0
M  V30 21022 H 1963.11 2.40915 -3.03379 0
M  V30 21023 H 1963.52 1.4653 -5.03616 0
M  V30 21024 H 1965 3.10834 -4.56165 0
M  V30 21025 H 1965.47 3.31735 -2.87834 0
M  V30 21026 H 1966.08 1.91906 -3.79542 0
M  V30 21027 N 1964.39 1.52136 0.411372 0
M  V30 21028 C 1965.62 1.70223 1.18486 0
M  V30 21029 C 1966.04 0.409966 1.83578 0
M  V30 21030 O 1965.4 -0.632366 1.69914 0
M  V30 21031 C 1965.45 2.83744 2.22535 0
M  V30 21032 O 1964.55 2.49157 3.28625 0
M  V30 21033 H 1963.9 0.566741 0.345978 0
M  V30 21034 H 1966.43 1.98829 0.482526 0
M  V30 21035 H 1966.44 3.08591 2.669 0
M  V30 21036 H 1965.11 3.77503 1.74541 0
M  V30 21037 H 1963.69 2.34974 2.89554 0
M  V30 21038 N 1965.87 -0.668464 1.42721 0
M  V30 21039 C 1967.29 -0.982344 1.25786 0
M  V30 21040 C 1967.49 -2.0081 0.166593 0
M  V30 21041 O 1966.55 -2.48273 -0.460069 0
M  V30 21042 C 1967.86 -1.48112 2.61693 0
M  V30 21043 C 1969.41 -1.59856 2.691 0
M  V30 21044 C 1969.88 -2.13128 4.05389 0
M  V30 21045 N 1971.37 -2.20452 4.07376 0
M  V30 21046 C 1972.11 -2.62761 5.09651 0
M  V30 21047 N 1971.6 -3.04475 6.22308 0
M  V30 21048 N 1973.4 -2.62565 4.97007 0
M  V30 21049 H 1965.55 0.0105662 2.12397 0
M  V30 21050 H 1967.81 -0.0578161 0.946235 0
M  V30 21051 H 1967.52 -0.801884 3.42436 0
M  V30 21052 H 1967.39 -2.45879 2.86048 0
M  V30 21053 H 1969.78 -2.26885 1.88699 0
M  V30 21054 H 1969.86 -0.605621 2.48527 0
M  V30 21055 H 1969.5 -1.46707 4.8625 0
M  V30 21056 H 1969.43 -3.13225 4.23317 0
M  V30 21057 H 1971.92 -1.91049 3.2605 0
M  V30 21058 H 1972.24 -3.35463 6.96193 0
M  V30 21059 H 1970.58 -3.02317 6.25803 0
M  V30 21060 H 1973.77 -2.29343 4.08068 0
M  V30 21061 H 1973.95 -2.95217 5.76846 0
M  V30 21062 N 1967.35 -1.28999 -0.905381 0
M  V30 21063 C 1968.6 -1.1641 -1.65207 0
M  V30 21064 C 1968.92 0.285952 -1.92892 0
M  V30 21065 O 1968.19 1.19672 -1.55098 0
M  V30 21066 H 1966.77 -0.427826 -0.612351 0
M  V30 21067 H 1969.43 -1.61845 -1.08592 0
M  V30 21068 H 1968.53 -1.70993 -2.6109 0
M  V30 21069 N 1968.83 1.11497 -1.11383 0
M  V30 21070 C 1969.78 2.19602 -0.766658 0
M  V30 21071 C 1970.77 1.67668 0.241612 0
M  V30 21072 O 1971.98 1.79717 0.100956 0
M  V30 21073 H 1968.35 0.715952 -0.230037 0
M  V30 21074 H 1970.32 2.46131 -1.68707 0
M  V30 21075 C 1969.07 3.46968 -0.225442 0
M  V30 21076 H 1968.4 3.87284 -0.992544 0
M  V30 21077 H 1969.84 4.23995 -0.0207066 0
M  V30 21078 C 1968.29 3.20311 1.04414 0
M  V30 21079 O 1968.82 3.40956 2.12395 0
M  V30 21080 N 1967.03 2.7405 0.966692 0
M  V30 21081 H 1966.58 2.5745 0.0878667 0
M  V30 21082 H 1966.54 2.56591 1.81682 0
M  V30 21083 N 1970.31 0.904053 1.29092 0
M  V30 21084 C 1971.22 0.389825 2.31339 0
M  V30 21085 C 1972.23 -0.517628 1.66122 0
M  V30 21086 O 1973.41 -0.406158 1.97262 0
M  V30 21087 C 1970.47 -0.370468 3.44715 0
M  V30 21088 C 1969.54 0.569032 4.25512 0
M  V30 21089 C 1968.77 -0.155071 5.33475 0
M  V30 21090 O 1968.99 -1.37834 5.53496 0
M  V30 21091 O 1967.93 0.504642 5.99781 0
M  V30 21092 H 1971.75 1.2382 2.77313 0
M  V30 21093 H 1969.34 0.668528 1.33608 0
M  V30 21094 H 1971.22 -0.800237 4.13732 0
M  V30 21095 H 1969.89 -1.19484 3.00841 0
M  V30 21096 H 1968.8 1.048 3.59121 0
M  V30 21097 H 1970.13 1.35994 4.7304 0
M  V30 21098 N 1971.79 -1.4279 0.666995 0
M  V30 21099 C 1972.72 -2.335 -0.00234362 0
M  V30 21100 C 1973.7 -1.50244 -0.797537 0
M  V30 21101 O 1974.88 -1.7887 -0.756257 0
M  V30 21102 C 1972.01 -3.33774 -0.959795 0
M  V30 21103 C 1970.97 -4.27124 -0.273749 0
M  V30 21104 C 1970.29 -5.17544 -1.3436 0
M  V30 21105 C 1971.59 -5.15462 0.842411 0
M  V30 21106 H 1973.29 -2.89719 0.755212 0
M  V30 21107 H 1970.83 -1.39307 0.364622 0
M  V30 21108 H 1972.78 -3.96139 -1.43707 0
M  V30 21109 H 1971.51 -2.75842 -1.74868 0
M  V30 21110 H 1970.17 -3.66142 0.18321 0
M  V30 21111 H 1969.82 -4.55943 -2.12427 0
M  V30 21112 H 1969.52 -5.80825 -0.889738 0
M  V30 21113 H 1971.04 -5.82784 -1.82196 0
M  V30 21114 H 1972.45 -5.71557 0.4467 0
M  V30 21115 H 1970.85 -5.87535 1.22158 0
M  V30 21116 H 1971.92 -4.54327 1.69454 0
M  V30 21117 N 1973.26 -0.409806 -1.52179 0
M  V30 21118 C 1974.17 0.42219 -2.3077 0
M  V30 21119 C 1975.19 1.05295 -1.38524 0
M  V30 21120 O 1976.37 1.05432 -1.71599 0
M  V30 21121 C 1973.43 1.52345 -3.11435 0
M  V30 21122 C 1972.49 0.91568 -4.19421 0
M  V30 21123 C 1971.72 1.96446 -4.9623 0
M  V30 21124 O 1971.95 3.18271 -4.7335 0
M  V30 21125 O 1970.88 1.57032 -5.81055 0
M  V30 21126 H 1974.71 -0.218635 -3.02912 0
M  V30 21127 H 1972.29 -0.172994 -1.48395 0
M  V30 21128 H 1974.17 2.16276 -3.61666 0
M  V30 21129 H 1972.85 2.14886 -2.42086 0
M  V30 21130 H 1971.76 0.239064 -3.73335 0
M  V30 21131 H 1973.09 0.33418 -4.91064 0
M  V30 21132 N 1974.74 1.56975 -0.14025 0
M  V30 21133 C 1975.97 2.00699 0.522938 0
M  V30 21134 C 1976.39 1.01964 1.58066 0
M  V30 21135 O 1975.75 -0.0056107 1.81299 0
M  V30 21136 C 1975.8 3.43203 1.10653 0
M  V30 21137 O 1974.9 3.47447 2.22159 0
M  V30 21138 H 1974.24 0.65143 0.12859 0
M  V30 21139 H 1976.77 2.03246 -0.234993 0
M  V30 21140 H 1976.78 3.81862 1.43686 0
M  V30 21141 H 1975.46 4.14573 0.331913 0
M  V30 21142 H 1974.03 3.20625 1.90405 0
M  V30 21143 N 1976.22 -0.133539 1.57033 0
M  V30 21144 C 1977.47 -0.842358 1.83268 0
M  V30 21145 C 1977.78 -1.81722 0.723634 0
M  V30 21146 O 1978.99 -2.57117 0.871969 0
M  V30 21147 C 1977.44 -1.54868 3.24875 0
M  V30 21148 C 1977.05 -0.615546 4.43751 0
M  V30 21149 C 1978.8 -2.24349 3.60372 0
M  V30 21150 C 1976.7 -1.32426 5.76383 0
M  V30 21151 H 1975.63 -0.318314 0.683515 0
M  V30 21152 H 1978.28 -0.0950741 1.83254 0
M  V30 21153 H 1976.67 -2.34207 3.19316 0
M  V30 21154 H 1977.84 0.143586 4.60576 0
M  V30 21155 H 1976.15 -0.0284595 4.1639 0
M  V30 21156 H 1978.75 -2.78037 4.56727 0
M  V30 21157 H 1979.09 -3.01473 2.87088 0
M  V30 21158 H 1979.63 -1.51914 3.67651 0
M  V30 21159 H 1976.37 -0.594603 6.52798 0
M  V30 21160 H 1975.89 -2.05577 5.6347 0
M  V30 21161 H 1977.57 -1.86148 6.19643 0
M  V30 21162 N 1977.7 -1.52352 -0.403298 0
M  V30 21163 C 1978.66 -1.75482 -1.4744 0
M  V30 21164 C 1979.66 -0.62473 -1.48168 0
M  V30 21165 O 1980.85 -0.892662 -1.4959 0
M  V30 21166 C 1977.98 -1.84253 -2.86817 0
M  V30 21167 H 1979.18 -2.71107 -1.28222 0
M  V30 21168 H 1976.73 -1.42857 -0.634157 0
M  V30 21169 H 1977.46 -0.905623 -3.11398 0
M  V30 21170 H 1977.25 -2.66414 -2.87691 0
M  V30 21171 H 1978.74 -2.03869 -3.64454 0
M  V30 21172 N 1979.18 0.660885 -1.43074 0
M  V30 21173 C 1980.42 1.42086 -1.44284 0
M  V30 21174 C 1980.75 1.94394 -0.0643177 0
M  V30 21175 O 1980.01 1.72217 0.929509 0
M  V30 21176 C 1980.3 2.6246 -2.42589 0
M  V30 21177 C 1979.97 2.28615 -3.88647 0
M  V30 21178 C 1978.63 2.19096 -4.28428 0
M  V30 21179 C 1980.98 2.0139 -4.8072 0
M  V30 21180 C 1978.31 1.80498 -5.58245 0
M  V30 21181 C 1980.66 1.64293 -6.10893 0
M  V30 21182 C 1979.33 1.53294 -6.49659 0
M  V30 21183 H 1978.6 0.519929 -0.527973 0
M  V30 21184 H 1981.25 0.752296 -1.76104 0
M  V30 21185 H 1979.55 3.34413 -2.04145 0
M  V30 21186 H 1981.25 3.20662 -2.40784 0
M  V30 21187 H 1977.84 2.36931 -3.57158 0
M  V30 21188 H 1982.02 2.0767 -4.50763 0
M  V30 21189 H 1977.28 1.70563 -5.87127 0
M  V30 21190 H 1981.45 1.42256 -6.81716 0
M  V30 21191 H 1979.08 1.23156 -7.50158 0
M  V30 21192 N 1980.65 1.29477 0.898527 0
M  V30 21193 C 1982.07 1.07514 1.17953 0
M  V30 21194 C 1982.27 -0.172814 2.00758 0
M  V30 21195 O 1981.33 -0.87025 2.37029 0
M  V30 21196 C 1982.64 2.33121 1.89934 0
M  V30 21197 C 1984.19 2.38452 2.02755 0
M  V30 21198 C 1984.66 3.63866 2.78146 0
M  V30 21199 N 1986.15 3.64595 2.857 0
M  V30 21200 C 1986.89 4.58319 3.44574 0
M  V30 21201 N 1986.38 5.62376 4.04605 0
M  V30 21202 N 1988.18 4.45887 3.42259 0
M  V30 21203 H 1980.33 2.09562 0.346076 0
M  V30 21204 H 1982.59 0.923108 0.215814 0
M  V30 21205 H 1982.3 3.2412 1.36526 0
M  V30 21206 H 1982.17 2.40721 2.90402 0
M  V30 21207 H 1984.56 1.47941 2.55338 0
M  V30 21208 H 1984.64 2.34837 1.01416 0
M  V30 21209 H 1984.28 4.54729 2.26239 0
M  V30 21210 H 1984.21 3.6474 3.79832 0
M  V30 21211 H 1986.7 2.89358 2.43064 0
M  V30 21212 H 1987.02 6.30012 4.47555 0
M  V30 21213 H 1985.36 5.66184 4.03064 0
M  V30 21214 H 1988.55 3.63786 2.9458 0
M  V30 21215 H 1988.73 5.19113 3.87848 0
M  V30 21216 N 1982.13 -1.10905 1.11972 0
M  V30 21217 C 1983.36 -1.87095 0.894991 0
M  V30 21218 C 1983.78 -1.79875 -0.550144 0
M  V30 21219 O 1983.14 -1.16517 -1.38901 0
M  V30 21220 C 1983.19 -3.33634 1.36825 0
M  V30 21221 O 1982.29 -4.08802 0.543553 0
M  V30 21222 H 1981.63 -0.580734 0.321938 0
M  V30 21223 H 1984.16 -1.40152 1.49059 0
M  V30 21224 H 1984.17 -3.84482 1.36519 0
M  V30 21225 H 1982.85 -3.38205 2.42054 0
M  V30 21226 H 1981.43 -3.67824 0.613185 0
M  V30 21227 N 1983.61 -0.910886 -1.2861 0
M  V30 21228 C 1984.52 -0.402088 -2.31129 0
M  V30 21229 C 1985.54 0.508811 -1.66394 0
M  V30 21230 O 1986.71 0.395691 -1.97475 0
M  V30 21231 C 1983.78 0.352182 -3.44907 0
M  V30 21232 C 1982.84 -0.59159 -4.25204 0
M  V30 21233 C 1982.07 0.126778 -5.33549 0
M  V30 21234 O 1982.29 1.34897 -5.54219 0
M  V30 21235 O 1981.23 -0.536442 -5.99505 0
M  V30 21236 H 1985.05 -1.25289 -2.76652 0
M  V30 21237 H 1982.64 -0.675604 -1.33251 0
M  V30 21238 H 1984.52 0.778285 -4.14151 0
M  V30 21239 H 1983.2 1.17886 -3.01471 0
M  V30 21240 H 1982.1 -1.06703 -3.5856 0
M  V30 21241 H 1983.44 -1.38501 -4.72312 0
M  V30 21242 N 1985.09 1.42434 -0.674558 0
M  V30 21243 C 1986.37 1.95196 -0.125683 0
M  V30 21244 C 1986.75 1.61499 1.35946 0
M  V30 21245 O 1986.09 0.911023 2.09553 0
M  V30 21246 C 1986.3 3.46762 -0.39457 0
M  V30 21247 C 1987.65 4.2346 -0.310951 0
M  V30 21248 O 1988.68 3.54684 -0.328304 0
M  V30 21249 O 1987.53 5.45914 -0.252937 0
M  V30 21250 H 1984.63 0.826995 -0.00272875 0
M  V30 21251 H 1987.17 1.52263 -0.749271 0
M  V30 21252 H 1985.95 3.64493 -1.42339 0
M  V30 21253 H 1985.57 3.96742 0.261037 0
M  V30 21254 N 1986.57 0.417871 1.51959 0
M  V30 21255 C 1987.82 -0.156451 2.01092 0
M  V30 21256 C 1988.13 -1.45475 1.30753 0
M  V30 21257 O 1989.33 -2.11085 1.70749 0
M  V30 21258 C 1987.79 -0.329366 3.5839 0
M  V30 21259 C 1987.4 0.957354 4.37651 0
M  V30 21260 C 1989.14 -0.858507 4.15728 0
M  V30 21261 C 1987.05 0.751148 5.8661 0
M  V30 21262 H 1985.98 -0.0622427 0.751427 0
M  V30 21263 H 1988.63 0.544656 1.75231 0
M  V30 21264 H 1987.01 -1.09301 3.80617 0
M  V30 21265 H 1988.19 1.72783 4.2718 0
M  V30 21266 H 1986.5 1.41356 3.91673 0
M  V30 21267 H 1989.1 -1.02896 5.24706 0
M  V30 21268 H 1989.44 -1.83563 3.73645 0
M  V30 21269 H 1989.97 -0.153688 3.97503 0
M  V30 21270 H 1986.71 1.70008 6.3307 0
M  V30 21271 H 1986.23 0.0201287 5.99797 0
M  V30 21272 H 1987.91 0.396724 6.45783 0
M  V30 21273 N 1988.04 -1.56898 0.148573 0
M  V30 21274 C 1989.27 -2.0054 -0.509047 0
M  V30 21275 C 1989.69 -1.02867 -1.58315 0
M  V30 21276 O 1989.04 -0.0259297 -1.82482 0
M  V30 21277 C 1989.1 -3.44093 -1.10825 0
M  V30 21278 O 1988.82 -4.38032 -0.077048 0
M  V30 21279 C 1990.32 -4.03021 -1.84633 0
M  V30 21280 H 1987.54 -0.657812 -0.132378 0
M  V30 21281 H 1990.08 -2.03044 0.243618 0
M  V30 21282 H 1988.24 -3.42436 -1.81153 0
M  V30 21283 H 1988.65 -5.21953 -0.516256 0
M  V30 21284 H 1990.12 -5.05458 -2.21847 0
M  V30 21285 H 1990.6 -3.43821 -2.73283 0
M  V30 21286 H 1991.21 -4.08313 -1.19 0
M  V30 21287 N 1989.52 0.125209 -1.57102 0
M  V30 21288 C 1990.77 0.832437 -1.8416 0
M  V30 21289 C 1991.09 1.80706 -0.732819 0
M  V30 21290 O 1990.36 1.94378 0.243723 0
M  V30 21291 H 1988.94 0.310405 -0.679454 0
M  V30 21292 H 1991.6 0.114013 -1.94566 0
M  V30 21293 H 1990.7 1.38145 -2.79861 0
M  V30 21294 N 1991 1.52564 0.395213 0
M  V30 21295 C 1991.93 1.73146 1.50177 0
M  V30 21296 C 1992.95 0.611895 1.50863 0
M  V30 21297 O 1994.13 0.887429 1.54877 0
M  V30 21298 C 1991.23 1.76943 2.89041 0
M  V30 21299 C 1990.41 3.06156 3.12389 0
M  V30 21300 C 1989.47 3.01581 4.31202 0
M  V30 21301 O 1988.49 3.75459 4.27807 0
M  V30 21302 N 1989.69 2.20335 5.37059 0
M  V30 21303 H 1992.46 2.68617 1.3291 0
M  V30 21304 H 1990.02 1.50975 0.584663 0
M  V30 21305 H 1992.01 1.71396 3.66613 0
M  V30 21306 H 1990.58 0.888857 2.99697 0
M  V30 21307 H 1989.8 3.25242 2.22737 0
M  V30 21308 H 1991.09 3.91607 3.2484 0
M  V30 21309 H 1990.49 1.59768 5.4267 0
M  V30 21310 H 1989.05 2.20634 6.13322 0
M  V30 21311 N 1992.48 -0.653289 1.43422 0
M  V30 21312 C 1993.41 -1.77779 1.51383 0
M  V30 21313 C 1994.39 -1.6606 0.368515 0
M  V30 21314 O 1995.57 -1.85157 0.585721 0
M  V30 21315 C 1992.7 -3.16206 1.43635 0
M  V30 21316 C 1991.66 -3.42688 2.56415 0
M  V30 21317 C 1990.98 -4.80915 2.3372 0
M  V30 21318 C 1992.28 -3.3744 3.98662 0
M  V30 21319 H 1993.98 -1.71374 2.45502 0
M  V30 21320 H 1991.52 -0.823062 1.1816 0
M  V30 21321 H 1993.48 -3.94627 1.47808 0
M  V30 21322 H 1992.2 -3.23341 0.460202 0
M  V30 21323 H 1990.86 -2.66638 2.51594 0
M  V30 21324 H 1990.51 -4.84726 1.34349 0
M  V30 21325 H 1990.21 -4.99594 3.09321 0
M  V30 21326 H 1991.73 -5.61594 2.39677 0
M  V30 21327 H 1993.15 -4.05798 4.0497 0
M  V30 21328 H 1991.54 -3.67656 4.74288 0
M  V30 21329 H 1992.61 -2.35624 4.23803 0
M  V30 21330 N 1993.96 -1.29952 -0.891648 0
M  V30 21331 C 1995.2 -1.18155 -1.63963 0
M  V30 21332 C 1995.53 0.265477 -1.93184 0
M  V30 21333 O 1994.8 1.1802 -1.56359 0
M  V30 21334 H 1993.38 -0.434297 -0.607779 0
M  V30 21335 H 1996.04 -1.62988 -1.06869 0
M  V30 21336 H 1995.13 -1.73753 -2.59261 0
M  V30 21337 N 1995.44 1.1031 -1.12559 0
M  V30 21338 C 1996.38 2.18777 -0.789907 0
M  V30 21339 C 1997.38 1.67915 0.223815 0
M  V30 21340 O 1998.58 1.79814 0.0818894 0
M  V30 21341 H 1994.96 0.713472 -0.237618 0
M  V30 21342 H 1996.93 2.44328 -1.71308 0
M  V30 21343 C 1995.68 3.4671 -0.26223 0
M  V30 21344 H 1995 3.86209 -1.03356 0
M  V30 21345 H 1996.44 4.23949 -0.0656758 0
M  V30 21346 C 1994.9 3.21401 1.01011 0
M  V30 21347 O 1995.43 3.4319 2.08767 0
M  V30 21348 N 1993.64 2.7506 0.937571 0
M  V30 21349 H 1993.18 2.57529 0.0605557 0
M  V30 21350 H 1993.14 2.58503 1.78951 0
M  V30 21351 N 1996.91 0.917694 1.28125 0
M  V30 21352 C 1997.86 0.399355 2.29146 0
M  V30 21353 C 1998.86 -0.511045 1.61508 0
M  V30 21354 O 2000.06 -0.391853 1.75683 0
M  V30 21355 H 1996.44 0.110553 0.743829 0
M  V30 21356 H 1998.41 1.26438 2.70289 0
M  V30 21357 C 1997.16 -0.34177 3.46016 0
M  V30 21358 H 1996.48 0.349564 3.98269 0
M  V30 21359 H 1997.92 -0.669035 4.18688 0
M  V30 21360 C 1996.38 -1.55111 2.99069 0
M  V30 21361 O 1996.91 -2.65012 3.0188 0
M  V30 21362 N 1995.11 -1.39946 2.54683 0
M  V30 21363 H 1994.66 -0.505341 2.52595 0
M  V30 21364 H 1994.62 -2.20989 2.23632 0
M  V30 21365 N 1998.39 -1.42074 0.682102 0
M  V30 21366 C 1999.67 -1.95126 0.136033 0
M  V30 21367 C 2000.05 -1.62218 -1.35088 0
M  V30 21368 O 1999.4 -0.922124 -2.09067 0
M  V30 21369 C 1999.61 -3.46548 0.412954 0
M  V30 21370 C 2000.95 -4.23289 0.333404 0
M  V30 21371 O 2001.98 -3.54505 0.34711 0
M  V30 21372 O 2000.84 -5.45773 0.281884 0
M  V30 21373 H 1997.93 -0.826969 0.00711447 0
M  V30 21374 H 2000.48 -1.51864 0.757335 0
M  V30 21375 H 1999.25 -3.63733 1.4427 0
M  V30 21376 H 1998.87 -3.96875 -0.239993 0
M  V30 21377 N 1999.87 -0.425924 -1.51735 0
M  V30 21378 C 2001.15 0.203721 -1.94536 0
M  V30 21379 C 2001.53 1.61124 -1.3639 0
M  V30 21380 O 2000.87 2.21871 -0.54638 0
M  V30 21381 C 2001.08 0.193041 -3.48466 0
M  V30 21382 C 2002.43 0.404204 -4.22672 0
M  V30 21383 O 2003.46 0.271662 -3.55163 0
M  V30 21384 O 2002.32 0.666926 -5.42415 0
M  V30 21385 H 1999.41 0.136115 -0.815722 0
M  V30 21386 H 2001.96 -0.48308 -1.62679 0
M  V30 21387 H 2000.73 -0.791421 -3.83213 0
M  V30 21388 H 2000.35 0.923235 -3.86733 0
M  V30 21389 N 2001.35 1.56817 -0.156891 0
M  V30 21390 C 2002.28 2.20266 0.774915 0
M  V30 21391 C 2003.26 1.15387 1.24979 0
M  V30 21392 O 2004.44 1.43766 1.30557 0
M  V30 21393 C 2001.57 2.83207 2.01025 0
M  V30 21394 C 2000.53 3.94 1.67177 0
M  V30 21395 C 1999.85 4.43921 2.98057 0
M  V30 21396 C 2001.15 5.14297 0.91083 0
M  V30 21397 H 2002.85 2.98387 0.246082 0
M  V30 21398 H 2000.39 1.43525 0.116921 0
M  V30 21399 H 2002.35 3.26264 2.66701 0
M  V30 21400 H 2001.07 2.02433 2.56298 0
M  V30 21401 H 1999.73 3.51576 1.03876 0
M  V30 21402 H 1999.38 3.59957 3.5134 0
M  V30 21403 H 1999.08 5.18657 2.76169 0
M  V30 21404 H 2000.6 4.89656 3.64787 0
M  V30 21405 H 2002.02 5.54137 1.46988 0
M  V30 21406 H 2000.41 5.94857 0.791526 0
M  V30 21407 H 2001.48 4.84806 -0.0955943 0
M  V30 21408 N 2002.83 -0.116876 1.57166 0
M  V30 21409 C 2004.07 -0.822873 1.84151 0
M  V30 21410 C 2004.39 -1.80944 0.742867 0
M  V30 21411 O 2005.59 -2.56177 0.89919 0
M  V30 21412 C 2004.05 -1.51414 3.26499 0
M  V30 21413 C 2003.66 -0.568446 4.44379 0
M  V30 21414 C 2005.4 -2.20514 3.62731 0
M  V30 21415 C 2003.31 -1.26306 5.77755 0
M  V30 21416 H 2002.24 -0.311047 0.686852 0
M  V30 21417 H 2004.89 -0.0756323 1.83344 0
M  V30 21418 H 2003.27 -2.30807 3.21782 0
M  V30 21419 H 2004.45 0.192429 4.60398 0
M  V30 21420 H 2002.76 0.0157058 4.16397 0
M  V30 21421 H 2005.36 -2.73177 4.5965 0
M  V30 21422 H 2005.7 -2.98411 2.90269 0
M  V30 21423 H 2006.23 -1.48006 3.69241 0
M  V30 21424 H 2002.97 -0.525332 6.53392 0
M  V30 21425 H 2002.49 -1.99589 5.65618 0
M  V30 21426 H 2004.17 -1.79566 6.21583 0
M  V30 21427 N 2004.3 -1.52772 -0.387116 0
M  V30 21428 C 2005.23 -1.80654 -1.47941 0
M  V30 21429 C 2006.21 -0.658677 -1.56829 0
M  V30 21430 O 2007.4 -0.906449 -1.71747 0
M  V30 21431 C 2004.53 -1.97709 -2.85532 0
M  V30 21432 C 2003.48 -3.13404 -2.91482 0
M  V30 21433 C 2002.81 -3.15717 -4.3154 0
M  V30 21434 C 2004.11 -4.52437 -2.60957 0
M  V30 21435 H 2005.8 -2.72123 -1.24858 0
M  V30 21436 H 2003.35 -1.30941 -0.59921 0
M  V30 21437 H 2005.3 -2.15798 -3.61952 0
M  V30 21438 H 2004.03 -1.02931 -3.09956 0
M  V30 21439 H 2002.69 -2.95102 -2.1751 0
M  V30 21440 H 2002.33 -2.18618 -4.53007 0
M  V30 21441 H 2002.03 -3.93437 -4.36441 0
M  V30 21442 H 2003.56 -3.35963 -5.09864 0
M  V30 21443 H 2004.97 -4.70831 -3.27095 0
M  V30 21444 H 2003.37 -5.32238 -2.77205 0
M  V30 21445 H 2004.44 -4.59022 -1.5629 0
M  V30 21446 N 2005.78 0.645673 -1.43767 0
M  V30 21447 C 2007.01 1.43799 -1.49454 0
M  V30 21448 C 2007.43 1.87742 -0.115948 0
M  V30 21449 O 2006.79 1.57845 0.891891 0
M  V30 21450 C 2006.84 2.64416 -2.45186 0
M  V30 21451 O 2005.94 3.63742 -1.94334 0
M  V30 21452 H 2005.28 0.430858 -0.50523 0
M  V30 21453 H 2007.81 0.789424 -1.88757 0
M  V30 21454 H 2007.82 3.12139 -2.62741 0
M  V30 21455 H 2006.5 2.31776 -3.4533 0
M  V30 21456 H 2005.07 3.22926 -1.86476 0
M  V30 21457 N 2007.26 1.30423 0.884744 0
M  V30 21458 C 2008.5 1.20543 1.65072 0
M  V30 21459 C 2008.86 -0.236066 1.90543 0
M  V30 21460 O 2010.06 -0.458107 2.64868 0
M  V30 21461 C 2008.34 2.01135 2.95431 0
M  V30 21462 S 2009.89 2.07956 3.86393 0
M  V30 21463 H 2006.71 0.429572 0.566559 0
M  V30 21464 H 2009.31 1.64901 1.05014 0
M  V30 21465 H 2008.02 3.04981 2.74618 0
M  V30 21466 H 2007.55 1.57439 3.60522 0
M  V30 21467 H 2009.56 1.20711 4.81293 0
M  V30 21468 N 2008.74 -1.09711 1.13142 0
M  V30 21469 C 2009.98 -1.83443 0.901552 0
M  V30 21470 C 2010.34 -1.83582 -0.562273 0
M  V30 21471 O 2011.54 -2.52942 -0.909595 0
M  V30 21472 C 2009.81 -3.25783 1.4697 0
M  V30 21473 S 2011.37 -4.16553 1.37946 0
M  V30 21474 H 2008.19 -0.632354 0.325037 0
M  V30 21475 H 2010.79 -1.31968 1.44238 0
M  V30 21476 H 2009.5 -3.23256 2.52851 0
M  V30 21477 H 2009.03 -3.8233 0.926688 0
M  V30 21478 H 2011.04 -4.94922 0.355933 0
M  V30 21479 N 2010.22 -0.924476 -1.27637 0
M  V30 21480 C 2011.15 -0.438348 -2.29349 0
M  V30 21481 C 2012.13 0.499673 -1.62595 0
M  V30 21482 O 2013.31 0.405114 -1.89928 0
M  V30 21483 C 2010.44 0.312668 -3.4589 0
M  V30 21484 C 2009.4 -0.537216 -4.24615 0
M  V30 21485 C 2008.72 0.342776 -5.336 0
M  V30 21486 C 2010.02 -1.80003 -4.90302 0
M  V30 21487 H 2011.72 -1.28838 -2.70261 0
M  V30 21488 H 2009.26 -0.620964 -1.29923 0
M  V30 21489 H 2011.22 0.66367 -4.16141 0
M  V30 21490 H 2009.94 1.1967 -3.03886 0
M  V30 21491 H 2008.6 -0.870883 -3.56106 0
M  V30 21492 H 2008.25 1.22567 -4.87838 0
M  V30 21493 H 2007.95 -0.222352 -5.87179 0
M  V30 21494 H 2009.47 0.689422 -6.06695 0
M  V30 21495 H 2010.88 -1.51729 -5.52857 0
M  V30 21496 H 2009.28 -2.3084 -5.53925 0
M  V30 21497 H 2010.35 -2.52148 -4.14186 0
M  V30 21498 N 2011.69 1.41711 -0.689627 0
M  V30 21499 C 2012.64 2.28 0.00249406 0
M  V30 21500 C 2013.63 1.41884 0.75879 0
M  V30 21501 O 2014.82 1.65207 0.635261 0
M  V30 21502 C 2011.95 3.30111 0.942438 0
M  V30 21503 C 2011.04 4.23706 0.182705 0
M  V30 21504 N 2011.43 4.99103 -0.820339 0
M  V30 21505 C 2009.72 4.44027 0.41904 0
M  V30 21506 C 2010.43 5.67564 -1.27459 0
M  V30 21507 N 2009.4 5.4026 -0.60165 0
M  V30 21508 H 2013.2 2.83725 -0.766648 0
M  V30 21509 H 2010.72 1.53851 -0.519952 0
M  V30 21510 H 2012.71 3.90746 1.45338 0
M  V30 21511 H 2011.37 2.75947 1.71124 0
M  V30 21512 H 2012.39 5.03797 -1.20038 0
M  V30 21513 H 2009.06 4.00882 1.16619 0
M  V30 21514 H 2010.45 6.38022 -2.10659 0
M  V30 21515 N 2013.17 0.433965 1.51507 0
M  V30 21516 C 2014.4 -0.132211 2.06177 0
M  V30 21517 C 2014.81 -1.37301 1.30174 0
M  V30 21518 O 2014.15 -1.80262 0.353712 0
M  V30 21519 C 2014.22 -0.523141 3.55673 0
M  V30 21520 C 2013.88 0.610379 4.52905 0
M  V30 21521 C 2014.88 1.4815 4.98345 0
M  V30 21522 C 2012.56 0.79015 4.96046 0
M  V30 21523 C 2014.56 2.51711 5.85594 0
M  V30 21524 C 2012.24 1.82904 5.83086 0
M  V30 21525 C 2013.24 2.69091 6.27757 0
M  V30 21526 O 2012.93 3.71197 7.13069 0
M  V30 21527 H 2012.66 -0.0128686 0.675878 0
M  V30 21528 H 2015.21 0.610848 1.96107 0
M  V30 21529 H 2013.44 -1.31885 3.63515 0
M  V30 21530 H 2015.13 -1.02008 3.92873 0
M  V30 21531 H 2015.9 1.35413 4.65713 0
M  V30 21532 H 2011.78 0.12889 4.6082 0
M  V30 21533 H 2015.32 3.19016 6.20383 0
M  V30 21534 H 2011.22 1.95662 6.15131 0
M  V30 21535 H 2011.99 3.67738 7.31239 0
M  V30 21536 N 2014.65 -1.56732 0.165206 0
M  V30 21537 C 2015.89 -1.98591 -0.483841 0
M  V30 21538 C 2016.25 -1.04869 -1.6083 0
M  V30 21539 O 2017.46 -1.35844 -2.31948 0
M  V30 21540 C 2015.73 -3.44262 -0.960121 0
M  V30 21541 S 2017.29 -4.08149 -1.61121 0
M  V30 21542 H 2014.1 -0.693711 -0.155842 0
M  V30 21543 H 2016.71 -1.93747 0.261223 0
M  V30 21544 H 2015.41 -4.1019 -0.131229 0
M  V30 21545 H 2014.94 -3.52859 -1.73937 0
M  V30 21546 H 2016.96 -4.02695 -2.89915 0
M  V30 21547 N 2016.13 0.10854 -1.57226 0
M  V30 21548 C 2017.08 1.1326 -2.01099 0
M  V30 21549 C 2018.05 1.40564 -0.884932 0
M  V30 21550 O 2019.23 1.52253 -1.14994 0
M  V30 21551 C 2016.37 2.45125 -2.42915 0
M  V30 21552 C 2015.48 2.24667 -3.68983 0
M  V30 21553 C 2014.62 3.49836 -3.99736 0
M  V30 21554 C 2013.66 3.24581 -5.18954 0
M  V30 21555 N 2012.79 4.4198 -5.45525 0
M  V30 21556 H 2017.63 0.751475 -2.88369 0
M  V30 21557 H 2015.17 0.359547 -1.42638 0
M  V30 21558 H 2017.13 3.22063 -2.652 0
M  V30 21559 H 2015.76 2.8111 -1.58673 0
M  V30 21560 H 2014.81 1.38595 -3.54253 0
M  V30 21561 H 2016.12 2.01989 -4.56072 0
M  V30 21562 H 2015.28 4.35188 -4.22725 0
M  V30 21563 H 2014.02 3.75555 -3.11143 0
M  V30 21564 H 2013.02 2.37621 -4.95799 0
M  V30 21565 H 2014.25 3.00222 -6.09134 0
M  V30 21566 H 2012.19 4.678 -4.5989 0
M  V30 21567 H 2012.11 4.22445 -6.26958 0
M  V30 21568 H 2013.38 5.28436 -5.73041 0
M  V30 21569 N 2017.61 1.52975 0.379009 0
M  V30 21570 C 2018.88 1.59096 1.13789 0
M  V30 21571 C 2019.26 0.390236 2.07462 0
M  V30 21572 O 2018.61 -0.620644 2.1991 0
M  V30 21573 C 2018.82 2.93471 1.8888 0
M  V30 21574 C 2020.17 3.47567 2.43889 0
M  V30 21575 O 2021.19 2.95411 1.99024 0
M  V30 21576 O 2020.05 4.38714 3.25871 0
M  V30 21577 H 2017.15 0.64208 0.521213 0
M  V30 21578 H 2019.69 1.65313 0.383355 0
M  V30 21579 H 2018.46 3.72304 1.20438 0
M  V30 21580 H 2018.09 2.90684 2.71272 0
M  V30 21581 N 2019.08 -0.63804 1.44107 0
M  V30 21582 C 2020.03 -1.75032 1.5044 0
M  V30 21583 C 2021 -1.62312 0.352721 0
M  V30 21584 O 2022.19 -1.82335 0.562 0
M  V30 21585 C 2019.33 -3.13253 1.44798 0
M  V30 21586 C 2018.44 -3.37 2.70287 0
M  V30 21587 C 2017.57 -4.65154 2.56526 0
M  V30 21588 C 2016.61 -4.82055 3.77212 0
M  V30 21589 N 2015.75 -6.0148 3.62169 0
M  V30 21590 H 2020.59 -1.68954 2.45476 0
M  V30 21591 H 2018.13 -0.82428 1.21836 0
M  V30 21592 H 2020.09 -3.9318 1.39518 0
M  V30 21593 H 2018.72 -3.18364 0.53334 0
M  V30 21594 H 2017.77 -2.51062 2.85783 0
M  V30 21595 H 2019.08 -3.4537 3.5989 0
M  V30 21596 H 2018.23 -5.5323 2.4904 0
M  V30 21597 H 2016.97 -4.5913 1.64472 0
M  V30 21598 H 2015.98 -3.9241 3.8509 0
M  V30 21599 H 2017.2 -4.89898 4.70294 0
M  V30 21600 H 2015.15 -5.96559 2.72861 0
M  V30 21601 H 2015.07 -6.10876 4.45384 0
M  V30 21602 H 2016.33 -6.92137 3.58562 0
M  V30 21603 N 2020.56 -1.3089 -0.877815 0
M  V30 21604 C 2021.53 -1.17848 -1.96582 0
M  V30 21605 C 2022.53 -0.10772 -1.60439 0
M  V30 21606 O 2023.72 -0.356388 -1.70515 0
M  V30 21607 C 2020.85 -0.80715 -3.31207 0
M  V30 21608 H 2022.04 -2.14516 -2.09578 0
M  V30 21609 H 2019.59 -1.14389 -1.06512 0
M  V30 21610 H 2020.33 0.158713 -3.23911 0
M  V30 21611 H 2020.11 -1.58105 -3.58811 0
M  V30 21612 H 2021.6 -0.739575 -4.10999 0
M  V30 21613 N 2022.04 1.0911 -1.13723 0
M  V30 21614 C 2022.99 2.15834 -0.817576 0
M  V30 21615 C 2023.96 1.64613 0.221749 0
M  V30 21616 O 2025.14 1.90572 0.0932703 0
M  V30 21617 C 2022.28 3.43851 -0.293315 0
M  V30 21618 C 2021.4 4.08956 -1.39208 0
M  V30 21619 C 2020.53 5.24741 -0.825823 0
M  V30 21620 C 2019.57 5.81774 -1.90277 0
M  V30 21621 N 2018.71 6.88916 -1.35421 0
M  V30 21622 H 2023.55 2.42519 -1.73172 0
M  V30 21623 H 2021.08 1.19026 -0.864368 0
M  V30 21624 H 2023.04 4.1719 0.0288002 0
M  V30 21625 H 2021.67 3.17474 0.583951 0
M  V30 21626 H 2020.72 3.33449 -1.83073 0
M  V30 21627 H 2022.04 4.47372 -2.2059 0
M  V30 21628 H 2021.19 6.0499 -0.455184 0
M  V30 21629 H 2019.93 4.87696 0.0190362 0
M  V30 21630 H 2018.93 5.00185 -2.28244 0
M  V30 21631 H 2020.16 6.2088 -2.75109 0
M  V30 21632 H 2018.1 6.53844 -0.531412 0
M  V30 21633 H 2018.02 7.26118 -2.10448 0
M  V30 21634 H 2019.29 7.72913 -1.01125 0
M  V30 21635 N 2023.52 0.931232 1.27145 0
M  V30 21636 C 2024.8 0.491789 1.89317 0
M  V30 21637 C 2025.18 -1.03026 1.84252 0
M  V30 21638 O 2024.52 -1.88596 1.29011 0
M  V30 21639 C 2024.73 1.04187 3.33086 0
M  V30 21640 C 2026.08 1.1045 4.09983 0
M  V30 21641 O 2027.11 0.991747 3.42115 0
M  V30 21642 O 2025.96 1.27861 5.31332 0
M  V30 21643 H 2023.06 0.158746 0.811621 0
M  V30 21644 H 2025.6 1.02315 1.35387 0
M  V30 21645 H 2024.38 2.08566 3.31083 0
M  V30 21646 H 2024 0.492365 3.9454 0
M  V30 21647 N 2025 -1.41343 0.697132 0
M  V30 21648 C 2026.24 -2.01204 0.22876 0
M  V30 21649 C 2026.57 -1.55215 -1.17211 0
M  V30 21650 O 2025.83 -0.754886 -1.80555 0
M  V30 21651 C 2026.13 -3.56617 0.236459 0
M  V30 21652 C 2025.79 -4.22121 1.58507 0
M  V30 21653 C 2024.45 -4.39729 1.95427 0
M  V30 21654 C 2026.81 -4.58835 2.47224 0
M  V30 21655 C 2024.13 -4.91328 3.20646 0
M  V30 21656 C 2026.49 -5.11825 3.71777 0
M  V30 21657 C 2025.15 -5.27643 4.08838 0
M  V30 21658 H 2024.42 -0.736257 0.0837091 0
M  V30 21659 H 2027.07 -1.69218 0.89653 0
M  V30 21660 H 2025.37 -3.88402 -0.514862 0
M  V30 21661 H 2027.07 -4.00743 -0.14349 0
M  V30 21662 H 2023.66 -4.08792 1.28791 0
M  V30 21663 H 2027.84 -4.44885 2.1998 0
M  V30 21664 H 2023.1 -5.01759 3.49353 0
M  V30 21665 H 2027.27 -5.39213 4.40706 0
M  V30 21666 H 2024.9 -5.67388 5.05939 0
M  V30 21667 N 2026.48 -0.441993 -1.51275 0
M  V30 21668 C 2027.41 0.412439 -2.24442 0
M  V30 21669 C 2028.39 1.02082 -1.26563 0
M  V30 21670 O 2029.57 1.06238 -1.5571 0
M  V30 21671 C 2026.7 1.57525 -2.99839 0
M  V30 21672 C 2025.74 1.08711 -4.12413 0
M  V30 21673 S 2026.58 0.025352 -5.35494 0
M  V30 21674 C 2027.73 1.19273 -6.14431 0
M  V30 21675 H 2027.97 -0.208728 -2.96566 0
M  V30 21676 H 2025.5 -0.226557 -1.52729 0
M  V30 21677 H 2027.46 2.24185 -3.43877 0
M  V30 21678 H 2026.12 2.16785 -2.27295 0
M  V30 21679 H 2025.31 1.95679 -4.64463 0
M  V30 21680 H 2024.91 0.498677 -3.70661 0
M  V30 21681 H 2027.2 2.11018 -6.438 0
M  V30 21682 H 2028.15 0.712094 -7.0451 0
M  V30 21683 H 2028.56 1.4334 -5.45998 0
M  V30 21684 N 2027.95 1.56642 -0.173515 0
M  V30 21685 C 2029.36 1.83525 0.342837 0
M  V30 21686 C 2029.72 1.0934 1.62908 0
M  V30 21687 O 2028.84 0.347154 2.13597 0
M  V30 21688 C 2029.44 3.32914 0.628798 0
M  V30 21689 C 2027.99 3.60285 1.08958 0
M  V30 21690 C 2027.14 2.77011 0.126621 0
M  V30 21691 H 2030.09 1.53635 -0.397736 0
M  V30 21692 H 2030.11 3.50511 1.48061 0
M  V30 21693 H 2029.63 3.8688 -0.307526 0
M  V30 21694 H 2027.73 3.11732 2.04093 0
M  V30 21695 H 2027.84 4.68607 0.997222 0
M  V30 21696 H 2026.2 2.46928 0.624406 0
M  V30 21697 H 2026.99 3.33758 -0.803763 0
M  V30 21698 N 2029.43 -0.1002 1.57281 0
M  V30 21699 C 2030.39 -1.10612 2.00743 0
M  V30 21700 C 2031.39 -1.33241 0.900199 0
M  V30 21701 O 2032.58 -1.2944 1.1658 0
M  V30 21702 C 2029.72 -2.45642 2.36375 0
M  V30 21703 H 2030.91 -0.732144 2.90826 0
M  V30 21704 H 2028.46 -0.345091 1.52443 0
M  V30 21705 H 2029.2 -2.87925 1.4923 0
M  V30 21706 H 2028.98 -2.30567 3.17146 0
M  V30 21707 H 2030.47 -3.18002 2.70674 0
M  V30 21708 N 2030.91 -1.53174 -0.370891 0
M  V30 21709 C 2032.13 -1.73304 -1.13932 0
M  V30 21710 C 2032.56 -0.458494 -1.82427 0
M  V30 21711 O 2031.92 0.587094 -1.71531 0
M  V30 21712 C 2031.97 -2.89544 -2.14933 0
M  V30 21713 O 2031.07 -2.57782 -3.21904 0
M  V30 21714 H 2030.41 -0.575715 -0.33083 0
M  V30 21715 H 2032.94 -2.00038 -0.429641 0
M  V30 21716 H 2032.95 -3.15559 -2.58625 0
M  V30 21717 H 2031.63 -3.81998 -1.64471 0
M  V30 21718 H 2030.2 -2.42568 -2.83223 0
M  V30 21719 N 2032.39 0.630389 -1.44443 0
M  V30 21720 C 2033.33 1.74232 -1.51367 0
M  V30 21721 C 2034.3 1.62122 -0.361324 0
M  V30 21722 O 2035.49 1.82035 -0.571662 0
M  V30 21723 C 2032.63 3.12481 -1.46457 0
M  V30 21724 C 2031.74 3.35561 -2.72071 0
M  V30 21725 C 2030.88 4.63787 -2.58989 0
M  V30 21726 C 2029.92 4.80048 -3.79764 0
M  V30 21727 N 2029.05 5.99551 -3.65354 0
M  V30 21728 H 2033.89 1.6765 -2.46368 0
M  V30 21729 H 2031.43 0.817807 -1.22272 0
M  V30 21730 H 2033.39 3.92435 -1.41601 0
M  V30 21731 H 2032.02 3.18076 -0.550216 0
M  V30 21732 H 2031.07 2.49543 -2.8711 0
M  V30 21733 H 2032.38 3.43456 -3.61717 0
M  V30 21734 H 2031.54 5.51902 -2.51971 0
M  V30 21735 H 2030.28 4.58251 -1.66905 0
M  V30 21736 H 2029.28 3.90362 -3.87166 0
M  V30 21737 H 2030.51 4.87397 -4.72886 0
M  V30 21738 H 2028.45 5.95104 -2.76021 0
M  V30 21739 H 2028.37 6.08505 -4.48617 0
M  V30 21740 H 2029.64 6.90226 -3.62228 0
M  V30 21741 N 2033.87 1.31354 0.870861 0
M  V30 21742 C 2034.78 1.20887 2.01056 0
M  V30 21743 C 2035.79 0.125768 1.73545 0
M  V30 21744 O 2036.97 0.3434 1.98451 0
M  V30 21745 C 2034.03 0.915879 3.34384 0
M  V30 21746 C 2033.09 2.08579 3.75225 0
M  V30 21747 C 2032.33 1.80668 5.0219 0
M  V30 21748 O 2032.55 0.741377 5.65561 0
M  V30 21749 O 2031.48 2.66319 5.39776 0
M  V30 21750 H 2035.31 2.16661 2.12819 0
M  V30 21751 H 2032.89 1.11084 0.999031 0
M  V30 21752 H 2034.78 0.768289 4.14337 0
M  V30 21753 H 2033.45 -0.0118355 3.23698 0
M  V30 21754 H 2032.36 2.28877 2.95916 0
M  V30 21755 H 2033.69 2.99572 3.90535 0
M  V30 21756 N 2035.34 -1.08505 1.143 0
M  V30 21757 C 2036.25 -2.18944 0.84266 0
M  V30 21758 C 2037.27 -1.73103 -0.17648 0
M  V30 21759 O 2038.45 -2.01399 -0.0052364 0
M  V30 21760 C 2035.51 -3.45189 0.323347 0
M  V30 21761 C 2034.57 -4.05661 1.40492 0
M  V30 21762 C 2033.8 -5.2588 0.910289 0
M  V30 21763 O 2034.03 -5.69858 -0.248616 0
M  V30 21764 O 2032.96 -5.77722 1.68882 0
M  V30 21765 H 2036.79 -2.47104 1.76559 0
M  V30 21766 H 2034.37 -1.17621 0.921181 0
M  V30 21767 H 2036.25 -4.21381 0.039611 0
M  V30 21768 H 2034.93 -3.18608 -0.571874 0
M  V30 21769 H 2033.84 -3.31061 1.7421 0
M  V30 21770 H 2035.17 -4.36488 2.27462 0
M  V30 21771 N 2036.82 -0.937962 -1.26649 0
M  V30 21772 C 2038.23 -0.626942 -1.75859 0
M  V30 21773 C 2038.58 0.857893 -1.7645 0
M  V30 21774 O 2037.71 1.67138 -1.37455 0
M  V30 21775 C 2038.3 -1.13131 -3.19354 0
M  V30 21776 C 2036.86 -0.870769 -3.66189 0
M  V30 21777 C 2036.01 -1.28409 -2.45777 0
M  V30 21778 H 2038.96 -1.11662 -1.12771 0
M  V30 21779 H 2038.98 -0.483659 -3.77414 0
M  V30 21780 H 2038.49 -2.21201 -3.18891 0
M  V30 21781 H 2036.59 0.195688 -3.72086 0
M  V30 21782 H 2036.71 -1.49552 -4.55161 0
M  V30 21783 H 2035.07 -0.702547 -2.44819 0
M  V30 21784 H 2035.85 -2.37365 -2.48017 0
M  V30 21785 N 2038.3 1.40971 -0.704618 0
M  V30 21786 C 2039.55 2.00309 -0.236478 0
M  V30 21787 C 2039.86 1.56482 1.17358 0
M  V30 21788 O 2041.07 2.08442 1.73966 0
M  V30 21789 C 2039.52 3.57974 -0.371877 0
M  V30 21790 C 2039.13 4.10779 -1.78788 0
M  V30 21791 C 2040.88 4.24485 0.0360284 0
M  V30 21792 C 2038.78 5.60909 -1.87445 0
M  V30 21793 H 2037.71 0.749233 -0.0846557 0
M  V30 21794 H 2040.36 1.61342 -0.874125 0
M  V30 21795 H 2038.75 3.94587 0.334172 0
M  V30 21796 H 2039.92 3.85565 -2.52342 0
M  V30 21797 H 2038.23 3.56826 -2.14626 0
M  V30 21798 H 2040.83 5.34699 -0.00808813 0
M  V30 21799 H 2041.17 4.02149 1.07621 0
M  V30 21800 H 2041.71 3.92938 -0.620069 0
M  V30 21801 H 2038.45 5.88084 -2.89546 0
M  V30 21802 H 2037.97 5.88021 -1.18287 0
M  V30 21803 H 2039.65 6.25831 -1.6415 0
M  V30 21804 N 2039.78 0.45001 1.51039 0
M  V30 21805 C 2041.19 0.10298 1.59267 0
M  V30 21806 C 2041.39 -1.38881 1.45995 0
M  V30 21807 O 2040.45 -2.16003 1.30763 0
M  V30 21808 C 2041.76 0.634392 2.93932 0
M  V30 21809 C 2043.31 0.59595 3.07274 0
M  V30 21810 C 2043.79 1.10455 4.44481 0
M  V30 21811 N 2045.28 1.06307 4.50836 0
M  V30 21812 C 2046.01 1.42733 5.55351 0
M  V30 21813 N 2045.51 1.86506 6.67224 0
M  V30 21814 N 2047.3 1.34469 5.45779 0
M  V30 21815 H 2039.45 1.42049 1.57911 0
M  V30 21816 H 2041.72 0.586142 0.745078 0
M  V30 21817 H 2041.42 1.67863 3.09055 0
M  V30 21818 H 2041.3 0.0662668 3.77142 0
M  V30 21819 H 2043.68 -0.439332 2.91811 0
M  V30 21820 H 2043.76 1.20063 2.25873 0
M  V30 21821 H 2043.41 2.13836 4.60692 0
M  V30 21822 H 2043.34 0.476284 5.24442 0
M  V30 21823 H 2045.83 0.741765 3.70549 0
M  V30 21824 H 2046.14 2.12505 7.43009 0
M  V30 21825 H 2044.49 1.90443 6.68398 0
M  V30 21826 H 2047.68 1.00128 4.57266 0
M  V30 21827 H 2047.85 1.63185 6.27116 0
M  V30 21828 N 2041.26 -1.56548 0.18182 0
M  V30 21829 C 2042.19 -2.21471 -0.739774 0
M  V30 21830 C 2043.17 -1.17361 -1.23128 0
M  V30 21831 O 2044.35 -1.45825 -1.28253 0
M  V30 21832 C 2041.48 -2.86369 -1.96494 0
M  V30 21833 C 2040.44 -3.96609 -1.60888 0
M  V30 21834 C 2039.76 -4.48607 -2.90957 0
M  V30 21835 C 2041.06 -5.15681 -0.828895 0
M  V30 21836 H 2042.76 -2.98741 -0.19858 0
M  V30 21837 H 2040.3 -1.43692 -0.0940725 0
M  V30 21838 H 2042.26 -3.30466 -2.61477 0
M  V30 21839 H 2040.98 -2.06485 -2.53045 0
M  V30 21840 H 2039.64 -3.53184 -0.982694 0
M  V30 21841 H 2039.29 -3.65501 -3.45569 0
M  V30 21842 H 2038.99 -5.22984 -2.67882 0
M  V30 21843 H 2040.51 -4.95397 -3.56951 0
M  V30 21844 H 2041.92 -5.56405 -1.38153 0
M  V30 21845 H 2040.32 -5.96041 -0.696789 0
M  V30 21846 H 2041.39 -4.84592 0.172711 0
M  V30 21847 N 2042.73 0.0918577 -1.57332 0
M  V30 21848 C 2043.66 1.11191 -2.05326 0
M  V30 21849 C 2044.65 1.41581 -0.942802 0
M  V30 21850 O 2045.83 1.51555 -1.21428 0
M  V30 21851 C 2042.96 2.4309 -2.48041 0
M  V30 21852 C 2041.91 2.271 -3.6278 0
M  V30 21853 C 2041.24 3.64205 -3.91482 0
M  V30 21854 C 2042.54 1.70886 -4.93554 0
M  V30 21855 H 2044.23 0.712608 -2.90796 0
M  V30 21856 H 2041.78 0.341338 -1.39896 0
M  V30 21857 H 2043.73 3.14724 -2.80226 0
M  V30 21858 H 2042.46 2.84962 -1.59575 0
M  V30 21859 H 2041.12 1.57911 -3.30847 0
M  V30 21860 H 2040.76 4.03611 -3.00179 0
M  V30 21861 H 2040.46 3.54352 -4.68731 0
M  V30 21862 H 2041.99 4.37302 -4.26145 0
M  V30 21863 H 2043.4 2.32364 -5.24099 0
M  V30 21864 H 2041.8 1.71783 -5.74987 0
M  V30 21865 H 2042.87 0.668569 -4.80269 0
M  V30 21866 N 2044.21 1.53368 0.362763 0
M  V30 21867 C 2045.63 1.43203 0.704623 0
M  V30 21868 C 2045.83 0.573363 1.9317 0
M  V30 21869 O 2044.88 0.0568943 2.52436 0
M  V30 21870 C 2046.2 2.86434 0.915198 0
M  V30 21871 C 2047.75 2.96085 1.01503 0
M  V30 21872 C 2048.22 4.40383 1.25806 0
M  V30 21873 N 2049.71 4.43824 1.32569 0
M  V30 21874 C 2050.45 5.52586 1.53089 0
M  V30 21875 N 2049.94 6.71389 1.70906 0
M  V30 21876 N 2051.74 5.40169 1.55481 0
M  V30 21877 H 2043.89 2.07701 -0.444302 0
M  V30 21878 H 2046.15 0.938087 -0.136733 0
M  V30 21879 H 2045.86 3.51596 0.0853212 0
M  V30 21880 H 2045.73 3.3025 1.82249 0
M  V30 21881 H 2048.12 2.31074 1.83545 0
M  V30 21882 H 2048.2 2.55659 0.0850686 0
M  V30 21883 H 2047.84 5.05967 0.442642 0
M  V30 21884 H 2047.77 4.78384 2.20128 0
M  V30 21885 H 2050.26 3.58206 1.20402 0
M  V30 21886 H 2050.58 7.50047 1.86144 0
M  V30 21887 H 2048.92 6.7437 1.68079 0
M  V30 21888 H 2052.11 4.46318 1.41131 0
M  V30 21889 H 2052.28 6.24994 1.71131 0
M  V30 21890 N 2045.69 -0.62272 1.44776 0
M  V30 21891 C 2046.6 -1.76282 1.54796 0
M  V30 21892 C 2047.62 -1.68522 0.433164 0
M  V30 21893 O 2048.79 -1.89149 0.691713 0
M  V30 21894 C 2045.86 -3.12697 1.49737 0
M  V30 21895 C 2044.92 -3.32026 2.72135 0
M  V30 21896 C 2044.15 -4.61933 2.67308 0
M  V30 21897 O 2044.37 -5.43282 1.73783 0
M  V30 21898 O 2043.31 -4.83646 3.58288 0
M  V30 21899 H 2047.13 -1.70781 2.51133 0
M  V30 21900 H 2044.72 -0.784974 1.27116 0
M  V30 21901 H 2046.6 -3.94001 1.4947 0
M  V30 21902 H 2045.28 -3.18723 0.565471 0
M  V30 21903 H 2044.18 -2.50368 2.77969 0
M  V30 21904 H 2045.52 -3.30868 3.644 0
M  V30 21905 N 2047.17 -1.31814 -0.863883 0
M  V30 21906 C 2048.41 -1.22028 -1.61979 0
M  V30 21907 C 2048.75 0.219661 -1.92954 0
M  V30 21908 O 2048.02 1.15428 -1.56546 0
M  V30 21909 C 2048.31 -2.0707 -2.94608 0
M  V30 21910 C 2048.16 -3.59395 -2.70473 0
M  V30 21911 C 2049.48 -1.92477 -3.95779 0
M  V30 21912 H 2046.6 -0.444641 -0.587762 0
M  V30 21913 H 2049.24 -1.61666 -0.998202 0
M  V30 21914 H 2047.39 -1.73395 -3.47659 0
M  V30 21915 H 2049.06 -4.03237 -2.24048 0
M  V30 21916 H 2047.3 -3.82521 -2.04597 0
M  V30 21917 H 2047.97 -4.14213 -3.64871 0
M  V30 21918 H 2050.45 -2.21959 -3.51957 0
M  V30 21919 H 2049.33 -2.54272 -4.86453 0
M  V30 21920 H 2049.59 -0.889783 -4.33053 0
M  V30 21921 N 2048.65 1.07897 -1.14873 0
M  V30 21922 C 2049.89 1.80653 -0.921532 0
M  V30 21923 C 2050.23 1.8624 0.550287 0
M  V30 21924 O 2049.5 1.34206 1.4078 0
M  V30 21925 C 2049.78 3.26 -1.52958 0
M  V30 21926 C 2049.64 3.28591 -3.07161 0
M  V30 21927 C 2050.96 4.23118 -1.21076 0
M  V30 21928 H 2048.07 0.655845 -0.336208 0
M  V30 21929 H 2050.72 1.26293 -1.41951 0
M  V30 21930 H 2048.87 3.72421 -1.1061 0
M  V30 21931 H 2050.54 2.90454 -3.58377 0
M  V30 21932 H 2048.78 2.67712 -3.4134 0
M  V30 21933 H 2049.45 4.31053 -3.44815 0
M  V30 21934 H 2051.93 3.85059 -1.57697 0
M  V30 21935 H 2050.8 5.23119 -1.66246 0
M  V30 21936 H 2051.07 4.41918 -0.12688 0
M  V30 21937 N 2050.12 0.944665 1.2615 0
M  V30 21938 C 2051.05 0.47478 2.28622 0
M  V30 21939 C 2052.04 -0.473742 1.6337 0
M  V30 21940 O 2053.22 -0.374847 1.90548 0
M  V30 21941 C 2050.35 -0.2576 3.46343 0
M  V30 21942 C 2049.3 0.604701 4.23707 0
M  V30 21943 C 2048.63 -0.257841 5.34078 0
M  V30 21944 C 2049.93 1.8778 4.87377 0
M  V30 21945 H 2051.62 1.33122 2.68177 0
M  V30 21946 H 2049.17 0.641555 1.28919 0
M  V30 21947 H 2051.12 -0.597382 4.17144 0
M  V30 21948 H 2049.85 -1.14821 3.05751 0
M  V30 21949 H 2048.51 0.927426 3.54675 0
M  V30 21950 H 2048.15 -1.1479 4.89727 0
M  V30 21951 H 2047.85 0.315739 5.86751 0
M  V30 21952 H 2049.38 -0.592815 6.07715 0
M  V30 21953 H 2050.79 1.60505 5.50374 0
M  V30 21954 H 2049.19 2.39623 5.50182 0
M  V30 21955 H 2050.26 2.58705 4.10122 0
M  V30 21956 N 2051.6 -1.40596 0.712085 0
M  V30 21957 C 2052.53 -2.33389 0.0719438 0
M  V30 21958 C 2053.51 -1.52706 -0.749334 0
M  V30 21959 O 2054.7 -1.81185 -0.698968 0
M  V30 21960 C 2051.83 -3.36659 -0.853122 0
M  V30 21961 C 2050.78 -4.27778 -0.137724 0
M  V30 21962 C 2050.11 -5.21556 -1.17827 0
M  V30 21963 C 2051.41 -5.12521 1.00597 0
M  V30 21964 H 2053.1 -2.87169 0.847002 0
M  V30 21965 H 2050.65 -1.38077 0.408756 0
M  V30 21966 H 2052.6 -4.00511 -1.31031 0
M  V30 21967 H 2051.33 -2.81266 -1.66004 0
M  V30 21968 H 2049.98 -3.65374 0.299603 0
M  V30 21969 H 2049.63 -4.6247 -1.97814 0
M  V30 21970 H 2049.33 -5.83361 -0.704503 0
M  V30 21971 H 2050.86 -5.88285 -1.63563 0
M  V30 21972 H 2052.27 -5.69847 0.62831 0
M  V30 21973 H 2050.67 -5.83351 1.40789 0
M  V30 21974 H 2051.74 -4.48706 1.83822 0
M  V30 21975 N 2053.08 -0.458013 -1.50798 0
M  V30 21976 C 2054.31 0.0995379 -2.0666 0
M  V30 21977 C 2054.72 1.34662 -1.32331 0
M  V30 21978 O 2054.08 1.78311 -0.388768 0
M  V30 21979 C 2054.13 0.400901 -3.5927 0
M  V30 21980 O 2053.85 -0.796705 -4.30795 0
M  V30 21981 C 2055.35 1.00686 -4.31714 0
M  V30 21982 H 2052.57 -0.00125628 -0.670999 0
M  V30 21983 H 2055.12 -0.643041 -1.94127 0
M  V30 21984 H 2053.27 1.0934 -3.7165 0
M  V30 21985 H 2053.69 -0.533396 -5.21781 0
M  V30 21986 H 2055.16 1.16758 -5.39511 0
M  V30 21987 H 2055.64 1.99349 -3.91352 0
M  V30 21988 H 2056.24 0.353135 -4.23831 0
M  V30 21989 N 2054.56 1.56449 -0.190119 0
M  V30 21990 C 2055.84 1.89172 0.497312 0
M  V30 21991 C 2056.22 1.1029 1.79998 0
M  V30 21992 O 2055.56 0.202471 2.27601 0
M  V30 21993 C 2055.77 3.41472 0.720941 0
M  V30 21994 C 2057.12 4.11602 1.04254 0
M  V30 21995 O 2058.15 3.46895 0.808835 0
M  V30 21996 O 2057.01 5.25955 1.48438 0
M  V30 21997 H 2054.1 0.785518 0.258632 0
M  V30 21998 H 2056.65 1.68135 -0.229961 0
M  V30 21999 H 2055.42 3.90793 -0.199197 0
M  V30 22000 H 2055.04 3.68185 1.50085 0
M  V30 22001 N 2056.04 -0.0835127 1.57379 0
M  V30 22002 C 2057.31 -0.817204 1.77711 0
M  V30 22003 C 2057.69 -1.9637 0.774736 0
M  V30 22004 O 2057.04 -2.27671 -0.194489 0
M  V30 22005 C 2057.25 -1.30104 3.23842 0
M  V30 22006 C 2058.6 -1.73916 3.87348 0
M  V30 22007 O 2059.62 -1.39699 3.27662 0
M  V30 22008 O 2058.48 -2.37224 4.92328 0
M  V30 22009 H 2055.58 -0.390677 0.728904 0
M  V30 22010 H 2058.12 -0.0644961 1.69577 0
M  V30 22011 H 2056.9 -0.480145 3.88343 0
M  V30 22012 H 2056.52 -2.11541 3.36654 0
M  V30 22013 N 2057.52 -1.53558 -0.354624 0
M  V30 22014 C 2058.93 -1.43575 -0.697019 0
M  V30 22015 C 2059.13 -0.583599 -1.92864 0
M  V30 22016 O 2058.19 -0.0702807 -2.52402 0
M  V30 22017 C 2059.5 -2.86916 -0.899995 0
M  V30 22018 C 2061.05 -2.96619 -0.999314 0
M  V30 22019 C 2061.52 -4.41044 -1.23468 0
M  V30 22020 N 2063.01 -4.44521 -1.30214 0
M  V30 22021 C 2063.75 -5.5339 -1.50156 0
M  V30 22022 N 2063.25 -6.72286 -1.67343 0
M  V30 22023 N 2065.04 -5.40985 -1.52614 0
M  V30 22024 H 2057.19 -2.07462 0.45531 0
M  V30 22025 H 2059.45 -0.937349 0.141706 0
M  V30 22026 H 2059.16 -3.51637 -0.066674 0
M  V30 22027 H 2059.03 -3.31212 -1.80495 0
M  V30 22028 H 2061.42 -2.32044 -1.82317 0
M  V30 22029 H 2061.5 -2.557 -0.0715092 0
M  V30 22030 H 2061.14 -5.06195 -0.415803 0
M  V30 22031 H 2061.07 -4.79545 -2.17588 0
M  V30 22032 H 2063.57 -3.5884 -1.18501 0
M  V30 22033 H 2063.88 -7.51023 -1.82164 0
M  V30 22034 H 2062.22 -6.75252 -1.645 0
M  V30 22035 H 2065.41 -4.4706 -1.38762 0
M  V30 22036 H 2065.59 -6.25893 -1.67815 0
M  V30 22037 N 2058.99 0.615033 -1.45104 0
M  V30 22038 C 2059.94 1.74733 -1.53529 0
M  V30 22039 C 2060.94 1.64468 -0.405784 0
M  V30 22040 O 2062.14 1.70352 -0.581394 0
M  V30 22041 H 2058.52 0.577146 -0.482086 0
M  V30 22042 H 2060.49 1.64752 -2.48796 0
M  V30 22043 C 2059.24 3.13102 -1.51204 0
M  V30 22044 H 2058.56 3.21656 -2.3744 0
M  V30 22045 H 2060 3.92179 -1.61158 0
M  V30 22046 C 2058.46 3.36077 -0.235281 0
M  V30 22047 O 2058.99 3.95765 0.687942 0
M  V30 22048 N 2057.19 2.90294 -0.133321 0
M  V30 22049 H 2056.74 2.41903 -0.885467 0
M  V30 22050 H 2056.7 3.06041 0.720147 0
M  V30 22051 N 2060.47 1.3227 0.85688 0
M  V30 22052 C 2061.4 1.23626 1.98088 0
M  V30 22053 C 2062.38 0.120585 1.69672 0
M  V30 22054 O 2063.57 0.307383 1.91752 0
M  V30 22055 C 2060.7 0.956279 3.33875 0
M  V30 22056 C 2059.65 2.03295 3.76637 0
M  V30 22057 C 2058.98 1.60541 5.1003 0
M  V30 22058 C 2060.28 3.4477 3.92341 0
M  V30 22059 H 2061.97 2.17665 2.05578 0
M  V30 22060 H 2059.52 1.04788 0.987703 0
M  V30 22061 H 2061.47 0.882366 4.12059 0
M  V30 22062 H 2060.19 -0.0197585 3.26594 0
M  V30 22063 H 2058.85 2.09698 3.00703 0
M  V30 22064 H 2058.5 0.616883 4.99203 0
M  V30 22065 H 2058.2 2.32578 5.39612 0
M  V30 22066 H 2059.73 1.54582 5.90709 0
M  V30 22067 H 2061.14 3.40968 4.60884 0
M  V30 22068 H 2059.54 4.15137 4.33338 0
M  V30 22069 H 2060.61 3.84594 2.95322 0
M  V30 22070 N 2061.95 -1.07287 1.15444 0
M  V30 22071 C 2063.37 -1.31993 0.897222 0
M  V30 22072 C 2063.57 -1.96286 -0.455437 0
M  V30 22073 O 2062.62 -2.22313 -1.19722 0
M  V30 22074 C 2063.93 -2.2104 2.03868 0
M  V30 22075 C 2065.48 -2.34486 2.07329 0
M  V30 22076 C 2065.96 -3.26882 3.20799 0
M  V30 22077 N 2067.45 -3.34463 3.20451 0
M  V30 22078 C 2068.18 -4.06019 4.0489 0
M  V30 22079 N 2067.68 -4.80184 4.99395 0
M  V30 22080 N 2069.47 -4.01967 3.92911 0
M  V30 22081 H 2061.62 -0.639423 2.02547 0
M  V30 22082 H 2063.89 -0.344393 0.883231 0
M  V30 22083 H 2063.59 -1.8106 3.01513 0
M  V30 22084 H 2063.47 -3.21571 1.9716 0
M  V30 22085 H 2065.85 -2.73719 1.10282 0
M  V30 22086 H 2065.93 -1.33658 2.18104 0
M  V30 22087 H 2065.58 -2.88368 4.18098 0
M  V30 22088 H 2065.51 -4.27667 3.0726 0
M  V30 22089 H 2068 -2.816 2.52012 0
M  V30 22090 H 2068.31 -5.32281 5.60265 0
M  V30 22091 H 2066.66 -4.79198 5.03383 0
M  V30 22092 H 2069.85 -3.43139 3.18392 0
M  V30 22093 H 2070.02 -4.57468 4.58942 0
M  V30 22094 N 2063.43 -0.951342 -1.25647 0
M  V30 22095 C 2064.67 -0.605246 -1.93558 0
M  V30 22096 C 2065.01 0.85507 -1.74362 0
M  V30 22097 O 2064.28 1.61308 -1.08674 0
M  V30 22098 C 2064.56 -0.960718 -3.47048 0
M  V30 22099 C 2064.42 -2.47652 -3.75484 0
M  V30 22100 C 2065.74 -0.483409 -4.37437 0
M  V30 22101 H 2062.86 -0.22136 -0.702971 0
M  V30 22102 H 2065.5 -1.1874 -1.48327 0
M  V30 22103 H 2063.65 -0.465324 -3.85703 0
M  V30 22104 H 2065.32 -3.04543 -3.46484 0
M  V30 22105 H 2063.56 -2.91564 -3.21205 0
M  V30 22106 H 2064.23 -2.67575 -4.82812 0
M  V30 22107 H 2066.71 -0.908309 -4.06065 0
M  V30 22108 H 2065.59 -0.760858 -5.43601 0
M  V30 22109 H 2065.85 0.616645 -4.37778 0
M  V30 22110 N 2064.91 1.40216 -0.719531 0
M  V30 22111 C 2065.85 2.30695 -0.0695046 0
M  V30 22112 C 2066.82 1.48398 0.746138 0
M  V30 22113 O 2068.01 1.77127 0.709277 0
M  V30 22114 C 2065.15 3.34636 0.843357 0
M  V30 22115 C 2064.26 4.31997 0.0167651 0
M  V30 22116 C 2063.4 5.23005 0.929469 0
M  V30 22117 C 2062.43 6.12023 0.0972024 0
M  V30 22118 N 2061.57 6.95437 0.964997 0
M  V30 22119 H 2066.41 2.85716 -0.846765 0
M  V30 22120 H 2063.95 1.40698 -0.429253 0
M  V30 22121 H 2065.91 3.93473 1.38691 0
M  V30 22122 H 2064.54 2.81108 1.58676 0
M  V30 22123 H 2063.59 3.74909 -0.644016 0
M  V30 22124 H 2064.9 4.94838 -0.627416 0
M  V30 22125 H 2064.05 5.86792 1.54141 0
M  V30 22126 H 2062.79 4.60447 1.60746 0
M  V30 22127 H 2061.8 5.47262 -0.52765 0
M  V30 22128 H 2063.02 6.76641 -0.577347 0
M  V30 22129 H 2060.97 6.35463 1.62857 0
M  V30 22130 H 2060.89 7.5506 0.376943 0
M  V30 22131 H 2062.15 7.63669 1.56299 0
M  V30 22132 N 2066.38 0.466004 1.50553 0
M  V30 22133 C 2067.35 -0.319434 2.26963 0
M  V30 22134 C 2068.35 -0.92489 1.31539 0
M  V30 22135 O 2069.54 -0.794862 1.55008 0
M  V30 22136 C 2066.67 -1.45457 3.0831 0
M  V30 22137 H 2067.86 0.350606 2.97844 0
M  V30 22138 H 2065.41 0.219925 1.54745 0
M  V30 22139 H 2066.15 -2.15982 2.41914 0
M  V30 22140 H 2065.93 -1.02628 3.78431 0
M  V30 22141 H 2067.42 -2.00876 3.66113 0
M  V30 22142 N 2067.86 -1.56346 0.198413 0
M  V30 22143 C 2068.79 -2.22244 -0.716243 0
M  V30 22144 C 2069.77 -1.1866 -1.21876 0
M  V30 22145 O 2070.96 -1.47177 -1.26699 0
M  V30 22146 C 2068.09 -2.88437 -1.93446 0
M  V30 22147 C 2067.04 -3.98294 -1.56672 0
M  V30 22148 C 2066.37 -4.51668 -2.86182 0
M  V30 22149 C 2067.67 -5.16531 -0.774153 0
M  V30 22150 H 2069.36 -2.98935 -0.166883 0
M  V30 22151 H 2066.91 -1.43784 -0.0788267 0
M  V30 22152 H 2068.86 -3.33221 -2.57957 0
M  V30 22153 H 2067.58 -2.09157 -2.5084 0
M  V30 22154 H 2066.24 -3.54206 -0.945178 0
M  V30 22155 H 2065.89 -3.69146 -3.41673 0
M  V30 22156 H 2065.59 -5.25796 -2.6232 0
M  V30 22157 H 2067.12 -4.99155 -3.51676 0
M  V30 22158 H 2068.53 -5.57839 -1.32244 0
M  V30 22159 H 2066.93 -5.96746 -0.633532 0
M  V30 22160 H 2068 -4.84382 0.224098 0
M  V30 22161 N 2069.34 0.0751653 -1.57421 0
M  V30 22162 C 2070.57 0.787972 -1.91308 0
M  V30 22163 C 2070.98 1.7129 -0.794055 0
M  V30 22164 O 2070.34 1.81009 0.23281 0
M  V30 22165 C 2070.39 1.58447 -3.24926 0
M  V30 22166 O 2070.11 0.696727 -4.32524 0
M  V30 22167 C 2071.61 2.39857 -3.72805 0
M  V30 22168 H 2068.83 0.22422 -0.632429 0
M  V30 22169 H 2071.38 0.0464417 -2.04447 0
M  V30 22170 H 2069.53 2.27831 -3.13324 0
M  V30 22171 H 2069.95 1.25038 -5.09378 0
M  V30 22172 H 2071.42 2.91207 -4.68938 0
M  V30 22173 H 2071.9 3.19229 -3.01645 0
M  V30 22174 H 2072.5 1.75636 -3.8734 0
M  V30 22175 N 2070.82 1.53744 0.346476 0
M  V30 22176 C 2072.23 1.43943 0.689395 0
M  V30 22177 C 2072.43 0.593819 1.92551 0
M  V30 22178 O 2071.49 0.0836653 2.52361 0
M  V30 22179 C 2072.8 2.87389 0.884766 0
M  V30 22180 C 2074.35 2.97145 0.98357 0
M  V30 22181 C 2074.83 4.41692 1.21128 0
M  V30 22182 N 2076.32 4.45205 1.27855 0
M  V30 22183 C 2077.05 5.54179 1.47219 0
M  V30 22184 N 2076.55 6.73164 1.63775 0
M  V30 22185 N 2078.34 5.41787 1.49743 0
M  V30 22186 H 2070.49 2.07218 -0.466306 0
M  V30 22187 H 2072.76 0.936584 -0.146675 0
M  V30 22188 H 2072.46 3.51667 0.0480249 0
M  V30 22189 H 2072.34 3.32165 1.78736 0
M  V30 22190 H 2074.72 2.33008 1.81084 0
M  V30 22191 H 2074.8 2.55734 0.0579478 0
M  V30 22192 H 2074.45 5.06409 0.388952 0
M  V30 22193 H 2074.38 4.80692 2.15042 0
M  V30 22194 H 2076.87 3.59463 1.16596 0
M  V30 22195 H 2077.18 7.51979 1.78179 0
M  V30 22196 H 2075.53 6.76114 1.60917 0
M  V30 22197 H 2078.72 4.4779 1.36389 0
M  V30 22198 H 2078.89 6.26774 1.64493 0
M  V30 22199 N 2072.3 -0.607329 1.45428 0
M  V30 22200 C 2073.24 -1.73916 1.54454 0
M  V30 22201 C 2074.24 -1.64251 0.4145 0
M  V30 22202 O 2075.44 -1.70041 0.59042 0
M  V30 22203 H 2071.82 -0.574581 0.48514 0
M  V30 22204 H 2073.79 -1.6343 2.49666 0
M  V30 22205 C 2072.54 -3.12295 1.52863 0
M  V30 22206 H 2071.86 -3.20392 2.39142 0
M  V30 22207 H 2073.3 -3.91318 1.63236 0
M  V30 22208 C 2071.76 -3.35948 0.2531 0
M  V30 22209 O 2072.29 -3.96125 -0.666944 0
M  V30 22210 N 2070.5 -2.90219 0.148714 0
M  V30 22211 H 2070.04 -2.4143 0.898284 0
M  V30 22212 H 2070 -3.06419 -0.703907 0
M  V30 22213 N 2073.77 -1.32722 -0.849853 0
M  V30 22214 C 2075.02 -1.23739 -1.60675 0
M  V30 22215 C 2075.35 0.199183 -1.93176 0
M  V30 22216 O 2074.63 1.13761 -1.57761 0
M  V30 22217 C 2074.91 -2.10183 -2.92395 0
M  V30 22218 C 2074.76 -3.62243 -2.66646 0
M  V30 22219 C 2076.08 -1.96664 -3.93715 0
M  V30 22220 H 2073.2 -0.45085 -0.583013 0
M  V30 22221 H 2075.84 -1.62716 -0.980999 0
M  V30 22222 H 2073.99 -1.77072 -3.458 0
M  V30 22223 H 2075.67 -4.05591 -2.19758 0
M  V30 22224 H 2073.91 -3.8467 -2.00529 0
M  V30 22225 H 2074.58 -4.1806 -3.60458 0
M  V30 22226 H 2077.06 -2.25679 -3.49583 0
M  V30 22227 H 2075.93 -2.59417 -4.83729 0
M  V30 22228 H 2076.19 -0.935664 -4.32085 0
M  V30 22229 N 2075.25 1.06673 -1.16011 0
M  V30 22230 C 2076.66 1.60868 -0.947549 0
M  V30 22231 C 2077.01 1.89469 0.509491 0
M  V30 22232 O 2076.14 1.66526 1.38195 0
M  V30 22233 C 2076.73 2.92266 -1.71365 0
M  V30 22234 C 2075.29 3.43177 -1.54618 0
M  V30 22235 C 2074.44 2.17128 -1.72484 0
M  V30 22236 H 2077.39 0.896725 -1.30937 0
M  V30 22237 H 2077.41 3.61505 -1.1872 0
M  V30 22238 H 2076.92 2.71417 -2.77406 0
M  V30 22239 H 2075.03 3.69093 -0.51001 0
M  V30 22240 H 2075.14 4.1876 -2.3276 0
M  V30 22241 H 2073.5 2.27162 -1.15193 0
M  V30 22242 H 2074.29 1.98766 -2.79905 0
M  V30 22243 N 2076.73 0.957992 1.25141 0
M  V30 22244 C 2077.98 0.615503 1.93234 0
M  V30 22245 C 2078.31 -0.845811 1.74813 0
M  V30 22246 O 2077.58 -1.60729 1.09528 0
M  V30 22247 C 2077.87 0.979109 3.46533 0
M  V30 22248 C 2077.72 2.4964 3.74165 0
M  V30 22249 C 2079.04 0.506601 4.37175 0
M  V30 22250 H 2076.16 0.225085 0.701787 0
M  V30 22251 H 2078.8 1.19525 1.47695 0
M  V30 22252 H 2076.95 0.485773 3.85451 0
M  V30 22253 H 2078.62 3.06376 3.44865 0
M  V30 22254 H 2076.87 2.93263 3.19655 0
M  V30 22255 H 2077.54 2.70132 4.81386 0
M  V30 22256 H 2080.01 0.929831 4.05578 0
M  V30 22257 H 2078.89 0.789676 5.4319 0
M  V30 22258 H 2079.15 -0.59342 4.38099 0
M  V30 22259 N 2078.21 -1.39832 0.726957 0
M  V30 22260 C 2079.62 -1.54462 0.401692 0
M  V30 22261 C 2079.82 -1.6958 -1.08834 0
M  V30 22262 O 2078.88 -1.69177 -1.87444 0
M  V30 22263 C 2080.19 -2.76679 1.17769 0
M  V30 22264 C 2081.74 -2.90507 1.16511 0
M  V30 22265 C 2082.22 -4.1565 1.9235 0
M  V30 22266 N 2083.71 -4.22674 1.89476 0
M  V30 22267 C 2084.44 -5.18437 2.44971 0
M  V30 22268 N 2083.94 -6.20038 3.0907 0
M  V30 22269 N 2085.73 -5.10596 2.3505 0
M  V30 22270 H 2077.88 -1.28266 1.69297 0
M  V30 22271 H 2080.15 -0.621077 0.716217 0
M  V30 22272 H 2079.85 -2.71823 2.2317 0
M  V30 22273 H 2079.73 -3.69115 0.776799 0
M  V30 22274 H 2082.11 -2.94859 0.119254 0
M  V30 22275 H 2082.19 -1.99157 1.60531 0
M  V30 22276 H 2081.84 -4.1206 2.96933 0
M  V30 22277 H 2081.77 -5.0603 1.45743 0
M  V30 22278 H 2084.26 -3.49892 1.42772 0
M  V30 22279 H 2084.57 -6.89555 3.48903 0
M  V30 22280 H 2082.92 -6.20449 3.13158 0
M  V30 22281 H 2086.11 -4.30154 1.84622 0
M  V30 22282 H 2086.28 -5.85053 2.78599 0
M  V30 22283 N 2079.69 -0.473982 -1.50304 0
M  V30 22284 C 2080.96 0.141727 -1.95086 0
M  V30 22285 C 2081.34 1.56703 -1.41447 0
M  V30 22286 O 2080.69 2.20021 -0.616691 0
M  V30 22287 C 2080.9 0.0820815 -3.48903 0
M  V30 22288 C 2082.25 0.26953 -4.23744 0
M  V30 22289 O 2083.27 0.158532 -3.55847 0
M  V30 22290 O 2082.13 0.494023 -5.44262 0
M  V30 22291 H 2079.23 0.110094 -0.819639 0
M  V30 22292 H 2081.77 -0.534591 -1.6106 0
M  V30 22293 H 2080.54 -0.912936 -3.80501 0
M  V30 22294 H 2080.17 0.799731 -3.89474 0
M  V30 22295 N 2081.16 1.56239 -0.206702 0
M  V30 22296 C 2082.41 1.97079 0.429267 0
M  V30 22297 C 2082.73 1.09689 1.6195 0
M  V30 22298 O 2083.93 1.40363 2.32402 0
M  V30 22299 C 2082.39 3.50548 0.815111 0
M  V30 22300 C 2082 4.46619 -0.351476 0
M  V30 22301 C 2083.74 4.00133 1.41751 0
M  V30 22302 C 2081.65 5.91374 0.0559745 0
M  V30 22303 H 2080.58 0.735915 0.164151 0
M  V30 22304 H 2083.23 1.81022 -0.300562 0
M  V30 22305 H 2081.61 3.62152 1.60194 0
M  V30 22306 H 2082.78 4.46754 -1.12903 0
M  V30 22307 H 2081.1 4.07292 -0.866134 0
M  V30 22308 H 2083.7 5.05768 1.73501 0
M  V30 22309 H 2084.04 3.45116 2.3281 0
M  V30 22310 H 2084.57 3.91692 0.694423 0
M  V30 22311 H 2081.31 6.50342 -0.820723 0
M  V30 22312 H 2080.83 5.94466 0.798148 0
M  V30 22313 H 2082.51 6.45159 0.487795 0
M  V30 22314 N 2082.64 -0.0668159 1.57458 0
M  V30 22315 C 2084.05 -0.618057 1.76173 0
M  V30 22316 C 2084.4 -1.77647 0.83283 0
M  V30 22317 O 2083.53 -2.16392 0.0181509 0
M  V30 22318 C 2084.12 -1.12796 3.19472 0
M  V30 22319 C 2082.68 -1.62503 3.39514 0
M  V30 22320 C 2081.83 -0.546584 2.7186 0
M  V30 22321 H 2084.78 0.15937 1.57898 0
M  V30 22322 H 2084.8 -1.99663 3.23906 0
M  V30 22323 H 2084.31 -0.284643 3.87055 0
M  V30 22324 H 2082.42 -2.49144 2.77053 0
M  V30 22325 H 2082.53 -1.69854 4.4798 0
M  V30 22326 H 2080.89 -0.992807 2.34554 0
M  V30 22327 H 2081.68 0.286635 3.42101 0
M  V30 22328 N 2084.12 -1.53926 -0.338317 0
M  V30 22329 C 2085.08 -1.81578 -1.39865 0
M  V30 22330 C 2086.08 -0.687011 -1.45385 0
M  V30 22331 O 2087.27 -0.955305 -1.45669 0
M  V30 22332 C 2084.41 -1.96252 -2.78744 0
M  V30 22333 H 2085.6 -2.76302 -1.16608 0
M  V30 22334 H 2083.15 -1.45418 -0.572996 0
M  V30 22335 H 2083.89 -1.03688 -3.07277 0
M  V30 22336 H 2083.67 -2.78376 -2.76133 0
M  V30 22337 H 2085.16 -2.19144 -3.5548 0
M  V30 22338 N 2085.6 0.599608 -1.45748 0
M  V30 22339 C 2086.85 1.35838 -1.50181 0
M  V30 22340 C 2087.17 1.93946 -0.146709 0
M  V30 22341 O 2086.43 1.76004 0.85563 0
M  V30 22342 C 2086.73 2.51935 -2.53503 0
M  V30 22343 C 2086.39 2.11925 -3.97993 0
M  V30 22344 C 2085.06 2.00728 -4.37335 0
M  V30 22345 C 2087.41 1.8082 -4.88829 0
M  V30 22346 C 2084.74 1.56659 -5.65398 0
M  V30 22347 C 2087.09 1.38235 -6.17312 0
M  V30 22348 C 2085.75 1.25602 -6.55576 0
M  V30 22349 H 2085.02 0.497068 -0.54955 0
M  V30 22350 H 2087.67 0.676927 -1.79137 0
M  V30 22351 H 2085.97 3.25453 -2.18145 0
M  V30 22352 H 2087.67 3.10161 -2.54168 0
M  V30 22353 H 2084.26 2.21569 -3.66886 0
M  V30 22354 H 2088.45 1.88364 -4.59165 0
M  V30 22355 H 2083.7 1.45507 -5.93833 0
M  V30 22356 H 2087.88 1.13215 -6.87136 0
M  V30 22357 H 2085.5 0.912286 -7.54706 0
M  V30 22358 N 2087.08 1.33171 0.842803 0
M  V30 22359 C 2088.01 1.2572 1.96766 0
M  V30 22360 C 2088.99 0.138574 1.69535 0
M  V30 22361 O 2090.17 0.327704 1.91415 0
M  V30 22362 C 2087.3 0.991637 3.32842 0
M  V30 22363 C 2086.26 2.07278 3.74459 0
M  V30 22364 C 2085.58 1.65942 5.08299 0
M  V30 22365 C 2086.88 3.48911 3.88662 0
M  V30 22366 H 2088.58 2.19834 2.03257 0
M  V30 22367 H 2086.12 1.05829 0.976533 0
M  V30 22368 H 2088.08 0.926021 4.111 0
M  V30 22369 H 2086.8 0.0148823 3.26597 0
M  V30 22370 H 2085.46 2.12875 2.98462 0
M  V30 22371 H 2085.11 0.669795 4.98521 0
M  V30 22372 H 2084.81 2.38288 5.37115 0
M  V30 22373 H 2086.33 1.60839 5.89036 0
M  V30 22374 H 2087.75 3.45837 4.57241 0
M  V30 22375 H 2086.14 4.1971 4.2891 0
M  V30 22376 H 2087.21 3.87705 2.91226 0
M  V30 22377 N 2088.56 -1.06056 1.16576 0
M  V30 22378 C 2089.78 -1.82592 0.973019 0
M  V30 22379 C 2090.2 -1.82629 -0.478773 0
M  V30 22380 O 2089.56 -1.2472 -1.33233 0
M  V30 22381 C 2089.61 -3.291 1.49585 0
M  V30 22382 O 2089.33 -3.29189 2.89078 0
M  V30 22383 C 2090.83 -4.22357 1.34647 0
M  V30 22384 H 2088.05 -0.575656 0.344763 0
M  V30 22385 H 2090.59 -1.33793 1.5466 0
M  V30 22386 H 2088.75 -3.75202 0.964496 0
M  V30 22387 H 2089.16 -4.2082 3.13066 0
M  V30 22388 H 2090.64 -5.23171 1.76056 0
M  V30 22389 H 2091.11 -4.38226 0.292348 0
M  V30 22390 H 2091.72 -3.82103 1.86755 0
M  V30 22391 N 2090.03 -0.964615 -1.24631 0
M  V30 22392 C 2091.28 -0.635327 -1.93223 0
M  V30 22393 C 2091.63 0.820083 -1.74047 0
M  V30 22394 O 2090.93 1.58192 -1.08101 0
M  V30 22395 C 2091.12 -0.941821 -3.44767 0
M  V30 22396 C 2090.95 -2.42547 -3.78683 0
M  V30 22397 C 2089.72 -3.08477 -4.00213 0
M  V30 22398 C 2091.92 -3.40538 -3.85407 0
M  V30 22399 N 2089.9 -4.46612 -4.21202 0
M  V30 22400 C 2091.27 -4.64017 -4.11203 0
M  V30 22401 C 2093.33 -3.35238 -3.6813 0
M  V30 22402 C 2092.03 -5.82851 -4.21518 0
M  V30 22403 C 2094.06 -4.5342 -3.79689 0
M  V30 22404 C 2093.42 -5.7569 -4.05907 0
M  V30 22405 H 2089.52 -0.283271 -0.728891 0
M  V30 22406 H 2092.1 -1.23884 -1.50203 0
M  V30 22407 H 2090.27 -0.367147 -3.86661 0
M  V30 22408 H 2092 -0.57142 -4.00646 0
M  V30 22409 H 2088.76 -2.59017 -3.96494 0
M  V30 22410 H 2089.18 -5.18179 -4.35683 0
M  V30 22411 H 2093.82 -2.41747 -3.46869 0
M  V30 22412 H 2091.54 -6.76774 -4.41591 0
M  V30 22413 H 2095.13 -4.50878 -3.67696 0
M  V30 22414 H 2094.01 -6.65612 -4.14646 0
M  V30 22415 N 2091.51 1.39445 -0.734362 0
M  V30 22416 C 2092.47 2.28971 -0.102477 0
M  V30 22417 C 2093.47 1.46277 0.667805 0
M  V30 22418 O 2094.66 1.66962 0.496917 0
M  V30 22419 C 2091.8 3.29767 0.864107 0
M  V30 22420 H 2092.99 2.86352 -0.891208 0
M  V30 22421 H 2090.54 1.48082 -0.500154 0
M  V30 22422 H 2091.28 2.7744 1.67922 0
M  V30 22423 H 2091.06 3.90837 0.314418 0
M  V30 22424 H 2092.55 3.96757 1.30282 0
M  V30 22425 N 2092.99 0.481946 1.5005 0
M  V30 22426 C 2093.92 -0.343006 2.26619 0
M  V30 22427 C 2094.93 -0.947538 1.32384 0
M  V30 22428 O 2096.12 -0.834105 1.57813 0
M  V30 22429 C 2093.22 -1.49609 3.0409 0
M  V30 22430 C 2092.4 -1.00236 4.2576 0
M  V30 22431 C 2091.46 -2.03077 4.85434 0
M  V30 22432 O 2090.48 -1.607 5.46044 0
M  V30 22433 N 2091.68 -3.35975 4.73393 0
M  V30 22434 H 2094.45 0.313457 2.98056 0
M  V30 22435 H 2092.01 0.313362 1.58838 0
M  V30 22436 H 2094 -2.18123 3.40888 0
M  V30 22437 H 2092.57 -2.05705 2.35381 0
M  V30 22438 H 2091.79 -0.14274 3.93941 0
M  V30 22439 H 2093.08 -0.650587 5.04623 0
M  V30 22440 H 2092.48 -3.73107 4.25215 0
M  V30 22441 H 2091.03 -4.00256 5.1443 0
M  V30 22442 N 2094.47 -1.56127 0.214985 0
M  V30 22443 C 2095.71 -1.98422 -0.41911 0
M  V30 22444 C 2096.05 -1.10235 -1.59881 0
M  V30 22445 O 2095.32 -0.158603 -1.93852 0
M  V30 22446 C 2095.6 -3.49679 -0.86003 0
M  V30 22447 C 2095.46 -4.4864 0.322851 0
M  V30 22448 C 2096.78 -4.0516 -1.71854 0
M  V30 22449 H 2093.9 -0.721393 -0.150867 0
M  V30 22450 H 2096.54 -1.87456 0.309902 0
M  V30 22451 H 2094.69 -3.59155 -1.48121 0
M  V30 22452 H 2096.36 -4.51181 0.960896 0
M  V30 22453 H 2094.6 -4.22784 0.97138 0
M  V30 22454 H 2095.27 -5.51993 -0.028492 0
M  V30 22455 H 2097.75 -3.98587 -1.19448 0
M  V30 22456 H 2096.63 -5.11324 -1.99596 0
M  V30 22457 H 2096.89 -3.51638 -2.67962 0
M  V30 22458 N 2095.95 0.0584645 -1.57492 0
M  V30 22459 C 2097.19 0.75358 -1.87525 0
M  V30 22460 C 2097.51 1.77436 -0.808803 0
M  V30 22461 O 2096.78 1.95237 0.161061 0
M  V30 22462 H 2095.36 0.281308 -0.692008 0
M  V30 22463 H 2098.03 0.0313879 -1.94875 0
M  V30 22464 H 2097.12 1.26151 -2.85469 0
M  V30 22465 O 2097.46 1.60234 0.201845 0
M  V30 22466 H 2098.15 1.74475 0.841323 0
M  V30 END ATOM
M  V30 BEGIN BOND
M  V30 END BOND
M  V30 END CTAB
M  END
$$$$
