drugbank_target|Q86UW8 Hyaluronan and proteoglycan link protein 4 (DB08818)
 OpenBabel12092121013D

  0  0  0     0  0            999 V3000
M  V30 BEGIN CTAB
M  V30 COUNTS 5950 6038 0 0 0
M  V30 BEGIN ATOM
M  V30 1 H -0.908 1.98254 -0.117106 0
M  V30 2 N 0 1.576 0 0
M  V30 3 C 0.933 2.03868 1.02534 0
M  V30 4 C 1.911 0.928543 1.3348 0
M  V30 5 O 3.095 1.19667 1.45644 0
M  V30 6 C 0.222 2.43627 2.35294 0
M  V30 7 C -0.732 3.65373 2.2001 0
M  V30 8 S 0.101 5.13292 1.52614 0
M  V30 9 C 1.257 5.56322 2.86805 0
M  V30 10 H 1.49 2.90518 0.631377 0
M  V30 11 H -0.977 1.52953 0.210867 0
M  V30 12 H 0.981 2.67203 3.11629 0
M  V30 13 H -0.358 1.57376 2.7183 0
M  V30 14 H -1.165 3.90944 3.18086 0
M  V30 15 H -1.563 3.418 1.51819 0
M  V30 16 H 0.729 5.58782 3.83104 0
M  V30 17 H 1.672 6.56266 2.65933 0
M  V30 18 H 2.08 4.83886 2.90714 0
M  V30 19 N 1.4781 -0.272755 1.55222 0
M  V30 20 C 2.7241 -1.00581 1.761 0
M  V30 21 C 3.0571 -1.85932 0.560625 0
M  V30 22 O 2.3321 -1.89416 -0.441801 0
M  V30 23 C 2.6151 -1.88816 3.06628 0
M  V30 24 C 2.4681 -1.06457 4.37021 0
M  V30 25 C 3.7871 -2.8752 3.33197 0
M  V30 26 H 0.9061 -0.364244 0.640699 0
M  V30 27 H 3.5481 -0.278189 1.87952 0
M  V30 28 H 1.6981 -2.50856 2.96654 0
M  V30 29 H 3.3701 -0.464863 4.58952 0
M  V30 30 H 1.6131 -0.368043 4.32236 0
M  V30 31 H 2.2841 -1.71514 5.24678 0
M  V30 32 H 4.7601 -2.35615 3.42965 0
M  V30 33 H 3.6361 -3.46399 4.25792 0
M  V30 34 H 3.8971 -3.62657 2.52849 0
M  V30 35 N 2.9562 -1.48159 -0.537278 0
M  V30 36 C 4.1962 -1.57397 -1.30405 0
M  V30 37 C 4.5602 -0.239202 -1.90504 0
M  V30 38 O 5.7612 -0.206528 -2.68005 0
M  V30 39 C 4.0322 -2.6754 -2.36974 0
M  V30 40 S 5.5912 -2.96496 -3.23475 0
M  V30 41 H 2.4092 -0.555577 -0.443684 0
M  V30 42 H 5.0112 -1.85644 -0.612912 0
M  V30 43 H 3.7152 -3.63092 -1.91291 0
M  V30 44 H 3.2462 -2.41172 -3.10805 0
M  V30 45 H 5.2612 -2.35234 -4.36897 0
M  V30 46 N 4.4343 0.785586 -1.36625 0
M  V30 47 C 5.3973 1.87999 -1.31107 0
M  V30 48 C 6.3973 1.59316 -0.217959 0
M  V30 49 O 7.5873 1.67656 -0.472977 0
M  V30 50 C 4.7193 3.24861 -1.03334 0
M  V30 51 H 5.9123 1.94307 -2.2844 0
M  V30 52 H 3.4653 0.983813 -1.21453 0
M  V30 53 H 4.2003 3.24235 -0.0647432 0
M  V30 54 H 3.9853 3.4707 -1.82441 0
M  V30 55 H 5.4753 4.04929 -1.02088 0
M  V30 56 N 5.9124 1.20967 1.01018 0
M  V30 57 C 7.3284 0.965905 1.27053 0
M  V30 58 C 7.5284 -0.350785 1.98423 0
M  V30 59 O 6.5844 -1.07773 2.28344 0
M  V30 60 C 7.8974 2.15294 2.09926 0
M  V30 61 C 9.4454 2.19463 2.23171 0
M  V30 62 C 9.9204 3.3767 3.09424 0
M  V30 63 N 11.4114 3.37724 3.17012 0
M  V30 64 C 12.1464 4.25837 3.83993 0
M  V30 65 N 11.6424 5.24138 4.53047 0
M  V30 66 N 13.4354 4.1366 3.80581 0
M  V30 67 H 5.5864 2.0565 0.531194 0
M  V30 68 H 7.8494 0.90024 0.297106 0
M  V30 69 H 7.5554 3.10684 1.64828 0
M  V30 70 H 7.4294 2.13923 3.10672 0
M  V30 71 H 9.8164 1.24632 2.6749 0
M  V30 72 H 9.8974 2.2488 1.21912 0
M  V30 73 H 9.5414 4.32791 2.65808 0
M  V30 74 H 9.4714 3.29491 4.10784 0
M  V30 75 H 11.9624 2.6658 2.6785 0
M  V30 76 H 12.2754 5.87684 5.01844 0
M  V30 77 H 10.6204 5.28068 4.5185 0
M  V30 78 H 13.8114 3.36127 3.25785 0
M  V30 79 H 13.9844 4.82538 4.32505 0
M  V30 80 N 7.3905 -1.2043 1.01659 0
M  V30 81 C 8.3535 -2.21433 0.591616 0
M  V30 82 C 9.3535 -1.57203 -0.338226 0
M  V30 83 O 10.5435 -1.73737 -0.126918 0
M  V30 84 C 7.6755 -3.40628 -0.136058 0
M  V30 85 H 8.8685 -2.60545 1.48514 0
M  V30 86 H 6.4215 -1.33893 0.806379 0
M  V30 87 H 7.1565 -3.07019 -1.04449 0
M  V30 88 H 6.9415 -3.88475 0.531917 0
M  V30 89 H 8.4315 -4.15475 -0.420735 0
M  V30 90 N 8.8686 -0.792821 -1.36206 0
M  V30 91 C 9.8316 -0.199459 -2.2833 0
M  V30 92 C 10.8316 0.605189 -1.48977 0
M  V30 93 O 12.0216 0.425685 -1.68919 0
M  V30 94 C 9.1536 0.723523 -3.33134 0
M  V30 95 H 10.3466 -1.01181 -2.82316 0
M  V30 96 H 7.8996 -0.562485 -1.45828 0
M  V30 97 H 8.6346 1.56008 -2.84309 0
M  V30 98 H 8.4196 0.148436 -3.91819 0
M  V30 99 H 9.9096 1.13344 -4.01924 0
M  V30 100 N 10.3467 1.47872 -0.545128 0
M  V30 101 C 11.2767 2.32661 0.197793 0
M  V30 102 C 12.2577 1.43041 0.920504 0
M  V30 103 O 13.4427 1.71912 0.90333 0
M  V30 104 C 10.5727 3.24569 1.23582 0
M  V30 105 C 9.5267 4.23333 0.630323 0
M  V30 106 C 8.8527 5.0448 1.77211 0
M  V30 107 C 10.1527 5.20704 -0.407974 0
M  V30 108 H 11.8467 2.95024 -0.510045 0
M  V30 109 H 9.3927 1.4187 -0.246731 0
M  V30 110 H 11.3457 3.8272 1.76362 0
M  V30 111 H 10.0697 2.60236 1.97344 0
M  V30 112 H 8.7287 3.6639 0.123922 0
M  V30 113 H 8.3767 4.36561 2.49847 0
M  V30 114 H 8.0767 5.71339 1.37281 0
M  V30 115 H 9.6007 5.65487 2.3034 0
M  V30 116 H 11.0147 5.7329 0.033305 0
M  V30 117 H 9.4117 5.95699 -0.725486 0
M  V30 118 H 10.4817 4.66917 -1.30828 0
M  V30 119 N 11.8248 0.280983 1.55075 0
M  V30 120 C 13.0728 -0.333455 1.9933 0
M  V30 121 C 13.3938 -1.55937 1.17085 0
M  V30 122 O 12.6638 -1.94143 0.261805 0
M  V30 123 H 11.2438 -0.126197 0.736263 0
M  V30 124 H 13.9058 0.387678 1.91005 0
M  V30 125 H 13.0018 -0.619292 3.05894 0
M  V30 126 N 13.3029 -1.57598 0.00835791 0
M  V30 127 C 14.7139 -1.7892 -0.53333 0
M  V30 128 C 15.0649 -0.916609 -1.73473 0
M  V30 129 O 14.1899 -0.121336 -2.1606 0
M  V30 130 C 14.7849 -3.24488 -0.974313 0
M  V30 131 C 13.3439 -3.46878 -1.46125 0
M  V30 132 C 12.4909 -2.74157 -0.416302 0
M  V30 133 H 15.4419 -1.56958 0.234495 0
M  V30 134 H 15.4629 -3.3306 -1.83988 0
M  V30 135 H 14.9749 -3.87972 -0.099718 0
M  V30 136 H 13.0759 -2.8862 -2.35646 0
M  V30 137 H 13.1889 -4.55572 -1.48295 0
M  V30 138 H 11.5529 -2.39022 -0.87981 0
M  V30 139 H 12.3359 -3.40345 0.44947 0
M  V30 140 N 14.781 0.264519 -1.55364 0
M  V30 141 C 16.029 0.993021 -1.76021 0
M  V30 142 C 16.35 1.86511 -0.569099 0
M  V30 143 O 15.62 1.91438 0.415735 0
M  V30 144 H 14.2 0.369639 -0.649135 0
M  V30 145 H 16.862 0.286707 -1.9278 0
M  V30 146 H 15.958 1.62502 -2.66457 0
M  V30 147 N 16.2591 1.48442 0.529413 0
M  V30 148 C 17.2221 1.62524 1.61612 0
M  V30 149 C 18.2221 0.498509 1.52877 0
M  V30 150 O 19.4121 0.76431 1.56537 0
M  V30 151 C 16.5441 1.59597 3.01233 0
M  V30 152 H 17.7371 2.59423 1.50465 0
M  V30 153 H 15.2901 1.37047 0.751514 0
M  V30 154 H 16.0251 0.641781 3.17886 0
M  V30 155 H 15.8101 2.41397 3.08982 0
M  V30 156 H 17.3001 1.72646 3.80241 0
M  V30 157 N 17.7372 -0.778329 1.37039 0
M  V30 158 C 18.6672 -1.90546 1.34962 0
M  V30 159 C 19.6482 -1.68681 0.219274 0
M  V30 160 O 20.8332 -1.89634 0.418624 0
M  V30 161 C 17.9632 -3.27734 1.14925 0
M  V30 162 C 16.9172 -3.64147 2.24902 0
M  V30 163 C 16.2432 -4.99806 1.89996 0
M  V30 164 C 17.5432 -3.71579 3.67051 0
M  V30 165 H 19.2372 -1.92541 2.29277 0
M  V30 166 H 16.7832 -0.924948 1.10366 0
M  V30 167 H 18.7362 -4.06215 1.12104 0
M  V30 168 H 17.4602 -3.26154 0.170631 0
M  V30 169 H 16.1192 -2.8797 2.26868 0
M  V30 170 H 15.7672 -4.94759 0.906796 0
M  V30 171 H 15.4672 -5.25139 2.63634 0
M  V30 172 H 16.9912 -5.80694 1.88749 0
M  V30 173 H 18.4052 -4.40227 3.67251 0
M  V30 174 H 16.8022 -4.08405 4.39688 0
M  V30 175 H 17.8722 -2.72404 4.01154 0
M  V30 176 N 19.2153 -1.21501 -1.00376 0
M  V30 177 C 20.4613 -1.04457 -1.74529 0
M  V30 178 C 20.8163 0.417386 -1.87818 0
M  V30 179 O 20.1093 1.30556 -1.40234 0
M  V30 180 C 20.3033 -1.67673 -3.15627 0
M  V30 181 C 20.1323 -3.19865 -3.16096 0
M  V30 182 C 18.9023 -3.88915 -3.22604 0
M  V30 183 C 21.1003 -4.16936 -3.01112 0
M  V30 184 N 19.0823 -5.28284 -3.12712 0
M  V30 185 C 20.4533 -5.43066 -2.99131 0
M  V30 186 C 22.5083 -4.07968 -2.85423 0
M  V30 187 C 21.2113 -6.6126 -2.83068 0
M  V30 188 C 23.2373 -5.258 -2.70718 0
M  V30 189 C 22.5993 -6.50842 -2.69414 0
M  V30 190 H 18.6983 -0.436584 -0.648782 0
M  V30 191 H 21.2823 -1.53875 -1.19293 0
M  V30 192 H 19.4533 -1.20822 -3.6913 0
M  V30 193 H 21.1853 -1.43824 -3.78281 0
M  V30 194 H 17.9403 -3.39847 -3.2985 0
M  V30 195 H 18.3643 -6.01284 -3.11105 0
M  V30 196 H 23.0063 -3.1209 -2.85236 0
M  V30 197 H 20.7243 -7.57298 -2.82002 0
M  V30 198 H 24.3103 -5.20683 -2.59577 0
M  V30 199 H 23.1903 -7.40485 -2.5817 0
M  V30 200 N 20.6934 1.19889 -1.02296 0
M  V30 201 C 21.6564 2.21116 -0.603351 0
M  V30 202 C 22.6564 1.5738 0.329884 0
M  V30 203 O 23.8464 1.73802 0.117702 0
M  V30 204 C 20.9784 3.40696 0.117992 0
M  V30 205 H 22.1714 2.59754 -1.49893 0
M  V30 206 H 19.7244 1.33463 -0.813468 0
M  V30 207 H 20.4594 3.07569 1.0282 0
M  V30 208 H 20.2444 3.88188 -0.552511 0
M  V30 209 H 21.7344 4.15692 0.398696 0
M  V30 210 N 22.1715 0.800033 1.35784 0
M  V30 211 C 23.1345 0.211565 2.28221 0
M  V30 212 C 24.1345 -0.59728 1.49296 0
M  V30 213 O 25.3245 -0.416721 1.69142 0
M  V30 214 C 22.4565 -0.705846 3.33513 0
M  V30 215 H 23.6495 1.02677 2.81776 0
M  V30 216 H 21.2025 0.570211 1.45528 0
M  V30 217 H 21.9375 -1.54498 2.85133 0
M  V30 218 H 21.7225 -0.127655 3.91892 0
M  V30 219 H 23.2125 -1.11211 4.02519 0
M  V30 220 N 23.6496 -1.47581 0.552962 0
M  V30 221 C 24.6126 -2.28439 -0.186605 0
M  V30 222 C 25.6126 -1.36706 -0.84665 0
M  V30 223 O 26.8026 -1.59378 -0.703164 0
M  V30 224 C 23.9346 -3.16264 -1.2724 0
M  V30 225 H 25.1276 -2.95294 0.523609 0
M  V30 226 H 22.6806 -1.532 0.309745 0
M  V30 227 H 23.4156 -2.54091 -2.01514 0
M  V30 228 H 23.2006 -3.83769 -0.803968 0
M  V30 229 H 24.6906 -3.77198 -1.79196 0
M  V30 230 N 25.1277 -0.289203 -1.54924 0
M  V30 231 C 26.3737 0.316922 -2.00916 0
M  V30 232 C 26.7287 1.52424 -1.17408 0
M  V30 233 O 26.0217 1.90097 -0.239536 0
M  V30 234 C 26.2157 0.736119 -3.49737 0
M  V30 235 C 26.0447 -0.429036 -4.47649 0
M  V30 236 C 24.8147 -0.917311 -4.96904 0
M  V30 237 C 27.0127 -1.27016 -4.98369 0
M  V30 238 N 24.9947 -2.05046 -5.78644 0
M  V30 239 C 26.3657 -2.25097 -5.77695 0
M  V30 240 C 28.4207 -1.30188 -4.80578 0
M  V30 241 C 27.1237 -3.26114 -6.41126 0
M  V30 242 C 29.1497 -2.30057 -5.44819 0
M  V30 243 C 28.5117 -3.2687 -6.23968 0
M  V30 244 H 24.6107 0.0807535 -0.777819 0
M  V30 245 H 27.1947 -0.416434 -1.90194 0
M  V30 246 H 25.3657 1.43867 -3.60773 0
M  V30 247 H 27.0977 1.32078 -3.82541 0
M  V30 248 H 23.8527 -0.494248 -4.71014 0
M  V30 249 H 24.2767 -2.62108 -6.24202 0
M  V30 250 H 28.9187 -0.567163 -4.18979 0
M  V30 251 H 26.6367 -4.00512 -7.01866 0
M  V30 252 H 30.2227 -2.33271 -5.32988 0
M  V30 253 H 29.1027 -4.02883 -6.72796 0
M  V30 254 N 26.6058 1.57591 -0.0167156 0
M  V30 255 C 27.8538 1.90906 0.663285 0
M  V30 256 C 28.1748 0.892509 1.73376 0
M  V30 257 O 27.4448 -0.0677623 1.95783 0
M  V30 258 H 26.0248 0.704637 0.247983 0
M  V30 259 H 28.6868 1.94803 -0.0615909 0
M  V30 260 H 27.7828 2.9116 1.12393 0
M  V30 261 N 28.0839 -0.256276 1.55502 0
M  V30 262 C 29.3299 -0.987079 1.77157 0
M  V30 263 C 29.6629 -1.85327 0.580315 0
M  V30 264 O 28.9379 -1.89874 -0.421686 0
M  V30 265 C 29.2209 -1.85553 3.08613 0
M  V30 266 C 29.0739 -1.01816 4.38125 0
M  V30 267 C 30.3929 -2.8397 3.36228 0
M  V30 268 H 27.5119 -0.357428 0.644526 0
M  V30 269 H 30.1539 -0.258239 1.88237 0
M  V30 270 H 28.3039 -2.47695 2.99298 0
M  V30 271 H 29.9759 -0.416159 4.59419 0
M  V30 272 H 28.2189 -0.322178 4.32602 0
M  V30 273 H 28.8899 -1.65939 5.26468 0
M  V30 274 H 31.3659 -2.31964 3.45445 0
M  V30 275 H 30.2419 -3.41864 4.29442 0
M  V30 276 H 30.5029 -3.59955 2.56681 0
M  V30 277 N 29.562 -1.4872 -0.521534 0
M  V30 278 C 30.492 -1.66771 -1.63431 0
M  V30 279 C 31.473 -0.516499 -1.62069 0
M  V30 280 O 32.658 -0.750013 -1.79132 0
M  V30 281 C 29.788 -1.71515 -3.01993 0
M  V30 282 C 28.742 -2.86222 -3.18216 0
M  V30 283 C 28.068 -2.76061 -4.57924 0
M  V30 284 C 29.368 -4.27419 -3.00184 0
M  V30 285 H 31.062 -2.59932 -1.48579 0
M  V30 286 H 28.608 -1.25089 -0.713358 0
M  V30 287 H 30.561 -1.82731 -3.7972 0
M  V30 288 H 29.285 -0.749393 -3.17886 0
M  V30 289 H 27.944 -2.74575 -2.42908 0
M  V30 290 H 27.592 -1.77437 -4.70665 0
M  V30 291 H 27.292 -3.53037 -4.69722 0
M  V30 292 H 28.816 -2.89256 -5.37739 0
M  V30 293 H 30.23 -4.39855 -3.67697 0
M  V30 294 H 28.627 -5.05458 -3.2347 0
M  V30 295 H 29.697 -4.43293 -1.96518 0
M  V30 296 N 31.0401 0.771051 -1.3745 0
M  V30 297 C 31.9701 1.89827 -1.3597 0
M  V30 298 C 32.9511 1.68562 -0.228216 0
M  V30 299 O 34.1361 1.8941 -0.428675 0
M  V30 300 C 31.2661 3.2712 -1.16662 0
M  V30 301 C 30.2201 3.6295 -2.2683 0
M  V30 302 C 29.5461 4.98791 -1.92644 0
M  V30 303 C 30.8461 3.69627 -3.69017 0
M  V30 304 H 32.5401 1.91323 -2.30295 0
M  V30 305 H 30.0861 0.919082 -1.10855 0
M  V30 306 H 32.0391 4.05615 -1.14256 0
M  V30 307 H 30.7631 3.26059 -0.187926 0
M  V30 308 H 29.4221 2.86763 -2.28392 0
M  V30 309 H 29.0701 4.94271 -0.933021 0
M  V30 310 H 28.7701 5.23733 -2.66416 0
M  V30 311 H 30.2941 5.79685 -1.91826 0
M  V30 312 H 31.7081 4.38273 -3.69581 0
M  V30 313 H 30.1051 4.06067 -4.41848 0
M  V30 314 H 31.1751 2.70273 -4.02592 0
M  V30 315 N 32.5182 1.22032 0.997298 0
M  V30 316 C 33.4482 1.01065 2.10495 0
M  V30 317 C 34.4292 -0.0669542 1.69968 0
M  V30 318 O 35.6142 0.0943987 1.9397 0
M  V30 319 C 32.7442 0.582874 3.42374 0
M  V30 320 C 31.6982 1.60592 3.96729 0
M  V30 321 C 31.0242 1.03412 5.24605 0
M  V30 322 C 32.3242 2.99478 4.27914 0
M  V30 323 H 34.0182 1.93708 2.28292 0
M  V30 324 H 31.5642 0.932761 1.09707 0
M  V30 325 H 33.5172 0.423332 4.19268 0
M  V30 326 H 32.2412 -0.379213 3.24391 0
M  V30 327 H 30.9002 1.75316 3.21963 0
M  V30 328 H 30.5482 0.063518 5.0296 0
M  V30 329 H 30.2482 1.71754 5.61938 0
M  V30 330 H 31.7722 0.886066 6.04137 0
M  V30 331 H 33.1862 2.88153 4.95622 0
M  V30 332 H 31.5832 3.64903 4.76409 0
M  V30 333 H 32.6532 3.49742 3.3587 0
M  V30 334 N 33.9963 -1.19345 1.0293 0
M  V30 335 C 35.2243 -1.92997 0.745644 0
M  V30 336 C 35.6393 -1.75519 -0.695589 0
M  V30 337 O 34.9963 -1.07737 -1.47306 0
M  V30 338 C 35.0473 -3.44741 1.08792 0
M  V30 339 O 34.7683 -3.61658 2.47256 0
M  V30 340 C 36.2693 -4.35515 0.827129 0
M  V30 341 H 33.4893 -0.613042 0.272801 0
M  V30 342 H 36.0333 -1.51473 1.3739 0
M  V30 343 H 34.1883 -3.84097 0.504832 0
M  V30 344 H 34.6023 -4.55514 2.60015 0
M  V30 345 H 36.0763 -5.40589 1.11658 0
M  V30 346 H 36.5533 -4.38552 -0.238436 0
M  V30 347 H 37.1593 -4.01841 1.39297 0
M  V30 348 N 35.4744 -0.807222 -1.35358 0
M  V30 349 C 36.4374 -0.223665 -2.28106 0
M  V30 350 C 37.4374 0.589354 -1.4961 0
M  V30 351 O 38.6274 0.407745 -1.69361 0
M  V30 352 C 35.7594 0.688149 -3.33882 0
M  V30 353 H 36.9524 -1.04169 -2.81227 0
M  V30 354 H 34.5054 -0.577921 -1.45223 0
M  V30 355 H 35.2404 1.52984 -2.85948 0
M  V30 356 H 35.0254 0.10687 -3.91954 0
M  V30 357 H 36.5154 1.09075 -4.03104 0
M  V30 358 N 36.9525 1.47285 -0.560781 0
M  V30 359 C 38.3635 1.86258 -0.128343 0
M  V30 360 C 38.7145 1.46699 1.30284 0
M  V30 361 O 37.8395 0.871698 1.98067 0
M  V30 362 C 38.4345 3.38044 -0.22614 0
M  V30 363 C 36.9935 3.76096 0.151283 0
M  V30 364 C 36.1405 2.71335 -0.572084 0
M  V30 365 H 39.0915 1.38752 -0.770297 0
M  V30 366 H 39.1125 3.76441 0.554322 0
M  V30 367 H 38.6245 3.66806 -1.26788 0
M  V30 368 H 36.7255 3.52951 1.19399 0
M  V30 369 H 36.8385 4.78641 -0.209765 0
M  V30 370 H 35.2025 2.54696 -0.0147653 0
M  V30 371 H 35.9855 3.02938 -1.61504 0
M  V30 372 N 38.4306 0.297415 1.54768 0
M  V30 373 C 39.3936 -0.567375 2.22066 0
M  V30 374 C 40.3936 -1.06409 1.20556 0
M  V30 375 O 41.5836 -0.960691 1.45315 0
M  V30 376 C 38.7156 -1.78517 2.90421 0
M  V30 377 H 39.9086 0.0205534 2.99893 0
M  V30 378 H 37.4616 0.0482163 1.56226 0
M  V30 379 H 38.1966 -2.41303 2.16664 0
M  V30 380 H 37.9816 -1.43669 3.64831 0
M  V30 381 H 39.4716 -2.39964 3.41771 0
M  V30 382 N 39.9087 -1.5758 0.0250728 0
M  V30 383 C 41.1567 -1.91255 -0.653151 0
M  V30 384 C 41.4777 -0.901691 -1.729 0
M  V30 385 O 40.7477 0.0573785 -1.95816 0
M  V30 386 H 39.3277 -0.705942 -0.244243 0
M  V30 387 H 41.9897 -1.94767 0.0719209 0
M  V30 388 H 41.0857 -2.91752 -1.10847 0
M  V30 389 N 41.3868 0.248026 -1.55636 0
M  V30 390 C 42.3498 1.29044 -1.89421 0
M  V30 391 C 43.3498 1.41134 -0.770581 0
M  V30 392 O 44.5398 1.39854 -1.03858 0
M  V30 393 C 41.6718 2.66831 -2.12165 0
M  V30 394 H 42.8648 1.00305 -2.82629 0
M  V30 395 H 40.4178 0.487265 -1.48511 0
M  V30 396 H 41.1528 3.00711 -1.21422 0
M  V30 397 H 40.9378 2.59438 -2.93997 0
M  V30 398 H 42.4278 3.42103 -2.3949 0
M  V30 399 N 42.8649 1.48995 0.513639 0
M  V30 400 C 43.7969 1.60836 1.63293 0
M  V30 401 C 44.8099 0.491701 1.55197 0
M  V30 402 O 45.9989 0.763238 1.6136 0
M  V30 403 C 43.0989 1.53731 3.02027 0
M  V30 404 C 42.2719 2.80715 3.35437 0
M  V30 405 C 41.3309 2.66837 4.53525 0
M  V30 406 O 40.3569 3.40753 4.55934 0
M  V30 407 N 41.5589 1.77539 5.52684 0
M  V30 408 H 44.3239 2.57366 1.53566 0
M  V30 409 H 41.8849 1.45925 0.701259 0
M  V30 410 H 43.8769 1.42118 3.78926 0
M  V30 411 H 42.4469 0.651092 3.05744 0
M  V30 412 H 41.6669 3.06772 2.47557 0
M  V30 413 H 42.9549 3.64927 3.54551 0
M  V30 414 H 42.3529 1.16719 5.53528 0
M  V30 415 H 40.9099 1.71856 6.28736 0
M  V30 416 N 44.343 -0.763751 1.37857 0
M  V30 417 C 45.759 -1.06542 1.18832 0
M  V30 418 C 45.959 -2.01478 0.0299722 0
M  V30 419 O 45.015 -2.4458 -0.627447 0
M  V30 420 C 46.328 -1.65525 2.51042 0
M  V30 421 C 47.876 -1.77745 2.57635 0
M  V30 422 C 48.351 -2.4014 3.89996 0
M  V30 423 N 49.842 -2.47582 3.91481 0
M  V30 424 C 50.577 -2.96732 4.9065 0
M  V30 425 N 50.073 -3.45993 6.00217 0
M  V30 426 N 51.866 -2.95679 4.78048 0
M  V30 427 H 44.017 -0.133556 2.1198 0
M  V30 428 H 46.28 -0.121879 0.940133 0
M  V30 429 H 45.986 -1.03236 3.36207 0
M  V30 430 H 45.86 -2.64719 2.68707 0
M  V30 431 H 48.247 -2.39164 1.72872 0
M  V30 432 H 48.328 -0.772836 2.43846 0
M  V30 433 H 47.972 -1.79358 4.75177 0
M  V30 434 H 47.902 -3.41223 4.01092 0
M  V30 435 H 50.393 -2.1273 3.12337 0
M  V30 436 H 50.706 -3.81922 6.7183 0
M  V30 437 H 49.051 -3.44077 6.03851 0
M  V30 438 H 52.242 -2.56499 3.91568 0
M  V30 439 H 52.415 -3.33672 5.55488 0
M  V30 440 N 45.8211 -1.22559 -0.990812 0
M  V30 441 C 47.0691 -1.04933 -1.72724 0
M  V30 442 C 47.3901 0.416158 -1.90508 0
M  V30 443 O 46.6601 1.29918 -1.46622 0
M  V30 444 H 45.2401 -0.385296 -0.639965 0
M  V30 445 H 47.9021 -1.54105 -1.19322 0
M  V30 446 H 46.9981 -1.52886 -2.72089 0
M  V30 447 N 47.2992 1.18797 -1.03562 0
M  V30 448 C 48.7152 1.40671 -0.753917 0
M  V30 449 C 48.9152 1.9043 0.658686 0
M  V30 450 O 47.9712 2.08538 1.42366 0
M  V30 451 C 49.2842 2.41192 -1.79574 0
M  V30 452 C 50.8322 2.54928 -1.81606 0
M  V30 453 C 51.3072 3.58709 -2.84766 0
M  V30 454 N 52.7982 3.66212 -2.83625 0
M  V30 455 C 53.5332 4.46225 -3.60098 0
M  V30 456 N 53.0292 5.29888 -4.46308 0
M  V30 457 N 54.8222 4.40939 -3.4861 0
M  V30 458 H 46.9732 0.848221 -1.94728 0
M  V30 459 H 49.2362 0.435081 -0.842264 0
M  V30 460 H 48.9422 2.11669 -2.80872 0
M  V30 461 H 48.8162 3.40467 -1.62365 0
M  V30 462 H 51.2032 2.83771 -0.809817 0
M  V30 463 H 51.2842 1.55784 -2.02891 0
M  V30 464 H 50.9282 3.30607 -3.85566 0
M  V30 465 H 50.8582 4.57519 -2.60737 0
M  V30 466 H 53.3492 3.06466 -2.21105 0
M  V30 467 H 53.6622 5.88078 -5.01382 0
M  V30 468 H 52.0072 5.29326 -4.50377 0
M  V30 469 H 55.1982 3.74624 -2.80668 0
M  V30 470 H 55.3712 5.03056 -4.08459 0
M  V30 471 N 48.7773 0.814389 1.34928 0
M  V30 472 C 49.7243 0.22822 2.29669 0
M  V30 473 C 50.6943 -0.642164 1.53184 0
M  V30 474 O 51.8793 -0.585605 1.81591 0
M  V30 475 C 49.0193 -0.61089 3.3965 0
M  V30 476 C 48.1323 0.280792 4.31086 0
M  V30 477 C 47.2673 -0.567067 5.28165 0
M  V30 478 C 46.3063 0.324531 6.11239 0
M  V30 479 N 45.4433 -0.483756 7.00431 0
M  V30 480 H 50.2833 1.04153 2.79206 0
M  V30 481 H 47.8203 0.525133 1.37407 0
M  V30 482 H 49.7783 -1.11263 4.0209 0
M  V30 483 H 48.4083 -1.38939 2.91369 0
M  V30 484 H 47.4603 0.900688 3.69583 0
M  V30 485 H 48.7723 0.966723 4.89342 0
M  V30 486 H 47.9263 -1.13363 5.96015 0
M  V30 487 H 46.6653 -1.28654 4.70425 0
M  V30 488 H 45.6703 0.903298 5.42329 0
M  V30 489 H 46.8953 1.04198 6.71059 0
M  V30 490 H 44.8413 -1.18706 6.45171 0
M  V30 491 H 44.7583 0.143965 7.55863 0
M  V30 492 H 46.0263 -1.03334 7.7262 0
M  V30 493 N 50.2554 -1.46986 0.568584 0
M  V30 494 C 51.2024 -2.30153 -0.172707 0
M  V30 495 C 52.1724 -1.39759 -0.897586 0
M  V30 496 O 53.3574 -1.68716 -0.891044 0
M  V30 497 C 50.4974 -3.23952 -1.1895 0
M  V30 498 C 49.6104 -4.29441 -0.469517 0
M  V30 499 C 48.7454 -5.1038 -1.47259 0
M  V30 500 C 47.7844 -6.07632 -0.738225 0
M  V30 501 N 46.9214 -6.8149 -1.68868 0
M  V30 502 H 51.7614 -2.93019 0.542596 0
M  V30 503 H 49.2984 -1.44422 0.279401 0
M  V30 504 H 51.2564 -3.76767 -1.79173 0
M  V30 505 H 49.8864 -2.62926 -1.87269 0
M  V30 506 H 48.9384 -3.79594 0.247467 0
M  V30 507 H 50.2504 -4.98689 0.105241 0
M  V30 508 H 49.4044 -5.67402 -2.14803 0
M  V30 509 H 48.1434 -4.4106 -2.08128 0
M  V30 510 H 47.1484 -5.49778 -0.0489293 0
M  V30 511 H 48.3734 -6.78966 -0.135129 0
M  V30 512 H 46.3194 -6.14891 -2.28573 0
M  V30 513 H 46.2364 -7.46948 -1.16636 0
M  V30 514 H 47.5044 -7.43078 -2.3549 0
M  V30 515 N 51.7335 -0.305618 -1.54608 0
M  V30 516 C 52.9795 0.302746 -2.00528 0
M  V30 517 C 53.3125 1.53184 -1.19367 0
M  V30 518 O 52.5875 1.92598 -0.271321 0
M  V30 519 C 52.8705 0.654756 -3.54097 0
M  V30 520 C 52.7235 -0.583793 -4.45995 0
M  V30 521 C 54.0425 1.47947 -4.14487 0
M  V30 522 H 51.1615 0.108564 -0.72896 0
M  V30 523 H 53.8035 -0.418634 -1.85331 0
M  V30 524 H 51.9535 1.26935 -3.67178 0
M  V30 525 H 53.6255 -1.22224 -4.44814 0
M  V30 526 H 51.8685 -1.21615 -4.16404 0
M  V30 527 H 52.5395 -0.293287 -5.5122 0
M  V30 528 H 55.0155 0.96013 -4.04871 0
M  V30 529 H 53.8915 1.69454 -5.22088 0
M  V30 530 H 54.1525 2.47011 -3.66658 0
M  V30 531 N 53.2116 1.57565 -0.0334293 0
M  V30 532 C 54.4576 1.92262 0.645226 0
M  V30 533 C 54.7906 0.910543 1.71531 0
M  V30 534 O 54.0656 -0.066099 1.94388 0
M  V30 535 C 54.3486 3.37422 1.2577 0
M  V30 536 C 54.2016 4.49369 0.196891 0
M  V30 537 C 55.5206 3.82628 2.17449 0
M  V30 538 H 52.6396 0.699171 0.233085 0
M  V30 539 H 55.2816 1.89779 -0.0915694 0
M  V30 540 H 53.4316 3.39669 1.88566 0
M  V30 541 H 55.1036 4.59254 -0.433962 0
M  V30 542 H 53.3466 4.31168 -0.477137 0
M  V30 543 H 54.0176 5.47978 0.665124 0
M  V30 544 H 56.4936 3.82145 1.64634 0
M  V30 545 H 55.3696 4.84883 2.57254 0
M  V30 546 H 55.6306 3.18376 3.0674 0
M  V30 547 N 54.6897 -0.239769 1.55765 0
M  V30 548 C 55.6397 -1.30002 1.87306 0
M  V30 549 C 56.6237 -1.43156 0.73452 0
M  V30 550 O 57.8157 -1.46277 0.99659 0
M  V30 551 C 54.9447 -2.65409 2.17745 0
M  V30 552 C 54.0307 -2.56231 3.37945 0
M  V30 553 N 54.4217 -2.16689 4.57033 0
M  V30 554 C 52.7197 -2.87229 3.41197 0
M  V30 555 C 53.4207 -2.18318 5.39177 0
M  V30 556 N 52.3967 -2.58098 4.78421 0
M  V30 557 H 56.1987 -0.984912 2.76906 0
M  V30 558 H 53.7127 -0.448381 1.56087 0
M  V30 559 H 55.7097 -3.41934 2.38509 0
M  V30 560 H 54.3697 -2.97781 1.29448 0
M  V30 561 H 55.3807 -1.88116 4.82528 0
M  V30 562 H 52.0577 -3.24094 2.63191 0
M  V30 563 H 53.4477 -1.90025 6.44469 0
M  V30 564 N 56.1678 -1.49265 -0.50573 0
M  V30 565 C 57.4138 -1.58748 -1.26202 0
M  V30 566 C 57.7468 -0.271227 -1.92297 0
M  V30 567 O 57.0218 0.724831 -1.80489 0
M  V30 568 C 57.3048 -2.74332 -2.33268 0
M  V30 569 C 57.1578 -4.15737 -1.71705 0
M  V30 570 C 58.4768 -2.85576 -3.34865 0
M  V30 571 H 55.5958 -0.577826 -0.457478 0
M  V30 572 H 58.2378 -1.81532 -0.560897 0
M  V30 573 H 56.3878 -2.55036 -2.93068 0
M  V30 574 H 58.0598 -4.46537 -1.15769 0
M  V30 575 H 56.3028 -4.21605 -1.02135 0
M  V30 576 H 56.9738 -4.92477 -2.49341 0
M  V30 577 H 59.4498 -3.03127 -2.8505 0
M  V30 578 H 58.3258 -3.68135 -4.07146 0
M  V30 579 H 58.5868 -1.94732 -3.96903 0
M  V30 580 N 57.6459 0.756429 -1.3826 0
M  V30 581 C 58.5759 1.88374 -1.37976 0
M  V30 582 C 59.5569 1.68311 -0.246082 0
M  V30 583 O 60.7419 1.88944 -0.44874 0
M  V30 584 C 57.8719 3.25864 -1.20125 0
M  V30 585 C 56.8259 3.60523 -2.30666 0
M  V30 586 C 56.1519 4.9672 -1.97923 0
M  V30 587 C 57.4519 3.65692 -3.72916 0
M  V30 588 H 59.1459 1.88869 -2.32312 0
M  V30 589 H 56.6919 0.907272 -1.11824 0
M  V30 590 H 58.6449 4.0438 -1.18552 0
M  V30 591 H 57.3689 3.25841 -0.222498 0
M  V30 592 H 56.0279 2.84324 -2.3142 0
M  V30 593 H 55.6759 4.93253 -0.985393 0
M  V30 594 H 55.3759 5.20878 -2.71955 0
M  V30 595 H 56.8999 5.77618 -1.97964 0
M  V30 596 H 58.3139 4.34328 -3.74208 0
M  V30 597 H 56.7109 4.01358 -4.4613 0
M  V30 598 H 57.7809 2.65987 -4.05436 0
M  V30 599 N 59.124 1.23083 0.984299 0
M  V30 600 C 60.034 1.02515 2.11016 0
M  V30 601 C 61.05 -0.0291702 1.73976 0
M  V30 602 O 62.226 0.165434 2.00719 0
M  V30 603 C 59.291 0.614673 3.41208 0
M  V30 604 C 58.352 1.74359 3.92297 0
M  V30 605 C 57.585 1.35261 5.16275 0
M  V30 606 O 57.808 0.235136 5.69915 0
M  V30 607 O 56.742 2.17227 5.61334 0
M  V30 608 H 60.568 1.96862 2.31255 0
M  V30 609 H 58.153 1.01753 1.09392 0
M  V30 610 H 60.035 0.396518 4.1953 0
M  V30 611 H 58.71 -0.299851 3.22308 0
M  V30 612 H 57.617 2.01635 3.1511 0
M  V30 613 H 58.95 2.63629 4.15645 0
M  V30 614 N 60.6021 -1.18246 1.0419 0
M  V30 615 C 61.8501 -1.87886 0.744543 0
M  V30 616 C 62.1711 -1.8082 -0.730006 0
M  V30 617 O 61.4411 -1.22736 -1.52685 0
M  V30 618 H 60.0211 -0.695556 0.272417 0
M  V30 619 H 62.6831 -1.43494 1.31892 0
M  V30 620 H 61.7791 -2.9389 1.05049 0
M  V30 621 N 62.0802 -0.821533 -1.34494 0
M  V30 622 C 62.9902 -0.244355 -2.33324 0
M  V30 623 C 64.0062 0.620527 -1.62559 0
M  V30 624 O 65.1822 0.528754 -1.94335 0
M  V30 625 C 62.2472 0.585368 -3.41723 0
M  V30 626 C 61.3082 -0.301752 -4.28238 0
M  V30 627 C 60.5412 0.488466 -5.3146 0
M  V30 628 O 60.7642 1.72186 -5.4379 0
M  V30 629 O 59.6982 -0.12848 -6.01763 0
M  V30 630 H 63.5242 -1.06231 -2.84515 0
M  V30 631 H 61.1092 -0.583645 -1.37528 0
M  V30 632 H 62.9912 1.05747 -4.07916 0
M  V30 633 H 61.6662 1.38068 -2.92778 0
M  V30 634 H 60.5732 -0.821315 -3.64973 0
M  V30 635 H 61.9062 -1.06138 -4.8062 0
M  V30 636 N 63.5583 1.46682 -0.576371 0
M  V30 637 C 64.7833 2.07304 -0.0630475 0
M  V30 638 C 65.2083 1.42329 1.2298 0
M  V30 639 O 64.5663 0.504865 1.74129 0
M  V30 640 C 64.6143 3.60472 0.095895 0
M  V30 641 O 63.7183 3.95927 1.15394 0
M  V30 642 H 63.0593 0.661288 -0.0599463 0
M  V30 643 H 65.5893 1.88417 -0.797511 0
M  V30 644 H 65.5993 4.06865 0.304071 0
M  V30 645 H 64.2743 4.07157 -0.84828 0
M  V30 646 H 62.8513 3.61252 0.924724 0
M  V30 647 N 65.0364 0.313813 1.54444 0
M  V30 648 C 66.2844 -0.291099 1.99993 0
M  V30 649 C 66.6054 -1.53418 1.20366 0
M  V30 650 O 65.8754 -1.93544 0.302927 0
M  V30 651 H 64.4554 -0.110552 0.738774 0
M  V30 652 H 67.1174 0.428106 1.9014 0
M  V30 653 H 66.2134 -0.554268 3.07139 0
M  V30 654 N 66.5145 -1.57545 0.0417849 0
M  V30 655 C 67.7395 -1.97035 -0.647455 0
M  V30 656 C 68.1645 -0.918775 -1.64135 0
M  V30 657 O 67.5225 0.119006 -1.80909 0
M  V30 658 C 67.5705 -3.35609 -1.31905 0
M  V30 659 O 66.6745 -3.3287 -2.43457 0
M  V30 660 H 66.0155 -0.64211 -0.169086 0
M  V30 661 H 68.5455 -2.04318 0.107399 0
M  V30 662 H 68.5555 -3.72126 -1.67291 0
M  V30 663 H 67.2305 -4.11685 -0.590586 0
M  V30 664 H 65.8075 -3.08087 -2.10088 0
M  V30 665 N 67.9926 0.231505 -1.5589 0
M  V30 666 C 69.2386 0.95877 -1.78705 0
M  V30 667 C 69.5716 1.8438 -0.609725 0
M  V30 668 O 68.8466 1.90521 0.391426 0
M  V30 669 C 69.1296 1.8062 -3.11526 0
M  V30 670 C 68.9826 0.948328 -4.39689 0
M  V30 671 C 70.3016 2.78585 -3.40703 0
M  V30 672 H 67.4206 0.347129 -0.650131 0
M  V30 673 H 70.0626 0.228259 -1.88624 0
M  V30 674 H 68.2126 2.42902 -3.03201 0
M  V30 675 H 69.8846 0.343016 -4.60023 0
M  V30 676 H 68.1276 0.253314 -4.3306 0
M  V30 677 H 68.7986 1.57543 -5.29041 0
M  V30 678 H 71.2746 2.26439 -3.49091 0
M  V30 679 H 70.1506 3.34988 -4.34826 0
M  V30 680 H 70.4116 3.55825 -2.62375 0
M  V30 681 N 69.4707 1.49531 0.497807 0
M  V30 682 C 70.7167 1.59415 1.25358 0
M  V30 683 C 71.0497 0.281422 1.9215 0
M  V30 684 O 70.3247 -0.715249 1.80871 0
M  V30 685 C 70.6077 2.75566 2.3181 0
M  V30 686 C 70.4607 4.16642 1.69498 0
M  V30 687 C 71.7797 2.87347 3.33346 0
M  V30 688 H 68.8987 0.580244 0.454408 0
M  V30 689 H 71.5407 1.81827 0.551262 0
M  V30 690 H 69.6907 2.56587 2.91711 0
M  V30 691 H 71.3627 4.47145 1.13399 0
M  V30 692 H 69.6057 4.22141 0.998978 0
M  V30 693 H 70.2767 4.93792 2.46725 0
M  V30 694 H 72.7527 3.04634 2.83438 0
M  V30 695 H 71.6287 3.70289 4.05188 0
M  V30 696 H 71.8897 1.96834 3.95865 0
M  V30 697 N 70.9488 -0.749086 1.3866 0
M  V30 698 C 72.1948 -1.51056 1.35314 0
M  V30 699 C 72.5278 -1.94121 -0.0553751 0
M  V30 700 O 71.8028 -1.65763 -1.01749 0
M  V30 701 C 72.0858 -2.76003 2.31288 0
M  V30 702 C 71.9388 -2.39047 3.8102 0
M  V30 703 C 73.2578 -3.78046 2.2532 0
M  V30 704 H 70.3768 -0.547972 0.492844 0
M  V30 705 H 73.0188 -0.857628 1.69543 0
M  V30 706 H 71.1688 -3.31716 2.02229 0
M  V30 707 H 72.8408 -1.89074 4.20771 0
M  V30 708 H 71.0838 -1.71449 3.98482 0
M  V30 709 H 71.7548 -3.28462 4.4364 0
M  V30 710 H 74.2308 -3.31884 2.50983 0
M  V30 711 H 73.1068 -4.63159 2.94576 0
M  V30 712 H 73.3678 -4.23957 1.25352 0
M  V30 713 N 72.4269 -1.23603 -0.977757 0
M  V30 714 C 73.3589 -0.977369 -2.07317 0
M  V30 715 C 74.3719 0.0495845 -1.62724 0
M  V30 716 O 75.5609 -0.186261 -1.77526 0
M  V30 717 C 72.6609 -0.451216 -3.35883 0
M  V30 718 C 71.8339 -1.53896 -4.09432 0
M  V30 719 C 70.8929 -1.01721 -5.16274 0
M  V30 720 O 69.9189 -1.70676 -5.43009 0
M  V30 721 N 71.1209 0.153594 -5.80297 0
M  V30 722 H 73.8859 -1.92047 -2.30082 0
M  V30 723 H 71.4469 -1.14497 -1.14465 0
M  V30 724 H 73.4389 -0.0871574 -4.04606 0
M  V30 725 H 72.0089 0.397368 -3.10064 0
M  V30 726 H 71.2289 -2.07566 -3.35127 0
M  V30 727 H 72.5169 -2.27037 -4.55337 0
M  V30 728 H 71.9149 0.730323 -5.60966 0
M  V30 729 H 70.4719 0.458892 -6.50183 0
M  V30 730 N 73.905 1.17692 -1.04816 0
M  V30 731 C 75.133 1.91786 -0.776254 0
M  V30 732 C 75.548 1.76604 0.667577 0
M  V30 733 O 74.905 1.10067 1.45573 0
M  V30 734 C 74.956 3.42967 -1.14263 0
M  V30 735 O 74.677 3.57678 -2.52978 0
M  V30 736 C 76.178 4.34144 -0.896311 0
M  V30 737 H 73.398 0.608624 -0.282519 0
M  V30 738 H 75.942 1.49268 -1.39783 0
M  V30 739 H 74.097 3.83245 -0.565874 0
M  V30 740 H 74.511 4.51319 -2.67229 0
M  V30 741 H 75.985 5.38744 -1.20244 0
M  V30 742 H 76.462 4.38876 0.168636 0
M  V30 743 H 77.068 3.99574 -1.45672 0
M  V30 744 N 75.3831 0.828654 1.34056 0
M  V30 745 C 76.3461 0.259927 2.27721 0
M  V30 746 C 77.3461 -0.565478 1.50529 0
M  V30 747 O 78.5361 -0.38075 1.69988 0
M  V30 748 C 75.6681 -0.634944 3.34935 0
M  V30 749 H 76.8611 1.0863 2.79534 0
M  V30 750 H 74.4141 0.600951 1.44285 0
M  V30 751 H 75.1491 -1.48416 2.88346 0
M  V30 752 H 74.9341 -0.0444999 3.92075 0
M  V30 753 H 76.4241 -1.02648 4.04788 0
M  V30 754 N 76.8612 -1.46375 0.584142 0
M  V30 755 C 78.2722 -1.86031 0.157959 0
M  V30 756 C 78.6232 -1.48753 -1.27933 0
M  V30 757 O 77.7482 -0.903098 -1.96655 0
M  V30 758 C 78.3432 -3.37642 0.279892 0
M  V30 759 C 76.9022 -3.76289 -0.09143 0
M  V30 760 C 76.0492 -2.7039 0.615178 0
M  V30 761 H 79.0002 -1.37509 0.792274 0
M  V30 762 H 79.0212 -3.77275 -0.494364 0
M  V30 763 H 78.5332 -3.64742 1.32607 0
M  V30 764 H 76.6342 -3.54806 -1.13769 0
M  V30 765 H 76.7472 -4.78246 0.285886 0
M  V30 766 H 75.1112 -2.5464 0.0552833 0
M  V30 767 H 75.8942 -3.0033 1.66303 0
M  V30 768 N 78.3393 -0.321999 -1.54275 0
M  V30 769 C 79.5873 0.280489 -2.00144 0
M  V30 770 C 79.9083 1.52777 -1.21178 0
M  V30 771 O 79.1783 1.9338 -0.313187 0
M  V30 772 H 77.7583 0.106632 -0.73935 0
M  V30 773 H 80.4203 -0.438184 -1.8991 0
M  V30 774 H 79.5163 0.537972 -3.07428 0
M  V30 775 N 79.8174 1.5752 -0.0501392 0
M  V30 776 C 80.7494 2.08413 0.95376 0
M  V30 777 C 81.7624 1.01175 1.27544 0
M  V30 778 O 82.9514 1.28744 1.23641 0
M  V30 779 C 80.0514 2.51138 2.27559 0
M  V30 780 C 79.2244 3.817 2.13598 0
M  V30 781 C 78.2834 4.10749 3.28895 0
M  V30 782 O 77.3094 4.80685 3.04845 0
M  V30 783 N 78.5114 3.62579 4.5334 0
M  V30 784 H 81.2764 2.95165 0.519383 0
M  V30 785 H 78.8374 1.61327 0.136127 0
M  V30 786 H 80.8294 2.67648 3.03557 0
M  V30 787 H 79.3994 1.6964 2.62567 0
M  V30 788 H 78.6194 3.74782 1.22197 0
M  V30 789 H 79.9074 4.67201 2.01496 0
M  V30 790 H 79.3054 3.06039 4.75769 0
M  V30 791 H 77.8624 3.84329 5.26436 0
M  V30 792 N 81.2955 -0.223234 1.56011 0
M  V30 793 C 82.5415 -0.949279 1.79211 0
M  V30 794 C 82.8745 -1.84054 0.619494 0
M  V30 795 O 82.1495 -1.90726 -0.381317 0
M  V30 796 C 82.4325 -1.78965 3.12479 0
M  V30 797 C 82.2855 -0.924997 4.40186 0
M  V30 798 C 83.6045 -2.76774 3.42175 0
M  V30 799 H 80.7235 -0.343676 0.651963 0
M  V30 800 H 83.3655 -0.218253 1.88742 0
M  V30 801 H 81.5155 -2.41291 3.04485 0
M  V30 802 H 83.1875 -0.318615 4.60198 0
M  V30 803 H 81.4305 -0.230344 4.33188 0
M  V30 804 H 82.1015 -1.54735 5.29869 0
M  V30 805 H 84.5775 -2.24584 3.50287 0
M  V30 806 H 83.4535 -3.32678 4.36597 0
M  V30 807 H 83.7145 -3.54429 2.64258 0
M  V30 808 N 82.7736 -1.49793 -0.48987 0
M  V30 809 C 84.0196 -1.60078 -1.24511 0
M  V30 810 C 84.3526 -0.291608 -1.91998 0
M  V30 811 O 83.6276 0.705647 -1.81248 0
M  V30 812 C 83.9106 -2.76791 -2.30345 0
M  V30 813 C 83.7636 -4.17535 -1.67286 0
M  V30 814 C 85.0826 -2.89111 -3.31817 0
M  V30 815 H 82.2016 -0.582645 -0.451324 0
M  V30 816 H 84.8436 -1.82117 -0.541612 0
M  V30 817 H 82.9936 -2.5813 -2.90346 0
M  V30 818 H 84.6656 -4.4774 -1.11026 0
M  V30 819 H 82.9086 -4.22665 -0.976577 0
M  V30 820 H 83.5796 -4.95094 -2.44103 0
M  V30 821 H 86.0556 -3.06133 -2.81819 0
M  V30 822 H 84.9316 -3.72433 -4.03219 0
M  V30 823 H 85.1926 -1.9893 -3.94815 0
M  V30 824 N 84.2517 0.741722 -1.39055 0
M  V30 825 C 85.4767 1.53607 -1.39354 0
M  V30 826 C 85.9017 1.88096 0.0116905 0
M  V30 827 O 85.2597 1.5143 0.996924 0
M  V30 828 C 85.3077 2.80441 -2.26682 0
M  V30 829 O 84.4117 3.76088 -1.69208 0
M  V30 830 H 83.7527 0.464142 -0.474835 0
M  V30 831 H 86.2827 0.915665 -1.82967 0
M  V30 832 H 86.2927 3.29246 -2.40959 0
M  V30 833 H 84.9677 2.5467 -3.2881 0
M  V30 834 H 83.5447 3.34833 -1.64138 0
M  V30 835 N 85.7298 1.2412 0.971189 0
M  V30 836 C 86.6798 0.997551 2.05019 0
M  V30 837 C 87.6638 -0.0597747 1.60789 0
M  V30 838 O 88.8558 0.153516 1.76333 0
M  V30 839 C 85.9848 0.600557 3.38006 0
M  V30 840 C 85.0708 1.69377 3.88809 0
M  V30 841 N 85.4618 2.92586 4.12586 0
M  V30 842 C 83.7598 1.57048 4.17435 0
M  V30 843 C 84.4608 3.63431 4.54195 0
M  V30 844 N 83.4368 2.90979 4.59165 0
M  V30 845 H 87.2388 1.93316 2.21374 0
M  V30 846 H 84.7528 1.14194 1.1547 0
M  V30 847 H 86.7498 0.40725 4.14906 0
M  V30 848 H 85.4098 -0.327903 3.2304 0
M  V30 849 H 86.4208 3.288 4.00139 0
M  V30 850 H 83.0978 0.709798 4.11422 0
M  V30 851 H 84.4878 4.69102 4.81033 0
M  V30 852 N 87.2079 -1.17134 1.05439 0
M  V30 853 C 88.6239 -1.39454 0.776201 0
M  V30 854 C 88.8239 -1.91454 -0.628307 0
M  V30 855 O 87.8799 -2.10777 -1.39031 0
M  V30 856 C 89.1929 -2.38305 1.83388 0
M  V30 857 C 90.7409 -2.52006 1.85639 0
M  V30 858 C 91.2159 -3.54133 2.90437 0
M  V30 859 N 92.7069 -3.61653 2.89415 0
M  V30 860 C 93.4419 -4.4044 3.67152 0
M  V30 861 N 92.9379 -5.22721 4.54681 0
M  V30 862 N 94.7309 -4.35337 3.55581 0
M  V30 863 H 86.8819 -0.817134 1.96053 0
M  V30 864 H 89.1449 -0.421626 0.849079 0
M  V30 865 H 88.8509 -2.07173 2.84204 0
M  V30 866 H 88.7249 -3.37841 1.67761 0
M  V30 867 H 91.1119 -2.82447 0.85486 0
M  V30 868 H 91.1929 -1.52537 2.05344 0
M  V30 869 H 90.8369 -3.24431 3.90777 0
M  V30 870 H 90.7669 -4.53313 2.67983 0
M  V30 871 H 93.2579 -3.02909 2.25952 0
M  V30 872 H 93.5709 -5.80027 5.10674 0
M  V30 873 H 91.9159 -5.22093 4.58741 0
M  V30 874 H 95.1069 -3.70112 2.86592 0
M  V30 875 H 95.2799 -4.96494 4.1641 0
M  V30 876 N 88.686 -0.835752 -1.33615 0
M  V30 877 C 89.934 -0.429109 -1.97492 0
M  V30 878 C 90.255 1.01433 -1.66543 0
M  V30 879 O 89.525 1.70611 -0.962744 0
M  V30 880 H 88.105 -0.155686 -0.730596 0
M  V30 881 H 90.767 -1.06802 -1.63031 0
M  V30 882 H 89.863 -0.55861 -3.0706 0
M  V30 883 N 90.1641 1.46063 -0.591896 0
M  V30 884 C 91.4121 2.01938 -0.0808391 0
M  V30 885 C 91.7331 1.46475 1.28725 0
M  V30 886 O 91.0031 0.652944 1.84698 0
M  V30 887 H 89.5831 0.746516 -0.0268938 0
M  V30 888 H 92.2451 1.79055 -0.769752 0
M  V30 889 H 91.3411 3.12094 -0.0187578 0
M  V30 890 N 91.6422 0.330177 1.54103 0
M  V30 891 C 92.8702 -0.272179 2.05102 0
M  V30 892 C 93.2852 -1.45267 1.20595 0
M  V30 893 O 92.6422 -1.8094 0.238144 0
M  V30 894 C 92.6932 -0.70023 3.54653 0
M  V30 895 O 92.4142 0.433301 4.35952 0
M  V30 896 C 93.9152 -1.3647 4.21771 0
M  V30 897 H 91.1352 -0.0549159 0.668749 0
M  V30 898 H 93.6792 0.478285 1.98828 0
M  V30 899 H 91.8342 -1.40066 3.61193 0
M  V30 900 H 92.2482 0.0947539 5.24414 0
M  V30 901 H 93.7222 -1.61509 5.27843 0
M  V30 902 H 94.1992 -2.31409 3.73292 0
M  V30 903 H 94.8052 -0.706675 4.19388 0
M  V30 904 N 93.1203 -1.57491 0.0584922 0
M  V30 905 C 94.3693 -1.92155 -0.613146 0
M  V30 906 C 94.6823 -0.939334 -1.71569 0
M  V30 907 O 95.8883 -1.17829 -2.44599 0
M  V30 908 C 94.3443 -3.41303 -1.14195 0
M  V30 909 C 93.9523 -4.47944 -0.0711265 0
M  V30 910 C 95.6963 -3.84988 -1.78841 0
M  V30 911 C 93.6033 -5.88212 -0.613225 0
M  V30 912 H 92.5333 -0.717162 -0.232796 0
M  V30 913 H 95.1843 -1.83049 0.12857 0
M  V30 914 H 93.5663 -3.45437 -1.93621 0
M  V30 915 H 94.7403 -4.55408 0.702836 0
M  V30 916 H 93.0553 -4.13644 0.478313 0
M  V30 917 H 95.6523 -4.87159 -2.20408 0
M  V30 918 H 95.9953 -3.21632 -2.64308 0
M  V30 919 H 96.5283 -3.83401 -1.06059 0
M  V30 920 H 93.2673 -6.55183 0.203978 0
M  V30 921 H 92.7873 -5.84294 -1.35501 0
M  V30 922 H 94.4663 -6.37687 -1.09383 0
M  V30 923 N 94.5984 0.214957 -1.56127 0
M  V30 924 C 95.8444 0.939762 -1.79712 0
M  V30 925 C 96.1774 1.83723 -0.629247 0
M  V30 926 O 95.4524 1.90925 0.371197 0
M  V30 927 C 95.7354 1.77306 -3.13424 0
M  V30 928 C 95.5884 0.90164 -4.40671 0
M  V30 929 C 96.9074 2.74956 -3.43638 0
M  V30 930 H 94.0264 0.340214 -0.653776 0
M  V30 931 H 96.6684 0.20824 -1.88855 0
M  V30 932 H 94.8184 2.39673 -3.0576 0
M  V30 933 H 96.4904 0.294206 -4.60361 0
M  V30 934 H 94.7334 0.207368 -4.33304 0
M  V30 935 H 95.4044 1.51923 -5.30682 0
M  V30 936 H 97.8804 2.22724 -3.51473 0
M  V30 937 H 96.7564 3.30358 -4.38355 0
M  V30 938 H 97.0174 3.53023 -2.66134 0
M  V30 939 N 96.0765 1.50051 0.48192 0
M  V30 940 C 97.0065 1.71046 1.58951 0
M  V30 941 C 97.9875 0.559288 1.60642 0
M  V30 942 O 99.1725 0.797243 1.77081 0
M  V30 943 C 96.3025 1.79462 2.97339 0
M  V30 944 C 95.2565 2.94558 3.10515 0
M  V30 945 C 94.5825 2.88105 4.50444 0
M  V30 946 C 95.8825 4.35227 2.88747 0
M  V30 947 H 97.5765 2.6378 1.41635 0
M  V30 948 H 95.1225 1.26936 0.679942 0
M  V30 949 H 97.0755 1.92734 3.74742 0
M  V30 950 H 95.7995 0.833412 3.15788 0
M  V30 951 H 94.4585 2.80918 2.35543 0
M  V30 952 H 94.1065 1.89853 4.65795 0
M  V30 953 H 93.8065 3.65366 4.60197 0
M  V30 954 H 95.3305 3.03412 5.29881 0
M  V30 955 H 96.7445 4.49449 3.55905 0
M  V30 956 H 95.1415 5.13856 3.09955 0
M  V30 957 H 96.2115 4.48347 1.84696 0
M  V30 958 N 97.5546 -0.734337 1.39446 0
M  V30 959 C 98.9656 -1.31264 1.32766 0
M  V30 960 C 99.3166 -1.96198 -0.00767497 0
M  V30 961 O 98.4416 -1.96346 -0.909796 0
M  V30 962 C 99.0366 -2.38682 2.4045 0
M  V30 963 C 97.5956 -2.92184 2.37288 0
M  V30 964 C 96.7426 -1.6576 2.22304 0
M  V30 965 H 99.6936 -0.531799 1.49525 0
M  V30 966 H 99.7146 -3.19087 2.07276 0
M  V30 967 H 99.2266 -1.91392 3.37625 0
M  V30 968 H 97.3276 -3.43752 1.43754 0
M  V30 969 H 97.4406 -3.45253 3.3217 0
M  V30 970 H 95.8046 -1.9012 1.69489 0
M  V30 971 H 96.5876 -1.20521 3.21449 0
M  V30 972 N 99.0327 -1.24633 -0.964593 0
M  V30 973 C 100.273 -1.09981 -1.72289 0
M  V30 974 C 100.637 0.354792 -1.88693 0
M  V30 975 O 101.838 0.62289 -2.61483 0
M  V30 976 C 100.109 -1.82262 -3.07434 0
M  V30 977 S 101.668 -1.83379 -3.98645 0
M  V30 978 H 98.4857 -0.393292 -0.59232 0
M  V30 979 H 101.088 -1.58009 -1.15123 0
M  V30 980 H 99.7917 -2.87206 -2.93157 0
M  V30 981 H 99.3227 -1.3458 -3.69664 0
M  V30 982 H 101.338 -0.903691 -4.87901 0
M  V30 983 N 100.511 1.16574 -1.06058 0
M  V30 984 C 101.927 1.3904 -0.783585 0
M  V30 985 C 102.127 1.91784 0.618145 0
M  V30 986 O 101.183 2.11511 1.37911 0
M  V30 987 C 102.496 2.37329 -1.84649 0
M  V30 988 C 104.044 2.51018 -1.86973 0
M  V30 989 C 104.519 3.52588 -2.92311 0
M  V30 990 N 106.01 3.60113 -2.91329 0
M  V30 991 C 106.745 4.38486 -3.69482 0
M  V30 992 N 106.241 5.20302 -4.57447 0
M  V30 993 N 108.034 4.33446 -3.57885 0
M  V30 994 H 100.185 0.806725 -1.96483 0
M  V30 995 H 102.448 0.417117 -0.851303 0
M  V30 996 H 102.154 2.05663 -2.85299 0
M  V30 997 H 102.028 3.36946 -1.6955 0
M  V30 998 H 104.415 2.81989 -0.869827 0
M  V30 999 H 104.496 1.51445 -2.0615 0
M  V30 1000 H 104.14 3.22354 -3.92492 0
M  V30 1001 H 104.07 4.51886 -2.70383 0
M  V30 1002 H 106.561 3.01707 -2.27555 0
M  V30 1003 H 106.874 5.77311 -5.13743 0
M  V30 1004 H 105.219 5.19653 -4.61503 0
M  V30 1005 H 108.41 3.68586 -2.88551 0
M  V30 1006 H 108.583 4.94279 -4.19037 0
M  V30 1007 N 101.989 0.842826 1.3317 0
M  V30 1008 C 103.219 0.453397 2.01564 0
M  V30 1009 C 103.627 -0.951147 1.63554 0
M  V30 1010 O 102.97 -1.63021 0.846746 0
M  V30 1011 C 103.032 0.499013 3.5602 0
M  V30 1012 C 102.696 1.86037 4.1742 0
M  V30 1013 C 103.693 2.82416 4.36506 0
M  V30 1014 C 101.378 2.15428 4.53757 0
M  V30 1015 C 103.372 4.06346 4.91082 0
M  V30 1016 C 101.059 3.39615 5.0804 0
M  V30 1017 C 102.057 4.3489 5.26649 0
M  V30 1018 O 101.745 5.5688 5.79776 0
M  V30 1019 H 101.477 0.177871 0.652179 0
M  V30 1020 H 104.031 1.13808 1.70988 0
M  V30 1021 H 102.261 -0.242467 3.85939 0
M  V30 1022 H 103.95 0.126852 4.05702 0
M  V30 1023 H 104.716 2.6101 4.08777 0
M  V30 1024 H 100.595 1.42061 4.38565 0
M  V30 1025 H 104.139 4.80722 5.05522 0
M  V30 1026 H 100.036 3.60876 5.352 0
M  V30 1027 H 100.804 5.58674 5.98185 0
M  V30 1028 N 103.467 -1.45747 0.599634 0
M  V30 1029 C 104.417 -2.27538 -0.145107 0
M  V30 1030 C 105.401 -1.3686 -0.846055 0
M  V30 1031 O 106.593 -1.6091 -0.737357 0
M  V30 1032 C 103.722 -3.23569 -1.14708 0
M  V30 1033 C 102.808 -4.21734 -0.447383 0
M  V30 1034 N 103.199 -5.03257 0.506535 0
M  V30 1035 C 101.497 -4.40536 -0.695966 0
M  V30 1036 C 102.198 -5.74426 0.917068 0
M  V30 1037 N 101.174 -5.42966 0.26253 0
M  V30 1038 H 104.976 -2.87965 0.587672 0
M  V30 1039 H 102.49 -1.56803 0.422697 0
M  V30 1040 H 104.487 -3.8089 -1.69495 0
M  V30 1041 H 103.147 -2.64702 -1.8805 0
M  V30 1042 H 104.158 -5.10319 0.882899 0
M  V30 1043 H 100.835 -3.92802 -1.41467 0
M  V30 1044 H 102.225 -6.4995 1.70338 0
M  V30 1045 N 104.945 -0.338344 -1.53925 0
M  V30 1046 C 106.175 0.260919 -2.04946 0
M  V30 1047 C 106.583 1.45174 -1.2133 0
M  V30 1048 O 105.926 1.82122 -0.240262 0
M  V30 1049 C 105.988 0.744596 -3.51704 0
M  V30 1050 C 105.652 -0.325883 -4.55837 0
M  V30 1051 C 106.649 -1.16687 -5.06636 0
M  V30 1052 C 104.334 -0.478317 -5.00017 0
M  V30 1053 C 106.328 -2.14588 -6.00192 0
M  V30 1054 C 104.015 -1.46073 -5.93385 0
M  V30 1055 C 105.013 -2.29297 -6.4336 0
M  V30 1056 O 104.701 -3.25867 -7.34892 0
M  V30 1057 H 104.433 0.0551207 -0.673749 0
M  V30 1058 H 106.987 -0.486984 -1.99544 0
M  V30 1059 H 105.217 1.54366 -3.54553 0
M  V30 1060 H 106.906 1.26383 -3.85723 0
M  V30 1061 H 107.672 -1.06016 -4.73271 0
M  V30 1062 H 103.551 0.159613 -4.60724 0
M  V30 1063 H 107.095 -2.79585 -6.39123 0
M  V30 1064 H 102.992 -1.56802 -6.26166 0
M  V30 1065 H 103.76 -3.21278 -7.5281 0
M  V30 1066 N 106.423 1.57458 -0.0668435 0
M  V30 1067 C 107.333 2.15937 0.916975 0
M  V30 1068 C 108.349 1.12123 1.33058 0
M  V30 1069 O 109.525 1.44366 1.40429 0
M  V30 1070 C 106.59 2.70547 2.16807 0
M  V30 1071 C 105.651 3.89215 1.81135 0
M  V30 1072 C 104.884 4.41211 3.0028 0
M  V30 1073 O 105.107 3.92225 4.14144 0
M  V30 1074 O 104.041 5.32605 2.80384 0
M  V30 1075 H 107.867 3.00354 0.449561 0
M  V30 1076 H 105.452 1.48584 0.155949 0
M  V30 1077 H 107.334 3.0557 2.90181 0
M  V30 1078 H 106.009 1.89192 2.62656 0
M  V30 1079 H 104.916 3.59054 1.05028 0
M  V30 1080 H 106.249 4.71848 1.40073 0
M  V30 1081 N 107.901 -0.206675 1.56239 0
M  V30 1082 C 108.864 -1.23976 1.92776 0
M  V30 1083 C 109.864 -1.39041 0.807729 0
M  V30 1084 O 111.054 -1.37051 1.0753 0
M  V30 1085 C 108.186 -2.61112 2.19165 0
M  V30 1086 H 109.379 -0.927764 2.85189 0
M  V30 1087 H 106.932 -0.447718 1.4975 0
M  V30 1088 H 107.667 -2.97386 1.29352 0
M  V30 1089 H 107.452 -2.51552 3.00772 0
M  V30 1090 H 108.942 -3.35633 2.48476 0
M  V30 1091 N 109.379 -1.50304 -0.473955 0
M  V30 1092 C 110.342 -1.6841 -1.55469 0
M  V30 1093 C 111.342 -0.554905 -1.50922 0
M  V30 1094 O 112.532 -0.821882 -1.53593 0
M  V30 1095 C 109.664 -1.70667 -2.95102 0
M  V30 1096 H 110.857 -2.64828 -1.40733 0
M  V30 1097 H 108.41 -1.39742 -0.700132 0
M  V30 1098 H 109.145 -0.75932 -3.15285 0
M  V30 1099 H 108.93 -2.52698 -2.9981 0
M  V30 1100 H 110.42 -1.8664 -3.73571 0
M  V30 1101 N 110.857 0.726932 -1.39834 0
M  V30 1102 C 111.82 1.82269 -1.38962 0
M  V30 1103 C 112.82 1.58248 -0.285334 0
M  V30 1104 O 114.01 1.65499 -0.54366 0
M  V30 1105 C 111.142 3.20186 -1.17019 0
M  V30 1106 H 112.335 1.84443 -2.36476 0
M  V30 1107 H 109.888 0.931416 -1.25516 0
M  V30 1108 H 110.623 3.23669 -0.202204 0
M  V30 1109 H 110.408 3.3902 -1.96998 0
M  V30 1110 H 111.898 4.00235 -1.1917 0
M  V30 1111 N 112.336 1.25143 0.95797 0
M  V30 1112 C 113.286 1.01924 2.0395 0
M  V30 1113 C 114.27 -0.0427175 1.60843 0
M  V30 1114 O 115.462 0.17221 1.7616 0
M  V30 1115 C 112.591 0.636373 3.3735 0
M  V30 1116 C 111.677 1.73492 3.8699 0
M  V30 1117 N 112.068 2.96945 4.0946 0
M  V30 1118 C 110.366 1.61467 4.15746 0
M  V30 1119 C 111.067 3.68228 4.50315 0
M  V30 1120 N 110.043 2.95833 4.56053 0
M  V30 1121 H 113.845 1.95653 2.19311 0
M  V30 1122 H 111.359 1.15413 1.14253 0
M  V30 1123 H 113.356 0.451233 4.14451 0
M  V30 1124 H 112.016 -0.293621 3.2337 0
M  V30 1125 H 113.027 3.33025 3.96629 0
M  V30 1126 H 109.704 0.753394 4.10646 0
M  V30 1127 H 111.094 4.74178 4.76031 0
M  V30 1128 N 113.814 -1.1601 1.06675 0
M  V30 1129 C 115.062 -1.86264 0.784229 0
M  V30 1130 C 115.383 -1.82328 -0.691488 0
M  V30 1131 O 114.653 -1.25947 -1.50047 0
M  V30 1132 H 113.233 -0.689621 0.28711 0
M  V30 1133 H 115.895 -1.40664 1.34906 0
M  V30 1134 H 114.991 -2.91595 1.11259 0
M  V30 1135 N 115.292 -0.849877 -1.32721 0
M  V30 1136 C 116.242 -0.262892 -2.26479 0
M  V30 1137 C 117.226 0.588493 -1.49752 0
M  V30 1138 O 118.418 0.438659 -1.71478 0
M  V30 1139 C 115.547 0.551818 -3.38836 0
M  V30 1140 C 114.633 -0.311689 -4.22953 0
M  V30 1141 N 115.024 -1.39567 -4.86163 0
M  V30 1142 C 113.322 -0.100611 -4.45887 0
M  V30 1143 C 114.023 -1.92651 -5.48872 0
M  V30 1144 N 112.999 -1.22637 -5.29586 0
M  V30 1145 H 116.801 -1.09166 -2.72873 0
M  V30 1146 H 114.315 -0.695486 -1.46754 0
M  V30 1147 H 116.312 0.988713 -4.05006 0
M  V30 1148 H 114.972 1.37844 -2.93988 0
M  V30 1149 H 115.983 -1.77859 -4.86402 0
M  V30 1150 H 112.66 0.691681 -4.11731 0
M  V30 1151 H 114.05 -2.83487 -6.09167 0
M  V30 1152 N 116.77 1.45427 -0.607355 0
M  V30 1153 C 118.047 1.9557 -0.0344566 0
M  V30 1154 C 118.427 1.54979 1.43334 0
M  V30 1155 O 117.775 0.812241 2.13576 0
M  V30 1156 C 117.985 3.48226 -0.232321 0
M  V30 1157 C 119.333 4.2445 -0.113001 0
M  V30 1158 O 120.357 3.55829 -0.162431 0
M  V30 1159 O 119.216 5.465 0.00209442 0
M  V30 1160 H 116.31 0.826222 0.0358667 0
M  V30 1161 H 118.856 1.55594 -0.6774 0
M  V30 1162 H 117.628 3.70739 -1.25174 0
M  V30 1163 H 117.251 3.95092 0.445896 0
M  V30 1164 N 118.248 0.346503 1.53744 0
M  V30 1165 C 119.496 -0.248612 2.00565 0
M  V30 1166 C 119.817 -1.5083 1.23593 0
M  V30 1167 O 119.087 -1.92858 0.343912 0
M  V30 1168 H 117.667 -0.0948564 0.740953 0
M  V30 1169 H 120.329 0.468341 1.89189 0
M  V30 1170 H 119.425 -0.488994 3.08245 0
M  V30 1171 N 119.726 -1.57421 0.075193 0
M  V30 1172 C 120.972 -1.93905 -0.594025 0
M  V30 1173 C 121.305 -0.955701 -1.69056 0
M  V30 1174 O 120.58 0.0145373 -1.94495 0
M  V30 1175 C 120.863 -3.40638 -1.1678 0
M  V30 1176 C 120.716 -4.49733 -0.0776792 0
M  V30 1177 C 122.035 -3.88259 -2.07228 0
M  V30 1178 H 119.154 -0.705105 -0.214466 0
M  V30 1179 H 121.796 -1.8947 0.141854 0
M  V30 1180 H 119.946 -3.44549 -1.79494 0
M  V30 1181 H 121.618 -4.57942 0.555573 0
M  V30 1182 H 119.861 -4.29751 0.591286 0
M  V30 1183 H 120.532 -5.49549 -0.519603 0
M  V30 1184 H 123.008 -3.86376 -1.54445 0
M  V30 1185 H 121.884 -4.91533 -2.44308 0
M  V30 1186 H 122.145 -3.26396 -2.98191 0
M  V30 1187 N 121.204 0.198386 -1.56346 0
M  V30 1188 C 122.62 0.549085 -1.49857 0
M  V30 1189 C 122.82 1.86016 -0.774611 0
M  V30 1190 O 121.876 2.50416 -0.323776 0
M  V30 1191 C 123.189 0.606868 -2.94512 0
M  V30 1192 C 124.737 0.695925 -3.05165 0
M  V30 1193 C 125.212 0.784848 -4.51225 0
M  V30 1194 N 126.703 0.848463 -4.55363 0
M  V30 1195 C 127.438 0.937378 -5.65686 0
M  V30 1196 N 126.934 0.9888 -6.85707 0
M  V30 1197 N 128.727 0.974312 -5.53592 0
M  V30 1198 H 120.878 -0.661655 -2.01831 0
M  V30 1199 H 123.141 -0.235261 -0.918344 0
M  V30 1200 H 122.847 -0.28732 -3.50524 0
M  V30 1201 H 122.721 1.46268 -3.47686 0
M  V30 1202 H 125.108 1.58055 -2.49204 0
M  V30 1203 H 125.189 -0.186022 -2.55123 0
M  V30 1204 H 124.833 -0.0954072 -5.0781 0
M  V30 1205 H 124.763 1.68255 -4.98997 0
M  V30 1206 H 127.254 0.818103 -3.68938 0
M  V30 1207 H 127.567 1.05707 -7.65536 0
M  V30 1208 H 125.912 0.957534 -6.88372 0
M  V30 1209 H 129.103 0.930954 -4.58749 0
M  V30 1210 H 129.276 1.04015 -6.39597 0
M  V30 1211 N 122.682 1.50554 0.465978 0
M  V30 1212 C 123.612 1.72722 1.57128 0
M  V30 1213 C 124.593 0.576294 1.6004 0
M  V30 1214 O 125.778 0.81598 1.76225 0
M  V30 1215 C 122.908 1.82605 2.95419 0
M  V30 1216 C 121.862 2.97835 3.07373 0
M  V30 1217 C 121.188 2.92867 4.47363 0
M  V30 1218 C 122.488 4.38265 2.84114 0
M  V30 1219 H 124.182 2.65267 1.38829 0
M  V30 1220 H 121.728 1.2765 0.666441 0
M  V30 1221 H 123.681 1.96698 3.72677 0
M  V30 1222 H 122.405 0.866858 3.14886 0
M  V30 1223 H 121.064 2.83401 2.3255 0
M  V30 1224 H 120.712 1.94783 4.63755 0
M  V30 1225 H 120.412 3.70227 4.56296 0
M  V30 1226 H 121.936 3.09015 5.26633 0
M  V30 1227 H 123.35 4.53198 3.51118 0
M  V30 1228 H 121.747 5.17115 3.04487 0
M  V30 1229 H 122.817 4.50281 1.7993 0
M  V30 1230 N 124.16 -0.719506 1.40217 0
M  V30 1231 C 125.107 -1.83359 1.40172 0
M  V30 1232 C 126.077 -1.64065 0.259206 0
M  V30 1233 O 127.262 -1.85254 0.456677 0
M  V30 1234 C 124.402 -3.2103 1.26624 0
M  V30 1235 C 123.515 -3.51923 2.50548 0
M  V30 1236 C 122.65 -4.79079 2.29471 0
M  V30 1237 C 121.689 -5.02863 3.48992 0
M  V30 1238 N 120.826 -6.2123 3.27135 0
M  V30 1239 H 125.666 -1.82733 2.35399 0
M  V30 1240 H 123.203 -0.892688 1.16917 0
M  V30 1241 H 125.161 -4.00524 1.16776 0
M  V30 1242 H 123.791 -3.20895 0.350176 0
M  V30 1243 H 122.843 -2.67014 2.70939 0
M  V30 1244 H 124.155 -3.6541 3.39525 0
M  V30 1245 H 123.309 -5.66582 2.16955 0
M  V30 1246 H 122.048 -4.67794 1.37913 0
M  V30 1247 H 121.053 -4.13816 3.6199 0
M  V30 1248 H 122.278 -5.16023 4.41472 0
M  V30 1249 H 120.224 -6.11204 2.38256 0
M  V30 1250 H 120.141 -6.35375 4.09675 0
M  V30 1251 H 121.409 -7.11532 3.18344 0
M  V30 1252 N 125.638 -1.25649 -0.95132 0
M  V30 1253 C 126.884 -1.11766 -1.69941 0
M  V30 1254 C 127.239 0.33735 -1.89419 0
M  V30 1255 O 126.532 1.24491 -1.45645 0
M  V30 1256 C 126.726 -1.80909 -3.08231 0
M  V30 1257 C 126.555 -3.32984 -3.02245 0
M  V30 1258 C 125.325 -4.02247 -3.05819 0
M  V30 1259 C 127.523 -4.29332 -2.83157 0
M  V30 1260 N 125.505 -5.41072 -2.90024 0
M  V30 1261 C 126.876 -5.55265 -2.75828 0
M  V30 1262 C 128.931 -4.19707 -2.67863 0
M  V30 1263 C 127.634 -6.72671 -2.54767 0
M  V30 1264 C 129.66 -5.36809 -2.48173 0
M  V30 1265 C 129.022 -6.61683 -2.41567 0
M  V30 1266 H 125.121 -0.463708 -0.629682 0
M  V30 1267 H 127.705 -1.58796 -1.12659 0
M  V30 1268 H 125.876 -1.36369 -3.63673 0
M  V30 1269 H 127.608 -1.59739 -3.71841 0
M  V30 1270 H 124.363 -3.53531 -3.15139 0
M  V30 1271 H 124.787 -6.13938 -2.85323 0
M  V30 1272 H 129.429 -3.23907 -2.71743 0
M  V30 1273 H 127.147 -7.68577 -2.49629 0
M  V30 1274 H 130.733 -5.31224 -2.37259 0
M  V30 1275 H 129.613 -7.50768 -2.26531 0
M  V30 1276 N 127.117 1.15442 -1.07289 0
M  V30 1277 C 128.345 1.90096 -0.81676 0
M  V30 1278 C 128.76 1.7798 0.629966 0
M  V30 1279 O 128.117 1.1313 1.43206 0
M  V30 1280 C 128.168 3.40466 -1.21512 0
M  V30 1281 O 127.889 3.52232 -2.60508 0
M  V30 1282 C 129.39 4.32145 -0.988198 0
M  V30 1283 H 126.61 0.602495 -0.295366 0
M  V30 1284 H 129.154 1.4627 -1.42918 0
M  V30 1285 H 127.309 3.81958 -0.647039 0
M  V30 1286 H 127.723 4.45549 -2.76742 0
M  V30 1287 H 129.197 5.36072 -1.31645 0
M  V30 1288 H 129.674 4.39135 0.0755063 0
M  V30 1289 H 130.28 3.96395 -1.54115 0
M  V30 1290 N 128.595 0.856903 1.32268 0
M  V30 1291 C 129.542 0.301172 2.28827 0
M  V30 1292 C 130.512 -0.593104 1.5515 0
M  V30 1293 O 131.697 -0.527537 1.83362 0
M  V30 1294 C 128.837 -0.502523 3.41422 0
M  V30 1295 C 127.95 0.417797 4.29975 0
M  V30 1296 C 127.085 -0.398749 5.29701 0
M  V30 1297 C 126.124 0.518827 6.09897 0
M  V30 1298 N 125.261 -0.260674 7.01616 0
M  V30 1299 H 130.101 1.12983 2.75751 0
M  V30 1300 H 127.638 0.568582 1.35667 0
M  V30 1301 H 129.596 -0.984141 4.05426 0
M  V30 1302 H 128.226 -1.29599 2.95642 0
M  V30 1303 H 127.278 1.01781 3.66531 0
M  V30 1304 H 128.59 1.12191 4.86019 0
M  V30 1305 H 127.744 -0.943435 5.9932 0
M  V30 1306 H 126.483 -1.13622 4.7428 0
M  V30 1307 H 125.488 1.07538 5.39181 0
M  V30 1308 H 126.713 1.25495 6.67404 0
M  V30 1309 H 124.659 -0.981198 6.4862 0
M  V30 1310 H 124.576 0.384364 7.55022 0
M  V30 1311 H 125.844 -0.787014 7.75517 0
M  V30 1312 N 130.073 -1.45103 0.615059 0
M  V30 1313 C 131.319 -2.02483 0.113347 0
M  V30 1314 C 131.652 -1.48146 -1.25564 0
M  V30 1315 O 130.927 -0.659104 -1.82992 0
M  V30 1316 C 131.21 -3.60005 0.0825278 0
M  V30 1317 C 131.063 -4.2466 1.48271 0
M  V30 1318 C 132.382 -4.35972 -0.601401 0
M  V30 1319 H 129.501 -0.735764 0.0426632 0
M  V30 1320 H 132.143 -1.72868 0.788461 0
M  V30 1321 H 130.293 -3.85367 -0.492378 0
M  V30 1322 H 131.965 -4.10458 2.10527 0
M  V30 1323 H 130.208 -3.82772 2.04127 0
M  V30 1324 H 130.879 -5.336 1.41332 0
M  V30 1325 H 133.355 -4.15947 -0.112666 0
M  V30 1326 H 132.231 -5.45697 -0.592097 0
M  V30 1327 H 132.492 -4.09391 -1.66887 0
M  V30 1328 N 131.551 -0.354651 -1.53558 0
M  V30 1329 C 132.797 0.238797 -2.01389 0
M  V30 1330 C 133.13 1.49309 -1.2418 0
M  V30 1331 O 132.405 1.91638 -0.332457 0
M  V30 1332 C 132.688 0.541771 -3.56001 0
M  V30 1333 C 132.541 -0.725388 -4.43912 0
M  V30 1334 C 133.86 1.34685 -4.18984 0
M  V30 1335 H 130.979 0.0853177 -0.732045 0
M  V30 1336 H 133.621 -0.477384 -1.83905 0
M  V30 1337 H 131.771 1.15189 -3.71031 0
M  V30 1338 H 133.443 -1.36313 -4.407 0
M  V30 1339 H 131.686 -1.34801 -4.12324 0
M  V30 1340 H 132.357 -0.468505 -5.50008 0
M  V30 1341 H 134.833 0.830837 -4.07721 0
M  V30 1342 H 133.709 1.52759 -5.27215 0
M  V30 1343 H 133.97 2.35221 -3.74331 0
M  V30 1344 N 133.029 1.57378 -0.0835403 0
M  V30 1345 C 134.306 1.85363 0.624507 0
M  V30 1346 C 134.686 0.978239 1.87066 0
M  V30 1347 O 134.034 0.0475908 2.2845 0
M  V30 1348 C 134.244 3.35795 0.950947 0
M  V30 1349 C 135.592 4.03581 1.31939 0
M  V30 1350 O 136.616 3.40609 1.04232 0
M  V30 1351 O 135.475 5.14672 1.83779 0
M  V30 1352 H 132.569 0.766162 0.311329 0
M  V30 1353 H 135.115 1.69307 -0.115362 0
M  V30 1354 H 133.887 3.91244 0.0663899 0
M  V30 1355 H 133.51 3.57154 1.74719 0
M  V30 1356 N 134.507 -0.190092 1.56449 0
M  V30 1357 C 135.918 -0.754312 1.70784 0
M  V30 1358 C 136.269 -1.83631 0.690951 0
M  V30 1359 O 135.394 -2.15868 -0.151604 0
M  V30 1360 C 135.989 -1.37503 3.09642 0
M  V30 1361 C 134.548 -1.88628 3.25725 0
M  V30 1362 C 133.695 -0.758098 2.66736 0
M  V30 1363 H 136.646 0.0350524 1.58661 0
M  V30 1364 H 136.667 -2.2445 3.0725 0
M  V30 1365 H 136.179 -0.587302 3.83631 0
M  V30 1366 H 134.28 -2.70103 2.56661 0
M  V30 1367 H 134.393 -2.04462 4.3328 0
M  V30 1368 H 132.757 -1.17369 2.26046 0
M  V30 1369 H 133.54 0.0174705 3.43296 0
M  V30 1370 N 135.985 -1.50799 -0.457987 0
M  V30 1371 C 136.915 -1.73553 -1.5621 0
M  V30 1372 C 137.896 -0.584774 -1.59732 0
M  V30 1373 O 139.081 -0.825314 -1.7579 0
M  V30 1374 C 136.211 -1.84169 -2.94447 0
M  V30 1375 C 135.165 -2.99461 -3.0579 0
M  V30 1376 C 134.491 -2.95235 -4.45803 0
M  V30 1377 C 135.791 -4.39766 -2.81786 0
M  V30 1378 H 137.485 -2.66 -1.37421 0
M  V30 1379 H 135.031 -1.28002 -0.659662 0
M  V30 1380 H 136.984 -1.98672 -3.71628 0
M  V30 1381 H 135.708 -0.883545 -3.14422 0
M  V30 1382 H 134.367 -2.8463 -2.31044 0
M  V30 1383 H 134.015 -1.97239 -4.62715 0
M  V30 1384 H 133.715 -3.72642 -4.54326 0
M  V30 1385 H 135.239 -3.11803 -5.24987 0
M  V30 1386 H 136.653 -4.55054 -3.4871 0
M  V30 1387 H 135.05 -5.18722 -3.0174 0
M  V30 1388 H 136.12 -4.51229 -1.7754 0
M  V30 1389 N 137.463 0.71206 -1.40597 0
M  V30 1390 C 138.426 1.80785 -1.40888 0
M  V30 1391 C 139.426 1.57937 -0.302103 0
M  V30 1392 O 140.616 1.64913 -0.561182 0
M  V30 1393 C 137.748 3.18927 -1.20409 0
M  V30 1394 H 138.941 1.81924 -2.38419 0
M  V30 1395 H 136.494 0.91805 -1.26497 0
M  V30 1396 H 137.229 3.23436 -0.236522 0
M  V30 1397 H 137.014 3.36911 -2.00582 0
M  V30 1398 H 138.504 3.98949 -1.23408 0
M  V30 1399 N 138.941 1.26152 0.944643 0
M  V30 1400 C 140.188 1.11492 1.69044 0
M  V30 1401 C 140.516 -0.342366 1.91463 0
M  V30 1402 O 139.771 -1.26812 1.49054 0
M  V30 1403 C 140.07 1.82541 3.07268 0
M  V30 1404 C 139.736 3.32445 3.04616 0
M  V30 1405 C 138.398 3.73337 3.036 0
M  V30 1406 C 140.75 4.28171 2.97185 0
M  V30 1407 C 138.078 5.08348 2.92915 0
M  V30 1408 C 140.43 5.63218 2.88041 0
M  V30 1409 C 139.094 6.03426 2.85366 0
M  V30 1410 H 138.364 0.407977 0.618576 0
M  V30 1411 H 141.011 1.56551 1.10291 0
M  V30 1412 H 139.316 1.29941 3.69625 0
M  V30 1413 H 141.013 1.68642 3.63815 0
M  V30 1414 H 137.603 2.99915 3.06185 0
M  V30 1415 H 141.787 3.97563 2.97081 0
M  V30 1416 H 137.043 5.38667 2.89219 0
M  V30 1417 H 141.217 6.37078 2.81254 0
M  V30 1418 H 138.844 7.07999 2.76842 0
M  V30 1419 N 140.419 -1.14872 1.07899 0
M  V30 1420 C 141.647 -1.89661 0.82683 0
M  V30 1421 C 142.062 -1.78312 -0.620519 0
M  V30 1422 O 141.419 -1.13888 -1.42604 0
M  V30 1423 C 141.47 -3.39817 1.23316 0
M  V30 1424 O 141.191 -3.50845 2.62372 0
M  V30 1425 C 142.692 -4.31615 1.0111 0
M  V30 1426 H 139.912 -0.60092 0.298557 0
M  V30 1427 H 142.456 -1.4551 1.43691 0
M  V30 1428 H 140.611 -3.8161 0.667286 0
M  V30 1429 H 141.025 -4.44076 2.79101 0
M  V30 1430 H 142.499 -5.35367 1.34486 0
M  V30 1431 H 142.976 -4.39169 -0.0522168 0
M  V30 1432 H 143.582 -3.95572 1.56215 0
M  V30 1433 N 141.898 -0.863906 -1.31812 0
M  V30 1434 C 143.175 -0.39275 -1.91616 0
M  V30 1435 C 143.555 1.12461 -1.7865 0
M  V30 1436 O 142.903 1.95045 -1.19037 0
M  V30 1437 C 143.113 -0.867385 -3.38049 0
M  V30 1438 C 144.461 -0.889966 -4.15168 0
M  V30 1439 O 145.485 -0.812635 -3.46806 0
M  V30 1440 O 144.344 -1.00079 -5.37258 0
M  V30 1441 H 141.438 -0.116358 -0.818773 0
M  V30 1442 H 143.984 -0.951418 -1.40521 0
M  V30 1443 H 142.756 -1.91081 -3.41473 0
M  V30 1444 H 142.379 -0.286687 -3.96565 0
M  V30 1445 N 143.376 1.44774 -0.622745 0
M  V30 1446 C 144.622 2.0242 -0.124083 0
M  V30 1447 C 144.955 1.4881 1.24777 0
M  V30 1448 O 144.23 0.668799 1.8264 0
M  V30 1449 C 144.513 3.59957 -0.101619 0
M  V30 1450 C 144.366 4.23867 -1.50521 0
M  V30 1451 C 145.685 4.36284 0.578272 0
M  V30 1452 H 142.804 0.735528 -0.0465645 0
M  V30 1453 H 145.446 1.72447 -0.797617 0
M  V30 1454 H 143.596 3.85623 0.471934 0
M  V30 1455 H 145.268 4.09336 -2.12701 0
M  V30 1456 H 143.511 3.81684 -2.06154 0
M  V30 1457 H 144.182 5.32843 -1.4416 0
M  V30 1458 H 146.658 4.16001 0.0906057 0
M  V30 1459 H 145.534 5.46004 0.563149 0
M  V30 1460 H 145.795 4.10271 1.64713 0
M  V30 1461 N 144.854 0.36279 1.53368 0
M  V30 1462 C 146.101 -0.227776 2.01215 0
M  V30 1463 C 146.429 -1.49003 1.25014 0
M  V30 1464 O 145.684 -1.92876 0.331236 0
M  V30 1465 C 145.983 -0.568417 3.52851 0
M  V30 1466 C 145.649 0.59918 4.46901 0
M  V30 1467 C 144.311 0.919559 4.72332 0
M  V30 1468 C 146.663 1.38156 5.02556 0
M  V30 1469 C 143.991 2.02434 5.5067 0
M  V30 1470 C 146.343 2.47674 5.821 0
M  V30 1471 C 145.007 2.8025 6.05819 0
M  V30 1472 H 144.277 -0.083349 0.736297 0
M  V30 1473 H 146.924 0.494677 1.85001 0
M  V30 1474 H 145.229 -1.37185 3.66998 0
M  V30 1475 H 146.926 -1.03756 3.87344 0
M  V30 1476 H 143.516 0.339437 4.27254 0
M  V30 1477 H 147.7 1.14729 4.82857 0
M  V30 1478 H 142.956 2.28075 5.67267 0
M  V30 1479 H 147.13 3.08716 6.24234 0
M  V30 1480 H 144.757 3.65979 6.66306 0
M  V30 1481 N 146.332 -1.57332 0.0918853 0
M  V30 1482 C 147.578 -1.94524 -0.573425 0
M  V30 1483 C 147.911 -0.973578 -1.68033 0
M  V30 1484 O 147.186 -0.00609226 -1.94499 0
M  V30 1485 C 147.469 -3.41858 -1.13161 0
M  V30 1486 C 147.322 -4.4979 -0.0299747 0
M  V30 1487 C 148.641 -3.90435 -2.03098 0
M  V30 1488 H 145.76 -0.70734 -0.206975 0
M  V30 1489 H 148.402 -1.89309 0.161942 0
M  V30 1490 H 146.552 -3.46433 -1.7583 0
M  V30 1491 H 148.224 -4.57327 0.604112 0
M  V30 1492 H 146.467 -4.291 0.636833 0
M  V30 1493 H 147.138 -5.50069 -0.461287 0
M  V30 1494 H 149.614 -3.87992 -1.50338 0
M  V30 1495 H 148.49 -4.94097 -2.39081 0
M  V30 1496 H 148.751 -3.29541 -2.94712 0
M  V30 1497 N 147.81 0.181792 -1.56548 0
M  V30 1498 C 148.773 1.20894 -1.94724 0
M  V30 1499 C 149.773 1.37738 -0.829747 0
M  V30 1500 O 150.963 1.35323 -1.09697 0
M  V30 1501 C 148.095 2.57593 -2.23291 0
M  V30 1502 H 149.288 0.882275 -2.86629 0
M  V30 1503 H 146.841 0.423838 -1.50444 0
M  V30 1504 H 147.576 2.95291 -1.34067 0
M  V30 1505 H 147.361 2.46735 -3.04736 0
M  V30 1506 H 148.851 3.31637 -2.53785 0
M  V30 1507 N 149.288 1.51039 0.449983 0
M  V30 1508 C 150.218 1.74379 1.55288 0
M  V30 1509 C 151.199 0.593236 1.5942 0
M  V30 1510 O 152.384 0.834625 1.7535 0
M  V30 1511 C 149.514 1.85728 2.93466 0
M  V30 1512 C 148.468 3.01078 3.04197 0
M  V30 1513 C 147.794 2.97595 4.44231 0
M  V30 1514 C 149.094 4.41254 2.7945 0
M  V30 1515 H 150.788 2.66725 1.36008 0
M  V30 1516 H 148.334 1.2835 0.652864 0
M  V30 1517 H 150.287 2.0064 3.70569 0
M  V30 1518 H 149.011 0.900207 3.13949 0
M  V30 1519 H 147.67 2.85851 2.29531 0
M  V30 1520 H 147.318 1.99691 4.61663 0
M  V30 1521 H 147.018 3.75046 4.52343 0
M  V30 1522 H 148.542 3.14583 5.23326 0
M  V30 1523 H 149.956 4.56897 3.46292 0
M  V30 1524 H 148.353 5.20315 2.98985 0
M  V30 1525 H 149.423 4.52164 1.75144 0
M  V30 1526 N 150.766 -0.704594 1.40972 0
M  V30 1527 C 152.014 -1.46169 1.39568 0
M  V30 1528 C 152.335 -1.95 0.00253745 0
M  V30 1529 O 151.605 -1.71095 -0.954114 0
M  V30 1530 H 150.185 -0.542326 0.513704 0
M  V30 1531 H 152.847 -0.834553 1.76128 0
M  V30 1532 H 151.943 -2.32922 2.07735 0
M  V30 1533 N 152.244 -1.26651 -0.937939 0
M  V30 1534 C 153.655 -1.1125 -1.49934 0
M  V30 1535 C 154.006 0.306077 -1.93798 0
M  V30 1536 O 153.131 1.19792 -1.80219 0
M  V30 1537 C 153.726 -2.01339 -2.72485 0
M  V30 1538 C 152.285 -1.90074 -3.24883 0
M  V30 1539 C 151.432 -1.94498 -1.97651 0
M  V30 1540 H 154.383 -1.39693 -0.753091 0
M  V30 1541 H 154.404 -1.56319 -3.46907 0
M  V30 1542 H 153.916 -3.04577 -2.40529 0
M  V30 1543 H 152.017 -0.897827 -3.61621 0
M  V30 1544 H 152.13 -2.75778 -3.9177 0
M  V30 1545 H 150.494 -1.38591 -2.13693 0
M  V30 1546 H 151.277 -2.99372 -1.68022 0
M  V30 1547 N 153.722 1.14298 -1.08507 0
M  V30 1548 C 154.654 2.1907 -0.673859 0
M  V30 1549 C 155.667 1.60381 0.279577 0
M  V30 1550 O 156.856 1.78374 0.0670754 0
M  V30 1551 C 153.956 3.38888 0.0290979 0
M  V30 1552 C 153.129 4.27103 -0.943494 0
M  V30 1553 C 152.188 5.25477 -0.275676 0
M  V30 1554 O 151.214 5.61709 -0.920401 0
M  V30 1555 N 152.416 5.7227 0.974013 0
M  V30 1556 H 155.181 2.54965 -1.57521 0
M  V30 1557 H 152.742 1.29528 -0.971287 0
M  V30 1558 H 154.734 4.01761 0.48683 0
M  V30 1559 H 153.304 3.01309 0.832555 0
M  V30 1560 H 152.524 3.61149 -1.58004 0
M  V30 1561 H 153.812 4.82905 -1.60251 0
M  V30 1562 H 153.21 5.44965 1.51755 0
M  V30 1563 H 151.767 6.37127 1.37522 0
M  V30 1564 N 155.201 0.870884 1.31352 0
M  V30 1565 C 156.151 0.298889 2.26032 0
M  V30 1566 C 157.135 -0.564595 1.50669 0
M  V30 1567 O 158.327 -0.411323 1.72154 0
M  V30 1568 C 155.456 -0.497842 3.39671 0
M  V30 1569 C 154.542 0.378937 4.22404 0
M  V30 1570 N 154.933 1.47284 4.83881 0
M  V30 1571 C 153.231 0.171535 4.4567 0
M  V30 1572 C 153.932 2.01359 5.45738 0
M  V30 1573 N 152.908 1.31047 5.27568 0
M  V30 1574 H 156.71 1.13494 2.71102 0
M  V30 1575 H 154.224 0.718745 1.45629 0
M  V30 1576 H 156.221 -0.924155 4.06528 0
M  V30 1577 H 154.881 -1.33149 2.96144 0
M  V30 1578 H 155.892 1.85575 4.8351 0
M  V30 1579 H 152.569 -0.626091 4.12779 0
M  V30 1580 H 153.959 2.93143 6.0458 0
M  V30 1581 N 156.679 -1.44442 0.630414 0
M  V30 1582 C 158.095 -1.56832 0.295973 0
M  V30 1583 C 158.295 -1.61806 -1.20088 0
M  V30 1584 O 157.351 -1.5607 -1.9849 0
M  V30 1585 C 158.664 -2.84031 0.987264 0
M  V30 1586 C 160.212 -2.97742 0.96534 0
M  V30 1587 C 160.687 -4.27743 1.63708 0
M  V30 1588 N 162.178 -4.34555 1.60364 0
M  V30 1589 C 162.913 -5.33862 2.09234 0
M  V30 1590 N 162.409 -6.39578 2.66292 0
M  V30 1591 N 164.202 -5.25366 1.99867 0
M  V30 1592 H 156.353 -1.39457 1.60205 0
M  V30 1593 H 158.616 -0.668237 0.672431 0
M  V30 1594 H 158.322 -2.86338 2.04215 0
M  V30 1595 H 158.196 -3.73534 0.524588 0
M  V30 1596 H 160.583 -2.94989 -0.0810639 0
M  V30 1597 H 160.664 -2.09589 1.4665 0
M  V30 1598 H 160.308 -4.31255 2.68293 0
M  V30 1599 H 160.238 -5.14752 1.11076 0
M  V30 1600 H 162.729 -3.58772 1.18705 0
M  V30 1601 H 163.042 -7.11637 3.01317 0
M  V30 1602 H 161.387 -6.40265 2.70343 0
M  V30 1603 H 164.578 -4.41688 1.55013 0
M  V30 1604 H 164.751 -6.02606 2.38265 0
M  V30 1605 N 158.157 -0.370918 -1.53173 0
M  V30 1606 C 159.12 0.460778 -2.24521 0
M  V30 1607 C 160.12 1.00536 -1.25496 0
M  V30 1608 O 161.31 0.890266 -1.49733 0
M  V30 1609 C 158.442 1.64457 -2.98608 0
M  V30 1610 H 159.635 -0.163613 -2.99453 0
M  V30 1611 H 157.188 -0.122699 -1.55818 0
M  V30 1612 H 157.923 2.30691 -2.2793 0
M  V30 1613 H 157.708 1.26099 -3.7127 0
M  V30 1614 H 159.198 2.23384 -3.5283 0
M  V30 1615 N 159.635 1.57281 -0.100228 0
M  V30 1616 C 160.882 1.94537 0.562268 0
M  V30 1617 C 161.21 0.982315 1.67871 0
M  V30 1618 O 160.465 0.00280936 1.957 0
M  V30 1619 C 160.764 3.38305 1.15259 0
M  V30 1620 C 160.43 4.50618 0.159409 0
M  V30 1621 C 159.092 4.81066 -0.113741 0
M  V30 1622 C 161.444 5.18615 -0.518461 0
M  V30 1623 C 158.772 5.76835 -1.07137 0
M  V30 1624 C 161.124 6.15412 -1.46459 0
M  V30 1625 C 159.788 6.44262 -1.74592 0
M  V30 1626 H 159.058 0.711863 0.205748 0
M  V30 1627 H 161.705 1.90679 -0.17715 0
M  V30 1628 H 160.01 3.38766 1.96836 0
M  V30 1629 H 161.707 3.64435 1.67297 0
M  V30 1630 H 158.297 4.2689 0.382491 0
M  V30 1631 H 162.481 4.95264 -0.320581 0
M  V30 1632 H 157.737 5.975 -1.29628 0
M  V30 1633 H 161.911 6.67194 -1.99564 0
M  V30 1634 H 159.538 7.1828 -2.48953 0
M  V30 1635 N 161.113 -0.173488 1.56642 0
M  V30 1636 C 162.361 -0.888706 1.81512 0
M  V30 1637 C 162.682 -1.82875 0.676872 0
M  V30 1638 O 161.952 -1.93536 -0.303414 0
M  V30 1639 H 160.532 -0.331164 0.669582 0
M  V30 1640 H 163.194 -0.173823 1.94123 0
M  V30 1641 H 162.29 -1.46691 2.75478 0
M  V30 1642 N 162.591 -1.51276 -0.441967 0
M  V30 1643 C 163.816 -1.67799 -1.21895 0
M  V30 1644 C 164.241 -0.372864 -1.84367 0
M  V30 1645 O 163.599 0.666501 -1.68604 0
M  V30 1646 C 163.647 -2.79199 -2.28211 0
M  V30 1647 O 162.751 -2.42479 -3.33583 0
M  V30 1648 H 162.092 -0.559649 -0.357336 0
M  V30 1649 H 164.622 -1.97815 -0.522522 0
M  V30 1650 H 164.632 -3.03146 -2.73069 0
M  V30 1651 H 163.307 -3.73906 -1.82118 0
M  V30 1652 H 161.884 -2.29087 -2.94234 0
M  V30 1653 N 164.069 0.697108 -1.41344 0
M  V30 1654 C 165.299 1.48377 -1.43763 0
M  V30 1655 C 165.707 1.89156 -0.0408726 0
M  V30 1656 O 165.05 1.57239 0.949812 0
M  V30 1657 C 165.112 2.7781 -2.2817 0
M  V30 1658 C 164.776 2.59244 -3.76353 0
M  V30 1659 C 165.773 2.25292 -4.68551 0
M  V30 1660 C 163.458 2.74933 -4.20378 0
M  V30 1661 C 165.452 2.07264 -6.02761 0
M  V30 1662 C 163.139 2.56521 -5.54653 0
M  V30 1663 C 164.137 2.22737 -6.4566 0
M  V30 1664 O 163.825 2.04485 -7.77458 0
M  V30 1665 H 163.557 0.463842 -0.491759 0
M  V30 1666 H 166.111 0.865934 -1.86255 0
M  V30 1667 H 164.341 3.41995 -1.8049 0
M  V30 1668 H 166.03 3.39608 -2.22309 0
M  V30 1669 H 166.796 2.12787 -4.35829 0
M  V30 1670 H 162.675 3.00213 -3.49848 0
M  V30 1671 H 166.219 1.80817 -6.73759 0
M  V30 1672 H 162.116 2.68616 -5.86955 0
M  V30 1673 H 162.884 2.1926 -7.88586 0
M  V30 1674 N 165.547 1.27147 0.931209 0
M  V30 1675 C 166.963 1.04475 1.20653 0
M  V30 1676 C 167.163 -0.223885 2.00252 0
M  V30 1677 O 166.219 -0.930332 2.34736 0
M  V30 1678 C 167.532 2.28209 1.95809 0
M  V30 1679 C 169.08 2.33211 2.08762 0
M  V30 1680 C 169.555 3.56665 2.87323 0
M  V30 1681 N 171.046 3.57201 2.94892 0
M  V30 1682 C 171.781 4.49395 3.56134 0
M  V30 1683 N 171.277 5.51889 4.18796 0
M  V30 1684 N 173.07 4.37026 3.53504 0
M  V30 1685 H 165.221 2.08612 0.399333 0
M  V30 1686 H 167.484 0.917312 0.239253 0
M  V30 1687 H 167.19 3.20538 1.44736 0
M  V30 1688 H 167.064 2.33247 2.96438 0
M  V30 1689 H 169.451 1.41391 2.59023 0
M  V30 1690 H 169.532 2.32178 1.07364 0
M  V30 1691 H 169.176 4.4882 2.37746 0
M  V30 1692 H 169.106 3.54948 3.88998 0
M  V30 1693 H 171.597 2.83074 2.50354 0
M  V30 1694 H 171.91 6.18409 4.63454 0
M  V30 1695 H 170.255 5.55735 4.17353 0
M  V30 1696 H 173.446 3.56166 3.03749 0
M  V30 1697 H 173.619 5.09067 4.00942 0
M  V30 1698 N 167.025 -1.13721 1.09112 0
M  V30 1699 C 168.273 -1.84559 0.823562 0
M  V30 1700 C 168.594 -1.83754 -0.652658 0
M  V30 1701 O 167.864 -1.29102 -1.47342 0
M  V30 1702 H 166.444 -0.683376 0.301673 0
M  V30 1703 H 169.106 -1.37771 1.37859 0
M  V30 1704 H 168.202 -2.8917 1.17419 0
M  V30 1705 N 168.503 -0.877838 -1.30888 0
M  V30 1706 C 169.919 -0.570844 -1.49042 0
M  V30 1707 C 170.119 0.893159 -1.80624 0
M  V30 1708 O 169.175 1.67485 -1.88958 0
M  V30 1709 C 170.488 -1.47784 -2.61878 0
M  V30 1710 C 172.036 -1.48071 -2.75761 0
M  V30 1711 C 172.511 -2.37347 -3.91702 0
M  V30 1712 N 174.002 -2.35271 -3.99001 0
M  V30 1713 C 174.737 -3.01063 -4.88004 0
M  V30 1714 N 174.233 -3.76055 -5.81854 0
M  V30 1715 N 176.026 -2.90332 -4.81315 0
M  V30 1716 H 168.177 -1.82502 -1.0866 0
M  V30 1717 H 170.44 -0.780797 -0.537644 0
M  V30 1718 H 170.146 -2.51993 -2.45341 0
M  V30 1719 H 170.02 -1.18215 -3.58197 0
M  V30 1720 H 172.407 -0.446166 -2.91708 0
M  V30 1721 H 172.488 -1.81668 -1.80085 0
M  V30 1722 H 172.132 -3.40883 -3.76512 0
M  V30 1723 H 172.062 -2.01071 -4.86701 0
M  V30 1724 H 174.553 -1.80768 -3.3186 0
M  V30 1725 H 174.866 -4.23366 -6.46514 0
M  V30 1726 H 173.211 -3.80163 -5.81808 0
M  V30 1727 H 176.402 -2.31278 -4.06974 0
M  V30 1728 H 176.575 -3.41885 -5.50471 0
M  V30 1729 N 169.982 1.44106 -0.638065 0
M  V30 1730 C 170.945 2.29138 0.0531013 0
M  V30 1731 C 171.945 1.41409 0.765506 0
M  V30 1732 O 173.135 1.63206 0.609046 0
M  V30 1733 C 170.267 3.23144 1.08584 0
M  V30 1734 H 171.46 2.91739 -0.694883 0
M  V30 1735 H 169.013 1.51134 -0.398538 0
M  V30 1736 H 169.748 2.65408 1.86357 0
M  V30 1737 H 169.533 3.87804 0.578852 0
M  V30 1738 H 171.023 3.87004 1.56899 0
M  V30 1739 N 171.46 0.379036 1.52974 0
M  V30 1740 C 172.37 -0.468639 2.29872 0
M  V30 1741 C 173.386 -1.08067 1.36373 0
M  V30 1742 O 174.562 -1.08871 1.69438 0
M  V30 1743 C 171.627 -1.58594 3.083 0
M  V30 1744 C 170.688 -1.00007 4.17489 0
M  V30 1745 C 169.921 -2.06413 4.92168 0
M  V30 1746 O 170.144 -3.27751 4.66835 0
M  V30 1747 O 169.078 -1.68717 5.7777 0
M  V30 1748 H 172.904 0.157508 3.03291 0
M  V30 1749 H 170.489 0.143035 1.48714 0
M  V30 1750 H 172.371 -2.23525 3.57232 0
M  V30 1751 H 171.046 -2.19724 2.37703 0
M  V30 1752 H 169.953 -0.314299 3.72777 0
M  V30 1753 H 171.286 -0.433135 4.90291 0
M  V30 1754 N 172.938 -1.57226 0.108567 0
M  V30 1755 C 173.868 -2.17778 -0.84232 0
M  V30 1756 C 174.849 -1.11487 -1.2847 0
M  V30 1757 O 176.034 -1.39681 -1.34918 0
M  V30 1758 C 173.164 -2.76888 -2.09644 0
M  V30 1759 C 172.118 -3.88669 -1.79221 0
M  V30 1760 C 171.444 -4.34541 -3.11574 0
M  V30 1761 C 172.744 -5.11251 -1.06864 0
M  V30 1762 H 174.438 -2.97489 -0.337774 0
M  V30 1763 H 171.984 -1.43097 -0.161025 0
M  V30 1764 H 173.937 -3.17904 -2.76614 0
M  V30 1765 H 172.661 -1.94451 -2.62405 0
M  V30 1766 H 171.32 -3.48213 -1.14644 0
M  V30 1767 H 170.968 -3.48977 -3.62249 0
M  V30 1768 H 170.668 -5.09914 -2.91996 0
M  V30 1769 H 172.192 -4.782 -3.7968 0
M  V30 1770 H 173.606 -5.49352 -1.63968 0
M  V30 1771 H 172.003 -5.9214 -0.974178 0
M  V30 1772 H 173.073 -4.8487 -0.0536168 0
M  V30 1773 N 174.416 0.165178 -1.56732 0
M  V30 1774 C 175.348 1.22911 -1.93457 0
M  V30 1775 C 176.361 1.40152 -0.828333 0
M  V30 1776 O 177.55 1.40046 -1.10677 0
M  V30 1777 C 174.65 2.59686 -2.17753 0
M  V30 1778 C 173.823 2.63663 -3.48999 0
M  V30 1779 C 172.882 3.81845 -3.62051 0
M  V30 1780 O 171.908 3.67559 -4.34613 0
M  V30 1781 N 173.11 4.98557 -2.97357 0
M  V30 1782 H 175.875 0.917118 -2.85323 0
M  V30 1783 H 173.436 0.354895 -1.57962 0
M  V30 1784 H 175.428 3.37225 -2.23743 0
M  V30 1785 H 173.998 2.83251 -1.32242 0
M  V30 1786 H 173.218 1.72173 -3.54612 0
M  V30 1787 H 174.506 2.63336 -4.35352 0
M  V30 1788 H 173.904 5.13065 -2.38287 0
M  V30 1789 H 172.461 5.73936 -3.08934 0
M  V30 1790 N 175.894 1.51508 0.433938 0
M  V30 1791 C 177.142 1.6402 1.18075 0
M  V30 1792 C 177.463 0.360328 1.91642 0
M  V30 1793 O 176.733 -0.623945 1.85698 0
M  V30 1794 H 175.313 0.6045 0.43885 0
M  V30 1795 H 177.975 1.88452 0.497178 0
M  V30 1796 H 177.071 2.46949 1.90847 0
M  V30 1797 N 177.372 -0.689602 1.41712 0
M  V30 1798 C 178.649 -1.44457 1.31877 0
M  V30 1799 C 179.029 -2.11039 -0.0508537 0
M  V30 1800 O 178.377 -2.02138 -1.06547 0
M  V30 1801 C 178.587 -2.45913 2.47645 0
M  V30 1802 C 179.935 -3.10991 2.89084 0
M  V30 1803 O 180.959 -2.56238 2.47428 0
M  V30 1804 O 179.818 -4.10174 3.61137 0
M  V30 1805 H 176.912 -0.64362 0.519309 0
M  V30 1806 H 179.458 -0.719576 1.53689 0
M  V30 1807 H 178.23 -1.95409 3.39015 0
M  V30 1808 H 177.853 -3.25913 2.27742 0
M  V30 1809 N 178.85 -1.27639 -0.924453 0
M  V30 1810 C 180.098 -1.13941 -1.66918 0
M  V30 1811 C 180.419 0.314589 -1.92446 0
M  V30 1812 O 179.689 1.21964 -1.53303 0
M  V30 1813 H 178.269 -0.418678 -0.618642 0
M  V30 1814 H 180.931 -1.60213 -1.10985 0
M  V30 1815 H 180.027 -1.67094 -2.63602 0
M  V30 1816 N 180.328 1.1314 -1.09713 0
M  V30 1817 C 181.739 1.66029 -0.853885 0
M  V30 1818 C 182.09 1.86241 0.617142 0
M  V30 1819 O 181.215 1.5834 1.47503 0
M  V30 1820 C 181.81 3.01599 -1.5435 0
M  V30 1821 C 180.369 3.51467 -1.34714 0
M  V30 1822 C 179.516 2.26648 -1.59769 0
M  V30 1823 H 182.467 0.970226 -1.25588 0
M  V30 1824 H 182.488 3.67709 -0.978267 0
M  V30 1825 H 182 2.86856 -2.6141 0
M  V30 1826 H 180.101 3.71408 -0.297838 0
M  V30 1827 H 180.214 4.314 -2.08401 0
M  V30 1828 H 178.578 2.33385 -1.01998 0
M  V30 1829 H 179.361 2.14467 -2.68065 0
M  V30 1830 N 181.806 0.884767 1.30421 0
M  V30 1831 C 183.054 0.502112 1.95763 0
M  V30 1832 C 183.375 -0.951815 1.70192 0
M  V30 1833 O 182.645 -1.6692 1.0254 0
M  V30 1834 H 181.225 0.182694 0.724315 0
M  V30 1835 H 183.887 1.1278 1.58955 0
M  V30 1836 H 182.983 0.672188 3.04775 0
M  V30 1837 N 183.284 -1.43765 0.645699 0
M  V30 1838 C 184.561 -1.9541 0.0862963 0
M  V30 1839 C 184.941 -1.58725 -1.39175 0
M  V30 1840 O 184.289 -0.868581 -2.11348 0
M  V30 1841 C 184.499 -3.47488 0.324565 0
M  V30 1842 C 185.847 -4.24001 0.225497 0
M  V30 1843 O 186.871 -3.55274 0.256715 0
M  V30 1844 O 185.73 -5.46313 0.142801 0
M  V30 1845 H 182.824 -0.826882 -0.0139483 0
M  V30 1846 H 185.37 -1.53743 0.718415 0
M  V30 1847 H 184.142 -3.67289 1.3496 0
M  V30 1848 H 183.765 -3.96135 -0.340987 0
M  V30 1849 N 184.763 -0.387143 -1.52771 0
M  V30 1850 C 185.726 0.436939 -2.24997 0
M  V30 1851 C 186.726 0.991991 -1.26555 0
M  V30 1852 O 187.916 0.874335 -1.50669 0
M  V30 1853 C 185.048 1.61281 -3.00335 0
M  V30 1854 H 186.241 -0.195365 -2.99263 0
M  V30 1855 H 183.794 -0.139218 -1.55679 0
M  V30 1856 H 184.529 2.2826 -2.30364 0
M  V30 1857 H 184.314 1.22154 -3.72587 0
M  V30 1858 H 185.804 2.19629 -3.5518 0
M  V30 1859 N 186.241 1.57166 -0.116904 0
M  V30 1860 C 187.466 1.999 0.55271 0
M  V30 1861 C 187.891 0.996039 1.59564 0
M  V30 1862 O 187.249 -0.032556 1.81271 0
M  V30 1863 C 187.297 3.4152 1.15742 0
M  V30 1864 O 186.401 3.44106 2.27299 0
M  V30 1865 H 185.742 0.649447 0.138258 0
M  V30 1866 H 188.272 2.03573 -0.204759 0
M  V30 1867 H 188.282 3.79684 1.49346 0
M  V30 1868 H 186.957 4.14034 0.393493 0
M  V30 1869 H 185.534 3.17759 1.9515 0
M  V30 1870 N 187.719 -0.156864 1.56817 0
M  V30 1871 C 188.649 -1.19589 2.00551 0
M  V30 1872 C 189.63 -1.4536 0.883426 0
M  V30 1873 O 190.815 -1.56449 1.15054 0
M  V30 1874 C 187.945 -2.53143 2.37773 0
M  V30 1875 C 186.899 -2.41913 3.53075 0
M  V30 1876 C 186.225 -3.80088 3.76081 0
M  V30 1877 C 187.525 -1.91157 4.86062 0
M  V30 1878 H 189.219 -0.832293 2.87599 0
M  V30 1879 H 186.765 -0.398918 1.38364 0
M  V30 1880 H 188.718 -3.26047 2.66967 0
M  V30 1881 H 187.442 -2.91319 1.4765 0
M  V30 1882 H 186.101 -1.71462 3.24031 0
M  V30 1883 H 185.749 -4.15683 2.83225 0
M  V30 1884 H 185.449 -3.73439 4.53671 0
M  V30 1885 H 186.973 -4.54556 4.0769 0
M  V30 1886 H 188.387 -2.53846 5.14038 0
M  V30 1887 H 186.784 -1.95422 5.67389 0
M  V30 1888 H 187.854 -0.866673 4.77092 0
M  V30 1889 N 189.197 -1.51736 -0.425897 0
M  V30 1890 C 190.443 -1.65214 -1.1761 0
M  V30 1891 C 190.776 -0.372778 -1.90589 0
M  V30 1892 O 190.051 0.628139 -1.84078 0
M  V30 1893 C 190.334 -2.86312 -2.18398 0
M  V30 1894 C 190.187 -4.24254 -1.49426 0
M  V30 1895 C 191.506 -3.02925 -3.19256 0
M  V30 1896 H 188.625 -0.601263 -0.426206 0
M  V30 1897 H 191.267 -1.8425 -0.463882 0
M  V30 1898 H 189.417 -2.70213 -2.79137 0
M  V30 1899 H 191.089 -4.52046 -0.919362 0
M  V30 1900 H 189.332 -4.26426 -0.796432 0
M  V30 1901 H 190.003 -5.05001 -2.22885 0
M  V30 1902 H 192.479 -3.1781 -2.68581 0
M  V30 1903 H 191.355 -3.89199 -3.8706 0
M  V30 1904 H 191.616 -2.15497 -3.86023 0
M  V30 1905 N 190.675 0.682077 -1.42076 0
M  V30 1906 C 191.605 1.80796 -1.47767 0
M  V30 1907 C 192.586 1.6677 -0.334954 0
M  V30 1908 O 193.771 1.863 -0.548264 0
M  V30 1909 C 190.901 3.19038 -1.37229 0
M  V30 1910 C 189.855 3.47789 -2.49453 0
M  V30 1911 C 189.181 4.8553 -2.23975 0
M  V30 1912 C 190.481 3.45411 -3.91776 0
M  V30 1913 H 192.175 1.7629 -2.41997 0
M  V30 1914 H 189.721 0.846721 -1.16476 0
M  V30 1915 H 191.674 3.97528 -1.39821 0
M  V30 1916 H 190.398 3.24204 -0.394907 0
M  V30 1917 H 189.057 2.71657 -2.46166 0
M  V30 1918 H 188.705 4.87337 -1.24547 0
M  V30 1919 H 188.405 5.0573 -2.99184 0
M  V30 1920 H 189.929 5.66312 -2.28304 0
M  V30 1921 H 191.343 4.13882 -3.96705 0
M  V30 1922 H 189.74 3.77145 -4.66778 0
M  V30 1923 H 190.81 2.44122 -4.18966 0
M  V30 1924 N 192.153 1.28127 0.917671 0
M  V30 1925 C 193.569 1.05749 1.19538 0
M  V30 1926 C 193.769 -0.202633 2.00479 0
M  V30 1927 O 192.825 -0.905382 2.3571 0
M  V30 1928 C 194.138 2.30273 1.93378 0
M  V30 1929 C 195.686 2.35412 2.06277 0
M  V30 1930 C 196.161 3.59692 2.83524 0
M  V30 1931 N 197.652 3.60309 2.91087 0
M  V30 1932 C 198.387 4.53147 3.51348 0
M  V30 1933 N 197.883 5.563 4.12919 0
M  V30 1934 N 199.676 4.40751 3.48849 0
M  V30 1935 H 191.827 2.09024 0.377184 0
M  V30 1936 H 194.09 0.919798 0.22951 0
M  V30 1937 H 193.796 3.22055 1.41328 0
M  V30 1938 H 193.67 2.36378 2.93947 0
M  V30 1939 H 196.057 1.4413 2.57508 0
M  V30 1940 H 196.138 2.33304 1.04895 0
M  V30 1941 H 195.782 4.51316 2.32973 0
M  V30 1942 H 195.712 3.59054 3.85211 0
M  V30 1943 H 198.203 2.85714 2.47338 0
M  V30 1944 H 198.516 6.2329 4.56869 0
M  V30 1945 H 196.861 5.60131 4.11435 0
M  V30 1946 H 200.052 3.59367 2.99955 0
M  V30 1947 H 200.225 5.13291 3.9552 0
M  V30 1948 N 193.631 -1.12557 1.10312 0
M  V30 1949 C 194.579 -2.20325 0.745629 0
M  V30 1950 C 195.573 -1.67429 -0.25763 0
M  V30 1951 O 196.779 -1.79612 -0.118132 0
M  V30 1952 H 193.154 -0.718118 0.223182 0
M  V30 1953 H 195.125 -2.47733 1.66346 0
M  V30 1954 C 193.874 -3.47168 0.192262 0
M  V30 1955 H 193.197 -3.88215 0.955475 0
M  V30 1956 H 194.637 -4.23995 -0.0198274 0
M  V30 1957 C 193.096 -3.19298 -1.07472 0
M  V30 1958 O 193.626 -3.3891 -2.15645 0
M  V30 1959 N 191.832 -2.73113 -0.992847 0
M  V30 1960 H 191.379 -2.57354 -0.112474 0
M  V30 1961 H 191.337 -2.54842 -1.84127 0
M  V30 1962 N 195.109 -0.891671 -1.2995 0
M  V30 1963 C 196.355 -0.514261 -1.96171 0
M  V30 1964 C 196.688 0.935506 -1.70182 0
M  V30 1965 O 195.963 1.66204 -1.01028 0
M  V30 1966 C 196.246 -0.797719 -3.51153 0
M  V30 1967 C 196.099 -2.2986 -3.86632 0
M  V30 1968 C 197.418 -0.278749 -4.39216 0
M  V30 1969 H 194.537 -0.188314 -0.712535 0
M  V30 1970 H 197.179 -1.11689 -1.53706 0
M  V30 1971 H 195.329 -0.284826 -3.87455 0
M  V30 1972 H 197.001 -2.88042 -3.60319 0
M  V30 1973 H 195.244 -2.76257 -3.34462 0
M  V30 1974 H 195.915 -2.44753 -4.94773 0
M  V30 1975 H 198.391 -0.717825 -4.09862 0
M  V30 1976 H 197.267 -0.506353 -5.46559 0
M  V30 1977 H 197.528 0.820266 -4.34424 0
M  V30 1978 N 196.587 1.43421 -0.653314 0
M  V30 1979 C 197.815 2.06163 -0.174491 0
M  V30 1980 C 198.23 1.48969 1.1599 0
M  V30 1981 O 197.587 0.621042 1.71608 0
M  V30 1982 C 197.638 3.61417 -0.0774865 0
M  V30 1983 O 197.359 4.16485 -1.35912 0
M  V30 1984 C 198.86 4.41235 0.427402 0
M  V30 1985 H 196.08 0.664946 -0.0899353 0
M  V30 1986 H 198.624 1.83924 -0.893988 0
M  V30 1987 H 196.779 3.82841 0.59257 0
M  V30 1988 H 197.193 5.10153 -1.21839 0
M  V30 1989 H 198.667 5.5021 0.44423 0
M  V30 1990 H 199.144 4.14268 1.45873 0
M  V30 1991 H 199.75 4.2478 -0.210167 0
M  V30 1992 N 198.065 0.39524 1.52563 0
M  V30 1993 C 198.995 -0.428384 2.29537 0
M  V30 1994 C 199.976 -1.05831 1.33169 0
M  V30 1995 O 201.161 -1.06995 1.62067 0
M  V30 1996 C 198.291 -1.55274 3.10656 0
M  V30 1997 C 197.245 -1.04855 4.14957 0
M  V30 1998 C 196.571 -2.26543 4.84337 0
M  V30 1999 C 197.871 -0.112324 5.22179 0
M  V30 2000 H 199.565 0.213867 2.98635 0
M  V30 2001 H 197.111 0.104298 1.43622 0
M  V30 2002 H 199.064 -2.1358 3.63265 0
M  V30 2003 H 197.788 -2.22266 2.39302 0
M  V30 2004 H 196.447 -0.487985 3.63338 0
M  V30 2005 H 196.095 -2.92059 4.09525 0
M  V30 2006 H 195.795 -1.93466 5.54837 0
M  V30 2007 H 197.319 -2.85481 5.39753 0
M  V30 2008 H 198.733 -0.603752 5.70112 0
M  V30 2009 H 197.13 0.128968 5.99961 0
M  V30 2010 H 198.2 0.837052 4.77621 0
M  V30 2011 N 199.544 -1.57102 0.125237 0
M  V30 2012 C 200.476 -2.12726 -0.853237 0
M  V30 2013 C 201.489 -1.07145 -1.22571 0
M  V30 2014 O 202.678 -1.34497 -1.17358 0
M  V30 2015 C 199.778 -2.61709 -2.15317 0
M  V30 2016 C 198.951 -3.91456 -1.95143 0
M  V30 2017 C 198.01 -4.25973 -3.08923 0
M  V30 2018 O 197.036 -4.94682 -2.81564 0
M  V30 2019 N 198.238 -3.83795 -4.35524 0
M  V30 2020 H 201.003 -2.97307 -0.377964 0
M  V30 2021 H 198.564 -1.61792 -0.0590011 0
M  V30 2022 H 200.556 -2.81826 -2.90441 0
M  V30 2023 H 199.126 -1.81974 -2.54174 0
M  V30 2024 H 198.346 -3.80185 -1.04177 0
M  V30 2025 H 199.634 -4.76283 -1.78976 0
M  V30 2026 H 199.032 -3.2839 -4.60626 0
M  V30 2027 H 197.589 -4.09008 -5.07499 0
M  V30 2028 N 201.022 0.148545 -1.56898 0
M  V30 2029 C 202.299 0.890019 -1.74178 0
M  V30 2030 C 202.679 1.99407 -0.692839 0
M  V30 2031 O 202.027 2.26671 0.288505 0
M  V30 2032 C 202.237 1.43389 -3.18183 0
M  V30 2033 C 203.585 1.89791 -3.79822 0
M  V30 2034 O 204.609 1.53134 -3.21603 0
M  V30 2035 O 203.468 2.57387 -4.82093 0
M  V30 2036 H 200.562 0.420496 -0.712118 0
M  V30 2037 H 203.108 0.134591 -1.69165 0
M  V30 2038 H 201.88 0.640383 -3.86024 0
M  V30 2039 H 201.503 2.25287 -3.27615 0
M  V30 2040 N 202.5 1.5196 0.417844 0
M  V30 2041 C 203.73 1.69181 1.18581 0
M  V30 2042 C 204.138 0.397104 1.84986 0
M  V30 2043 O 203.481 -0.636011 1.72339 0
M  V30 2044 C 203.543 2.76497 2.29759 0
M  V30 2045 C 203.207 4.18514 1.83563 0
M  V30 2046 C 204.204 5.02648 1.32821 0
M  V30 2047 C 201.889 4.64708 1.90661 0
M  V30 2048 C 203.883 6.31044 0.897894 0
M  V30 2049 C 201.57 5.93096 1.47241 0
M  V30 2050 C 202.568 6.76093 0.968891 0
M  V30 2051 O 202.256 8.02078 0.540924 0
M  V30 2052 H 201.988 0.570457 0.362705 0
M  V30 2053 H 204.542 1.99249 0.498885 0
M  V30 2054 H 202.772 2.41786 3.01789 0
M  V30 2055 H 204.461 2.82403 2.91553 0
M  V30 2056 H 205.227 4.68154 1.26716 0
M  V30 2057 H 201.106 4.00216 2.28797 0
M  V30 2058 H 204.65 6.95776 0.504192 0
M  V30 2059 H 200.547 6.271 1.53022 0
M  V30 2060 H 201.315 8.15794 0.66502 0
M  V30 2061 N 203.978 -0.674533 1.42435 0
M  V30 2062 C 205.226 -1.43175 1.42637 0
M  V30 2063 C 205.547 -1.94951 0.0438992 0
M  V30 2064 O 204.817 -1.7308 -0.917607 0
M  V30 2065 H 203.397 -0.531307 0.525092 0
M  V30 2066 H 206.059 -0.797006 1.77859 0
M  V30 2067 H 205.155 -2.28463 2.12629 0
M  V30 2068 N 205.456 -1.28612 -0.910864 0
M  V30 2069 C 206.872 -1.06381 -1.18976 0
M  V30 2070 C 207.072 0.191998 -2.00583 0
M  V30 2071 O 206.128 0.892869 -2.36187 0
M  V30 2072 C 207.441 -2.31295 -1.92154 0
M  V30 2073 C 208.989 -2.36503 -2.05025 0
M  V30 2074 C 209.464 -3.61191 -2.81612 0
M  V30 2075 N 210.955 -3.61847 -2.89172 0
M  V30 2076 C 211.69 -4.55004 -3.4894 0
M  V30 2077 N 211.186 -5.58482 -4.09963 0
M  V30 2078 N 212.979 -4.42594 -3.46506 0
M  V30 2079 H 205.13 -2.09221 -0.366094 0
M  V30 2080 H 207.393 -0.921003 -0.224629 0
M  V30 2081 H 207.099 -3.228 -1.39618 0
M  V30 2082 H 206.973 -2.37934 -2.9269 0
M  V30 2083 H 209.36 -1.45494 -2.5674 0
M  V30 2084 H 209.441 -2.33857 -1.03657 0
M  V30 2085 H 209.085 -4.52545 -2.30576 0
M  V30 2086 H 209.015 -3.61092 -3.83302 0
M  V30 2087 H 211.506 -2.87022 -2.45819 0
M  V30 2088 H 211.819 -6.25704 -4.53557 0
M  V30 2089 H 210.164 -5.62305 -4.08459 0
M  V30 2090 H 213.355 -3.60953 -2.98045 0
M  V30 2091 H 213.528 -5.15381 -3.92793 0
M  V30 2092 N 206.934 1.1197 -1.10907 0
M  V30 2093 C 208.164 1.8713 -0.875553 0
M  V30 2094 C 208.572 1.8016 0.577843 0
M  V30 2095 O 207.915 1.17699 1.41042 0
M  V30 2096 C 207.977 3.37005 -1.2517 0
M  V30 2097 C 207.641 3.67748 -2.71313 0
M  V30 2098 C 208.638 3.65698 -3.69542 0
M  V30 2099 C 206.323 3.96928 -3.07821 0
M  V30 2100 C 208.317 3.92395 -5.023 0
M  V30 2101 C 206.004 4.23284 -4.40765 0
M  V30 2102 C 207.002 4.21005 -5.37814 0
M  V30 2103 O 206.69 4.46704 -6.68364 0
M  V30 2104 H 206.422 0.598786 -0.313737 0
M  V30 2105 H 208.976 1.42568 -1.47863 0
M  V30 2106 H 207.206 3.82146 -0.591741 0
M  V30 2107 H 208.895 3.93519 -0.994877 0
M  V30 2108 H 209.661 3.43211 -3.42682 0
M  V30 2109 H 205.54 3.97841 -2.32902 0
M  V30 2110 H 209.084 3.90531 -5.78041 0
M  V30 2111 H 204.981 4.45246 -4.67361 0
M  V30 2112 H 205.749 4.64299 -6.74069 0
M  V30 2113 N 208.412 0.89855 1.29475 0
M  V30 2114 C 209.322 0.379974 2.31502 0
M  V30 2115 C 210.338 -0.524695 1.659 0
M  V30 2116 O 211.514 -0.414551 1.97087 0
M  V30 2117 C 208.579 -0.385138 3.44554 0
M  V30 2118 C 207.64 0.550914 4.2575 0
M  V30 2119 C 206.873 -0.177778 5.33404 0
M  V30 2120 O 207.096 -1.40189 5.52904 0
M  V30 2121 O 206.03 0.479106 5.9999 0
M  V30 2122 H 209.856 1.22639 2.77837 0
M  V30 2123 H 207.441 0.662834 1.33891 0
M  V30 2124 H 209.323 -0.817841 4.13388 0
M  V30 2125 H 207.998 -1.20763 3.0033 0
M  V30 2126 H 206.905 1.03271 3.59564 0
M  V30 2127 H 208.238 1.33979 4.73614 0
M  V30 2128 N 209.89 -1.43072 0.660911 0
M  V30 2129 C 211.13 -2.03596 0.181146 0
M  V30 2130 C 211.494 -1.51057 -1.18515 0
M  V30 2131 O 212.695 -2.03275 -1.75877 0
M  V30 2132 C 210.966 -3.56845 0.19911 0
M  V30 2133 S 212.525 -4.38289 -0.211684 0
M  V30 2134 H 209.343 -0.706954 0.0757479 0
M  V30 2135 H 211.945 -1.75027 0.870965 0
M  V30 2136 H 210.649 -3.92583 1.1961 0
M  V30 2137 H 210.18 -3.90067 -0.510996 0
M  V30 2138 H 212.195 -4.74583 -1.44863 0
M  V30 2139 N 211.368 -0.403325 -1.52352 0
M  V30 2140 C 212.278 0.432009 -2.30588 0
M  V30 2141 C 213.294 1.05884 -1.38075 0
M  V30 2142 O 214.47 1.06161 -1.71148 0
M  V30 2143 C 211.535 1.53669 -3.10784 0
M  V30 2144 C 210.596 0.933525 -4.19027 0
M  V30 2145 C 209.829 1.98557 -4.9539 0
M  V30 2146 O 210.052 3.20283 -4.71991 0
M  V30 2147 O 208.986 1.59504 -5.80381 0
M  V30 2148 H 212.812 -0.205739 -3.03002 0
M  V30 2149 H 210.397 -0.166675 -1.48467 0
M  V30 2150 H 212.279 2.17814 -3.60742 0
M  V30 2151 H 210.954 2.15915 -2.41169 0
M  V30 2152 H 209.861 0.254954 -3.7323 0
M  V30 2153 H 211.194 0.35508 -4.90918 0
M  V30 2154 N 212.846 1.57033 -0.133567 0
M  V30 2155 C 214.092 1.95976 0.521649 0
M  V30 2156 C 214.425 1.01779 1.65393 0
M  V30 2157 O 213.7 0.0576581 1.94415 0
M  V30 2158 C 213.983 3.44738 1.04057 0
M  V30 2159 C 213.836 4.49711 -0.0892897 0
M  V30 2160 C 215.155 3.95682 1.92675 0
M  V30 2161 H 212.274 0.712579 0.188149 0
M  V30 2162 H 214.916 1.88813 -0.212076 0
M  V30 2163 H 213.066 3.50973 1.66583 0
M  V30 2164 H 214.738 4.55565 -0.725152 0
M  V30 2165 H 212.981 4.27261 -0.750378 0
M  V30 2166 H 213.652 5.51099 0.315284 0
M  V30 2167 H 216.128 3.91841 1.39998 0
M  V30 2168 H 215.004 5.00262 2.25897 0
M  V30 2169 H 215.265 3.37239 2.85872 0
M  V30 2170 N 214.325 -0.140222 1.56975 0
M  V30 2171 C 215.553 -0.866437 1.87884 0
M  V30 2172 C 215.968 -1.74428 0.722517 0
M  V30 2173 O 215.325 -1.79891 -0.30749 0
M  V30 2174 C 215.376 -1.71753 3.18093 0
M  V30 2175 O 215.097 -0.875056 4.29272 0
M  V30 2176 C 216.598 -2.55074 3.62563 0
M  V30 2177 H 213.818 -0.25019 0.622612 0
M  V30 2178 H 216.362 -0.130977 2.0408 0
M  V30 2179 H 214.517 -2.40598 3.03631 0
M  V30 2180 H 214.931 -1.46002 5.03769 0
M  V30 2181 H 216.405 -3.10356 4.5649 0
M  V30 2182 H 216.882 -3.31434 2.88181 0
M  V30 2183 H 217.488 -1.91509 3.79743 0
M  V30 2184 N 215.803 -1.52179 -0.40978 0
M  V30 2185 C 216.751 -1.76086 -1.51975 0
M  V30 2186 C 217.745 -0.627964 -1.57331 0
M  V30 2187 O 218.951 -0.809993 -1.60745 0
M  V30 2188 H 215.326 -0.556829 -0.505416 0
M  V30 2189 H 217.297 -2.69077 -1.28996 0
M  V30 2190 C 216.046 -1.92799 -2.8935 0
M  V30 2191 H 215.369 -2.79392 -2.85972 0
M  V30 2192 H 216.809 -2.13527 -3.66309 0
M  V30 2193 C 215.268 -0.694923 -3.29655 0
M  V30 2194 O 215.798 0.13751 -4.01465 0
M  V30 2195 N 214.004 -0.53101 -2.85707 0
M  V30 2196 H 213.551 -1.20952 -2.27439 0
M  V30 2197 H 213.509 0.292718 -3.13034 0
M  V30 2198 N 217.281 0.66697 -1.42791 0
M  V30 2199 C 218.191 1.80962 -1.49299 0
M  V30 2200 C 219.207 1.69775 -0.381108 0
M  V30 2201 O 220.383 1.91188 -0.633188 0
M  V30 2202 C 217.448 3.17156 -1.40045 0
M  V30 2203 C 216.509 3.40242 -2.6179 0
M  V30 2204 C 215.742 4.69939 -2.52969 0
M  V30 2205 O 215.965 5.48372 -1.56985 0
M  V30 2206 O 214.899 4.94441 -3.43237 0
M  V30 2207 H 218.725 1.78427 -2.45759 0
M  V30 2208 H 216.31 0.823713 -1.24641 0
M  V30 2209 H 218.192 3.98413 -1.37276 0
M  V30 2210 H 216.867 3.20312 -0.467138 0
M  V30 2211 H 215.774 2.58802 -2.70134 0
M  V30 2212 H 217.107 3.41923 -3.54047 0
M  V30 2213 N 218.759 1.29093 0.90403 0
M  V30 2214 C 219.689 1.16401 2.02418 0
M  V30 2215 C 220.67 0.0593085 1.69997 0
M  V30 2216 O 221.855 0.238021 1.92736 0
M  V30 2217 C 218.985 0.835233 3.37107 0
M  V30 2218 C 217.939 1.89578 3.83724 0
M  V30 2219 C 217.265 1.42041 5.15489 0
M  V30 2220 C 218.565 3.30394 4.04521 0
M  V30 2221 H 220.259 2.10109 2.13295 0
M  V30 2222 H 217.805 1.01157 1.02486 0
M  V30 2223 H 219.758 0.733169 4.14973 0
M  V30 2224 H 218.482 -0.137543 3.2631 0
M  V30 2225 H 217.141 1.98715 3.08071 0
M  V30 2226 H 216.789 0.436426 5.01103 0
M  V30 2227 H 216.489 2.12964 5.4765 0
M  V30 2228 H 218.013 1.33176 5.959 0
M  V30 2229 H 219.427 3.24123 4.72882 0
M  V30 2230 H 217.824 3.99237 4.48029 0
M  V30 2231 H 218.894 3.73692 3.09002 0
M  V30 2232 N 220.237 -1.11381 1.11499 0
M  V30 2233 C 221.147 -2.21019 0.786628 0
M  V30 2234 C 222.163 -1.72597 -0.220507 0
M  V30 2235 O 223.339 -2.01321 -0.0565251 0
M  V30 2236 C 220.404 -3.459 0.235333 0
M  V30 2237 C 219.465 -4.09107 1.30115 0
M  V30 2238 C 218.698 -5.28027 0.776068 0
M  V30 2239 O 218.921 -5.6904 -0.393661 0
M  V30 2240 O 217.855 -5.81835 1.54114 0
M  V30 2241 H 221.681 -2.51521 1.70209 0
M  V30 2242 H 219.266 -1.19928 0.890928 0
M  V30 2243 H 221.148 -4.21346 -0.067715 0
M  V30 2244 H 219.823 -3.17049 -0.652828 0
M  V30 2245 H 218.73 -3.35391 1.65722 0
M  V30 2246 H 220.063 -4.42139 2.16273 0
M  V30 2247 N 221.715 -0.905404 -1.28997 0
M  V30 2248 C 222.992 -0.453513 -1.9027 0
M  V30 2249 C 223.372 1.06721 -1.82137 0
M  V30 2250 O 222.72 1.91159 -1.25182 0
M  V30 2251 C 222.93 -0.974494 -3.35119 0
M  V30 2252 C 224.278 -1.0216 -4.12127 0
M  V30 2253 O 225.302 -0.922557 -3.44046 0
M  V30 2254 O 224.161 -1.17121 -5.33802 0
M  V30 2255 H 221.255 -0.142347 -0.814657 0
M  V30 2256 H 223.801 -0.995642 -1.37423 0
M  V30 2257 H 222.573 -2.01848 -3.35221 0
M  V30 2258 H 222.196 -0.412706 -3.95452 0
M  V30 2259 N 223.193 1.4272 -0.668489 0
M  V30 2260 C 224.47 1.95248 -0.117373 0
M  V30 2261 C 224.85 1.60919 1.36632 0
M  V30 2262 O 224.198 0.902095 2.09939 0
M  V30 2263 C 224.408 3.46927 -0.379806 0
M  V30 2264 C 225.756 4.23588 -0.292923 0
M  V30 2265 O 226.78 3.5482 -0.313204 0
M  V30 2266 O 225.639 5.46017 -0.229697 0
M  V30 2267 H 222.733 0.827 0.00079152 0
M  V30 2268 H 225.279 1.52581 -0.742783 0
M  V30 2269 H 224.051 3.65096 -1.40786 0
M  V30 2270 H 223.674 3.96627 0.277923 0
M  V30 2271 N 224.671 0.411399 1.52136 0
M  V30 2272 C 225.634 -0.401089 2.25663 0
M  V30 2273 C 226.634 -0.971732 1.28117 0
M  V30 2274 O 227.824 -0.850254 1.52041 0
M  V30 2275 C 224.956 -1.56483 3.02863 0
M  V30 2276 H 226.149 0.24295 2.98914 0
M  V30 2277 H 223.702 0.163968 1.55438 0
M  V30 2278 H 224.437 -2.24567 2.33967 0
M  V30 2279 H 224.222 -1.16211 3.74483 0
M  V30 2280 H 225.712 -2.13951 3.58629 0
M  V30 2281 N 226.149 -1.5696 0.141893 0
M  V30 2282 C 227.397 -1.95573 -0.509484 0
M  V30 2283 C 227.718 -1.02746 -1.65736 0
M  V30 2284 O 226.988 -0.0880311 -1.95702 0
M  V30 2285 H 225.568 -0.722115 -0.191205 0
M  V30 2286 H 228.23 -1.93697 0.216196 0
M  V30 2287 H 227.326 -2.99171 -0.889 0
M  V30 2288 N 227.627 0.131896 -1.57047 0
M  V30 2289 C 228.56 1.19236 -1.94571 0
M  V30 2290 C 229.538 1.40782 -0.813576 0
M  V30 2291 O 230.722 1.55148 -1.07058 0
M  V30 2292 C 227.849 2.54858 -2.23081 0
M  V30 2293 C 226.895 2.49817 -3.45679 0
M  V30 2294 S 227.728 1.95036 -4.98719 0
M  V30 2295 C 228.884 3.32357 -5.30367 0
M  V30 2296 H 229.117 0.872297 -2.84215 0
M  V30 2297 H 226.65 0.338134 -1.50652 0
M  V30 2298 H 228.608 3.32898 -2.40185 0
M  V30 2299 H 227.269 2.84047 -1.34074 0
M  V30 2300 H 226.462 3.49688 -3.62952 0
M  V30 2301 H 226.064 1.79892 -3.27895 0
M  V30 2302 H 228.356 4.28525 -5.2476 0
M  V30 2303 H 229.299 3.19923 -6.31708 0
M  V30 2304 H 229.707 3.3019 -4.57859 0
M  V30 2305 N 229.106 1.52395 0.401703 0
M  V30 2306 C 230.352 1.67065 1.14966 0
M  V30 2307 C 230.685 0.403052 1.89971 0
M  V30 2308 O 229.96 -0.598774 1.85054 0
M  V30 2309 C 230.243 2.8975 2.13815 0
M  V30 2310 C 230.096 4.26578 1.42658 0
M  V30 2311 C 231.415 3.07965 3.14397 0
M  V30 2312 H 228.534 0.607968 0.416587 0
M  V30 2313 H 231.176 1.84965 0.434511 0
M  V30 2314 H 229.326 2.74619 2.74803 0
M  V30 2315 H 230.998 4.53451 0.847329 0
M  V30 2316 H 229.241 4.27639 0.72849 0
M  V30 2317 H 229.912 5.08483 2.14823 0
M  V30 2318 H 232.388 3.22043 2.63491 0
M  V30 2319 H 231.264 3.95308 3.80819 0
M  V30 2320 H 231.525 2.21611 3.82545 0
M  V30 2321 N 230.584 -0.659388 1.43143 0
M  V30 2322 C 231.531 -1.77249 1.47822 0
M  V30 2323 C 232.501 -1.62818 0.328558 0
M  V30 2324 O 233.686 -1.83151 0.534838 0
M  V30 2325 C 230.826 -3.15371 1.40126 0
M  V30 2326 C 229.939 -3.4098 2.65249 0
M  V30 2327 C 229.074 -4.68915 2.49584 0
M  V30 2328 C 228.113 -4.87608 3.70006 0
M  V30 2329 N 227.25 -6.06796 3.53189 0
M  V30 2330 H 232.09 -1.72584 2.42938 0
M  V30 2331 H 229.627 -0.842297 1.20598 0
M  V30 2332 H 231.585 -3.9521 1.33659 0
M  V30 2333 H 230.215 -3.19121 0.485964 0
M  V30 2334 H 229.267 -2.55282 2.8202 0
M  V30 2335 H 230.579 -3.50681 3.54717 0
M  V30 2336 H 229.733 -5.56871 2.4079 0
M  V30 2337 H 228.472 -4.61524 1.5763 0
M  V30 2338 H 227.477 -3.9809 3.79215 0
M  V30 2339 H 228.702 -4.96834 4.62961 0
M  V30 2340 H 226.648 -6.00549 2.63965 0
M  V30 2341 H 226.565 -6.17428 4.36255 0
M  V30 2342 H 227.833 -6.9739 3.48236 0
M  V30 2343 N 232.062 -1.29571 -0.897171 0
M  V30 2344 C 232.992 -1.17473 -2.01798 0
M  V30 2345 C 233.973 -0.068323 -1.69963 0
M  V30 2346 O 235.158 -0.248239 -1.92607 0
M  V30 2347 C 232.288 -0.853099 -3.36659 0
M  V30 2348 C 231.242 -1.9161 -3.82713 0
M  V30 2349 C 230.568 -1.44773 -5.14728 0
M  V30 2350 C 231.868 -3.32535 -4.02763 0
M  V30 2351 H 233.562 -2.11237 -2.12177 0
M  V30 2352 H 231.108 -1.01699 -1.01948 0
M  V30 2353 H 233.061 -0.755165 -4.14578 0
M  V30 2354 H 231.785 0.120236 -3.26379 0
M  V30 2355 H 230.444 -2.00346 -3.07013 0
M  V30 2356 H 230.092 -0.462995 -5.00865 0
M  V30 2357 H 229.792 -2.15865 -5.46513 0
M  V30 2358 H 231.316 -1.36334 -5.95185 0
M  V30 2359 H 232.73 -3.26626 -4.71156 0
M  V30 2360 H 231.127 -4.01607 -4.45905 0
M  V30 2361 H 232.197 -3.75326 -3.07016 0
M  V30 2362 N 233.54 1.10788 -1.12088 0
M  V30 2363 C 234.817 1.79136 -0.785476 0
M  V30 2364 C 235.197 1.98246 0.725377 0
M  V30 2365 O 234.545 1.57258 1.65778 0
M  V30 2366 C 234.755 3.12375 -1.55636 0
M  V30 2367 C 236.103 3.8731 -1.74001 0
M  V30 2368 O 237.127 3.22085 -1.52117 0
M  V30 2369 O 235.986 5.04369 -2.10415 0
M  V30 2370 H 233.08 0.776226 -0.285311 0
M  V30 2371 H 235.626 1.1747 -1.2247 0
M  V30 2372 H 234.398 2.93863 -2.5838 0
M  V30 2373 H 234.021 3.81758 -1.11114 0
M  V30 2374 N 235.018 0.912232 1.28515 0
M  V30 2375 C 235.948 0.416403 2.29757 0
M  V30 2376 C 236.929 -0.515194 1.6211 0
M  V30 2377 O 238.114 -0.423253 1.89532 0
M  V30 2378 C 235.244 -0.34572 3.45575 0
M  V30 2379 C 234.198 0.496599 4.25109 0
M  V30 2380 C 233.524 -0.393771 5.33248 0
M  V30 2381 C 234.824 1.75307 4.92001 0
M  V30 2382 H 236.518 1.26249 2.7148 0
M  V30 2383 H 234.064 0.608515 1.30511 0
M  V30 2384 H 236.017 -0.703422 4.15488 0
M  V30 2385 H 234.741 -1.2257 3.02728 0
M  V30 2386 H 233.4 0.8368 3.56922 0
M  V30 2387 H 233.048 -1.27225 4.86644 0
M  V30 2388 H 232.748 0.166209 5.87365 0
M  V30 2389 H 234.272 -0.747389 6.06009 0
M  V30 2390 H 235.686 1.46437 5.54283 0
M  V30 2391 H 234.083 2.25534 5.56106 0
M  V30 2392 H 235.153 2.48176 4.16577 0
M  V30 2393 N 236.496 -1.42363 0.676048 0
M  V30 2394 C 237.406 -2.346 -0.00153389 0
M  V30 2395 C 238.422 -1.5516 -0.787485 0
M  V30 2396 O 239.598 -1.87723 -0.729521 0
M  V30 2397 C 236.663 -3.33705 -0.940298 0
M  V30 2398 C 235.724 -4.29042 -0.148739 0
M  V30 2399 C 234.957 -5.23413 -1.04279 0
M  V30 2400 O 235.18 -5.22749 -2.28232 0
M  V30 2401 O 234.114 -5.99795 -0.502925 0
M  V30 2402 H 237.94 -2.94082 0.758268 0
M  V30 2403 H 235.525 -1.42888 0.436289 0
M  V30 2404 H 237.407 -3.94586 -1.47917 0
M  V30 2405 H 236.082 -2.76695 -1.67993 0
M  V30 2406 H 234.989 -3.71571 0.43427 0
M  V30 2407 H 236.322 -4.89097 0.551805 0
M  V30 2408 N 237.974 -0.419461 -1.51915 0
M  V30 2409 C 239.222 0.152637 -2.01523 0
M  V30 2410 C 239.543 1.44762 -1.30649 0
M  V30 2411 O 238.813 1.90997 -0.435535 0
M  V30 2412 H 237.393 0.0593966 -0.744635 0
M  V30 2413 H 240.055 -0.558073 -1.86739 0
M  V30 2414 H 239.151 0.341369 -3.10227 0
M  V30 2415 N 239.452 1.56882 -0.150215 0
M  V30 2416 C 240.698 1.96518 0.500834 0
M  V30 2417 C 241.031 1.03527 1.64304 0
M  V30 2418 O 240.306 0.0782751 1.94342 0
M  V30 2419 C 240.589 3.45822 1.00395 0
M  V30 2420 C 240.442 4.49591 -0.136983 0
M  V30 2421 C 241.761 3.97704 1.88467 0
M  V30 2422 H 238.88 0.714535 0.18058 0
M  V30 2423 H 241.522 1.88577 -0.232091 0
M  V30 2424 H 239.672 3.5272 1.62851 0
M  V30 2425 H 241.344 4.5477 -0.77343 0
M  V30 2426 H 239.587 4.26441 -0.795652 0
M  V30 2427 H 240.258 5.51402 0.256815 0
M  V30 2428 H 242.734 3.93304 1.35834 0
M  V30 2429 H 241.61 5.0263 2.20578 0
M  V30 2430 H 241.871 3.40252 2.82279 0
M  V30 2431 N 240.93 -0.123565 1.57115 0
M  V30 2432 C 242.176 -0.833386 1.84885 0
M  V30 2433 C 242.509 -1.79742 0.735292 0
M  V30 2434 O 241.784 -1.92764 -0.25925 0
M  V30 2435 C 242.067 -1.5873 3.23228 0
M  V30 2436 C 241.92 -0.643183 4.45178 0
M  V30 2437 C 243.239 -2.54453 3.59085 0
M  V30 2438 H 240.358 -0.301518 0.6725 0
M  V30 2439 H 243 -0.097778 1.89748 0
M  V30 2440 H 241.15 -2.21438 3.19214 0
M  V30 2441 H 242.822 -0.0253015 4.61293 0
M  V30 2442 H 241.065 0.0456139 4.33776 0
M  V30 2443 H 241.736 -1.20724 5.38637 0
M  V30 2444 H 244.212 -2.01853 3.63861 0
M  V30 2445 H 243.088 -3.04238 4.5687 0
M  V30 2446 H 243.349 -3.36906 2.86264 0
M  V30 2447 N 242.408 -1.52605 -0.393616 0
M  V30 2448 C 243.655 -1.67424 -1.1391 0
M  V30 2449 C 243.983 -0.411859 -1.90089 0
M  V30 2450 O 243.238 0.605626 -1.86093 0
M  V30 2451 C 243.537 -2.85721 -2.14705 0
M  V30 2452 C 243.203 -4.23342 -1.55218 0
M  V30 2453 C 241.865 -4.60771 -1.3872 0
M  V30 2454 C 244.217 -5.09041 -1.11924 0
M  V30 2455 C 241.545 -5.81563 -0.774689 0
M  V30 2456 C 243.897 -6.30452 -0.520853 0
M  V30 2457 C 242.561 -6.66617 -0.343134 0
M  V30 2458 H 241.831 -0.612648 -0.416826 0
M  V30 2459 H 244.478 -1.8674 -0.424315 0
M  V30 2460 H 242.783 -2.60803 -2.92385 0
M  V30 2461 H 244.48 -2.94382 -2.72288 0
M  V30 2462 H 241.07 -3.93855 -1.69045 0
M  V30 2463 H 245.254 -4.80695 -1.23473 0
M  V30 2464 H 240.51 -6.08196 -0.625154 0
M  V30 2465 H 244.684 -6.96175 -0.177065 0
M  V30 2466 H 242.311 -7.60083 0.133571 0
M  V30 2467 N 243.887 0.651787 -1.4349 0
M  V30 2468 C 245.298 1.233 -1.40193 0
M  V30 2469 C 245.649 1.9591 -0.106727 0
M  V30 2470 O 244.774 2.01316 0.793773 0
M  V30 2471 C 245.369 2.24257 -2.53957 0
M  V30 2472 C 243.928 2.77852 -2.5392 0
M  V30 2473 C 243.075 1.52517 -2.3159 0
M  V30 2474 H 246.026 0.443717 -1.52371 0
M  V30 2475 H 246.047 3.0646 -2.25528 0
M  V30 2476 H 245.559 1.71382 -3.4821 0
M  V30 2477 H 243.66 3.34786 -1.63551 0
M  V30 2478 H 243.773 3.25299 -3.51735 0
M  V30 2479 H 242.137 1.79915 -1.80285 0
M  V30 2480 H 242.92 1.01574 -3.27929 0
M  V30 2481 N 245.365 1.30045 0.890287 0
M  V30 2482 C 246.595 1.21296 1.67245 0
M  V30 2483 C 247.003 -0.227471 1.87828 0
M  V30 2484 O 246.346 -1.16296 1.422 0
M  V30 2485 C 246.408 1.86519 3.07329 0
M  V30 2486 C 246.072 3.35837 3.09939 0
M  V30 2487 C 247.069 4.31915 2.89389 0
M  V30 2488 C 244.754 3.77196 3.31706 0
M  V30 2489 C 246.748 5.67325 2.90552 0
M  V30 2490 C 244.435 5.12725 3.32499 0
M  V30 2491 C 245.433 6.076 3.11947 0
M  V30 2492 O 245.121 7.40655 3.12547 0
M  V30 2493 H 244.853 0.4211 0.528821 0
M  V30 2494 H 247.407 1.72111 1.12103 0
M  V30 2495 H 245.637 1.30228 3.64112 0
M  V30 2496 H 247.326 1.71963 3.67673 0
M  V30 2497 H 248.092 4.01294 2.72375 0
M  V30 2498 H 243.971 3.03796 3.4674 0
M  V30 2499 H 247.515 6.41354 2.74429 0
M  V30 2500 H 243.412 5.42988 3.49047 0
M  V30 2501 H 244.18 7.49577 3.28749 0
M  V30 2502 N 246.843 -1.10192 1.12674 0
M  V30 2503 C 247.793 -2.14754 0.765801 0
M  V30 2504 C 248.777 -1.59154 -0.236409 0
M  V30 2505 O 249.969 -1.76951 -0.0415261 0
M  V30 2506 C 247.098 -3.42563 0.224827 0
M  V30 2507 C 246.184 -4.05091 1.25548 0
M  V30 2508 N 246.575 -4.42287 2.4539 0
M  V30 2509 C 244.873 -4.32186 1.10142 0
M  V30 2510 C 245.574 -4.91441 3.11224 0
M  V30 2511 N 244.55 -4.88405 2.38666 0
M  V30 2512 H 248.352 -2.41309 1.67772 0
M  V30 2513 H 245.866 -1.27339 1.00789 0
M  V30 2514 H 247.863 -4.16868 -0.0519578 0
M  V30 2515 H 246.523 -3.17467 -0.681515 0
M  V30 2516 H 247.534 -4.33902 2.82754 0
M  V30 2517 H 244.211 -4.16735 0.252587 0
M  V30 2518 H 245.601 -5.29749 4.13298 0
M  V30 2519 N 248.321 -0.919034 -1.28029 0
M  V30 2520 C 249.732 -0.600735 -1.76771 0
M  V30 2521 C 250.083 0.884024 -1.75156 0
M  V30 2522 O 249.208 1.69163 -1.34956 0
M  V30 2523 C 249.803 -1.08372 -3.21 0
M  V30 2524 C 248.362 -0.816248 -3.67443 0
M  V30 2525 C 247.509 -1.24742 -2.47658 0
M  V30 2526 H 250.46 -1.09974 -1.14418 0
M  V30 2527 H 250.481 -0.427512 -3.78091 0
M  V30 2528 H 249.993 -2.16437 -3.22144 0
M  V30 2529 H 248.094 0.250968 -3.71754 0
M  V30 2530 H 248.207 -1.4277 -4.57333 0
M  V30 2531 H 246.571 -0.666083 -2.45836 0
M  V30 2532 H 247.354 -2.33653 -2.51518 0
M  V30 2533 N 249.799 1.42003 -0.683588 0
M  V30 2534 C 251.215 1.55625 -0.353976 0
M  V30 2535 C 251.415 1.66151 1.14 0
M  V30 2536 O 250.471 1.63329 1.92561 0
M  V30 2537 C 251.784 2.80171 -1.092 0
M  V30 2538 C 253.332 2.93954 -1.07518 0
M  V30 2539 C 253.807 4.21372 -1.79471 0
M  V30 2540 N 255.298 4.28303 -1.76381 0
M  V30 2541 C 256.033 5.25729 -2.28904 0
M  V30 2542 N 255.529 6.29254 -2.89846 0
M  V30 2543 N 257.322 5.17586 -2.19228 0
M  V30 2544 H 249.473 1.33415 -1.6527 0
M  V30 2545 H 251.736 0.64282 -0.696769 0
M  V30 2546 H 251.442 2.78561 -2.14701 0
M  V30 2547 H 251.316 3.7133 -0.662862 0
M  V30 2548 H 253.703 2.95086 -0.028475 0
M  V30 2549 H 253.784 2.04002 -1.54328 0
M  V30 2550 H 253.428 4.21001 -2.84114 0
M  V30 2551 H 253.358 5.10275 -1.30104 0
M  V30 2552 H 255.849 3.54119 -1.31939 0
M  V30 2553 H 256.162 6.99964 -3.27522 0
M  V30 2554 H 254.507 6.29791 -2.93919 0
M  V30 2555 H 257.698 4.35631 -1.71299 0
M  V30 2556 H 257.871 5.93348 -2.60466 0
M  V30 2557 N 251.277 0.427512 1.51691 0
M  V30 2558 C 252.525 -0.141948 2.01601 0
M  V30 2559 C 252.846 -1.44067 1.31414 0
M  V30 2560 O 252.116 -1.90763 0.445658 0
M  V30 2561 H 250.696 -0.0554468 0.744939 0
M  V30 2562 H 253.358 0.567968 1.86441 0
M  V30 2563 H 252.454 -0.324913 3.10404 0
M  V30 2564 N 252.755 -1.56801 0.158532 0
M  V30 2565 C 254.003 -1.96102 -0.488712 0
M  V30 2566 C 254.324 -1.04498 -1.64636 0
M  V30 2567 O 253.594 -0.108783 -1.95598 0
M  V30 2568 H 252.174 -0.724102 -0.183535 0
M  V30 2569 H 254.836 -1.93457 0.236728 0
M  V30 2570 H 253.932 -3.00097 -0.857219 0
M  V30 2571 N 254.233 0.115231 -1.57178 0
M  V30 2572 C 255.649 0.468877 -1.52557 0
M  V30 2573 C 255.849 1.81649 -0.872125 0
M  V30 2574 O 254.905 2.48347 -0.45606 0
M  V30 2575 C 256.218 0.4499 -2.97315 0
M  V30 2576 C 257.766 0.533185 -3.08425 0
M  V30 2577 C 258.241 0.54456 -4.54751 0
M  V30 2578 N 259.732 0.605892 -4.5922 0
M  V30 2579 C 260.467 0.636203 -5.6986 0
M  V30 2580 N 259.963 0.623931 -6.89985 0
M  V30 2581 N 261.756 0.679496 -5.57978 0
M  V30 2582 H 253.907 -0.767712 -1.9804 0
M  V30 2583 H 256.17 -0.283609 -0.904583 0
M  V30 2584 H 255.876 -0.472721 -3.48509 0
M  V30 2585 H 255.75 1.27632 -3.5495 0
M  V30 2586 H 258.137 1.44623 -2.57232 0
M  V30 2587 H 258.218 -0.320995 -2.53778 0
M  V30 2588 H 257.862 -0.364452 -5.06591 0
M  V30 2589 H 257.792 1.41568 -5.07214 0
M  V30 2590 H 260.283 0.621386 -3.72756 0
M  V30 2591 H 260.596 0.649787 -7.70063 0
M  V30 2592 H 258.941 0.591296 -6.9248 0
M  V30 2593 H 262.132 0.686472 -4.63039 0
M  V30 2594 H 262.305 0.69965 -6.44212 0
M  V30 2595 N 255.711 1.52812 0.385517 0
M  V30 2596 C 256.941 1.71658 1.14966 0
M  V30 2597 C 257.349 0.436253 1.84102 0
M  V30 2598 O 256.692 -0.599313 1.73649 0
M  V30 2599 C 256.754 2.81309 2.23843 0
M  V30 2600 C 256.418 4.22313 1.74644 0
M  V30 2601 C 257.415 5.05352 1.22129 0
M  V30 2602 C 255.1 4.68648 1.80761 0
M  V30 2603 C 257.094 6.32807 0.763838 0
M  V30 2604 C 254.781 5.96086 1.34627 0
M  V30 2605 C 255.779 6.77996 0.825264 0
M  V30 2606 O 255.467 8.03045 0.370669 0
M  V30 2607 H 255.199 0.578022 0.350523 0
M  V30 2608 H 257.753 2.00263 0.456509 0
M  V30 2609 H 255.983 2.48133 2.96592 0
M  V30 2610 H 257.672 2.88524 2.85497 0
M  V30 2611 H 258.438 4.70736 1.16758 0
M  V30 2612 H 254.317 4.04979 2.20256 0
M  V30 2613 H 257.861 6.96689 0.356494 0
M  V30 2614 H 253.758 6.30205 1.39686 0
M  V30 2615 H 254.526 8.17021 0.491829 0
M  V30 2616 N 257.189 -0.644168 1.43834 0
M  V30 2617 C 258.136 -1.75671 1.49694 0
M  V30 2618 C 259.106 -1.6246 0.345809 0
M  V30 2619 O 260.291 -1.82573 0.554234 0
M  V30 2620 C 257.431 -3.13867 1.43463 0
M  V30 2621 C 256.544 -3.38147 2.6885 0
M  V30 2622 C 255.679 -4.66241 2.54544 0
M  V30 2623 C 254.718 -4.83657 3.75157 0
M  V30 2624 N 253.855 -6.03016 3.59605 0
M  V30 2625 H 258.695 -1.69998 2.44754 0
M  V30 2626 H 256.232 -0.829458 1.21484 0
M  V30 2627 H 258.19 -3.9377 1.37843 0
M  V30 2628 H 256.82 -3.18588 0.519783 0
M  V30 2629 H 255.872 -2.52276 2.84712 0
M  V30 2630 H 257.184 -3.46899 3.58417 0
M  V30 2631 H 256.338 -5.54285 2.46683 0
M  V30 2632 H 255.077 -4.59826 1.62516 0
M  V30 2633 H 254.082 -3.94046 3.83416 0
M  V30 2634 H 255.307 -4.91896 4.68204 0
M  V30 2635 H 253.253 -5.97715 2.7032 0
M  V30 2636 H 253.17 -6.12766 4.42779 0
M  V30 2637 H 254.438 -6.93657 3.55613 0
M  V30 2638 N 258.668 -1.30515 -0.883378 0
M  V30 2639 C 259.598 -1.19607 -2.00541 0
M  V30 2640 C 260.579 -0.086346 -1.69881 0
M  V30 2641 O 261.764 -0.268654 -1.92333 0
M  V30 2642 C 258.894 -0.888758 -3.35736 0
M  V30 2643 C 257.848 -1.95659 -3.8066 0
M  V30 2644 C 257.174 -1.50224 -5.13164 0
M  V30 2645 C 258.474 -3.36788 -3.99213 0
M  V30 2646 H 260.168 -2.13476 -2.09925 0
M  V30 2647 H 257.714 -1.02775 -1.00863 0
M  V30 2648 H 259.667 -0.799094 -4.13754 0
M  V30 2649 H 258.391 0.0856125 -3.26488 0
M  V30 2650 H 257.05 -2.03591 -3.04871 0
M  V30 2651 H 256.698 -0.516092 -5.00345 0
M  V30 2652 H 256.398 -2.2165 -5.44192 0
M  V30 2653 H 257.922 -1.42639 -5.93706 0
M  V30 2654 H 259.336 -3.31605 -4.67665 0
M  V30 2655 H 257.733 -4.06314 -4.41621 0
M  V30 2656 H 258.803 -3.78561 -3.03017 0
M  V30 2657 N 260.146 1.09593 -1.13257 0
M  V30 2658 C 261.374 1.855 -0.916378 0
M  V30 2659 C 261.789 1.81069 0.534738 0
M  V30 2660 O 261.146 1.20562 1.37007 0
M  V30 2661 C 261.197 3.33546 -1.39388 0
M  V30 2662 O 260.918 3.37927 -2.78813 0
M  V30 2663 C 262.419 4.26299 -1.21588 0
M  V30 2664 H 259.639 0.585991 -0.326887 0
M  V30 2665 H 262.183 1.38488 -1.5047 0
M  V30 2666 H 260.338 3.77992 -0.848597 0
M  V30 2667 H 260.752 4.30254 -2.9997 0
M  V30 2668 H 262.226 5.28341 -1.59876 0
M  V30 2669 H 262.703 4.38918 -0.157376 0
M  V30 2670 H 263.309 3.87668 -1.7491 0
M  V30 2671 N 261.624 0.925811 1.2754 0
M  V30 2672 C 262.871 0.565255 1.94451 0
M  V30 2673 C 263.199 -0.89316 1.7278 0
M  V30 2674 O 262.454 -1.65213 1.04895 0
M  V30 2675 C 262.753 0.835296 3.47502 0
M  V30 2676 C 262.419 2.27515 3.89291 0
M  V30 2677 C 261.081 2.66879 4.00411 0
M  V30 2678 C 263.433 3.21158 4.10496 0
M  V30 2679 C 260.761 3.99014 4.30122 0
M  V30 2680 C 263.113 4.52871 4.4169 0
M  V30 2681 C 261.777 4.92072 4.51023 0
M  V30 2682 H 261.047 0.206841 0.711546 0
M  V30 2683 H 263.694 1.16942 1.51647 0
M  V30 2684 H 261.999 0.148442 3.91519 0
M  V30 2685 H 263.696 0.535322 3.97411 0
M  V30 2686 H 260.286 1.95976 3.81171 0
M  V30 2687 H 264.47 2.9195 4.01346 0
M  V30 2688 H 259.726 4.2907 4.35556 0
M  V30 2689 H 263.9 5.25436 4.57045 0
M  V30 2690 H 261.527 5.9449 4.738 0
M  V30 2691 N 263.102 -1.41638 0.69111 0
M  V30 2692 C 264.065 -2.29178 0.0319786 0
M  V30 2693 C 265.065 -1.44153 -0.712496 0
M  V30 2694 O 266.255 -1.65354 -0.548053 0
M  V30 2695 C 263.387 -3.26952 -0.965161 0
M  V30 2696 H 264.58 -2.88959 0.802681 0
M  V30 2697 H 262.133 -1.4955 0.454356 0
M  V30 2698 H 262.868 -2.72142 -1.76378 0
M  V30 2699 H 262.653 -3.89685 -0.434522 0
M  V30 2700 H 264.143 -3.92561 -1.42428 0
M  V30 2701 N 264.58 -0.43555 -1.51462 0
M  V30 2702 C 265.49 0.383001 -2.31453 0
M  V30 2703 C 266.506 1.02931 -1.4029 0
M  V30 2704 O 267.682 1.02507 -1.73362 0
M  V30 2705 C 264.747 1.47043 -3.13973 0
M  V30 2706 C 263.808 0.844433 -4.20913 0
M  V30 2707 C 263.041 1.88004 -4.9949 0
M  V30 2708 O 263.264 3.10199 -4.78678 0
M  V30 2709 O 262.198 1.47157 -5.83634 0
M  V30 2710 H 266.024 -0.269964 -3.02498 0
M  V30 2711 H 263.609 -0.19813 -1.4808 0
M  V30 2712 H 265.491 2.10113 -3.65281 0
M  V30 2713 H 264.166 2.10751 -2.45695 0
M  V30 2714 H 263.073 0.175729 -3.73687 0
M  V30 2715 H 264.406 0.250869 -4.9156 0
M  V30 2716 N 266.058 1.56714 -0.166846 0
M  V30 2717 C 267.021 2.16539 0.751232 0
M  V30 2718 C 268.021 1.11228 1.16125 0
M  V30 2719 O 269.211 1.36765 1.07894 0
M  V30 2720 C 266.343 2.74462 2.02196 0
M  V30 2721 H 267.536 2.99013 0.230499 0
M  V30 2722 H 265.089 1.56081 0.0826982 0
M  V30 2723 H 265.824 1.95709 2.58589 0
M  V30 2724 H 265.609 3.51527 1.73698 0
M  V30 2725 H 267.099 3.20489 2.67725 0
M  V30 2726 N 267.536 -0.106894 1.57237 0
M  V30 2727 C 268.468 -1.15646 1.97885 0
M  V30 2728 C 269.481 -1.36981 0.879779 0
M  V30 2729 O 270.67 -1.35841 1.15799 0
M  V30 2730 C 267.77 -2.51425 2.27241 0
M  V30 2731 C 266.943 -2.50529 3.58545 0
M  V30 2732 C 266.002 -3.68145 3.75973 0
M  V30 2733 O 265.028 -3.51176 4.47956 0
M  V30 2734 N 266.23 -4.87177 3.15656 0
M  V30 2735 H 268.995 -0.81059 2.8853 0
M  V30 2736 H 266.556 -0.296024 1.59171 0
M  V30 2737 H 268.548 -3.28689 2.36105 0
M  V30 2738 H 267.118 -2.78147 1.42663 0
M  V30 2739 H 266.338 -1.58894 3.60758 0
M  V30 2740 H 267.626 -2.46997 4.44826 0
M  V30 2741 H 267.024 -5.03868 2.57165 0
M  V30 2742 H 265.581 -5.62075 3.30023 0
M  V30 2743 N 269.014 -1.53014 -0.377408 0
M  V30 2744 C 270.43 -1.42523 -0.718281 0
M  V30 2745 C 270.63 -0.55487 -1.9371 0
M  V30 2746 O 269.686 -0.0327593 -2.52479 0
M  V30 2747 C 270.999 -2.85546 -0.942539 0
M  V30 2748 C 272.547 -2.95101 -1.04329 0
M  V30 2749 C 273.022 -4.3916 -1.3001 0
M  V30 2750 N 274.513 -4.42536 -1.36806 0
M  V30 2751 C 275.248 -5.51097 -1.58364 0
M  V30 2752 N 274.744 -6.69724 -1.77317 0
M  V30 2753 N 276.537 -5.38657 -1.60638 0
M  V30 2754 H 268.688 -2.08116 0.424426 0
M  V30 2755 H 270.951 -0.939352 0.127759 0
M  V30 2756 H 270.657 -3.51499 -0.118929 0
M  V30 2757 H 270.531 -3.28493 -1.85397 0
M  V30 2758 H 272.918 -2.29309 -1.85745 0
M  V30 2759 H 272.999 -2.55566 -0.109505 0
M  V30 2760 H 272.643 -5.05521 -0.490991 0
M  V30 2761 H 272.573 -4.76258 -2.24691 0
M  V30 2762 H 275.064 -3.57039 -1.23821 0
M  V30 2763 H 275.377 -7.48233 -1.93306 0
M  V30 2764 H 273.722 -6.72732 -1.74518 0
M  V30 2765 H 276.913 -4.44948 -1.45391 0
M  V30 2766 H 277.086 -6.2333 -1.77098 0
M  V30 2767 N 270.492 0.636531 -1.44174 0
M  V30 2768 C 271.455 1.73063 -1.50273 0
M  V30 2769 C 272.455 1.56113 -0.385397 0
M  V30 2770 O 273.645 1.61707 -0.64781 0
M  V30 2771 C 270.777 3.12096 -1.37145 0
M  V30 2772 H 271.97 1.69031 -2.47727 0
M  V30 2773 H 269.523 0.849706 -1.31186 0
M  V30 2774 H 270.258 3.21728 -0.407636 0
M  V30 2775 H 270.043 3.25805 -2.18159 0
M  V30 2776 H 271.533 3.91846 -1.44382 0
M  V30 2777 N 271.97 1.30982 0.876444 0
M  V30 2778 C 273.21 1.21589 1.64303 0
M  V30 2779 C 273.574 -0.223962 1.90689 0
M  V30 2780 O 274.775 -0.44128 2.65153 0
M  V30 2781 C 273.046 2.03007 2.94148 0
M  V30 2782 S 274.605 2.10405 3.85065 0
M  V30 2783 H 271.423 0.433161 0.563819 0
M  V30 2784 H 274.025 1.65565 1.03964 0
M  V30 2785 H 272.729 3.06719 2.72675 0
M  V30 2786 H 272.26 1.59725 3.59515 0
M  V30 2787 H 274.275 1.23765 4.80517 0
M  V30 2788 N 273.449 -1.08991 1.13837 0
M  V30 2789 C 274.412 -2.13925 0.822715 0
M  V30 2790 C 275.412 -1.599 -0.1699 0
M  V30 2791 O 276.602 -1.74104 0.0577251 0
M  V30 2792 C 273.734 -3.40155 0.225318 0
M  V30 2793 H 274.927 -2.43358 1.75262 0
M  V30 2794 H 272.48 -1.24603 0.943594 0
M  V30 2795 H 273.215 -3.16352 -0.713594 0
M  V30 2796 H 273 -3.80661 0.940193 0
M  V30 2797 H 274.49 -4.17594 0.0214784 0
M  V30 2798 N 274.927 -0.932562 -1.27047 0
M  V30 2799 C 275.837 -0.441219 -2.30414 0
M  V30 2800 C 276.853 0.480525 -1.67233 0
M  V30 2801 O 278.029 0.362151 -1.98117 0
M  V30 2802 C 275.094 0.293651 -3.45454 0
M  V30 2803 C 274.155 -0.663601 -4.2414 0
M  V30 2804 C 273.388 0.0362932 -5.33688 0
M  V30 2805 O 273.611 1.2548 -5.56427 0
M  V30 2806 O 272.545 -0.638015 -5.98509 0
M  V30 2807 H 276.371 -1.29962 -2.74488 0
M  V30 2808 H 273.956 -0.6981 -1.32087 0
M  V30 2809 H 275.838 0.707951 -4.15411 0
M  V30 2810 H 274.513 1.12758 -3.03426 0
M  V30 2811 H 273.42 -1.12768 -3.56699 0
M  V30 2812 H 274.753 -1.46489 -4.69896 0
M  V30 2813 N 276.405 1.4127 -0.698611 0
M  V30 2814 C 277.337 2.292 0.00399731 0
M  V30 2815 C 278.35 1.44944 0.741279 0
M  V30 2816 O 279.539 1.68416 0.591477 0
M  V30 2817 C 276.639 3.22875 1.02979 0
M  V30 2818 C 275.812 4.35904 0.36151 0
M  V30 2819 C 274.871 5.10134 1.29033 0
M  V30 2820 O 273.897 5.63809 0.781562 0
M  V30 2821 N 275.099 5.17885 2.6225 0
M  V30 2822 H 277.864 2.9014 -0.750921 0
M  V30 2823 H 275.425 1.52455 -0.544882 0
M  V30 2824 H 277.417 3.69404 1.65296 0
M  V30 2825 H 275.987 2.63221 1.68622 0
M  V30 2826 H 275.207 3.91719 -0.441584 0
M  V30 2827 H 276.495 5.08696 -0.103055 0
M  V30 2828 H 275.893 4.7573 3.061 0
M  V30 2829 H 274.45 5.6798 3.19754 0
M  V30 2830 N 277.883 0.443576 1.51229 0
M  V30 2831 C 279.16 -0.181038 1.9476 0
M  V30 2832 C 279.54 -1.59523 1.38259 0
M  V30 2833 O 278.888 -2.2122 0.572198 0
M  V30 2834 C 279.098 -0.152422 3.48667 0
M  V30 2835 C 280.446 -0.354923 4.23114 0
M  V30 2836 O 281.47 -0.230257 3.55455 0
M  V30 2837 O 280.329 -0.603674 5.43156 0
M  V30 2838 H 277.423 -0.1266 0.817252 0
M  V30 2839 H 279.969 0.502004 1.62105 0
M  V30 2840 H 278.741 0.836022 3.82265 0
M  V30 2841 H 278.364 -0.878107 3.87782 0
M  V30 2842 N 279.361 -1.56624 0.175154 0
M  V30 2843 C 280.609 -1.96609 -0.467885 0
M  V30 2844 C 280.93 -1.06238 -1.63519 0
M  V30 2845 O 280.2 -0.129523 -1.95471 0
M  V30 2846 H 278.78 -0.726008 -0.175845 0
M  V30 2847 H 281.442 -1.93195 0.257234 0
M  V30 2848 H 280.538 -3.00989 -0.825342 0
M  V30 2849 N 280.839 0.0985539 -1.57292 0
M  V30 2850 C 282.088 0.801358 -1.85098 0
M  V30 2851 C 282.401 1.80066 -0.763902 0
M  V30 2852 O 283.607 2.55112 -0.928981 0
M  V30 2853 C 282.063 1.47599 -3.28242 0
M  V30 2854 C 281.671 0.516624 -4.45011 0
M  V30 2855 C 283.415 2.16272 -3.65276 0
M  V30 2856 C 281.322 1.19564 -5.79188 0
M  V30 2857 H 280.252 0.303022 -0.69043 0
M  V30 2858 H 282.903 0.0542623 -1.8342 0
M  V30 2859 H 281.285 2.27042 -3.2445 0
M  V30 2860 H 282.459 -0.246065 -4.60143 0
M  V30 2861 H 280.774 -0.064227 -4.1635 0
M  V30 2862 H 283.371 2.67802 -4.62803 0
M  V30 2863 H 283.714 2.95009 -2.93727 0
M  V30 2864 H 284.247 1.43693 -3.70941 0
M  V30 2865 H 280.986 0.449157 -6.53959 0
M  V30 2866 H 280.506 1.92984 -5.67906 0
M  V30 2867 H 282.185 1.7231 -6.23633 0
M  V30 2868 N 282.317 1.53212 0.369288 0
M  V30 2869 C 283.247 1.82365 1.45826 0
M  V30 2870 C 284.228 0.676907 1.56051 0
M  V30 2871 O 285.413 0.926401 1.70679 0
M  V30 2872 C 282.543 2.01023 2.83208 0
M  V30 2873 C 281.497 3.1678 2.8781 0
M  V30 2874 C 280.823 3.20724 4.27832 0
M  V30 2875 C 282.123 4.55447 2.55667 0
M  V30 2876 H 283.817 2.73559 1.21678 0
M  V30 2877 H 281.363 1.3163 0.583911 0
M  V30 2878 H 283.316 2.20001 3.59413 0
M  V30 2879 H 282.04 1.06536 3.08736 0
M  V30 2880 H 280.699 2.97616 2.14056 0
M  V30 2881 H 280.347 2.23882 4.50429 0
M  V30 2882 H 280.047 3.98496 4.31827 0
M  V30 2883 H 281.571 3.41881 5.05915 0
M  V30 2884 H 282.985 4.74611 3.21586 0
M  V30 2885 H 281.382 5.35432 2.70984 0
M  V30 2886 H 282.452 4.60812 1.5093 0
M  V30 2887 N 283.795 -0.628877 1.44509 0
M  V30 2888 C 284.758 -1.72263 1.51188 0
M  V30 2889 C 285.758 -1.55907 0.39367 0
M  V30 2890 O 286.948 -1.61361 0.656377 0
M  V30 2891 C 284.08 -3.11365 1.38798 0
M  V30 2892 H 285.273 -1.67714 2.4862 0
M  V30 2893 H 282.826 -0.842737 1.31634 0
M  V30 2894 H 283.561 -3.21507 0.424693 0
M  V30 2895 H 283.346 -3.24644 2.19884 0
M  V30 2896 H 284.836 -3.91075 1.46458 0
M  V30 2897 N 285.273 -1.31445 -0.869486 0
M  V30 2898 C 286.498 -1.24256 -1.66058 0
M  V30 2899 C 286.923 0.188928 -1.87149 0
M  V30 2900 O 286.281 1.13522 -1.4136 0
M  V30 2901 C 286.329 -1.9924 -3.00559 0
M  V30 2902 O 285.433 -1.33007 -3.90362 0
M  V30 2903 H 284.774 -0.428973 -0.506831 0
M  V30 2904 H 287.304 -1.73521 -1.08404 0
M  V30 2905 H 287.314 -2.08854 -3.50491 0
M  V30 2906 H 285.989 -3.03342 -2.84528 0
M  V30 2907 H 284.566 -1.31848 -3.48813 0
M  V30 2908 N 286.751 1.08385 -1.14413 0
M  V30 2909 C 287.714 2.13486 -0.834048 0
M  V30 2910 C 288.714 1.59988 0.161418 0
M  V30 2911 O 289.904 1.74071 -0.0669575 0
M  V30 2912 C 287.036 3.4003 -0.243354 0
M  V30 2913 H 288.229 2.42425 -1.7655 0
M  V30 2914 H 285.782 1.24101 -0.950189 0
M  V30 2915 H 286.517 3.16726 0.696807 0
M  V30 2916 H 286.302 3.80157 -0.960367 0
M  V30 2917 H 287.792 4.17577 -0.0436242 0
M  V30 2918 N 288.23 0.939286 1.26551 0
M  V30 2919 C 289.14 0.453432 2.30176 0
M  V30 2920 C 290.156 -0.471649 1.67486 0
M  V30 2921 O 291.332 -0.35164 1.98306 0
M  V30 2922 C 288.397 -0.275326 3.45605 0
M  V30 2923 C 287.458 0.686084 4.23782 0
M  V30 2924 C 286.691 -0.00798994 5.33699 0
M  V30 2925 O 286.914 -1.22528 5.57085 0
M  V30 2926 O 285.848 0.669746 5.98162 0
M  V30 2927 H 289.674 1.31416 2.73795 0
M  V30 2928 H 287.259 0.705095 1.31715 0
M  V30 2929 H 289.141 -0.685911 4.1578 0
M  V30 2930 H 287.816 -1.11147 3.0402 0
M  V30 2931 H 286.723 1.14658 3.56096 0
M  V30 2932 H 288.056 1.48979 4.69112 0
M  V30 2933 N 289.708 -1.40897 0.706093 0
M  V30 2934 C 290.64 -2.29199 0.00815776 0
M  V30 2935 C 291.653 -1.45336 -0.733582 0
M  V30 2936 O 292.842 -1.68727 -0.582537 0
M  V30 2937 C 289.942 -3.23417 -1.01265 0
M  V30 2938 C 289.115 -4.36089 -0.338387 0
M  V30 2939 C 288.174 -5.10811 -1.26326 0
M  V30 2940 O 287.2 -5.64215 -0.751651 0
M  V30 2941 N 288.402 -5.19269 -2.595 0
M  V30 2942 H 291.167 -2.89738 0.766297 0
M  V30 2943 H 288.728 -1.52164 0.55296 0
M  V30 2944 H 290.72 -3.70276 -1.63334 0
M  V30 2945 H 289.29 -2.64112 -1.67223 0
M  V30 2946 H 288.51 -3.91479 0.462352 0
M  V30 2947 H 289.798 -5.08634 0.130031 0
M  V30 2948 H 289.196 -4.77347 -3.03573 0
M  V30 2949 H 287.753 -5.69667 -3.16737 0
M  V30 2950 N 291.186 -0.45159 -1.50991 0
M  V30 2951 C 292.116 0.342898 -2.30969 0
M  V30 2952 C 293.097 1.00815 -1.37005 0
M  V30 2953 O 294.282 1.00907 -1.65926 0
M  V30 2954 C 291.412 1.43637 -3.16205 0
M  V30 2955 C 290.366 0.893818 -4.18563 0
M  V30 2956 C 289.692 2.08411 -4.92411 0
M  V30 2957 C 290.992 -0.0815568 -5.22236 0
M  V30 2958 H 292.686 -0.324556 -2.97636 0
M  V30 2959 H 290.232 -0.157531 -1.43136 0
M  V30 2960 H 292.185 1.9995 -3.70942 0
M  V30 2961 H 290.909 2.13232 -2.47386 0
M  V30 2962 H 289.568 0.352798 -3.64898 0
M  V30 2963 H 289.216 2.76658 -4.20082 0
M  V30 2964 H 288.916 1.72741 -5.61636 0
M  V30 2965 H 290.44 2.65251 -5.49976 0
M  V30 2966 H 291.854 0.391742 -5.7196 0
M  V30 2967 H 290.251 -0.351551 -5.99069 0
M  V30 2968 H 291.321 -1.01374 -4.74185 0
M  V30 2969 N 292.664 1.56529 -0.183458 0
M  V30 2970 C 293.614 2.1515 0.754605 0
M  V30 2971 C 294.598 1.08904 1.18443 0
M  V30 2972 O 295.79 1.34997 1.14476 0
M  V30 2973 C 292.919 2.80531 1.97881 0
M  V30 2974 C 292.005 3.93952 1.57043 0
M  V30 2975 N 292.396 4.98221 0.87231 0
M  V30 2976 C 290.694 4.05338 1.86057 0
M  V30 2977 C 291.395 5.77836 0.669377 0
M  V30 2978 N 290.371 5.29858 1.21454 0
M  V30 2979 H 294.173 2.93132 0.212387 0
M  V30 2980 H 291.687 1.62391 0.0167725 0
M  V30 2981 H 293.684 3.20914 2.6612 0
M  V30 2982 H 292.344 2.04035 2.52586 0
M  V30 2983 H 293.355 5.15191 0.529033 0
M  V30 2984 H 290.032 3.39957 2.42354 0
M  V30 2985 H 291.422 6.71799 0.116422 0
M  V30 2986 N 294.142 -0.090211 1.57342 0
M  V30 2987 C 295.105 -1.09335 2.01441 0
M  V30 2988 C 296.105 -1.32666 0.908641 0
M  V30 2989 O 297.295 -1.28697 1.174 0
M  V30 2990 C 294.427 -2.44136 2.3793 0
M  V30 2991 H 295.62 -0.713662 2.91285 0
M  V30 2992 H 293.173 -0.335404 1.52659 0
M  V30 2993 H 293.908 -2.86972 1.51055 0
M  V30 2994 H 293.693 -2.28548 3.18603 0
M  V30 2995 H 295.183 -3.16277 2.72688 0
M  V30 2996 N 295.62 -1.53406 -0.361157 0
M  V30 2997 C 296.583 -1.79479 -1.42548 0
M  V30 2998 C 297.583 -0.665327 -1.4639 0
M  V30 2999 O 298.773 -0.933549 -1.47073 0
M  V30 3000 C 295.905 -1.92087 -2.8163 0
M  V30 3001 H 297.098 -2.74538 -1.20701 0
M  V30 3002 H 294.651 -1.4455 -0.594546 0
M  V30 3003 H 295.386 -0.991099 -3.08784 0
M  V30 3004 H 295.171 -2.74241 -2.80239 0
M  V30 3005 H 296.661 -2.13836 -3.58697 0
M  V30 3006 N 297.098 0.621204 -1.44841 0
M  V30 3007 C 298.344 1.38073 -1.49357 0
M  V30 3008 C 298.699 1.91973 -0.128115 0
M  V30 3009 O 297.992 1.71311 0.858087 0
M  V30 3010 C 298.186 2.55675 -2.4973 0
M  V30 3011 C 298.015 2.13289 -3.95901 0
M  V30 3012 C 296.785 2.001 -4.63991 0
M  V30 3013 C 298.983 1.7159 -4.84831 0
M  V30 3014 N 296.965 1.51381 -5.94943 0
M  V30 3015 C 298.336 1.34188 -6.05304 0
M  V30 3016 C 300.391 1.59059 -4.7181 0
M  V30 3017 C 299.094 0.855085 -7.14199 0
M  V30 3018 C 301.12 1.11784 -5.8074 0
M  V30 3019 C 300.482 0.753385 -7.0036 0
M  V30 3020 H 296.581 0.499675 -0.601539 0
M  V30 3021 H 299.165 0.711609 -1.8123 0
M  V30 3022 H 297.336 3.20201 -2.19832 0
M  V30 3023 H 299.068 3.22509 -2.4448 0
M  V30 3024 H 295.823 2.20863 -4.18947 0
M  V30 3025 H 296.247 1.29293 -6.64539 0
M  V30 3026 H 300.889 1.85865 -3.79755 0
M  V30 3027 H 298.607 0.574552 -8.06055 0
M  V30 3028 H 302.193 1.02533 -5.72694 0
M  V30 3029 H 301.073 0.393183 -7.83214 0
M  V30 3030 N 298.576 1.31904 0.862503 0
M  V30 3031 C 299.992 1.10724 1.14945 0
M  V30 3032 C 300.192 -0.117421 2.01158 0
M  V30 3033 O 299.248 -0.804595 2.39338 0
M  V30 3034 C 300.561 2.38267 1.83437 0
M  V30 3035 C 302.109 2.43949 1.96106 0
M  V30 3036 C 302.584 3.71394 2.68013 0
M  V30 3037 N 304.075 3.72331 2.75543 0
M  V30 3038 C 304.81 4.67641 3.31812 0
M  V30 3039 N 304.306 5.73313 3.88953 0
M  V30 3040 N 306.099 4.5515 3.29841 0
M  V30 3041 H 298.25 2.10436 0.288191 0
M  V30 3042 H 300.513 0.928705 0.190292 0
M  V30 3043 H 300.219 3.27759 1.27542 0
M  V30 3044 H 300.093 2.48633 2.83657 0
M  V30 3045 H 302.48 1.54922 2.51164 0
M  V30 3046 H 302.561 2.37543 0.949059 0
M  V30 3047 H 302.205 4.60791 2.13621 0
M  V30 3048 H 302.135 3.75069 3.69636 0
M  V30 3049 H 304.626 2.95947 2.34997 0
M  V30 3050 H 304.939 6.42107 4.30022 0
M  V30 3051 H 303.284 5.77077 3.87308 0
M  V30 3052 H 306.475 3.71766 2.84443 0
M  V30 3053 H 306.648 5.29604 3.73394 0
M  V30 3054 N 300.054 -1.07777 1.14986 0
M  V30 3055 C 301.331 -1.7699 0.832695 0
M  V30 3056 C 301.711 -2.001 -0.672561 0
M  V30 3057 O 301.059 -1.61598 -1.6155 0
M  V30 3058 C 301.269 -3.08139 1.63863 0
M  V30 3059 C 302.617 -3.8256 1.84208 0
M  V30 3060 O 303.641 -3.17939 1.60603 0
M  V30 3061 O 302.5 -4.98612 2.23714 0
M  V30 3062 H 299.594 -0.768389 0.305791 0
M  V30 3063 H 302.14 -1.14182 1.25541 0
M  V30 3064 H 300.912 -2.86909 2.6608 0
M  V30 3065 H 300.535 -3.78678 1.21197 0
M  V30 3066 N 301.532 -0.945985 -1.26051 0
M  V30 3067 C 302.78 -0.594941 -1.93145 0
M  V30 3068 C 303.101 0.86953 -1.7454 0
M  V30 3069 O 302.371 1.61838 -1.10387 0
M  V30 3070 H 300.951 -0.217044 -0.714773 0
M  V30 3071 H 303.613 -1.20235 -1.53393 0
M  V30 3072 H 302.709 -0.816835 -3.01221 0
M  V30 3073 N 303.011 1.40521 -0.713556 0
M  V30 3074 C 303.941 2.33381 -0.0743864 0
M  V30 3075 C 304.922 1.52784 0.747735 0
M  V30 3076 O 306.107 1.81258 0.697071 0
M  V30 3077 C 303.237 3.36748 0.849598 0
M  V30 3078 C 302.191 4.27793 0.133247 0
M  V30 3079 C 301.517 5.21679 1.17281 0
M  V30 3080 C 302.817 5.12415 -1.01134 0
M  V30 3081 H 304.511 2.87081 -0.850007 0
M  V30 3082 H 302.057 1.38034 -0.410201 0
M  V30 3083 H 304.01 4.00648 1.30612 0
M  V30 3084 H 302.734 2.81439 1.65709 0
M  V30 3085 H 301.393 3.65342 -0.303426 0
M  V30 3086 H 301.041 4.62677 1.9733 0
M  V30 3087 H 300.741 5.83435 0.698397 0
M  V30 3088 H 302.265 5.88456 1.62947 0
M  V30 3089 H 303.679 5.69781 -0.634274 0
M  V30 3090 H 302.076 5.83203 -1.41399 0
M  V30 3091 H 303.146 4.48514 -1.84292 0
M  V30 3092 N 304.489 0.459591 1.5075 0
M  V30 3093 C 305.766 -0.160371 1.94941 0
M  V30 3094 C 306.146 -1.58048 1.39943 0
M  V30 3095 O 305.494 -2.206 0.595629 0
M  V30 3096 C 305.704 -0.115432 3.48809 0
M  V30 3097 C 307.052 -0.310026 4.23467 0
M  V30 3098 O 308.076 -0.192543 3.55679 0
M  V30 3099 O 306.935 -0.546031 5.43765 0
M  V30 3100 H 304.029 -0.117925 0.818549 0
M  V30 3101 H 306.575 0.519169 1.61563 0
M  V30 3102 H 305.347 0.87652 3.81357 0
M  V30 3103 H 304.97 -0.836928 3.88692 0
M  V30 3104 N 305.967 -1.56429 0.191757 0
M  V30 3105 C 307.213 -1.98541 -0.441943 0
M  V30 3106 C 307.568 -1.07646 -1.59468 0
M  V30 3107 O 306.861 -0.120191 -1.91223 0
M  V30 3108 C 307.055 -3.44449 -0.953384 0
M  V30 3109 C 306.884 -4.49456 0.148262 0
M  V30 3110 C 305.654 -5.01668 0.604781 0
M  V30 3111 C 307.852 -5.05336 0.95602 0
M  V30 3112 N 305.834 -5.90334 1.6846 0
M  V30 3113 C 307.205 -5.9064 1.88531 0
M  V30 3114 C 309.26 -4.87779 0.998811 0
M  V30 3115 C 307.963 -6.60264 2.85383 0
M  V30 3116 C 309.989 -5.58139 1.95537 0
M  V30 3117 C 309.351 -6.43187 2.8721 0
M  V30 3118 H 305.45 -0.771247 -0.129236 0
M  V30 3119 H 308.034 -1.92426 0.296682 0
M  V30 3120 H 306.205 -3.5107 -1.66146 0
M  V30 3121 H 307.937 -3.73533 -1.55741 0
M  V30 3122 H 304.692 -4.73183 0.198736 0
M  V30 3123 H 305.116 -6.39371 2.22561 0
M  V30 3124 H 309.758 -4.21705 0.304048 0
M  V30 3125 H 307.476 -7.25538 3.55837 0
M  V30 3126 H 311.062 -5.46532 1.99484 0
M  V30 3127 H 309.942 -6.96674 3.60022 0
M  V30 3128 N 307.445 0.0818655 -1.57387 0
M  V30 3129 C 308.685 0.788375 -1.88584 0
M  V30 3130 C 309.049 1.75248 -0.784351 0
M  V30 3131 O 310.25 2.50334 -0.979105 0
M  V30 3132 C 308.521 1.48654 -3.25018 0
M  V30 3133 S 310.08 2.22951 -3.7794 0
M  V30 3134 H 306.898 0.262383 -0.660815 0
M  V30 3135 H 309.5 0.0448995 -1.95448 0
M  V30 3136 H 308.204 0.770919 -4.03094 0
M  V30 3137 H 307.735 2.26965 -3.21326 0
M  V30 3138 H 309.75 3.49309 -3.52417 0
M  V30 3139 N 308.923 1.53595 0.353017 0
M  V30 3140 C 309.871 1.81605 1.45335 0
M  V30 3141 C 310.865 0.685923 1.54892 0
M  V30 3142 O 312.071 0.869095 1.57628 0
M  V30 3143 H 308.446 0.575204 0.484401 0
M  V30 3144 H 310.417 2.73679 1.18921 0
M  V30 3145 C 309.166 2.03406 2.81995 0
M  V30 3146 H 308.489 2.89814 2.75405 0
M  V30 3147 H 309.929 2.26975 3.58132 0
M  V30 3148 C 308.388 0.816794 3.26849 0
M  V30 3149 O 308.918 0.0115856 4.01698 0
M  V30 3150 N 307.124 0.636682 2.8354 0
M  V30 3151 H 306.671 1.2931 2.22793 0
M  V30 3152 H 306.629 -0.176336 3.13905 0
M  V30 3153 N 310.401 -0.613514 1.45168 0
M  V30 3154 C 311.364 -1.7065 1.53007 0
M  V30 3155 C 312.364 -1.5548 0.410184 0
M  V30 3156 O 313.554 -1.60656 0.673455 0
M  V30 3157 C 310.686 -3.09875 1.42093 0
M  V30 3158 H 311.879 -1.65068 2.50385 0
M  V30 3159 H 309.432 -0.828728 1.32521 0
M  V30 3160 H 310.167 -3.21039 0.458769 0
M  V30 3161 H 309.952 -3.22293 2.23315 0
M  V30 3162 H 311.442 -3.895 1.50598 0
M  V30 3163 N 311.879 -1.3236 -0.855495 0
M  V30 3164 C 313.127 -1.22629 -1.60644 0
M  V30 3165 C 313.448 0.212136 -1.93843 0
M  V30 3166 O 312.718 1.13666 -1.59552 0
M  V30 3167 H 311.298 -0.450882 -0.595579 0
M  V30 3168 H 313.96 -1.65871 -1.02337 0
M  V30 3169 H 313.056 -1.80832 -2.54374 0
M  V30 3170 N 313.357 1.07166 -1.15556 0
M  V30 3171 C 314.603 1.80222 -0.942961 0
M  V30 3172 C 314.958 1.85121 0.524209 0
M  V30 3173 O 314.251 1.32531 1.38369 0
M  V30 3174 C 314.445 3.24707 -1.49332 0
M  V30 3175 C 314.274 3.33887 -3.01247 0
M  V30 3176 C 313.044 3.44337 -3.69811 0
M  V30 3177 C 315.242 3.24484 -3.99017 0
M  V30 3178 N 313.224 3.42439 -5.09518 0
M  V30 3179 C 314.595 3.29726 -5.25053 0
M  V30 3180 C 316.65 3.08307 -3.90962 0
M  V30 3181 C 315.353 3.20455 -6.43973 0
M  V30 3182 C 317.379 3.00371 -5.09442 0
M  V30 3183 C 316.741 3.06227 -6.34354 0
M  V30 3184 H 312.84 0.672709 -0.398731 0
M  V30 3185 H 315.424 1.27905 -1.46794 0
M  V30 3186 H 313.595 3.7544 -0.994946 0
M  V30 3187 H 315.327 3.85894 -1.21935 0
M  V30 3188 H 312.082 3.48762 -3.20409 0
M  V30 3189 H 312.506 3.45013 -5.8249 0
M  V30 3190 H 317.148 3.02633 -2.95251 0
M  V30 3191 H 314.866 3.24888 -7.39914 0
M  V30 3192 H 318.452 2.88955 -5.04971 0
M  V30 3193 H 317.332 3.00132 -7.24493 0
M  V30 3194 N 314.835 0.952656 1.25548 0
M  V30 3195 C 315.765 0.489287 2.28316 0
M  V30 3196 C 316.746 -0.463359 1.63667 0
M  V30 3197 O 317.931 -0.36274 1.90782 0
M  V30 3198 C 315.061 -0.235603 3.465 0
M  V30 3199 C 314.015 0.631593 4.23314 0
M  V30 3200 C 313.341 -0.223923 5.34231 0
M  V30 3201 C 314.641 1.90871 4.86174 0
M  V30 3202 H 316.335 1.34822 2.67326 0
M  V30 3203 H 313.881 0.649728 1.28509 0
M  V30 3204 H 315.834 -0.570882 4.17515 0
M  V30 3205 H 314.558 -1.12877 3.06474 0
M  V30 3206 H 313.217 0.949929 3.54079 0
M  V30 3207 H 312.865 -1.11678 4.90446 0
M  V30 3208 H 312.565 0.35299 5.86539 0
M  V30 3209 H 314.089 -0.554214 6.0808 0
M  V30 3210 H 315.503 1.63997 5.49343 0
M  V30 3211 H 313.9 2.43112 5.4865 0
M  V30 3212 H 314.97 2.61304 4.08471 0
M  V30 3213 N 316.313 -1.40141 0.720998 0
M  V30 3214 C 317.729 -1.54632 0.395113 0
M  V30 3215 C 317.929 -1.69115 -1.09555 0
M  V30 3216 O 316.985 -1.68377 -1.88163 0
M  V30 3217 C 318.298 -2.77177 1.1659 0
M  V30 3218 C 319.846 -2.91 1.15274 0
M  V30 3219 C 320.321 -4.16465 1.90579 0
M  V30 3220 N 321.812 -4.23476 1.87675 0
M  V30 3221 C 322.547 -5.19475 2.42762 0
M  V30 3222 N 322.043 -6.21348 3.06428 0
M  V30 3223 N 323.836 -5.11592 2.32874 0
M  V30 3224 H 315.987 -1.28986 1.68749 0
M  V30 3225 H 318.25 -0.62412 0.713567 0
M  V30 3226 H 317.956 -2.72771 2.22011 0
M  V30 3227 H 317.83 -3.69442 0.76108 0
M  V30 3228 H 320.217 -2.94907 0.106702 0
M  V30 3229 H 320.298 -1.99838 1.59682 0
M  V30 3230 H 319.942 -4.1332 2.95176 0
M  V30 3231 H 319.872 -5.06646 1.43587 0
M  V30 3232 H 322.363 -3.50497 1.41281 0
M  V30 3233 H 322.676 -6.91034 3.45965 0
M  V30 3234 H 321.021 -6.21777 3.10514 0
M  V30 3235 H 324.212 -4.30936 1.82789 0
M  V30 3236 H 324.385 -5.86233 2.76106 0
M  V30 3237 N 317.792 -0.46758 -1.50504 0
M  V30 3238 C 319.069 0.15003 -1.95024 0
M  V30 3239 C 319.449 1.57304 -1.40779 0
M  V30 3240 O 318.797 2.20281 -0.607319 0
M  V30 3241 C 319.007 0.0969324 -3.48865 0
M  V30 3242 C 320.355 0.287565 -4.23625 0
M  V30 3243 O 321.379 0.173678 -3.55776 0
M  V30 3244 O 320.238 0.517186 -5.44047 0
M  V30 3245 H 317.332 0.113582 -0.819163 0
M  V30 3246 H 319.878 -0.52773 -1.61286 0
M  V30 3247 H 318.65 -0.896732 -3.80886 0
M  V30 3248 H 318.273 0.816303 -3.8913 0
M  V30 3249 N 319.27 1.56325 -0.20005 0
M  V30 3250 C 320.518 1.97329 0.436547 0
M  V30 3251 C 320.839 1.08826 1.61808 0
M  V30 3252 O 320.109 0.160604 1.95241 0
M  V30 3253 H 318.689 0.728714 0.164272 0
M  V30 3254 H 321.351 1.92761 -0.287937 0
M  V30 3255 H 320.447 3.02264 0.777353 0
M  V30 3256 N 320.748 -0.0735177 1.57428 0
M  V30 3257 C 321.973 -0.789787 1.91774 0
M  V30 3258 C 322.398 -1.70413 0.796306 0
M  V30 3259 O 321.756 -1.79555 -0.250961 0
M  V30 3260 C 321.804 -1.5609 3.25067 0
M  V30 3261 O 320.908 -2.67144 3.14178 0
M  V30 3262 H 320.249 -0.215582 0.628029 0
M  V30 3263 H 322.779 -0.0422781 2.04556 0
M  V30 3264 H 322.789 -1.94052 3.58898 0
M  V30 3265 H 321.464 -0.890015 4.06265 0
M  V30 3266 H 320.041 -2.32052 2.91901 0
M  V30 3267 N 322.226 -1.5378 -0.344866 0
M  V30 3268 C 323.472 -1.71216 -1.08687 0
M  V30 3269 C 323.805 -0.473281 -1.88345 0
M  V30 3270 O 323.08 0.52968 -1.87149 0
M  V30 3271 C 323.363 -2.97486 -2.02914 0
M  V30 3272 C 323.216 -4.31579 -1.26727 0
M  V30 3273 C 324.535 -3.19422 -3.0275 0
M  V30 3274 H 321.654 -0.62301 -0.393735 0
M  V30 3275 H 324.296 -1.8645 -0.365563 0
M  V30 3276 H 322.446 -2.84629 -2.64421 0
M  V30 3277 H 324.118 -4.56284 -0.67845 0
M  V30 3278 H 322.361 -4.30049 -0.569273 0
M  V30 3279 H 323.032 -5.16106 -1.95803 0
M  V30 3280 H 325.508 -3.316 -2.51357 0
M  V30 3281 H 324.384 -4.09169 -3.65885 0
M  V30 3282 H 324.645 -2.35656 -3.74057 0
M  V30 3283 N 323.704 0.605807 -1.45491 0
M  V30 3284 C 324.636 1.73031 -1.5031 0
M  V30 3285 C 325.649 1.57968 -0.393687 0
M  V30 3286 O 326.838 1.65817 -0.660839 0
M  V30 3287 C 323.938 3.11049 -1.34543 0
M  V30 3288 C 323.111 3.52334 -2.59189 0
M  V30 3289 C 322.17 4.69323 -2.37954 0
M  V30 3290 O 321.196 4.7635 -3.11575 0
M  V30 3291 N 322.398 5.62705 -1.4263 0
M  V30 3292 H 325.163 1.6936 -2.4726 0
M  V30 3293 H 322.724 0.79114 -1.41254 0
M  V30 3294 H 324.716 3.87071 -1.18144 0
M  V30 3295 H 323.286 3.09217 -0.458623 0
M  V30 3296 H 322.506 2.66256 -2.90691 0
M  V30 3297 H 323.794 3.76677 -3.42041 0
M  V30 3298 H 323.192 5.59744 -0.818758 0
M  V30 3299 H 321.749 6.38252 -1.32202 0
M  V30 3300 N 325.182 1.32811 0.848464 0
M  V30 3301 C 326.412 1.26556 1.63301 0
M  V30 3302 C 326.82 -0.1676 1.88456 0
M  V30 3303 O 326.163 -1.11713 1.45828 0
M  V30 3304 C 326.225 1.96202 3.01239 0
M  V30 3305 C 325.889 3.45528 2.99098 0
M  V30 3306 C 326.886 4.40903 2.75501 0
M  V30 3307 C 324.571 3.87558 3.19537 0
M  V30 3308 C 326.565 5.76282 2.72356 0
M  V30 3309 C 324.252 5.23044 3.16019 0
M  V30 3310 C 325.25 6.17217 2.92458 0
M  V30 3311 O 324.938 7.50223 2.88825 0
M  V30 3312 H 324.67 0.43771 0.515156 0
M  V30 3313 H 327.224 1.7559 1.0657 0
M  V30 3314 H 325.454 1.41746 3.59785 0
M  V30 3315 H 327.143 1.83573 3.62016 0
M  V30 3316 H 327.909 4.09756 2.5947 0
M  V30 3317 H 323.788 3.14674 3.369 0
M  V30 3318 H 327.332 6.4976 2.53886 0
M  V30 3319 H 323.229 5.53818 3.31596 0
M  V30 3320 H 323.997 7.59657 3.04735 0
M  V30 3321 N 326.66 -1.06551 1.16123 0
M  V30 3322 C 328.071 -1.60768 0.949232 0
M  V30 3323 C 328.422 -1.89523 -0.507508 0
M  V30 3324 O 327.547 -1.66671 -1.38021 0
M  V30 3325 C 328.142 -2.92086 1.71671 0
M  V30 3326 C 326.701 -3.43015 1.54977 0
M  V30 3327 C 325.848 -2.16947 1.72711 0
M  V30 3328 H 328.799 -0.895354 1.31031 0
M  V30 3329 H 328.82 -3.6138 1.19099 0
M  V30 3330 H 328.332 -2.71127 2.7769 0
M  V30 3331 H 326.433 -3.69039 0.513873 0
M  V30 3332 H 326.546 -4.18516 2.33198 0
M  V30 3333 H 324.91 -2.27041 1.15431 0
M  V30 3334 H 325.693 -1.98473 2.80113 0
M  V30 3335 N 328.138 -0.959301 -1.25041 0
M  V30 3336 C 329.384 -0.617525 -1.9317 0
M  V30 3337 C 329.717 0.843981 -1.74902 0
M  V30 3338 O 328.992 1.60615 -1.09696 0
M  V30 3339 C 329.275 -0.982736 -3.46431 0
M  V30 3340 C 329.128 -2.50032 -3.73904 0
M  V30 3341 C 330.447 -0.511176 -4.37121 0
M  V30 3342 H 327.566 -0.22582 -0.701552 0
M  V30 3343 H 330.208 -1.19679 -1.4757 0
M  V30 3344 H 328.358 -0.489806 -3.854 0
M  V30 3345 H 330.03 -3.06737 -3.44544 0
M  V30 3346 H 328.273 -2.93598 -3.19348 0
M  V30 3347 H 328.944 -2.70635 -4.81103 0
M  V30 3348 H 331.42 -0.934075 -4.0548 0
M  V30 3349 H 330.296 -0.795361 -5.43107 0
M  V30 3350 H 330.557 0.588834 -4.38161 0
M  V30 3351 N 329.616 1.39756 -0.72842 0
M  V30 3352 C 330.564 2.32485 -0.0731849 0
M  V30 3353 C 331.558 1.52717 0.733063 0
M  V30 3354 O 332.764 1.68428 0.634988 0
M  V30 3355 H 329.139 0.751984 -0.00486469 0
M  V30 3356 H 331.11 2.85382 -0.871761 0
M  V30 3357 C 329.859 3.37773 0.824908 0
M  V30 3358 H 329.182 3.99227 0.213915 0
M  V30 3359 H 330.622 4.05121 1.25111 0
M  V30 3360 C 329.081 2.74287 1.95622 0
M  V30 3361 O 329.611 2.61618 3.04826 0
M  V30 3362 N 327.817 2.32475 1.74367 0
M  V30 3363 H 327.364 2.4298 0.855494 0
M  V30 3364 H 327.322 1.90337 2.50238 0
M  V30 3365 N 331.094 0.475555 1.50254 0
M  V30 3366 C 332.51 0.12997 1.5907 0
M  V30 3367 C 332.71 -1.36385 1.48328 0
M  V30 3368 O 331.766 -2.13754 1.34407 0
M  V30 3369 C 333.079 0.684139 2.92814 0
M  V30 3370 C 334.627 0.647965 3.0622 0
M  V30 3371 C 335.102 1.17975 4.42545 0
M  V30 3372 N 336.593 1.13936 4.48969 0
M  V30 3373 C 337.328 1.52129 5.52851 0
M  V30 3374 N 336.824 1.97793 6.63965 0
M  V30 3375 N 338.617 1.43704 5.4342 0
M  V30 3376 H 330.768 1.44706 1.55479 0
M  V30 3377 H 333.031 0.598691 0.735033 0
M  V30 3378 H 332.737 1.73079 3.06164 0
M  V30 3379 H 332.611 0.130204 3.76975 0
M  V30 3380 H 334.998 -0.38979 2.92514 0
M  V30 3381 H 335.079 1.23876 2.23805 0
M  V30 3382 H 334.723 2.21616 4.57 0
M  V30 3383 H 334.653 0.565138 5.23559 0
M  V30 3384 H 337.144 0.804488 3.69238 0
M  V30 3385 H 337.457 2.25072 7.39299 0
M  V30 3386 H 335.802 2.01749 6.65073 0
M  V30 3387 H 338.993 1.07867 4.55502 0
M  V30 3388 H 339.166 1.73794 6.24259 0
M  V30 3389 N 332.573 -1.56217 0.208337 0
M  V30 3390 C 333.984 -1.84243 -0.301904 0
M  V30 3391 C 334.335 -1.12939 -1.60434 0
M  V30 3392 O 333.46 -0.39461 -2.12772 0
M  V30 3393 C 334.055 -3.34231 -0.554543 0
M  V30 3394 C 332.614 -3.62621 -1.00912 0
M  V30 3395 C 331.761 -2.77224 -0.064933 0
M  V30 3396 H 334.712 -1.52712 0.431833 0
M  V30 3397 H 334.733 -3.5372 -1.40223 0
M  V30 3398 H 334.245 -3.86099 0.393561 0
M  V30 3399 H 332.346 -3.16197 -1.97104 0
M  V30 3400 H 332.459 -4.7071 -0.892674 0
M  V30 3401 H 330.823 -2.48256 -0.56929 0
M  V30 3402 H 331.606 -3.31887 0.877851 0
M  V30 3403 N 334.051 0.0651679 -1.57465 0
M  V30 3404 C 335.467 0.420105 -1.53972 0
M  V30 3405 C 335.667 1.78782 -0.929474 0
M  V30 3406 O 334.723 2.46771 -0.534839 0
M  V30 3407 C 336.036 0.355084 -2.98596 0
M  V30 3408 C 337.584 0.434792 -3.09965 0
M  V30 3409 C 338.059 0.399609 -4.56253 0
M  V30 3410 N 339.55 0.459488 -4.60915 0
M  V30 3411 C 340.285 0.454584 -5.71595 0
M  V30 3412 N 339.781 0.404102 -6.9162 0
M  V30 3413 N 341.574 0.501635 -5.59857 0
M  V30 3414 H 333.725 -0.830328 -1.95498 0
M  V30 3415 H 335.988 -0.312244 -0.895102 0
M  V30 3416 H 335.694 -0.583357 -3.46828 0
M  V30 3417 H 335.568 1.16275 -3.58831 0
M  V30 3418 H 337.955 1.36366 -2.61703 0
M  V30 3419 H 338.036 -0.40157 -2.52628 0
M  V30 3420 H 337.68 -0.525436 -5.05175 0
M  V30 3421 H 337.61 1.25359 -5.11461 0
M  V30 3422 H 340.101 0.502482 -3.74544 0
M  V30 3423 H 340.414 0.404468 -7.71741 0
M  V30 3424 H 338.759 0.37069 -6.94011 0
M  V30 3425 H 341.95 0.538812 -4.64989 0
M  V30 3426 H 342.123 0.494345 -6.46112 0
M  V30 3427 N 335.529 1.53961 0.336706 0
M  V30 3428 C 336.439 1.85432 1.43708 0
M  V30 3429 C 337.455 0.745053 1.57242 0
M  V30 3430 O 338.631 1.03804 1.72588 0
M  V30 3431 C 335.696 2.06349 2.78605 0
M  V30 3432 C 334.757 3.30191 2.74358 0
M  V30 3433 C 333.99 3.50101 4.02822 0
M  V30 3434 O 334.213 2.7371 5.00439 0
M  V30 3435 O 333.147 4.43547 4.06878 0
M  V30 3436 H 336.973 2.78975 1.20028 0
M  V30 3437 H 334.558 1.39701 0.52952 0
M  V30 3438 H 336.44 2.21513 3.58483 0
M  V30 3439 H 335.115 1.15995 3.02203 0
M  V30 3440 H 334.022 3.20425 1.93078 0
M  V30 3441 H 335.355 4.2056 2.55715 0
M  V30 3442 N 337.007 -0.598083 1.45811 0
M  V30 3443 C 338.418 -1.18011 1.44673 0
M  V30 3444 C 338.769 -1.95378 0.179364 0
M  V30 3445 O 337.894 -2.04124 -0.718509 0
M  V30 3446 C 338.489 -2.14677 2.62105 0
M  V30 3447 C 337.048 -2.68236 2.64057 0
M  V30 3448 C 336.195 -1.43816 2.37091 0
M  V30 3449 H 339.146 -0.38686 1.53913 0
M  V30 3450 H 339.167 -2.97878 2.36746 0
M  V30 3451 H 338.679 -1.5834 3.5433 0
M  V30 3452 H 336.78 -3.28486 1.75864 0
M  V30 3453 H 336.893 -3.12021 3.63566 0
M  V30 3454 H 335.257 -1.731 1.86838 0
M  V30 3455 H 336.04 -0.893333 3.31473 0
M  V30 3456 N 338.485 -1.33259 -0.841409 0
M  V30 3457 C 339.725 -1.25902 -1.61022 0
M  V30 3458 C 340.089 0.173325 -1.91216 0
M  V30 3459 O 341.29 0.370824 -2.6623 0
M  V30 3460 C 339.561 -2.10735 -2.88662 0
M  V30 3461 S 341.12 -2.20541 -3.79351 0
M  V30 3462 H 337.938 -0.447958 -0.552137 0
M  V30 3463 H 340.54 -1.68263 -0.995382 0
M  V30 3464 H 339.244 -3.1384 -2.64448 0
M  V30 3465 H 338.775 -1.69201 -3.55154 0
M  V30 3466 H 340.79 -1.36462 -4.77067 0
M  V30 3467 N 339.963 1.05934 -1.16686 0
M  V30 3468 C 341.211 1.78447 -0.948744 0
M  V30 3469 C 341.532 1.87813 0.524523 0
M  V30 3470 O 340.802 1.38945 1.38098 0
M  V30 3471 H 339.382 0.660971 -0.348033 0
M  V30 3472 H 342.044 1.27947 -1.47022 0
M  V30 3473 H 341.14 2.80394 -1.37061 0
M  V30 3474 N 341.441 0.965919 1.2453 0
M  V30 3475 C 342.689 0.625593 1.92174 0
M  V30 3476 C 343.01 -0.841652 1.75901 0
M  V30 3477 O 342.28 -1.60061 1.12948 0
M  V30 3478 H 340.86 0.228388 0.71123 0
M  V30 3479 H 343.522 1.2266 1.51461 0
M  V30 3480 H 342.618 0.864653 2.99884 0
M  V30 3481 N 342.919 -1.39368 0.735821 0
M  V30 3482 C 343.849 -2.33234 0.111506 0
M  V30 3483 C 344.83 -1.53954 -0.723334 0
M  V30 3484 O 346.015 -1.82344 -0.668147 0
M  V30 3485 C 343.145 -3.38057 -0.795917 0
M  V30 3486 C 342.099 -4.2795 -0.065172 0
M  V30 3487 C 341.425 -5.23479 -1.08967 0
M  V30 3488 C 342.725 -5.10741 1.09273 0
M  V30 3489 H 344.419 -2.85692 0.895571 0
M  V30 3490 H 341.965 -1.37364 0.432109 0
M  V30 3491 H 343.918 -4.02675 -1.24221 0
M  V30 3492 H 342.642 -2.8404 -1.61211 0
M  V30 3493 H 341.301 -3.64813 0.361511 0
M  V30 3494 H 340.949 -4.65758 -1.89944 0
M  V30 3495 H 340.649 -5.84472 -0.605489 0
M  V30 3496 H 342.173 -5.90974 -1.53565 0
M  V30 3497 H 343.587 -5.68699 0.724841 0
M  V30 3498 H 341.984 -5.8088 1.50659 0
M  V30 3499 H 343.054 -4.45525 1.91404 0
M  V30 3500 N 344.397 -0.483516 -1.5 0
M  V30 3501 C 345.645 0.067027 -2.01989 0
M  V30 3502 C 345.966 1.3909 -1.36671 0
M  V30 3503 O 345.236 1.88978 -0.516152 0
M  V30 3504 H 343.816 0.0277606 -0.746484 0
M  V30 3505 H 346.478 -0.636773 -1.84204 0
M  V30 3506 H 345.574 0.209484 -3.11396 0
M  V30 3507 N 345.875 1.56104 -0.216619 0
M  V30 3508 C 347.123 1.97781 0.415593 0
M  V30 3509 C 347.444 1.10536 1.60645 0
M  V30 3510 O 346.714 0.181303 1.95059 0
M  V30 3511 H 345.294 0.730415 0.156534 0
M  V30 3512 H 347.956 1.92445 -0.308366 0
M  V30 3513 H 347.052 3.03072 0.74525 0
M  V30 3514 N 347.353 -0.0568162 1.57498 0
M  V30 3515 C 348.581 -0.765626 1.92213 0
M  V30 3516 C 348.996 -1.70353 0.813961 0
M  V30 3517 O 348.353 -1.81268 -0.211701 0
M  V30 3518 C 348.404 -1.5465 3.2675 0
M  V30 3519 O 348.125 -0.646278 4.33307 0
M  V30 3520 C 349.626 -2.35497 3.75574 0
M  V30 3521 H 346.846 -0.216835 0.634999 0
M  V30 3522 H 349.39 -0.0226146 2.04487 0
M  V30 3523 H 347.545 -2.24165 3.15957 0
M  V30 3524 H 347.959 -1.19093 5.108 0
M  V30 3525 H 349.433 -2.85722 4.72299 0
M  V30 3526 H 349.91 -3.15692 3.05344 0
M  V30 3527 H 350.516 -1.7111 3.8936 0
M  V30 3528 N 348.832 -1.54138 -0.328536 0
M  V30 3529 C 350.08 -1.71765 -1.06496 0
M  V30 3530 C 350.401 -0.49149 -1.88704 0
M  V30 3531 O 349.671 0.494539 -1.89555 0
M  V30 3532 H 348.251 -0.633295 -0.396164 0
M  V30 3533 H 350.913 -1.91429 -0.366176 0
M  V30 3534 H 350.009 -2.5951 -1.73381 0
M  V30 3535 N 350.31 0.590341 -1.46126 0
M  V30 3536 C 351.535 1.37991 -1.54833 0
M  V30 3537 C 351.96 1.87163 -0.187506 0
M  V30 3538 O 351.318 1.61133 0.831008 0
M  V30 3539 C 351.366 2.54867 -2.55098 0
M  V30 3540 O 350.47 3.56061 -2.08073 0
M  V30 3541 H 349.811 0.411265 -0.521303 0
M  V30 3542 H 352.341 0.716819 -1.91632 0
M  V30 3543 H 352.351 3.01886 -2.74461 0
M  V30 3544 H 351.026 2.18429 -3.53923 0
M  V30 3545 H 349.603 3.15574 -1.98664 0
M  V30 3546 N 351.788 1.33704 0.83433 0
M  V30 3547 C 352.751 1.24244 1.92603 0
M  V30 3548 C 353.751 0.160383 1.59998 0
M  V30 3549 O 354.941 0.412228 1.69252 0
M  V30 3550 C 352.073 0.91555 3.28376 0
M  V30 3551 H 353.266 2.21287 2.02416 0
M  V30 3552 H 350.819 1.17827 1.02696 0
M  V30 3553 H 351.554 -0.0521886 3.24258 0
M  V30 3554 H 351.339 1.69811 3.53422 0
M  V30 3555 H 352.829 0.874231 4.08347 0
M  V30 3556 N 353.266 -1.05314 1.17247 0
M  V30 3557 C 354.514 -1.77941 0.958194 0
M  V30 3558 C 354.835 -1.88089 -0.514556 0
M  V30 3559 O 354.105 -1.39676 -1.37359 0
M  V30 3560 H 352.685 -0.659116 0.351533 0
M  V30 3561 H 355.347 -1.27166 1.47699 0
M  V30 3562 H 354.443 -2.79663 1.38546 0
M  V30 3563 N 354.744 -0.972509 -1.24016 0
M  V30 3564 C 355.992 -0.635776 -1.91839 0
M  V30 3565 C 356.313 0.832312 -1.76345 0
M  V30 3566 O 355.583 1.5946 -1.13795 0
M  V30 3567 H 354.163 -0.232157 -0.710009 0
M  V30 3568 H 356.825 -1.23462 -1.50809 0
M  V30 3569 H 355.921 -0.880545 -2.99421 0
M  V30 3570 N 356.222 1.38976 -0.743202 0
M  V30 3571 C 357.47 1.99948 -0.29417 0
M  V30 3572 C 357.791 1.59279 1.12495 0
M  V30 3573 O 357.061 0.844808 1.76748 0
M  V30 3574 H 355.641 0.739473 -0.105774 0
M  V30 3575 H 358.303 1.699 -0.954986 0
M  V30 3576 H 357.399 3.10142 -0.349056 0
M  V30 3577 N 357.7 0.491464 1.49741 0
M  V30 3578 C 358.948 -0.0563141 2.02022 0
M  V30 3579 C 359.269 -1.38363 1.37407 0
M  V30 3580 O 358.539 -1.88702 0.526166 0
M  V30 3581 H 357.119 -0.0238014 0.746621 0
M  V30 3582 H 359.781 0.646533 1.83864 0
M  V30 3583 H 358.877 -0.192967 3.11503 0
M  V30 3584 N 359.178 -1.55987 0.224894 0
M  V30 3585 C 360.455 -1.90232 -0.455083 0
M  V30 3586 C 360.835 -1.14269 -1.77499 0
M  V30 3587 O 360.183 -0.253079 -2.27094 0
M  V30 3588 C 360.393 -3.42993 -0.644758 0
M  V30 3589 C 361.741 -4.13821 -0.950669 0
M  V30 3590 O 362.765 -3.4861 -0.731423 0
M  V30 3591 O 361.624 -5.29128 -1.36695 0
M  V30 3592 H 358.718 -0.79108 -0.241084 0
M  V30 3593 H 361.264 -1.67581 0.267327 0
M  V30 3594 H 360.036 -3.90252 0.28613 0
M  V30 3595 H 359.659 -3.71434 -1.41853 0
M  V30 3596 N 360.656 0.0484629 -1.57525 0
M  V30 3597 C 361.619 1.03956 -2.04269 0
M  V30 3598 C 362.619 1.30211 -0.943496 0
M  V30 3599 O 363.809 1.25539 -1.20771 0
M  V30 3600 C 360.941 2.37742 -2.44319 0
M  V30 3601 H 362.134 0.636182 -2.93075 0
M  V30 3602 H 359.687 0.294811 -1.53494 0
M  V30 3603 H 360.422 2.82866 -1.5861 0
M  V30 3604 H 360.207 2.20021 -3.24551 0
M  V30 3605 H 361.697 3.08936 -2.80978 0
M  V30 3606 N 362.134 1.5431 0.320358 0
M  V30 3607 C 363.082 1.84647 1.4145 0
M  V30 3608 C 364.076 0.718624 1.53402 0
M  V30 3609 O 365.282 0.902335 1.5575 0
M  V30 3610 H 361.657 0.585349 0.472091 0
M  V30 3611 H 363.628 2.7614 1.13089 0
M  V30 3612 C 362.377 2.09341 2.77617 0
M  V30 3613 H 361.7 2.9559 2.69196 0
M  V30 3614 H 363.14 2.3452 3.53237 0
M  V30 3615 C 361.599 0.885939 3.25043 0
M  V30 3616 O 362.129 0.0967891 4.01583 0
M  V30 3617 N 360.335 0.696682 2.82125 0
M  V30 3618 H 359.882 1.34006 2.2 0
M  V30 3619 H 359.84 -0.109712 3.14209 0
M  V30 3620 N 363.613 -0.582584 1.46437 0
M  V30 3621 C 364.861 -1.33814 1.51453 0
M  V30 3622 C 365.182 -1.94277 0.167792 0
M  V30 3623 O 364.452 -1.78566 -0.805677 0
M  V30 3624 H 363.032 -0.496838 0.557818 0
M  V30 3625 H 365.694 -0.682281 1.82568 0
M  V30 3626 H 364.79 -2.14479 2.26728 0
M  V30 3627 N 365.091 -1.34144 -0.827227 0
M  V30 3628 C 366.339 -1.26009 -1.58007 0
M  V30 3629 C 366.66 0.170971 -1.94249 0
M  V30 3630 O 365.93 1.10256 -1.61927 0
M  V30 3631 H 364.51 -0.463414 -0.585881 0
M  V30 3632 H 367.172 -1.68005 -0.987951 0
M  V30 3633 H 366.268 -1.86187 -2.50481 0
M  V30 3634 N 366.569 1.04691 -1.17803 0
M  V30 3635 C 367.499 2.14494 -0.92275 0
M  V30 3636 C 368.48 1.69546 0.137179 0
M  V30 3637 O 369.665 1.94195 -0.0141108 0
M  V30 3638 C 366.795 3.44491 -0.440803 0
M  V30 3639 C 365.749 4.03031 -1.4405 0
M  V30 3640 C 365.075 5.28432 -0.81631 0
M  V30 3641 C 366.375 4.39932 -2.81527 0
M  V30 3642 H 368.069 2.36107 -1.84103 0
M  V30 3643 H 365.615 1.1347 -0.886599 0
M  V30 3644 H 367.568 4.2066 -0.249602 0
M  V30 3645 H 366.292 3.22546 0.513025 0
M  V30 3646 H 364.951 3.28937 -1.61853 0
M  V30 3647 H 364.599 5.02792 0.144511 0
M  V30 3648 H 364.299 5.68559 -1.48371 0
M  V30 3649 H 365.823 6.07284 -0.635496 0
M  V30 3650 H 367.237 5.07113 -2.67412 0
M  V30 3651 H 365.634 4.9109 -3.44892 0
M  V30 3652 H 366.704 3.50045 -3.35554 0
M  V30 3653 N 368.047 0.979072 1.23499 0
M  V30 3654 C 369.463 0.687475 1.44034 0
M  V30 3655 C 369.663 -0.746801 1.8715 0
M  V30 3656 O 368.719 -1.51939 2.0167 0
M  V30 3657 C 370.032 1.68127 2.49307 0
M  V30 3658 C 371.58 1.69516 2.63122 0
M  V30 3659 C 372.055 2.67723 3.71603 0
M  V30 3660 N 373.546 2.66233 3.79044 0
M  V30 3661 C 374.281 3.38891 4.62537 0
M  V30 3662 N 373.777 4.21103 5.50131 0
M  V30 3663 N 375.57 3.27661 4.56721 0
M  V30 3664 H 367.721 1.90559 0.938135 0
M  V30 3665 H 369.984 0.821051 0.473897 0
M  V30 3666 H 369.69 2.70693 2.2454 0
M  V30 3667 H 369.564 1.46306 3.4767 0
M  V30 3668 H 371.951 0.676561 2.8724 0
M  V30 3669 H 372.032 1.95404 1.65079 0
M  V30 3670 H 371.676 3.69724 3.48233 0
M  V30 3671 H 371.606 2.39111 4.69184 0
M  V30 3672 H 374.097 2.06568 3.16446 0
M  V30 3673 H 374.41 4.73403 6.10827 0
M  V30 3674 H 372.755 4.25195 5.49759 0
M  V30 3675 H 375.946 2.62887 3.87309 0
M  V30 3676 H 376.119 3.84547 5.21562 0
M  V30 3677 N 369.525 -1.3858 0.750561 0
M  V30 3678 C 370.473 -2.32339 0.110162 0
M  V30 3679 C 371.467 -1.53864 -0.708674 0
M  V30 3680 O 372.673 -1.69417 -0.608112 0
M  V30 3681 H 369.048 -0.751812 0.0168275 0
M  V30 3682 H 371.019 -2.83959 0.917053 0
M  V30 3683 C 369.768 -3.39043 -0.771067 0
M  V30 3684 H 369.091 -3.99517 -0.150374 0
M  V30 3685 H 370.531 -4.07061 -1.1865 0
M  V30 3686 C 368.99 -2.77365 -1.91234 0
M  V30 3687 O 369.52 -2.66434 -3.00626 0
M  V30 3688 N 367.726 -2.35219 -1.70646 0
M  V30 3689 H 367.273 -2.4431 -0.81673 0
M  V30 3690 H 367.231 -1.94294 -2.47178 0
M  V30 3691 N 371.003 -0.499398 -1.49478 0
M  V30 3692 C 372.233 0.0424839 -2.06556 0
M  V30 3693 C 372.641 1.31514 -1.36018 0
M  V30 3694 O 371.984 1.78555 -0.431718 0
M  V30 3695 C 372.046 0.368074 -3.57611 0
M  V30 3696 C 371.71 -0.806631 -4.49825 0
M  V30 3697 C 372.707 -1.69667 -4.91436 0
M  V30 3698 C 370.392 -1.00498 -4.92144 0
M  V30 3699 C 372.386 -2.76923 -5.74101 0
M  V30 3700 C 370.073 -2.08072 -5.74586 0
M  V30 3701 C 371.071 -2.96119 -6.15469 0
M  V30 3702 O 370.759 -4.01836 -6.96264 0
M  V30 3703 H 370.491 -0.0165165 -0.675798 0
M  V30 3704 H 373.045 -0.695497 -1.93267 0
M  V30 3705 H 371.275 1.15963 -3.68903 0
M  V30 3706 H 372.964 0.848381 -3.96935 0
M  V30 3707 H 373.73 -1.55524 -4.59388 0
M  V30 3708 H 369.609 -0.329036 -4.59824 0
M  V30 3709 H 373.153 -3.45676 -6.05932 0
M  V30 3710 H 369.05 -2.22211 -6.06047 0
M  V30 3711 H 369.818 -3.9917 -7.14567 0
M  V30 3712 N 372.481 1.55866 -0.233164 0
M  V30 3713 C 373.729 1.9821 0.394593 0
M  V30 3714 C 374.05 1.12234 1.59463 0
M  V30 3715 O 373.32 0.201981 1.94856 0
M  V30 3716 H 371.9 0.732034 0.148778 0
M  V30 3717 H 374.562 1.92107 -0.32876 0
M  V30 3718 H 373.658 3.03845 0.713063 0
M  V30 3719 N 373.959 -0.0401083 1.57549 0
M  V30 3720 C 375.189 -0.744115 1.92734 0
M  V30 3721 C 375.597 -1.70005 0.830348 0
M  V30 3722 O 374.94 -1.82576 -0.20286 0
M  V30 3723 C 375.002 -1.56516 3.2364 0
M  V30 3724 C 374.666 -0.7752 4.50377 0
M  V30 3725 C 375.663 -0.0803326 5.19838 0
M  V30 3726 C 373.348 -0.733002 4.96923 0
M  V30 3727 C 375.342 0.646154 6.34116 0
M  V30 3728 C 373.029 -0.00276321 6.111 0
M  V30 3729 C 374.027 0.685585 6.7955 0
M  V30 3730 O 373.715 1.40399 7.91545 0
M  V30 3731 H 373.447 -0.214861 0.640945 0
M  V30 3732 H 376.001 -0.00503675 2.05399 0
M  V30 3733 H 374.231 -2.3478 3.07271 0
M  V30 3734 H 375.92 -2.15076 3.44234 0
M  V30 3735 H 376.686 -0.104035 4.84888 0
M  V30 3736 H 372.565 -1.25827 4.43496 0
M  V30 3737 H 376.109 1.18398 6.87479 0
M  V30 3738 H 372.006 0.0229012 6.45496 0
M  V30 3739 H 372.774 1.31653 8.07843 0
M  V30 3740 N 375.437 -1.54477 -0.31217 0
M  V30 3741 C 376.853 -1.45442 -0.657185 0
M  V30 3742 C 377.053 -0.63653 -1.91182 0
M  V30 3743 O 376.109 -0.139815 -2.52113 0
M  V30 3744 C 377.422 -2.89287 -0.82058 0
M  V30 3745 C 378.97 -2.9926 -0.917188 0
M  V30 3746 C 379.445 -4.44279 -1.11267 0
M  V30 3747 N 380.936 -4.4794 -1.17914 0
M  V30 3748 C 381.671 -5.57318 -1.34848 0
M  V30 3749 N 381.167 -6.76642 -1.48752 0
M  V30 3750 N 382.96 -5.44986 -1.37647 0
M  V30 3751 H 375.111 -2.06129 0.512313 0
M  V30 3752 H 377.374 -0.933088 0.167485 0
M  V30 3753 H 377.08 -3.51687 0.0302604 0
M  V30 3754 H 376.954 -3.36061 -1.71298 0
M  V30 3755 H 379.341 -2.36981 -1.75852 0
M  V30 3756 H 379.422 -2.558 -0.00101257 0
M  V30 3757 H 379.066 -5.07149 -0.27614 0
M  V30 3758 H 378.996 -4.85359 -2.04289 0
M  V30 3759 H 381.487 -3.61969 -1.08567 0
M  V30 3760 H 381.8 -7.55758 -1.61397 0
M  V30 3761 H 380.145 -6.79529 -1.45828 0
M  V30 3762 H 383.336 -4.50715 -1.26388 0
M  V30 3763 H 383.509 -6.3028 -1.50501 0
M  V30 3764 N 376.915 0.57481 -1.46744 0
M  V30 3765 C 377.865 1.67838 -1.54319 0
M  V30 3766 C 378.849 1.55759 -0.40346 0
M  V30 3767 O 380.041 1.6454 -0.652347 0
M  V30 3768 C 377.17 3.06624 -1.5439 0
M  V30 3769 C 376.256 3.23971 -2.73685 0
M  V30 3770 N 376.647 3.11447 -3.9854 0
M  V30 3771 C 374.945 3.5493 -2.70075 0
M  V30 3772 C 375.646 3.31011 -4.78337 0
M  V30 3773 N 374.622 3.56533 -4.10348 0
M  V30 3774 H 378.424 1.56698 -2.48642 0
M  V30 3775 H 375.938 0.779071 -1.42493 0
M  V30 3776 H 377.935 3.85839 -1.57905 0
M  V30 3777 H 376.595 3.1889 -0.611493 0
M  V30 3778 H 377.606 2.89145 -4.29669 0
M  V30 3779 H 374.283 3.73832 -1.85893 0
M  V30 3780 H 375.673 3.26445 -5.87268 0
M  V30 3781 N 378.394 1.34581 0.820102 0
M  V30 3782 C 379.342 1.26401 1.95258 0
M  V30 3783 C 380.336 0.161553 1.68628 0
M  V30 3784 O 381.542 0.326703 1.7701 0
M  V30 3785 H 377.917 0.392749 0.64129 0
M  V30 3786 H 379.888 2.22105 1.99279 0
M  V30 3787 C 378.637 1.03919 3.31807 0
M  V30 3788 H 377.96 1.87984 3.52848 0
M  V30 3789 H 379.4 1.02232 4.11491 0
M  V30 3790 C 377.859 -0.257433 3.35915 0
M  V30 3791 O 378.389 -1.25784 3.81499 0
M  V30 3792 N 376.595 -0.291524 2.89134 0
M  V30 3793 H 376.142 0.523161 2.52232 0
M  V30 3794 H 376.1 -1.15883 2.92264 0
M  V30 3795 N 379.872 -1.04064 1.18357 0
M  V30 3796 C 380.835 -2.10243 0.912707 0
M  V30 3797 C 381.835 -1.60477 -0.101928 0
M  V30 3798 O 383.025 -1.73703 0.131517 0
M  V30 3799 C 380.157 -3.38893 0.369387 0
M  V30 3800 H 381.35 -2.35706 1.85426 0
M  V30 3801 H 378.903 -1.20489 0.995594 0
M  V30 3802 H 379.638 -3.19094 -0.578776 0
M  V30 3803 H 379.423 -3.76331 1.1008 0
M  V30 3804 H 380.913 -4.17128 0.198575 0
M  V30 3805 N 381.35 -0.985608 -1.22978 0
M  V30 3806 C 382.26 -0.538548 -2.28335 0
M  V30 3807 C 383.276 0.409163 -1.69121 0
M  V30 3808 O 384.452 0.277797 -1.99475 0
M  V30 3809 C 381.517 0.146867 -3.46389 0
M  V30 3810 C 380.578 -0.842896 -4.20944 0
M  V30 3811 C 379.811 -0.190095 -5.33361 0
M  V30 3812 O 380.034 1.01767 -5.61248 0
M  V30 3813 O 378.968 -0.891289 -5.95264 0
M  V30 3814 H 382.794 -1.41487 -2.68729 0
M  V30 3815 H 380.379 -0.753495 -1.29007 0
M  V30 3816 H 382.261 0.531125 -4.1804 0
M  V30 3817 H 380.936 0.997871 -3.07935 0
M  V30 3818 H 379.843 -1.27795 -3.51595 0
M  V30 3819 H 381.176 -1.66287 -4.6326 0
M  V30 3820 N 382.828 1.3818 -0.7579 0
M  V30 3821 C 383.738 2.3421 -0.135247 0
M  V30 3822 C 384.754 1.59487 0.695683 0
M  V30 3823 O 385.93 1.91657 0.618832 0
M  V30 3824 C 382.995 3.3862 0.744139 0
M  V30 3825 C 382.056 4.2918 -0.101658 0
M  V30 3826 C 381.289 5.28603 0.735851 0
M  V30 3827 O 381.512 5.35166 1.97366 0
M  V30 3828 O 380.446 6.01707 0.152372 0
M  V30 3829 H 384.272 2.8916 -0.928436 0
M  V30 3830 H 381.857 1.40101 -0.518855 0
M  V30 3831 H 383.739 4.02539 1.2466 0
M  V30 3832 H 382.414 2.86019 1.51575 0
M  V30 3833 H 381.321 3.68407 -0.650167 0
M  V30 3834 H 382.654 4.85048 -0.836024 0
M  V30 3835 N 384.306 0.507319 1.49211 0
M  V30 3836 C 385.722 0.163682 1.58758 0
M  V30 3837 C 385.922 -1.33208 1.51188 0
M  V30 3838 O 384.978 -2.10855 1.38911 0
M  V30 3839 C 386.291 0.746095 2.91297 0
M  V30 3840 C 387.839 0.712773 3.04776 0
M  V30 3841 C 388.314 1.27336 4.39943 0
M  V30 3842 N 389.805 1.23433 4.46451 0
M  V30 3843 C 390.54 1.63821 5.495 0
M  V30 3844 N 390.036 2.11832 6.5962 0
M  V30 3845 N 391.829 1.55198 5.4025 0
M  V30 3846 H 383.98 1.47972 1.52375 0
M  V30 3847 H 386.243 0.614147 0.722168 0
M  V30 3848 H 385.949 1.79534 3.02424 0
M  V30 3849 H 385.823 0.210137 3.76614 0
M  V30 3850 H 388.21 -0.327656 2.93275 0
M  V30 3851 H 388.291 1.28595 2.21127 0
M  V30 3852 H 387.935 2.3126 4.52196 0
M  V30 3853 H 387.865 0.676066 5.22242 0
M  V30 3854 H 390.356 0.882627 3.67448 0
M  V30 3855 H 390.669 2.40703 7.34358 0
M  V30 3856 H 389.014 2.1581 6.60644 0
M  V30 3857 H 392.205 1.17505 4.53112 0
M  V30 3858 H 392.378 1.86997 6.20432 0
M  V30 3859 N 385.784 -1.5574 0.241426 0
M  V30 3860 C 387.014 -2.02913 -0.38857 0
M  V30 3861 C 387.422 -1.12014 -1.52478 0
M  V30 3862 O 386.765 -0.125903 -1.83268 0
M  V30 3863 C 386.827 -3.4636 -0.963075 0
M  V30 3864 C 386.491 -4.56982 0.0401916 0
M  V30 3865 C 387.488 -5.12941 0.847766 0
M  V30 3866 C 385.173 -5.0203 0.164699 0
M  V30 3867 C 387.167 -6.12437 1.76636 0
M  V30 3868 C 384.854 -6.01358 1.0868 0
M  V30 3869 C 385.852 -6.5644 1.88616 0
M  V30 3870 O 385.54 -7.53831 2.79273 0
M  V30 3871 H 385.272 -0.668983 -0.0971452 0
M  V30 3872 H 387.826 -2.02198 0.361248 0
M  V30 3873 H 386.056 -3.44206 -1.76235 0
M  V30 3874 H 387.745 -3.77065 -1.50257 0
M  V30 3875 H 388.511 -4.78974 0.762133 0
M  V30 3876 H 384.39 -4.58824 -0.447411 0
M  V30 3877 H 387.934 -6.55355 2.39071 0
M  V30 3878 H 383.831 -6.34746 1.17338 0
M  V30 3879 H 384.599 -7.71428 2.73572 0
M  V30 3880 N 387.262 0.0317525 -1.57568 0
M  V30 3881 C 388.539 0.758366 -1.803 0
M  V30 3882 C 388.919 1.93718 -0.838845 0
M  V30 3883 O 388.267 2.28187 0.119571 0
M  V30 3884 C 388.477 1.19392 -3.27943 0
M  V30 3885 C 389.825 1.61094 -3.92854 0
M  V30 3886 O 390.849 1.28857 -3.32076 0
M  V30 3887 O 389.708 2.20918 -4.99858 0
M  V30 3888 H 386.802 0.366514 -0.741348 0
M  V30 3889 H 389.348 0.00873765 -1.69698 0
M  V30 3890 H 388.12 0.352275 -3.89711 0
M  V30 3891 H 387.743 2.00365 -3.43424 0
M  V30 3892 N 388.74 1.54641 0.303973 0
M  V30 3893 C 389.703 1.84646 1.35789 0
M  V30 3894 C 390.703 0.7192 1.4382 0
M  V30 3895 O 391.893 0.987491 1.43507 0
M  V30 3896 C 389.025 2.02407 2.74307 0
M  V30 3897 H 390.218 2.78829 1.10429 0
M  V30 3898 H 387.771 1.46658 0.540487 0
M  V30 3899 H 388.506 1.10502 3.04893 0
M  V30 3900 H 388.291 2.84453 2.69868 0
M  V30 3901 H 389.781 2.27002 3.50514 0
M  V30 3902 N 390.218 -0.567019 1.47046 0
M  V30 3903 C 391.465 -1.32462 1.53167 0
M  V30 3904 C 391.793 -1.93571 0.189841 0
M  V30 3905 O 391.048 -1.77865 -0.816243 0
M  V30 3906 C 391.347 -2.4623 2.59047 0
M  V30 3907 C 391.013 -2.03014 4.02612 0
M  V30 3908 C 389.675 -1.90944 4.41694 0
M  V30 3909 C 392.027 -1.69895 4.92732 0
M  V30 3910 C 389.355 -1.44035 5.68745 0
M  V30 3911 C 391.707 -1.2446 6.20236 0
M  V30 3912 C 390.371 -1.10979 6.5821 0
M  V30 3913 H 389.641 -0.484713 0.560477 0
M  V30 3914 H 392.288 -0.636888 1.80599 0
M  V30 3915 H 390.593 -3.20517 2.25335 0
M  V30 3916 H 392.29 -3.04427 2.61008 0
M  V30 3917 H 388.88 -2.13348 3.71726 0
M  V30 3918 H 393.064 -1.78098 4.63244 0
M  V30 3919 H 388.32 -1.32254 5.96925 0
M  V30 3920 H 392.494 -0.978924 6.89485 0
M  V30 3921 H 390.121 -0.744078 7.5655 0
M  V30 3922 N 391.696 -1.35014 -0.812953 0
M  V30 3923 C 392.936 -1.29289 -1.58315 0
M  V30 3924 C 393.3 0.132727 -1.91541 0
M  V30 3925 O 394.501 0.314269 -2.66957 0
M  V30 3926 C 392.772 -2.1681 -2.84127 0
M  V30 3927 S 394.331 -2.28538 -3.74588 0
M  V30 3928 H 391.149 -0.459569 -0.542511 0
M  V30 3929 H 393.751 -1.70336 -0.959467 0
M  V30 3930 H 392.455 -3.19379 -2.57731 0
M  V30 3931 H 391.986 -1.76697 -3.51485 0
M  V30 3932 H 394.001 -1.4655 -4.74065 0
M  V30 3933 N 393.175 1.03435 -1.18907 0
M  V30 3934 C 394.422 1.76743 -0.988334 0
M  V30 3935 C 394.75 1.88447 0.481441 0
M  V30 3936 O 394.005 1.39383 1.37371 0
M  V30 3937 C 394.304 3.19792 -1.59586 0
M  V30 3938 C 393.97 3.28108 -3.09283 0
M  V30 3939 C 392.632 3.30084 -3.5014 0
M  V30 3940 C 394.984 3.27696 -4.05296 0
M  V30 3941 C 392.312 3.29299 -4.85571 0
M  V30 3942 C 394.664 3.28451 -5.4065 0
M  V30 3943 C 393.328 3.28723 -5.80946 0
M  V30 3944 H 392.598 0.64675 -0.361657 0
M  V30 3945 H 395.245 1.21442 -1.48068 0
M  V30 3946 H 393.55 3.78136 -1.02568 0
M  V30 3947 H 395.247 3.75171 -1.41589 0
M  V30 3948 H 391.837 3.27294 -2.76725 0
M  V30 3949 H 396.021 3.25354 -3.74778 0
M  V30 3950 H 391.277 3.2783 -5.16079 0
M  V30 3951 H 395.451 3.27082 -6.14809 0
M  V30 3952 H 393.078 3.27868 -6.85862 0
M  V30 3953 N 394.653 0.992116 1.22453 0
M  V30 3954 C 395.881 0.685944 1.95198 0
M  V30 3955 C 396.296 -0.749233 1.73297 0
M  V30 3956 O 395.653 -1.50549 1.03156 0
M  V30 3957 C 395.704 0.981395 3.47924 0
M  V30 3958 O 395.425 2.36018 3.6909 0
M  V30 3959 C 396.926 0.692815 4.37853 0
M  V30 3960 H 394.146 0.253821 0.621141 0
M  V30 3961 H 396.69 1.32668 1.55626 0
M  V30 3962 H 394.845 0.386481 3.85467 0
M  V30 3963 H 395.259 2.45884 4.63294 0
M  V30 3964 H 396.733 0.949818 5.43767 0
M  V30 3965 H 397.21 -0.373181 4.37612 0
M  V30 3966 H 397.816 1.26874 4.05935 0
M  V30 3967 N 396.131 -1.37776 0.765217 0
M  V30 3968 C 397.356 -2.04651 0.336537 0
M  V30 3969 C 397.781 -1.57337 -1.03086 0
M  V30 3970 O 397.139 -0.730621 -1.65927 0
M  V30 3971 C 397.187 -3.58577 0.381468 0
M  V30 3972 O 396.291 -4.07706 -0.62042 0
M  V30 3973 H 395.632 -0.64756 0.146838 0
M  V30 3974 H 398.162 -1.76221 1.03959 0
M  V30 3975 H 398.172 -4.07314 0.236448 0
M  V30 3976 H 396.847 -3.9237 1.37907 0
M  V30 3977 H 395.424 -3.70306 -0.439056 0
M  V30 3978 N 397.609 -0.515225 -1.4894 0
M  V30 3979 C 398.557 0.269115 -2.31038 0
M  V30 3980 C 399.551 0.949443 -1.40292 0
M  V30 3981 O 400.757 0.87551 -1.57273 0
M  V30 3982 H 397.132 0.10565 -0.744542 0
M  V30 3983 H 399.103 -0.443096 -2.95092 0
M  V30 3984 C 397.852 1.31213 -3.21991 0
M  V30 3985 H 397.175 0.798034 -3.91754 0
M  V30 3986 H 398.615 1.83263 -3.82349 0
M  V30 3987 C 397.074 2.33791 -2.42576 0
M  V30 3988 O 397.604 3.3995 -2.14003 0
M  V30 3989 N 395.81 2.06625 -2.0434 0
M  V30 3990 H 395.357 1.20314 -2.27777 0
M  V30 3991 H 395.315 2.75483 -1.51514 0
M  V30 3992 N 399.087 1.5561 -0.249682 0
M  V30 3993 C 400.017 2.24477 0.642826 0
M  V30 3994 C 400.998 1.22601 1.17911 0
M  V30 3995 O 402.183 1.5126 1.21795 0
M  V30 3996 C 399.313 2.94638 1.83863 0
M  V30 3997 C 398.267 4.03227 1.435 0
M  V30 3998 C 397.593 4.60828 2.71186 0
M  V30 3999 C 398.893 5.18796 0.604002 0
M  V30 4000 H 400.587 2.99321 0.0685625 0
M  V30 4001 H 398.133 1.43965 0.0315363 0
M  V30 4002 H 400.086 3.41517 2.46868 0
M  V30 4003 H 398.81 2.17287 2.43832 0
M  V30 4004 H 397.469 3.57121 0.828275 0
M  V30 4005 H 397.117 3.80174 3.29358 0
M  V30 4006 H 396.817 5.34132 2.44901 0
M  V30 4007 H 398.341 5.10442 3.35084 0
M  V30 4008 H 399.755 5.61883 1.13842 0
M  V30 4009 H 398.152 5.98506 0.437097 0
M  V30 4010 H 399.222 4.83384 -0.383147 0
M  V30 4011 N 400.565 -0.0233959 1.57583 0
M  V30 4012 C 401.976 -0.56927 1.77809 0
M  V30 4013 C 402.327 -1.75284 0.881472 0
M  V30 4014 O 401.452 -2.1626 0.0777805 0
M  V30 4015 C 402.047 -1.03949 3.22459 0
M  V30 4016 C 400.606 -1.53084 3.43864 0
M  V30 4017 C 399.753 -0.471454 2.73263 0
M  V30 4018 H 402.704 0.202825 1.57399 0
M  V30 4019 H 402.725 -1.90661 3.29285 0
M  V30 4020 H 402.237 -0.177865 3.87692 0
M  V30 4021 H 400.338 -2.41414 2.83814 0
M  V30 4022 H 400.451 -1.57443 4.52491 0
M  V30 4023 H 398.815 -0.927788 2.37201 0
M  V30 4024 H 399.598 0.380808 3.41181 0
M  V30 4025 N 402.043 -1.548 -0.295768 0
M  V30 4026 C 403.291 -1.73985 -1.02828 0
M  V30 4027 C 403.612 -0.531406 -1.87619 0
M  V30 4028 O 402.882 0.454221 -1.90561 0
M  V30 4029 H 401.462 -0.641556 -0.382642 0
M  V30 4030 H 404.124 -1.92163 -0.325489 0
M  V30 4031 H 403.22 -2.63129 -1.67838 0
M  V30 4032 N 403.521 0.559213 -1.47345 0
M  V30 4033 C 404.937 0.884943 -1.32819 0
M  V30 4034 C 405.137 1.98988 -0.317173 0
M  V30 4035 O 404.193 2.51031 0.272011 0
M  V30 4036 C 405.506 1.28007 -2.72093 0
M  V30 4037 C 407.054 1.39161 -2.80363 0
M  V30 4038 C 407.529 1.82031 -4.20272 0
M  V30 4039 N 409.02 1.89185 -4.22804 0
M  V30 4040 C 409.755 2.2368 -5.27973 0
M  V30 4041 N 409.251 2.56802 -6.43447 0
M  V30 4042 N 411.044 2.24436 -5.15349 0
M  V30 4043 H 403.195 -0.170304 -2.11716 0
M  V30 4044 H 405.458 -0.0135247 -0.947904 0
M  V30 4045 H 405.164 0.542027 -3.47498 0
M  V30 4046 H 405.038 2.23665 -3.03733 0
M  V30 4047 H 407.425 2.12048 -2.05231 0
M  V30 4048 H 407.506 0.41696 -2.52379 0
M  V30 4049 H 407.15 1.09715 -4.95908 0
M  V30 4050 H 407.08 2.80495 -4.45679 0
M  V30 4051 H 409.571 1.65982 -3.39497 0
M  V30 4052 H 409.884 2.82144 -7.19454 0
M  V30 4053 H 408.229 2.54387 -6.46771 0
M  V30 4054 H 411.42 1.97998 -4.24163 0
M  V30 4055 H 411.593 2.50989 -5.97418 0
M  V30 4056 N 404.999 1.35443 0.805782 0
M  V30 4057 C 406.245 1.28952 1.56522 0
M  V30 4058 C 406.578 -0.135597 1.93726 0
M  V30 4059 O 405.853 -1.08516 1.61414 0
M  V30 4060 C 406.136 2.19678 2.85331 0
M  V30 4061 C 405.989 3.7081 2.54598 0
M  V30 4062 C 407.308 2.09495 3.8704 0
M  V30 4063 H 404.427 0.469764 0.567883 0
M  V30 4064 H 407.069 1.65851 0.927001 0
M  V30 4065 H 405.219 1.8834 3.39795 0
M  V30 4066 H 406.891 4.12593 2.06312 0
M  V30 4067 H 405.134 3.91051 1.8778 0
M  V30 4068 H 405.805 4.29679 3.46525 0
M  V30 4069 H 408.281 2.37045 3.41978 0
M  V30 4070 H 407.157 2.75173 4.74943 0
M  V30 4071 H 407.418 1.07714 4.28777 0
M  V30 4072 N 406.477 -1.02803 1.19454 0
M  V30 4073 C 407.724 -1.76217 0.997693 0
M  V30 4074 C 408.052 -1.887 -0.47144 0
M  V30 4075 O 407.307 -1.4011 -1.3663 0
M  V30 4076 C 407.606 -3.18941 1.6128 0
M  V30 4077 C 407.272 -3.26463 3.11019 0
M  V30 4078 C 405.934 -3.28223 3.51885 0
M  V30 4079 C 408.286 -3.25542 4.07028 0
M  V30 4080 C 405.614 -3.26719 4.8731 0
M  V30 4081 C 407.966 -3.25579 5.42385 0
M  V30 4082 C 406.63 -3.25637 5.82681 0
M  V30 4083 H 405.9 -0.644823 0.365082 0
M  V30 4084 H 408.547 -1.20655 1.4871 0
M  V30 4085 H 406.852 -3.77587 1.04572 0
M  V30 4086 H 408.549 -3.74415 1.43577 0
M  V30 4087 H 405.139 -3.25822 2.78457 0
M  V30 4088 H 409.323 -3.23362 3.76498 0
M  V30 4089 H 404.579 -3.25089 5.1781 0
M  V30 4090 H 408.753 -3.23817 6.16535 0
M  V30 4091 H 406.38 -3.24226 6.87591 0
M  V30 4092 N 407.956 -0.998596 -1.21925 0
M  V30 4093 C 409.203 -0.677663 -1.90824 0
M  V30 4094 C 409.531 0.790905 -1.77693 0
M  V30 4095 O 408.786 1.58817 -1.14349 0
M  V30 4096 C 409.085 -1.03648 -3.42041 0
M  V30 4097 C 408.751 -2.49825 -3.75364 0
M  V30 4098 C 407.413 -2.8977 -3.8417 0
M  V30 4099 C 409.765 -3.44545 -3.91073 0
M  V30 4100 C 407.093 -4.23412 -4.06127 0
M  V30 4101 C 409.445 -4.77853 -4.14535 0
M  V30 4102 C 408.109 -5.17531 -4.21566 0
M  V30 4103 H 407.379 -0.247975 -0.698276 0
M  V30 4104 H 410.026 -1.25584 -1.44571 0
M  V30 4105 H 408.331 -0.376457 -3.89987 0
M  V30 4106 H 410.028 -0.766113 -3.93614 0
M  V30 4107 H 406.618 -2.17866 -3.69097 0
M  V30 4108 H 410.802 -3.14853 -3.83642 0
M  V30 4109 H 406.058 -4.53734 -4.09799 0
M  V30 4110 H 410.232 -5.51189 -4.25633 0
M  V30 4111 H 407.859 -6.21102 -4.38333 0
M  V30 4112 N 409.434 1.37368 -0.772513 0
M  V30 4113 C 410.364 2.32856 -0.173304 0
M  V30 4114 C 411.345 1.55818 0.682262 0
M  V30 4115 O 412.53 1.84052 0.619566 0
M  V30 4116 C 409.66 3.40048 0.706007 0
M  V30 4117 C 408.614 4.27973 -0.0483144 0
M  V30 4118 C 407.94 5.26184 0.950491 0
M  V30 4119 C 409.24 5.07665 -1.22776 0
M  V30 4120 H 410.934 2.83217 -0.971002 0
M  V30 4121 H 408.48 1.3617 -0.468377 0
M  V30 4122 H 410.433 4.05827 1.13501 0
M  V30 4123 H 409.157 2.88214 1.53623 0
M  V30 4124 H 407.816 3.63726 -0.458107 0
M  V30 4125 H 407.464 4.7063 1.77529 0
M  V30 4126 H 407.164 5.85872 0.450314 0
M  V30 4127 H 408.688 5.94838 1.37842 0
M  V30 4128 H 410.102 5.66578 -0.875366 0
M  V30 4129 H 408.499 5.76681 -1.66007 0
M  V30 4130 H 409.569 4.40294 -2.03149 0
M  V30 4131 N 410.912 0.523116 1.48665 0
M  V30 4132 C 411.859 -0.243398 2.29513 0
M  V30 4133 C 412.829 -0.940139 1.36933 0
M  V30 4134 O 414.014 -0.942503 1.65896 0
M  V30 4135 C 411.154 -1.28855 3.20141 0
M  V30 4136 C 410.267 -0.60135 4.27794 0
M  V30 4137 C 409.402 -1.62884 5.05611 0
M  V30 4138 C 408.441 -0.924726 6.05075 0
M  V30 4139 N 407.578 -1.89744 6.75975 0
M  V30 4140 H 412.418 0.452234 2.94549 0
M  V30 4141 H 409.955 0.234858 1.45213 0
M  V30 4142 H 411.913 -1.90674 3.71079 0
M  V30 4143 H 410.543 -1.95266 2.57043 0
M  V30 4144 H 409.595 0.130623 3.80176 0
M  V30 4145 H 410.907 -0.0481585 4.98777 0
M  V30 4146 H 410.061 -2.32149 5.60528 0
M  V30 4147 H 408.8 -2.21592 4.34452 0
M  V30 4148 H 407.805 -0.217966 5.49368 0
M  V30 4149 H 409.03 -0.343851 6.78229 0
M  V30 4150 H 406.976 -2.47373 6.07571 0
M  V30 4151 H 406.893 -1.3955 7.43009 0
M  V30 4152 H 408.161 -2.58229 7.35485 0
M  V30 4153 N 412.39 -1.55475 0.257931 0
M  V30 4154 C 413.801 -1.8511 -0.243135 0
M  V30 4155 C 414.152 -1.17986 -1.5676 0
M  V30 4156 O 413.277 -0.462102 -2.11409 0
M  V30 4157 C 413.872 -3.35826 -0.447929 0
M  V30 4158 C 412.431 -3.65647 -0.893245 0
M  V30 4159 C 411.578 -2.7729 0.0232965 0
M  V30 4160 H 414.529 -1.51261 0.480199 0
M  V30 4161 H 414.55 -3.58002 -1.28898 0
M  V30 4162 H 414.062 -3.84652 0.516196 0
M  V30 4163 H 412.163 -3.22308 -1.86945 0
M  V30 4164 H 412.276 -4.73312 -0.742469 0
M  V30 4165 H 410.64 -2.49942 -0.490021 0
M  V30 4166 H 411.423 -3.28926 0.982994 0
M  V30 4167 N 413.868 0.0150385 -1.57593 0
M  V30 4168 C 414.798 1.01047 -2.10503 0
M  V30 4169 C 415.779 1.36816 -1.01071 0
M  V30 4170 O 416.964 1.45455 -1.28672 0
M  V30 4171 C 414.094 2.30708 -2.59598 0
M  V30 4172 C 413.048 2.09142 -3.73421 0
M  V30 4173 C 412.374 3.44685 -4.08774 0
M  V30 4174 C 413.674 1.46619 -5.01298 0
M  V30 4175 H 415.368 0.569978 -2.93925 0
M  V30 4176 H 412.914 0.272724 -1.41394 0
M  V30 4177 H 414.867 3.00687 -2.95238 0
M  V30 4178 H 413.591 2.76843 -1.73279 0
M  V30 4179 H 412.25 1.41592 -3.38153 0
M  V30 4180 H 411.898 3.88495 -3.195 0
M  V30 4181 H 411.598 3.31077 -4.8545 0
M  V30 4182 H 413.122 4.16004 -4.4696 0
M  V30 4183 H 414.536 2.06535 -5.34805 0
M  V30 4184 H 412.933 1.43544 -5.82679 0
M  V30 4185 H 414.003 0.433611 -4.82957 0
M  V30 4186 N 415.346 1.54954 0.287554 0
M  V30 4187 C 416.762 1.46469 0.633964 0
M  V30 4188 C 416.962 0.666865 1.90145 0
M  V30 4189 O 416.018 0.179906 2.51858 0
M  V30 4190 C 417.331 2.90556 0.774454 0
M  V30 4191 C 418.879 3.00681 0.869462 0
M  V30 4192 C 419.354 4.45993 1.04184 0
M  V30 4193 N 420.845 4.4976 1.10772 0
M  V30 4194 C 421.58 5.59393 1.25964 0
M  V30 4195 N 421.076 6.78923 1.37968 0
M  V30 4196 N 422.869 5.47107 1.28959 0
M  V30 4197 H 415.02 2.05288 -0.545041 0
M  V30 4198 H 417.283 0.930305 -0.182308 0
M  V30 4199 H 416.989 3.51594 -0.086207 0
M  V30 4200 H 416.863 3.38743 1.6593 0
M  V30 4201 H 419.25 2.39749 1.7206 0
M  V30 4202 H 419.331 2.55769 -0.0396831 0
M  V30 4203 H 418.975 5.07524 0.195422 0
M  V30 4204 H 418.905 4.88548 1.96542 0
M  V30 4205 H 421.396 3.63651 1.02794 0
M  V30 4206 H 421.709 7.58231 1.49353 0
M  V30 4207 H 420.054 6.81763 1.34999 0
M  V30 4208 H 423.245 4.52668 1.19202 0
M  V30 4209 H 423.418 6.32595 1.40455 0
M  V30 4210 N 416.824 -0.551391 1.4764 0
M  V30 4211 C 418.235 -1.13349 1.48354 0
M  V30 4212 C 418.586 -1.94709 0.241432 0
M  V30 4213 O 417.711 -2.06306 -0.653205 0
M  V30 4214 C 418.306 -2.0623 2.68802 0
M  V30 4215 C 416.865 -2.597 2.72457 0
M  V30 4216 C 416.012 -1.36201 2.41546 0
M  V30 4217 H 418.963 -0.337698 1.55065 0
M  V30 4218 H 418.984 -2.90196 2.46103 0
M  V30 4219 H 418.496 -1.46987 3.59188 0
M  V30 4220 H 416.597 -3.22724 1.86225 0
M  V30 4221 H 416.71 -3.00296 3.73308 0
M  V30 4222 H 415.074 -1.67068 1.9225 0
M  V30 4223 H 415.857 -0.787425 3.34147 0
M  V30 4224 N 418.302 -1.35869 -0.798587 0
M  V30 4225 C 419.548 -1.2978 -1.55836 0
M  V30 4226 C 419.881 0.125322 -1.93795 0
M  V30 4227 O 419.156 1.07658 -1.61987 0
M  V30 4228 C 419.439 -2.21188 -2.84162 0
M  V30 4229 C 419.292 -3.72155 -2.52628 0
M  V30 4230 C 420.611 -2.11545 -3.85923 0
M  V30 4231 H 417.73 -0.472769 -0.565383 0
M  V30 4232 H 420.372 -1.66341 -0.918192 0
M  V30 4233 H 418.522 -1.90139 -3.38791 0
M  V30 4234 H 420.194 -4.13682 -2.04121 0
M  V30 4235 H 418.437 -3.92042 -1.85704 0
M  V30 4236 H 419.108 -4.31511 -3.44242 0
M  V30 4237 H 421.584 -2.38855 -3.40716 0
M  V30 4238 H 420.46 -2.77688 -4.73477 0
M  V30 4239 H 420.721 -1.09987 -4.282 0
M  V30 4240 N 419.78 1.02168 -1.19998 0
M  V30 4241 C 421.191 1.57135 -1.00825 0
M  V30 4242 C 421.542 1.91276 0.436818 0
M  V30 4243 O 420.667 1.71679 1.3174 0
M  V30 4244 C 421.262 2.85514 -1.82393 0
M  V30 4245 C 419.821 3.37027 -1.67601 0
M  V30 4246 C 418.968 2.10388 -1.80644 0
M  V30 4247 H 421.919 0.846106 -1.34264 0
M  V30 4248 H 421.94 3.56711 -1.32429 0
M  V30 4249 H 421.452 2.60634 -2.87561 0
M  V30 4250 H 419.553 3.66878 -0.650485 0
M  V30 4251 H 419.666 4.09572 -2.4857 0
M  V30 4252 H 418.03 2.22601 -1.23778 0
M  V30 4253 H 418.813 1.8794 -2.87286 0
M  V30 4254 N 421.258 1.00505 1.21394 0
M  V30 4255 C 422.505 0.687774 1.90462 0
M  V30 4256 C 422.833 -0.78147 1.7811 0
M  V30 4257 O 422.088 -1.58208 1.1519 0
M  V30 4258 C 422.387 1.0546 3.41486 0
M  V30 4259 C 422.053 2.51812 3.74034 0
M  V30 4260 C 420.715 2.91804 3.82628 0
M  V30 4261 C 423.067 3.46614 3.8924 0
M  V30 4262 C 420.395 4.2556 4.03876 0
M  V30 4263 C 422.747 4.80044 4.11995 0
M  V30 4264 C 421.411 5.19759 4.18816 0
M  V30 4265 H 420.681 0.251674 0.696951 0
M  V30 4266 H 423.328 1.26349 1.43903 0
M  V30 4267 H 421.633 0.397133 3.89782 0
M  V30 4268 H 423.33 0.786976 3.93202 0
M  V30 4269 H 419.92 2.1982 3.67936 0
M  V30 4270 H 424.104 3.16883 3.81967 0
M  V30 4271 H 419.36 4.55901 4.07387 0
M  V30 4272 H 423.534 5.53439 4.22704 0
M  V30 4273 H 421.161 6.23418 4.35033 0
M  V30 4274 N 422.737 -1.36956 0.779787 0
M  V30 4275 C 423.962 -2.04283 0.358224 0
M  V30 4276 C 424.387 -1.58422 -1.01411 0
M  V30 4277 O 423.745 -0.748179 -1.65142 0
M  V30 4278 C 423.793 -3.58152 0.419479 0
M  V30 4279 O 422.897 -4.08342 -0.577142 0
M  V30 4280 H 422.238 -0.645967 0.153698 0
M  V30 4281 H 424.768 -1.75108 1.05822 0
M  V30 4282 H 424.778 -4.07041 0.279636 0
M  V30 4283 H 423.453 -3.90886 1.42061 0
M  V30 4284 H 422.03 -3.70751 -0.399755 0
M  V30 4285 N 424.215 -0.530993 -1.48385 0
M  V30 4286 C 425.463 0.00273189 -2.021 0
M  V30 4287 C 425.784 1.34672 -1.41027 0
M  V30 4288 O 425.054 1.8724 -0.576012 0
M  V30 4289 H 423.634 0.00399774 -0.746989 0
M  V30 4290 H 426.296 -0.695054 -1.82085 0
M  V30 4291 H 425.392 0.11031 -3.11905 0
M  V30 4292 N 425.693 1.55336 -0.266172 0
M  V30 4293 C 426.656 2.20878 0.612001 0
M  V30 4294 C 427.656 1.18388 1.08816 0
M  V30 4295 O 428.846 1.4335 0.989774 0
M  V30 4296 C 425.978 2.86765 1.84332 0
M  V30 4297 H 427.171 2.99873 0.0398718 0
M  V30 4298 H 424.724 1.56291 -0.0167309 0
M  V30 4299 H 425.459 2.11759 2.45619 0
M  V30 4300 H 425.244 3.61862 1.5099 0
M  V30 4301 H 426.734 3.36867 2.46801 0
M  V30 4302 N 427.171 -0.0066808 1.57599 0
M  V30 4303 C 428.134 -0.985035 2.06953 0
M  V30 4304 C 429.134 -1.27663 0.977687 0
M  V30 4305 O 430.324 -1.22293 1.24057 0
M  V30 4306 C 427.456 -2.3118 2.50536 0
M  V30 4307 H 428.649 -0.558255 2.94658 0
M  V30 4308 H 426.202 -0.254011 1.54222 0
M  V30 4309 H 426.937 -2.78561 1.66054 0
M  V30 4310 H 426.722 -2.11338 3.3027 0
M  V30 4311 H 428.212 -3.01377 2.8907 0
M  V30 4312 N 428.649 -1.55105 -0.279332 0
M  V30 4313 C 430.065 -1.46803 -0.626187 0
M  V30 4314 C 430.265 -0.676939 -1.89789 0
M  V30 4315 O 429.321 -0.19326 -2.51759 0
M  V30 4316 C 430.634 -2.90962 -0.759034 0
M  V30 4317 C 432.182 -3.01138 -0.853504 0
M  V30 4318 C 432.657 -4.46539 -1.01818 0
M  V30 4319 N 434.148 -4.50341 -1.08386 0
M  V30 4320 C 434.883 -5.60053 -1.22996 0
M  V30 4321 N 434.379 -6.79645 -1.34366 0
M  V30 4322 N 436.172 -5.47783 -1.26056 0
M  V30 4323 H 428.323 -2.04996 0.555921 0
M  V30 4324 H 430.586 -0.929325 0.187239 0
M  V30 4325 H 430.292 -3.51544 0.104852 0
M  V30 4326 H 430.166 -3.39619 -1.64131 0
M  V30 4327 H 432.553 -2.40658 -1.70786 0
M  V30 4328 H 432.634 -2.55745 0.0532466 0
M  V30 4329 H 432.278 -5.0762 -0.168504 0
M  V30 4330 H 432.208 -4.89583 -1.93948 0
M  V30 4331 H 434.699 -3.64191 -1.00864 0
M  V30 4332 H 435.012 -7.59012 -1.4533 0
M  V30 4333 H 433.357 -6.82469 -1.31382 0
M  V30 4334 H 436.548 -4.53294 -1.168 0
M  V30 4335 H 436.721 -6.33331 -1.37098 0
M  V30 4336 N 430.127 0.543554 -1.4793 0
M  V30 4337 C 431.09 1.63156 -1.60975 0
M  V30 4338 C 432.09 1.53346 -0.483899 0
M  V30 4339 O 433.28 1.5726 -0.749339 0
M  V30 4340 C 430.412 3.02743 -1.56716 0
M  V30 4341 H 431.605 1.52934 -2.57975 0
M  V30 4342 H 429.158 0.764557 -1.36324 0
M  V30 4343 H 429.893 3.18484 -0.611418 0
M  V30 4344 H 429.678 3.11272 -2.38438 0
M  V30 4345 H 431.168 3.81871 -1.6901 0
M  V30 4346 N 431.605 1.3629 0.791371 0
M  V30 4347 C 432.845 1.31792 1.56238 0
M  V30 4348 C 433.209 -0.102237 1.91728 0
M  V30 4349 O 434.41 -0.271759 2.67423 0
M  V30 4350 C 432.681 2.21303 2.80642 0
M  V30 4351 S 434.24 2.34468 3.70904 0
M  V30 4352 H 431.058 0.468141 0.535131 0
M  V30 4353 H 433.66 1.71841 0.932246 0
M  V30 4354 H 432.364 3.23439 2.52617 0
M  V30 4355 H 431.895 1.82266 3.4863 0
M  V30 4356 H 433.91 1.54074 4.71673 0
M  V30 4357 N 433.083 -1.0153 1.20538 0
M  V30 4358 C 434.046 -2.0826 0.957098 0
M  V30 4359 C 435.046 -1.60657 -0.0678655 0
M  V30 4360 O 436.236 -1.73385 0.168332 0
M  V30 4361 C 433.368 -3.38033 0.441188 0
M  V30 4362 H 434.561 -2.31719 1.90384 0
M  V30 4363 H 432.114 -1.1835 1.02093 0
M  V30 4364 H 432.849 -3.20249 -0.510961 0
M  V30 4365 H 432.634 -3.73911 1.18038 0
M  V30 4366 H 434.124 -4.16613 0.287009 0
M  V30 4367 N 434.561 -1.01147 -1.20859 0
M  V30 4368 C 435.524 -0.582224 -2.21682 0
M  V30 4369 C 436.524 0.344887 -1.57058 0
M  V30 4370 O 437.714 0.134281 -1.73682 0
M  V30 4371 C 434.846 0.150496 -3.40568 0
M  V30 4372 H 436.039 -1.47408 -2.61172 0
M  V30 4373 H 433.592 -0.800695 -1.34233 0
M  V30 4374 H 434.327 1.0575 -3.06574 0
M  V30 4375 H 434.112 -0.515444 -3.88697 0
M  V30 4376 H 435.602 0.438344 -4.15293 0
M  V30 4377 N 436.039 1.36541 -0.78704 0
M  V30 4378 C 437.455 1.52571 -0.46844 0
M  V30 4379 C 437.655 1.7415 1.01361 0
M  V30 4380 O 436.711 1.77163 1.79915 0
M  V30 4381 C 438.024 2.71299 -1.29682 0
M  V30 4382 C 439.572 2.85169 -1.29027 0
M  V30 4383 C 440.047 4.06898 -2.10233 0
M  V30 4384 N 441.538 4.1404 -2.07666 0
M  V30 4385 C 442.273 5.07301 -2.67271 0
M  V30 4386 N 441.769 6.06021 -3.35724 0
M  V30 4387 N 443.562 4.99898 -2.57018 0
M  V30 4388 H 435.713 1.20788 -1.74711 0
M  V30 4389 H 437.976 0.589364 -0.742532 0
M  V30 4390 H 437.682 2.61868 -2.34773 0
M  V30 4391 H 437.556 3.6539 -0.936479 0
M  V30 4392 H 439.943 2.94062 -0.247284 0
M  V30 4393 H 440.024 1.91992 -1.69035 0
M  V30 4394 H 439.668 3.98766 -3.1456 0
M  V30 4395 H 439.598 4.99218 -1.67597 0
M  V30 4396 H 442.089 3.43357 -1.57843 0
M  V30 4397 H 442.402 6.73741 -3.78541 0
M  V30 4398 H 440.747 6.06253 -3.39826 0
M  V30 4399 H 443.938 4.21724 -2.03142 0
M  V30 4400 H 444.111 5.72392 -3.03761 0
M  V30 4401 N 437.518 0.538854 1.48102 0
M  V30 4402 C 438.766 0.00798599 2.02098 0
M  V30 4403 C 439.087 -1.33922 1.41739 0
M  V30 4404 O 438.357 -1.86932 0.585934 0
M  V30 4405 H 436.937 -3.62179e-05 0.747 0
M  V30 4406 H 439.599 0.7047 1.81714 0
M  V30 4407 H 438.695 -0.0937672 3.11959 0
M  V30 4408 N 438.996 -1.55193 0.274407 0
M  V30 4409 C 439.959 -2.212 -0.600279 0
M  V30 4410 C 440.959 -1.18963 -1.08187 0
M  V30 4411 O 442.149 -1.43873 -0.982158 0
M  V30 4412 C 439.281 -2.87739 -1.82809 0
M  V30 4413 H 440.474 -2.9989 -0.0239682 0
M  V30 4414 H 438.027 -1.5628 0.0250192 0
M  V30 4415 H 438.762 -2.13058 -2.44493 0
M  V30 4416 H 438.547 -3.62658 -1.49069 0
M  V30 4417 H 440.037 -3.38171 -2.45011 0
M  V30 4418 N 440.474 -0.00167713 -1.576 0
M  V30 4419 C 441.437 0.974046 -2.07473 0
M  V30 4420 C 442.437 1.27143 -0.984444 0
M  V30 4421 O 443.627 1.21633 -1.24703 0
M  V30 4422 C 440.759 2.29849 -2.51759 0
M  V30 4423 H 441.952 0.54262 -2.9495 0
M  V30 4424 H 439.505 0.245829 -1.54355 0
M  V30 4425 H 440.24 2.77677 -1.67529 0
M  V30 4426 H 440.025 2.09584 -3.31386 0
M  V30 4427 H 441.515 2.9984 -2.90664 0
M  V30 4428 N 441.952 1.55251 0.271103 0
M  V30 4429 C 443.198 1.76207 1.00394 0
M  V30 4430 C 443.531 0.562604 1.85872 0
M  V30 4431 O 442.806 -0.439785 1.89463 0
M  V30 4432 C 443.089 3.06828 1.8849 0
M  V30 4433 C 442.942 4.37134 1.05992 0
M  V30 4434 C 444.261 3.33503 2.87165 0
M  V30 4435 H 441.38 0.641086 0.363562 0
M  V30 4436 H 444.022 1.87982 0.276189 0
M  V30 4437 H 442.172 2.96921 2.5054 0
M  V30 4438 H 443.844 4.59001 0.459978 0
M  V30 4439 H 442.087 4.32275 0.363443 0
M  V30 4440 H 442.758 5.2486 1.70955 0
M  V30 4441 H 445.234 3.43215 2.3525 0
M  V30 4442 H 444.11 4.2616 3.45946 0
M  V30 4443 H 444.371 2.53235 3.62387 0
M  V30 4444 N 443.43 -0.535701 1.48216 0
M  V30 4445 C 444.393 -1.623 1.61838 0
M  V30 4446 C 445.393 -1.53087 0.492024 0
M  V30 4447 O 446.583 -1.5686 0.757668 0
M  V30 4448 C 443.715 -3.01907 1.58319 0
M  V30 4449 H 444.908 -1.51564 2.58783 0
M  V30 4450 H 442.461 -0.757317 1.36727 0
M  V30 4451 H 443.196 -3.18155 0.628299 0
M  V30 4452 H 442.981 -3.10003 2.40085 0
M  V30 4453 H 444.471 -3.80969 1.71033 0
M  V30 4454 N 444.908 -1.36708 -0.784132 0
M  V30 4455 C 445.855 -1.31466 -1.89698 0
M  V30 4456 C 446.825 -0.18239 -1.65096 0
M  V30 4457 O 448.01 -0.369762 -1.87183 0
M  V30 4458 C 445.15 -1.1151 -3.26588 0
M  V30 4459 C 444.263 -2.33859 -3.63227 0
M  V30 4460 C 443.398 -2.06873 -4.89262 0
M  V30 4461 C 442.437 -3.25154 -5.18595 0
M  V30 4462 N 441.574 -2.978 -6.35814 0
M  V30 4463 H 446.414 -2.26619 -1.93515 0
M  V30 4464 H 443.951 -1.12625 -0.946256 0
M  V30 4465 H 445.909 -0.979653 -4.05535 0
M  V30 4466 H 444.539 -0.200103 -3.22179 0
M  V30 4467 H 443.591 -2.58188 -2.79362 0
M  V30 4468 H 444.903 -3.22109 -3.8085 0
M  V30 4469 H 444.057 -1.90289 -5.76086 0
M  V30 4470 H 442.796 -1.15942 -4.73718 0
M  V30 4471 H 441.801 -3.42292 -4.30251 0
M  V30 4472 H 443.026 -4.1692 -5.36055 0
M  V30 4473 H 440.972 -2.09485 -6.21653 0
M  V30 4474 H 440.889 -3.7959 -6.53794 0
M  V30 4475 H 442.157 -2.84805 -7.25607 0
M  V30 4476 N 446.386 1.0089 -1.21074 0
M  V30 4477 C 447.632 1.74866 -1.02712 0
M  V30 4478 C 447.965 1.89178 0.438787 0
M  V30 4479 O 447.24 1.42325 1.32567 0
M  V30 4480 C 447.523 3.16347 -1.72036 0
M  V30 4481 C 447.376 3.09782 -3.26121 0
M  V30 4482 C 448.695 4.15187 -1.45973 0
M  V30 4483 H 445.814 0.634736 -0.374539 0
M  V30 4484 H 448.456 1.17646 -1.49196 0
M  V30 4485 H 446.606 3.65201 -1.32517 0
M  V30 4486 H 448.278 2.68673 -3.74983 0
M  V30 4487 H 446.521 2.46982 -3.56626 0
M  V30 4488 H 447.192 4.09829 -3.6979 0
M  V30 4489 H 449.668 3.75022 -1.80272 0
M  V30 4490 H 448.544 5.12331 -1.96999 0
M  V30 4491 H 448.805 4.40386 -0.388924 0
M  V30 4492 N 447.864 1.01787 1.20321 0
M  V30 4493 C 449.112 0.706538 1.89347 0
M  V30 4494 C 449.433 -0.766289 1.79313 0
M  V30 4495 O 448.703 -1.55126 1.19635 0
M  V30 4496 H 447.283 0.258348 0.700903 0
M  V30 4497 H 449.945 1.28974 1.46122 0
M  V30 4498 H 449.041 0.991066 2.95946 0
M  V30 4499 N 449.342 -1.36122 0.79427 0
M  V30 4500 C 450.274 -2.28683 0.153903 0
M  V30 4501 C 451.287 -1.49707 -0.639669 0
M  V30 4502 O 452.476 -1.7209 -0.474054 0
M  V30 4503 C 449.576 -3.29202 -0.804921 0
M  V30 4504 C 448.749 -4.37358 -0.060366 0
M  V30 4505 C 447.808 -5.17811 -0.935849 0
M  V30 4506 O 446.834 -5.67853 -0.391309 0
M  V30 4507 N 448.036 -5.34721 -2.25951 0
M  V30 4508 H 450.801 -2.84278 0.949008 0
M  V30 4509 H 448.362 -1.4834 0.648611 0
M  V30 4510 H 450.354 -3.79914 -1.39455 0
M  V30 4511 H 448.924 -2.74212 -1.50088 0
M  V30 4512 H 448.144 -3.87746 0.710382 0
M  V30 4513 H 449.432 -5.06777 0.45324 0
M  V30 4514 H 448.83 -4.95687 -2.72601 0
M  V30 4515 H 447.387 -5.88657 -2.79867 0
M  V30 4516 N 450.82 -0.546701 -1.47814 0
M  V30 4517 C 451.75 0.195317 -2.32682 0
M  V30 4518 C 452.731 0.918981 -1.43139 0
M  V30 4519 O 453.916 0.901501 -1.72008 0
M  V30 4520 C 451.046 1.23237 -3.247 0
M  V30 4521 C 450 0.625818 -4.234 0
M  V30 4522 C 449.326 1.76674 -5.04669 0
M  V30 4523 C 450.626 -0.413515 -5.2066 0
M  V30 4524 H 452.32 -0.513184 -2.94969 0
M  V30 4525 H 449.866 -0.248241 -1.41844 0
M  V30 4526 H 451.819 1.75955 -3.82907 0
M  V30 4527 H 450.543 1.97067 -2.60446 0
M  V30 4528 H 449.202 0.120023 -3.66403 0
M  V30 4529 H 448.85 2.49383 -4.36826 0
M  V30 4530 H 448.55 1.36673 -5.71484 0
M  V30 4531 H 450.074 2.29738 -5.65732 0
M  V30 4532 H 451.488 0.0272042 -5.73294 0
M  V30 4533 H 449.885 -0.731825 -5.95621 0
M  V30 4534 H 450.955 -1.31325 -4.66778 0
M  V30 4535 N 452.299 1.55045 -0.282633 0
M  V30 4536 C 453.546 1.9976 0.33199 0
M  V30 4537 C 453.874 1.17105 1.55295 0
M  V30 4538 O 453.129 0.230599 1.94337 0
M  V30 4539 C 453.428 3.49422 0.750938 0
M  V30 4540 C 453.094 4.4941 -0.366228 0
M  V30 4541 C 451.756 4.76471 -0.672964 0
M  V30 4542 C 454.108 5.09054 -1.11864 0
M  V30 4543 C 451.436 5.60442 -1.73556 0
M  V30 4544 C 453.788 5.9418 -2.17102 0
M  V30 4545 C 452.452 6.19558 -2.48402 0
M  V30 4546 H 451.722 0.730974 0.121484 0
M  V30 4547 H 454.369 1.8732 -0.39791 0
M  V30 4548 H 452.674 3.59377 1.56063 0
M  V30 4549 H 454.371 3.81432 1.23736 0
M  V30 4550 H 450.961 4.2844 -0.117041 0
M  V30 4551 H 455.145 4.88165 -0.894925 0
M  V30 4552 H 450.401 5.78349 -1.983 0
M  V30 4553 H 454.575 6.39427 -2.75873 0
M  V30 4554 H 452.202 6.84417 -3.30874 0
M  V30 4555 N 453.777 0.010035 1.57597 0
M  V30 4556 C 454.74 -0.963029 2.07986 0
M  V30 4557 C 455.74 -1.26619 0.991173 0
M  V30 4558 O 456.93 -1.2097 1.25347 0
M  V30 4559 C 454.062 -2.2851 2.52974 0
M  V30 4560 H 455.255 -0.526971 2.95234 0
M  V30 4561 H 452.808 -0.237639 1.54483 0
M  V30 4562 H 453.543 -2.76784 1.69 0
M  V30 4563 H 453.328 -2.07824 3.32493 0
M  V30 4564 H 454.818 -2.98294 2.9225 0
M  V30 4565 N 455.255 -1.55392 -0.262866 0
M  V30 4566 C 456.218 -1.88181 -1.30846 0
M  V30 4567 C 457.218 -0.757079 -1.41862 0
M  V30 4568 O 458.408 -1.02519 -1.40838 0
M  V30 4569 C 455.54 -2.09609 -2.68844 0
M  V30 4570 H 456.733 -2.81659 -1.02997 0
M  V30 4571 H 454.286 -1.48039 -0.501414 0
M  V30 4572 H 455.021 -1.18547 -3.01856 0
M  V30 4573 H 454.806 -2.91508 -2.62231 0
M  V30 4574 H 456.296 -2.36215 -3.44372 0
M  V30 4575 N 456.733 0.527833 -1.48498 0
M  V30 4576 C 457.979 1.28295 -1.57836 0
M  V30 4577 C 458.334 1.9077 -0.249943 0
M  V30 4578 O 457.627 1.76421 0.747402 0
M  V30 4579 C 457.821 2.39275 -2.65485 0
M  V30 4580 C 457.65 1.87679 -4.08664 0
M  V30 4581 C 456.42 1.70187 -4.75778 0
M  V30 4582 C 458.618 1.40409 -4.94762 0
M  V30 4583 N 456.6 1.13238 -6.03366 0
M  V30 4584 C 457.971 0.954216 -6.12613 0
M  V30 4585 C 460.026 1.28732 -4.8097 0
M  V30 4586 C 458.729 0.39915 -7.18192 0
M  V30 4587 C 460.755 0.746244 -5.86673 0
M  V30 4588 C 460.117 0.306457 -7.03733 0
M  V30 4589 H 456.216 0.460408 -0.632099 0
M  V30 4590 H 458.8 0.594913 -1.85388 0
M  V30 4591 H 456.971 3.05572 -2.3975 0
M  V30 4592 H 458.703 3.06308 -2.64495 0
M  V30 4593 H 455.458 1.93772 -4.32145 0
M  V30 4594 H 455.882 0.867687 -6.71417 0
M  V30 4595 H 460.524 1.61338 -3.90807 0
M  V30 4596 H 458.242 0.0607678 -8.08077 0
M  V30 4597 H 461.828 0.659041 -5.78055 0
M  V30 4598 H 460.708 -0.105708 -7.84129 0
M  V30 4599 N 458.211 1.37122 0.776871 0
M  V30 4600 C 459.158 1.3247 1.88998 0
M  V30 4601 C 460.128 0.191143 1.64997 0
M  V30 4602 O 461.313 0.379683 1.86984 0
M  V30 4603 C 458.453 1.13241 3.25992 0
M  V30 4604 C 457.566 2.35782 3.61982 0
M  V30 4605 C 456.701 2.09465 4.88158 0
M  V30 4606 C 455.74 3.279 5.16864 0
M  V30 4607 N 454.877 3.01167 6.34226 0
M  V30 4608 H 459.717 2.27642 1.9231 0
M  V30 4609 H 457.254 1.13125 0.94027 0
M  V30 4610 H 459.212 1.00115 4.0501 0
M  V30 4611 H 457.842 0.217186 3.22069 0
M  V30 4612 H 456.894 2.59666 2.77989 0
M  V30 4613 H 458.206 3.24125 3.79137 0
M  V30 4614 H 457.36 1.93341 5.75069 0
M  V30 4615 H 456.099 1.18452 4.73097 0
M  V30 4616 H 455.104 3.44569 4.2843 0
M  V30 4617 H 456.329 4.19757 5.33836 0
M  V30 4618 H 454.275 2.12779 6.20533 0
M  V30 4619 H 454.192 3.83052 6.51772 0
M  V30 4620 H 455.46 2.88649 7.24087 0
M  V30 4621 N 459.689 -1.00246 1.21608 0
M  V30 4622 C 460.619 -2.10921 1.00172 0
M  V30 4623 C 461.6 -1.69938 -0.0741587 0
M  V30 4624 O 462.785 -1.94009 0.0861753 0
M  V30 4625 C 459.915 -3.42618 0.568355 0
M  V30 4626 C 458.869 -3.97407 1.58909 0
M  V30 4627 C 458.195 -5.25038 1.01187 0
M  V30 4628 C 459.495 -4.2918 2.97661 0
M  V30 4629 H 461.189 -2.29112 1.92739 0
M  V30 4630 H 458.735 -1.10101 0.928102 0
M  V30 4631 H 460.688 -4.19444 0.405555 0
M  V30 4632 H 459.412 -3.24227 -0.392961 0
M  V30 4633 H 458.071 -3.22703 1.73949 0
M  V30 4634 H 457.719 -5.02982 0.0421965 0
M  V30 4635 H 457.419 -5.62661 1.6937 0
M  V30 4636 H 458.943 -6.04507 0.860448 0
M  V30 4637 H 460.357 -4.96839 2.86049 0
M  V30 4638 H 458.754 -4.77952 3.6288 0
M  V30 4639 H 459.824 -3.3735 3.48315 0
M  V30 4640 N 461.167 -1.02423 -1.1978 0
M  V30 4641 C 462.099 -0.559152 -2.22275 0
M  V30 4642 C 463.112 0.36251 -1.58713 0
M  V30 4643 O 464.301 0.159641 -1.77785 0
M  V30 4644 C 461.401 0.205094 -3.38279 0
M  V30 4645 C 460.574 -0.720361 -4.31427 0
M  V30 4646 C 459.633 -0.00234368 -5.262 0
M  V30 4647 O 458.659 -0.627378 -5.65732 0
M  V30 4648 N 459.861 1.26996 -5.66438 0
M  V30 4649 H 462.626 -1.44064 -2.62804 0
M  V30 4650 H 460.187 -0.902692 -1.34399 0
M  V30 4651 H 462.179 0.694868 -3.9869 0
M  V30 4652 H 460.749 0.987947 -2.96578 0
M  V30 4653 H 459.969 -1.39031 -3.68869 0
M  V30 4654 H 461.257 -1.3495 -4.90577 0
M  V30 4655 H 460.655 1.79858 -5.36347 0
M  V30 4656 H 459.212 1.70432 -6.29123 0
M  V30 4657 N 462.645 1.35699 -0.801477 0
M  V30 4658 C 463.575 2.32436 -0.222658 0
M  V30 4659 C 464.556 1.5723 0.649057 0
M  V30 4660 O 465.741 1.85324 0.580387 0
M  V30 4661 C 462.871 3.41469 0.633719 0
M  V30 4662 C 461.825 4.27774 -0.139083 0
M  V30 4663 C 461.151 5.28082 0.838666 0
M  V30 4664 C 462.451 5.04946 -1.33517 0
M  V30 4665 H 464.145 2.81094 -1.03086 0
M  V30 4666 H 461.691 1.35146 -0.497155 0
M  V30 4667 H 463.644 4.08143 1.04868 0
M  V30 4668 H 462.368 2.91408 1.47475 0
M  V30 4669 H 461.027 3.62673 -0.535156 0
M  V30 4670 H 460.675 4.7429 1.67506 0
M  V30 4671 H 460.375 5.86695 0.32594 0
M  V30 4672 H 461.899 5.97628 1.25194 0
M  V30 4673 H 463.313 5.64593 -0.995349 0
M  V30 4674 H 461.71 5.7303 -1.78202 0
M  V30 4675 H 462.78 4.35886 -2.12442 0
M  V30 4676 N 464.123 0.554532 1.47522 0
M  V30 4677 C 465.053 -0.182974 2.32782 0
M  V30 4678 C 466.034 -0.911377 1.43624 0
M  V30 4679 O 467.219 -0.892366 1.72483 0
M  V30 4680 C 464.349 -1.21513 3.25349 0
M  V30 4681 C 463.303 -0.603355 4.23726 0
M  V30 4682 C 462.629 -1.73995 5.05598 0
M  V30 4683 C 463.929 0.441121 5.20434 0
M  V30 4684 H 465.623 0.52882 2.94693 0
M  V30 4685 H 463.169 0.255759 1.41711 0
M  V30 4686 H 465.122 -1.73922 3.83835 0
M  V30 4687 H 463.846 -1.95683 2.61487 0
M  V30 4688 H 462.505 -0.10059 3.66462 0
M  V30 4689 H 462.153 -2.47063 4.38143 0
M  V30 4690 H 461.853 -1.3364 5.72201 0
M  V30 4691 H 463.377 -2.26735 5.66942 0
M  V30 4692 H 464.791 0.00319931 5.733 0
M  V30 4693 H 463.188 0.763402 5.95224 0
M  V30 4694 H 464.258 1.33799 4.66075 0
M  V30 4695 N 465.601 -1.54893 0.290851 0
M  V30 4696 C 466.878 -1.91991 -0.373989 0
M  V30 4697 C 467.258 -1.21694 -1.72493 0
M  V30 4698 O 466.606 -0.34917 -2.25816 0
M  V30 4699 C 466.816 -3.45419 -0.498703 0
M  V30 4700 C 468.164 -4.1748 -0.774298 0
M  V30 4701 O 469.188 -3.51398 -0.582908 0
M  V30 4702 O 468.047 -5.3445 -1.14129 0
M  V30 4703 H 465.141 -0.800593 -0.207315 0
M  V30 4704 H 467.687 -1.66297 0.338164 0
M  V30 4705 H 466.459 -3.88688 0.451392 0
M  V30 4706 H 466.082 -3.77117 -1.25972 0
M  V30 4707 N 467.08 -0.0183926 -1.57589 0
M  V30 4708 C 468.496 0.337897 -1.55982 0
M  V30 4709 C 468.696 1.73604 -1.02294 0
M  V30 4710 O 467.752 2.43589 -0.664895 0
M  V30 4711 C 469.065 0.196305 -3.00059 0
M  V30 4712 C 470.613 0.269875 -3.11834 0
M  V30 4713 C 471.088 0.157197 -4.5773 0
M  V30 4714 N 472.579 0.214521 -4.62703 0
M  V30 4715 C 473.314 0.150955 -5.73201 0
M  V30 4716 N 472.81 0.0369212 -6.9279 0
M  V30 4717 N 474.603 0.204162 -5.61729 0
M  V30 4718 H 466.754 -0.93279 -1.90821 0
M  V30 4719 H 469.017 -0.359253 -0.877292 0
M  V30 4720 H 468.723 -0.766383 -3.43248 0
M  V30 4721 H 468.597 0.970908 -3.6449 0
M  V30 4722 H 470.984 1.22302 -2.68563 0
M  V30 4723 H 471.065 -0.534918 -2.50144 0
M  V30 4724 H 470.709 -0.792479 -5.01679 0
M  V30 4725 H 470.639 0.980717 -5.17387 0
M  V30 4726 H 473.13 0.303238 -3.76681 0
M  V30 4727 H 473.443 -0.00518321 -7.728 0
M  V30 4728 H 471.788 0.0022886 -6.95 0
M  V30 4729 H 474.979 0.291575 -4.67191 0
M  V30 4730 H 475.152 0.15116 -6.47824 0
M  V30 4731 N 468.558 1.5553 0.254621 0
M  V30 4732 C 469.798 1.7876 0.991179 0
M  V30 4733 C 470.162 0.586669 1.82817 0
M  V30 4734 O 471.363 0.697585 2.5959 0
M  V30 4735 C 469.634 3.06679 1.83529 0
M  V30 4736 S 471.193 3.511 2.632 0
M  V30 4737 H 468.011 0.627916 0.333531 0
M  V30 4738 H 470.613 1.93766 0.259778 0
M  V30 4739 H 469.317 3.92158 1.20996 0
M  V30 4740 H 468.848 2.94388 2.60958 0
M  V30 4741 H 470.863 3.11823 3.8598 0
M  V30 4742 N 470.036 -0.519951 1.48776 0
M  V30 4743 C 471.264 -1.29971 1.60982 0
M  V30 4744 C 471.679 -1.86803 0.273885 0
M  V30 4745 O 471.036 -1.66904 -0.738193 0
M  V30 4746 C 471.087 -2.44346 2.66415 0
M  V30 4747 O 470.808 -1.89855 3.94825 0
M  V30 4748 C 472.309 -3.36014 2.89153 0
M  V30 4749 H 469.529 -0.394891 0.542496 0
M  V30 4750 H 472.073 -0.626214 1.94676 0
M  V30 4751 H 470.228 -3.07562 2.35552 0
M  V30 4752 H 470.642 -2.64798 4.5275 0
M  V30 4753 H 472.116 -4.12593 3.66703 0
M  V30 4754 H 472.593 -3.91859 1.98351 0
M  V30 4755 H 473.199 -2.78582 3.21359 0
M  V30 4756 N 471.514 -1.37532 -0.769588 0
M  V30 4757 C 472.477 -1.33292 -1.86456 0
M  V30 4758 C 473.477 -0.236537 -1.59051 0
M  V30 4759 O 474.667 -0.492511 -1.67093 0
M  V30 4760 C 471.799 -1.07118 -3.23633 0
M  V30 4761 H 472.992 -2.30692 -1.91628 0
M  V30 4762 H 470.545 -1.22593 -0.969572 0
M  V30 4763 H 471.28 -0.102578 -3.24138 0
M  V30 4764 H 471.065 -1.86479 -3.44917 0
M  V30 4765 H 472.555 -1.06806 -4.03711 0
M  V30 4766 N 472.992 0.995999 -1.22138 0
M  V30 4767 C 474.24 1.73167 -1.042 0
M  V30 4768 C 474.561 1.90329 0.42423 0
M  V30 4769 O 473.831 1.4607 1.30539 0
M  V30 4770 H 472.411 0.641593 -0.38258 0
M  V30 4771 H 475.073 1.19974 -1.53598 0
M  V30 4772 H 474.169 2.72734 -1.51731 0
M  V30 4773 N 474.47 1.03057 1.19235 0
M  V30 4774 C 475.716 0.738841 1.89506 0
M  V30 4775 C 476.071 -0.724807 1.78225 0
M  V30 4776 O 475.364 -1.52118 1.16494 0
M  V30 4777 C 475.558 1.1268 3.39172 0
M  V30 4778 C 475.387 2.62662 3.65019 0
M  V30 4779 C 474.157 3.29658 3.82954 0
M  V30 4780 C 476.355 3.60873 3.66436 0
M  V30 4781 N 474.337 4.68726 3.96446 0
M  V30 4782 C 475.708 4.85566 3.8552 0
M  V30 4783 C 477.763 3.54647 3.49471 0
M  V30 4784 C 476.466 6.04783 3.89397 0
M  V30 4785 C 478.492 4.73281 3.54625 0
M  V30 4786 C 477.854 5.96789 3.74196 0
M  V30 4787 H 473.953 0.322256 0.712513 0
M  V30 4788 H 476.537 1.31822 1.43287 0
M  V30 4789 H 474.708 0.575612 3.84111 0
M  V30 4790 H 476.44 0.787145 3.96971 0
M  V30 4791 H 473.195 2.8007 3.81913 0
M  V30 4792 H 473.619 5.40971 4.07037 0
M  V30 4793 H 478.261 2.60143 3.33295 0
M  V30 4794 H 475.979 6.99654 4.04364 0
M  V30 4795 H 479.565 4.70094 3.42787 0
M  V30 4796 H 478.445 6.87051 3.78061 0
M  V30 4797 N 475.948 -1.35272 0.808662 0
M  V30 4798 C 476.878 -2.32315 0.234981 0
M  V30 4799 C 477.859 -1.57572 -0.64071 0
M  V30 4800 O 479.044 -1.8563 -0.570551 0
M  V30 4801 C 476.174 -3.41801 -0.615601 0
M  V30 4802 C 475.128 -4.27694 0.161767 0
M  V30 4803 C 474.454 -5.28519 -0.810649 0
M  V30 4804 C 475.754 -5.04231 1.36193 0
M  V30 4805 H 477.448 -2.80543 1.04575 0
M  V30 4806 H 474.994 -1.3488 0.504315 0
M  V30 4807 H 476.947 -4.08693 -1.02702 0
M  V30 4808 H 475.671 -2.92186 -1.45928 0
M  V30 4809 H 474.33 -3.62384 0.554382 0
M  V30 4810 H 473.978 -4.75171 -1.64988 0
M  V30 4811 H 473.678 -5.8686 -0.294822 0
M  V30 4812 H 475.202 -5.98283 -1.22023 0
M  V30 4813 H 476.616 -5.64058 1.02528 0
M  V30 4814 H 475.013 -5.72077 1.81239 0
M  V30 4815 H 476.083 -4.34753 2.14751 0
M  V30 4816 N 477.426 -0.562348 -1.47226 0
M  V30 4817 C 478.389 0.172056 -2.28553 0
M  V30 4818 C 479.389 0.837928 -1.37242 0
M  V30 4819 O 480.579 0.693001 -1.59822 0
M  V30 4820 C 477.711 1.25223 -3.17068 0
M  V30 4821 H 478.904 -0.542401 -2.94954 0
M  V30 4822 H 476.457 -0.319493 -1.53 0
M  V30 4823 H 477.192 1.99892 -2.55369 0
M  V30 4824 H 476.977 0.779515 -3.84273 0
M  V30 4825 H 478.467 1.76791 -3.78332 0
M  V30 4826 N 478.904 1.54736 -0.299062 0
M  V30 4827 C 480.181 1.92187 0.363802 0
M  V30 4828 C 480.561 1.22607 1.71845 0
M  V30 4829 O 479.909 0.361141 2.25628 0
M  V30 4830 C 480.119 3.45678 0.480377 0
M  V30 4831 C 481.467 4.17885 0.752147 0
M  V30 4832 O 482.491 3.51702 0.564264 0
M  V30 4833 O 481.35 5.35048 1.11294 0
M  V30 4834 H 478.444 0.801681 0.203066 0
M  V30 4835 H 480.99 1.66115 -0.346978 0
M  V30 4836 H 479.762 3.88443 -0.471999 0
M  V30 4837 H 479.385 3.77779 1.2397 0
M  V30 4838 N 480.382 0.0267497 1.57577 0
M  V30 4839 C 481.63 -0.651116 1.91324 0
M  V30 4840 C 481.951 -1.72804 0.90353 0
M  V30 4841 O 481.221 -1.95822 -0.0552946 0
M  V30 4842 H 479.801 -0.243491 0.706202 0
M  V30 4843 H 482.463 0.0739935 1.94759 0
M  V30 4844 H 481.559 -1.10536 2.9187 0
M  V30 4845 N 481.861 -1.55662 -0.24637 0
M  V30 4846 C 483.086 -1.81914 -0.996093 0
M  V30 4847 C 483.511 -0.603875 -1.78143 0
M  V30 4848 O 482.869 0.447091 -1.75701 0
M  V30 4849 C 482.917 -3.05908 -1.90925 0
M  V30 4850 O 482.021 -2.82861 -3.00105 0
M  V30 4851 H 481.362 -0.600481 -0.283406 0
M  V30 4852 H 483.892 -2.02848 -0.267199 0
M  V30 4853 H 483.902 -3.35356 -2.3238 0
M  V30 4854 H 482.577 -3.93999 -1.33183 0
M  V30 4855 H 481.154 -2.64583 -2.62775 0
M  V30 4856 N 483.339 0.512053 -1.4905 0
M  V30 4857 C 484.302 1.59704 -1.64399 0
M  V30 4858 C 485.302 1.52285 -0.516317 0
M  V30 4859 O 486.492 1.55635 -0.782527 0
M  V30 4860 C 483.624 2.9935 -1.63102 0
M  V30 4861 H 484.817 1.47428 -2.61161 0
M  V30 4862 H 482.37 0.735469 -1.37915 0
M  V30 4863 H 483.105 3.17116 -0.678836 0
M  V30 4864 H 482.89 3.06144 -2.44986 0
M  V30 4865 H 484.38 3.782 -1.77072 0
M  V30 4866 N 484.817 1.37938 0.762283 0
M  V30 4867 C 486.233 1.18945 1.06415 0
M  V30 4868 C 486.433 0.0321163 2.01474 0
M  V30 4869 O 485.489 -0.624844 2.44647 0
M  V30 4870 C 486.802 2.51218 1.65258 0
M  V30 4871 C 488.35 2.57824 1.7747 0
M  V30 4872 C 488.825 3.90251 2.39725 0
M  V30 4873 N 490.316 3.91744 2.47166 0
M  V30 4874 C 491.051 4.90966 2.96209 0
M  V30 4875 N 490.547 6.00585 3.45354 0
M  V30 4876 N 492.34 4.78363 2.9517 0
M  V30 4877 H 484.491 2.11994 0.131301 0
M  V30 4878 H 486.754 0.940262 0.120879 0
M  V30 4879 H 486.46 3.36317 1.02878 0
M  V30 4880 H 486.334 2.68989 2.64433 0
M  V30 4881 H 488.721 1.73126 2.3898 0
M  V30 4882 H 488.802 2.43928 0.770241 0
M  V30 4883 H 488.446 4.75368 1.78852 0
M  V30 4884 H 488.376 4.01454 3.40796 0
M  V30 4885 H 490.867 3.12563 2.12397 0
M  V30 4886 H 491.18 6.72236 3.81207 0
M  V30 4887 H 489.525 6.04217 3.43434 0
M  V30 4888 H 492.716 3.91841 2.56082 0
M  V30 4889 H 492.889 5.55843 3.33081 0
M  V30 4890 N 486.295 -0.989507 1.22664 0
M  V30 4891 C 487.525 -1.7624 1.0781 0
M  V30 4892 C 487.933 -1.85466 -0.374036 0
M  V30 4893 O 487.276 -1.32645 -1.27087 0
M  V30 4894 C 487.338 -3.21007 1.61849 0
M  V30 4895 C 487.002 -3.35316 3.10503 0
M  V30 4896 C 487.999 -3.22362 4.07896 0
M  V30 4897 C 485.684 -3.60258 3.50028 0
M  V30 4898 C 487.678 -3.34139 5.42798 0
M  V30 4899 C 485.365 -3.71676 4.85078 0
M  V30 4900 C 486.363 -3.58625 5.81272 0
M  V30 4901 O 486.051 -3.69655 7.1387 0
M  V30 4902 H 485.783 -0.560209 0.378341 0
M  V30 4903 H 488.337 -1.25252 1.62792 0
M  V30 4904 H 486.567 -3.73202 1.01279 0
M  V30 4905 H 488.256 -3.80024 1.42606 0
M  V30 4906 H 489.022 -3.03 3.78703 0
M  V30 4907 H 484.901 -3.69492 2.75675 0
M  V30 4908 H 488.445 -3.23869 6.17863 0
M  V30 4909 H 484.342 -3.90545 5.1395 0
M  V30 4910 H 485.11 -3.86507 7.21495 0
M  V30 4911 N 487.773 -1.03688 -1.18687 0
M  V30 4912 C 489.184 -0.766488 -1.70241 0
M  V30 4913 C 489.535 0.713052 -1.82784 0
M  V30 4914 O 488.66 1.55529 -1.50465 0
M  V30 4915 C 489.255 -1.38475 -3.09209 0
M  V30 4916 C 487.814 -1.16276 -3.5799 0
M  V30 4917 C 486.961 -1.4778 -2.34641 0
M  V30 4918 H 489.912 -1.20378 -1.03415 0
M  V30 4919 H 489.933 -0.785939 -3.72295 0
M  V30 4920 H 489.445 -2.46157 -3.00048 0
M  V30 4921 H 487.546 -0.104508 -3.72453 0
M  V30 4922 H 487.659 -1.8571 -4.41643 0
M  V30 4923 H 486.023 -0.897366 -2.38368 0
M  V30 4924 H 486.806 -2.56562 -2.28102 0
M  V30 4925 N 489.251 1.34841 -0.815825 0
M  V30 4926 C 490.5 1.97755 -0.396976 0
M  V30 4927 C 490.813 1.65422 1.04379 0
M  V30 4928 O 492.019 2.21771 1.5662 0
M  V30 4929 C 490.475 3.53818 -0.658869 0
M  V30 4930 C 490.083 3.95051 -2.11278 0
M  V30 4931 C 491.827 4.23397 -0.305834 0
M  V30 4932 C 489.734 5.43997 -2.31994 0
M  V30 4933 H 488.664 0.739985 -0.1447 0
M  V30 4934 H 491.315 1.53781 -1.00118 0
M  V30 4935 H 489.697 3.95997 0.0154112 0
M  V30 4936 H 490.871 3.63998 -2.82564 0
M  V30 4937 H 489.186 3.38388 -2.42657 0
M  V30 4938 H 491.783 5.32899 -0.43854 0
M  V30 4939 H 492.126 4.09508 0.748952 0
M  V30 4940 H 492.659 3.8667 -0.934403 0
M  V30 4941 H 489.398 5.62865 -3.35952 0
M  V30 4942 H 488.918 5.76589 -1.65244 0
M  V30 4943 H 490.597 6.10584 -2.14001 0
M  V30 4944 N 490.729 0.570148 1.46925 0
M  V30 4945 C 491.975 0.0510284 2.02736 0
M  V30 4946 C 492.308 -1.3006 1.44215 0
M  V30 4947 O 491.583 -1.84932 0.602521 0
M  V30 4948 C 491.866 -0.028215 3.60089 0
M  V30 4949 C 491.719 1.35142 4.29018 0
M  V30 4950 C 493.038 -0.735181 4.33916 0
M  V30 4951 H 490.157 0.0200178 0.736728 0
M  V30 4952 H 492.799 0.73493 1.75211 0
M  V30 4953 H 490.949 -0.610648 3.83671 0
M  V30 4954 H 492.621 1.97806 4.16738 0
M  V30 4955 H 490.864 1.9226 3.88868 0
M  V30 4956 H 491.535 1.24857 5.37694 0
M  V30 4957 H 494.011 -0.240519 4.15404 0
M  V30 4958 H 492.887 -0.759622 5.43618 0
M  V30 4959 H 493.148 -1.79397 4.04066 0
M  V30 4960 N 492.207 -1.54576 0.307264 0
M  V30 4961 C 493.155 -2.25208 -0.581723 0
M  V30 4962 C 494.149 -1.26031 -1.13192 0
M  V30 4963 O 495.355 -1.43862 -1.08184 0
M  V30 4964 H 491.73 -0.723173 -0.206214 0
M  V30 4965 H 493.701 -2.98378 0.0364663 0
M  V30 4966 C 492.45 -3.01086 -1.73904 0
M  V30 4967 H 491.773 -3.77208 -1.32491 0
M  V30 4968 H 493.213 -3.5378 -2.33701 0
M  V30 4969 C 491.672 -2.08422 -2.64692 0
M  V30 4970 O 492.202 -1.65636 -3.65961 0
M  V30 4971 N 490.408 -1.74247 -2.32564 0
M  V30 4972 H 489.955 -2.09238 -1.50257 0
M  V30 4973 H 489.913 -1.12524 -2.93574 0
M  V30 4974 N 493.685 -0.035106 -1.57561 0
M  V30 4975 C 495.096 0.502885 -1.798 0
M  V30 4976 C 495.447 1.71892 -0.945921 0
M  V30 4977 O 494.572 2.15822 -0.157991 0
M  V30 4978 C 495.167 0.919097 -3.26095 0
M  V30 4979 C 493.726 1.40216 -3.49308 0
M  V30 4980 C 492.873 0.369709 -2.74824 0
M  V30 4981 H 495.824 -0.261102 -1.56537 0
M  V30 4982 H 495.845 1.78308 -3.36135 0
M  V30 4983 H 495.357 0.0338526 -3.88085 0
M  V30 4984 H 493.458 2.30714 -2.92578 0
M  V30 4985 H 493.571 1.40541 -4.58023 0
M  V30 4986 H 491.935 0.839113 -2.40481 0
M  V30 4987 H 492.718 -0.507173 -3.39533 0
M  V30 4988 N 495.163 1.55791 0.238111 0
M  V30 4989 C 496.579 1.48411 0.587045 0
M  V30 4990 C 496.779 0.72702 1.87927 0
M  V30 4991 O 495.835 0.259942 2.51158 0
M  V30 4992 C 497.148 2.92873 0.681623 0
M  V30 4993 C 498.696 3.03295 0.773363 0
M  V30 4994 C 499.171 4.49082 0.899428 0
M  V30 4995 N 500.662 4.53056 0.964075 0
M  V30 4996 C 501.397 5.63117 1.08104 0
M  V30 4997 N 500.893 6.82969 1.16299 0
M  V30 4998 N 502.686 5.50933 1.11488 0
M  V30 4999 H 494.837 2.0345 -0.610076 0
M  V30 5000 H 497.1 0.924034 -0.211813 0
M  V30 5001 H 496.806 3.51142 -0.19802 0
M  V30 5002 H 496.68 3.43851 1.55069 0
M  V30 5003 H 499.067 2.45101 1.64346 0
M  V30 5004 H 499.148 2.55513 -0.121034 0
M  V30 5005 H 498.792 5.07889 0.0338586 0
M  V30 5006 H 498.722 4.94553 1.809 0
M  V30 5007 H 501.213 3.66737 0.91173 0
M  V30 5008 H 501.526 7.62598 1.25155 0
M  V30 5009 H 499.871 6.85712 1.13241 0
M  V30 5010 H 503.062 4.56231 1.0474 0
M  V30 5011 H 503.235 6.36743 1.20259 0
M  V30 5012 N 496.642 -0.504142 1.49319 0
M  V30 5013 C 497.605 -1.5883 1.65244 0
M  V30 5014 C 498.605 -1.52009 0.524386 0
M  V30 5015 O 499.795 -1.55218 0.79077 0
M  V30 5016 C 496.927 -2.98481 1.64687 0
M  V30 5017 H 498.12 -1.4604 2.61939 0
M  V30 5018 H 495.673 -0.728144 1.38303 0
M  V30 5019 H 496.408 -3.16751 0.695644 0
M  V30 5020 H 496.193 -3.0484 2.46607 0
M  V30 5021 H 497.683 -3.77256 1.79075 0
M  V30 5022 N 498.12 -1.38341 -0.754957 0
M  V30 5023 C 499.536 -1.19508 -1.05783 0
M  V30 5024 C 499.736 -0.0428005 -2.01455 0
M  V30 5025 O 498.792 0.611861 -2.44975 0
M  V30 5026 C 500.105 -2.52091 -1.63923 0
M  V30 5027 C 501.653 -2.58762 -1.76101 0
M  V30 5028 C 502.128 -3.91517 -2.37652 0
M  V30 5029 N 503.619 -3.93049 -2.45085 0
M  V30 5030 C 504.354 -4.9253 -2.93602 0
M  V30 5031 N 503.85 -6.02408 -3.42165 0
M  V30 5032 N 505.643 -4.79921 -2.92629 0
M  V30 5033 H 497.794 -2.1206 -0.120056 0
M  V30 5034 H 500.057 -0.94089 -0.11589 0
M  V30 5035 H 499.763 -3.36858 -1.01093 0
M  V30 5036 H 499.637 -2.70388 -2.63003 0
M  V30 5037 H 502.024 -1.74391 -2.38058 0
M  V30 5038 H 502.105 -2.44333 -0.757294 0
M  V30 5039 H 501.749 -4.76309 -1.76329 0
M  V30 5040 H 501.679 -4.03256 -3.38662 0
M  V30 5041 H 504.17 -3.13685 -2.10736 0
M  V30 5042 H 504.483 -6.74248 -3.77637 0
M  V30 5043 H 502.828 -6.0603 -3.40225 0
M  V30 5044 H 506.019 -3.93194 -2.54001 0
M  V30 5045 H 506.192 -5.57601 -3.30128 0
M  V30 5046 N 499.598 0.982988 -1.23187 0
M  V30 5047 C 500.838 1.73903 -1.07412 0
M  V30 5048 C 501.202 1.88146 0.382764 0
M  V30 5049 O 502.403 2.6053 0.661638 0
M  V30 5050 C 500.674 3.10105 -1.77678 0
M  V30 5051 S 502.233 4.01323 -1.77441 0
M  V30 5052 H 499.051 0.598093 -0.384456 0
M  V30 5053 H 501.653 1.17456 -1.56283 0
M  V30 5054 H 500.357 2.97388 -2.82822 0
M  V30 5055 H 499.888 3.71622 -1.29077 0
M  V30 5056 H 501.903 4.89189 -0.831162 0
M  V30 5057 N 501.076 1.04316 1.18135 0
M  V30 5058 C 502.324 0.746542 1.87806 0
M  V30 5059 C 502.645 -0.728082 1.80898 0
M  V30 5060 O 501.915 -1.52554 1.22899 0
M  V30 5061 H 500.495 0.273157 0.695265 0
M  V30 5062 H 503.157 1.32044 1.43354 0
M  V30 5063 H 502.253 1.05362 2.93778 0
M  V30 5064 N 502.554 -1.34406 0.822964 0
M  V30 5065 C 503.802 -1.97892 0.410245 0
M  V30 5066 C 504.123 -1.65567 -1.03017 0
M  V30 5067 O 503.393 -0.94642 -1.71522 0
M  V30 5068 H 501.973 -0.732049 0.148707 0
M  V30 5069 H 504.635 -1.64043 1.05242 0
M  V30 5070 H 503.731 -3.07579 0.529284 0
M  V30 5071 N 504.032 -0.577932 -1.46621 0
M  V30 5072 C 505.448 -0.239242 -1.57797 0
M  V30 5073 C 505.648 1.25843 -1.57371 0
M  V30 5074 O 504.704 2.03988 -1.48813 0
M  V30 5075 C 506.017 -0.884227 -2.87405 0
M  V30 5076 C 507.565 -0.857373 -3.01028 0
M  V30 5077 C 508.04 -1.48181 -4.33366 0
M  V30 5078 N 509.531 -1.44593 -4.40053 0
M  V30 5079 C 510.266 -1.89852 -5.41058 0
M  V30 5080 N 509.762 -2.43062 -6.48762 0
M  V30 5081 N 511.555 -1.80797 -5.3223 0
M  V30 5082 H 503.706 -1.55073 -1.45142 0
M  V30 5083 H 505.969 -0.647903 -0.692044 0
M  V30 5084 H 505.675 -1.93759 -2.93514 0
M  V30 5085 H 505.549 -0.389585 -3.75183 0
M  V30 5086 H 507.936 0.187357 -2.94505 0
M  V30 5087 H 508.017 -1.38999 -2.14739 0
M  V30 5088 H 507.661 -2.52572 -4.40647 0
M  V30 5089 H 507.591 -0.924464 -5.18422 0
M  V30 5090 H 510.082 -1.05694 -3.62819 0
M  V30 5091 H 510.395 -2.75466 -7.22038 0
M  V30 5092 H 508.74 -2.47085 -6.49595 0
M  V30 5093 H 511.931 -1.38989 -4.46989 0
M  V30 5094 H 512.104 -2.16385 -6.10804 0
M  V30 5095 N 505.51 1.54411 -0.315457 0
M  V30 5096 C 506.926 1.59556 0.037464 0
M  V30 5097 C 507.126 1.33217 1.5118 0
M  V30 5098 O 506.182 1.11264 2.26664 0
M  V30 5099 C 507.495 2.98372 -0.373477 0
M  V30 5100 C 509.043 3.11324 -0.323452 0
M  V30 5101 C 509.518 4.52472 -0.709433 0
M  V30 5102 N 511.009 4.58437 -0.662524 0
M  V30 5103 C 511.744 5.65751 -0.933474 0
M  V30 5104 N 511.24 6.81039 -1.27114 0
M  V30 5105 N 513.033 5.55489 -0.859573 0
M  V30 5106 H 505.184 1.6979 -1.27614 0
M  V30 5107 H 507.447 0.793732 -0.518356 0
M  V30 5108 H 507.153 3.22618 -1.40037 0
M  V30 5109 H 507.027 3.76264 0.265615 0
M  V30 5110 H 509.414 2.86818 0.694223 0
M  V30 5111 H 509.495 2.35555 -0.997367 0
M  V30 5112 H 509.139 4.7771 -1.72498 0
M  V30 5113 H 509.069 5.26598 -0.0132923 0
M  V30 5114 H 511.56 3.75636 -0.413065 0
M  V30 5115 H 511.873 7.58816 -1.46348 0
M  V30 5116 H 510.218 6.82555 -1.30932 0
M  V30 5117 H 513.409 4.64299 -0.595324 0
M  V30 5118 H 513.582 6.39036 -1.0741 0
M  V30 5119 N 506.988 0.0434614 1.5754 0
M  V30 5120 C 508.399 -0.493343 1.80064 0
M  V30 5121 C 508.75 -1.71388 0.955023 0
M  V30 5122 O 507.875 -2.15736 0.169434 0
M  V30 5123 C 508.47 -0.90179 3.26578 0
M  V30 5124 C 507.029 -1.38362 3.50047 0
M  V30 5125 C 506.176 -0.355129 2.75017 0
M  V30 5126 H 509.127 0.2694 1.56397 0
M  V30 5127 H 509.148 -1.76523 3.37075 0
M  V30 5128 H 508.66 -0.013271 3.88098 0
M  V30 5129 H 506.761 -2.29159 2.93798 0
M  V30 5130 H 506.874 -1.3811 4.58762 0
M  V30 5131 H 505.238 -0.826348 2.40922 0
M  V30 5132 H 506.021 0.525172 3.39259 0
M  V30 5133 N 508.466 -1.55915 -0.229846 0
M  V30 5134 C 509.714 -1.7819 -0.953565 0
M  V30 5135 C 510.035 -0.610504 -1.85197 0
M  V30 5136 O 509.305 0.372988 -1.92316 0
M  V30 5137 H 507.885 -0.657208 -0.355087 0
M  V30 5138 H 510.547 -1.9337 -0.243693 0
M  V30 5139 H 509.643 -2.70011 -1.56527 0
M  V30 5140 N 509.944 0.496216 -1.49584 0
M  V30 5141 C 511.19 1.25189 -1.59548 0
M  V30 5142 C 511.523 1.9212 -0.283466 0
M  V30 5143 O 510.798 1.80947 0.713324 0
M  V30 5144 C 511.081 2.31516 -2.75812 0
M  V30 5145 C 510.934 1.69054 -4.16822 0
M  V30 5146 C 512.253 3.3304 -2.87702 0
M  V30 5147 H 509.372 0.45379 -0.580727 0
M  V30 5148 H 512.014 0.549327 -1.81886 0
M  V30 5149 H 510.164 2.91438 -2.56897 0
M  V30 5150 H 511.836 1.12923 -4.47265 0
M  V30 5151 H 510.079 0.994485 -4.22247 0
M  V30 5152 H 510.75 2.462 -4.94054 0
M  V30 5153 H 513.226 2.83114 -3.04936 0
M  V30 5154 H 512.102 4.04794 -3.7072 0
M  V30 5155 H 512.363 3.95655 -1.97255 0
M  V30 5156 N 511.423 1.38739 0.74761 0
M  V30 5157 C 512.839 1.20067 1.05148 0
M  V30 5158 C 513.039 0.0534835 2.01429 0
M  V30 5159 O 512.095 -0.59886 2.45296 0
M  V30 5160 C 513.408 2.52957 1.62584 0
M  V30 5161 C 514.956 2.59692 1.74726 0
M  V30 5162 C 515.431 3.92772 2.35573 0
M  V30 5163 N 516.922 3.94343 2.42997 0
M  V30 5164 C 517.657 4.9408 2.90985 0
M  V30 5165 N 517.153 6.04214 3.38965 0
M  V30 5166 N 518.946 4.81466 2.9008 0
M  V30 5167 H 511.097 2.12121 0.108808 0
M  V30 5168 H 513.36 0.941491 0.110899 0
M  V30 5169 H 513.066 3.37389 0.993051 0
M  V30 5170 H 512.94 2.71779 2.61565 0
M  V30 5171 H 515.327 1.75651 2.3713 0
M  V30 5172 H 515.408 2.44731 0.744326 0
M  V30 5173 H 515.052 4.77238 1.738 0
M  V30 5174 H 514.982 4.05046 3.36519 0
M  V30 5175 H 517.473 3.14799 2.0907 0
M  V30 5176 H 517.786 6.76241 3.74056 0
M  V30 5177 H 516.131 6.07825 3.37007 0
M  V30 5178 H 519.322 3.94535 2.51912 0
M  V30 5179 H 519.495 5.59344 3.27166 0
M  V30 5180 N 512.901 -0.976442 1.23707 0
M  V30 5181 C 514.126 -1.75875 1.09922 0
M  V30 5182 C 514.551 -1.84911 -0.34489 0
M  V30 5183 O 513.909 -1.31363 -1.24954 0
M  V30 5184 C 513.957 -3.16179 1.73388 0
M  V30 5185 O 513.061 -4.00124 0.99871 0
M  V30 5186 H 512.402 -0.540954 0.385052 0
M  V30 5187 H 514.932 -1.22546 1.6384 0
M  V30 5188 H 514.942 -3.66741 1.78788 0
M  V30 5189 H 513.617 -3.08917 2.78466 0
M  V30 5190 H 512.194 -3.58624 1.02193 0
M  V30 5191 N 514.379 -1.04941 -1.1758 0
M  V30 5192 C 515.309 -0.669172 -2.23706 0
M  V30 5193 C 516.29 0.331835 -1.66832 0
M  V30 5194 O 517.475 0.209988 -1.93061 0
M  V30 5195 C 514.605 -0.0404889 -3.47276 0
M  V30 5196 C 513.559 -0.965983 -4.16957 0
M  V30 5197 C 512.885 -0.201312 -5.34321 0
M  V30 5198 C 514.185 -2.28902 -4.69469 0
M  V30 5199 H 515.879 -1.55639 -2.55767 0
M  V30 5200 H 513.425 -0.749793 -1.22939 0
M  V30 5201 H 515.378 0.237298 -4.20731 0
M  V30 5202 H 514.102 0.881658 -3.14475 0
M  V30 5203 H 512.761 -1.22829 -3.45411 0
M  V30 5204 H 512.409 0.723519 -4.97769 0
M  V30 5205 H 512.109 -0.817968 -5.81879 0
M  V30 5206 H 513.633 0.0692499 -6.10561 0
M  V30 5207 H 515.047 -2.07132 -5.34574 0
M  V30 5208 H 513.444 -2.85942 -5.27596 0
M  V30 5209 H 514.514 -2.92937 -3.86414 0
M  V30 5210 N 515.857 1.33968 -0.830081 0
M  V30 5211 C 517.105 1.97672 -0.420734 0
M  V30 5212 C 517.426 1.66111 1.02138 0
M  V30 5213 O 516.696 0.955503 1.71017 0
M  V30 5214 H 515.276 0.73125 -0.152587 0
M  V30 5215 H 517.938 1.63483 -1.0611 0
M  V30 5216 H 517.034 3.07294 -0.545588 0
M  V30 5217 N 517.335 0.585699 1.46312 0
M  V30 5218 C 518.582 0.0724211 2.0237 0
M  V30 5219 C 518.91 -1.28868 1.45683 0
M  V30 5220 O 518.165 -1.85853 0.612945 0
M  V30 5221 C 518.464 -0.0401312 3.57377 0
M  V30 5222 C 518.13 1.25376 4.33119 0
M  V30 5223 C 516.792 1.60824 4.5353 0
M  V30 5224 C 519.144 2.10987 4.76586 0
M  V30 5225 C 516.472 2.81676 5.14661 0
M  V30 5226 C 518.824 3.31068 5.39052 0
M  V30 5227 C 517.488 3.66794 5.5769 0
M  V30 5228 H 516.758 0.0265007 0.740526 0
M  V30 5229 H 519.405 0.762935 1.75646 0
M  V30 5230 H 517.71 -0.813791 3.83255 0
M  V30 5231 H 519.407 -0.453078 3.98432 0
M  V30 5232 H 515.997 0.967808 4.1753 0
M  V30 5233 H 520.181 1.84904 4.60569 0
M  V30 5234 H 515.437 3.0949 5.27282 0
M  V30 5235 H 519.611 3.97672 5.71691 0
M  V30 5236 H 517.238 4.60529 6.04828 0
M  V30 5237 N 518.813 -1.54241 0.323641 0
M  V30 5238 C 520.224 -1.85975 -0.164405 0
M  V30 5239 C 520.575 -1.24529 -1.51615 0
M  V30 5240 O 519.7 -0.551351 -2.09258 0
M  V30 5241 C 520.295 -3.37424 -0.305091 0
M  V30 5242 C 518.854 -3.69107 -0.737358 0
M  V30 5243 C 518.001 -2.76942 0.140884 0
M  V30 5244 H 520.952 -1.49088 0.543922 0
M  V30 5245 H 520.973 -3.63147 -1.13598 0
M  V30 5246 H 520.485 -3.82116 0.678876 0
M  V30 5247 H 518.586 -3.29947 -1.73107 0
M  V30 5248 H 518.699 -4.76035 -0.541053 0
M  V30 5249 H 517.063 -2.51795 -0.383572 0
M  V30 5250 H 517.846 -3.24461 1.12162 0
M  V30 5251 N 520.291 -0.0518155 -1.57515 0
M  V30 5252 C 521.568 0.661727 -1.84067 0
M  V30 5253 C 521.948 1.88999 -0.940351 0
M  V30 5254 O 521.296 2.285 -0.00155404 0
M  V30 5255 C 521.506 1.01841 -3.3381 0
M  V30 5256 C 522.854 1.40043 -4.00841 0
M  V30 5257 O 523.878 1.11073 -3.38439 0
M  V30 5258 O 522.737 1.94111 -5.10865 0
M  V30 5259 H 519.831 0.326702 -0.759733 0
M  V30 5260 H 522.377 -0.0812277 -1.69505 0
M  V30 5261 H 521.149 0.145202 -3.91031 0
M  V30 5262 H 520.772 1.81879 -3.53562 0
M  V30 5263 N 521.769 1.56035 0.221574 0
M  V30 5264 C 522.732 1.91584 1.2581 0
M  V30 5265 C 523.732 0.794425 1.39805 0
M  V30 5266 O 524.922 1.06217 1.38071 0
M  V30 5267 C 522.054 2.16663 2.63192 0
M  V30 5268 H 523.247 2.8429 0.954935 0
M  V30 5269 H 520.8 1.49316 0.461988 0
M  V30 5270 H 521.535 1.26508 2.98607 0
M  V30 5271 H 521.32 2.98358 2.5441 0
M  V30 5272 H 522.81 2.45262 3.37988 0
M  V30 5273 N 523.247 -0.488276 1.49845 0
M  V30 5274 C 524.475 -1.26527 1.63702 0
M  V30 5275 C 524.89 -1.8618 0.313447 0
M  V30 5276 O 524.247 -1.68432 -0.702624 0
M  V30 5277 C 524.298 -2.3864 2.71538 0
M  V30 5278 O 524.019 -1.81437 3.98763 0
M  V30 5279 C 525.52 -3.29805 2.96215 0
M  V30 5280 H 522.74 -0.383295 0.55075 0
M  V30 5281 H 525.284 -0.584779 1.95961 0
M  V30 5282 H 523.439 -3.02496 2.42023 0
M  V30 5283 H 523.853 -2.55135 4.58265 0
M  V30 5284 H 525.327 -4.04722 3.75372 0
M  V30 5285 H 525.804 -3.87563 2.06619 0
M  V30 5286 H 526.41 -2.71703 3.27196 0
M  V30 5287 N 524.725 -1.39134 -0.740242 0
M  V30 5288 C 526.141 -1.20623 -1.0451 0
M  V30 5289 C 526.341 -0.0641651 -2.01398 0
M  V30 5290 O 525.397 0.585843 -2.4561 0
M  V30 5291 C 526.71 -2.53815 -1.6124 0
M  V30 5292 C 528.258 -2.60615 -1.73346 0
M  V30 5293 C 528.733 -3.94015 -2.33486 0
M  V30 5294 N 530.224 -3.95627 -2.40902 0
M  V30 5295 C 530.959 -4.95616 -2.88361 0
M  V30 5296 N 530.455 -6.06003 -3.35756 0
M  V30 5297 N 532.248 -4.82998 -2.87523 0
M  V30 5298 H 524.399 -2.12176 -0.0975576 0
M  V30 5299 H 526.662 -0.942066 -0.105904 0
M  V30 5300 H 526.368 -3.37911 -0.975144 0
M  V30 5301 H 526.242 -2.73162 -2.6012 0
M  V30 5302 H 528.629 -1.76906 -2.36195 0
M  V30 5303 H 528.71 -2.45123 -0.731336 0
M  V30 5304 H 528.354 -4.78153 -1.71267 0
M  V30 5305 H 528.284 -4.06825 -3.34366 0
M  V30 5306 H 530.775 -3.15903 -2.07398 0
M  V30 5307 H 531.088 -6.78215 -3.70464 0
M  V30 5308 H 529.433 -6.09604 -3.33778 0
M  V30 5309 H 532.624 -3.95866 -2.49816 0
M  V30 5310 H 532.797 -5.61072 -3.24196 0
M  V30 5311 N 526.204 0.969867 -1.24223 0
M  V30 5312 C 527.62 1.23809 -1.00716 0
M  V30 5313 C 527.82 1.99469 0.285358 0
M  V30 5314 O 526.876 2.31764 1.00207 0
M  V30 5315 C 528.189 2.02734 -2.2208 0
M  V30 5316 C 529.737 2.15834 -2.26681 0
M  V30 5317 C 530.212 2.98154 -3.47661 0
M  V30 5318 N 531.703 3.05737 -3.47964 0
M  V30 5319 C 532.438 3.69785 -4.38231 0
M  V30 5320 N 531.934 4.35569 -5.3875 0
M  V30 5321 N 533.727 3.66775 -4.25949 0
M  V30 5322 H 525.878 0.463294 -2.07286 0
M  V30 5323 H 528.141 0.267348 -0.909521 0
M  V30 5324 H 527.847 1.54524 -3.15935 0
M  V30 5325 H 527.721 3.0347 -2.24021 0
M  V30 5326 H 530.108 2.63248 -1.33359 0
M  V30 5327 H 530.189 1.14453 -2.28767 0
M  V30 5328 H 529.833 2.51435 -4.41297 0
M  V30 5329 H 529.763 3.99729 -3.42818 0
M  V30 5330 H 532.254 2.58941 -2.75242 0
M  V30 5331 H 532.567 4.82251 -6.03866 0
M  V30 5332 H 530.912 4.34244 -5.42639 0
M  V30 5333 H 534.103 3.14558 -3.46657 0
M  V30 5334 H 534.276 4.16407 -4.96497 0
M  V30 5335 N 527.682 1.05563 1.17022 0
M  V30 5336 C 528.612 0.681026 2.23348 0
M  V30 5337 C 529.593 -0.322983 1.67005 0
M  V30 5338 O 530.778 -0.199746 1.9317 0
M  V30 5339 C 527.908 0.0589053 3.4725 0
M  V30 5340 C 526.862 0.988082 4.16438 0
M  V30 5341 C 526.188 0.229646 5.34207 0
M  V30 5342 C 527.488 2.31388 4.68249 0
M  V30 5343 H 529.182 1.56993 2.54938 0
M  V30 5344 H 526.728 0.756302 1.2254 0
M  V30 5345 H 528.681 -0.214982 4.20851 0
M  V30 5346 H 527.405 -0.864968 3.14938 0
M  V30 5347 H 526.064 1.24659 3.44754 0
M  V30 5348 H 525.712 -0.697111 4.98146 0
M  V30 5349 H 525.412 0.848815 5.81437 0
M  V30 5350 H 526.936 -0.0368694 6.10589 0
M  V30 5351 H 528.35 2.09964 5.33468 0
M  V30 5352 H 526.747 2.88736 5.26072 0
M  V30 5353 H 527.817 2.94982 3.84855 0
M  V30 5354 N 529.16 -1.33526 0.837174 0
M  V30 5355 C 530.407 -1.97837 0.432064 0
M  V30 5356 C 530.735 -1.66324 -1.00829 0
M  V30 5357 O 529.99 -0.93448 -1.71948 0
M  V30 5358 C 530.289 -3.52367 0.597675 0
M  V30 5359 C 529.955 -4.03826 2.00587 0
M  V30 5360 C 528.617 -4.1759 2.39106 0
M  V30 5361 C 530.969 -4.31333 2.92576 0
M  V30 5362 C 528.297 -4.56195 3.68921 0
M  V30 5363 C 530.649 -4.7139 4.2187 0
M  V30 5364 C 529.313 -4.8336 4.60347 0
M  V30 5365 H 528.583 -0.723937 0.158104 0
M  V30 5366 H 531.23 -1.5923 1.06387 0
M  V30 5367 H 529.535 -3.91624 -0.117452 0
M  V30 5368 H 531.232 -4.00126 0.26454 0
M  V30 5369 H 527.822 -3.93586 1.69671 0
M  V30 5370 H 532.006 -4.20224 2.64056 0
M  V30 5371 H 527.262 -4.63655 3.9854 0
M  V30 5372 H 531.436 -4.91631 4.93226 0
M  V30 5373 H 529.063 -5.1303 5.60985 0
M  V30 5374 N 530.638 -0.59345 -1.46 0
M  V30 5375 C 531.886 -0.082988 -2.0193 0
M  V30 5376 C 532.207 1.28569 -1.46612 0
M  V30 5377 O 531.477 1.84629 -0.654909 0
M  V30 5378 H 530.057 -0.0276882 -0.746487 0
M  V30 5379 H 532.719 -0.771657 -1.78973 0
M  V30 5380 H 531.815 -0.022079 -3.12092 0
M  V30 5381 N 532.116 1.54067 -0.331816 0
M  V30 5382 C 533.362 2.01012 0.268667 0
M  V30 5383 C 533.695 1.2195 1.51136 0
M  V30 5384 O 532.97 0.303972 1.9211 0
M  V30 5385 C 533.253 3.55158 0.59456 0
M  V30 5386 C 533.106 4.4494 -0.659409 0
M  V30 5387 C 534.425 4.16939 1.4089 0
M  V30 5388 H 531.544 0.730698 0.0961756 0
M  V30 5389 H 534.186 1.84593 -0.450031 0
M  V30 5390 H 532.336 3.6928 1.20685 0
M  V30 5391 H 534.008 4.42675 -1.29756 0
M  V30 5392 H 532.251 4.1428 -1.28665 0
M  V30 5393 H 532.922 5.50643 -0.386804 0
M  V30 5394 H 535.398 4.06443 0.891272 0
M  V30 5395 H 534.274 5.24889 1.60569 0
M  V30 5396 H 534.535 3.70798 2.40752 0
M  V30 5397 N 533.594 0.0601682 1.57485 0
M  V30 5398 C 534.824 -0.620037 1.97076 0
M  V30 5399 C 535.232 -1.64381 0.936784 0
M  V30 5400 O 534.575 -1.83497 -0.0863377 0
M  V30 5401 C 534.637 -1.35617 3.32939 0
M  V30 5402 C 534.301 -0.487208 4.54396 0
M  V30 5403 C 535.298 0.250428 5.19297 0
M  V30 5404 C 532.983 -0.415494 5.00579 0
M  V30 5405 C 534.977 1.04812 6.28723 0
M  V30 5406 C 532.664 0.385879 6.0988 0
M  V30 5407 C 533.662 1.11637 6.73815 0
M  V30 5408 O 533.35 1.90454 7.81014 0
M  V30 5409 H 533.082 -0.173664 0.653312 0
M  V30 5410 H 535.636 0.1256 2.05016 0
M  V30 5411 H 533.866 -2.14763 3.2158 0
M  V30 5412 H 535.555 -1.92749 3.57215 0
M  V30 5413 H 536.321 0.204546 4.84568 0
M  V30 5414 H 532.2 -0.973679 4.506 0
M  V30 5415 H 535.744 1.6188 6.78558 0
M  V30 5416 H 531.641 0.433366 6.44044 0
M  V30 5417 H 532.409 1.82762 7.97835 0
M  V30 5418 N 535.072 -1.5615 -0.213296 0
M  V30 5419 C 536.312 -1.81325 -0.943435 0
M  V30 5420 C 536.676 -0.634934 -1.81198 0
M  V30 5421 O 537.877 -0.766166 -2.5765 0
M  V30 5422 C 536.148 -3.11437 -1.75334 0
M  V30 5423 S 537.707 -3.57955 -2.53799 0
M  V30 5424 H 534.525 -0.636538 -0.316766 0
M  V30 5425 H 537.127 -1.94387 -0.208313 0
M  V30 5426 H 535.831 -3.95228 -1.10556 0
M  V30 5427 H 535.362 -3.01204 -2.53061 0
M  V30 5428 H 537.377 -3.21947 -3.77577 0
M  V30 5429 N 536.55 0.480323 -1.50102 0
M  V30 5430 C 537.78 1.25475 -1.64133 0
M  V30 5431 C 538.188 1.8647 -0.320272 0
M  V30 5432 O 537.531 1.69561 0.70673 0
M  V30 5433 C 537.593 2.40996 -2.6676 0
M  V30 5434 C 537.257 2.00711 -4.10565 0
M  V30 5435 C 538.254 1.53492 -4.96725 0
M  V30 5436 C 535.939 2.09714 -4.56427 0
M  V30 5437 C 537.933 1.15806 -6.26792 0
M  V30 5438 C 535.62 1.7164 -5.86501 0
M  V30 5439 C 536.618 1.24763 -6.71508 0
M  V30 5440 O 536.306 0.872122 -7.99155 0
M  V30 5441 H 536.038 0.385983 -0.554971 0
M  V30 5442 H 538.592 0.580848 -1.97016 0
M  V30 5443 H 536.822 3.11528 -2.291 0
M  V30 5444 H 538.511 3.02981 -2.70106 0
M  V30 5445 H 539.277 1.45966 -4.62514 0
M  V30 5446 H 535.156 2.4515 -3.90413 0
M  V30 5447 H 538.7 0.791465 -6.93096 0
M  V30 5448 H 534.597 1.78822 -6.20236 0
M  V30 5449 H 535.365 1.00178 -8.12346 0
M  V30 5450 N 538.028 1.39524 0.732853 0
M  V30 5451 C 539.444 1.21176 1.03868 0
M  V30 5452 C 539.644 0.0748448 2.01361 0
M  V30 5453 O 538.7 -0.57281 2.45917 0
M  V30 5454 C 540.013 2.54667 1.59892 0
M  V30 5455 C 541.561 2.6153 1.71962 0
M  V30 5456 C 542.036 3.95248 2.31394 0
M  V30 5457 N 543.527 3.96899 2.38801 0
M  V30 5458 C 544.262 4.97138 2.85729 0
M  V30 5459 N 543.758 6.07775 3.32537 0
M  V30 5460 N 545.551 4.84516 2.84957 0
M  V30 5461 H 537.702 2.12225 0.086304 0
M  V30 5462 H 539.965 0.942614 0.100907 0
M  V30 5463 H 539.671 3.38423 0.95721 0
M  V30 5464 H 539.545 2.74538 2.58668 0
M  V30 5465 H 541.932 1.78156 2.35254 0
M  V30 5466 H 542.013 2.45507 0.718327 0
M  V30 5467 H 541.657 4.79054 1.68729 0
M  V30 5468 H 541.587 4.08593 3.32204 0
M  V30 5469 H 544.078 3.16998 2.05719 0
M  V30 5470 H 544.391 6.8017 3.66862 0
M  V30 5471 H 542.736 6.11366 3.30541 0
M  V30 5472 H 545.927 3.97185 2.47713 0
M  V30 5473 H 546.1 5.62783 3.21215 0
M  V30 5474 N 539.506 -0.963266 1.24736 0
M  V30 5475 C 540.469 -2.04013 1.04457 0
M  V30 5476 C 541.469 -1.608 0.000335555 0
M  V30 5477 O 542.659 -1.72515 0.241719 0
M  V30 5478 C 539.791 -3.35858 0.584162 0
M  V30 5479 H 540.984 -2.23436 2.00041 0
M  V30 5480 H 538.537 -1.13914 1.07021 0
M  V30 5481 H 539.272 -3.22128 -0.374673 0
M  V30 5482 H 539.057 -3.68568 1.3379 0
M  V30 5483 H 540.547 -4.1502 0.463451 0
M  V30 5484 N 540.985 -1.06182 -1.16461 0
M  V30 5485 C 542.396 -0.802426 -1.68576 0
M  V30 5486 C 542.747 0.67412 -1.84255 0
M  V30 5487 O 541.872 1.52303 -1.5373 0
M  V30 5488 C 542.467 -1.45002 -3.06202 0
M  V30 5489 C 541.026 -1.23843 -3.55443 0
M  V30 5490 C 540.173 -1.52724 -2.31454 0
M  V30 5491 H 543.124 -1.22545 -1.00839 0
M  V30 5492 H 543.145 -0.864731 -3.70544 0
M  V30 5493 H 542.657 -2.52466 -2.94759 0
M  V30 5494 H 540.758 -0.183487 -3.72148 0
M  V30 5495 H 540.871 -1.95036 -4.37604 0
M  V30 5496 H 539.235 -0.947726 -2.36411 0
M  V30 5497 H 540.018 -2.61343 -2.22609 0
M  V30 5498 N 542.463 1.3308 -0.844243 0
M  V30 5499 C 543.711 1.97215 -0.441676 0
M  V30 5500 C 544.032 1.67185 1.0037 0
M  V30 5501 O 543.302 0.973588 1.69994 0
M  V30 5502 H 541.882 0.72959 -0.160335 0
M  V30 5503 H 544.544 1.62348 -1.07838 0
M  V30 5504 H 543.64 3.06698 -0.57815 0
M  V30 5505 N 543.941 0.601185 1.45683 0
M  V30 5506 C 544.904 -0.111398 2.28929 0
M  V30 5507 C 545.904 -0.801246 1.39416 0
M  V30 5508 O 547.094 -0.650383 1.61603 0
M  V30 5509 C 544.226 -1.16773 3.20276 0
M  V30 5510 H 545.419 0.620412 2.93413 0
M  V30 5511 H 542.972 0.359946 1.52099 0
M  V30 5512 H 543.707 -1.93051 2.60579 0
M  V30 5513 H 543.492 -0.677358 3.86205 0
M  V30 5514 H 544.982 -1.66698 3.82886 0
M  V30 5515 N 545.419 -1.53889 0.339982 0
M  V30 5516 C 546.83 -1.86139 -0.144671 0
M  V30 5517 C 547.181 -1.2613 -1.50285 0
M  V30 5518 O 546.306 -0.573515 -2.08662 0
M  V30 5519 C 546.901 -3.37728 -0.269285 0
M  V30 5520 C 545.46 -3.69868 -0.698168 0
M  V30 5521 C 544.607 -2.76777 0.170249 0
M  V30 5522 H 547.558 -1.48503 0.559704 0
M  V30 5523 H 547.579 -3.64331 -1.0974 0
M  V30 5524 H 547.091 -3.81375 0.719366 0
M  V30 5525 H 545.192 -3.31764 -1.69597 0
M  V30 5526 H 545.305 -4.76582 -0.490533 0
M  V30 5527 H 543.669 -2.52188 -0.356844 0
M  V30 5528 H 544.452 -3.23253 1.15597 0
M  V30 5529 N 546.897 -0.0685191 -1.57451 0
M  V30 5530 C 548.174 0.642167 -1.84758 0
M  V30 5531 C 548.554 1.87991 -0.960344 0
M  V30 5532 O 547.902 2.28485 -0.0257894 0
M  V30 5533 C 548.112 0.982946 -3.34872 0
M  V30 5534 C 549.46 1.35784 -4.02303 0
M  V30 5535 O 550.484 1.07477 -3.39598 0
M  V30 5536 O 549.343 1.88681 -5.12895 0
M  V30 5537 H 546.437 0.318625 -0.763156 0
M  V30 5538 H 548.983 -0.0992015 -1.6941 0
M  V30 5539 H 547.755 0.10372 -3.91163 0
M  V30 5540 H 547.378 1.78119 -3.55471 0
M  V30 5541 N 548.375 1.56261 0.205012 0
M  V30 5542 C 549.786 1.70056 0.770574 0
M  V30 5543 C 550.137 0.673398 1.84282 0
M  V30 5544 O 549.262 -0.172196 2.15714 0
M  V30 5545 C 549.857 3.08316 1.40451 0
M  V30 5546 C 548.416 3.2391 1.91727 0
M  V30 5547 C 547.563 2.66001 0.783516 0
M  V30 5548 H 550.514 1.58688 -0.019911 0
M  V30 5549 H 550.535 3.05094 2.27371 0
M  V30 5550 H 550.047 3.83053 0.623882 0
M  V30 5551 H 548.148 2.54072 2.7254 0
M  V30 5552 H 548.261 4.3131 2.08588 0
M  V30 5553 H 546.625 2.24915 1.19521 0
M  V30 5554 H 547.408 3.43297 0.0152883 0
M  V30 5555 N 549.853 -0.472356 1.50355 0
M  V30 5556 C 550.816 -1.5529 1.68576 0
M  V30 5557 C 551.816 -1.50863 0.556511 0
M  V30 5558 O 553.006 -1.53505 0.823516 0
M  V30 5559 C 550.138 -2.94921 1.70981 0
M  V30 5560 H 551.331 -1.40451 2.64978 0
M  V30 5561 H 548.884 -0.698645 1.39816 0
M  V30 5562 H 549.619 -3.15204 0.762675 0
M  V30 5563 H 549.404 -2.99541 2.53017 0
M  V30 5564 H 550.894 -3.73372 1.87037 0
M  V30 5565 N 551.331 -1.39911 -0.725443 0
M  V30 5566 C 552.742 -1.33599 -1.30415 0
M  V30 5567 C 553.093 -0.00481792 -1.96199 0
M  V30 5568 O 552.218 0.897275 -1.96921 0
M  V30 5569 C 552.813 -2.41965 -2.37146 0
M  V30 5570 C 551.372 -2.39144 -2.90667 0
M  V30 5571 C 550.519 -2.23355 -1.64341 0
M  V30 5572 H 553.47 -1.4986 -0.522267 0
M  V30 5573 H 553.491 -2.09304 -3.17761 0
M  V30 5574 H 553.003 -3.38837 -1.89238 0
M  V30 5575 H 551.104 -1.4594 -3.4283 0
M  V30 5576 H 551.217 -3.34362 -3.43131 0
M  V30 5577 H 549.581 -1.70696 -1.89037 0
M  V30 5578 H 550.364 -3.2221 -1.18471 0
M  V30 5579 N 552.809 0.956637 -1.25245 0
M  V30 5580 C 554.057 1.69764 -1.09657 0
M  V30 5581 C 554.378 1.91583 0.363464 0
M  V30 5582 O 553.648 1.50149 1.25825 0
M  V30 5583 H 552.228 0.629097 -0.402798 0
M  V30 5584 H 554.89 1.15026 -1.57337 0
M  V30 5585 H 553.986 2.67769 -1.60331 0
M  V30 5586 N 554.287 1.06798 1.15896 0
M  V30 5587 C 555.535 0.786211 1.8618 0
M  V30 5588 C 555.856 -0.689547 1.82401 0
M  V30 5589 O 555.126 -1.49913 1.26107 0
M  V30 5590 H 553.706 0.287843 0.689315 0
M  V30 5591 H 556.368 1.35055 1.40521 0
M  V30 5592 H 555.464 1.1157 2.91477 0
M  V30 5593 N 555.766 -1.3263 0.851289 0
M  V30 5594 C 557.012 -1.98061 0.462963 0
M  V30 5595 C 557.367 -1.66162 -0.969948 0
M  V30 5596 O 556.66 -0.937723 -1.67085 0
M  V30 5597 C 556.854 -3.51713 0.635015 0
M  V30 5598 C 556.683 -3.98544 2.0831 0
M  V30 5599 C 555.453 -4.25787 2.72091 0
M  V30 5600 C 557.651 -4.13858 3.0533 0
M  V30 5601 N 555.633 -4.58842 4.07845 0
M  V30 5602 C 557.004 -4.50412 4.26063 0
M  V30 5603 C 559.059 -3.96182 3.0157 0
M  V30 5604 C 557.762 -4.71136 5.43529 0
M  V30 5605 C 559.788 -4.18088 4.18278 0
M  V30 5606 C 559.15 -4.54956 5.37768 0
M  V30 5607 H 555.249 -0.750976 0.218082 0
M  V30 5608 H 557.833 -1.60514 1.10197 0
M  V30 5609 H 556.004 -3.88391 0.0257298 0
M  V30 5610 H 557.736 -4.04118 0.216915 0
M  V30 5611 H 554.491 -4.17734 2.23149 0
M  V30 5612 H 554.915 -4.7956 4.77862 0
M  V30 5613 H 559.557 -3.66783 2.1031 0
M  V30 5614 H 557.275 -4.9939 6.35323 0
M  V30 5615 H 560.861 -4.05918 4.168 0
M  V30 5616 H 559.741 -4.71567 6.26573 0
M  V30 5617 N 557.244 -0.608902 -1.45362 0
M  V30 5618 C 558.492 -0.104401 -2.0183 0
M  V30 5619 C 558.813 1.27007 -1.47967 0
M  V30 5620 O 558.083 1.83924 -0.674455 0
M  V30 5621 H 556.663 -0.0356042 -0.746151 0
M  V30 5622 H 559.325 -0.790596 -1.78145 0
M  V30 5623 H 558.421 -0.0551793 -3.12051 0
M  V30 5624 N 558.722 1.53707 -0.348139 0
M  V30 5625 C 559.968 2.01979 0.239986 0
M  V30 5626 C 560.323 1.23141 1.47831 0
M  V30 5627 O 559.616 0.311936 1.89044 0
M  V30 5628 C 559.81 3.52292 0.602061 0
M  V30 5629 C 559.639 4.45684 -0.599625 0
M  V30 5630 C 558.409 4.9304 -1.10635 0
M  V30 5631 C 560.607 4.93156 -1.4595 0
M  V30 5632 N 558.589 5.70394 -2.26988 0
M  V30 5633 C 559.96 5.6868 -2.46988 0
M  V30 5634 C 562.015 4.75257 -1.48441 0
M  V30 5635 C 560.718 6.28208 -3.50353 0
M  V30 5636 C 562.744 5.35639 -2.50689 0
M  V30 5637 C 562.106 6.11034 -3.50453 0
M  V30 5638 H 558.205 0.780335 0.0509992 0
M  V30 5639 H 560.789 1.88466 -0.488742 0
M  V30 5640 H 558.96 3.66002 1.29989 0
M  V30 5641 H 560.692 3.87304 1.17377 0
M  V30 5642 H 557.447 4.68784 -0.67371 0
M  V30 5643 H 557.871 6.13741 -2.85747 0
M  V30 5644 H 562.513 4.16508 -0.726707 0
M  V30 5645 H 560.231 6.86064 -4.27015 0
M  V30 5646 H 563.817 5.23693 -2.53449 0
M  V30 5647 H 562.697 6.56925 -4.28275 0
M  V30 5648 N 560.2 0.0768682 1.57412 0
M  V30 5649 C 561.448 -0.589918 1.93299 0
M  V30 5650 C 561.769 -1.69842 0.958049 0
M  V30 5651 O 561.039 -1.95899 0.00703261 0
M  V30 5652 H 559.619 -0.220901 0.713591 0
M  V30 5653 H 562.281 0.135917 1.94425 0
M  V30 5654 H 561.377 -1.01195 2.95239 0
M  V30 5655 N 561.678 -1.56367 -0.196722 0
M  V30 5656 C 562.924 -1.81698 -0.914182 0
M  V30 5657 C 563.279 -0.65367 -1.80956 0
M  V30 5658 O 562.572 0.351224 -1.88353 0
M  V30 5659 C 562.766 -3.10663 -1.767 0
M  V30 5660 C 562.595 -4.39428 -0.955689 0
M  V30 5661 C 561.365 -5.01221 -0.64076 0
M  V30 5662 C 563.563 -5.1337 -0.309165 0
M  V30 5663 N 561.545 -6.13608 0.189358 0
M  V30 5664 C 562.916 -6.18815 0.383225 0
M  V30 5665 C 564.971 -4.97393 -0.224726 0
M  V30 5666 C 563.674 -7.10015 1.15201 0
M  V30 5667 C 565.7 -5.89014 0.530658 0
M  V30 5668 C 565.062 -6.93903 1.2115 0
M  V30 5669 H 561.161 -0.716203 -0.31397 0
M  V30 5670 H 563.745 -1.93838 -0.18304 0
M  V30 5671 H 561.916 -2.99762 -2.46976 0
M  V30 5672 H 563.648 -3.24088 -2.42382 0
M  V30 5673 H 560.403 -4.63669 -0.96479 0
M  V30 5674 H 560.827 -6.74389 0.593979 0
M  V30 5675 H 565.469 -4.16331 -0.736754 0
M  V30 5676 H 563.187 -7.9054 1.67547 0
M  V30 5677 H 566.773 -5.78726 0.597326 0
M  V30 5678 H 565.653 -7.63576 1.78665 0
M  V30 5679 N 563.156 0.464375 -1.50603 0
M  V30 5680 C 564.119 1.54393 -1.69397 0
M  V30 5681 C 565.119 1.50566 -0.564504 0
M  V30 5682 O 566.309 1.53066 -0.831645 0
M  V30 5683 C 563.441 2.9401 -1.72543 0
M  V30 5684 H 564.634 1.39044 -2.65719 0
M  V30 5685 H 562.187 0.69122 -1.40185 0
M  V30 5686 H 562.922 3.14795 -0.77938 0
M  V30 5687 H 562.707 2.98195 -2.54602 0
M  V30 5688 H 564.197 3.72375 -1.89015 0
M  V30 5689 N 564.634 1.40294 0.718013 0
M  V30 5690 C 565.882 1.38167 1.47494 0
M  V30 5691 C 566.203 -0.01607 1.94993 0
M  V30 5692 O 565.473 -0.970396 1.70177 0
M  V30 5693 H 564.053 0.508505 0.547203 0
M  V30 5694 H 566.715 1.75324 0.851322 0
M  V30 5695 H 565.811 2.05503 2.34894 0
M  V30 5696 N 566.112 -0.949982 1.2575 0
M  V30 5697 C 567.36 -1.6918 1.10555 0
M  V30 5698 C 567.681 -1.91773 -0.353298 0
M  V30 5699 O 566.951 -1.50814 -1.25027 0
M  V30 5700 H 565.531 -0.626952 0.406129 0
M  V30 5701 H 568.193 -1.1419 1.57945 0
M  V30 5702 H 567.289 -2.66915 1.61749 0
M  V30 5703 N 567.59 -1.07411 -1.15328 0
M  V30 5704 C 568.838 -0.796073 -1.85761 0
M  V30 5705 C 569.159 0.679864 -1.82764 0
M  V30 5706 O 568.429 1.49242 -1.269 0
M  V30 5707 H 567.009 -0.291495 -0.687779 0
M  V30 5708 H 569.671 -1.35799 -1.39802 0
M  V30 5709 H 568.767 -1.13114 -2.90881 0
M  V30 5710 N 569.068 1.32177 -0.85831 0
M  V30 5711 C 570.316 1.96735 -0.462568 0
M  V30 5712 C 570.637 1.6824 0.985911 0
M  V30 5713 O 569.907 0.991564 1.68952 0
M  V30 5714 H 568.487 0.727849 -0.168064 0
M  V30 5715 H 571.149 1.61195 -1.09554 0
M  V30 5716 H 570.245 3.06068 -0.610647 0
M  V30 5717 N 570.547 0.616602 1.45037 0
M  V30 5718 C 571.793 0.123965 2.03022 0
M  V30 5719 C 572.148 -1.23508 1.47525 0
M  V30 5720 O 571.441 -1.80453 0.643981 0
M  V30 5721 C 571.635 0.0356829 3.57382 0
M  V30 5722 C 571.464 1.38462 4.27853 0
M  V30 5723 C 570.234 1.96766 4.65415 0
M  V30 5724 C 572.432 2.31536 4.59234 0
M  V30 5725 N 570.414 3.25046 5.20786 0
M  V30 5726 C 571.785 3.4442 5.15533 0
M  V30 5727 C 573.84 2.30796 4.41178 0
M  V30 5728 C 572.543 4.56742 5.55679 0
M  V30 5729 C 574.569 3.42171 4.82362 0
M  V30 5730 C 573.931 4.53778 5.38762 0
M  V30 5731 H 570.03 0.0889428 0.776925 0
M  V30 5732 H 572.614 0.816925 1.76733 0
M  V30 5733 H 570.785 -0.62652 3.83314 0
M  V30 5734 H 572.517 -0.464443 4.02026 0
M  V30 5735 H 569.272 1.4987 4.49261 0
M  V30 5736 H 569.696 3.90592 5.52962 0
M  V30 5737 H 574.338 1.45765 3.96878 0
M  V30 5738 H 572.056 5.42491 5.9894 0
M  V30 5739 H 575.642 3.42757 4.70116 0
M  V30 5740 H 574.522 5.38536 5.70043 0
M  V30 5741 N 572.025 -1.5352 0.356285 0
M  V30 5742 C 572.988 -2.24071 -0.482182 0
M  V30 5743 C 573.988 -1.24531 -1.01729 0
M  V30 5744 O 575.178 -1.48876 -0.904513 0
M  V30 5745 C 572.31 -2.97025 -1.67299 0
M  V30 5746 H 573.503 -2.99596 0.135031 0
M  V30 5747 H 571.056 -1.55928 0.107825 0
M  V30 5748 H 571.791 -2.25719 -2.32855 0
M  V30 5749 H 571.576 -3.7005 -1.29636 0
M  V30 5750 H 573.066 -3.50683 -2.26741 0
M  V30 5751 N 573.503 -0.0852151 -1.57369 0
M  V30 5752 C 574.751 0.579658 -1.93609 0
M  V30 5753 C 575.072 1.69332 -0.967043 0
M  V30 5754 O 574.342 1.95892 -0.0174215 0
M  V30 5755 H 572.922 0.217113 -0.714752 0
M  V30 5756 H 575.584 -0.146226 -1.94351 0
M  V30 5757 H 574.68 0.996276 -2.95771 0
M  V30 5758 N 574.981 1.5647 0.188427 0
M  V30 5759 C 576.229 1.80655 0.905986 0
M  V30 5760 C 576.55 0.659391 1.83513 0
M  V30 5761 O 575.82 -0.321868 1.93238 0
M  V30 5762 H 574.4 0.666391 0.337538 0
M  V30 5763 H 577.062 1.93949 0.192339 0
M  V30 5764 H 576.158 2.74066 1.49313 0
M  V30 5765 N 576.459 -0.456382 1.50847 0
M  V30 5766 C 577.422 -1.53493 1.70213 0
M  V30 5767 C 578.422 -1.50264 0.572481 0
M  V30 5768 O 579.612 -1.52623 0.839751 0
M  V30 5769 C 576.744 -2.93091 1.741 0
M  V30 5770 H 577.937 -1.37633 2.66453 0
M  V30 5771 H 575.49 -0.683776 1.4055 0
M  V30 5772 H 576.225 -3.14378 0.796063 0
M  V30 5773 H 576.01 -2.9684 2.5618 0
M  V30 5774 H 577.5 -3.71368 1.90987 0
M  V30 5775 N 577.937 -1.40673 -0.710563 0
M  V30 5776 C 579.353 -1.22813 -1.01928 0
M  V30 5777 C 579.553 -0.10687 -2.01216 0
M  V30 5778 O 578.609 0.533614 -2.46797 0
M  V30 5779 C 579.922 -2.57178 -1.5582 0
M  V30 5780 C 581.47 -2.64233 -1.67779 0
M  V30 5781 C 581.945 -3.98879 -2.25076 0
M  V30 5782 N 583.436 -4.00647 -2.32456 0
M  V30 5783 C 584.171 -5.01621 -2.77784 0
M  V30 5784 N 583.667 -6.12989 -3.22826 0
M  V30 5785 N 585.46 -4.88988 -2.77213 0
M  V30 5786 H 577.611 -2.12335 -0.05253 0
M  V30 5787 H 579.874 -0.9441 -0.085898 0
M  V30 5788 H 579.58 -3.39903 -0.903249 0
M  V30 5789 H 579.454 -2.78618 -2.54267 0
M  V30 5790 H 581.841 -1.81876 -2.3239 0
M  V30 5791 H 581.922 -2.46619 -0.679178 0
M  V30 5792 H 581.566 -4.81678 -1.61086 0
M  V30 5793 H 581.496 -4.13826 -3.25661 0
M  V30 5794 H 583.987 -3.20231 -2.0065 0
M  V30 5795 H 584.3 -6.85921 -3.55995 0
M  V30 5796 H 582.645 -6.16547 -3.20773 0
M  V30 5797 H 585.836 -4.01075 -2.41363 0
M  V30 5798 H 586.009 -5.67822 -3.12221 0
M  V30 5799 N 579.415 0.9433 -1.26252 0
M  V30 5800 C 580.692 1.66639 -1.02424 0
M  V30 5801 C 581.072 2.06335 0.446006 0
M  V30 5802 O 580.42 1.78551 1.42589 0
M  V30 5803 C 580.63 2.88019 -1.97094 0
M  V30 5804 C 581.978 3.59718 -2.25584 0
M  V30 5805 O 583.002 2.9812 -1.94943 0
M  V30 5806 O 581.861 4.7066 -2.77743 0
M  V30 5807 H 578.955 0.729643 -0.389294 0
M  V30 5808 H 581.501 0.995218 -1.37454 0
M  V30 5809 H 580.273 2.5556 -2.96319 0
M  V30 5810 H 579.896 3.62863 -1.62532 0
M  V30 5811 N 580.893 1.08022 1.14757 0
M  V30 5812 C 582.304 0.829144 1.67279 0
M  V30 5813 C 582.655 -0.644721 1.85305 0
M  V30 5814 O 581.78 -1.49838 1.56133 0
M  V30 5815 C 582.375 1.49855 3.03857 0
M  V30 5816 C 580.934 1.29482 3.53428 0
M  V30 5817 C 580.081 1.56386 2.28995 0
M  V30 5818 H 583.032 1.24134 0.988762 0
M  V30 5819 H 583.053 0.923572 3.69121 0
M  V30 5820 H 582.565 2.57123 2.90705 0
M  V30 5821 H 580.666 0.242669 3.71809 0
M  V30 5822 H 580.779 2.01974 4.34446 0
M  V30 5823 H 579.143 0.985217 2.34874 0
M  V30 5824 H 579.926 2.64851 2.18423 0
M  V30 5825 N 582.371 -1.3172 0.865308 0
M  V30 5826 C 583.334 -2.26918 0.322627 0
M  V30 5827 C 584.334 -1.52031 -0.523751 0
M  V30 5828 O 585.524 -1.70973 -0.333727 0
M  V30 5829 C 582.656 -3.36558 -0.542338 0
M  V30 5830 H 583.849 -2.76432 1.16298 0
M  V30 5831 H 581.402 -1.42573 0.640512 0
M  V30 5832 H 582.137 -2.92329 -1.40407 0
M  V30 5833 H 581.922 -3.92048 0.0636395 0
M  V30 5834 H 583.412 -4.07465 -0.91446 0
M  V30 5835 N 583.85 -0.624285 -1.44708 0
M  V30 5836 C 584.812 0.0749638 -2.29077 0
M  V30 5837 C 585.812 0.778965 -1.40673 0
M  V30 5838 O 587.003 0.624591 -1.62618 0
M  V30 5839 C 584.135 1.11663 -3.22094 0
M  V30 5840 H 585.327 -0.667013 -2.92388 0
M  V30 5841 H 582.88 -0.384098 -1.51507 0
M  V30 5842 H 583.615 1.88881 -2.63618 0
M  V30 5843 H 583.401 0.61583 -3.87234 0
M  V30 5844 H 584.891 1.60585 -3.8549 0
M  V30 5845 N 585.328 1.53329 -0.364422 0
M  V30 5846 C 586.574 2.02222 0.21855 0
M  V30 5847 C 586.929 1.24702 1.46517 0
M  V30 5848 O 586.222 0.331969 1.88702 0
M  V30 5849 C 586.416 3.52911 0.564661 0
M  V30 5850 C 586.245 4.45023 -0.646862 0
M  V30 5851 C 585.015 4.91838 -1.15858 0
M  V30 5852 C 587.213 4.91581 -1.51172 0
M  V30 5853 N 585.195 5.67955 -2.33025 0
M  V30 5854 C 586.566 5.66028 -2.53006 0
M  V30 5855 C 588.621 4.73656 -1.53473 0
M  V30 5856 C 587.324 6.24457 -3.56996 0
M  V30 5857 C 589.35 5.3295 -2.56356 0
M  V30 5858 C 588.712 6.07282 -3.56914 0
M  V30 5859 H 584.811 0.780832 0.0427199 0
M  V30 5860 H 587.395 1.87937 -0.508704 0
M  V30 5861 H 585.566 3.6736 1.26099 0
M  V30 5862 H 587.298 3.88528 1.13262 0
M  V30 5863 H 584.053 4.68043 -0.723393 0
M  V30 5864 H 584.477 6.10675 -2.92241 0
M  V30 5865 H 589.119 4.15714 -0.770842 0
M  V30 5866 H 586.837 6.81496 -4.34268 0
M  V30 5867 H 590.423 5.20976 -2.58989 0
M  V30 5868 H 589.303 6.52345 -4.35218 0
M  V30 5869 N 586.806 0.0935595 1.57322 0
M  V30 5870 C 588.034 -0.578934 1.98635 0
M  V30 5871 C 588.449 -1.61819 0.972626 0
M  V30 5872 O 587.806 -1.82461 -0.0379638 0
M  V30 5873 C 587.857 -1.22802 3.40003 0
M  V30 5874 O 587.578 -0.230334 4.37494 0
M  V30 5875 C 589.079 -1.98627 3.96311 0
M  V30 5876 H 586.299 -0.155324 0.652775 0
M  V30 5877 H 588.843 0.172393 2.03772 0
M  V30 5878 H 586.998 -1.93029 3.35885 0
M  V30 5879 H 587.412 -0.698649 5.19826 0
M  V30 5880 H 588.886 -2.39405 4.97382 0
M  V30 5881 H 589.363 -2.85151 3.34044 0
M  V30 5882 H 589.969 -1.3322 4.03897 0
M  V30 5883 N 588.284 -1.56567 -0.180126 0
M  V30 5884 C 589.695 -1.7126 -0.743422 0
M  V30 5885 C 590.046 -0.70263 -1.83187 0
M  V30 5886 O 589.171 0.137856 -2.1596 0
M  V30 5887 C 589.766 -3.10512 -1.35528 0
M  V30 5888 C 588.325 -3.26919 -1.8655 0
M  V30 5889 C 587.472 -2.67213 -0.741099 0
M  V30 5890 H 590.423 -1.58636 0.0451543 0
M  V30 5891 H 590.444 -3.08673 -2.22489 0
M  V30 5892 H 589.956 -3.83997 -0.562862 0
M  V30 5893 H 588.057 -2.58376 -2.68464 0
M  V30 5894 H 588.17 -4.34574 -2.01699 0
M  V30 5895 H 586.534 -2.26788 -1.15927 0
M  V30 5896 H 587.317 -3.43277 0.0393291 0
M  V30 5897 N 589.762 0.448376 -1.51087 0
M  V30 5898 C 590.692 1.55102 -1.74544 0
M  V30 5899 C 591.673 1.59357 -0.594932 0
M  V30 5900 O 592.858 1.75261 -0.836491 0
M  V30 5901 C 589.988 2.93268 -1.86041 0
M  V30 5902 C 588.942 3.03877 -3.01402 0
M  V30 5903 C 588.268 4.43914 -2.98068 0
M  V30 5904 C 589.568 2.7898 -4.41551 0
M  V30 5905 H 591.262 1.35724 -2.66869 0
M  V30 5906 H 588.808 0.651498 -1.28419 0
M  V30 5907 H 590.761 3.70356 -2.01034 0
M  V30 5908 H 589.485 3.13853 -0.903548 0
M  V30 5909 H 588.144 2.29227 -2.86096 0
M  V30 5910 H 587.792 4.6145 -2.00182 0
M  V30 5911 H 587.492 4.51944 -3.75527 0
M  V30 5912 H 589.016 5.22991 -3.1514 0
M  V30 5913 H 590.43 3.45805 -4.57265 0
M  V30 5914 H 588.827 2.98431 -5.20633 0
M  V30 5915 H 589.897 1.74663 -4.5235 0
M  V30 5916 N 591.24 1.41047 0.703093 0
M  V30 5917 C 592.19 1.38774 1.80903 0
M  V30 5918 C 593.174 0.263275 1.58731 0
M  V30 5919 O 594.366 0.503362 1.69692 0
M  V30 5920 C 591.495 1.26497 3.19145 0
M  V30 5921 C 590.581 2.43775 3.47037 0
M  V30 5922 N 590.972 3.69249 3.45672 0
M  V30 5923 C 589.27 2.37425 3.77552 0
M  V30 5924 C 589.971 4.46989 3.72258 0
M  V30 5925 N 588.947 3.76998 3.91629 0
M  V30 5926 H 592.749 2.33714 1.78199 0
M  V30 5927 H 590.263 1.34996 0.902762 0
M  V30 5928 H 592.26 1.2295 3.98358 0
M  V30 5929 H 590.92 0.32534 3.23066 0
M  V30 5930 H 591.931 4.02239 3.26228 0
M  V30 5931 H 588.608 1.51895 3.88888 0
M  V30 5932 H 589.998 5.55894 3.77402 0
M  V30 5933 N 592.718 -0.936591 1.26751 0
M  V30 5934 C 593.964 -1.6858 1.12733 0
M  V30 5935 C 594.297 -1.91414 -0.327745 0
M  V30 5936 O 593.572 -1.49812 -1.24043 0
M  V30 5937 C 593.855 -3.05779 1.90187 0
M  V30 5938 C 593.708 -2.90242 3.43627 0
M  V30 5939 C 595.027 -4.0597 1.69931 0
M  V30 5940 H 592.146 -0.61182 0.410908 0
M  V30 5941 H 594.788 -1.08747 1.55801 0
M  V30 5942 H 592.938 -3.56853 1.53584 0
M  V30 5943 H 594.61 -2.46354 3.9001 0
M  V30 5944 H 592.853 -2.2577 3.70419 0
M  V30 5945 H 593.524 -3.87572 3.93055 0
M  V30 5946 H 596 -3.63874 2.0183 0
M  V30 5947 H 594.876 -4.99974 2.26534 0
M  V30 5948 H 595.137 -4.37369 0.64502 0
M  V30 5949 O 594.235 -1.20928 -1.07045 0
M  V30 5950 H 594.926 -0.966183 -1.67883 0
M  V30 END ATOM
M  V30 BEGIN BOND
M  V30 END BOND
M  V30 END CTAB
M  END
$$$$
