drugbank_target|Q86U10 60 kDa lysophospholipase (DB00721)
 OpenBabel12092121203D

  0  0  0     0  0            999 V3000
M  V30 BEGIN CTAB
M  V30 COUNTS 8582 8659 0 0 0
M  V30 BEGIN ATOM
M  V30 1 H -0.908 1.98254 -0.117106 0
M  V30 2 N 0 1.576 0 0
M  V30 3 C 0.933 2.03868 1.02534 0
M  V30 4 C 1.911 0.928543 1.3348 0
M  V30 5 O 3.095 1.19667 1.45644 0
M  V30 6 C 0.222 2.43627 2.35294 0
M  V30 7 C -0.732 3.65373 2.2001 0
M  V30 8 S 0.101 5.13292 1.52614 0
M  V30 9 C 1.257 5.56322 2.86805 0
M  V30 10 H 1.49 2.90518 0.631377 0
M  V30 11 H -0.977 1.52953 0.210867 0
M  V30 12 H 0.981 2.67203 3.11629 0
M  V30 13 H -0.358 1.57376 2.7183 0
M  V30 14 H -1.165 3.90944 3.18086 0
M  V30 15 H -1.563 3.418 1.51819 0
M  V30 16 H 0.729 5.58782 3.83104 0
M  V30 17 H 1.672 6.56266 2.65933 0
M  V30 18 H 2.08 4.83886 2.90714 0
M  V30 19 N 1.4781 -0.272755 1.55222 0
M  V30 20 C 2.4411 -1.32041 1.87344 0
M  V30 21 C 3.4411 -1.42342 0.74803 0
M  V30 22 O 4.6311 -1.41488 1.0162 0
M  V30 23 C 1.7631 -2.70173 2.07893 0
M  V30 24 H 2.9561 -1.04789 2.80997 0
M  V30 25 H 0.5091 -0.51083 1.47717 0
M  V30 26 H 1.2441 -3.02605 1.16622 0
M  V30 27 H 1.0291 -2.64082 2.89833 0
M  V30 28 H 2.5191 -3.45869 2.34017 0
M  V30 29 N 2.9562 -1.48159 -0.537278 0
M  V30 30 C 4.3722 -1.34118 -0.865129 0
M  V30 31 C 4.5722 -0.346678 -1.98495 0
M  V30 32 O 3.6282 0.234715 -2.51407 0
M  V30 33 C 4.9412 -2.73963 -1.23954 0
M  V30 34 C 6.4892 -2.82397 -1.34984 0
M  V30 35 C 6.9642 -4.22928 -1.75772 0
M  V30 36 N 8.4552 -4.25566 -1.82887 0
M  V30 37 C 9.1902 -5.31235 -2.15817 0
M  V30 38 N 8.6862 -6.47189 -2.47222 0
M  V30 39 N 10.4792 -5.18624 -2.16761 0
M  V30 40 H 2.6302 -2.1144 0.201715 0
M  V30 41 H 4.8932 -0.947598 0.0275949 0
M  V30 42 H 4.5992 -3.48264 -0.490381 0
M  V30 43 H 4.4732 -3.0702 -2.19132 0
M  V30 44 H 6.8602 -2.08356 -2.08978 0
M  V30 45 H 6.9412 -2.5297 -0.379448 0
M  V30 46 H 6.5852 -4.97482 -1.02341 0
M  V30 47 H 6.5152 -4.49794 -2.73848 0
M  V30 48 H 9.0062 -3.41924 -1.60924 0
M  V30 49 H 9.3192 -7.23564 -2.71433 0
M  V30 50 H 7.6642 -6.50476 -2.44757 0
M  V30 51 H 10.8552 -4.27056 -1.91679 0
M  V30 52 H 11.0282 -6.01078 -2.42093 0
M  V30 53 N 4.4343 0.785586 -1.36625 0
M  V30 54 C 5.3973 1.87999 -1.31107 0
M  V30 55 C 6.3973 1.59316 -0.217959 0
M  V30 56 O 7.5873 1.67656 -0.472977 0
M  V30 57 C 4.7193 3.24861 -1.03334 0
M  V30 58 H 5.9123 1.94307 -2.2844 0
M  V30 59 H 3.4653 0.983813 -1.21453 0
M  V30 60 H 4.2003 3.24235 -0.0647432 0
M  V30 61 H 3.9853 3.4707 -1.82441 0
M  V30 62 H 5.4753 4.04929 -1.02088 0
M  V30 63 N 5.9124 1.20967 1.01018 0
M  V30 64 C 7.1584 1.02526 1.74975 0
M  V30 65 C 7.4914 -0.4408 1.89131 0
M  V30 66 O 6.7664 -1.32718 1.42184 0
M  V30 67 C 7.0494 1.71699 3.1653 0
M  V30 68 C 6.9024 3.25791 3.10129 0
M  V30 69 C 8.2214 1.45531 4.15342 0
M  V30 70 H 5.3404 0.373863 0.635134 0
M  V30 71 H 7.9824 1.49071 1.17805 0
M  V30 72 H 6.1324 1.32128 3.65341 0
M  V30 73 H 7.8044 3.74697 2.69072 0
M  V30 74 H 6.0474 3.56363 2.47362 0
M  V30 75 H 6.7184 3.69353 4.10222 0
M  V30 76 H 9.1944 1.79872 3.75213 0
M  V30 77 H 8.0704 1.96453 5.1254 0
M  V30 78 H 8.3314 0.384237 4.40427 0
M  V30 79 N 7.3905 -1.2043 1.01659 0
M  V30 80 C 8.6385 -1.89423 0.704522 0
M  V30 81 C 8.9595 -1.79231 -0.768197 0
M  V30 82 O 8.2295 -1.1947 -1.55254 0
M  V30 83 H 6.8095 -0.701178 0.257602 0
M  V30 84 H 9.4715 -1.4626 1.28818 0
M  V30 85 H 8.5675 -2.96052 0.987916 0
M  V30 86 N 8.8686 -0.792821 -1.36206 0
M  V30 87 C 10.2796 -0.429513 -1.81692 0
M  V30 88 C 10.6306 1.04695 -1.65932 0
M  V30 89 O 9.7556 1.81256 -1.18218 0
M  V30 90 C 10.3506 -0.772831 -3.29868 0
M  V30 91 C 8.9096 -0.462307 -3.7355 0
M  V30 92 C 8.0566 -1.00569 -2.5842 0
M  V30 93 H 11.0076 -0.985672 -1.24379 0
M  V30 94 H 11.0286 -0.0651928 -3.80444 0
M  V30 95 H 10.5406 -1.84747 -3.41307 0
M  V30 96 H 8.6416 0.604158 -3.67669 0
M  V30 97 H 8.7546 -0.985299 -4.68859 0
M  V30 98 H 7.1186 -0.428734 -2.51066 0
M  V30 99 H 7.9016 -2.08616 -2.72643 0
M  V30 100 N 10.3467 1.47872 -0.545128 0
M  V30 101 C 11.2567 2.33633 0.212746 0
M  V30 102 C 12.2727 1.4744 0.923983 0
M  V30 103 O 13.4487 1.80393 0.895572 0
M  V30 104 C 10.5137 3.23884 1.23693 0
M  V30 105 C 9.5747 4.25961 0.534417 0
M  V30 106 C 8.8077 5.11899 1.5098 0
M  V30 107 O 9.0307 5.00077 2.7437 0
M  V30 108 O 7.9647 5.92831 1.0409 0
M  V30 109 H 11.7907 2.99714 -0.490416 0
M  V30 110 H 9.3757 1.46235 -0.305871 0
M  V30 111 H 11.2577 3.79666 1.82843 0
M  V30 112 H 9.9327 2.60446 1.92222 0
M  V30 113 H 8.8397 3.73972 -0.0979679 0
M  V30 114 H 10.1727 4.92079 -0.109213 0
M  V30 115 N 11.8248 0.280983 1.55075 0
M  V30 116 C 13.2408 -0.0729964 1.59433 0
M  V30 117 C 13.4408 -1.5411 1.29817 0
M  V30 118 O 12.4968 -2.29086 1.06187 0
M  V30 119 C 13.8098 0.306921 2.9913 0
M  V30 120 C 15.3578 0.254023 3.11968 0
M  V30 121 C 15.8328 0.608467 4.5394 0
M  V30 122 N 17.3238 0.560241 4.59799 0
M  V30 123 C 18.0588 0.80722 5.6769 0
M  V30 124 N 17.5548 1.11912 6.83701 0
M  V30 125 N 19.3478 0.735623 5.57266 0
M  V30 126 H 11.4988 1.238 1.7259 0
M  V30 127 H 13.7618 0.500547 0.805082 0
M  V30 128 H 13.4678 1.32816 3.25657 0
M  V30 129 H 13.3418 -0.349363 3.75579 0
M  V30 130 H 15.7288 -0.75794 2.852 0
M  V30 131 H 15.8098 0.944649 2.37718 0
M  V30 132 H 15.4538 1.61814 4.81434 0
M  V30 133 H 15.3838 -0.104013 5.26497 0
M  V30 134 H 17.8748 0.329288 3.76463 0
M  V30 135 H 18.1878 1.29409 7.61888 0
M  V30 136 H 16.5328 1.15695 6.85303 0
M  V30 137 H 19.7238 0.491752 4.6551 0
M  V30 138 H 19.8968 0.931482 6.4127 0
M  V30 139 N 13.3029 -1.57598 0.00835791 0
M  V30 140 C 14.7189 -1.55764 -0.347822 0
M  V30 141 C 14.9189 -1.01186 -1.74252 0
M  V30 142 O 13.9749 -0.649371 -2.44007 0
M  V30 143 C 15.2879 -2.99927 -0.215407 0
M  V30 144 C 16.8359 -3.11656 -0.289725 0
M  V30 145 C 17.3109 -4.57621 -0.18634 0
M  V30 146 N 18.8019 -4.62557 -0.243978 0
M  V30 147 C 19.5369 -5.73094 -0.18745 0
M  V30 148 N 19.0329 -6.92753 -0.0810331 0
M  V30 149 N 20.8259 -5.61588 -0.239925 0
M  V30 150 H 12.9769 -1.91411 0.92062 0
M  V30 151 H 15.2399 -0.879562 0.353659 0
M  V30 152 H 14.9459 -3.43729 0.744512 0
M  V30 153 H 14.8199 -3.63865 -0.994097 0
M  V30 154 H 17.2069 -2.67779 -1.24009 0
M  V30 155 H 17.2879 -2.5048 0.51898 0
M  V30 156 H 16.9319 -5.02174 0.760519 0
M  V30 157 H 16.8619 -5.16752 -1.01364 0
M  V30 158 H 19.3529 -3.76481 -0.327217 0
M  V30 159 H 19.6659 -7.72787 -0.0440241 0
M  V30 160 H 18.0109 -6.94984 -0.0465419 0
M  V30 161 H 21.2019 -4.66996 -0.321317 0
M  V30 162 H 21.3749 -6.47714 -0.192407 0
M  V30 163 N 14.781 0.264519 -1.55364 0
M  V30 164 C 15.711 1.33121 -1.91836 0
M  V30 165 C 16.692 1.51101 -0.781192 0
M  V30 166 O 17.877 1.64003 -1.04003 0
M  V30 167 C 15.007 2.68921 -2.19769 0
M  V30 168 C 13.961 2.65661 -3.35571 0
M  V30 169 C 13.287 4.05093 -3.49004 0
M  V30 170 C 14.587 2.24187 -4.71739 0
M  V30 171 H 16.281 1.02844 -2.81182 0
M  V30 172 H 13.827 0.493286 -1.35287 0
M  V30 173 H 15.78 3.43663 -2.43872 0
M  V30 174 H 14.504 3.00799 -1.27231 0
M  V30 175 H 13.163 1.93377 -3.1145 0
M  V30 176 H 12.811 4.34206 -2.53917 0
M  V30 177 H 12.511 4.03804 -4.26868 0
M  V30 178 H 14.035 4.81561 -3.75408 0
M  V30 179 H 15.449 2.88654 -4.9533 0
M  V30 180 H 13.846 2.34044 -5.52579 0
M  V30 181 H 14.916 1.19327 -4.69988 0
M  V30 182 N 16.2591 1.48442 0.529413 0
M  V30 183 C 17.1891 1.65902 1.64313 0
M  V30 184 C 18.1701 0.507897 1.6234 0
M  V30 185 O 19.3551 0.740503 1.79528 0
M  V30 186 C 16.4851 1.69911 3.02898 0
M  V30 187 C 15.4391 2.8453 3.19729 0
M  V30 188 C 14.7651 2.73629 4.59381 0
M  V30 189 C 16.0651 4.25821 3.02447 0
M  V30 190 H 17.7591 2.5914 1.49955 0
M  V30 191 H 15.3051 1.24709 0.719982 0
M  V30 192 H 17.2581 1.80715 3.80684 0
M  V30 193 H 15.9821 0.732524 3.18279 0
M  V30 194 H 14.6411 2.73283 2.44361 0
M  V30 195 H 14.2891 1.74938 4.71599 0
M  V30 196 H 13.9891 3.50541 4.71588 0
M  V30 197 H 15.5131 2.86401 5.39265 0
M  V30 198 H 16.9271 4.37898 3.70024 0
M  V30 199 H 15.3241 5.03735 3.26146 0
M  V30 200 H 16.3941 4.42244 1.98867 0
M  V30 201 N 17.7372 -0.778329 1.37039 0
M  V30 202 C 18.7002 -1.87301 1.32102 0
M  V30 203 C 19.7002 -1.59198 0.226405 0
M  V30 204 O 20.8902 -1.67403 0.481861 0
M  V30 205 C 18.0222 -3.24309 1.05055 0
M  V30 206 H 19.2152 -1.93093 2.29467 0
M  V30 207 H 16.7682 -0.977358 1.21973 0
M  V30 208 H 17.5032 -3.24196 0.0819373 0
M  V30 209 H 17.2882 -3.46098 1.84279 0
M  V30 210 H 18.7782 -4.04382 1.04234 0
M  V30 211 N 19.2153 -1.21501 -1.00376 0
M  V30 212 C 20.4613 -1.03452 -1.74429 0
M  V30 213 C 20.7943 0.430764 -1.89362 0
M  V30 214 O 20.0693 1.31962 -1.42886 0
M  V30 215 C 20.3523 -1.73375 -3.15615 0
M  V30 216 C 20.2053 -3.27431 -3.08397 0
M  V30 217 C 21.5243 -1.47732 -4.14564 0
M  V30 218 H 18.6433 -0.377226 -0.633143 0
M  V30 219 H 21.2853 -1.49693 -1.17013 0
M  V30 220 H 19.4353 -1.34064 -3.64636 0
M  V30 221 H 21.1073 -3.76119 -2.67081 0
M  V30 222 H 19.3503 -3.5767 -2.45468 0
M  V30 223 H 20.0213 -3.71524 -4.08258 0
M  V30 224 H 22.4973 -1.8186 -3.74254 0
M  V30 225 H 21.3733 -1.99169 -5.11491 0
M  V30 226 H 21.6343 -0.407589 -4.40217 0
M  V30 227 N 20.6934 1.19889 -1.02296 0
M  V30 228 C 21.9234 1.93109 -0.734332 0
M  V30 229 C 22.3314 1.75377 0.709889 0
M  V30 230 O 21.6744 1.06912 1.49384 0
M  V30 231 C 21.7364 3.45362 -0.99827 0
M  V30 232 C 21.4004 3.8686 -2.43287 0
M  V30 233 C 22.3974 3.92102 -3.41397 0
M  V30 234 C 20.0824 4.18668 -2.77529 0
M  V30 235 C 22.0764 4.28573 -4.71809 0
M  V30 236 C 19.7634 4.54813 -4.08153 0
M  V30 237 C 20.7614 4.59739 -5.05103 0
M  V30 238 O 20.4494 4.95051 -6.33388 0
M  V30 239 H 20.1814 0.620409 -0.268456 0
M  V30 240 H 22.7354 1.53144 -1.3688 0
M  V30 241 H 20.9654 3.85482 -0.306645 0
M  V30 242 H 22.6544 3.99814 -0.700234 0
M  V30 243 H 23.4204 3.67685 -3.1628 0
M  V30 244 H 19.2994 4.14021 -2.0275 0
M  V30 245 H 22.8434 4.32333 -5.4748 0
M  V30 246 H 18.7404 4.78687 -4.33047 0
M  V30 247 H 19.5084 5.1302 -6.37772 0
M  V30 248 N 22.1715 0.800033 1.35784 0
M  V30 249 C 23.3995 0.389606 2.03199 0
M  V30 250 C 23.8145 -0.997375 1.60306 0
M  V30 251 O 23.1715 -1.64154 0.797481 0
M  V30 252 C 23.2225 0.455855 3.58614 0
M  V30 253 O 22.9435 1.78815 3.99946 0
M  V30 254 C 24.4445 0.0374032 4.43284 0
M  V30 255 H 21.6645 0.159132 0.651857 0
M  V30 256 H 24.2085 1.08183 1.73541 0
M  V30 257 H 22.3635 -0.188057 3.86943 0
M  V30 258 H 22.7775 1.74636 4.94573 0
M  V30 259 H 24.2515 0.134882 5.51835 0
M  V30 260 H 24.7285 -1.01651 4.27275 0
M  V30 261 H 25.3345 0.654215 4.20238 0
M  V30 262 N 23.6496 -1.47581 0.552962 0
M  V30 263 C 24.8976 -2.02082 0.0272703 0
M  V30 264 C 25.2186 -1.4301 -1.32563 0
M  V30 265 O 24.4886 -0.603745 -1.86365 0
M  V30 266 H 23.0686 -0.746966 0.00709182 0
M  V30 267 H 25.7306 -1.81033 0.722008 0
M  V30 268 H 24.8266 -3.12034 -0.0639951 0
M  V30 269 N 25.1277 -0.289203 -1.54924 0
M  V30 270 C 26.3757 0.322879 -1.99504 0
M  V30 271 C 26.6967 1.55313 -1.1791 0
M  V30 272 O 25.9667 1.94001 -0.272097 0
M  V30 273 H 24.5467 0.122291 -0.736922 0
M  V30 274 H 27.2087 -0.397802 -1.90797 0
M  V30 275 H 26.3047 0.603061 -3.06218 0
M  V30 276 N 26.6058 1.57591 -0.0167156 0
M  V30 277 C 27.8338 1.95575 0.675128 0
M  V30 278 C 28.2488 0.892542 1.6637 0
M  V30 279 O 27.6058 -0.126912 1.82058 0
M  V30 280 C 27.6568 3.33608 1.39239 0
M  V30 281 O 27.3778 4.3585 0.443444 0
M  V30 282 C 28.8788 3.86151 2.17721 0
M  V30 283 H 26.0988 0.644423 0.186978 0
M  V30 284 H 28.6428 2.0437 -0.0728 0
M  V30 285 H 26.7978 3.2607 2.09182 0
M  V30 286 H 27.2118 5.158 0.951358 0
M  V30 287 H 28.6858 4.85114 2.63379 0
M  V30 288 H 29.1628 3.19738 3.01105 0
M  V30 289 H 29.7688 3.96918 1.52761 0
M  V30 290 N 28.0839 -0.256276 1.55502 0
M  V30 291 C 29.3329 -0.983486 1.76098 0
M  V30 292 C 29.6459 -1.86837 0.578896 0
M  V30 293 O 30.8519 -2.63163 0.667648 0
M  V30 294 C 29.3079 -1.79868 3.1173 0
M  V30 295 C 28.9159 -0.961648 4.37557 0
M  V30 296 C 30.6599 -2.51919 3.41668 0
M  V30 297 C 28.5669 -1.77219 5.64223 0
M  V30 298 H 27.4969 -0.370936 0.656447 0
M  V30 299 H 30.1479 -0.238492 1.81944 0
M  V30 300 H 28.5299 -2.58527 2.99966 0
M  V30 301 H 29.7039 -0.218048 4.60284 0
M  V30 302 H 28.0189 -0.354913 4.14885 0
M  V30 303 H 30.6159 -3.12998 4.33516 0
M  V30 304 H 30.9589 -3.23059 2.62562 0
M  V30 305 H 31.4919 -1.80278 3.54605 0
M  V30 306 H 28.2309 -1.10471 6.46124 0
M  V30 307 H 27.7509 -2.49132 5.45613 0
M  V30 308 H 29.4299 -2.34169 6.03137 0
M  V30 309 N 29.562 -1.4872 -0.521534 0
M  V30 310 C 30.81 -1.56857 -1.27437 0
M  V30 311 C 31.131 -0.247982 -1.93417 0
M  V30 312 O 30.401 0.731151 -1.81744 0
M  V30 313 H 28.981 -0.577885 -0.473347 0
M  V30 314 H 31.643 -1.85233 -0.606205 0
M  V30 315 H 30.739 -2.35402 -2.0492 0
M  V30 316 N 31.0401 0.771051 -1.3745 0
M  V30 317 C 31.9731 1.89166 -1.27638 0
M  V30 318 C 32.9511 1.61842 -0.156782 0
M  V30 319 O 34.1351 1.85569 -0.331111 0
M  V30 320 C 31.2621 3.24405 -0.973621 0
M  V30 321 C 30.3081 3.70638 -2.1102 0
M  V30 322 S 31.1411 3.84228 -3.73 0
M  V30 323 C 32.2971 5.22313 -3.44876 0
M  V30 324 H 32.5301 1.972 -2.22485 0
M  V30 325 H 30.0631 0.932224 -1.23081 0
M  V30 326 H 32.0211 4.02514 -0.805766 0
M  V30 327 H 30.6821 3.14071 -0.0426279 0
M  V30 328 H 29.8751 4.68685 -1.85338 0
M  V30 329 H 29.4771 2.99632 -2.23822 0
M  V30 330 H 31.7691 6.07505 -2.99908 0
M  V30 331 H 32.7121 5.53008 -4.42253 0
M  V30 332 H 33.1201 4.90284 -2.79789 0
M  V30 333 N 32.5182 1.22032 0.997298 0
M  V30 334 C 33.9342 0.979326 1.26021 0
M  V30 335 C 34.1342 -0.32972 1.98784 0
M  V30 336 O 33.1902 -1.05345 2.29475 0
M  V30 337 C 34.5032 2.17509 2.07631 0
M  V30 338 C 36.0512 2.21817 2.2083 0
M  V30 339 C 36.5262 3.40933 3.05825 0
M  V30 340 N 38.0172 3.41067 3.13412 0
M  V30 341 C 38.7522 4.29885 3.79455 0
M  V30 342 N 38.2482 5.28914 4.47462 0
M  V30 343 N 40.0412 4.17673 3.76173 0
M  V30 344 H 32.1922 2.06202 0.509352 0
M  V30 345 H 34.4552 0.90334 0.287541 0
M  V30 346 H 34.1612 3.12415 1.61524 0
M  V30 347 H 34.0352 2.17206 3.08385 0
M  V30 348 H 36.4222 1.27462 2.66153 0
M  V30 349 H 36.5032 2.2616 1.1952 0
M  V30 350 H 36.1472 4.35586 2.61203 0
M  V30 351 H 36.0772 3.33829 4.07266 0
M  V30 352 H 38.5682 2.69406 2.65007 0
M  V30 353 H 38.8812 5.92973 4.95583 0
M  V30 354 H 37.2262 5.32831 4.46224 0
M  V30 355 H 40.4172 3.39564 3.22202 0
M  V30 356 H 40.5902 4.87098 4.27363 0
M  V30 357 N 33.9963 -1.19345 1.0293 0
M  V30 358 C 35.2213 -1.93538 0.745511 0
M  V30 359 C 35.6463 -1.75007 -0.689511 0
M  V30 360 O 35.0043 -1.05265 -1.47611 0
M  V30 361 C 35.0523 -3.43336 1.10239 0
M  V30 362 O 34.1563 -4.11806 0.221289 0
M  V30 363 H 33.4973 -0.604193 0.275404 0
M  V30 364 H 36.0273 -1.5141 1.37609 0
M  V30 365 H 36.0373 -3.94004 1.05947 0
M  V30 366 H 34.7123 -3.56146 2.14786 0
M  V30 367 H 33.2893 -3.715 0.322842 0
M  V30 368 N 35.4744 -0.807222 -1.35358 0
M  V30 369 C 36.3844 -0.219594 -2.3357 0
M  V30 370 C 37.4004 0.637734 -1.61892 0
M  V30 371 O 38.5764 0.549336 -1.93763 0
M  V30 372 C 35.6414 0.62158 -3.41083 0
M  V30 373 C 34.7024 -0.256315 -4.28534 0
M  V30 374 C 33.9354 0.544807 -5.30912 0
M  V30 375 O 34.1584 1.77944 -5.41934 0
M  V30 376 O 33.0924 -0.0646478 -6.01865 0
M  V30 377 H 36.9184 -1.03208 -2.85625 0
M  V30 378 H 34.5034 -0.569025 -1.38139 0
M  V30 379 H 36.3854 1.10067 -4.06772 0
M  V30 380 H 35.0604 1.41165 -2.91297 0
M  V30 381 H 33.9674 -0.782559 -3.65823 0
M  V30 382 H 35.3004 -1.01034 -4.81719 0
M  V30 383 N 36.9525 1.47285 -0.560781 0
M  V30 384 C 37.8825 2.32857 0.173105 0
M  V30 385 C 38.8635 1.44009 0.905281 0
M  V30 386 O 40.0485 1.7286 0.885046 0
M  V30 387 C 37.1785 3.25861 1.20133 0
M  V30 388 C 36.1325 4.23978 0.585388 0
M  V30 389 C 35.4585 5.06332 1.7185 0
M  V30 390 C 36.7585 5.20242 -0.463178 0
M  V30 391 H 38.4525 2.94466 -0.541307 0
M  V30 392 H 35.9985 1.41601 -0.261764 0
M  V30 393 H 37.9515 3.84569 1.72293 0
M  V30 394 H 36.6755 2.62315 1.94573 0
M  V30 395 H 35.3345 3.66501 0.085054 0
M  V30 396 H 34.9825 4.39186 2.45203 0
M  V30 397 H 34.6825 5.72762 1.31213 0
M  V30 398 H 36.2065 5.67899 2.24329 0
M  V30 399 H 37.6205 5.73293 -0.027502 0
M  V30 400 H 36.0175 5.94896 -0.788627 0
M  V30 401 H 37.0875 4.65504 -1.35773 0
M  V30 402 N 38.4306 0.297415 1.54768 0
M  V30 403 C 39.6786 -0.312295 1.99673 0
M  V30 404 C 39.9996 -1.54686 1.18732 0
M  V30 405 O 39.2696 -1.93854 0.282382 0
M  V30 406 H 37.8496 -0.118381 0.73756 0
M  V30 407 H 40.5116 0.407915 1.90583 0
M  V30 408 H 39.6076 -0.586813 3.06534 0
M  V30 409 N 39.9087 -1.5758 0.0250728 0
M  V30 410 C 41.1547 -1.91917 -0.655413 0
M  V30 411 C 41.4877 -0.901433 -1.72011 0
M  V30 412 O 40.7627 0.0764069 -1.9435 0
M  V30 413 C 41.0457 -3.36751 -1.27558 0
M  V30 414 C 40.8987 -4.49258 -0.220719 0
M  V30 415 C 42.2177 -3.81469 -2.19475 0
M  V30 416 H 39.3367 -0.697925 -0.23679 0
M  V30 417 H 41.9787 -1.89825 0.0815036 0
M  V30 418 H 40.1287 -3.38664 -1.90365 0
M  V30 419 H 41.8007 -4.59478 0.409601 0
M  V30 420 H 40.0437 -4.31415 0.454264 0
M  V30 421 H 40.7147 -5.47618 -0.694175 0
M  V30 422 H 43.1907 -3.81266 -1.66659 0
M  V30 423 H 42.0667 -4.83512 -2.59822 0
M  V30 424 H 42.3277 -3.16744 -3.08424 0
M  V30 425 N 41.3868 0.248026 -1.55636 0
M  V30 426 C 42.3168 1.31079 -1.93237 0
M  V30 427 C 43.2978 1.50264 -0.797174 0
M  V30 428 O 44.4828 1.62891 -1.05737 0
M  V30 429 C 41.6128 2.66575 -2.22609 0
M  V30 430 C 40.5668 2.62087 -3.3837 0
M  V30 431 C 39.8928 4.01369 -3.53281 0
M  V30 432 C 41.1928 2.19171 -4.7409 0
M  V30 433 H 42.8868 0.998556 -2.82257 0
M  V30 434 H 40.4328 0.47891 -1.35803 0
M  V30 435 H 42.3858 3.41057 -2.47503 0
M  V30 436 H 41.1098 2.99432 -1.30414 0
M  V30 437 H 39.7688 1.90063 -3.13483 0
M  V30 438 H 39.4168 4.31489 -2.58508 0
M  V30 439 H 39.1168 3.99254 -4.31127 0
M  V30 440 H 40.6408 4.77552 -3.80495 0
M  V30 441 H 42.0548 2.83384 -4.98363 0
M  V30 442 H 40.4518 2.2817 -5.5503 0
M  V30 443 H 41.5218 1.14336 -4.71227 0
M  V30 444 N 42.8649 1.48995 0.513639 0
M  V30 445 C 44.1109 1.58076 1.27042 0
M  V30 446 C 44.4439 0.261026 1.92438 0
M  V30 447 O 43.7189 -0.734393 1.80103 0
M  V30 448 C 44.0019 2.73091 2.34719 0
M  V30 449 C 43.8549 4.14821 1.73907 0
M  V30 450 C 45.1739 2.83796 3.36375 0
M  V30 451 H 42.2929 0.575391 0.460536 0
M  V30 452 H 44.9349 1.81232 0.570516 0
M  V30 453 H 43.0849 2.53479 2.94416 0
M  V30 454 H 44.7569 4.45917 1.18135 0
M  V30 455 H 42.9999 4.21058 1.0437 0
M  V30 456 H 43.6709 4.91147 2.51949 0
M  V30 457 H 46.1469 3.01611 2.86653 0
M  V30 458 H 45.0229 3.65971 4.09093 0
M  V30 459 H 45.2839 1.92624 3.9793 0
M  V30 460 N 44.343 -0.763751 1.37857 0
M  V30 461 C 45.754 -1.3405 1.29952 0
M  V30 462 C 46.105 -1.96138 -0.0492898 0
M  V30 463 O 45.23 -1.94372 -0.951239 0
M  V30 464 C 45.825 -2.43729 2.35333 0
M  V30 465 C 44.384 -2.97151 2.31037 0
M  V30 466 C 43.531 -1.70438 2.18738 0
M  V30 467 H 46.482 -0.563396 1.48363 0
M  V30 468 H 46.503 -3.23412 2.00462 0
M  V30 469 H 46.015 -1.9851 3.33489 0
M  V30 470 H 44.116 -3.46724 1.3643 0
M  V30 471 H 44.229 -3.52221 3.24772 0
M  V30 472 H 42.593 -1.93673 1.65418 0
M  V30 473 H 43.376 -1.27312 3.18821 0
M  V30 474 N 45.8211 -1.22559 -0.990812 0
M  V30 475 C 47.0691 -1.04933 -1.72724 0
M  V30 476 C 47.3901 0.416158 -1.90508 0
M  V30 477 O 46.6601 1.29918 -1.46622 0
M  V30 478 H 45.2401 -0.385296 -0.639965 0
M  V30 479 H 47.9021 -1.54105 -1.19322 0
M  V30 480 H 46.9981 -1.52886 -2.72089 0
M  V30 481 N 47.2992 1.18797 -1.03562 0
M  V30 482 C 48.5272 1.92599 -0.755869 0
M  V30 483 C 48.9422 1.75886 0.686271 0
M  V30 484 O 48.2992 1.08517 1.46732 0
M  V30 485 C 48.3502 3.44159 -1.10619 0
M  V30 486 O 48.0712 3.60341 -2.4917 0
M  V30 487 C 49.5722 4.3507 -0.850214 0
M  V30 488 H 46.7922 0.611587 -0.276048 0
M  V30 489 H 49.3362 1.50742 -1.38192 0
M  V30 490 H 47.4912 3.83823 -0.525194 0
M  V30 491 H 47.9052 4.54128 -2.62427 0
M  V30 492 H 49.3792 5.39989 -1.14523 0
M  V30 493 H 49.8562 4.38673 0.215176 0
M  V30 494 H 50.4622 4.01097 -1.41426 0
M  V30 495 N 48.7773 0.814389 1.34928 0
M  V30 496 C 50.0253 0.397636 1.9815 0
M  V30 497 C 50.3463 -1.04069 1.64908 0
M  V30 498 O 49.6163 -1.72121 0.93548 0
M  V30 499 H 48.1963 0.144043 0.732981 0
M  V30 500 H 50.8583 1.04195 1.6471 0
M  V30 501 H 49.9543 0.509688 3.0791 0
M  V30 502 N 50.2554 -1.46986 0.568584 0
M  V30 503 C 51.1854 -2.32946 -0.160753 0
M  V30 504 C 52.1664 -1.44487 -0.897631 0
M  V30 505 O 53.3514 -1.73327 -0.875867 0
M  V30 506 C 50.4814 -3.26494 -1.18403 0
M  V30 507 C 49.4354 -4.24282 -0.562895 0
M  V30 508 C 48.7614 -5.07236 -1.69163 0
M  V30 509 C 50.0614 -5.19989 0.490761 0
M  V30 510 H 51.7554 -2.94175 0.556916 0
M  V30 511 H 49.3014 -1.4146 0.26927 0
M  V30 512 H 51.2544 -3.85477 -1.70251 0
M  V30 513 H 49.9784 -2.63343 -1.93179 0
M  V30 514 H 48.6374 -3.66541 -0.0656164 0
M  V30 515 H 48.2854 -4.4048 -2.42871 0
M  V30 516 H 47.9854 -5.7345 -1.28174 0
M  V30 517 H 49.5094 -5.6908 -2.21314 0
M  V30 518 H 50.9234 -5.73271 0.0579047 0
M  V30 519 H 49.3204 -5.94469 0.820165 0
M  V30 520 H 50.3904 -4.64777 1.3824 0
M  V30 521 N 51.7335 -0.305618 -1.54608 0
M  V30 522 C 52.6965 0.555591 -2.22364 0
M  V30 523 C 53.6965 1.05768 -1.21119 0
M  V30 524 O 54.8865 0.952972 -1.45822 0
M  V30 525 C 52.0185 1.76974 -2.91364 0
M  V30 526 H 53.2115 -0.0364572 -2.99878 0
M  V30 527 H 50.7645 -0.0565007 -1.56198 0
M  V30 528 H 51.4995 2.40151 -2.17941 0
M  V30 529 H 51.2845 1.41732 -3.65588 0
M  V30 530 H 52.7745 2.38148 -3.43038 0
M  V30 531 N 53.2116 1.57565 -0.0334293 0
M  V30 532 C 54.1746 2.09393 0.932048 0
M  V30 533 C 55.1746 1.00986 1.25134 0
M  V30 534 O 56.3646 1.27129 1.19096 0
M  V30 535 C 53.4966 2.56338 2.2473 0
M  V30 536 H 54.6896 2.95984 0.483085 0
M  V30 537 H 52.2426 1.54819 0.21468 0
M  V30 538 H 52.9776 1.7309 2.74245 0
M  V30 539 H 52.7626 3.35542 2.02865 0
M  V30 540 H 54.2526 2.96646 2.93923 0
M  V30 541 N 54.6897 -0.239769 1.55765 0
M  V30 542 C 55.9387 -0.964754 1.77131 0
M  V30 543 C 56.2517 -1.86213 0.59868 0
M  V30 544 O 57.4577 -2.6244 0.695522 0
M  V30 545 C 55.9137 -1.76552 3.1362 0
M  V30 546 C 55.5217 -0.915185 4.38553 0
M  V30 547 C 57.2657 -2.48281 3.44321 0
M  V30 548 C 55.1727 -1.71225 5.66071 0
M  V30 549 H 54.1027 -0.363953 0.660344 0
M  V30 550 H 56.7537 -0.219181 1.82186 0
M  V30 551 H 55.1357 -2.55331 3.02691 0
M  V30 552 H 56.3097 -0.169217 4.60489 0
M  V30 553 H 54.6247 -0.310889 4.15238 0
M  V30 554 H 57.2217 -3.08382 4.36812 0
M  V30 555 H 57.5647 -3.20256 2.65973 0
M  V30 556 H 58.0977 -1.76507 3.56497 0
M  V30 557 H 54.8367 -1.03612 6.4726 0
M  V30 558 H 54.3567 -2.43331 5.48224 0
M  V30 559 H 56.0357 -2.27758 6.05587 0
M  V30 560 N 56.1678 -1.49265 -0.50573 0
M  V30 561 C 57.0978 -1.68495 -1.61653 0
M  V30 562 C 58.0788 -0.53366 -1.61512 0
M  V30 563 O 59.2638 -0.76897 -1.78327 0
M  V30 564 C 56.3938 -1.74709 -3.00157 0
M  V30 565 C 55.3478 -2.89581 -3.15162 0
M  V30 566 C 54.6738 -2.80903 -4.5497 0
M  V30 567 C 55.9738 -4.30578 -2.95634 0
M  V30 568 H 57.6678 -2.61493 -1.45814 0
M  V30 569 H 55.2138 -1.25838 -0.70005 0
M  V30 570 H 57.1668 -1.86748 -3.77761 0
M  V30 571 H 55.8908 -0.783067 -3.17074 0
M  V30 572 H 54.5498 -2.77136 -2.39982 0
M  V30 573 H 54.1978 -1.82419 -4.68756 0
M  V30 574 H 53.8978 -3.57999 -4.65951 0
M  V30 575 H 55.4218 -2.94944 -5.34641 0
M  V30 576 H 56.8358 -4.4373 -3.63011 0
M  V30 577 H 55.2328 -5.0886 -3.18091 0
M  V30 578 H 56.3028 -4.45352 -1.91806 0
M  V30 579 N 57.6459 0.756429 -1.3826 0
M  V30 580 C 59.0619 1.0591 -1.19395 0
M  V30 581 C 59.2619 2.01459 -0.0406567 0
M  V30 582 O 58.3179 2.44909 0.614467 0
M  V30 583 C 59.6309 1.64191 -2.51916 0
M  V30 584 C 61.1789 1.76376 -2.58574 0
M  V30 585 C 61.6539 2.38069 -3.91264 0
M  V30 586 N 63.1449 2.45503 -3.92788 0
M  V30 587 C 63.8799 2.94126 -4.92217 0
M  V30 588 N 63.3759 3.42805 -6.02043 0
M  V30 589 N 65.1689 2.9314 -4.7961 0
M  V30 590 H 57.3199 0.122313 -2.12048 0
M  V30 591 H 59.5829 0.116892 -0.940766 0
M  V30 592 H 59.2889 1.01451 -3.3675 0
M  V30 593 H 59.1629 2.6329 -2.70108 0
M  V30 594 H 61.5499 2.38244 -1.74137 0
M  V30 595 H 61.6309 0.759894 -2.44252 0
M  V30 596 H 61.2749 1.76835 -4.76121 0
M  V30 597 H 61.2049 3.39091 -4.02895 0
M  V30 598 H 63.6959 2.1107 -3.13461 0
M  V30 599 H 64.0089 3.78354 -6.73846 0
M  V30 600 H 62.3539 3.4087 -6.05667 0
M  V30 601 H 65.5449 2.54419 -3.92923 0
M  V30 602 H 65.7179 3.30721 -5.5725 0
M  V30 603 N 59.124 1.23083 0.984299 0
M  V30 604 C 60.352 1.08714 1.76037 0
M  V30 605 C 60.767 -0.361691 1.85303 0
M  V30 606 O 60.124 -1.25034 1.32939 0
M  V30 607 C 60.175 1.70206 3.18923 0
M  V30 608 O 59.896 3.09423 3.10144 0
M  V30 609 C 61.397 1.61227 4.12941 0
M  V30 610 H 58.617 0.380664 0.552572 0
M  V30 611 H 61.161 1.62853 1.23689 0
M  V30 612 H 59.316 1.20109 3.6831 0
M  V30 613 H 59.73 3.39188 4.00065 0
M  V30 614 H 61.204 2.08962 5.10919 0
M  V30 615 H 61.681 0.570375 4.35481 0
M  V30 616 H 62.287 2.10671 3.69456 0
M  V30 617 N 60.6021 -1.18246 1.0419 0
M  V30 618 C 61.5321 -2.24127 0.654914 0
M  V30 619 C 62.5131 -1.66617 -0.342451 0
M  V30 620 O 63.6981 -1.92924 -0.222277 0
M  V30 621 C 60.8281 -3.47295 0.0183757 0
M  V30 622 C 59.7821 -4.17563 0.939414 0
M  V30 623 C 59.1081 -5.34438 0.167286 0
M  V30 624 C 60.4081 -4.70917 2.25908 0
M  V30 625 H 62.1021 -2.56753 1.54007 0
M  V30 626 H 59.6481 -1.23414 0.74195 0
M  V30 627 H 61.6011 -4.20572 -0.264082 0
M  V30 628 H 60.3251 -3.13907 -0.901664 0
M  V30 629 H 58.9841 -3.46186 1.20628 0
M  V30 630 H 58.6321 -4.97298 -0.7552 0
M  V30 631 H 58.3321 -5.82388 0.780901 0
M  V30 632 H 59.8561 -6.10504 -0.108125 0
M  V30 633 H 61.2701 -5.35882 2.03724 0
M  V30 634 H 59.6671 -5.29406 2.82577 0
M  V30 635 H 60.7371 -3.88272 2.9047 0
M  V30 636 N 62.0802 -0.821533 -1.34494 0
M  V30 637 C 63.4912 -0.467956 -1.8074 0
M  V30 638 C 63.8422 1.01151 -1.68116 0
M  V30 639 O 62.9672 1.78707 -1.22036 0
M  V30 640 C 63.5622 -0.842627 -3.28154 0
M  V30 641 C 62.1212 -0.541439 -3.72485 0
M  V30 642 C 61.2682 -1.06028 -2.56229 0
M  V30 643 H 64.2192 -1.01183 -1.22261 0
M  V30 644 H 64.2402 -0.145876 -3.8022 0
M  V30 645 H 63.7522 -1.91945 -3.37311 0
M  V30 646 H 61.8532 0.526034 -3.68868 0
M  V30 647 H 61.9662 -1.08453 -4.66663 0
M  V30 648 H 60.3302 -0.481892 -2.501 0
M  V30 649 H 61.1132 -2.14352 -2.68157 0
M  V30 650 N 63.5583 1.46682 -0.576371 0
M  V30 651 C 64.4913 2.27243 0.208731 0
M  V30 652 C 65.4693 1.35238 0.902746 0
M  V30 653 O 66.6533 1.64641 0.917904 0
M  V30 654 C 63.7803 3.12802 1.29896 0
M  V30 655 C 62.8263 4.20524 0.711457 0
M  V30 656 S 63.6593 5.33548 -0.456781 0
M  V30 657 C 64.8153 6.22673 0.634798 0
M  V30 658 H 65.0483 2.93484 -0.474838 0
M  V30 659 H 62.5813 1.50069 -0.363118 0
M  V30 660 H 64.5393 3.62661 1.92321 0
M  V30 661 H 63.2003 2.45887 1.95444 0
M  V30 662 H 62.3933 4.80191 1.53076 0
M  V30 663 H 61.9953 3.73645 0.162999 0
M  V30 664 H 64.2873 6.60181 1.52209 0
M  V30 665 H 65.2303 7.0806 0.0750311 0
M  V30 666 H 65.6383 5.56684 0.936092 0
M  V30 667 N 65.0364 0.313813 1.54444 0
M  V30 668 C 66.2834 -0.291675 2.00388 0
M  V30 669 C 66.6114 -1.52904 1.2021 0
M  V30 670 O 65.8664 -1.93833 0.269707 0
M  V30 671 C 66.1654 -0.680386 3.50864 0
M  V30 672 C 65.8314 0.456699 4.48581 0
M  V30 673 C 64.4934 0.768824 4.75018 0
M  V30 674 C 66.8454 1.22098 5.06697 0
M  V30 675 C 64.1734 1.84812 5.56831 0
M  V30 676 C 66.5254 2.29029 5.89685 0
M  V30 677 C 65.1894 2.60834 6.14428 0
M  V30 678 H 64.4594 -0.106732 0.733273 0
M  V30 679 H 67.1064 0.43557 1.86481 0
M  V30 680 H 65.4114 -1.48791 3.62448 0
M  V30 681 H 67.1084 -1.16026 3.83847 0
M  V30 682 H 63.6984 0.203337 4.28117 0
M  V30 683 H 67.8824 0.993096 4.86263 0
M  V30 684 H 63.1384 2.09912 5.74236 0
M  V30 685 H 67.3124 2.887 6.33739 0
M  V30 686 H 64.9394 3.44596 6.77612 0
M  V30 687 N 66.5145 -1.57545 0.0417849 0
M  V30 688 C 67.4645 -2.07483 -0.945247 0
M  V30 689 C 68.4485 -0.977983 -1.27767 0
M  V30 690 O 69.6405 -1.24142 -1.26166 0
M  V30 691 C 66.7695 -2.61576 -2.22335 0
M  V30 692 C 65.8555 -3.78213 -1.91874 0
M  V30 693 N 66.2465 -4.88344 -1.31733 0
M  V30 694 C 64.5445 -3.8694 -2.21796 0
M  V30 695 C 65.2455 -5.69462 -1.1869 0
M  V30 696 N 64.2215 -5.16771 -1.68666 0
M  V30 697 H 68.0235 -2.90029 -0.475441 0
M  V30 698 H 65.5375 -1.61581 -0.162911 0
M  V30 699 H 67.5345 -2.95651 -2.93932 0
M  V30 700 H 66.1945 -1.80465 -2.69931 0
M  V30 701 H 67.2055 -5.08335 -0.990729 0
M  V30 702 H 63.8825 -3.16757 -2.71977 0
M  V30 703 H 65.2725 -6.68023 -0.720793 0
M  V30 704 N 67.9926 0.231505 -1.5589 0
M  V30 705 C 69.2696 0.981096 -1.69215 0
M  V30 706 C 69.6496 2.02799 -0.586164 0
M  V30 707 O 68.9976 2.24823 0.408253 0
M  V30 708 C 69.2076 1.60054 -3.10135 0
M  V30 709 C 70.5556 2.09658 -3.69227 0
M  V30 710 O 71.5796 1.69967 -3.13033 0
M  V30 711 O 70.4386 2.8258 -4.67772 0
M  V30 712 H 67.5326 0.457653 -0.688827 0
M  V30 713 H 70.0786 0.224073 -1.68214 0
M  V30 714 H 68.8506 0.844105 -3.82087 0
M  V30 715 H 68.4736 2.42336 -3.15212 0
M  V30 716 N 69.4707 1.49531 0.497807 0
M  V30 717 C 70.3807 1.69176 1.62532 0
M  V30 718 C 71.3967 0.5744 1.64246 0
M  V30 719 O 72.5727 0.849497 1.82608 0
M  V30 720 C 69.6377 1.75695 2.98885 0
M  V30 721 C 68.6987 2.9929 3.07773 0
M  V30 722 C 67.9317 3.05488 4.37622 0
M  V30 723 O 68.1547 2.19192 5.26603 0
M  V30 724 O 67.0887 3.9798 4.51548 0
M  V30 725 H 70.9147 2.647 1.48887 0
M  V30 726 H 68.4997 1.3331 0.674441 0
M  V30 727 H 70.3817 1.82317 3.79919 0
M  V30 728 H 69.0567 0.8335 3.12785 0
M  V30 729 H 67.9637 2.98183 2.25915 0
M  V30 730 H 69.2967 3.91125 2.98801 0
M  V30 731 N 70.9488 -0.749086 1.3866 0
M  V30 732 C 71.8588 -1.89358 1.38494 0
M  V30 733 C 72.8748 -1.71708 0.281476 0
M  V30 734 O 74.0508 -1.94554 0.520643 0
M  V30 735 C 71.1158 -3.24782 1.21316 0
M  V30 736 C 70.1768 -3.54926 2.41508 0
M  V30 737 C 69.4098 -4.83888 2.2514 0
M  V30 738 O 69.6328 -5.56592 1.24746 0
M  V30 739 O 68.5668 -5.13612 3.13826 0
M  V30 740 H 72.3928 -1.92452 2.34938 0
M  V30 741 H 69.9778 -0.894981 1.19626 0
M  V30 742 H 71.8598 -4.05739 1.13814 0
M  V30 743 H 70.5348 -3.2249 0.279592 0
M  V30 744 H 69.4418 -2.74112 2.54585 0
M  V30 745 H 70.7748 -3.61983 3.3351 0
M  V30 746 N 72.4269 -1.23603 -0.977757 0
M  V30 747 C 73.3769 -0.986664 -2.05545 0
M  V30 748 C 74.3609 0.0683009 -1.60755 0
M  V30 749 O 75.5529 -0.144162 -1.76412 0
M  V30 750 C 72.6819 -0.582623 -3.3832 0
M  V30 751 C 71.7679 -1.67313 -3.89701 0
M  V30 752 N 72.1589 -2.90394 -4.14132 0
M  V30 753 C 70.4569 -1.54832 -4.18262 0
M  V30 754 C 71.1579 -3.61017 -4.56116 0
M  V30 755 N 70.1339 -2.8854 -4.60701 0
M  V30 756 H 73.9359 -1.92139 -2.22396 0
M  V30 757 H 71.4499 -1.1358 -1.16074 0
M  V30 758 H 73.4469 -0.38524 -4.15116 0
M  V30 759 H 72.1069 0.34503 -3.22862 0
M  V30 760 H 73.1179 -3.26673 -4.01877 0
M  V30 761 H 69.7949 -0.687969 -4.11793 0
M  V30 762 H 71.1849 -4.66544 -4.83514 0
M  V30 763 N 73.905 1.17692 -1.04816 0
M  V30 764 C 74.868 2.19787 -0.650117 0
M  V30 765 C 75.868 1.58044 0.296427 0
M  V30 766 O 77.058 1.74012 0.0808097 0
M  V30 767 C 74.19 3.40869 0.0456987 0
M  V30 768 H 75.383 2.56516 -1.5537 0
M  V30 769 H 72.936 1.31708 -0.841594 0
M  V30 770 H 73.671 3.09681 0.962726 0
M  V30 771 H 73.456 3.86928 -0.634727 0
M  V30 772 H 74.946 4.16445 0.310432 0
M  V30 773 N 75.3831 0.828654 1.34056 0
M  V30 774 C 76.7991 0.515135 1.51058 0
M  V30 775 C 76.9991 -0.959581 1.77184 0
M  V30 776 O 76.0551 -1.74382 1.82612 0
M  V30 777 C 77.3681 1.37963 2.67183 0
M  V30 778 C 78.9161 1.37735 2.81066 0
M  V30 779 C 79.3911 2.22645 4.00241 0
M  V30 780 N 80.8821 2.203 4.07458 0
M  V30 781 C 81.6171 2.82744 4.98842 0
M  V30 782 N 81.1131 3.54201 5.9541 0
M  V30 783 N 82.9061 2.72268 4.91759 0
M  V30 784 H 75.0571 1.78343 1.15358 0
M  V30 785 H 77.3201 0.760304 0.566252 0
M  V30 786 H 77.0261 2.42714 2.54525 0
M  V30 787 H 76.9001 1.0484 3.62338 0
M  V30 788 H 79.2871 0.337593 2.93163 0
M  V30 789 H 79.3681 1.74859 1.86703 0
M  V30 790 H 79.0121 3.26674 3.88905 0
M  V30 791 H 78.9421 1.82869 4.93829 0
M  V30 792 H 81.4331 1.68327 3.38341 0
M  V30 793 H 81.7461 3.9908 6.61782 0
M  V30 794 H 80.0911 3.58308 5.95517 0
M  V30 795 H 83.2821 2.16014 4.15278 0
M  V30 796 H 83.4551 3.21219 5.62781 0
M  V30 797 N 76.8612 -1.46375 0.584142 0
M  V30 798 C 77.8242 -2.28784 -0.138108 0
M  V30 799 C 78.8242 -1.38471 -0.817462 0
M  V30 800 O 80.0142 -1.60833 -0.669199 0
M  V30 801 C 77.1462 -3.18892 -1.20503 0
M  V30 802 H 78.3392 -2.94117 0.586127 0
M  V30 803 H 75.8922 -1.52509 0.342171 0
M  V30 804 H 76.6272 -2.58309 -1.96079 0
M  V30 805 H 76.4122 -3.85388 -0.722384 0
M  V30 806 H 77.9022 -3.80914 -1.71155 0
M  V30 807 N 78.3393 -0.321999 -1.54275 0
M  V30 808 C 79.7553 0.0306999 -1.5957 0
M  V30 809 C 79.9553 1.50614 -1.33857 0
M  V30 810 O 79.0113 2.2619 -1.12223 0
M  V30 811 C 80.3243 -0.386122 -2.98211 0
M  V30 812 C 81.8723 -0.336647 -3.11184 0
M  V30 813 C 82.3473 -0.728607 -4.52167 0
M  V30 814 N 83.8383 -0.681952 -4.58152 0
M  V30 815 C 84.5733 -0.957449 -5.6535 0
M  V30 816 N 84.0693 -1.3 -6.80494 0
M  V30 817 N 85.8623 -0.883113 -5.55119 0
M  V30 818 H 78.0133 -1.28332 -1.69247 0
M  V30 819 H 80.2763 -0.521716 -0.791528 0
M  V30 820 H 79.9823 -1.41404 -3.22022 0
M  V30 821 H 79.8563 0.249662 -3.76373 0
M  V30 822 H 82.2433 0.682058 -2.8711 0
M  V30 823 H 82.3243 -1.00734 -2.3513 0
M  V30 824 H 81.9683 -1.74522 -4.76974 0
M  V30 825 H 81.8983 -0.0356152 -5.26588 0
M  V30 826 H 84.3893 -0.428985 -3.75457 0
M  V30 827 H 84.7023 -1.49563 -7.58189 0
M  V30 828 H 83.0473 -1.33824 -6.81994 0
M  V30 829 H 86.2383 -0.615001 -4.64042 0
M  V30 830 H 86.4113 -1.10118 -6.38575 0
M  V30 831 N 79.8174 1.5752 -0.0501392 0
M  V30 832 C 81.0654 1.9227 0.622642 0
M  V30 833 C 81.3864 0.929083 1.71444 0
M  V30 834 O 80.6564 -0.0262186 1.95882 0
M  V30 835 H 79.2364 0.709739 0.232981 0
M  V30 836 H 81.8984 1.94628 -0.102898 0
M  V30 837 H 80.9944 2.93479 1.06191 0
M  V30 838 N 81.2955 -0.223234 1.56011 0
M  V30 839 C 82.2255 -1.27988 1.95298 0
M  V30 840 C 83.2065 -1.48976 0.820979 0
M  V30 841 O 84.3915 -1.61188 1.08315 0
M  V30 842 C 81.5215 -2.63 2.26822 0
M  V30 843 C 80.4755 -2.56671 3.42497 0
M  V30 844 C 79.8015 -3.95697 3.59622 0
M  V30 845 C 81.1015 -2.11601 4.77517 0
M  V30 846 H 82.7955 -0.953525 2.8381 0
M  V30 847 H 80.3415 -0.457244 1.36548 0
M  V30 848 H 82.2945 -3.37077 2.52898 0
M  V30 849 H 81.0185 -2.9732 1.35161 0
M  V30 850 H 79.6775 -1.85051 3.16467 0
M  V30 851 H 79.3255 -4.27322 2.6534 0
M  V30 852 H 79.0255 -3.92345 4.37424 0
M  V30 853 H 80.5495 -4.71438 3.88044 0
M  V30 854 H 81.9635 -2.7542 5.02809 0
M  V30 855 H 80.3605 -2.19311 5.5859 0
M  V30 856 H 81.4305 -1.06824 4.72987 0
M  V30 857 N 82.7736 -1.49793 -0.48987 0
M  V30 858 C 83.9986 -1.63836 -1.27172 0
M  V30 859 C 84.4236 -0.31402 -1.8546 0
M  V30 860 O 83.7816 0.719803 -1.66399 0
M  V30 861 C 83.8296 -2.71797 -2.36978 0
M  V30 862 O 82.9336 -2.31744 -3.41128 0
M  V30 863 H 82.2746 -0.547997 -0.37496 0
M  V30 864 H 84.8046 -1.96053 -0.585191 0
M  V30 865 H 84.8146 -2.94305 -2.82575 0
M  V30 866 H 83.4896 -3.67923 -1.93921 0
M  V30 867 H 82.0666 -2.1961 -3.01373 0
M  V30 868 N 84.2517 0.741722 -1.39055 0
M  V30 869 C 85.1617 1.88621 -1.39496 0
M  V30 870 C 86.1777 1.71557 -0.290578 0
M  V30 871 O 87.3537 1.94275 -0.530954 0
M  V30 872 C 84.4187 3.24134 -1.23037 0
M  V30 873 C 83.4797 3.5364 -2.43387 0
M  V30 874 C 82.7127 4.82687 -2.27703 0
M  V30 875 O 82.9357 5.55922 -1.27696 0
M  V30 876 O 81.8697 5.1194 -3.16545 0
M  V30 877 H 85.6957 1.91203 -2.35956 0
M  V30 878 H 83.2807 0.888625 -1.20099 0
M  V30 879 H 85.1627 4.0513 -1.15964 0
M  V30 880 H 83.8377 3.22337 -0.296691 0
M  V30 881 H 82.7447 2.72758 -2.56035 0
M  V30 882 H 84.0777 3.60209 -3.35425 0
M  V30 883 N 85.7298 1.2412 0.971189 0
M  V30 884 C 87.0068 0.986867 1.6888 0
M  V30 885 C 87.3868 -0.491857 2.0529 0
M  V30 886 O 86.7348 -1.46531 1.75331 0
M  V30 887 C 86.9448 1.9063 2.92338 0
M  V30 888 C 88.2928 2.17515 3.64654 0
M  V30 889 O 89.3168 1.88254 3.02388 0
M  V30 890 O 88.1758 2.6719 4.7673 0
M  V30 891 H 85.2698 0.372944 0.738134 0
M  V30 892 H 87.8158 1.35203 1.02559 0
M  V30 893 H 86.5878 2.90552 2.62097 0
M  V30 894 H 86.2108 1.54408 3.66393 0
M  V30 895 N 87.2079 -1.17134 1.05439 0
M  V30 896 C 88.4359 -1.91372 0.786414 0
M  V30 897 C 88.8509 -1.76955 -0.658202 0
M  V30 898 O 88.2079 -1.10838 -1.44987 0
M  V30 899 C 88.2589 -3.42356 1.1608 0
M  V30 900 O 87.9799 -3.56332 2.54871 0
M  V30 901 C 89.4809 -4.33663 0.919322 0
M  V30 902 H 86.7009 -0.607118 0.285743 0
M  V30 903 H 89.2449 -1.48525 1.40572 0
M  V30 904 H 87.3999 -3.82939 0.586191 0
M  V30 905 H 87.8139 -4.49896 2.69618 0
M  V30 906 H 89.2879 -5.38099 1.231 0
M  V30 907 H 89.7649 -4.38959 -0.145359 0
M  V30 908 H 90.3709 -3.98796 1.47789 0
M  V30 909 N 88.686 -0.835752 -1.33615 0
M  V30 910 C 89.616 -0.281739 -2.31794 0
M  V30 911 C 90.597 0.608833 -1.58831 0
M  V30 912 O 91.782 0.533035 -1.86741 0
M  V30 913 C 88.912 0.546612 -3.42971 0
M  V30 914 C 87.866 -0.247904 -4.27281 0
M  V30 915 C 87.192 0.704001 -5.30045 0
M  V30 916 C 88.492 -1.46324 -5.01385 0
M  V30 917 H 90.186 -1.10206 -2.78379 0
M  V30 918 H 87.732 -0.531388 -1.33837 0
M  V30 919 H 89.685 0.944467 -4.1068 0
M  V30 920 H 88.409 1.40011 -2.95067 0
M  V30 921 H 87.068 -0.627281 -3.61194 0
M  V30 922 H 86.716 1.55381 -4.78399 0
M  V30 923 H 86.416 0.176524 -5.87335 0
M  V30 924 H 87.94 1.09944 -6.0062 0
M  V30 925 H 89.354 -1.13871 -5.61877 0
M  V30 926 H 87.751 -1.92728 -5.6831 0
M  V30 927 H 88.821 -2.23467 -4.30338 0
M  V30 928 N 90.1641 1.46063 -0.591896 0
M  V30 929 C 91.4101 2.02638 -0.0811191 0
M  V30 930 C 91.7431 1.4613 1.27905 0
M  V30 931 O 91.0181 0.629908 1.84017 0
M  V30 932 C 91.3011 3.60091 -0.0252436 0
M  V30 933 C 91.1541 4.26965 -1.41496 0
M  V30 934 C 92.4731 4.3496 0.670685 0
M  V30 935 H 89.5921 0.73635 -0.0309524 0
M  V30 936 H 92.2341 1.741 -0.760859 0
M  V30 937 H 90.3841 3.84535 0.553624 0
M  V30 938 H 92.0561 4.13756 -2.0397 0
M  V30 939 H 90.2991 3.85971 -1.98011 0
M  V30 940 H 90.9701 5.35781 -1.32825 0
M  V30 941 H 93.4461 4.15716 0.178825 0
M  V30 942 H 92.3221 5.44686 0.678837 0
M  V30 943 H 92.5831 4.06685 1.73379 0
M  V30 944 N 91.6422 0.330177 1.54103 0
M  V30 945 C 92.5722 -0.525353 2.27513 0
M  V30 946 C 93.5532 -1.11383 1.2856 0
M  V30 947 O 94.7382 -1.13773 1.57383 0
M  V30 948 C 91.8682 -1.6831 3.03791 0
M  V30 949 C 90.8222 -1.2236 4.10137 0
M  V30 950 C 90.1482 -2.46882 4.74293 0
M  V30 951 C 91.4482 -0.333697 5.21233 0
M  V30 952 H 93.1422 0.087013 2.99274 0
M  V30 953 H 90.6882 0.0432893 1.43935 0
M  V30 954 H 92.6412 -2.28795 3.5388 0
M  V30 955 H 91.3652 -2.32216 2.29659 0
M  V30 956 H 90.0242 -0.64165 3.60941 0
M  V30 957 H 89.6722 -3.09165 3.96769 0
M  V30 958 H 89.3722 -2.16825 5.46133 0
M  V30 959 H 90.8962 -3.08117 5.27159 0
M  V30 960 H 92.3102 -0.845013 5.67038 0
M  V30 961 H 90.7072 -0.125612 5.99969 0
M  V30 962 H 91.7772 0.633724 4.80741 0
M  V30 963 N 93.1203 -1.57491 0.0584922 0
M  V30 964 C 94.5313 -1.80526 -0.476138 0
M  V30 965 C 94.8823 -0.971334 -1.70469 0
M  V30 966 O 94.0073 -0.190012 -2.15564 0
M  V30 967 C 94.6023 -3.27424 -0.870587 0
M  V30 968 C 93.1613 -3.51351 -1.35015 0
M  V30 969 C 92.3083 -2.75343 -0.32887 0
M  V30 970 H 95.2593 -1.56133 0.284312 0
M  V30 971 H 95.2803 -3.38745 -1.73299 0
M  V30 972 H 94.7923 -3.88093 0.0237627 0
M  V30 973 H 92.8933 -2.95971 -2.26345 0
M  V30 974 H 93.0063 -4.60059 -1.33726 0
M  V30 975 H 91.3703 -2.417 -0.803321 0
M  V30 976 H 92.1533 -3.38743 0.557521 0
M  V30 977 N 94.5984 0.214957 -1.56127 0
M  V30 978 C 96.0094 0.781386 -1.69562 0
M  V30 979 C 96.3604 1.84707 -0.66165 0
M  V30 980 O 95.4854 2.156 0.185927 0
M  V30 981 C 96.0804 1.42411 -3.07416 0
M  V30 982 C 94.6394 1.93786 -3.22683 0
M  V30 983 C 93.7864 0.800438 -2.65496 0
M  V30 984 H 96.7374 -0.00980633 -1.58697 0
M  V30 985 H 96.7584 2.29309 -3.0364 0
M  V30 986 H 96.2704 0.64826 -3.82648 0
M  V30 987 H 94.3714 2.74152 -2.52332 0
M  V30 988 H 94.4844 2.1133 -4.29973 0
M  V30 989 H 92.8484 1.2095 -2.2415 0
M  V30 990 H 93.6314 0.0371471 -3.4328 0
M  V30 991 N 96.0765 1.50051 0.48192 0
M  V30 992 C 97.0395 1.67584 1.5636 0
M  V30 993 C 98.0395 0.546894 1.51214 0
M  V30 994 O 99.2295 0.813725 1.54026 0
M  V30 995 C 96.3615 1.691 2.96003 0
M  V30 996 H 97.5545 2.64078 1.42136 0
M  V30 997 H 95.1075 1.39369 0.707533 0
M  V30 998 H 95.8425 0.742589 3.15684 0
M  V30 999 H 95.6275 2.51105 3.01146 0
M  V30 1000 H 97.1175 1.84656 3.74556 0
M  V30 1001 N 97.5546 -0.734337 1.39446 0
M  V30 1002 C 98.7796 -1.52866 1.40167 0
M  V30 1003 C 99.2046 -1.881 -0.00171513 0
M  V30 1004 O 98.5626 -1.51957 -0.988879 0
M  V30 1005 C 98.6106 -2.79235 2.28167 0
M  V30 1006 O 97.7146 -3.75185 1.71201 0
M  V30 1007 H 97.0556 -0.461618 0.477289 0
M  V30 1008 H 99.5856 -0.905949 1.8345 0
M  V30 1009 H 99.5956 -3.27963 2.42702 0
M  V30 1010 H 98.2706 -2.52923 3.30156 0
M  V30 1011 H 96.8476 -3.33958 1.65912 0
M  V30 1012 N 99.0327 -1.24633 -0.964593 0
M  V30 1013 C 100.449 -1.01239 -1.2338 0
M  V30 1014 C 100.649 0.2769 -1.99588 0
M  V30 1015 O 99.7047 0.992241 -2.32187 0
M  V30 1016 C 101.018 -2.22937 -2.01791 0
M  V30 1017 C 102.566 -2.27594 -2.14872 0
M  V30 1018 C 103.041 -3.48921 -2.96678 0
M  V30 1019 N 104.532 -3.49257 -3.04259 0
M  V30 1020 C 105.267 -4.39795 -3.67924 0
M  V30 1021 N 104.763 -5.40591 -4.33281 0
M  V30 1022 N 106.556 -4.275 -3.64966 0
M  V30 1023 H 98.7067 -2.0748 -0.454502 0
M  V30 1024 H 100.97 -0.910647 -0.26349 0
M  V30 1025 H 100.676 -3.16587 -1.53184 0
M  V30 1026 H 100.55 -2.25306 -3.02518 0
M  V30 1027 H 102.937 -1.34473 -2.6268 0
M  V30 1028 H 103.018 -2.2925 -1.13482 0
M  V30 1029 H 102.662 -4.42359 -2.49562 0
M  V30 1030 H 102.592 -3.4451 -3.98272 0
M  V30 1031 H 105.083 -2.76337 -2.57771 0
M  V30 1032 H 105.396 -6.05904 -4.79687 0
M  V30 1033 H 103.741 -5.44475 -4.3194 0
M  V30 1034 H 106.932 -3.47987 -3.13086 0
M  V30 1035 H 107.105 -4.98258 -4.14298 0
M  V30 1036 N 100.511 1.16574 -1.06058 0
M  V30 1037 C 101.459 2.22941 -0.663343 0
M  V30 1038 C 102.453 1.66358 0.319593 0
M  V30 1039 O 103.659 1.7905 0.184713 0
M  V30 1040 H 100.034 0.725907 -0.196376 0
M  V30 1041 H 102.005 2.53736 -1.57037 0
M  V30 1042 C 100.754 3.47642 -0.0632808 0
M  V30 1043 H 100.077 3.91493 -0.810733 0
M  V30 1044 H 101.517 4.2363 0.177177 0
M  V30 1045 C 99.9758 3.1509 1.19248 0
M  V30 1046 O 100.506 3.30673 2.28075 0
M  V30 1047 N 98.7118 2.6924 1.09353 0
M  V30 1048 H 98.2588 2.5676 0.207912 0
M  V30 1049 H 98.2168 2.47833 1.93458 0
M  V30 1050 N 101.989 0.842826 1.3317 0
M  V30 1051 C 102.921 0.236245 2.27979 0
M  V30 1052 C 103.934 -0.585282 1.51915 0
M  V30 1053 O 105.123 -0.411705 1.73687 0
M  V30 1054 C 102.223 -0.685717 3.3189 0
M  V30 1055 C 101.396 0.0973448 4.37292 0
M  V30 1056 C 100.455 -0.748565 5.20848 0
M  V30 1057 O 99.4809 -0.186339 5.68895 0
M  V30 1058 N 100.683 -2.06527 5.42519 0
M  V30 1059 H 103.448 1.05088 2.80672 0
M  V30 1060 H 101.009 0.701667 1.45905 0
M  V30 1061 H 103.001 -1.25669 3.84694 0
M  V30 1062 H 101.571 -1.40105 2.79445 0
M  V30 1063 H 100.791 0.849706 3.84933 0
M  V30 1064 H 102.079 0.635643 5.04814 0
M  V30 1065 H 101.477 -2.54554 5.05192 0
M  V30 1066 H 100.034 -2.58464 5.98364 0
M  V30 1067 N 103.467 -1.45747 0.599634 0
M  V30 1068 C 104.883 -1.57424 0.26264 0
M  V30 1069 C 105.083 -1.59222 -1.23493 0
M  V30 1070 O 104.139 -1.51825 -2.01756 0
M  V30 1071 C 105.452 -2.86061 0.926795 0
M  V30 1072 C 107 -2.99722 0.901967 0
M  V30 1073 C 107.475 -4.31119 1.54598 0
M  V30 1074 N 108.966 -4.37858 1.5111 0
M  V30 1075 C 109.701 -5.3818 1.97863 0
M  V30 1076 N 109.197 -6.45083 2.52666 0
M  V30 1077 N 110.99 -5.29487 1.88679 0
M  V30 1078 H 103.141 -1.42823 1.57211 0
M  V30 1079 H 105.404 -0.68235 0.658105 0
M  V30 1080 H 105.11 -2.90605 1.98095 0
M  V30 1081 H 104.984 -3.74563 0.445238 0
M  V30 1082 H 107.371 -2.9475 -0.143617 0
M  V30 1083 H 107.452 -2.12652 1.42171 0
M  V30 1084 H 107.096 -4.36849 2.59085 0
M  V30 1085 H 107.026 -5.16992 1.00132 0
M  V30 1086 H 109.517 -3.61209 1.11068 0
M  V30 1087 H 109.83 -7.17869 2.86155 0
M  V30 1088 H 108.175 -6.45856 2.56701 0
M  V30 1089 H 111.366 -4.44877 1.4561 0
M  V30 1090 H 111.539 -6.07524 2.25429 0
M  V30 1091 N 104.945 -0.338344 -1.53925 0
M  V30 1092 C 106.194 0.260732 -2.00008 0
M  V30 1093 C 106.507 1.52073 -1.23017 0
M  V30 1094 O 107.713 2.19672 -1.5955 0
M  V30 1095 C 106.169 0.51515 -3.56194 0
M  V30 1096 C 105.777 -0.728645 -4.42035 0
M  V30 1097 C 107.521 1.07337 -4.10706 0
M  V30 1098 C 105.428 -0.445315 -5.89721 0
M  V30 1099 H 104.358 0.101205 -0.747177 0
M  V30 1100 H 107.009 -0.452866 -1.77824 0
M  V30 1101 H 105.391 1.28932 -3.74423 0
M  V30 1102 H 106.565 -1.50352 -4.35581 0
M  V30 1103 H 104.88 -1.20813 -3.98489 0
M  V30 1104 H 107.477 1.30022 -5.18651 0
M  V30 1105 H 107.82 2.0273 -3.63602 0
M  V30 1106 H 108.353 0.360034 -3.96167 0
M  V30 1107 H 105.092 -1.36883 -6.41049 0
M  V30 1108 H 104.612 0.291569 -5.99091 0
M  V30 1109 H 106.291 -0.0606218 -6.46972 0
M  V30 1110 N 106.423 1.57458 -0.0668435 0
M  V30 1111 C 107.353 2.15468 0.899764 0
M  V30 1112 C 108.334 1.08042 1.31381 0
M  V30 1113 O 109.519 1.36054 1.38574 0
M  V30 1114 C 106.649 2.71232 2.16911 0
M  V30 1115 C 105.603 3.83781 1.89463 0
M  V30 1116 C 104.929 4.26127 3.22986 0
M  V30 1117 C 106.229 5.08238 1.20381 0
M  V30 1118 H 107.923 2.96488 0.416529 0
M  V30 1119 H 105.469 1.4262 0.198908 0
M  V30 1120 H 107.422 3.10458 2.84945 0
M  V30 1121 H 106.146 1.87426 2.67468 0
M  V30 1122 H 104.805 3.45051 1.23836 0
M  V30 1123 H 104.453 3.39249 3.71374 0
M  V30 1124 H 104.153 5.01993 3.05413 0
M  V30 1125 H 105.677 4.67966 3.92225 0
M  V30 1126 H 107.091 5.44811 1.78475 0
M  V30 1127 H 105.488 5.89349 1.13083 0
M  V30 1128 H 106.558 4.84558 0.182153 0
M  V30 1129 N 107.901 -0.206675 1.56239 0
M  V30 1130 C 109.131 -0.943975 1.83773 0
M  V30 1131 C 109.539 -1.77841 0.645703 0
M  V30 1132 O 108.882 -1.79403 -0.395008 0
M  V30 1133 C 108.944 -1.899 3.05251 0
M  V30 1134 C 108.608 -1.24764 4.39639 0
M  V30 1135 C 109.605 -0.630216 5.16066 0
M  V30 1136 C 107.29 -1.25496 4.8637 0
M  V30 1137 C 109.284 -0.0287946 6.37393 0
M  V30 1138 C 106.971 -0.649698 6.07637 0
M  V30 1139 C 107.969 -0.0376845 6.8299 0
M  V30 1140 O 107.657 0.55812 8.0196 0
M  V30 1141 H 107.389 -0.281508 0.614597 0
M  V30 1142 H 109.943 -0.222458 2.04192 0
M  V30 1143 H 108.173 -2.6599 2.80689 0
M  V30 1144 H 109.862 -2.5031 3.1953 0
M  V30 1145 H 110.628 -0.616785 4.81062 0
M  V30 1146 H 106.507 -1.72072 4.27683 0
M  V30 1147 H 110.051 0.449518 6.9615 0
M  V30 1148 H 105.948 -0.660592 6.42111 0
M  V30 1149 H 106.716 0.453891 8.17241 0
M  V30 1150 N 109.379 -1.50304 -0.473955 0
M  V30 1151 C 110.607 -1.64902 -1.24959 0
M  V30 1152 C 111.022 -0.331198 -1.85872 0
M  V30 1153 O 110.379 0.68652 -1.69095 0
M  V30 1154 C 110.43 -2.73803 -2.36038 0
M  V30 1155 O 110.151 -4.00477 -1.77624 0
M  V30 1156 C 111.652 -2.99349 -3.26964 0
M  V30 1157 H 108.872 -0.554383 -0.378022 0
M  V30 1158 H 111.416 -1.9651 -0.566054 0
M  V30 1159 H 109.571 -2.44898 -3.00173 0
M  V30 1160 H 109.985 -4.60678 -2.5075 0
M  V30 1161 H 111.459 -3.79217 -4.01121 0
M  V30 1162 H 111.936 -2.10307 -3.85574 0
M  V30 1163 H 112.542 -3.29774 -2.68569 0
M  V30 1164 N 110.857 0.726932 -1.39834 0
M  V30 1165 C 112.103 1.48884 -1.377 0
M  V30 1166 C 112.436 1.94185 0.0244852 0
M  V30 1167 O 111.711 1.67361 0.990986 0
M  V30 1168 C 111.994 2.72288 -2.3565 0
M  V30 1169 C 111.847 2.32956 -3.84775 0
M  V30 1170 C 113.166 3.74414 -2.31306 0
M  V30 1171 H 110.285 0.540062 -0.5015 0
M  V30 1172 H 112.927 0.830547 -1.70886 0
M  V30 1173 H 111.077 3.28457 -2.07481 0
M  V30 1174 H 112.749 1.82356 -4.23726 0
M  V30 1175 H 110.992 1.65088 -4.01159 0
M  V30 1176 H 111.663 3.21362 -4.4881 0
M  V30 1177 H 114.139 3.27849 -2.56231 0
M  V30 1178 H 113.015 4.58414 -3.01907 0
M  V30 1179 H 113.276 4.21909 -1.32081 0
M  V30 1180 N 112.336 1.25143 0.95797 0
M  V30 1181 C 113.266 1.07711 2.07173 0
M  V30 1182 C 114.247 -0.0128462 1.70095 0
M  V30 1183 O 115.432 0.156061 1.93572 0
M  V30 1184 C 112.562 0.691503 3.40346 0
M  V30 1185 C 111.516 1.73132 3.9142 0
M  V30 1186 C 110.842 1.20049 5.21049 0
M  V30 1187 C 112.142 3.1294 4.1817 0
M  V30 1188 H 113.836 2.00873 2.22014 0
M  V30 1189 H 111.382 0.967191 1.06684 0
M  V30 1190 H 113.335 0.556505 4.17709 0
M  V30 1191 H 112.059 -0.275819 3.25433 0
M  V30 1192 H 110.718 1.8547 3.16222 0
M  V30 1193 H 110.366 0.223499 5.02503 0
M  V30 1194 H 110.066 1.89545 5.56189 0
M  V30 1195 H 111.59 1.07782 6.01012 0
M  V30 1196 H 113.004 3.03775 4.86203 0
M  V30 1197 H 111.401 3.79875 4.64559 0
M  V30 1198 H 112.471 3.6025 3.24573 0
M  V30 1199 N 113.814 -1.1601 1.06675 0
M  V30 1200 C 114.724 -2.24156 0.692179 0
M  V30 1201 C 115.74 -1.71507 -0.293513 0
M  V30 1202 O 116.916 -2.009 -0.141861 0
M  V30 1203 C 113.981 -3.46587 0.0884131 0
M  V30 1204 C 113.042 -4.14257 1.12646 0
M  V30 1205 C 112.275 -5.30844 0.551416 0
M  V30 1206 O 112.498 -5.66858 -0.634656 0
M  V30 1207 O 111.432 -5.87848 1.29298 0
M  V30 1208 H 115.258 -2.58513 1.59388 0
M  V30 1209 H 112.843 -1.23599 0.83926 0
M  V30 1210 H 114.725 -4.20679 -0.246361 0
M  V30 1211 H 113.4 -3.13994 -0.786712 0
M  V30 1212 H 112.307 -3.42118 1.51348 0
M  V30 1213 H 113.64 -4.50914 1.97325 0
M  V30 1214 N 115.292 -0.849877 -1.32721 0
M  V30 1215 C 116.532 -0.457146 -1.99222 0
M  V30 1216 C 116.896 0.968038 -1.6581 0
M  V30 1217 O 118.097 1.46507 -2.25364 0
M  V30 1218 C 116.368 -0.683966 -3.50794 0
M  V30 1219 S 117.927 -0.388095 -4.3708 0
M  V30 1220 H 114.745 -0.171464 -0.690015 0
M  V30 1221 H 117.347 -1.10155 -1.61512 0
M  V30 1222 H 116.051 -1.72038 -3.726 0
M  V30 1223 H 115.582 -0.0258086 -3.93392 0
M  V30 1224 H 117.597 0.787791 -4.89906 0
M  V30 1225 N 116.77 1.45427 -0.607355 0
M  V30 1226 C 117.702 2.2871 0.149752 0
M  V30 1227 C 118.715 1.39937 0.831958 0
M  V30 1228 O 119.904 1.64313 0.697385 0
M  V30 1229 C 117.004 3.15673 1.23304 0
M  V30 1230 C 116.177 4.32722 0.637996 0
M  V30 1231 C 115.236 5.00895 1.61215 0
M  V30 1232 O 114.262 5.57697 1.13854 0
M  V30 1233 N 115.464 5.00159 2.94655 0
M  V30 1234 H 118.229 2.94328 -0.564882 0
M  V30 1235 H 115.79 1.55612 -0.446823 0
M  V30 1236 H 117.782 3.58144 1.88454 0
M  V30 1237 H 116.352 2.51965 1.8502 0
M  V30 1238 H 115.572 3.93734 -0.191572 0
M  V30 1239 H 116.86 5.08321 0.220665 0
M  V30 1240 H 116.258 4.553 3.35735 0
M  V30 1241 H 114.815 5.46495 3.55228 0
M  V30 1242 N 118.248 0.346503 1.53744 0
M  V30 1243 C 119.659 -0.136779 1.86198 0
M  V30 1244 C 120.01 -1.49749 1.26766 0
M  V30 1245 O 119.135 -2.08417 0.582355 0
M  V30 1246 C 119.73 -0.254966 3.37839 0
M  V30 1247 C 118.289 -0.682482 3.70161 0
M  V30 1248 C 117.436 0.181981 2.76702 0
M  V30 1249 H 120.387 0.565994 1.48264 0
M  V30 1250 H 120.408 -1.08195 3.64793 0
M  V30 1251 H 119.92 0.735526 3.81066 0
M  V30 1252 H 118.021 -1.68189 3.3248 0
M  V30 1253 H 118.134 -0.470326 4.76786 0
M  V30 1254 H 116.498 -0.34615 2.52337 0
M  V30 1255 H 117.281 1.16966 3.2276 0
M  V30 1256 N 119.726 -1.57421 0.075193 0
M  V30 1257 C 120.656 -2.15942 -0.888324 0
M  V30 1258 C 121.637 -1.08737 -1.30806 0
M  V30 1259 O 122.822 -1.36787 -1.37851 0
M  V30 1260 C 119.952 -2.72379 -2.1547 0
M  V30 1261 C 118.906 -3.8478 -1.87425 0
M  V30 1262 C 118.232 -4.27834 -3.20721 0
M  V30 1263 C 119.532 -5.08869 -1.17684 0
M  V30 1264 H 121.226 -2.96705 -0.400799 0
M  V30 1265 H 118.772 -1.42723 -0.191342 0
M  V30 1266 H 120.725 -3.11965 -2.83295 0
M  V30 1267 H 119.449 -1.88841 -2.6647 0
M  V30 1268 H 118.108 -3.45703 -1.22004 0
M  V30 1269 H 117.756 -3.41214 -3.6957 0
M  V30 1270 H 117.456 -5.03605 -3.02746 0
M  V30 1271 H 118.98 -4.70039 -3.89738 0
M  V30 1272 H 120.394 -5.4575 -1.75584 0
M  V30 1273 H 118.791 -5.8994 -1.09956 0
M  V30 1274 H 119.861 -4.84648 -0.156453 0
M  V30 1275 N 121.204 0.198386 -1.56346 0
M  V30 1276 C 122.451 0.919286 -1.80431 0
M  V30 1277 C 122.779 1.83393 -0.647866 0
M  V30 1278 O 122.034 1.92236 0.366556 0
M  V30 1279 C 122.333 1.77031 -3.10475 0
M  V30 1280 C 121.999 1.00693 -4.39513 0
M  V30 1281 C 120.661 0.796145 -4.74568 0
M  V30 1282 C 123.013 0.469559 -5.19081 0
M  V30 1283 C 120.341 0.0364588 -5.86689 0
M  V30 1284 C 122.693 -0.2769 -6.31994 0
M  V30 1285 C 121.357 -0.49873 -6.65634 0
M  V30 1286 H 120.627 0.336391 -0.660244 0
M  V30 1287 H 123.274 0.185872 -1.90596 0
M  V30 1288 H 121.579 2.5723 -2.95533 0
M  V30 1289 H 123.276 2.33065 -3.26315 0
M  V30 1290 H 119.866 1.18122 -4.12001 0
M  V30 1291 H 124.05 0.619816 -4.92414 0
M  V30 1292 H 119.306 -0.145412 -6.11227 0
M  V30 1293 H 123.48 -0.700684 -6.92866 0
M  V30 1294 H 121.107 -1.0893 -7.52355 0
M  V30 1295 N 122.682 1.50554 0.465978 0
M  V30 1296 C 123.959 1.5232 1.22712 0
M  V30 1297 C 124.339 0.270807 2.09356 0
M  V30 1298 O 123.687 -0.745541 2.15995 0
M  V30 1299 C 123.897 2.82175 2.05374 0
M  V30 1300 C 125.245 3.33033 2.6339 0
M  V30 1301 O 126.269 2.83531 2.15612 0
M  V30 1302 O 125.128 4.19336 3.50456 0
M  V30 1303 H 122.222 0.611183 0.557122 0
M  V30 1304 H 124.768 1.62847 0.477381 0
M  V30 1305 H 123.54 3.64797 1.41558 0
M  V30 1306 H 123.163 2.74675 2.87471 0
M  V30 1307 N 124.16 -0.719506 1.40217 0
M  V30 1308 C 125.385 -1.51371 1.4178 0
M  V30 1309 C 125.81 -1.88091 0.0182355 0
M  V30 1310 O 125.168 -1.52997 -0.972707 0
M  V30 1311 C 125.216 -2.768 2.31115 0
M  V30 1312 O 124.32 -3.73349 1.7517 0
M  V30 1313 H 123.661 -0.456529 0.482159 0
M  V30 1314 H 126.191 -0.88644 1.844 0
M  V30 1315 H 126.201 -3.25371 2.46167 0
M  V30 1316 H 124.876 -2.49407 3.3282 0
M  V30 1317 H 123.453 -3.32179 1.69444 0
M  V30 1318 N 125.638 -1.25649 -0.95132 0
M  V30 1319 C 126.863 -1.13443 -1.73624 0
M  V30 1320 C 127.288 0.307565 -1.85568 0
M  V30 1321 O 126.646 1.22282 -1.33854 0
M  V30 1322 C 126.694 -1.79723 -3.12621 0
M  V30 1323 O 125.798 -1.07912 -3.98031 0
M  V30 1324 H 125.139 -0.395872 -0.533086 0
M  V30 1325 H 127.669 -1.66276 -1.1922 0
M  V30 1326 H 127.679 -1.86141 -3.63064 0
M  V30 1327 H 126.354 -2.84633 -3.03244 0
M  V30 1328 H 124.931 -1.09398 -3.56492 0
M  V30 1329 N 127.117 1.15442 -1.07289 0
M  V30 1330 C 128.394 1.82306 -0.708792 0
M  V30 1331 C 128.774 1.94991 0.808807 0
M  V30 1332 O 128.122 1.50085 1.72298 0
M  V30 1333 C 128.332 3.18695 -1.42247 0
M  V30 1334 C 129.68 3.94341 -1.57417 0
M  V30 1335 O 130.704 3.28247 -1.38319 0
M  V30 1336 O 129.563 5.12839 -1.88834 0
M  V30 1337 H 126.657 0.787628 -0.252132 0
M  V30 1338 H 129.203 1.22559 -1.17377 0
M  V30 1339 H 127.975 3.04557 -2.45684 0
M  V30 1340 H 127.598 3.86128 -0.948223 0
M  V30 1341 N 128.595 0.856903 1.32268 0
M  V30 1342 C 129.528 0.247937 2.26849 0
M  V30 1343 C 130.506 -0.615382 1.50505 0
M  V30 1344 O 131.69 -0.571689 1.79622 0
M  V30 1345 C 128.817 -0.650093 3.32403 0
M  V30 1346 C 127.863 0.140138 4.2627 0
M  V30 1347 S 128.696 1.51004 5.13769 0
M  V30 1348 C 129.852 0.61778 6.22844 0
M  V30 1349 H 130.085 1.04971 2.78152 0
M  V30 1350 H 127.618 0.654665 1.39834 0
M  V30 1351 H 129.576 -1.16256 3.93694 0
M  V30 1352 H 128.237 -1.4257 2.7988 0
M  V30 1353 H 127.43 -0.543945 5.01056 0
M  V30 1354 H 127.032 0.584267 3.69408 0
M  V30 1355 H 129.324 -0.177053 6.77269 0
M  V30 1356 H 130.267 1.33636 6.95375 0
M  V30 1357 H 130.675 0.191124 5.64176 0
M  V30 1358 N 130.073 -1.45103 0.615059 0
M  V30 1359 C 131.301 -2.06553 0.11977 0
M  V30 1360 C 131.716 -1.45842 -1.19898 0
M  V30 1361 O 131.073 -0.575325 -1.73194 0
M  V30 1362 C 131.124 -3.61495 -0.018364 0
M  V30 1363 O 130.845 -4.19942 1.24822 0
M  V30 1364 C 132.346 -4.39947 -0.544237 0
M  V30 1365 H 129.566 -0.667096 0.0722739 0
M  V30 1366 H 132.11 -1.8623 0.84491 0
M  V30 1367 H 130.265 -3.81135 -0.693865 0
M  V30 1368 H 130.679 -5.13204 1.0827 0
M  V30 1369 H 132.153 -5.48838 -0.589953 0
M  V30 1370 H 132.63 -4.10255 -1.56805 0
M  V30 1371 H 133.236 -4.25188 0.0974703 0
M  V30 1372 N 131.551 -0.354651 -1.53558 0
M  V30 1373 C 132.8 0.239504 -2.00273 0
M  V30 1374 C 133.113 1.50759 -1.24623 0
M  V30 1375 O 134.319 2.17968 -1.61871 0
M  V30 1376 C 132.775 0.477341 -3.5672 0
M  V30 1377 C 132.383 -0.775488 -4.41237 0
M  V30 1378 C 134.127 1.02975 -4.11821 0
M  V30 1379 C 132.034 -0.507838 -5.89216 0
M  V30 1380 H 130.964 0.0932743 -0.748208 0
M  V30 1381 H 133.615 -0.471701 -1.77334 0
M  V30 1382 H 131.997 1.24953 -3.7577 0
M  V30 1383 H 133.171 -1.54963 -4.33962 0
M  V30 1384 H 131.486 -1.25033 -3.97185 0
M  V30 1385 H 134.083 1.24513 -5.2 0
M  V30 1386 H 134.426 1.98862 -3.65731 0
M  V30 1387 H 134.959 0.317994 -3.96527 0
M  V30 1388 H 131.698 -1.43674 -6.39561 0
M  V30 1389 H 131.218 0.228011 -5.99366 0
M  V30 1390 H 132.897 -0.129238 -6.46871 0
M  V30 1391 N 133.029 1.57378 -0.0835403 0
M  V30 1392 C 133.992 2.12252 0.864959 0
M  V30 1393 C 134.992 1.04916 1.21858 0
M  V30 1394 O 136.182 1.30853 1.14991 0
M  V30 1395 C 133.314 2.63358 2.16461 0
M  V30 1396 H 134.507 2.97371 0.388676 0
M  V30 1397 H 132.06 1.55423 0.165317 0
M  V30 1398 H 132.795 1.81727 2.686 0
M  V30 1399 H 132.58 3.41826 1.92087 0
M  V30 1400 H 134.07 3.05847 2.84337 0
M  V30 1401 N 134.507 -0.190092 1.56449 0
M  V30 1402 C 135.417 -1.25591 1.98152 0
M  V30 1403 C 136.433 -1.49519 0.889944 0
M  V30 1404 O 137.609 -1.62036 1.19609 0
M  V30 1405 C 134.674 -2.57916 2.3169 0
M  V30 1406 C 133.735 -2.42015 3.5458 0
M  V30 1407 C 132.968 -3.6803 3.8651 0
M  V30 1408 O 133.191 -4.72413 3.1966 0
M  V30 1409 O 132.125 -3.6326 4.79923 0
M  V30 1410 H 135.951 -0.931988 2.89046 0
M  V30 1411 H 133.536 -0.395488 1.4407 0
M  V30 1412 H 135.418 -3.36008 2.54316 0
M  V30 1413 H 134.093 -2.89925 1.43963 0
M  V30 1414 H 133 -1.62017 3.37196 0
M  V30 1415 H 134.333 -2.14937 4.4279 0
M  V30 1416 N 135.985 -1.50799 -0.457987 0
M  V30 1417 C 137.231 -1.63648 -1.20792 0
M  V30 1418 C 137.586 -0.338662 -1.89396 0
M  V30 1419 O 136.879 0.664291 -1.79716 0
M  V30 1420 C 137.073 -2.76358 -2.2663 0
M  V30 1421 C 136.902 -4.16974 -1.68411 0
M  V30 1422 C 135.672 -4.83199 -1.47807 0
M  V30 1423 C 137.87 -5.00774 -1.17176 0
M  V30 1424 N 135.852 -6.07991 -0.849692 0
M  V30 1425 C 137.223 -6.16397 -0.667403 0
M  V30 1426 C 139.278 -4.86452 -1.06155 0
M  V30 1427 C 137.981 -7.19272 -0.0636908 0
M  V30 1428 C 140.007 -5.89515 -0.471759 0
M  V30 1429 C 139.369 -7.04397 0.0221557 0
M  V30 1430 H 135.468 -0.652888 -0.43042 0
M  V30 1431 H 138.052 -1.87962 -0.507785 0
M  V30 1432 H 136.223 -2.53744 -2.94056 0
M  V30 1433 H 137.955 -2.78496 -2.93636 0
M  V30 1434 H 134.71 -4.40714 -1.73403 0
M  V30 1435 H 135.134 -6.74733 -0.553537 0
M  V30 1436 H 139.776 -3.97907 -1.42932 0
M  V30 1437 H 137.494 -8.07481 0.316253 0
M  V30 1438 H 141.08 -5.805 -0.388671 0
M  V30 1439 H 139.96 -7.82782 0.471375 0
M  V30 1440 N 137.463 0.71206 -1.40597 0
M  V30 1441 C 138.709 1.47416 -1.39271 0
M  V30 1442 C 139.042 1.942 0.00388791 0
M  V30 1443 O 138.317 1.68403 0.973179 0
M  V30 1444 C 138.6 2.69774 -2.38525 0
M  V30 1445 C 138.453 2.28861 -3.87224 0
M  V30 1446 C 139.772 3.71939 -2.35264 0
M  V30 1447 H 136.891 0.534713 -0.5072 0
M  V30 1448 H 139.533 0.812375 -1.71757 0
M  V30 1449 H 137.683 3.26238 -2.10953 0
M  V30 1450 H 139.355 1.77852 -4.25636 0
M  V30 1451 H 137.598 1.60824 -4.02887 0
M  V30 1452 H 138.269 3.16584 -4.52193 0
M  V30 1453 H 140.745 3.25113 -2.59694 0
M  V30 1454 H 139.621 4.55186 -3.06753 0
M  V30 1455 H 139.882 4.20484 -1.36549 0
M  V30 1456 N 138.941 1.26152 0.944643 0
M  V30 1457 C 140.181 1.12708 1.70517 0
M  V30 1458 C 140.545 -0.324727 1.89234 0
M  V30 1459 O 141.746 -0.581211 2.62441 0
M  V30 1460 C 140.017 1.8713 3.04495 0
M  V30 1461 S 141.576 1.89698 3.95677 0
M  V30 1462 H 138.394 0.402665 0.585988 0
M  V30 1463 H 140.996 1.59821 1.12594 0
M  V30 1464 H 139.7 2.91833 2.88551 0
M  V30 1465 H 139.231 1.40444 3.67477 0
M  V30 1466 H 141.246 0.981198 4.86402 0
M  V30 1467 N 140.419 -1.14872 1.07899 0
M  V30 1468 C 141.349 -2.2193 0.725887 0
M  V30 1469 C 142.33 -1.67622 -0.28927 0
M  V30 1470 O 143.515 -1.93533 -0.160787 0
M  V30 1471 C 140.645 -3.47061 0.128856 0
M  V30 1472 C 139.599 -4.14363 1.07178 0
M  V30 1473 C 138.925 -5.33636 0.337229 0
M  V30 1474 C 140.225 -4.63492 2.40775 0
M  V30 1475 H 141.919 -2.51724 1.62097 0
M  V30 1476 H 139.465 -1.20991 0.780838 0
M  V30 1477 H 141.418 -4.21199 -0.130147 0
M  V30 1478 H 140.142 -3.16617 -0.80134 0
M  V30 1479 H 138.801 -3.42173 1.3158 0
M  V30 1480 H 138.449 -4.99449 -0.596606 0
M  V30 1481 H 138.149 -5.79609 0.965788 0
M  V30 1482 H 139.673 -6.10539 0.0861567 0
M  V30 1483 H 141.087 -5.2913 2.20669 0
M  V30 1484 H 139.484 -5.20148 2.99276 0
M  V30 1485 H 140.554 -3.78834 3.02676 0
M  V30 1486 N 141.898 -0.863906 -1.31812 0
M  V30 1487 C 142.861 -0.320212 -2.26952 0
M  V30 1488 C 143.861 0.525369 -1.51975 0
M  V30 1489 O 145.051 0.335547 -1.70938 0
M  V30 1490 C 142.183 0.545919 -3.365 0
M  V30 1491 H 143.376 -1.16004 -2.76556 0
M  V30 1492 H 140.929 -0.638995 -1.42641 0
M  V30 1493 H 141.664 1.40718 -2.92179 0
M  V30 1494 H 141.449 -0.0594674 -3.92055 0
M  V30 1495 H 142.939 0.918796 -4.07367 0
M  V30 1496 N 143.376 1.44774 -0.622745 0
M  V30 1497 C 144.308 2.28856 0.125485 0
M  V30 1498 C 145.321 1.40811 0.817069 0
M  V30 1499 O 146.51 1.65044 0.679918 0
M  V30 1500 C 143.61 3.16963 1.19949 0
M  V30 1501 C 142.783 4.33374 0.592064 0
M  V30 1502 C 141.842 5.02577 1.55893 0
M  V30 1503 O 140.868 5.58873 1.07933 0
M  V30 1504 N 142.07 5.03256 2.89334 0
M  V30 1505 H 144.835 2.93713 -0.596068 0
M  V30 1506 H 142.396 1.55129 -0.463303 0
M  V30 1507 H 144.388 3.60123 1.84644 0
M  V30 1508 H 142.958 2.53913 1.82337 0
M  V30 1509 H 142.178 3.93509 -0.233322 0
M  V30 1510 H 143.466 5.08527 0.166738 0
M  V30 1511 H 142.864 4.58836 3.30887 0
M  V30 1512 H 141.421 5.50232 3.49412 0
M  V30 1513 N 144.854 0.36279 1.53368 0
M  V30 1514 C 146.082 -0.228613 2.05633 0
M  V30 1515 C 146.497 -1.42676 1.23649 0
M  V30 1516 O 145.854 -1.80394 0.27647 0
M  V30 1517 C 145.905 -0.624845 3.56059 0
M  V30 1518 O 145.626 0.525675 4.34935 0
M  V30 1519 C 147.127 -1.27493 4.24571 0
M  V30 1520 H 144.347 -0.0407183 0.669763 0
M  V30 1521 H 146.891 0.520352 1.97769 0
M  V30 1522 H 145.046 -1.32373 3.64083 0
M  V30 1523 H 145.46 0.205969 5.24095 0
M  V30 1524 H 146.934 -1.50277 5.31151 0
M  V30 1525 H 147.411 -2.23439 3.78116 0
M  V30 1526 H 148.017 -0.617558 4.20792 0
M  V30 1527 N 146.332 -1.57332 0.0918853 0
M  V30 1528 C 147.581 -1.93412 -0.572249 0
M  V30 1529 C 147.894 -0.975515 -1.69538 0
M  V30 1530 O 149.1 -1.22991 -2.42045 0
M  V30 1531 C 147.556 -3.43648 -1.0693 0
M  V30 1532 C 147.164 -4.47994 0.0239049 0
M  V30 1533 C 148.908 -3.88695 -1.70635 0
M  V30 1534 C 146.815 -5.89381 -0.488319 0
M  V30 1535 H 145.745 -0.721939 -0.217532 0
M  V30 1536 H 148.396 -1.82735 0.167369 0
M  V30 1537 H 146.778 -3.49466 -1.8625 0
M  V30 1538 H 147.952 -4.53815 0.799277 0
M  V30 1539 H 146.267 -4.12536 0.565946 0
M  V30 1540 H 148.864 -4.91725 -2.10025 0
M  V30 1541 H 149.207 -3.27166 -2.57426 0
M  V30 1542 H 149.74 -3.85564 -0.979023 0
M  V30 1543 H 146.479 -6.54602 0.342906 0
M  V30 1544 H 145.999 -5.87037 -1.23077 0
M  V30 1545 H 147.678 -6.39863 -0.958317 0
M  V30 1546 N 147.81 0.181792 -1.56548 0
M  V30 1547 C 148.757 1.22521 -1.95595 0
M  V30 1548 C 149.727 1.4454 -0.818373 0
M  V30 1549 O 150.912 1.57454 -1.07763 0
M  V30 1550 C 148.052 2.56193 -2.31212 0
M  V30 1551 C 147.165 2.41641 -3.58097 0
M  V30 1552 C 146.3 3.68108 -3.82975 0
M  V30 1553 C 145.339 3.48445 -5.03242 0
M  V30 1554 N 144.476 4.66956 -5.24306 0
M  V30 1555 H 149.316 0.885226 -2.84548 0
M  V30 1556 H 146.853 0.425718 -1.40805 0
M  V30 1557 H 148.811 3.34088 -2.49882 0
M  V30 1558 H 147.441 2.88208 -1.45382 0
M  V30 1559 H 146.493 1.54976 -3.474 0
M  V30 1560 H 147.805 2.23052 -4.46149 0
M  V30 1561 H 146.959 4.54441 -4.01956 0
M  V30 1562 H 145.698 3.89666 -2.93278 0
M  V30 1563 H 144.703 2.60499 -4.8417 0
M  V30 1564 H 145.928 3.2832 -5.9446 0
M  V30 1565 H 143.874 4.88752 -4.37559 0
M  V30 1566 H 143.791 4.51242 -6.06561 0
M  V30 1567 H 145.059 5.54602 -5.47756 0
M  V30 1568 N 149.288 1.51039 0.449983 0
M  V30 1569 C 150.704 1.38934 0.785462 0
M  V30 1570 C 150.904 0.461817 1.96136 0
M  V30 1571 O 149.96 -0.0877389 2.52348 0
M  V30 1572 C 151.273 2.80724 1.0777 0
M  V30 1573 C 152.821 2.89787 1.1829 0
M  V30 1574 C 153.296 4.32457 1.50815 0
M  V30 1575 N 154.787 4.35505 1.57764 0
M  V30 1576 C 155.522 5.42914 1.84477 0
M  V30 1577 N 155.018 6.60502 2.09068 0
M  V30 1578 N 156.811 5.3038 1.86155 0
M  V30 1579 H 148.962 2.09904 -0.324647 0
M  V30 1580 H 151.225 0.944378 -0.0827957 0
M  V30 1581 H 150.931 3.50531 0.286498 0
M  V30 1582 H 150.805 3.19273 2.00859 0
M  V30 1583 H 153.192 2.20186 1.96474 0
M  V30 1584 H 153.273 2.54752 0.231314 0
M  V30 1585 H 152.917 5.02603 0.731622 0
M  V30 1586 H 152.847 4.64995 2.47158 0
M  V30 1587 H 155.338 3.50724 1.40715 0
M  V30 1588 H 155.651 7.38158 2.28785 0
M  V30 1589 H 153.996 6.63639 2.06416 0
M  V30 1590 H 157.187 4.37505 1.66454 0
M  V30 1591 H 157.36 6.1417 2.06637 0
M  V30 1592 N 150.766 -0.704594 1.40972 0
M  V30 1593 C 151.716 -1.81051 1.38581 0
M  V30 1594 C 152.7 -1.58759 0.261585 0
M  V30 1595 O 153.892 -1.69745 0.501556 0
M  V30 1596 C 151.021 -3.19279 1.26157 0
M  V30 1597 C 150.107 -3.47296 2.43405 0
M  V30 1598 N 150.498 -3.46064 3.68881 0
M  V30 1599 C 148.796 -3.77804 2.37023 0
M  V30 1600 C 149.497 -3.72733 4.46592 0
M  V30 1601 N 148.473 -3.9203 3.76581 0
M  V30 1602 H 152.275 -1.78448 2.33525 0
M  V30 1603 H 149.789 -0.904198 1.349 0
M  V30 1604 H 151.786 -3.98488 1.22526 0
M  V30 1605 H 150.446 -3.231 0.321902 0
M  V30 1606 H 151.457 -3.26656 4.01891 0
M  V30 1607 H 148.134 -3.8905 1.51481 0
M  V30 1608 H 149.524 -3.77993 5.55492 0
M  V30 1609 N 152.244 -1.26651 -0.937939 0
M  V30 1610 C 153.474 -1.15006 -1.71631 0
M  V30 1611 C 153.882 0.297026 -1.86854 0
M  V30 1612 O 153.225 1.21493 -1.37786 0
M  V30 1613 C 153.287 -1.74984 -3.14039 0
M  V30 1614 C 152.951 -3.24103 -3.2219 0
M  V30 1615 C 153.948 -4.20877 -3.05219 0
M  V30 1616 C 151.633 -3.64625 -3.45476 0
M  V30 1617 C 153.627 -5.56151 -3.11408 0
M  V30 1618 C 151.314 -5.00032 -3.513 0
M  V30 1619 C 152.312 -5.95604 -3.34282 0
M  V30 1620 O 152 -7.28545 -3.3982 0
M  V30 1621 H 151.732 -0.401183 -0.544085 0
M  V30 1622 H 154.286 -1.67832 -1.18413 0
M  V30 1623 H 152.516 -1.16624 -3.68695 0
M  V30 1624 H 154.205 -1.58199 -3.73802 0
M  V30 1625 H 154.971 -3.90908 -2.87081 0
M  V30 1626 H 150.85 -2.90718 -3.57777 0
M  V30 1627 H 154.394 -6.30727 -2.98043 0
M  V30 1628 H 150.291 -5.29659 -3.68959 0
M  V30 1629 H 151.059 -7.3686 -3.56343 0
M  V30 1630 N 153.722 1.14298 -1.08507 0
M  V30 1631 C 154.632 2.23027 -0.727753 0
M  V30 1632 C 155.648 1.71952 0.26619 0
M  V30 1633 O 156.824 2.011 0.109882 0
M  V30 1634 C 153.889 3.46403 -0.143541 0
M  V30 1635 C 152.95 4.12413 -1.19223 0
M  V30 1636 C 152.183 5.29899 -0.635798 0
M  V30 1637 O 152.406 5.67796 0.544393 0
M  V30 1638 O 151.34 5.85717 -1.38634 0
M  V30 1639 H 155.166 2.55945 -1.63481 0
M  V30 1640 H 152.751 1.22248 -0.858817 0
M  V30 1641 H 154.633 4.21018 0.179404 0
M  V30 1642 H 153.308 3.15206 0.736659 0
M  V30 1643 H 152.215 3.39667 -1.56772 0
M  V30 1644 H 153.548 4.47718 -2.04474 0
M  V30 1645 N 155.201 0.870884 1.31352 0
M  V30 1646 C 156.133 0.28455 2.27427 0
M  V30 1647 C 157.146 -0.552927 1.53123 0
M  V30 1648 O 158.335 -0.374771 1.74521 0
M  V30 1649 C 155.435 -0.615164 3.3327 0
M  V30 1650 C 154.608 0.190079 4.36987 0
M  V30 1651 C 153.667 -0.637917 5.22319 0
M  V30 1652 O 152.693 -0.065626 5.69162 0
M  V30 1653 N 153.895 -1.94973 5.46778 0
M  V30 1654 H 156.66 1.11017 2.7838 0
M  V30 1655 H 154.221 0.732458 1.44384 0
M  V30 1656 H 156.213 -1.1748 3.87273 0
M  V30 1657 H 154.783 -1.34146 2.82354 0
M  V30 1658 H 154.003 0.931165 3.83044 0
M  V30 1659 H 155.291 0.742579 5.03352 0
M  V30 1660 H 154.689 -2.4378 5.10478 0
M  V30 1661 H 153.246 -2.45713 6.03712 0
M  V30 1662 N 156.679 -1.44442 0.630414 0
M  V30 1663 C 157.909 -2.06115 0.141465 0
M  V30 1664 C 158.317 -1.47179 -1.1889 0
M  V30 1665 O 157.66 -0.588873 -1.74006 0
M  V30 1666 C 157.722 -3.59467 -0.0484355 0
M  V30 1667 C 157.386 -4.40864 1.20366 0
M  V30 1668 C 158.383 -4.74391 2.12719 0
M  V30 1669 C 156.068 -4.8125 1.43887 0
M  V30 1670 C 158.062 -5.47186 3.26904 0
M  V30 1671 C 155.749 -5.53795 2.5837 0
M  V30 1672 C 156.747 -5.86682 3.49705 0
M  V30 1673 O 156.435 -6.57749 4.62191 0
M  V30 1674 H 156.167 -0.671648 0.0765792 0
M  V30 1675 H 158.721 -1.86312 0.864695 0
M  V30 1676 H 156.951 -3.77758 -0.826803 0
M  V30 1677 H 158.64 -4.02909 -0.491849 0
M  V30 1678 H 159.406 -4.43728 1.95781 0
M  V30 1679 H 155.285 -4.55073 0.736853 0
M  V30 1680 H 158.829 -5.72773 3.98217 0
M  V30 1681 H 154.726 -5.83872 2.75251 0
M  V30 1682 H 155.494 -6.76217 4.61164 0
M  V30 1683 N 158.157 -0.370918 -1.53173 0
M  V30 1684 C 159.107 0.489588 -2.22681 0
M  V30 1685 C 160.091 1.04442 -1.22395 0
M  V30 1686 O 161.283 0.973578 -1.47819 0
M  V30 1687 C 158.412 1.626 -3.02351 0
M  V30 1688 C 157.498 1.08379 -4.10018 0
M  V30 1689 N 157.889 0.265004 -5.05105 0
M  V30 1690 C 156.187 1.35809 -4.2482 0
M  V30 1691 C 156.888 -0.0324755 -5.81691 0
M  V30 1692 N 155.864 0.566581 -5.40639 0
M  V30 1693 H 159.666 -0.142729 -2.93553 0
M  V30 1694 H 157.18 -0.179221 -1.61408 0
M  V30 1695 H 159.177 2.2547 -3.50669 0
M  V30 1696 H 157.837 2.26132 -2.33011 0
M  V30 1697 H 158.848 -0.0962352 -5.17811 0
M  V30 1698 H 155.525 1.9958 -3.66707 0
M  V30 1699 H 156.915 -0.69473 -6.68299 0
M  V30 1700 N 159.635 1.57281 -0.100228 0
M  V30 1701 C 160.883 1.94153 0.561157 0
M  V30 1702 C 161.204 0.983157 1.68401 0
M  V30 1703 O 160.474 0.0361132 1.95867 0
M  V30 1704 H 159.054 0.716791 0.210283 0
M  V30 1705 H 161.716 1.94202 -0.164765 0
M  V30 1706 H 160.812 2.96709 0.968008 0
M  V30 1707 N 161.113 -0.173488 1.56642 0
M  V30 1708 C 162.36 -0.890465 1.81871 0
M  V30 1709 C 162.688 -1.82339 0.67696 0
M  V30 1710 O 161.943 -1.92795 -0.335926 0
M  V30 1711 C 162.242 -1.72069 3.13252 0
M  V30 1712 C 161.908 -0.936878 4.41059 0
M  V30 1713 C 160.57 -0.720545 4.75775 0
M  V30 1714 C 162.922 -0.386919 5.19762 0
M  V30 1715 C 160.25 0.0568829 5.86672 0
M  V30 1716 C 162.602 0.37741 6.31473 0
M  V30 1717 C 161.266 0.604563 6.64757 0
M  V30 1718 H 160.536 -0.325844 0.665512 0
M  V30 1719 H 163.183 -0.155527 1.90867 0
M  V30 1720 H 161.488 -2.52496 2.99588 0
M  V30 1721 H 163.185 -2.27844 3.29982 0
M  V30 1722 H 159.775 -1.11553 4.13828 0
M  V30 1723 H 163.959 -0.541398 4.93338 0
M  V30 1724 H 159.215 0.242635 6.10918 0
M  V30 1725 H 163.389 0.810825 6.91664 0
M  V30 1726 H 161.016 1.20885 7.50527 0
M  V30 1727 N 162.591 -1.51276 -0.441967 0
M  V30 1728 C 163.837 -1.63958 -1.19355 0
M  V30 1729 C 164.17 -0.352543 -1.90973 0
M  V30 1730 O 163.445 0.647627 -1.83401 0
M  V30 1731 C 163.728 -2.83979 -2.21422 0
M  V30 1732 C 163.581 -4.22646 -1.53918 0
M  V30 1733 C 164.9 -2.99521 -3.22451 0
M  V30 1734 H 162.019 -0.596709 -0.432559 0
M  V30 1735 H 164.661 -1.83748 -0.483398 0
M  V30 1736 H 162.811 -2.67237 -2.81987 0
M  V30 1737 H 164.483 -4.51045 -0.967256 0
M  V30 1738 H 162.726 -4.25558 -0.841615 0
M  V30 1739 H 163.397 -5.02609 -2.28229 0
M  V30 1740 H 165.873 -3.14944 -2.71937 0
M  V30 1741 H 164.749 -3.85072 -3.91166 0
M  V30 1742 H 165.01 -2.11391 -3.88287 0
M  V30 1743 N 164.069 0.697108 -1.41344 0
M  V30 1744 C 165.315 1.4593 -1.40827 0
M  V30 1745 C 165.648 1.94193 -0.0167098 0
M  V30 1746 O 164.923 1.69425 0.955263 0
M  V30 1747 C 165.206 2.67229 -2.41373 0
M  V30 1748 C 165.059 2.24741 -3.8963 0
M  V30 1749 C 166.378 3.69423 -2.39196 0
M  V30 1750 H 163.497 0.529303 -0.512842 0
M  V30 1751 H 166.139 0.794112 -1.72609 0
M  V30 1752 H 164.289 3.23982 -2.14401 0
M  V30 1753 H 165.961 1.73327 -4.27499 0
M  V30 1754 H 164.204 1.56542 -4.0457 0
M  V30 1755 H 164.875 3.1177 -4.55525 0
M  V30 1756 H 167.351 3.2234 -2.63128 0
M  V30 1757 H 166.227 4.51907 -3.11563 0
M  V30 1758 H 166.488 4.19012 -1.41001 0
M  V30 1759 N 165.547 1.27147 0.931209 0
M  V30 1760 C 166.796 1.12664 1.67302 0
M  V30 1761 C 167.109 -0.327718 1.92835 0
M  V30 1762 O 168.315 -0.593392 2.64936 0
M  V30 1763 C 166.771 1.9683 3.01307 0
M  V30 1764 C 166.379 3.46901 2.83485 0
M  V30 1765 C 168.123 1.90985 3.79111 0
M  V30 1766 C 166.03 4.23279 4.13024 0
M  V30 1767 H 164.96 0.41803 0.627509 0
M  V30 1768 H 167.611 1.51539 1.03481 0
M  V30 1769 H 165.993 1.50797 3.66164 0
M  V30 1770 H 167.167 4.00773 2.27415 0
M  V30 1771 H 165.482 3.54088 2.19113 0
M  V30 1772 H 168.079 2.45328 4.75098 0
M  V30 1773 H 168.422 0.882718 4.06834 0
M  V30 1774 H 168.955 2.34895 3.21044 0
M  V30 1775 H 165.694 5.26503 3.90481 0
M  V30 1776 H 165.214 3.74186 4.6877 0
M  V30 1777 H 166.893 4.32265 4.81411 0
M  V30 1778 N 167.025 -1.13721 1.09112 0
M  V30 1779 C 167.975 -2.17082 0.697091 0
M  V30 1780 C 168.959 -1.58321 -0.286923 0
M  V30 1781 O 170.151 -1.7673 -0.0978008 0
M  V30 1782 C 167.28 -3.43105 0.115729 0
M  V30 1783 C 166.366 -4.0888 1.12596 0
M  V30 1784 N 166.757 -4.4987 2.31195 0
M  V30 1785 C 165.055 -4.35471 0.963366 0
M  V30 1786 C 165.756 -5.01094 2.95431 0
M  V30 1787 N 164.732 -4.95751 2.23006 0
M  V30 1788 H 168.534 -2.46524 1.6001 0
M  V30 1789 H 166.048 -1.30481 0.966869 0
M  V30 1790 H 168.045 -4.16491 -0.184555 0
M  V30 1791 H 166.705 -3.15138 -0.78217 0
M  V30 1792 H 167.716 -4.42678 2.68806 0
M  V30 1793 H 164.393 -4.17328 0.119878 0
M  V30 1794 H 165.783 -5.4263 3.96236 0
M  V30 1795 N 168.503 -0.877838 -1.30888 0
M  V30 1796 C 169.751 -0.491723 -1.96027 0
M  V30 1797 C 170.072 0.960827 -1.69685 0
M  V30 1798 O 169.342 1.67462 -1.01654 0
M  V30 1799 H 167.922 -0.17885 -0.725273 0
M  V30 1800 H 170.584 -1.11935 -1.59551 0
M  V30 1801 H 169.68 -0.656016 -3.05128 0
M  V30 1802 N 169.982 1.44106 -0.638065 0
M  V30 1803 C 171.21 2.06336 -0.152615 0
M  V30 1804 C 171.625 1.47731 1.17563 0
M  V30 1805 O 170.982 0.602806 1.72257 0
M  V30 1806 C 171.033 3.61479 -0.0391491 0
M  V30 1807 O 170.754 4.17903 -1.31487 0
M  V30 1808 C 172.255 4.40757 0.474176 0
M  V30 1809 H 169.475 0.665862 -0.0828776 0
M  V30 1810 H 172.019 1.84862 -0.87443 0
M  V30 1811 H 170.174 3.82191 0.633142 0
M  V30 1812 H 170.588 5.11416 -1.16421 0
M  V30 1813 H 172.062 5.49707 0.502562 0
M  V30 1814 H 172.539 4.12697 1.50258 0
M  V30 1815 H 173.145 4.24979 -0.165102 0
M  V30 1816 N 171.46 0.379036 1.52974 0
M  V30 1817 C 172.737 -0.263479 1.93817 0
M  V30 1818 C 173.117 -1.65244 1.31368 0
M  V30 1819 O 172.465 -2.23448 0.477856 0
M  V30 1820 C 172.675 -0.300166 3.47707 0
M  V30 1821 C 174.023 -0.534061 4.21228 0
M  V30 1822 O 175.047 -0.38081 3.54159 0
M  V30 1823 O 173.906 -0.833501 5.40106 0
M  V30 1824 H 171 -0.161149 0.811147 0
M  V30 1825 H 173.546 0.432798 1.64088 0
M  V30 1826 H 172.318 0.673138 3.85467 0
M  V30 1827 H 171.941 -1.04179 3.83709 0
M  V30 1828 N 172.938 -1.57226 0.108567 0
M  V30 1829 C 174.166 -1.99179 -0.559954 0
M  V30 1830 C 174.581 -0.988022 -1.60884 0
M  V30 1831 O 173.938 0.0205512 -1.82488 0
M  V30 1832 C 173.989 -3.41159 -1.19552 0
M  V30 1833 O 173.71 -4.37694 -0.188577 0
M  V30 1834 C 175.211 -3.98188 -1.94837 0
M  V30 1835 H 172.431 -0.654228 -0.149088 0
M  V30 1836 H 174.975 -2.03598 0.19183 0
M  V30 1837 H 173.13 -3.37711 -1.89815 0
M  V30 1838 H 173.544 -5.20469 -0.649014 0
M  V30 1839 H 175.018 -4.99644 -2.34648 0
M  V30 1840 H 175.495 -3.3675 -2.81951 0
M  V30 1841 H 176.101 -4.0515 -1.2936 0
M  V30 1842 N 174.416 0.165178 -1.56732 0
M  V30 1843 C 175.349 1.23336 -1.91998 0
M  V30 1844 C 176.327 1.42476 -0.783531 0
M  V30 1845 O 177.511 1.57384 -1.03743 0
M  V30 1846 C 174.638 2.59533 -2.17625 0
M  V30 1847 C 173.684 2.57093 -3.40302 0
M  V30 1848 S 174.517 2.05571 -4.9447 0
M  V30 1849 C 175.673 3.43532 -5.23198 0
M  V30 1850 H 175.906 0.932387 -2.82301 0
M  V30 1851 H 173.439 0.370013 -1.49901 0
M  V30 1852 H 175.397 3.37918 -2.3307 0
M  V30 1853 H 174.058 2.86827 -1.28019 0
M  V30 1854 H 173.251 3.57308 -3.55453 0
M  V30 1855 H 172.853 1.86806 -3.24005 0
M  V30 1856 H 175.145 4.39559 -5.15552 0
M  V30 1857 H 176.088 3.33251 -6.2478 0
M  V30 1858 H 176.496 3.39828 -4.50752 0
M  V30 1859 N 175.894 1.51508 0.433938 0
M  V30 1860 C 176.857 1.72473 1.50949 0
M  V30 1861 C 177.857 0.594725 1.49398 0
M  V30 1862 O 179.047 0.862315 1.5136 0
M  V30 1863 C 176.179 1.78431 2.90474 0
M  V30 1864 H 177.372 2.68467 1.33662 0
M  V30 1865 H 174.925 1.41549 0.662836 0
M  V30 1866 H 175.66 0.842645 3.13161 0
M  V30 1867 H 175.445 2.60558 2.93005 0
M  V30 1868 H 176.935 1.96479 3.68491 0
M  V30 1869 N 177.372 -0.689602 1.41712 0
M  V30 1870 C 178.619 -1.44966 1.4139 0
M  V30 1871 C 178.947 -1.94484 0.025105 0
M  V30 1872 O 178.202 -1.70307 -0.964048 0
M  V30 1873 C 178.501 -2.67298 2.37247 0
M  V30 1874 C 178.167 -2.36405 3.83958 0
M  V30 1875 C 176.829 -2.27691 4.23923 0
M  V30 1876 C 179.181 -2.11043 4.76561 0
M  V30 1877 C 176.509 -1.91719 5.54492 0
M  V30 1878 C 178.861 -1.76578 6.07456 0
M  V30 1879 C 177.525 -1.66363 6.46436 0
M  V30 1880 H 176.795 -0.53047 0.517381 0
M  V30 1881 H 179.442 -0.787655 1.74552 0
M  V30 1882 H 177.747 -3.38461 1.9736 0
M  V30 1883 H 179.444 -3.25452 2.34269 0
M  V30 1884 H 176.034 -2.44085 3.52308 0
M  V30 1885 H 180.218 -2.16717 4.46483 0
M  V30 1886 H 175.474 -1.82367 5.83568 0
M  V30 1887 H 179.648 -1.55974 6.78708 0
M  V30 1888 H 177.275 -1.38258 7.47522 0
M  V30 1889 N 178.85 -1.27639 -0.924453 0
M  V30 1890 C 179.813 -1.10681 -2.00705 0
M  V30 1891 C 180.813 -0.0497823 -1.60723 0
M  V30 1892 O 182.003 -0.294654 -1.7169 0
M  V30 1893 C 179.135 -0.687164 -3.33902 0
M  V30 1894 H 180.328 -2.06817 -2.17179 0
M  V30 1895 H 177.881 -1.10473 -1.10569 0
M  V30 1896 H 178.616 0.275439 -3.23128 0
M  V30 1897 H 178.401 -1.45061 -3.6428 0
M  V30 1898 H 179.891 -0.590853 -4.13399 0
M  V30 1899 N 180.328 1.1314 -1.09713 0
M  V30 1900 C 181.291 2.16831 -0.742751 0
M  V30 1901 C 182.291 1.59159 0.229129 0
M  V30 1902 O 183.481 1.74199 0.00693237 0
M  V30 1903 C 180.613 3.40756 -0.0989168 0
M  V30 1904 H 181.806 2.49695 -1.66109 0
M  V30 1905 H 179.359 1.2802 -0.896699 0
M  V30 1906 H 180.094 3.13485 0.830514 0
M  V30 1907 H 179.879 3.83888 -0.798265 0
M  V30 1908 H 181.369 4.17386 0.133524 0
M  V30 1909 N 181.806 0.884767 1.30421 0
M  V30 1910 C 183.031 0.517288 2.00845 0
M  V30 1911 C 183.456 -0.886779 1.65885 0
M  V30 1912 O 182.814 -1.58768 0.875354 0
M  V30 1913 C 182.862 0.698994 3.5376 0
M  V30 1914 O 181.966 -0.255208 4.1161 0
M  V30 1915 H 181.307 0.203872 0.631927 0
M  V30 1916 H 183.837 1.19225 1.66272 0
M  V30 1917 H 183.847 0.597912 4.03595 0
M  V30 1918 H 182.522 1.72271 3.78544 0
M  V30 1919 H 181.099 -0.10784 3.72744 0
M  V30 1920 N 183.284 -1.43765 0.645699 0
M  V30 1921 C 184.217 -2.2798 -0.100072 0
M  V30 1922 C 185.195 -1.39391 -0.837194 0
M  V30 1923 O 186.379 -1.68833 -0.838306 0
M  V30 1924 C 183.506 -3.18643 -1.14823 0
M  V30 1925 C 182.552 -4.2344 -0.510009 0
M  V30 1926 S 183.385 -5.30761 0.710824 0
M  V30 1927 C 184.541 -6.24992 -0.33699 0
M  V30 1928 H 184.774 -2.90884 0.614322 0
M  V30 1929 H 182.307 -1.48166 0.434304 0
M  V30 1930 H 184.265 -3.71424 -1.74799 0
M  V30 1931 H 182.926 -2.54932 -1.8349 0
M  V30 1932 H 182.119 -4.86948 -1.29991 0
M  V30 1933 H 181.721 -3.73997 0.0154577 0
M  V30 1934 H 184.013 -6.66691 -1.20537 0
M  V30 1935 H 184.956 -7.07612 0.262879 0
M  V30 1936 H 185.364 -5.60517 -0.669425 0
M  V30 1937 N 184.763 -0.387143 -1.52771 0
M  V30 1938 C 185.693 0.440551 -2.29306 0
M  V30 1939 C 186.674 1.06535 -1.32606 0
M  V30 1940 O 187.859 1.07853 -1.61497 0
M  V30 1941 C 184.989 1.56919 -3.09829 0
M  V30 1942 C 183.943 1.07054 -4.14395 0
M  V30 1943 C 183.269 2.29109 -4.83129 0
M  V30 1944 C 184.569 0.140015 -5.22112 0
M  V30 1945 H 186.263 -0.198026 -2.98744 0
M  V30 1946 H 183.809 -0.09668 -1.43675 0
M  V30 1947 H 185.762 2.15503 -3.62128 0
M  V30 1948 H 184.486 2.23532 -2.3812 0
M  V30 1949 H 183.145 0.507247 -3.63074 0
M  V30 1950 H 182.793 2.94227 -4.0797 0
M  V30 1951 H 182.493 1.96406 -5.53804 0
M  V30 1952 H 184.017 2.88339 -5.38231 0
M  V30 1953 H 185.431 0.633978 -5.69784 0
M  V30 1954 H 183.828 -0.0971485 -6.00021 0
M  V30 1955 H 184.898 -0.811711 -4.78058 0
M  V30 1956 N 186.241 1.57166 -0.116904 0
M  V30 1957 C 187.466 1.999 0.55271 0
M  V30 1958 C 187.891 0.996039 1.59564 0
M  V30 1959 O 187.249 -0.032556 1.81271 0
M  V30 1960 C 187.297 3.4152 1.15742 0
M  V30 1961 O 186.401 3.44106 2.27299 0
M  V30 1962 H 185.742 0.649447 0.138258 0
M  V30 1963 H 188.272 2.03573 -0.204759 0
M  V30 1964 H 188.282 3.79684 1.49346 0
M  V30 1965 H 186.957 4.14034 0.393493 0
M  V30 1966 H 185.534 3.17759 1.9515 0
M  V30 1967 N 187.719 -0.156864 1.56817 0
M  V30 1968 C 188.966 -0.871125 1.82805 0
M  V30 1969 C 189.294 -1.81611 0.696262 0
M  V30 1970 O 188.549 -1.93141 -0.315459 0
M  V30 1971 C 188.848 -1.68737 3.1506 0
M  V30 1972 C 188.514 -0.890045 4.42028 0
M  V30 1973 C 187.176 -0.670042 4.76512 0
M  V30 1974 C 189.528 -0.331769 5.20143 0
M  V30 1975 C 186.856 0.119104 5.86579 0
M  V30 1976 C 189.208 0.444365 6.31037 0
M  V30 1977 C 187.872 0.675035 6.64078 0
M  V30 1978 H 187.142 -0.318767 0.668931 0
M  V30 1979 H 189.789 -0.135274 1.91022 0
M  V30 1980 H 188.094 -2.49304 3.0225 0
M  V30 1981 H 189.791 -2.24331 3.3238 0
M  V30 1982 H 186.381 -1.07157 4.14988 0
M  V30 1983 H 190.565 -0.489043 4.93885 0
M  V30 1984 H 185.821 0.307417 6.10627 0
M  V30 1985 H 189.995 0.884139 6.90765 0
M  V30 1986 H 187.622 1.28839 7.49203 0
M  V30 1987 N 189.197 -1.51736 -0.425897 0
M  V30 1988 C 190.13 -1.68574 -1.53812 0
M  V30 1989 C 191.108 -0.53328 -1.53606 0
M  V30 1990 O 192.292 -0.758555 -1.72564 0
M  V30 1991 C 189.419 -1.70977 -2.92377 0
M  V30 1992 C 188.465 -2.92324 -3.10563 0
M  V30 1993 S 189.298 -4.52952 -2.85648 0
M  V30 1994 C 190.454 -4.58117 -4.26474 0
M  V30 1995 H 190.687 -2.62647 -1.39298 0
M  V30 1996 H 188.22 -1.41564 -0.616361 0
M  V30 1997 H 190.178 -1.73047 -3.72243 0
M  V30 1998 H 188.839 -0.78061 -3.04245 0
M  V30 1999 H 188.032 -2.90439 -4.11899 0
M  V30 2000 H 187.634 -2.88055 -2.38538 0
M  V30 2001 H 189.926 -4.34462 -5.19855 0
M  V30 2002 H 190.869 -5.59983 -4.33388 0
M  V30 2003 H 191.277 -3.8732 -4.10662 0
M  V30 2004 N 190.675 0.682077 -1.42076 0
M  V30 2005 C 191.605 1.80796 -1.47767 0
M  V30 2006 C 192.586 1.6677 -0.334954 0
M  V30 2007 O 193.771 1.863 -0.548264 0
M  V30 2008 C 190.901 3.19038 -1.37229 0
M  V30 2009 C 189.855 3.47789 -2.49453 0
M  V30 2010 C 189.181 4.8553 -2.23975 0
M  V30 2011 C 190.481 3.45411 -3.91776 0
M  V30 2012 H 192.175 1.7629 -2.41997 0
M  V30 2013 H 189.721 0.846721 -1.16476 0
M  V30 2014 H 191.674 3.97528 -1.39821 0
M  V30 2015 H 190.398 3.24204 -0.394907 0
M  V30 2016 H 189.057 2.71657 -2.46166 0
M  V30 2017 H 188.705 4.87337 -1.24547 0
M  V30 2018 H 188.405 5.0573 -2.99184 0
M  V30 2019 H 189.929 5.66312 -2.28304 0
M  V30 2020 H 191.343 4.13882 -3.96705 0
M  V30 2021 H 189.74 3.77145 -4.66778 0
M  V30 2022 H 190.81 2.44122 -4.18966 0
M  V30 2023 N 192.153 1.28127 0.917671 0
M  V30 2024 C 193.063 1.13556 2.05286 0
M  V30 2025 C 194.079 0.0630914 1.73886 0
M  V30 2026 O 195.255 0.271598 1.9956 0
M  V30 2027 C 192.32 0.794676 3.3747 0
M  V30 2028 C 191.381 1.94909 3.82504 0
M  V30 2029 C 190.614 1.62437 5.0838 0
M  V30 2030 O 190.837 0.536905 5.67867 0
M  V30 2031 O 189.771 2.46677 5.4903 0
M  V30 2032 H 193.597 2.08844 2.20495 0
M  V30 2033 H 191.182 1.07409 1.03845 0
M  V30 2034 H 193.064 0.618344 4.16839 0
M  V30 2035 H 191.739 -0.128581 3.23445 0
M  V30 2036 H 190.646 2.18055 3.03978 0
M  V30 2037 H 191.979 2.85291 4.01086 0
M  V30 2038 N 193.631 -1.12557 1.10312 0
M  V30 2039 C 194.579 -2.20325 0.745629 0
M  V30 2040 C 195.573 -1.67429 -0.25763 0
M  V30 2041 O 196.779 -1.79612 -0.118132 0
M  V30 2042 H 193.154 -0.718118 0.223182 0
M  V30 2043 H 195.125 -2.47733 1.66346 0
M  V30 2044 C 193.874 -3.47168 0.192262 0
M  V30 2045 H 193.197 -3.88215 0.955475 0
M  V30 2046 H 194.637 -4.23995 -0.0198274 0
M  V30 2047 C 193.096 -3.19298 -1.07472 0
M  V30 2048 O 193.626 -3.3891 -2.15645 0
M  V30 2049 N 191.832 -2.73113 -0.992847 0
M  V30 2050 H 191.379 -2.57354 -0.112474 0
M  V30 2051 H 191.337 -2.54842 -1.84127 0
M  V30 2052 N 195.109 -0.891671 -1.2995 0
M  V30 2053 C 196.039 -0.379797 -2.30391 0
M  V30 2054 C 197.02 0.540919 -1.6127 0
M  V30 2055 O 198.205 0.453352 -1.88834 0
M  V30 2056 C 195.335 0.400654 -3.44981 0
M  V30 2057 C 194.289 -0.428905 -4.25846 0
M  V30 2058 C 193.615 0.478557 -5.32554 0
M  V30 2059 C 194.915 -1.67458 -4.94727 0
M  V30 2060 H 196.609 -1.21914 -2.73454 0
M  V30 2061 H 194.155 -0.587675 -1.31462 0
M  V30 2062 H 196.108 0.769434 -4.14316 0
M  V30 2063 H 194.832 1.27371 -3.0074 0
M  V30 2064 H 193.491 -0.779911 -3.58208 0
M  V30 2065 H 193.139 1.34951 -4.84559 0
M  V30 2066 H 192.839 -0.0727433 -5.87555 0
M  V30 2067 H 194.363 0.843705 -6.04743 0
M  V30 2068 H 195.777 -1.376 -5.56542 0
M  V30 2069 H 194.174 -2.16659 -5.59624 0
M  V30 2070 H 195.244 -2.41518 -4.20473 0
M  V30 2071 N 196.587 1.43421 -0.653314 0
M  V30 2072 C 197.519 2.29071 0.0769134 0
M  V30 2073 C 198.532 1.42513 0.787017 0
M  V30 2074 O 199.721 1.66449 0.644757 0
M  V30 2075 C 196.821 3.19436 1.13199 0
M  V30 2076 C 195.994 4.34533 0.500006 0
M  V30 2077 C 195.053 5.05771 1.45198 0
M  V30 2078 O 194.079 5.61037 0.960538 0
M  V30 2079 N 195.281 5.0928 2.78594 0
M  V30 2080 H 198.046 2.92382 -0.658235 0
M  V30 2081 H 195.607 1.54112 -0.496104 0
M  V30 2082 H 197.599 3.63958 1.76964 0
M  V30 2083 H 196.169 2.57724 1.7691 0
M  V30 2084 H 195.389 3.92925 -0.316738 0
M  V30 2085 H 196.677 5.08766 0.0588345 0
M  V30 2086 H 196.075 4.65751 3.2108 0
M  V30 2087 H 194.632 5.57519 3.37662 0
M  V30 2088 N 198.065 0.39524 1.52563 0
M  V30 2089 C 199.012 -0.437036 2.26624 0
M  V30 2090 C 199.982 -1.05281 1.28472 0
M  V30 2091 O 201.167 -1.07971 1.57311 0
M  V30 2092 C 198.307 -1.55524 3.08069 0
M  V30 2093 C 197.42 -0.961745 4.21158 0
M  V30 2094 C 196.555 -2.05149 4.89987 0
M  V30 2095 C 195.594 -1.4342 5.95061 0
M  V30 2096 N 194.731 -2.46351 6.57462 0
M  V30 2097 H 199.571 0.200976 2.97322 0
M  V30 2098 H 197.108 0.110944 1.46681 0
M  V30 2099 H 199.066 -2.21437 3.53584 0
M  V30 2100 H 197.696 -2.16348 2.3957 0
M  V30 2101 H 196.748 -0.192048 3.79915 0
M  V30 2102 H 198.06 -0.470701 4.96574 0
M  V30 2103 H 197.214 -2.78819 5.38837 0
M  V30 2104 H 195.953 -2.57615 4.14109 0
M  V30 2105 H 194.958 -0.682774 5.45544 0
M  V30 2106 H 196.183 -0.917416 6.72875 0
M  V30 2107 H 194.129 -2.97975 5.8442 0
M  V30 2108 H 194.046 -2.02019 7.28508 0
M  V30 2109 H 195.314 -3.19633 7.10954 0
M  V30 2110 N 199.544 -1.57102 0.125237 0
M  V30 2111 C 200.772 -1.99761 -0.538797 0
M  V30 2112 C 201.187 -1.00503 -1.59827 0
M  V30 2113 O 200.544 0.00119474 -1.825 0
M  V30 2114 C 200.595 -3.42408 -1.15927 0
M  V30 2115 O 200.316 -4.37869 -0.142143 0
M  V30 2116 C 201.817 -4.00232 -1.90602 0
M  V30 2117 H 199.037 -0.655772 -0.14214 0
M  V30 2118 H 201.581 -2.03383 0.213413 0
M  V30 2119 H 199.736 -3.39706 -1.86223 0
M  V30 2120 H 200.15 -5.21128 -0.593775 0
M  V30 2121 H 201.624 -5.02105 -2.29335 0
M  V30 2122 H 202.101 -3.39721 -2.78363 0
M  V30 2123 H 202.707 -4.06499 -1.25055 0
M  V30 2124 N 201.022 0.148545 -1.56898 0
M  V30 2125 C 202.268 0.862694 -1.83536 0
M  V30 2126 C 202.601 1.80889 -0.706604 0
M  V30 2127 O 201.876 1.92328 0.289885 0
M  V30 2128 C 202.159 1.63853 -3.20662 0
M  V30 2129 C 202.012 0.713925 -4.44098 0
M  V30 2130 C 203.331 2.60133 -3.54991 0
M  V30 2131 H 200.45 0.312179 -0.667618 0
M  V30 2132 H 203.092 0.127953 -1.89569 0
M  V30 2133 H 201.242 2.26489 -3.1565 0
M  V30 2134 H 202.914 0.098686 -4.61194 0
M  V30 2135 H 201.157 0.0234019 -4.33794 0
M  V30 2136 H 201.828 1.29278 -5.36648 0
M  V30 2137 H 204.304 2.07616 -3.60603 0
M  V30 2138 H 203.18 3.11468 -4.51972 0
M  V30 2139 H 203.441 3.41417 -2.80868 0
M  V30 2140 N 202.5 1.5196 0.417844 0
M  V30 2141 C 203.749 1.6482 1.16264 0
M  V30 2142 C 204.062 0.379886 1.91876 0
M  V30 2143 O 205.268 0.388154 2.68711 0
M  V30 2144 C 203.724 2.91161 2.1155 0
M  V30 2145 C 203.332 4.25068 1.41495 0
M  V30 2146 C 205.076 3.13383 2.86341 0
M  V30 2147 C 202.983 5.42541 2.35379 0
M  V30 2148 H 201.913 0.613954 0.437694 0
M  V30 2149 H 204.564 1.78442 0.427871 0
M  V30 2150 H 202.946 2.71218 2.88543 0
M  V30 2151 H 204.12 4.55463 0.699263 0
M  V30 2152 H 202.435 4.0888 0.787792 0
M  V30 2153 H 205.032 3.98324 3.5671 0
M  V30 2154 H 205.375 2.27256 3.48798 0
M  V30 2155 H 205.908 3.33757 2.1645 0
M  V30 2156 H 202.647 6.30987 1.77582 0
M  V30 2157 H 202.167 5.16497 3.04945 0
M  V30 2158 H 203.846 5.75272 2.96093 0
M  V30 2159 N 203.978 -0.674533 1.42435 0
M  V30 2160 C 204.908 -1.80009 1.48724 0
M  V30 2161 C 205.889 -1.6659 0.343793 0
M  V30 2162 O 207.074 -1.86007 0.558137 0
M  V30 2163 C 204.204 -3.18306 1.38919 0
M  V30 2164 C 203.158 -3.46461 2.51294 0
M  V30 2165 C 202.484 -4.84335 2.26547 0
M  V30 2166 C 203.784 -3.43328 3.93603 0
M  V30 2167 H 205.478 -1.75004 2.42928 0
M  V30 2168 H 203.024 -0.840533 1.16923 0
M  V30 2169 H 204.977 -3.9678 1.41927 0
M  V30 2170 H 203.701 -3.2399 0.412094 0
M  V30 2171 H 202.36 -2.70348 2.47604 0
M  V30 2172 H 202.008 -4.86669 1.2713 0
M  V30 2173 H 201.708 -5.04136 3.01861 0
M  V30 2174 H 203.232 -5.65094 2.31304 0
M  V30 2175 H 204.646 -4.11772 3.98894 0
M  V30 2176 H 203.043 -3.74664 4.68771 0
M  V30 2177 H 204.113 -2.41897 4.20255 0
M  V30 2178 N 205.456 -1.28612 -0.910864 0
M  V30 2179 C 206.684 -1.18792 -1.69399 0
M  V30 2180 C 207.099 0.253039 -1.87097 0
M  V30 2181 O 206.456 1.17071 -1.40003 0
M  V30 2182 C 206.507 -1.88511 -3.08457 0
M  V30 2183 O 206.228 -3.26979 -2.91576 0
M  V30 2184 C 207.729 -1.85029 -4.02839 0
M  V30 2185 H 204.949 -0.412233 -0.529438 0
M  V30 2186 H 207.493 -1.69788 -1.13984 0
M  V30 2187 H 205.648 -1.41379 -3.60681 0
M  V30 2188 H 206.062 -3.61936 -3.79608 0
M  V30 2189 H 207.536 -2.38395 -4.97867 0
M  V30 2190 H 208.013 -0.823303 -4.31414 0
M  V30 2191 H 208.619 -2.31853 -3.56545 0
M  V30 2192 N 206.934 1.1197 -1.10907 0
M  V30 2193 C 208.182 1.83225 -0.852819 0
M  V30 2194 C 208.503 1.84769 0.623341 0
M  V30 2195 O 207.773 1.3143 1.45269 0
M  V30 2196 H 206.353 0.67849 -0.312507 0
M  V30 2197 H 209.015 1.3556 -1.40033 0
M  V30 2198 H 208.111 2.87265 -1.22005 0
M  V30 2199 N 208.412 0.89855 1.29475 0
M  V30 2200 C 209.375 0.380272 2.26023 0
M  V30 2201 C 210.375 -0.484891 1.53315 0
M  V30 2202 O 211.565 -0.290108 1.71767 0
M  V30 2203 C 208.697 -0.45651 3.3783 0
M  V30 2204 H 209.89 1.23295 2.73383 0
M  V30 2205 H 207.443 0.676589 1.40897 0
M  V30 2206 H 208.178 -1.32922 2.95808 0
M  V30 2207 H 207.963 0.163393 3.91759 0
M  V30 2208 H 209.453 -0.810466 4.0966 0
M  V30 2209 N 209.89 -1.43072 0.660911 0
M  V30 2210 C 210.822 -2.29108 -0.0647641 0
M  V30 2211 C 211.835 -1.42928 -0.779448 0
M  V30 2212 O 213.024 -1.66788 -0.635921 0
M  V30 2213 C 210.124 -3.20032 -1.11503 0
M  V30 2214 C 209.297 -4.34792 -0.476955 0
M  V30 2215 C 208.356 -5.06534 -1.42513 0
M  V30 2216 O 207.382 -5.61538 -0.930771 0
M  V30 2217 N 208.584 -5.1075 -2.75889 0
M  V30 2218 H 211.349 -2.92029 0.673731 0
M  V30 2219 H 208.91 -1.53846 0.50427 0
M  V30 2220 H 210.902 -3.64892 -1.75032 0
M  V30 2221 H 209.472 -2.58658 -1.75541 0
M  V30 2222 H 208.692 -3.92752 0.337572 0
M  V30 2223 H 209.98 -5.0879 -0.0318525 0
M  V30 2224 H 209.378 -4.67447 -3.18606 0
M  V30 2225 H 207.935 -5.59302 -3.347 0
M  V30 2226 N 211.368 -0.403325 -1.52352 0
M  V30 2227 C 212.614 0.174605 -2.02047 0
M  V30 2228 C 212.947 1.45282 -1.28867 0
M  V30 2229 O 212.222 1.90483 -0.393257 0
M  V30 2230 C 212.505 0.428238 -3.57545 0
M  V30 2231 C 212.358 -0.866248 -4.4138 0
M  V30 2232 C 213.677 1.21287 -4.23057 0
M  V30 2233 H 210.796 0.0619851 -0.734389 0
M  V30 2234 H 213.438 -0.53565 -1.82293 0
M  V30 2235 H 211.588 1.03327 -3.74507 0
M  V30 2236 H 213.26 -1.50265 -4.3614 0
M  V30 2237 H 211.503 -1.47851 -4.07827 0
M  V30 2238 H 212.174 -0.643249 -5.48239 0
M  V30 2239 H 214.65 0.700703 -4.10158 0
M  V30 2240 H 213.526 1.35909 -5.31808 0
M  V30 2241 H 213.787 2.23193 -3.81625 0
M  V30 2242 N 212.846 1.57033 -0.133567 0
M  V30 2243 C 214.257 1.82593 0.389464 0
M  V30 2244 C 214.608 1.05156 1.6564 0
M  V30 2245 O 213.733 0.292644 2.14412 0
M  V30 2246 C 214.328 3.31204 0.713377 0
M  V30 2247 C 212.887 3.57393 1.18098 0
M  V30 2248 C 212.034 2.76598 0.197126 0
M  V30 2249 H 214.985 1.54598 -0.358481 0
M  V30 2250 H 215.006 3.46627 1.56939 0
M  V30 2251 H 214.518 3.87537 -0.2089 0
M  V30 2252 H 212.619 3.06433 2.11966 0
M  V30 2253 H 212.732 4.65915 1.11624 0
M  V30 2254 H 211.096 2.45257 0.687088 0
M  V30 2255 H 211.879 3.35697 -0.718504 0
M  V30 2256 N 214.325 -0.140222 1.56975 0
M  V30 2257 C 215.574 -0.850152 1.82908 0
M  V30 2258 C 215.887 -1.82028 0.715892 0
M  V30 2259 O 217.093 -2.57485 0.861016 0
M  V30 2260 C 215.549 -1.5625 3.24213 0
M  V30 2261 C 215.157 -0.63443 4.43485 0
M  V30 2262 C 216.901 -2.25881 3.59413 0
M  V30 2263 C 214.808 -1.34879 5.75814 0
M  V30 2264 H 213.738 -0.321221 0.682153 0
M  V30 2265 H 216.389 -0.102874 1.83211 0
M  V30 2266 H 214.771 -2.35565 3.18316 0
M  V30 2267 H 215.945 0.12398 4.60633 0
M  V30 2268 H 214.26 -0.0461836 4.16374 0
M  V30 2269 H 216.857 -2.79978 4.5554 0
M  V30 2270 H 217.2 -3.02693 2.85802 0
M  V30 2271 H 217.733 -1.53477 3.67001 0
M  V30 2272 H 214.472 -0.622385 6.52539 0
M  V30 2273 H 213.992 -2.07974 5.6259 0
M  V30 2274 H 215.671 -1.88784 6.18845 0
M  V30 2275 N 215.803 -1.52179 -0.40978 0
M  V30 2276 C 216.753 -1.71857 -1.49831 0
M  V30 2277 C 217.737 -0.572469 -1.50372 0
M  V30 2278 O 218.929 -0.829509 -1.56359 0
M  V30 2279 C 216.058 -1.87206 -2.87765 0
M  V30 2280 C 215.144 -3.07685 -2.91875 0
M  V30 2281 N 215.535 -4.30403 -2.65683 0
M  V30 2282 C 213.833 -3.07505 -3.23043 0
M  V30 2283 C 214.534 -5.11868 -2.76344 0
M  V30 2284 N 213.51 -4.47101 -3.09195 0
M  V30 2285 H 217.312 -2.64381 -1.28375 0
M  V30 2286 H 214.826 -1.50203 -0.617479 0
M  V30 2287 H 216.823 -1.99419 -3.66111 0
M  V30 2288 H 215.483 -0.958814 -3.10221 0
M  V30 2289 H 216.494 -4.58887 -2.4009 0
M  V30 2290 H 213.171 -2.25915 -3.51096 0
M  V30 2291 H 214.561 -6.19634 -2.59814 0
M  V30 2292 N 217.281 0.66697 -1.42791 0
M  V30 2293 C 218.244 1.76211 -1.46568 0
M  V30 2294 C 219.244 1.56896 -0.352196 0
M  V30 2295 O 220.434 1.63044 -0.613364 0
M  V30 2296 C 217.566 3.14935 -1.30494 0
M  V30 2297 H 218.759 1.74247 -2.44086 0
M  V30 2298 H 216.312 0.877342 -1.29354 0
M  V30 2299 H 217.047 3.2252 -0.339301 0
M  V30 2300 H 216.832 3.30359 -2.11199 0
M  V30 2301 H 218.322 3.94821 -1.36038 0
M  V30 2302 N 218.759 1.29093 0.90403 0
M  V30 2303 C 219.689 1.16401 2.02418 0
M  V30 2304 C 220.67 0.0593085 1.69997 0
M  V30 2305 O 221.855 0.238021 1.92736 0
M  V30 2306 C 218.985 0.835233 3.37107 0
M  V30 2307 C 217.939 1.89578 3.83724 0
M  V30 2308 C 217.265 1.42041 5.15489 0
M  V30 2309 C 218.565 3.30394 4.04521 0
M  V30 2310 H 220.259 2.10109 2.13295 0
M  V30 2311 H 217.805 1.01157 1.02486 0
M  V30 2312 H 219.758 0.733169 4.14973 0
M  V30 2313 H 218.482 -0.137543 3.2631 0
M  V30 2314 H 217.141 1.98715 3.08071 0
M  V30 2315 H 216.789 0.436426 5.01103 0
M  V30 2316 H 216.489 2.12964 5.4765 0
M  V30 2317 H 218.013 1.33176 5.959 0
M  V30 2318 H 219.427 3.24123 4.72882 0
M  V30 2319 H 217.824 3.99237 4.48029 0
M  V30 2320 H 218.894 3.73692 3.09002 0
M  V30 2321 N 220.237 -1.11381 1.11499 0
M  V30 2322 C 221.483 -1.83597 0.875423 0
M  V30 2323 C 221.838 -1.83048 -0.592555 0
M  V30 2324 O 221.131 -1.27304 -1.43193 0
M  V30 2325 C 221.325 -3.30026 1.37177 0
M  V30 2326 C 221.154 -3.44837 2.88647 0
M  V30 2327 C 219.924 -3.57825 3.56776 0
M  V30 2328 C 222.122 -3.3907 3.86699 0
M  V30 2329 N 220.104 -3.61113 4.96458 0
M  V30 2330 C 221.475 -3.48986 5.12454 0
M  V30 2331 C 223.53 -3.22605 3.7925 0
M  V30 2332 C 222.233 -3.44135 6.31636 0
M  V30 2333 C 224.259 -3.19072 4.97943 0
M  V30 2334 C 223.621 -3.29559 6.22551 0
M  V30 2335 H 219.72 -0.687044 0.37349 0
M  V30 2336 H 222.304 -1.33265 1.41946 0
M  V30 2337 H 220.475 -3.78874 0.854919 0
M  V30 2338 H 222.207 -3.90153 1.07529 0
M  V30 2339 H 218.962 -3.60414 3.07244 0
M  V30 2340 H 219.386 -3.66394 5.69284 0
M  V30 2341 H 224.028 -3.13382 2.83816 0
M  V30 2342 H 221.746 -3.52126 7.27347 0
M  V30 2343 H 225.332 -3.07498 4.93899 0
M  V30 2344 H 224.212 -3.26815 7.12855 0
M  V30 2345 N 221.715 -0.905404 -1.28997 0
M  V30 2346 C 222.94 -0.549175 -1.99997 0
M  V30 2347 C 223.365 0.860276 -1.67275 0
M  V30 2348 O 222.723 1.57355 -0.900502 0
M  V30 2349 C 222.771 -0.755185 -3.52604 0
M  V30 2350 O 221.875 0.189692 -4.11964 0
M  V30 2351 H 221.216 -0.213899 -0.628604 0
M  V30 2352 H 223.746 -1.21856 -1.64354 0
M  V30 2353 H 223.756 -0.662045 -4.02593 0
M  V30 2354 H 222.431 -1.78271 -3.75755 0
M  V30 2355 H 221.008 0.0485257 -3.72868 0
M  V30 2356 N 223.193 1.4272 -0.668489 0
M  V30 2357 C 224.47 1.95248 -0.117373 0
M  V30 2358 C 224.85 1.60919 1.36632 0
M  V30 2359 O 224.198 0.902095 2.09939 0
M  V30 2360 C 224.408 3.46927 -0.379806 0
M  V30 2361 C 225.756 4.23588 -0.292923 0
M  V30 2362 O 226.78 3.5482 -0.313204 0
M  V30 2363 O 225.639 5.46017 -0.229697 0
M  V30 2364 H 222.733 0.827 0.00079152 0
M  V30 2365 H 225.279 1.52581 -0.742783 0
M  V30 2366 H 224.051 3.65096 -1.40786 0
M  V30 2367 H 223.674 3.96627 0.277923 0
M  V30 2368 N 224.671 0.411399 1.52136 0
M  V30 2369 C 225.919 -0.163322 2.01439 0
M  V30 2370 C 226.24 -1.45453 1.29879 0
M  V30 2371 O 225.51 -1.91225 0.4254 0
M  V30 2372 H 224.09 -0.0633447 0.744309 0
M  V30 2373 H 226.752 0.548161 1.87033 0
M  V30 2374 H 225.848 -0.357817 3.10042 0
M  V30 2375 N 226.149 -1.5696 0.141893 0
M  V30 2376 C 227.565 -1.58151 -0.21456 0
M  V30 2377 C 227.765 -1.1559 -1.65049 0
M  V30 2378 O 226.821 -0.853832 -2.37626 0
M  V30 2379 C 228.134 -3.00674 0.0395576 0
M  V30 2380 C 229.682 -3.1299 -0.0245529 0
M  V30 2381 C 230.157 -4.57554 0.202167 0
M  V30 2382 N 231.648 -4.62961 0.148919 0
M  V30 2383 C 232.383 -5.7262 0.298924 0
M  V30 2384 N 231.879 -6.90947 0.50637 0
M  V30 2385 N 233.672 -5.61601 0.236886 0
M  V30 2386 H 225.823 -1.8292 1.07953 0
M  V30 2387 H 228.086 -0.846425 0.42693 0
M  V30 2388 H 227.792 -3.36183 1.03315 0
M  V30 2389 H 227.666 -3.70981 -0.682143 0
M  V30 2390 H 230.053 -2.77326 -1.00869 0
M  V30 2391 H 230.134 -2.4518 0.729396 0
M  V30 2392 H 229.778 -4.93922 1.18338 0
M  V30 2393 H 229.708 -5.23484 -0.572044 0
M  V30 2394 H 232.199 -3.77899 -0.00697015 0
M  V30 2395 H 232.512 -7.7038 0.611076 0
M  V30 2396 H 230.857 -6.92878 0.542628 0
M  V30 2397 H 234.048 -4.68039 0.0756209 0
M  V30 2398 H 234.221 -6.47015 0.357227 0
M  V30 2399 N 227.627 0.131896 -1.57047 0
M  V30 2400 C 228.537 1.1815 -2.02676 0
M  V30 2401 C 229.553 1.46113 -0.944824 0
M  V30 2402 O 230.729 1.57485 -1.25541 0
M  V30 2403 C 227.794 2.49139 -2.41103 0
M  V30 2404 C 226.855 2.28688 -3.63318 0
M  V30 2405 C 226.088 3.53431 -3.99903 0
M  V30 2406 O 226.311 4.60223 -3.36973 0
M  V30 2407 O 225.245 3.45198 -4.93074 0
M  V30 2408 H 229.071 0.824069 -2.92306 0
M  V30 2409 H 226.656 0.341745 -1.45439 0
M  V30 2410 H 228.538 3.26338 -2.66611 0
M  V30 2411 H 227.213 2.84382 -1.54624 0
M  V30 2412 H 226.12 1.4939 -3.42977 0
M  V30 2413 H 227.453 1.98355 -4.50462 0
M  V30 2414 N 229.106 1.52395 0.401703 0
M  V30 2415 C 230.054 1.7689 1.51039 0
M  V30 2416 C 231.048 0.636298 1.56996 0
M  V30 2417 O 232.254 0.818507 1.60314 0
M  V30 2418 H 228.629 0.559502 0.502456 0
M  V30 2419 H 230.6 2.69757 1.27568 0
M  V30 2420 C 229.349 1.94331 2.88324 0
M  V30 2421 H 228.672 2.80905 2.84486 0
M  V30 2422 H 230.112 2.15466 3.65172 0
M  V30 2423 C 228.571 0.712396 3.29282 0
M  V30 2424 O 229.101 -0.116218 4.01532 0
M  V30 2425 N 227.307 0.546154 2.85422 0
M  V30 2426 H 226.854 1.22156 2.26794 0
M  V30 2427 H 226.812 -0.276113 3.13185 0
M  V30 2428 N 230.584 -0.659388 1.43143 0
M  V30 2429 C 231.514 -1.78422 1.50625 0
M  V30 2430 C 232.495 -1.66216 0.361443 0
M  V30 2431 O 233.68 -1.85404 0.577834 0
M  V30 2432 C 230.81 -3.16815 1.42287 0
M  V30 2433 C 229.764 -3.43777 2.54954 0
M  V30 2434 C 229.09 -4.81905 2.31671 0
M  V30 2435 C 230.39 -3.39134 3.97222 0
M  V30 2436 H 232.084 -1.72417 2.44771 0
M  V30 2437 H 229.63 -0.828084 1.17808 0
M  V30 2438 H 231.583 -3.95253 1.46127 0
M  V30 2439 H 230.307 -3.23534 0.446435 0
M  V30 2440 H 228.966 -2.67707 2.50457 0
M  V30 2441 H 228.614 -4.85294 1.32284 0
M  V30 2442 H 228.314 -5.00906 3.07192 0
M  V30 2443 H 229.838 -5.62609 2.37284 0
M  V30 2444 H 231.252 -4.07518 4.03239 0
M  V30 2445 H 229.649 -3.69671 4.72719 0
M  V30 2446 H 230.719 -2.37426 4.22797 0
M  V30 2447 N 232.062 -1.29571 -0.897171 0
M  V30 2448 C 232.992 -1.17473 -2.01798 0
M  V30 2449 C 233.973 -0.068323 -1.69963 0
M  V30 2450 O 235.158 -0.248239 -1.92607 0
M  V30 2451 C 232.288 -0.853099 -3.36659 0
M  V30 2452 C 231.242 -1.9161 -3.82713 0
M  V30 2453 C 230.568 -1.44773 -5.14728 0
M  V30 2454 C 231.868 -3.32535 -4.02763 0
M  V30 2455 H 233.562 -2.11237 -2.12177 0
M  V30 2456 H 231.108 -1.01699 -1.01948 0
M  V30 2457 H 233.061 -0.755165 -4.14578 0
M  V30 2458 H 231.785 0.120236 -3.26379 0
M  V30 2459 H 230.444 -2.00346 -3.07013 0
M  V30 2460 H 230.092 -0.462995 -5.00865 0
M  V30 2461 H 229.792 -2.15865 -5.46513 0
M  V30 2462 H 231.316 -1.36334 -5.95185 0
M  V30 2463 H 232.73 -3.26626 -4.71156 0
M  V30 2464 H 231.127 -4.01607 -4.45905 0
M  V30 2465 H 232.197 -3.75326 -3.07016 0
M  V30 2466 N 233.54 1.10788 -1.12088 0
M  V30 2467 C 234.788 1.8231 -0.872205 0
M  V30 2468 C 235.109 1.85419 0.603709 0
M  V30 2469 O 234.379 1.32963 1.43867 0
M  V30 2470 H 232.959 0.675137 -0.319686 0
M  V30 2471 H 235.621 1.34068 -1.41463 0
M  V30 2472 H 234.717 2.85955 -1.25045 0
M  V30 2473 N 235.018 0.912232 1.28515 0
M  V30 2474 C 235.981 0.404223 2.25607 0
M  V30 2475 C 236.981 -0.468602 1.53821 0
M  V30 2476 O 238.171 -0.271873 1.72065 0
M  V30 2477 C 235.303 -0.420653 3.38295 0
M  V30 2478 H 236.496 1.26188 2.7206 0
M  V30 2479 H 234.049 0.691495 1.40171 0
M  V30 2480 H 234.784 -1.29777 2.97201 0
M  V30 2481 H 234.569 0.204935 3.91564 0
M  V30 2482 H 236.059 -0.766971 4.10496 0
M  V30 2483 N 236.496 -1.42363 0.676048 0
M  V30 2484 C 237.426 -2.33497 0.0124832 0
M  V30 2485 C 238.407 -1.50748 -0.787981 0
M  V30 2486 O 239.592 -1.79346 -0.744884 0
M  V30 2487 C 236.722 -3.34377 -0.938582 0
M  V30 2488 C 235.676 -4.27289 -0.246622 0
M  V30 2489 C 235.002 -5.18386 -1.31071 0
M  V30 2490 C 236.302 -5.14916 0.875125 0
M  V30 2491 H 237.996 -2.89233 0.773593 0
M  V30 2492 H 235.542 -1.39073 0.37346 0
M  V30 2493 H 237.495 -3.97044 -1.41188 0
M  V30 2494 H 236.219 -2.76947 -1.73113 0
M  V30 2495 H 234.878 -3.66018 0.206456 0
M  V30 2496 H 234.526 -4.57282 -2.09528 0
M  V30 2497 H 234.226 -5.81378 -0.852839 0
M  V30 2498 H 235.75 -5.83929 -1.78492 0
M  V30 2499 H 237.164 -5.71262 0.482983 0
M  V30 2500 H 235.561 -5.86747 1.25887 0
M  V30 2501 H 236.631 -4.53242 1.72335 0
M  V30 2502 N 237.974 -0.419461 -1.51915 0
M  V30 2503 C 238.904 0.391813 -2.30189 0
M  V30 2504 C 239.885 1.03699 -1.34836 0
M  V30 2505 O 241.07 1.04403 -1.63748 0
M  V30 2506 C 238.2 1.50312 -3.13087 0
M  V30 2507 C 237.154 0.9824 -4.16573 0
M  V30 2508 C 236.48 2.18809 -4.8788 0
M  V30 2509 C 237.78 0.0292356 -5.22292 0
M  V30 2510 H 239.474 -0.26135 -2.98257 0
M  V30 2511 H 237.02 -0.127134 -1.43438 0
M  V30 2512 H 238.973 2.07773 -3.66617 0
M  V30 2513 H 237.697 2.18431 -2.42807 0
M  V30 2514 H 236.356 0.430119 -3.64068 0
M  V30 2515 H 236.004 2.85507 -4.14119 0
M  V30 2516 H 235.704 1.84615 -5.57845 0
M  V30 2517 H 237.228 2.76858 -5.44226 0
M  V30 2518 H 238.642 0.512976 -5.71 0
M  V30 2519 H 237.039 -0.2244 -5.9968 0
M  V30 2520 H 238.109 -0.912931 -4.76228 0
M  V30 2521 N 239.452 1.56882 -0.150215 0
M  V30 2522 C 240.385 2.12712 0.826358 0
M  V30 2523 C 241.363 1.05154 1.24022 0
M  V30 2524 O 242.547 1.33004 1.33575 0
M  V30 2525 C 239.674 2.64945 2.11002 0
M  V30 2526 C 238.72 3.8468 1.84183 0
M  V30 2527 S 239.553 5.25502 1.02995 0
M  V30 2528 C 240.709 5.81125 2.32474 0
M  V30 2529 H 240.942 2.95214 0.351598 0
M  V30 2530 H 238.475 1.54267 0.0641211 0
M  V30 2531 H 240.433 2.95689 2.84742 0
M  V30 2532 H 239.094 1.82568 2.55593 0
M  V30 2533 H 238.287 4.19482 2.79375 0
M  V30 2534 H 237.889 3.54714 1.1855 0
M  V30 2535 H 240.181 5.92753 3.281 0
M  V30 2536 H 241.124 6.78625 2.02171 0
M  V30 2537 H 241.532 5.09392 2.43269 0
M  V30 2538 N 240.93 -0.123565 1.57115 0
M  V30 2539 C 241.893 -1.13583 1.99076 0
M  V30 2540 C 242.893 -1.34564 0.880296 0
M  V30 2541 O 244.083 -1.31158 1.14644 0
M  V30 2542 C 241.215 -2.49128 2.32698 0
M  V30 2543 H 242.408 -0.775287 2.89706 0
M  V30 2544 H 239.961 -0.36771 1.51913 0
M  V30 2545 H 240.696 -2.90111 1.44934 0
M  V30 2546 H 240.481 -2.35255 3.13684 0
M  V30 2547 H 241.971 -3.2199 2.65918 0
M  V30 2548 N 242.408 -1.52605 -0.393616 0
M  V30 2549 C 243.656 -1.67093 -1.13685 0
M  V30 2550 C 243.977 -0.411011 -1.90619 0
M  V30 2551 O 243.247 0.574491 -1.87287 0
M  V30 2552 H 241.827 -0.615923 -0.422668 0
M  V30 2553 H 244.489 -1.89704 -0.447039 0
M  V30 2554 H 243.585 -2.51922 -1.84232 0
M  V30 2555 N 243.887 0.651787 -1.4349 0
M  V30 2556 C 244.819 1.77725 -1.44729 0
M  V30 2557 C 245.832 1.59141 -0.343231 0
M  V30 2558 O 247.021 1.67835 -0.607751 0
M  V30 2559 C 244.121 3.15172 -1.24579 0
M  V30 2560 C 243.294 3.60402 -2.47849 0
M  V30 2561 C 242.353 4.76656 -2.22902 0
M  V30 2562 O 241.379 4.86022 -2.96263 0
M  V30 2563 N 242.581 5.66958 -1.24656 0
M  V30 2564 H 245.346 1.77141 -2.41746 0
M  V30 2565 H 242.907 0.835678 -1.38665 0
M  V30 2566 H 244.899 3.90634 -1.0577 0
M  V30 2567 H 243.469 3.1052 -0.360015 0
M  V30 2568 H 242.689 2.75369 -2.82073 0
M  V30 2569 H 243.977 3.87368 -3.29884 0
M  V30 2570 H 243.375 5.62065 -0.640265 0
M  V30 2571 H 241.932 6.42135 -1.1183 0
M  V30 2572 N 245.365 1.30045 0.890287 0
M  V30 2573 C 246.595 1.21296 1.67245 0
M  V30 2574 C 247.003 -0.227471 1.87828 0
M  V30 2575 O 246.346 -1.16296 1.422 0
M  V30 2576 C 246.408 1.86519 3.07329 0
M  V30 2577 C 246.072 3.35837 3.09939 0
M  V30 2578 C 247.069 4.31915 2.89389 0
M  V30 2579 C 244.754 3.77196 3.31706 0
M  V30 2580 C 246.748 5.67325 2.90552 0
M  V30 2581 C 244.435 5.12725 3.32499 0
M  V30 2582 C 245.433 6.076 3.11947 0
M  V30 2583 O 245.121 7.40655 3.12547 0
M  V30 2584 H 244.853 0.4211 0.528821 0
M  V30 2585 H 247.407 1.72111 1.12103 0
M  V30 2586 H 245.637 1.30228 3.64112 0
M  V30 2587 H 247.326 1.71963 3.67673 0
M  V30 2588 H 248.092 4.01294 2.72375 0
M  V30 2589 H 243.971 3.03796 3.4674 0
M  V30 2590 H 247.515 6.41354 2.74429 0
M  V30 2591 H 243.412 5.42988 3.49047 0
M  V30 2592 H 244.18 7.49577 3.28749 0
M  V30 2593 N 246.843 -1.10192 1.12674 0
M  V30 2594 C 248.089 -1.82475 0.884915 0
M  V30 2595 C 248.422 -1.85093 -0.58773 0
M  V30 2596 O 247.697 -1.3134 -1.43457 0
M  V30 2597 C 247.98 -3.29018 1.46353 0
M  V30 2598 C 247.833 -3.34718 3.00473 0
M  V30 2599 C 249.152 -4.25473 1.12519 0
M  V30 2600 H 246.271 -0.662492 0.322915 0
M  V30 2601 H 248.913 -1.2913 1.39375 0
M  V30 2602 H 247.063 -3.74576 1.03077 0
M  V30 2603 H 248.735 -2.97622 3.52447 0
M  V30 2604 H 246.978 -2.74541 3.35872 0
M  V30 2605 H 247.649 -4.37918 3.36053 0
M  V30 2606 H 250.125 -3.88161 1.499 0
M  V30 2607 H 249.001 -5.26365 1.55663 0
M  V30 2608 H 249.262 -4.42084 0.0377407 0
M  V30 2609 N 248.321 -0.919034 -1.28029 0
M  V30 2610 C 249.57 -0.550802 -1.94034 0
M  V30 2611 C 249.883 0.910877 -1.73096 0
M  V30 2612 O 251.089 1.3875 -2.33368 0
M  V30 2613 C 249.545 -0.934249 -3.47563 0
M  V30 2614 C 249.153 -2.41602 -3.7727 0
M  V30 2615 C 250.897 -0.636854 -4.19696 0
M  V30 2616 C 248.804 -2.73932 -5.24133 0
M  V30 2617 H 247.734 -0.202273 -0.726362 0
M  V30 2618 H 250.385 -1.11867 -1.45458 0
M  V30 2619 H 248.767 -0.295115 -3.94899 0
M  V30 2620 H 249.941 -3.10233 -3.40723 0
M  V30 2621 H 248.256 -2.68441 -3.18321 0
M  V30 2622 H 250.853 -0.855005 -5.2782 0
M  V30 2623 H 251.196 0.425575 -4.14119 0
M  V30 2624 H 251.729 -1.23469 -3.78154 0
M  V30 2625 H 248.468 -3.79049 -5.34792 0
M  V30 2626 H 247.988 -2.09942 -5.61858 0
M  V30 2627 H 249.667 -2.61215 -5.91925 0
M  V30 2628 N 249.799 1.42003 -0.683588 0
M  V30 2629 C 251.21 1.84501 -0.285736 0
M  V30 2630 C 251.561 1.57213 1.17382 0
M  V30 2631 O 250.686 1.03642 1.89966 0
M  V30 2632 C 251.281 3.34912 -0.511821 0
M  V30 2633 C 249.84 3.76025 -0.168005 0
M  V30 2634 C 248.987 2.6551 -0.799983 0
M  V30 2635 H 251.938 1.31724 -0.885119 0
M  V30 2636 H 251.959 3.79784 0.233292 0
M  V30 2637 H 251.471 3.54741 -1.57418 0
M  V30 2638 H 249.572 3.61801 0.890567 0
M  V30 2639 H 249.685 4.75141 -0.614661 0
M  V30 2640 H 248.049 2.53654 -0.230568 0
M  V30 2641 H 248.832 2.8816 -1.86597 0
M  V30 2642 N 251.277 0.427512 1.51691 0
M  V30 2643 C 252.187 -0.39527 2.31246 0
M  V30 2644 C 253.203 -1.03674 1.39742 0
M  V30 2645 O 254.379 -1.03425 1.72816 0
M  V30 2646 C 251.444 -1.48706 3.13189 0
M  V30 2647 C 250.505 -0.866743 4.20459 0
M  V30 2648 C 249.738 -1.90651 4.98486 0
M  V30 2649 O 249.961 -3.12733 4.77026 0
M  V30 2650 O 248.895 -1.5025 5.82845 0
M  V30 2651 H 252.721 0.253918 3.02637 0
M  V30 2652 H 250.306 0.190274 1.48183 0
M  V30 2653 H 252.188 -2.12047 3.64162 0
M  V30 2654 H 250.863 -2.12051 2.44573 0
M  V30 2655 H 249.77 -0.195544 3.73589 0
M  V30 2656 H 251.103 -0.276934 4.9142 0
M  V30 2657 N 252.755 -1.56801 0.158532 0
M  V30 2658 C 254.001 -1.96781 -0.490405 0
M  V30 2659 C 254.334 -1.04397 -1.63753 0
M  V30 2660 O 253.609 -0.0885805 -1.94298 0
M  V30 2661 C 253.892 -3.4635 -0.985594 0
M  V30 2662 C 253.745 -4.49512 0.160824 0
M  V30 2663 C 255.064 -3.98697 -1.86355 0
M  V30 2664 H 252.183 -0.715482 -0.176788 0
M  V30 2665 H 254.825 -1.88451 0.242088 0
M  V30 2666 H 252.975 -3.53579 -1.60978 0
M  V30 2667 H 254.647 -4.54353 0.797537 0
M  V30 2668 H 252.89 -4.26013 0.818256 0
M  V30 2669 H 253.561 -5.51531 -0.227569 0
M  V30 2670 H 256.037 -3.94019 -1.33746 0
M  V30 2671 H 254.913 -5.03792 -2.17909 0
M  V30 2672 H 255.174 -3.41744 -2.8047 0
M  V30 2673 N 254.233 0.115231 -1.57178 0
M  V30 2674 C 255.473 0.828199 -1.8687 0
M  V30 2675 C 255.837 1.76873 -0.747002 0
M  V30 2676 O 257.038 2.52354 -0.925785 0
M  V30 2677 C 255.309 1.55515 -3.21792 0
M  V30 2678 S 256.868 2.30917 -3.73125 0
M  V30 2679 H 253.686 0.27634 -0.655101 0
M  V30 2680 H 256.288 0.0863469 -1.95309 0
M  V30 2681 H 254.992 0.856248 -4.01368 0
M  V30 2682 H 254.523 2.3373 -3.16439 0
M  V30 2683 H 256.538 3.56705 -3.44929 0
M  V30 2684 N 255.711 1.52812 0.385517 0
M  V30 2685 C 256.641 1.80808 1.47752 0
M  V30 2686 C 257.622 0.660318 1.5676 0
M  V30 2687 O 258.807 0.908246 1.71652 0
M  V30 2688 C 255.937 1.98008 2.85324 0
M  V30 2689 C 254.891 3.13709 2.91154 0
M  V30 2690 C 254.217 3.16169 4.31209 0
M  V30 2691 C 255.517 4.52709 2.60483 0
M  V30 2692 H 257.211 2.72253 1.24573 0
M  V30 2693 H 254.757 1.31003 0.597839 0
M  V30 2694 H 256.71 2.16176 3.61726 0
M  V30 2695 H 255.434 1.03255 3.09848 0
M  V30 2696 H 254.093 2.95329 2.17201 0
M  V30 2697 H 253.741 2.19092 4.52778 0
M  V30 2698 H 253.441 3.93894 4.36029 0
M  V30 2699 H 254.965 3.36496 5.09512 0
M  V30 2700 H 256.379 4.71173 3.26602 0
M  V30 2701 H 254.776 5.32528 2.76648 0
M  V30 2702 H 255.846 4.59186 1.55809 0
M  V30 2703 N 257.189 -0.644168 1.43834 0
M  V30 2704 C 258.436 -1.40395 1.4593 0
M  V30 2705 C 258.764 -1.94305 0.0869658 0
M  V30 2706 O 258.019 -1.73288 -0.909378 0
M  V30 2707 C 258.318 -2.59615 2.45631 0
M  V30 2708 C 257.984 -2.2407 3.91284 0
M  V30 2709 C 256.646 -2.14089 4.30952 0
M  V30 2710 C 258.998 -1.95775 4.83034 0
M  V30 2711 C 256.326 -1.73981 5.6031 0
M  V30 2712 C 258.678 -1.57163 6.12766 0
M  V30 2713 C 257.342 -1.45713 6.51402 0
M  V30 2714 H 256.612 -0.513741 0.533995 0
M  V30 2715 H 259.259 -0.731724 1.76969 0
M  V30 2716 H 257.564 -3.32011 2.08028 0
M  V30 2717 H 259.261 -3.17834 2.44504 0
M  V30 2718 H 255.851 -2.32753 3.59895 0
M  V30 2719 H 260.035 -2.02403 4.53152 0
M  V30 2720 H 255.291 -1.63709 5.89075 0
M  V30 2721 H 259.465 -1.34303 6.83327 0
M  V30 2722 H 257.092 -1.14406 7.51542 0
M  V30 2723 N 258.668 -1.30515 -0.883378 0
M  V30 2724 C 259.915 -1.1943 -1.63532 0
M  V30 2725 C 260.243 0.250627 -1.92878 0
M  V30 2726 O 259.498 1.19556 -1.54935 0
M  V30 2727 C 259.797 -1.96994 -2.98209 0
M  V30 2728 C 259.463 -3.466 -2.88408 0
M  V30 2729 C 258.125 -3.87397 -2.85442 0
M  V30 2730 C 260.477 -4.41863 -2.76418 0
M  V30 2731 C 257.805 -5.21745 -2.68327 0
M  V30 2732 C 260.157 -5.7632 -2.60841 0
M  V30 2733 C 258.821 -6.16354 -2.56251 0
M  V30 2734 H 258.091 -0.437025 -0.598406 0
M  V30 2735 H 260.738 -1.61635 -1.02696 0
M  V30 2736 H 259.043 -1.47429 -3.63004 0
M  V30 2737 H 260.74 -1.85808 -3.55354 0
M  V30 2738 H 257.33 -3.14182 -2.91527 0
M  V30 2739 H 261.514 -4.11285 -2.77775 0
M  V30 2740 H 256.77 -5.51853 -2.63189 0
M  V30 2741 H 260.944 -6.49772 -2.50538 0
M  V30 2742 H 258.571 -7.20401 -2.42748 0
M  V30 2743 N 260.146 1.09593 -1.13257 0
M  V30 2744 C 261.078 2.16015 -0.766167 0
M  V30 2745 C 262.091 1.61423 0.211303 0
M  V30 2746 O 263.28 1.78498 -0.00863946 0
M  V30 2747 C 260.38 3.38706 -0.114662 0
M  V30 2748 C 259.553 4.22717 -1.12379 0
M  V30 2749 C 258.612 5.23835 -0.498301 0
M  V30 2750 O 257.638 5.573 -1.15781 0
M  V30 2751 N 258.84 5.75886 0.730417 0
M  V30 2752 H 261.605 2.48055 -1.68193 0
M  V30 2753 H 259.166 1.25292 -1.02535 0
M  V30 2754 H 261.158 4.03464 0.315991 0
M  V30 2755 H 259.728 3.04569 0.704011 0
M  V30 2756 H 258.948 3.54122 -1.73179 0
M  V30 2757 H 260.236 4.75673 -1.80589 0
M  V30 2758 H 259.634 5.50911 1.28504 0
M  V30 2759 H 258.191 6.42387 1.10376 0
M  V30 2760 N 261.624 0.925811 1.2754 0
M  V30 2761 C 262.572 0.413897 2.28888 0
M  V30 2762 C 263.566 -0.500779 1.61829 0
M  V30 2763 O 264.772 -0.38069 1.75928 0
M  V30 2764 H 261.147 0.115274 0.743112 0
M  V30 2765 H 263.118 1.28151 2.69481 0
M  V30 2766 C 261.867 -0.319792 3.46226 0
M  V30 2767 H 261.19 0.374846 3.98039 0
M  V30 2768 H 262.63 -0.642435 4.19105 0
M  V30 2769 C 261.089 -1.53209 3.00048 0
M  V30 2770 O 261.619 -2.6309 3.03557 0
M  V30 2771 N 259.825 -1.38326 2.55566 0
M  V30 2772 H 259.372 -0.489292 2.5291 0
M  V30 2773 H 259.33 -2.19564 2.25031 0
M  V30 2774 N 263.102 -1.41638 0.69111 0
M  V30 2775 C 264.034 -2.29194 -0.0161523 0
M  V30 2776 C 265.047 -1.44549 -0.748955 0
M  V30 2777 O 266.236 -1.681 -0.6004 0
M  V30 2778 C 263.336 -3.22325 -1.0469 0
M  V30 2779 C 262.509 -4.35706 -0.384621 0
M  V30 2780 C 261.568 -5.09443 -1.31737 0
M  V30 2781 O 260.594 -5.63386 -0.811451 0
M  V30 2782 N 261.796 -5.16487 -2.64993 0
M  V30 2783 H 264.561 -2.90534 0.735523 0
M  V30 2784 H 262.122 -1.52742 0.53679 0
M  V30 2785 H 264.114 -3.68522 -1.67252 0
M  V30 2786 H 262.684 -2.62323 -1.70015 0
M  V30 2787 H 261.904 -3.91948 0.420804 0
M  V30 2788 H 263.192 -5.08743 0.0760765 0
M  V30 2789 H 262.59 -4.741 -3.08619 0
M  V30 2790 H 261.147 -5.66276 -3.22761 0
M  V30 2791 N 264.58 -0.43555 -1.51462 0
M  V30 2792 C 265.51 0.367376 -2.30592 0
M  V30 2793 C 266.491 1.02263 -1.35928 0
M  V30 2794 O 267.676 1.02661 -1.64847 0
M  V30 2795 C 264.806 1.46983 -3.14664 0
M  V30 2796 C 263.76 0.938161 -4.17591 0
M  V30 2797 C 263.086 2.13622 -4.90173 0
M  V30 2798 C 264.386 -0.0261621 -5.22293 0
M  V30 2799 H 266.08 -0.292969 -2.97963 0
M  V30 2800 H 263.626 -0.14234 -1.43295 0
M  V30 2801 H 265.579 2.03873 -3.688 0
M  V30 2802 H 264.303 2.15843 -2.4511 0
M  V30 2803 H 262.962 0.391481 -3.64504 0
M  V30 2804 H 262.61 2.81098 -4.17124 0
M  V30 2805 H 262.31 1.78688 -5.59772 0
M  V30 2806 H 263.834 2.7107 -5.47132 0
M  V30 2807 H 265.248 0.452384 -5.71512 0
M  V30 2808 H 263.645 -0.287992 -5.99409 0
M  V30 2809 H 264.715 -0.963391 -4.75233 0
M  V30 2810 N 266.058 1.56714 -0.166846 0
M  V30 2811 C 267.305 1.96747 0.479252 0
M  V30 2812 C 267.633 1.05263 1.63554 0
M  V30 2813 O 266.888 0.0858098 1.95512 0
M  V30 2814 C 267.187 3.42889 1.00806 0
M  V30 2815 C 266.853 4.50889 -0.0318574 0
M  V30 2816 C 265.515 4.8015 -0.317675 0
M  V30 2817 C 267.867 5.15949 -0.737956 0
M  V30 2818 C 265.195 5.71772 -1.31506 0
M  V30 2819 C 267.547 6.08647 -1.72429 0
M  V30 2820 C 266.211 6.36277 -2.0176 0
M  V30 2821 H 265.481 0.719949 0.175371 0
M  V30 2822 H 268.128 1.89756 -0.257864 0
M  V30 2823 H 266.433 3.4681 1.82291 0
M  V30 2824 H 268.13 3.71203 1.51689 0
M  V30 2825 H 264.72 4.28128 0.201088 0
M  V30 2826 H 268.904 4.93458 -0.530351 0
M  V30 2827 H 264.16 5.91465 -1.54853 0
M  V30 2828 H 268.334 6.58129 -2.27682 0
M  V30 2829 H 265.961 7.07075 -2.79194 0
M  V30 2830 N 267.536 -0.106894 1.57237 0
M  V30 2831 C 268.952 -0.46078 1.52804 0
M  V30 2832 C 269.152 -1.81184 0.881746 0
M  V30 2833 O 268.208 -2.48102 0.469224 0
M  V30 2834 C 269.521 -0.434127 2.9755 0
M  V30 2835 C 271.069 -0.516821 3.08704 0
M  V30 2836 C 271.544 -0.520436 4.55033 0
M  V30 2837 N 273.035 -0.58153 4.59535 0
M  V30 2838 C 273.77 -0.605973 5.70189 0
M  V30 2839 N 273.266 -0.587331 6.90306 0
M  V30 2840 N 275.059 -0.649895 5.5833 0
M  V30 2841 H 267.21 0.778203 1.9763 0
M  V30 2842 H 269.473 0.288403 0.903066 0
M  V30 2843 H 269.179 0.491197 3.48253 0
M  V30 2844 H 269.053 -1.25748 3.55622 0
M  V30 2845 H 271.44 -1.43256 2.57995 0
M  V30 2846 H 271.521 0.334449 2.53604 0
M  V30 2847 H 271.165 0.391313 5.0639 0
M  V30 2848 H 271.095 -1.38876 5.07958 0
M  V30 2849 H 273.586 -0.60161 3.73081 0
M  V30 2850 H 273.899 -0.60894 7.70397 0
M  V30 2851 H 272.244 -0.554564 6.92784 0
M  V30 2852 H 275.435 -0.661907 4.63397 0
M  V30 2853 H 275.608 -0.665476 6.44574 0
M  V30 2854 N 269.014 -1.53014 -0.377408 0
M  V30 2855 C 270.262 -1.6829 -1.11906 0
M  V30 2856 C 270.583 -0.431206 -1.90173 0
M  V30 2857 O 269.853 0.554595 -1.87886 0
M  V30 2858 H 268.433 -0.620371 -0.416112 0
M  V30 2859 H 271.095 -1.90167 -0.426893 0
M  V30 2860 H 270.191 -2.53862 -1.8155 0
M  V30 2861 N 270.492 0.636531 -1.44174 0
M  V30 2862 C 271.44 1.76995 -1.50915 0
M  V30 2863 C 272.434 1.65053 -0.381295 0
M  V30 2864 O 273.64 1.71197 -0.55601 0
M  V30 2865 H 270.015 0.584247 -0.473455 0
M  V30 2866 H 271.986 1.68432 -2.4632 0
M  V30 2867 C 270.735 3.15314 -1.46534 0
M  V30 2868 H 270.058 3.25149 -2.32633 0
M  V30 2869 H 271.498 3.9453 -1.55312 0
M  V30 2870 C 269.957 3.3639 -0.185305 0
M  V30 2871 O 270.487 3.94699 0.746688 0
M  V30 2872 N 268.693 2.9046 -0.0901606 0
M  V30 2873 H 268.24 2.43193 -0.849416 0
M  V30 2874 H 268.198 3.04937 0.765553 0
M  V30 2875 N 271.97 1.30982 0.876444 0
M  V30 2876 C 273.386 1.09498 1.16113 0
M  V30 2877 C 273.586 -0.13875 2.01022 0
M  V30 2878 O 272.642 -0.829935 2.38471 0
M  V30 2879 C 273.955 2.36308 1.85954 0
M  V30 2880 C 275.503 2.41856 1.98683 0
M  V30 2881 C 275.978 3.6853 2.71937 0
M  V30 2882 N 277.469 3.69387 2.79477 0
M  V30 2883 C 278.204 4.64096 3.36753 0
M  V30 2884 N 277.7 5.69155 3.95012 0
M  V30 2885 N 279.493 4.51626 3.3465 0
M  V30 2886 H 271.644 2.10118 0.310494 0
M  V30 2887 H 273.907 0.926634 0.200131 0
M  V30 2888 H 273.613 3.26388 1.31011 0
M  V30 2889 H 273.487 2.4561 2.86278 0
M  V30 2890 H 275.874 1.52249 2.52793 0
M  V30 2891 H 275.955 2.36523 0.9742 0
M  V30 2892 H 275.599 4.58499 2.18496 0
M  V30 2893 H 275.529 3.71127 3.73593 0
M  V30 2894 H 278.02 2.93438 2.38123 0
M  V30 2895 H 278.333 6.3751 4.36808 0
M  V30 2896 H 276.678 5.72937 3.93406 0
M  V30 2897 H 279.869 3.68728 2.8837 0
M  V30 2898 H 280.042 5.25614 3.7899 0
M  V30 2899 N 273.449 -1.08991 1.13837 0
M  V30 2900 C 274.412 -2.13925 0.822715 0
M  V30 2901 C 275.412 -1.599 -0.1699 0
M  V30 2902 O 276.602 -1.74104 0.0577251 0
M  V30 2903 C 273.734 -3.40155 0.225318 0
M  V30 2904 H 274.927 -2.43358 1.75262 0
M  V30 2905 H 272.48 -1.24603 0.943594 0
M  V30 2906 H 273.215 -3.16352 -0.713594 0
M  V30 2907 H 273 -3.80661 0.940193 0
M  V30 2908 H 274.49 -4.17594 0.0214784 0
M  V30 2909 N 274.927 -0.932562 -1.27047 0
M  V30 2910 C 276.155 -0.592031 -1.98249 0
M  V30 2911 C 276.57 0.831062 -1.69525 0
M  V30 2912 O 275.927 1.55299 -0.958561 0
M  V30 2913 C 275.978 -0.814279 -3.5221 0
M  V30 2914 O 275.699 -2.18139 -3.7993 0
M  V30 2915 C 277.2 -0.483121 -4.4066 0
M  V30 2916 H 274.42 -0.223896 -0.632544 0
M  V30 2917 H 276.964 -1.25091 -1.61779 0
M  V30 2918 H 275.119 -0.20213 -3.86872 0
M  V30 2919 H 275.533 -2.235 -4.74498 0
M  V30 2920 H 277.007 -0.689298 -5.47679 0
M  V30 2921 H 277.484 0.581546 -4.35333 0
M  V30 2922 H 278.09 -1.07362 -4.11526 0
M  V30 2923 N 276.405 1.4127 -0.698611 0
M  V30 2924 C 277.352 2.30773 -0.0352094 0
M  V30 2925 C 278.322 1.47273 0.768111 0
M  V30 2926 O 279.507 1.76053 0.735524 0
M  V30 2927 C 276.647 3.33346 0.893 0
M  V30 2928 C 275.76 4.31924 0.0809695 0
M  V30 2929 C 274.895 5.21566 1.0071 0
M  V30 2930 C 273.934 6.11811 0.188155 0
M  V30 2931 N 273.071 6.93926 1.06825 0
M  V30 2932 H 277.911 2.86943 -0.804207 0
M  V30 2933 H 275.448 1.4132 -0.408294 0
M  V30 2934 H 277.406 3.91368 1.44523 0
M  V30 2935 H 276.036 2.78719 1.62836 0
M  V30 2936 H 275.088 3.75825 -0.588224 0
M  V30 2937 H 276.4 4.95716 -0.553801 0
M  V30 2938 H 275.554 5.84437 1.62845 0
M  V30 2939 H 274.293 4.58008 1.67572 0
M  V30 2940 H 273.298 5.47986 -0.446254 0
M  V30 2941 H 274.523 6.77425 -0.476716 0
M  V30 2942 H 272.469 6.32973 1.72283 0
M  V30 2943 H 272.386 7.54416 0.489123 0
M  V30 2944 H 273.654 7.61262 1.67632 0
M  V30 2945 N 277.883 0.443576 1.51229 0
M  V30 2946 C 279.129 -0.120975 2.02439 0
M  V30 2947 C 279.462 -1.41815 1.32674 0
M  V30 2948 O 278.737 -1.89373 0.443622 0
M  V30 2949 C 279.02 -0.333291 3.58554 0
M  V30 2950 C 278.873 0.982968 4.38928 0
M  V30 2951 C 280.192 -1.10028 4.26124 0
M  V30 2952 H 277.311 -0.0424923 0.735774 0
M  V30 2953 H 279.953 0.583794 1.80809 0
M  V30 2954 H 278.103 -0.933614 3.77115 0
M  V30 2955 H 279.775 1.61775 4.32003 0
M  V30 2956 H 278.018 1.58611 4.03763 0
M  V30 2957 H 278.689 0.788379 5.46341 0
M  V30 2958 H 281.165 -0.591711 4.11871 0
M  V30 2959 H 280.041 -1.21761 5.35225 0
M  V30 2960 H 280.302 -2.12996 3.87408 0
M  V30 2961 N 279.361 -1.56624 0.175154 0
M  V30 2962 C 280.638 -1.88688 -0.515373 0
M  V30 2963 C 281.018 -1.08564 -1.81044 0
M  V30 2964 O 280.366 -0.180703 -2.27784 0
M  V30 2965 C 280.576 -3.40768 -0.753552 0
M  V30 2966 C 281.924 -4.10587 -1.08184 0
M  V30 2967 O 282.948 -3.46106 -0.841961 0
M  V30 2968 O 281.807 -5.24512 -1.53459 0
M  V30 2969 H 278.901 -0.78301 -0.26613 0
M  V30 2970 H 281.447 -1.68347 0.213877 0
M  V30 2971 H 280.219 -3.90965 0.161829 0
M  V30 2972 H 279.842 -3.66733 -1.53598 0
M  V30 2973 N 280.839 0.0985539 -1.57292 0
M  V30 2974 C 281.802 1.10402 -2.00858 0
M  V30 2975 C 282.802 1.33146 -0.901593 0
M  V30 2976 O 283.992 1.29318 -1.16716 0
M  V30 2977 C 281.124 2.45394 -2.36632 0
M  V30 2978 H 282.317 0.729099 -2.90902 0
M  V30 2979 H 279.87 0.343495 -1.52479 0
M  V30 2980 H 280.605 2.87769 -1.49531 0
M  V30 2981 H 280.39 2.30235 -3.17387 0
M  V30 2982 H 281.88 3.17718 -2.71007 0
M  V30 2983 N 282.317 1.53212 0.369288 0
M  V30 2984 C 283.733 1.42902 0.710712 0
M  V30 2985 C 283.933 0.565135 1.93413 0
M  V30 2986 O 282.989 0.0461484 2.52458 0
M  V30 2987 C 284.302 2.86042 0.927382 0
M  V30 2988 C 285.85 2.9565 1.02762 0
M  V30 2989 C 286.325 4.39843 1.27679 0
M  V30 2990 N 287.816 4.43256 1.34457 0
M  V30 2991 C 288.551 5.51929 1.55439 0
M  V30 2992 N 288.047 6.70655 1.73762 0
M  V30 2993 N 289.84 5.39502 1.57779 0
M  V30 2994 H 281.991 2.07888 -0.435457 0
M  V30 2995 H 284.254 0.938661 -0.132739 0
M  V30 2996 H 283.96 3.51557 0.100287 0
M  V30 2997 H 283.834 3.29472 1.83653 0
M  V30 2998 H 286.221 2.30291 1.84527 0
M  V30 2999 H 286.302 2.5562 0.0959504 0
M  V30 3000 H 285.946 5.05774 0.464175 0
M  V30 3001 H 285.876 4.77443 2.22162 0
M  V30 3002 H 288.367 3.5769 1.21926 0
M  V30 3003 H 288.68 7.49248 1.89335 0
M  V30 3004 H 287.025 6.73648 1.70948 0
M  V30 3005 H 290.216 4.45713 1.43029 0
M  V30 3006 H 290.389 6.2426 1.7379 0
M  V30 3007 N 283.795 -0.628877 1.44509 0
M  V30 3008 C 285.211 -0.947305 1.28446 0
M  V30 3009 C 285.411 -2.00275 0.221872 0
M  V30 3010 O 284.467 -2.49447 -0.391471 0
M  V30 3011 C 285.78 -1.40843 2.65676 0
M  V30 3012 C 287.328 -1.52379 2.73404 0
M  V30 3013 C 287.803 -2.01875 4.11109 0
M  V30 3014 N 289.294 -2.09142 4.13296 0
M  V30 3015 C 290.029 -2.48615 5.16699 0
M  V30 3016 N 289.525 -2.87209 6.30462 0
M  V30 3017 N 291.318 -2.48768 5.04054 0
M  V30 3018 H 283.469 0.0690977 2.12288 0
M  V30 3019 H 285.732 -0.0317164 0.947469 0
M  V30 3020 H 285.438 -0.707206 3.44516 0
M  V30 3021 H 285.312 -2.37902 2.92716 0
M  V30 3022 H 287.699 -2.21598 1.9488 0
M  V30 3023 H 287.78 -0.536898 2.50102 0
M  V30 3024 H 287.424 -1.3325 4.90109 0
M  V30 3025 H 287.354 -3.0144 4.31789 0
M  V30 3026 H 289.845 -1.81991 3.31191 0
M  V30 3027 H 290.158 -3.16149 7.05174 0
M  V30 3028 H 288.503 -2.84955 6.33897 0
M  V30 3029 H 291.694 -2.18009 4.14234 0
M  V30 3030 H 291.867 -2.79207 5.84763 0
M  V30 3031 N 285.273 -1.31445 -0.869486 0
M  V30 3032 C 286.52 -1.21158 -1.62256 0
M  V30 3033 C 286.848 0.230155 -1.93133 0
M  V30 3034 O 286.103 1.17906 -1.56194 0
M  V30 3035 C 286.402 -2.00145 -2.96102 0
M  V30 3036 C 286.068 -3.4964 -2.84715 0
M  V30 3037 C 284.73 -3.90403 -2.81317 0
M  V30 3038 C 287.082 -4.44769 -2.71716 0
M  V30 3039 C 284.41 -5.24561 -2.62778 0
M  V30 3040 C 286.762 -5.79054 -2.54714 0
M  V30 3041 C 285.426 -6.19037 -2.49699 0
M  V30 3042 H 284.696 -0.443348 -0.593737 0
M  V30 3043 H 287.343 -1.62715 -1.00976 0
M  V30 3044 H 285.648 -1.5127 -3.6142 0
M  V30 3045 H 287.345 -1.89566 -3.53363 0
M  V30 3046 H 283.935 -3.17256 -2.88178 0
M  V30 3047 H 288.119 -4.14208 -2.73397 0
M  V30 3048 H 283.375 -5.54613 -2.57321 0
M  V30 3049 H 287.549 -6.52393 -2.43632 0
M  V30 3050 H 285.176 -7.22935 -2.35093 0
M  V30 3051 N 286.751 1.08385 -1.14413 0
M  V30 3052 C 287.714 2.13486 -0.834048 0
M  V30 3053 C 288.714 1.59988 0.161418 0
M  V30 3054 O 289.904 1.74071 -0.0669575 0
M  V30 3055 C 287.036 3.4003 -0.243354 0
M  V30 3056 H 288.229 2.42425 -1.7655 0
M  V30 3057 H 285.782 1.24101 -0.950189 0
M  V30 3058 H 286.517 3.16726 0.696807 0
M  V30 3059 H 286.302 3.80157 -0.960367 0
M  V30 3060 H 287.792 4.17577 -0.0436242 0
M  V30 3061 N 288.23 0.939286 1.26551 0
M  V30 3062 C 289.193 0.451987 2.24699 0
M  V30 3063 C 290.193 -0.435869 1.5478 0
M  V30 3064 O 291.383 -0.235314 1.72603 0
M  V30 3065 C 288.515 -0.348801 3.39111 0
M  V30 3066 H 289.708 1.3193 2.69322 0
M  V30 3067 H 287.261 0.721072 1.38673 0
M  V30 3068 H 287.996 -1.23444 2.99887 0
M  V30 3069 H 287.781 0.287945 3.91041 0
M  V30 3070 H 289.271 -0.679726 4.12031 0
M  V30 3071 N 289.708 -1.40897 0.706093 0
M  V30 3072 C 290.955 -2.01054 0.241531 0
M  V30 3073 C 291.283 -1.55956 -1.16223 0
M  V30 3074 O 290.538 -0.766336 -1.80072 0
M  V30 3075 C 290.837 -3.5646 0.259099 0
M  V30 3076 C 290.503 -4.21106 1.61184 0
M  V30 3077 C 289.165 -4.38479 1.98216 0
M  V30 3078 C 291.517 -4.57256 2.50132 0
M  V30 3079 C 288.845 -4.89282 3.2376 0
M  V30 3080 C 291.197 -5.09454 3.7502 0
M  V30 3081 C 289.861 -5.25037 4.12181 0
M  V30 3082 H 289.131 -0.73571 0.0883825 0
M  V30 3083 H 291.778 -1.68645 0.907257 0
M  V30 3084 H 290.083 -3.88721 -0.490189 0
M  V30 3085 H 291.78 -4.00826 -0.11804 0
M  V30 3086 H 288.37 -4.07966 1.31384 0
M  V30 3087 H 292.554 -4.43479 2.228 0
M  V30 3088 H 287.81 -4.99531 3.52532 0
M  V30 3089 H 291.984 -5.36404 4.44121 0
M  V30 3090 H 289.611 -5.64164 5.09532 0
M  V30 3091 N 291.186 -0.45159 -1.50991 0
M  V30 3092 C 292.426 0.109066 -2.04109 0
M  V30 3093 C 292.79 1.38716 -1.32747 0
M  V30 3094 O 293.991 2.02896 -1.76314 0
M  V30 3095 C 292.262 0.308354 -3.56067 0
M  V30 3096 S 293.821 0.830369 -4.30872 0
M  V30 3097 H 290.639 0.0251531 -0.710555 0
M  V30 3098 H 293.241 -0.614264 -1.85599 0
M  V30 3099 H 291.945 -0.627962 -4.05567 0
M  V30 3100 H 291.476 1.05836 -3.78896 0
M  V30 3101 H 293.491 2.10626 -4.49279 0
M  V30 3102 N 292.664 1.56529 -0.183458 0
M  V30 3103 C 293.889 2.02064 0.467428 0
M  V30 3104 C 294.314 1.06282 1.55196 0
M  V30 3105 O 293.672 0.0443565 1.81246 0
M  V30 3106 C 293.72 3.46122 1.01153 0
M  V30 3107 O 292.824 3.53437 2.12499 0
M  V30 3108 H 292.165 0.654726 0.110588 0
M  V30 3109 H 294.695 2.02521 -0.290917 0
M  V30 3110 H 294.705 3.85676 1.33108 0
M  V30 3111 H 293.38 4.15331 0.217533 0
M  V30 3112 H 291.957 3.2575 1.81497 0
M  V30 3113 N 294.142 -0.090211 1.57342 0
M  V30 3114 C 295.553 -0.644173 1.75235 0
M  V30 3115 C 295.904 -1.78865 0.806335 0
M  V30 3116 O 295.029 -2.16395 -0.0140128 0
M  V30 3117 C 295.624 -1.17532 3.1776 0
M  V30 3118 C 294.183 -1.67531 3.37061 0
M  V30 3119 C 293.33 -0.58693 2.71017 0
M  V30 3120 H 296.281 0.135884 1.58117 0
M  V30 3121 H 296.302 -2.04455 3.20902 0
M  V30 3122 H 295.814 -0.342138 3.86589 0
M  V30 3123 H 293.915 -2.53234 2.73319 0
M  V30 3124 H 294.028 -1.76493 4.45406 0
M  V30 3125 H 292.392 -1.02756 2.33052 0
M  V30 3126 H 293.175 0.235758 3.4249 0
M  V30 3127 N 295.62 -1.53406 -0.361157 0
M  V30 3128 C 296.568 -1.80832 -1.46296 0
M  V30 3129 C 297.562 -0.677699 -1.55253 0
M  V30 3130 O 298.768 -0.860723 -1.58087 0
M  V30 3131 H 295.143 -0.572627 -0.487445 0
M  V30 3132 H 297.114 -2.73045 -1.20371 0
M  V30 3133 C 295.863 -2.01907 -2.8307 0
M  V30 3134 H 295.186 -2.88349 -2.76938 0
M  V30 3135 H 296.626 -2.25072 -3.59331 0
M  V30 3136 C 295.085 -0.799449 -3.27277 0
M  V30 3137 O 295.615 0.00971761 -4.01699 0
M  V30 3138 N 293.821 -0.621637 -2.83873 0
M  V30 3139 H 293.368 -1.28126 -2.23476 0
M  V30 3140 H 293.326 0.19298 -3.13807 0
M  V30 3141 N 297.098 0.621204 -1.44841 0
M  V30 3142 C 298.028 1.74366 -1.55303 0
M  V30 3143 C 299.009 1.65199 -0.405385 0
M  V30 3144 O 300.194 1.83807 -0.626787 0
M  V30 3145 C 297.324 3.12931 -1.50637 0
M  V30 3146 C 296.278 3.36896 -2.63979 0
M  V30 3147 C 295.604 4.75594 -2.44366 0
M  V30 3148 C 296.904 3.28483 -4.06074 0
M  V30 3149 H 298.598 1.65867 -2.49256 0
M  V30 3150 H 296.144 0.796558 -1.19962 0
M  V30 3151 H 298.097 3.9124 -1.56555 0
M  V30 3152 H 296.821 3.22237 -0.532057 0
M  V30 3153 H 295.48 2.60972 -2.57467 0
M  V30 3154 H 295.128 4.81616 -1.45105 0
M  V30 3155 H 294.828 4.92586 -3.20364 0
M  V30 3156 H 296.352 5.5612 -2.52117 0
M  V30 3157 H 297.766 3.96684 -4.13902 0
M  V30 3158 H 296.163 3.57008 -4.82354 0
M  V30 3159 H 297.233 2.26133 -4.28943 0
M  V30 3160 N 298.576 1.31904 0.862503 0
M  V30 3161 C 299.506 1.22782 1.98612 0
M  V30 3162 C 300.487 0.113362 1.69722 0
M  V30 3163 O 301.672 0.299218 1.91881 0
M  V30 3164 C 298.802 0.942058 3.34279 0
M  V30 3165 C 297.756 2.0169 3.77499 0
M  V30 3166 C 297.082 1.58369 5.10709 0
M  V30 3167 C 298.382 3.43096 3.93805 0
M  V30 3168 H 300.076 2.16788 2.06502 0
M  V30 3169 H 297.622 1.04366 0.992154 0
M  V30 3170 H 299.575 0.864818 4.1243 0
M  V30 3171 H 298.299 -0.0336603 3.26583 0
M  V30 3172 H 296.958 2.08416 3.01593 0
M  V30 3173 H 296.606 0.595628 4.99461 0
M  V30 3174 H 296.306 2.30279 5.40597 0
M  V30 3175 H 297.83 1.52067 5.91361 0
M  V30 3176 H 299.244 3.39003 4.62331 0
M  V30 3177 H 297.641 4.13288 4.35101 0
M  V30 3178 H 298.711 3.83334 2.96957 0
M  V30 3179 N 300.054 -1.07777 1.14986 0
M  V30 3180 C 301.465 -1.61766 0.932127 0
M  V30 3181 C 301.816 -1.88974 -0.527581 0
M  V30 3182 O 300.941 -1.65198 -1.39781 0
M  V30 3183 C 301.536 -2.93891 1.68563 0
M  V30 3184 C 300.095 -3.44639 1.5133 0
M  V30 3185 C 299.242 -2.18767 1.704 0
M  V30 3186 H 302.193 -0.909201 1.30074 0
M  V30 3187 H 302.214 -3.62623 1.15259 0
M  V30 3188 H 301.726 -2.74057 2.74799 0
M  V30 3189 H 299.827 -3.69564 0.474702 0
M  V30 3190 H 299.94 -4.20966 2.28746 0
M  V30 3191 H 298.304 -2.28253 1.13016 0
M  V30 3192 H 299.087 -2.01433 2.77992 0
M  V30 3193 N 301.532 -0.945985 -1.26051 0
M  V30 3194 C 302.462 -0.477172 -2.28572 0
M  V30 3195 C 303.443 0.472032 -1.63419 0
M  V30 3196 O 304.628 0.372853 -1.90587 0
M  V30 3197 C 301.758 0.253975 -3.4637 0
M  V30 3198 C 300.712 -0.609135 -4.23643 0
M  V30 3199 C 300.038 0.252252 -5.34105 0
M  V30 3200 C 301.338 -1.8829 -4.8718 0
M  V30 3201 H 303.032 -1.33402 -2.68038 0
M  V30 3202 H 300.578 -0.642904 -1.28852 0
M  V30 3203 H 302.531 0.593016 -4.17207 0
M  V30 3204 H 301.255 1.145 -3.05871 0
M  V30 3205 H 299.914 -0.931138 -3.54578 0
M  V30 3206 H 299.562 1.14278 -4.89846 0
M  V30 3207 H 299.262 -0.32188 -5.86718 0
M  V30 3208 H 300.786 0.586454 -6.07777 0
M  V30 3209 H 302.2 -1.61081 -5.50205 0
M  V30 3210 H 300.597 -2.40199 -5.49931 0
M  V30 3211 H 301.667 -2.59134 -4.09851 0
M  V30 3212 N 303.011 1.40521 -0.713556 0
M  V30 3213 C 303.974 2.29098 -0.0684347 0
M  V30 3214 C 304.974 1.45268 0.689472 0
M  V30 3215 O 306.164 1.66205 0.521677 0
M  V30 3216 C 303.296 3.28446 0.913024 0
M  V30 3217 H 304.489 2.87645 -0.84855 0
M  V30 3218 H 302.042 1.48809 -0.47809 0
M  V30 3219 H 302.777 2.74913 1.72027 0
M  V30 3220 H 302.562 3.90327 0.372472 0
M  V30 3221 H 304.052 3.94777 1.36165 0
M  V30 3222 N 304.489 0.459591 1.5075 0
M  V30 3223 C 305.717 -0.0973749 2.06671 0
M  V30 3224 C 306.132 -1.34524 1.32472 0
M  V30 3225 O 305.489 -1.7827 0.390634 0
M  V30 3226 C 305.54 -0.39714 3.59312 0
M  V30 3227 O 305.261 0.801214 4.30711 0
M  V30 3228 C 306.762 -1.00234 4.31819 0
M  V30 3229 H 303.982 0.00195854 0.670997 0
M  V30 3230 H 306.526 0.645072 1.94059 0
M  V30 3231 H 304.681 -1.08951 3.71764 0
M  V30 3232 H 305.095 0.538857 5.21725 0
M  V30 3233 H 306.569 -1.16193 5.39632 0
M  V30 3234 H 307.046 -1.98939 3.91561 0
M  V30 3235 H 307.652 -0.348699 4.23868 0
M  V30 3236 N 305.967 -1.56429 0.191757 0
M  V30 3237 C 307.213 -1.97777 -0.448554 0
M  V30 3238 C 307.546 -1.07847 -1.61501 0
M  V30 3239 O 306.821 -0.129774 -1.94067 0
M  V30 3240 C 307.104 -3.48362 -0.911906 0
M  V30 3241 C 306.957 -4.4907 0.256136 0
M  V30 3242 C 308.276 -4.02561 -1.77857 0
M  V30 3243 H 305.395 -0.719071 -0.161572 0
M  V30 3244 H 308.037 -1.87896 0.282007 0
M  V30 3245 H 306.187 -3.56914 -1.53442 0
M  V30 3246 H 307.859 -4.5256 0.893733 0
M  V30 3247 H 306.102 -4.24181 0.908436 0
M  V30 3248 H 306.773 -5.51889 -0.11053 0
M  V30 3249 H 309.249 -3.96767 -1.25359 0
M  V30 3250 H 308.125 -5.08301 -2.07174 0
M  V30 3251 H 308.386 -3.47616 -2.73158 0
M  V30 3252 N 307.445 0.0818655 -1.57387 0
M  V30 3253 C 308.693 0.781368 -1.86384 0
M  V30 3254 C 309.014 1.78618 -0.782342 0
M  V30 3255 O 308.284 1.94976 0.190061 0
M  V30 3256 H 306.864 0.291562 -0.687751 0
M  V30 3257 H 309.526 0.060348 -1.94807 0
M  V30 3258 H 308.622 1.3038 -2.83562 0
M  V30 3259 N 308.923 1.53595 0.353017 0
M  V30 3260 C 309.886 1.80232 1.41594 0
M  V30 3261 C 310.886 0.673081 1.46035 0
M  V30 3262 O 312.076 0.941335 1.46576 0
M  V30 3263 C 309.208 1.93578 2.80607 0
M  V30 3264 H 310.401 2.75174 1.19244 0
M  V30 3265 H 307.954 1.44864 0.586872 0
M  V30 3266 H 308.689 1.00746 3.08254 0
M  V30 3267 H 308.474 2.75724 2.78781 0
M  V30 3268 H 309.964 2.15735 3.57558 0
M  V30 3269 N 310.401 -0.613514 1.45168 0
M  V30 3270 C 311.678 -1.37263 1.39349 0
M  V30 3271 C 312.058 -2.11012 0.0610848 0
M  V30 3272 O 311.406 -2.07502 -0.956825 0
M  V30 3273 C 311.616 -2.3244 2.60332 0
M  V30 3274 C 312.964 -2.9523 3.05163 0
M  V30 3275 O 313.988 -2.42762 2.60663 0
M  V30 3276 O 312.847 -3.90454 3.82372 0
M  V30 3277 H 309.941 -0.615188 0.552696 0
M  V30 3278 H 312.487 -0.637097 1.57287 0
M  V30 3279 H 311.259 -1.77164 3.48896 0
M  V30 3280 H 310.882 -3.13383 2.44698 0
M  V30 3281 N 311.879 -1.3236 -0.855495 0
M  V30 3282 C 313.128 -1.22226 -1.60448 0
M  V30 3283 C 313.441 0.214733 -1.94418 0
M  V30 3284 O 314.647 0.437917 -2.67945 0
M  V30 3285 C 313.103 -2.14063 -2.89318 0
M  V30 3286 C 312.711 -3.62839 -2.62777 0
M  V30 3287 C 314.455 -2.12764 -3.67331 0
M  V30 3288 C 312.362 -4.4664 -3.87643 0
M  V30 3289 H 311.292 -0.453904 -0.602069 0
M  V30 3290 H 313.943 -1.57314 -0.944698 0
M  V30 3291 H 312.325 -1.71889 -3.5675 0
M  V30 3292 H 313.499 -4.1335 -2.03662 0
M  V30 3293 H 311.814 -3.66261 -1.98096 0
M  V30 3294 H 314.411 -2.72611 -4.59987 0
M  V30 3295 H 314.754 -1.11841 -4.00995 0
M  V30 3296 H 315.287 -2.53214 -3.06802 0
M  V30 3297 H 312.026 -5.48373 -3.5912 0
M  V30 3298 H 311.546 -4.0088 -4.46156 0
M  V30 3299 H 313.225 -4.59597 -4.55389 0
M  V30 3300 N 313.357 1.07166 -1.15556 0
M  V30 3301 C 314.585 1.83514 -0.955519 0
M  V30 3302 C 315 1.82163 0.49621 0
M  V30 3303 O 314.357 1.23441 1.34419 0
M  V30 3304 C 314.408 3.30515 -1.46432 0
M  V30 3305 O 314.129 3.31937 -2.85918 0
M  V30 3306 C 315.63 4.23625 -1.30603 0
M  V30 3307 H 312.85 0.578926 -0.339244 0
M  V30 3308 H 315.394 1.35265 -1.53374 0
M  V30 3309 H 313.549 3.76106 -0.928584 0
M  V30 3310 H 313.963 4.23794 -3.09029 0
M  V30 3311 H 315.437 5.24831 -1.71047 0
M  V30 3312 H 315.914 4.38485 -0.250441 0
M  V30 3313 H 316.52 3.83871 -1.83094 0
M  V30 3314 N 314.835 0.952656 1.25548 0
M  V30 3315 C 316.084 0.602053 1.92505 0
M  V30 3316 C 316.397 -0.864663 1.75451 0
M  V30 3317 O 317.603 -1.32514 2.36965 0
M  V30 3318 C 316.059 1.02607 3.44963 0
M  V30 3319 C 315.667 2.51519 3.70732 0
M  V30 3320 C 317.411 0.747905 4.1786 0
M  V30 3321 C 315.318 2.87732 5.16686 0
M  V30 3322 H 314.248 0.22146 0.720744 0
M  V30 3323 H 316.899 1.15684 1.42441 0
M  V30 3324 H 315.281 0.399712 3.93978 0
M  V30 3325 H 316.455 3.19157 3.32378 0
M  V30 3326 H 314.77 2.76786 3.11092 0
M  V30 3327 H 317.367 0.994647 5.25367 0
M  V30 3328 H 317.71 -0.315629 4.15102 0
M  V30 3329 H 318.243 1.33452 3.74747 0
M  V30 3330 H 314.982 3.93095 5.24554 0
M  V30 3331 H 314.502 2.24765 5.56094 0
M  V30 3332 H 316.181 2.76817 5.84792 0
M  V30 3333 N 316.313 -1.40141 0.720998 0
M  V30 3334 C 317.261 -2.3252 0.0608547 0
M  V30 3335 C 318.255 -1.52326 -0.741152 0
M  V30 3336 O 319.461 -1.68089 -0.643911 0
M  V30 3337 H 315.836 -0.751999 0.000876664 0
M  V30 3338 H 317.807 -2.8584 0.856614 0
M  V30 3339 C 316.556 -3.37331 -0.842809 0
M  V30 3340 H 315.879 -3.99108 -0.235084 0
M  V30 3341 H 317.319 -4.04452 -1.27257 0
M  V30 3342 C 315.778 -2.73246 -1.97074 0
M  V30 3343 O 316.308 -2.59998 -3.06209 0
M  V30 3344 N 314.514 -2.31547 -1.75597 0
M  V30 3345 H 314.061 -2.42522 -0.868368 0
M  V30 3346 H 314.019 -1.89007 -2.51244 0
M  V30 3347 N 317.792 -0.46758 -1.50504 0
M  V30 3348 C 319.208 -0.121533 -1.59137 0
M  V30 3349 C 319.408 1.3717 -1.47603 0
M  V30 3350 O 318.464 2.14464 -1.33272 0
M  V30 3351 C 319.777 -0.6686 -2.93173 0
M  V30 3352 C 321.325 -0.631716 -3.06559 0
M  V30 3353 C 321.8 -1.15627 -4.43164 0
M  V30 3354 N 323.291 -1.11553 -4.49567 0
M  V30 3355 C 324.026 -1.49195 -5.5365 0
M  V30 3356 N 323.522 -1.94269 -6.65005 0
M  V30 3357 N 325.315 -1.4082 -5.44175 0
M  V30 3358 H 317.466 -1.4388 -1.56245 0
M  V30 3359 H 319.729 -0.594784 -0.738198 0
M  V30 3360 H 319.435 -1.71453 -3.07078 0
M  V30 3361 H 319.309 -0.11021 -3.77039 0
M  V30 3362 H 321.696 0.405297 -2.92304 0
M  V30 3363 H 321.777 -1.22687 -2.24458 0
M  V30 3364 H 321.421 -2.1919 -4.58168 0
M  V30 3365 H 321.351 -0.537365 -5.23851 0
M  V30 3366 H 323.842 -0.784895 -3.69659 0
M  V30 3367 H 324.155 -2.21148 -7.40482 0
M  V30 3368 H 322.5 -1.98219 -6.66134 0
M  V30 3369 H 325.691 -1.0545 -4.56068 0
M  V30 3370 H 325.864 -1.70481 -6.25172 0
M  V30 3371 N 319.27 1.56325 -0.20005 0
M  V30 3372 C 320.18 2.22931 0.730668 0
M  V30 3373 C 321.196 1.22997 1.23076 0
M  V30 3374 O 322.372 1.55748 1.27689 0
M  V30 3375 C 319.437 2.87948 1.93098 0
M  V30 3376 C 318.498 4.03166 1.47497 0
M  V30 3377 C 317.731 4.65073 2.61807 0
M  V30 3378 O 317.954 4.25913 3.79413 0
M  V30 3379 O 316.888 5.54452 2.34237 0
M  V30 3380 H 320.714 3.03084 0.193391 0
M  V30 3381 H 318.299 1.49371 0.0294621 0
M  V30 3382 H 320.181 3.29063 2.6324 0
M  V30 3383 H 318.856 2.10771 2.45677 0
M  V30 3384 H 317.763 3.66664 0.742201 0
M  V30 3385 H 319.096 4.82022 0.995796 0
M  V30 3386 N 320.748 -0.0735177 1.57428 0
M  V30 3387 C 321.678 -1.0879 2.06608 0
M  V30 3388 C 322.659 -1.40473 0.959237 0
M  V30 3389 O 323.844 -1.5013 1.23185 0
M  V30 3390 C 320.974 -2.40183 2.50857 0
M  V30 3391 C 319.928 -2.22858 3.65402 0
M  V30 3392 C 319.254 -3.59619 3.957 0
M  V30 3393 C 320.554 -1.65123 4.95511 0
M  V30 3394 H 322.248 -0.678673 2.91607 0
M  V30 3395 H 319.794 -0.325013 1.40284 0
M  V30 3396 H 321.747 -3.11437 2.83874 0
M  V30 3397 H 320.471 -2.83083 1.62885 0
M  V30 3398 H 319.13 -1.54045 3.32664 0
M  V30 3399 H 318.778 -4.00086 3.04861 0
M  V30 3400 H 318.478 -3.48866 4.72828 0
M  V30 3401 H 320.002 -4.32306 4.31212 0
M  V30 3402 H 321.416 -2.26241 5.26771 0
M  V30 3403 H 319.813 -1.65071 5.7695 0
M  V30 3404 H 320.883 -0.612559 4.81015 0
M  V30 3405 N 322.226 -1.5378 -0.344866 0
M  V30 3406 C 323.472 -1.71216 -1.08687 0
M  V30 3407 C 323.805 -0.473281 -1.88345 0
M  V30 3408 O 323.08 0.52968 -1.87149 0
M  V30 3409 C 323.363 -2.97486 -2.02914 0
M  V30 3410 C 323.216 -4.31579 -1.26727 0
M  V30 3411 C 324.535 -3.19422 -3.0275 0
M  V30 3412 H 321.654 -0.62301 -0.393735 0
M  V30 3413 H 324.296 -1.8645 -0.365563 0
M  V30 3414 H 322.446 -2.84629 -2.64421 0
M  V30 3415 H 324.118 -4.56284 -0.67845 0
M  V30 3416 H 322.361 -4.30049 -0.569273 0
M  V30 3417 H 323.032 -5.16106 -1.95803 0
M  V30 3418 H 325.508 -3.316 -2.51357 0
M  V30 3419 H 324.384 -4.09169 -3.65885 0
M  V30 3420 H 324.645 -2.35656 -3.74057 0
M  V30 3421 N 323.704 0.605807 -1.45491 0
M  V30 3422 C 325.12 0.926751 -1.29936 0
M  V30 3423 C 325.32 1.99896 -0.253706 0
M  V30 3424 O 324.376 2.50038 0.351737 0
M  V30 3425 C 325.689 1.36599 -2.67883 0
M  V30 3426 C 327.237 1.4801 -2.75793 0
M  V30 3427 C 327.712 1.95309 -4.14268 0
M  V30 3428 N 329.203 2.0254 -4.16571 0
M  V30 3429 C 329.938 2.40363 -5.20589 0
M  V30 3430 N 329.434 2.77143 -6.34952 0
M  V30 3431 N 331.227 2.40718 -5.07948 0
M  V30 3432 H 323.378 -0.102862 -2.12151 0
M  V30 3433 H 325.641 0.016639 -0.947854 0
M  V30 3434 H 325.347 0.652306 -3.45598 0
M  V30 3435 H 325.221 2.33215 -2.96463 0
M  V30 3436 H 327.608 2.1847 -1.98381 0
M  V30 3437 H 327.689 0.497041 -2.50925 0
M  V30 3438 H 327.333 1.25436 -4.92167 0
M  V30 3439 H 327.263 2.94532 -4.3653 0
M  V30 3440 H 329.754 1.76699 -3.34045 0
M  V30 3441 H 330.067 3.0489 -7.10114 0
M  V30 3442 H 328.412 2.74834 -6.3835 0
M  V30 3443 H 331.603 2.11392 -4.1765 0
M  V30 3444 H 331.776 2.69869 -5.89131 0
M  V30 3445 N 325.182 1.32811 0.848464 0
M  V30 3446 C 326.129 1.22265 1.95755 0
M  V30 3447 C 327.099 0.103413 1.65778 0
M  V30 3448 O 328.284 0.280033 1.88734 0
M  V30 3449 C 325.424 0.958014 3.31536 0
M  V30 3450 C 324.537 2.16262 3.73971 0
M  V30 3451 C 323.672 1.83295 4.98575 0
M  V30 3452 C 322.711 3.00041 5.33518 0
M  V30 3453 N 321.848 2.67125 6.49299 0
M  V30 3454 H 326.688 2.17128 2.04107 0
M  V30 3455 H 324.225 1.07982 0.998913 0
M  V30 3456 H 326.183 0.785052 4.09747 0
M  V30 3457 H 324.813 0.046159 3.22767 0
M  V30 3458 H 323.865 2.44565 2.91362 0
M  V30 3459 H 325.177 3.03572 3.95785 0
M  V30 3460 H 324.331 1.62586 5.84509 0
M  V30 3461 H 323.07 0.932078 4.7871 0
M  V30 3462 H 322.075 3.21374 4.46093 0
M  V30 3463 H 323.3 3.90869 5.55336 0
M  V30 3464 H 321.246 1.79586 6.3094 0
M  V30 3465 H 321.163 3.47965 6.71161 0
M  V30 3466 H 322.431 2.49861 7.3837 0
M  V30 3467 N 326.66 -1.06551 1.16123 0
M  V30 3468 C 327.906 -1.79567 0.94252 0
M  V30 3469 C 328.239 -1.86869 -0.528547 0
M  V30 3470 O 327.514 -1.35838 -1.39206 0
M  V30 3471 C 327.797 -3.24195 1.56747 0
M  V30 3472 C 327.65 -3.24989 3.10969 0
M  V30 3473 C 328.969 -4.21678 1.25998 0
M  V30 3474 H 326.088 -0.651883 0.343828 0
M  V30 3475 H 328.73 -1.2463 1.43413 0
M  V30 3476 H 326.88 -3.71107 1.14942 0
M  V30 3477 H 328.552 -2.86258 3.61737 0
M  V30 3478 H 326.795 -2.63716 3.44436 0
M  V30 3479 H 327.466 -4.27005 3.49815 0
M  V30 3480 H 329.942 -3.83196 1.62174 0
M  V30 3481 H 328.818 -5.21146 1.7233 0
M  V30 3482 H 329.079 -4.4174 0.178367 0
M  V30 3483 N 328.138 -0.959301 -1.25041 0
M  V30 3484 C 329.415 -0.533805 -1.88175 0
M  V30 3485 C 329.795 0.988994 -1.865 0
M  V30 3486 O 329.143 1.85677 -1.33177 0
M  V30 3487 C 329.353 -1.11575 -3.30684 0
M  V30 3488 C 330.701 -1.19548 -4.07423 0
M  V30 3489 O 331.725 -1.06765 -3.39823 0
M  V30 3490 O 330.584 -1.39656 -5.28354 0
M  V30 3491 H 327.678 -0.176772 -0.807887 0
M  V30 3492 H 330.224 -1.05303 -1.33076 0
M  V30 3493 H 328.996 -2.15884 -3.26358 0
M  V30 3494 H 328.619 -0.580059 -3.93346 0
M  V30 3495 N 329.616 1.39756 -0.72842 0
M  V30 3496 C 330.864 2.00248 -0.272946 0
M  V30 3497 C 331.185 1.58077 1.14178 0
M  V30 3498 O 330.455 0.826014 1.77634 0
M  V30 3499 H 329.035 0.740554 -0.0979247 0
M  V30 3500 H 331.697 1.70903 -0.936912 0
M  V30 3501 H 330.793 3.10495 -0.316142 0
M  V30 3502 N 331.094 0.475555 1.50254 0
M  V30 3503 C 332.041 -0.316293 2.28622 0
M  V30 3504 C 333.011 -0.983227 1.33873 0
M  V30 3505 O 334.196 -0.994805 1.62814 0
M  V30 3506 C 331.336 -1.38975 3.1588 0
M  V30 3507 C 330.449 -0.737146 4.25664 0
M  V30 3508 C 329.584 -1.78887 5.00173 0
M  V30 3509 C 328.623 -1.11676 6.01826 0
M  V30 3510 N 327.76 -2.11154 6.69596 0
M  V30 3511 H 332.6 0.358297 2.95838 0
M  V30 3512 H 330.137 0.188541 1.45887 0
M  V30 3513 H 332.095 -2.02383 3.64825 0
M  V30 3514 H 330.725 -2.03344 2.50701 0
M  V30 3515 H 329.777 0.0096065 3.80399 0
M  V30 3516 H 331.089 -0.206816 4.98371 0
M  V30 3517 H 330.243 -2.49865 5.52859 0
M  V30 3518 H 328.982 -2.35302 4.27182 0
M  V30 3519 H 327.987 -0.392633 5.48396 0
M  V30 3520 H 329.212 -0.55945 6.76792 0
M  V30 3521 H 327.158 -2.66577 5.99394 0
M  V30 3522 H 327.075 -1.63118 7.38193 0
M  V30 3523 H 328.343 -2.81497 7.26897 0
M  V30 3524 N 332.573 -1.56217 0.208337 0
M  V30 3525 C 333.536 -2.18455 -0.693557 0
M  V30 3526 C 334.536 -1.14268 -1.13135 0
M  V30 3527 O 335.726 -1.39577 -1.0423 0
M  V30 3528 C 332.858 -2.79727 -1.94848 0
M  V30 3529 H 334.051 -2.99519 -0.15114 0
M  V30 3530 H 331.604 -1.56245 -0.041287 0
M  V30 3531 H 332.339 -2.02497 -2.53309 0
M  V30 3532 H 332.124 -3.56009 -1.64316 0
M  V30 3533 H 333.614 -3.27475 -2.59133 0
M  V30 3534 N 334.051 0.0651679 -1.57465 0
M  V30 3535 C 335.299 0.761555 -1.87202 0
M  V30 3536 C 335.62 1.77778 -0.801243 0
M  V30 3537 O 334.89 1.95166 0.16937 0
M  V30 3538 H 333.47 0.284251 -0.690804 0
M  V30 3539 H 336.132 0.0396827 -1.9486 0
M  V30 3540 H 335.228 1.27365 -2.84929 0
M  V30 3541 N 335.529 1.53961 0.336706 0
M  V30 3542 C 336.459 1.85417 1.41925 0
M  V30 3543 C 337.44 0.709856 1.5458 0
M  V30 3544 O 338.625 0.962396 1.68676 0
M  V30 3545 C 335.755 2.06985 2.78881 0
M  V30 3546 C 334.709 3.22813 2.81026 0
M  V30 3547 C 334.035 3.29727 4.20932 0
M  V30 3548 C 335.335 4.60767 2.45949 0
M  V30 3549 H 337.029 2.76079 1.15848 0
M  V30 3550 H 334.575 1.32839 0.555859 0
M  V30 3551 H 336.528 2.27575 3.54665 0
M  V30 3552 H 335.252 1.13061 3.06406 0
M  V30 3553 H 333.911 3.0209 2.07695 0
M  V30 3554 H 333.559 2.33385 4.45579 0
M  V30 3555 H 333.259 4.07566 4.23277 0
M  V30 3556 H 334.783 3.52536 4.98549 0
M  V30 3557 H 336.197 4.81325 3.11446 0
M  V30 3558 H 334.594 5.4106 2.59566 0
M  V30 3559 H 335.664 4.6391 1.41122 0
M  V30 3560 N 337.007 -0.598083 1.45811 0
M  V30 3561 C 338.253 -1.35882 1.50545 0
M  V30 3562 C 338.586 -1.93616 0.150445 0
M  V30 3563 O 337.861 -1.75604 -0.83628 0
M  V30 3564 C 338.144 -2.49966 2.59208 0
M  V30 3565 C 337.997 -1.97367 4.04186 0
M  V30 3566 C 339.316 -3.52068 2.64076 0
M  V30 3567 H 336.435 -0.492717 0.548087 0
M  V30 3568 H 339.077 -0.673319 1.77669 0
M  V30 3569 H 337.227 -3.08443 2.3621 0
M  V30 3570 H 338.899 -1.43466 4.38423 0
M  V30 3571 H 337.142 -1.283 4.14393 0
M  V30 3572 H 337.813 -2.79649 4.75921 0
M  V30 3573 H 340.289 -3.03448 2.84708 0
M  V30 3574 H 339.165 -4.2937 3.41954 0
M  V30 3575 H 339.426 -4.08304 1.69531 0
M  V30 3576 N 338.485 -1.33259 -0.841409 0
M  V30 3577 C 339.731 -1.24757 -1.59886 0
M  V30 3578 C 340.064 0.186913 -1.93298 0
M  V30 3579 O 339.339 1.12757 -1.5848 0
M  V30 3580 C 339.622 -2.12036 -2.91055 0
M  V30 3581 C 339.475 -3.63929 -2.6434 0
M  V30 3582 C 340.794 -1.9916 -3.92458 0
M  V30 3583 H 337.913 -0.454542 -0.580138 0
M  V30 3584 H 340.555 -1.63335 -0.970647 0
M  V30 3585 H 338.705 -1.79265 -3.44669 0
M  V30 3586 H 340.377 -4.06978 -2.17178 0
M  V30 3587 H 338.62 -3.85935 -1.98082 0
M  V30 3588 H 339.291 -4.20341 -3.57796 0
M  V30 3589 H 341.767 -2.27895 -3.48143 0
M  V30 3590 H 340.643 -2.62484 -4.82072 0
M  V30 3591 H 340.904 -0.963082 -4.31482 0
M  V30 3592 N 339.963 1.05934 -1.16686 0
M  V30 3593 C 340.913 2.11764 -0.844978 0
M  V30 3594 C 341.897 1.59922 0.177178 0
M  V30 3595 O 343.089 1.76983 -0.0241768 0
M  V30 3596 C 340.218 3.41493 -0.351812 0
M  V30 3597 C 339.304 4.00152 -1.40496 0
M  V30 3598 N 339.695 4.32874 -2.61636 0
M  V30 3599 C 337.993 4.278 -1.26106 0
M  V30 3600 C 338.694 4.79552 -3.29249 0
M  V30 3601 N 337.67 4.79211 -2.56628 0
M  V30 3602 H 341.472 2.34916 -1.76612 0
M  V30 3603 H 338.986 1.23511 -1.05446 0
M  V30 3604 H 340.983 4.16773 -0.102796 0
M  V30 3605 H 339.643 3.19778 0.56322 0
M  V30 3606 H 340.654 4.23109 -2.98663 0
M  V30 3607 H 337.331 4.15511 -0.407081 0
M  V30 3608 H 338.721 5.14045 -4.32675 0
M  V30 3609 N 341.441 0.965919 1.2453 0
M  V30 3610 C 342.666 0.643971 1.97149 0
M  V30 3611 C 343.091 -0.779487 1.71189 0
M  V30 3612 O 342.449 -1.5288 0.974553 0
M  V30 3613 C 342.497 0.922557 3.48599 0
M  V30 3614 O 341.601 0.00707672 4.12399 0
M  V30 3615 H 340.942 0.243647 0.617683 0
M  V30 3616 H 343.472 1.29558 1.58353 0
M  V30 3617 H 343.482 0.853373 3.98976 0
M  V30 3618 H 342.157 1.95996 3.66822 0
M  V30 3619 H 340.734 0.12943 3.72675 0
M  V30 3620 N 342.919 -1.39368 0.735821 0
M  V30 3621 C 344.144 -2.05319 0.293052 0
M  V30 3622 C 344.569 -1.55115 -1.064 0
M  V30 3623 O 343.927 -0.695261 -1.67439 0
M  V30 3624 C 343.975 -3.59305 0.305323 0
M  V30 3625 O 343.079 -4.06299 -0.706761 0
M  V30 3626 H 342.42 -0.650529 0.13307 0
M  V30 3627 H 344.95 -1.78386 1.00197 0
M  V30 3628 H 344.96 -4.07724 0.149997 0
M  V30 3629 H 343.635 -3.95207 1.29553 0
M  V30 3630 H 342.212 -3.69292 -0.517504 0
M  V30 3631 N 344.397 -0.483516 -1.5 0
M  V30 3632 C 345.33 0.350427 -2.25493 0
M  V30 3633 C 346.308 0.985549 -1.29328 0
M  V30 3634 O 347.492 1.01906 -1.58579 0
M  V30 3635 C 344.619 1.49202 -3.04066 0
M  V30 3636 C 343.665 0.973036 -4.15252 0
M  V30 3637 S 344.498 -0.122237 -5.3536 0
M  V30 3638 C 345.654 1.02294 -6.17484 0
M  V30 3639 H 345.887 -0.290381 -2.95878 0
M  V30 3640 H 343.42 -0.268562 -1.52046 0
M  V30 3641 H 345.378 2.14623 -3.49925 0
M  V30 3642 H 344.039 2.10438 -2.33183 0
M  V30 3643 H 343.232 1.82804 -4.69679 0
M  V30 3644 H 342.834 0.396335 -3.71894 0
M  V30 3645 H 345.126 1.93195 -6.49371 0
M  V30 3646 H 346.069 0.517664 -7.06205 0
M  V30 3647 H 346.477 1.28238 -5.49741 0
M  V30 3648 N 345.875 1.56104 -0.216619 0
M  V30 3649 C 346.785 2.23694 0.706982 0
M  V30 3650 C 347.801 1.24295 1.21765 0
M  V30 3651 O 348.977 1.57094 1.2603 0
M  V30 3652 C 346.042 2.8998 1.90033 0
M  V30 3653 C 345.103 4.04708 1.43213 0
M  V30 3654 C 344.336 4.67824 2.56859 0
M  V30 3655 O 344.559 4.29913 3.74874 0
M  V30 3656 O 343.493 5.56905 2.28343 0
M  V30 3657 H 347.319 3.03272 0.161235 0
M  V30 3658 H 344.904 1.49394 0.0136177 0
M  V30 3659 H 346.786 3.31837 2.59735 0
M  V30 3660 H 345.461 2.13365 2.43428 0
M  V30 3661 H 344.368 3.6743 0.70327 0
M  V30 3662 H 345.701 4.83051 0.944615 0
M  V30 3663 N 347.353 -0.0568162 1.57498 0
M  V30 3664 C 348.285 -1.09292 2.01464 0
M  V30 3665 C 349.298 -1.34112 0.922913 0
M  V30 3666 O 350.487 -1.32089 1.20062 0
M  V30 3667 C 347.587 -2.44068 2.35125 0
M  V30 3668 C 346.76 -2.38995 3.66333 0
M  V30 3669 C 345.819 -3.55997 3.87495 0
M  V30 3670 O 344.845 -3.36746 4.58901 0
M  V30 3671 N 346.047 -4.76888 3.30996 0
M  V30 3672 H 348.812 -0.718386 2.90963 0
M  V30 3673 H 346.373 -0.245235 1.60032 0
M  V30 3674 H 348.365 -3.21011 2.46443 0
M  V30 3675 H 346.935 -2.73468 1.5144 0
M  V30 3676 H 346.155 -1.47336 3.65631 0
M  V30 3677 H 347.443 -2.3272 4.52458 0
M  V30 3678 H 346.841 -4.95431 2.73065 0
M  V30 3679 H 345.398 -5.51291 3.47738 0
M  V30 3680 N 348.832 -1.54138 -0.328536 0
M  V30 3681 C 350.109 -1.62749 -1.08499 0
M  V30 3682 C 350.489 -0.458198 -2.06067 0
M  V30 3683 O 349.837 0.548046 -2.2183 0
M  V30 3684 C 350.047 -2.99519 -1.79135 0
M  V30 3685 C 351.395 -3.55394 -2.32337 0
M  V30 3686 O 352.419 -3.01792 -1.89209 0
M  V30 3687 O 351.278 -4.49186 -3.11279 0
M  V30 3688 H 348.372 -0.65886 -0.499832 0
M  V30 3689 H 350.918 -1.66484 -0.328826 0
M  V30 3690 H 349.69 -3.76061 -1.08139 0
M  V30 3691 H 349.313 -2.99441 -2.61574 0
M  V30 3692 N 350.31 0.590341 -1.46126 0
M  V30 3693 C 351.556 1.35082 -1.51264 0
M  V30 3694 C 351.889 1.93534 -0.160711 0
M  V30 3695 O 351.164 1.76045 0.826956 0
M  V30 3696 C 351.447 2.48588 -2.6053 0
M  V30 3697 C 351.3 1.95221 -4.05227 0
M  V30 3698 C 352.619 3.50662 -2.6594 0
M  V30 3699 H 349.738 0.489803 -0.550692 0
M  V30 3700 H 352.38 0.663887 -1.78024 0
M  V30 3701 H 350.53 3.07186 -2.37843 0
M  V30 3702 H 352.202 1.41139 -4.39178 0
M  V30 3703 H 350.445 1.26101 -4.15068 0
M  V30 3704 H 351.116 2.77121 -4.77397 0
M  V30 3705 H 353.592 3.01934 -2.86313 0
M  V30 3706 H 352.468 4.27551 -3.44226 0
M  V30 3707 H 352.729 4.07399 -1.71694 0
M  V30 3708 N 351.788 1.33704 0.83433 0
M  V30 3709 C 353.036 1.25169 1.58673 0
M  V30 3710 C 353.357 -0.18127 1.94156 0
M  V30 3711 O 352.627 -1.11113 1.6134 0
M  V30 3712 H 351.207 0.4603 0.58833 0
M  V30 3713 H 353.869 1.67478 0.996847 0
M  V30 3714 H 352.965 1.84856 2.51465 0
M  V30 3715 N 353.266 -1.05314 1.17247 0
M  V30 3716 C 354.196 -2.1498 0.911362 0
M  V30 3717 C 355.177 -1.69471 -0.146169 0
M  V30 3718 O 356.362 -1.942 0.003812 0
M  V30 3719 C 353.492 -3.4472 0.422528 0
M  V30 3720 C 352.446 -4.03789 1.4191 0
M  V30 3721 C 351.772 -5.28858 0.788274 0
M  V30 3722 C 353.072 -4.41418 2.7919 0
M  V30 3723 H 354.766 -2.3708 1.82848 0
M  V30 3724 H 352.312 -1.13938 0.880569 0
M  V30 3725 H 354.265 -4.20787 0.227289 0
M  V30 3726 H 352.989 -3.22269 -0.530123 0
M  V30 3727 H 351.648 -3.2979 1.60106 0
M  V30 3728 H 351.296 -5.02709 -0.171173 0
M  V30 3729 H 350.996 -5.69338 1.45353 0
M  V30 3730 H 352.52 -6.07612 0.603282 0
M  V30 3731 H 353.934 -5.08524 2.64719 0
M  V30 3732 H 352.331 -4.92913 3.42282 0
M  V30 3733 H 353.401 -3.51819 3.33693 0
M  V30 3734 N 354.744 -0.972509 -1.24016 0
M  V30 3735 C 355.674 -0.525548 -2.27509 0
M  V30 3736 C 356.655 0.437262 -1.64384 0
M  V30 3737 O 357.84 0.332343 -1.91335 0
M  V30 3738 C 354.97 0.180448 -3.46831 0
M  V30 3739 C 353.924 -0.698859 -4.22256 0
M  V30 3740 C 353.25 0.138903 -5.3452 0
M  V30 3741 C 354.55 -1.98582 -4.83076 0
M  V30 3742 H 356.244 -1.39058 -2.65148 0
M  V30 3743 H 353.79 -0.67009 -1.27459 0
M  V30 3744 H 355.743 0.504387 -4.18371 0
M  V30 3745 H 354.467 1.07987 -3.08231 0
M  V30 3746 H 353.126 -1.00614 -3.52523 0
M  V30 3747 H 352.774 1.03862 -4.9216 0
M  V30 3748 H 352.474 -0.446259 -5.85903 0
M  V30 3749 H 353.998 0.457404 -6.08884 0
M  V30 3750 H 355.412 -1.72715 -5.46665 0
M  V30 3751 H 353.809 -2.5181 -5.44713 0
M  V30 3752 H 354.879 -2.67769 -4.04262 0
M  V30 3753 N 356.222 1.38976 -0.743202 0
M  V30 3754 C 357.638 1.53984 -0.419664 0
M  V30 3755 C 357.838 1.70837 1.0685 0
M  V30 3756 O 356.894 1.7135 1.8546 0
M  V30 3757 C 358.207 2.75287 -1.20985 0
M  V30 3758 C 359.755 2.89129 -1.19889 0
M  V30 3759 C 360.23 4.13381 -1.97181 0
M  V30 3760 N 361.721 4.20437 -1.94389 0
M  V30 3761 C 362.456 5.15547 -2.50996 0
M  V30 3762 N 361.952 6.16395 -3.16274 0
M  V30 3763 N 363.745 5.07822 -2.40984 0
M  V30 3764 H 355.896 1.26285 -1.7078 0
M  V30 3765 H 358.159 0.612689 -0.723406 0
M  V30 3766 H 357.865 2.69204 -2.26323 0
M  V30 3767 H 357.739 3.68184 -0.819759 0
M  V30 3768 H 360.126 2.947 -0.153606 0
M  V30 3769 H 360.207 1.97272 -1.62841 0
M  V30 3770 H 359.851 4.08572 -3.01714 0
M  V30 3771 H 359.781 5.04298 -1.51629 0
M  V30 3772 H 362.272 3.48205 -1.46839 0
M  V30 3773 H 362.585 6.85443 -3.56915 0
M  V30 3774 H 360.93 6.16758 -3.20367 0
M  V30 3775 H 364.121 4.27973 -1.89622 0
M  V30 3776 H 364.294 5.81767 -2.85397 0
M  V30 3777 N 357.7 0.491464 1.49741 0
M  V30 3778 C 358.63 -0.28154 2.31796 0
M  V30 3779 C 359.611 -0.971473 1.3963 0
M  V30 3780 O 360.796 -0.964719 1.68543 0
M  V30 3781 C 357.926 -1.35203 3.19902 0
M  V30 3782 C 356.88 -0.782529 4.20786 0
M  V30 3783 C 356.206 -1.95283 4.97764 0
M  V30 3784 C 357.506 0.21999 5.21837 0
M  V30 3785 H 359.2 0.403355 2.96671 0
M  V30 3786 H 356.746 0.195425 1.42668 0
M  V30 3787 H 358.699 -1.90045 3.76113 0
M  V30 3788 H 357.423 -2.06598 2.52953 0
M  V30 3789 H 356.082 -0.255928 3.65706 0
M  V30 3790 H 355.73 -2.65423 4.2727 0
M  V30 3791 H 355.43 -1.57789 5.66018 0
M  V30 3792 H 356.954 -2.50577 5.56816 0
M  V30 3793 H 358.368 -0.23996 5.72798 0
M  V30 3794 H 356.765 0.51026 5.97927 0
M  V30 3795 H 357.835 1.13911 4.7133 0
M  V30 3796 N 359.178 -1.55987 0.224894 0
M  V30 3797 C 360.408 -2.02489 -0.41007 0
M  V30 3798 C 360.816 -1.10391 -1.53657 0
M  V30 3799 O 360.159 -0.106458 -1.83391 0
M  V30 3800 C 360.221 -3.45319 -0.999757 0
M  V30 3801 C 359.885 -4.56999 -0.00827976 0
M  V30 3802 C 360.882 -5.13812 0.793314 0
M  V30 3803 C 358.567 -5.02176 0.111442 0
M  V30 3804 C 360.561 -6.14276 1.7013 0
M  V30 3805 C 358.248 -6.02477 1.02296 0
M  V30 3806 C 359.246 -6.58403 1.81643 0
M  V30 3807 O 358.934 -7.56751 2.71262 0
M  V30 3808 H 358.666 -0.667915 -0.104235 0
M  V30 3809 H 361.22 -2.0257 0.339782 0
M  V30 3810 H 359.45 -3.42318 -1.79876 0
M  V30 3811 H 361.139 -3.7545 -1.54248 0
M  V30 3812 H 361.905 -4.79756 0.711288 0
M  V30 3813 H 357.784 -4.58323 -0.49605 0
M  V30 3814 H 361.328 -6.57854 2.32107 0
M  V30 3815 H 357.225 -6.35954 1.10599 0
M  V30 3816 H 357.993 -7.74286 2.65375 0
M  V30 3817 N 360.656 0.0484629 -1.57525 0
M  V30 3818 C 362.067 0.597486 -1.76881 0
M  V30 3819 C 362.418 1.76664 -0.853475 0
M  V30 3820 O 361.543 2.16357 -0.0433656 0
M  V30 3821 C 362.138 1.09066 -3.20765 0
M  V30 3822 C 360.697 1.58535 -3.41385 0
M  V30 3823 C 359.844 0.514868 -2.72478 0
M  V30 3824 H 362.795 -0.177758 -1.57701 0
M  V30 3825 H 362.816 1.95875 -3.2621 0
M  V30 3826 H 362.328 0.239521 -3.8736 0
M  V30 3827 H 360.429 2.45898 -2.79937 0
M  V30 3828 H 360.542 1.64622 -4.49929 0
M  V30 3829 H 358.906 0.965407 -2.35695 0
M  V30 3830 H 359.689 -0.32648 -3.41744 0
M  V30 3831 N 362.134 1.5431 0.320358 0
M  V30 3832 C 363.382 1.72327 1.05583 0
M  V30 3833 C 363.703 0.50149 1.88441 0
M  V30 3834 O 362.973 -0.48448 1.89815 0
M  V30 3835 H 361.553 0.635387 0.3928 0
M  V30 3836 H 364.215 1.91621 0.356019 0
M  V30 3837 H 363.311 2.60426 1.72003 0
M  V30 3838 N 363.613 -0.582584 1.46437 0
M  V30 3839 C 364.862 -1.337 1.5102 0
M  V30 3840 C 365.175 -1.94891 0.166359 0
M  V30 3841 O 366.381 -2.71351 0.0899954 0
M  V30 3842 C 364.837 -2.42315 2.66104 0
M  V30 3843 C 364.445 -1.87427 4.06909 0
M  V30 3844 C 366.189 -3.19099 2.79958 0
M  V30 3845 C 364.096 -2.93672 5.13333 0
M  V30 3846 H 363.026 -0.502619 0.562041 0
M  V30 3847 H 365.677 -0.621701 1.72647 0
M  V30 3848 H 364.059 -3.16645 2.37807 0
M  V30 3849 H 365.233 -1.19639 4.44998 0
M  V30 3850 H 363.548 -1.2331 3.97723 0
M  V30 3851 H 366.145 -3.9839 3.56636 0
M  V30 3852 H 366.488 -3.71695 1.87479 0
M  V30 3853 H 367.021 -2.51875 3.07902 0
M  V30 3854 H 363.76 -2.45962 6.07604 0
M  V30 3855 H 363.28 -3.59948 4.79789 0
M  V30 3856 H 364.959 -3.5762 5.39182 0
M  V30 3857 N 365.091 -1.34144 -0.827227 0
M  V30 3858 C 366.502 -1.23557 -1.39966 0
M  V30 3859 C 366.853 0.140731 -1.95695 0
M  V30 3860 O 365.978 1.04087 -1.89723 0
M  V30 3861 C 366.573 -2.23708 -2.54441 0
M  V30 3862 C 365.132 -2.16924 -3.07605 0
M  V30 3863 C 364.279 -2.10549 -1.80456 0
M  V30 3864 H 367.23 -1.45573 -0.631991 0
M  V30 3865 H 367.251 -1.85157 -3.32411 0
M  V30 3866 H 366.763 -3.23866 -2.13851 0
M  V30 3867 H 364.864 -1.20107 -3.52711 0
M  V30 3868 H 364.977 -3.07988 -3.66988 0
M  V30 3869 H 363.341 -1.56203 -2.01178 0
M  V30 3870 H 364.124 -3.12535 -1.42046 0
M  V30 3871 N 366.569 1.04691 -1.17803 0
M  V30 3872 C 367.532 2.10724 -0.901545 0
M  V30 3873 C 368.532 1.6042 0.110437 0
M  V30 3874 O 369.722 1.7377 -0.122303 0
M  V30 3875 C 366.854 3.39084 -0.351409 0
M  V30 3876 H 368.047 2.36686 -1.84174 0
M  V30 3877 H 365.6 1.21015 -0.98919 0
M  V30 3878 H 366.335 3.18782 0.59569 0
M  V30 3879 H 366.12 3.76909 -1.08083 0
M  V30 3880 H 367.61 4.17227 -0.176451 0
M  V30 3881 N 368.047 0.979072 1.23499 0
M  V30 3882 C 369.01 0.523244 2.23147 0
M  V30 3883 C 370.01 -0.386406 1.56088 0
M  V30 3884 O 371.2 -0.180283 1.73265 0
M  V30 3885 C 368.332 -0.240739 3.40049 0
M  V30 3886 H 369.525 1.40432 2.64989 0
M  V30 3887 H 367.078 0.764824 1.36309 0
M  V30 3888 H 367.813 -1.13841 3.03662 0
M  V30 3889 H 367.598 0.412207 3.89927 0
M  V30 3890 H 369.088 -0.548297 4.13985 0
M  V30 3891 N 369.525 -1.3858 0.750561 0
M  V30 3892 C 370.455 -2.33102 0.136237 0
M  V30 3893 C 371.436 -1.54713 -0.706965 0
M  V30 3894 O 372.621 -1.83043 -0.648769 0
M  V30 3895 C 369.751 -3.38882 -0.760017 0
M  V30 3896 C 368.705 -4.27995 -0.0197785 0
M  V30 3897 C 368.031 -5.24605 -1.03408 0
M  V30 3898 C 369.331 -5.09554 1.14684 0
M  V30 3899 H 371.025 -2.84726 0.925822 0
M  V30 3900 H 368.571 -1.36898 0.446654 0
M  V30 3901 H 370.524 -4.0397 -1.19943 0
M  V30 3902 H 369.248 -2.85734 -1.58189 0
M  V30 3903 H 367.907 -3.64409 0.400184 0
M  V30 3904 H 367.555 -4.67746 -1.84994 0
M  V30 3905 H 367.255 -5.85081 -0.543464 0
M  V30 3906 H 368.779 -5.9257 -1.47288 0
M  V30 3907 H 370.193 -5.67899 0.785118 0
M  V30 3908 H 368.59 -5.7925 1.56812 0
M  V30 3909 H 369.66 -4.4347 1.96118 0
M  V30 3910 N 371.003 -0.499398 -1.49478 0
M  V30 3911 C 372.249 0.0457576 -2.02748 0
M  V30 3912 C 372.582 1.36793 -1.37846 0
M  V30 3913 O 371.857 1.87596 -0.513601 0
M  V30 3914 C 372.14 0.199986 -3.59544 0
M  V30 3915 C 371.993 -1.1452 -4.34977 0
M  V30 3916 C 373.312 0.94137 -4.29914 0
M  V30 3917 H 370.431 0.0151552 -0.736844 0
M  V30 3918 H 373.073 -0.650498 -1.78518 0
M  V30 3919 H 371.223 0.793007 -3.8032 0
M  V30 3920 H 372.895 -1.77697 -4.25701 0
M  V30 3921 H 371.138 -1.73488 -3.97598 0
M  V30 3922 H 371.809 -0.990607 -5.43039 0
M  V30 3923 H 374.285 0.43844 -4.13784 0
M  V30 3924 H 373.161 1.01812 -5.39375 0
M  V30 3925 H 373.422 1.98471 -3.95046 0
M  V30 3926 N 372.481 1.55866 -0.233164 0
M  V30 3927 C 373.897 1.59133 0.121988 0
M  V30 3928 C 374.097 1.25016 1.58029 0
M  V30 3929 O 373.153 0.990922 2.32243 0
M  V30 3930 C 374.466 2.99932 -0.214792 0
M  V30 3931 C 376.014 3.12601 -0.157971 0
M  V30 3932 C 376.489 4.55597 -0.46859 0
M  V30 3933 N 377.98 4.61305 -0.418585 0
M  V30 3934 C 378.715 5.69903 -0.63227 0
M  V30 3935 N 378.211 6.86819 -0.90835 0
M  V30 3936 N 380.004 5.59264 -0.563913 0
M  V30 3937 H 372.155 1.76315 -1.18434 0
M  V30 3938 H 374.418 0.820093 -0.475553 0
M  V30 3939 H 374.124 3.29588 -1.22739 0
M  V30 3940 H 373.998 3.74327 0.464691 0
M  V30 3941 H 376.385 2.82735 0.845283 0
M  V30 3942 H 376.466 2.40511 -0.871102 0
M  V30 3943 H 376.11 4.86182 -1.46934 0
M  V30 3944 H 376.04 5.25928 0.265865 0
M  V30 3945 H 378.531 3.77297 -0.213368 0
M  V30 3946 H 378.844 7.65507 -1.05919 0
M  V30 3947 H 377.189 6.88536 -0.945673 0
M  V30 3948 H 380.38 4.66802 -0.348372 0
M  V30 3949 H 380.553 6.43831 -0.733847 0
M  V30 3950 N 373.959 -0.0401083 1.57549 0
M  V30 3951 C 374.922 -1.02871 2.04817 0
M  V30 3952 C 375.922 -1.29708 0.950388 0
M  V30 3953 O 377.112 -1.24897 1.21435 0
M  V30 3954 C 374.244 -2.36443 2.45576 0
M  V30 3955 H 375.437 -0.620631 2.93408 0
M  V30 3956 H 372.99 -0.286667 1.53649 0
M  V30 3957 H 373.725 -2.82021 1.60108 0
M  V30 3958 H 373.51 -2.18296 3.25713 0
M  V30 3959 H 375 -3.07441 2.82612 0
M  V30 3960 N 375.437 -1.54477 -0.31217 0
M  V30 3961 C 376.684 -1.73227 -1.04875 0
M  V30 3962 C 377.012 -0.512042 -1.87639 0
M  V30 3963 O 376.267 0.506131 -1.89042 0
M  V30 3964 C 376.566 -2.967 -1.99258 0
M  V30 3965 C 376.232 -4.30974 -1.32559 0
M  V30 3966 C 374.894 -4.67477 -1.141 0
M  V30 3967 C 377.246 -5.14258 -0.847835 0
M  V30 3968 C 374.574 -5.84852 -0.465326 0
M  V30 3969 C 376.926 -6.32327 -0.185931 0
M  V30 3970 C 375.59 -6.67499 0.0107077 0
M  V30 3971 H 374.86 -0.633881 -0.383765 0
M  V30 3972 H 377.507 -1.88727 -0.324731 0
M  V30 3973 H 375.812 -2.75935 -2.7815 0
M  V30 3974 H 377.509 -3.08401 -2.563 0
M  V30 3975 H 374.099 -4.02262 -1.4793 0
M  V30 3976 H 378.283 -4.86565 -0.978192 0
M  V30 3977 H 373.539 -6.10654 -0.301883 0
M  V30 3978 H 377.713 -6.96135 0.192211 0
M  V30 3979 H 375.34 -7.58306 0.536287 0
M  V30 3980 N 376.915 0.57481 -1.46744 0
M  V30 3981 C 377.845 1.69337 -1.60771 0
M  V30 3982 C 378.826 1.63825 -0.457736 0
M  V30 3983 O 380.011 1.8172 -0.684947 0
M  V30 3984 C 377.141 3.0798 -1.60517 0
M  V30 3985 C 376.095 3.28327 -2.74564 0
M  V30 3986 C 375.421 4.67578 -2.59373 0
M  V30 3987 C 376.721 3.15398 -4.16319 0
M  V30 3988 H 378.415 1.57853 -2.54407 0
M  V30 3989 H 375.961 0.75799 -1.22436 0
M  V30 3990 H 377.914 3.86061 -1.68923 0
M  V30 3991 H 376.638 3.20381 -0.634305 0
M  V30 3992 H 375.297 2.52649 -2.65639 0
M  V30 3993 H 374.945 4.76755 -1.60353 0
M  V30 3994 H 374.645 4.82144 -3.35873 0
M  V30 3995 H 376.169 5.47817 -2.69682 0
M  V30 3996 H 377.583 3.83315 -4.26313 0
M  V30 3997 H 375.98 3.41482 -4.93468 0
M  V30 3998 H 377.05 2.12372 -4.3592 0
M  V30 3999 N 378.394 1.34581 0.820102 0
M  V30 4000 C 379.326 1.22236 1.93884 0
M  V30 4001 C 380.339 0.148776 1.62119 0
M  V30 4002 O 381.528 0.400877 1.7394 0
M  V30 4003 C 378.628 0.856542 3.27897 0
M  V30 4004 C 377.801 2.02569 3.87666 0
M  V30 4005 C 376.86 1.63782 5.00062 0
M  V30 4006 O 375.886 2.35477 5.18208 0
M  V30 4007 N 377.088 0.553611 5.77854 0
M  V30 4008 H 379.853 2.18615 2.05006 0
M  V30 4009 H 377.414 1.27573 0.99683 0
M  V30 4010 H 379.406 0.578806 4.0054 0
M  V30 4011 H 377.976 -0.0171518 3.12595 0
M  V30 4012 H 377.196 2.468 3.07382 0
M  V30 4013 H 378.484 2.80752 4.24329 0
M  V30 4014 H 377.882 -0.0423528 5.65684 0
M  V30 4015 H 376.439 0.335614 6.50935 0
M  V30 4016 N 379.872 -1.04064 1.18357 0
M  V30 4017 C 381.283 -1.58719 0.98312 0
M  V30 4018 C 381.634 -1.90556 -0.467193 0
M  V30 4019 O 380.759 -1.69561 -1.34454 0
M  V30 4020 C 381.354 -2.88379 1.77828 0
M  V30 4021 C 379.913 -3.3965 1.62218 0
M  V30 4022 C 379.06 -2.13235 1.77274 0
M  V30 4023 H 382.011 -0.867359 1.32901 0
M  V30 4024 H 382.032 -3.58773 1.26737 0
M  V30 4025 H 381.544 -2.65176 2.83379 0
M  V30 4026 H 379.645 -3.67866 0.592036 0
M  V30 4027 H 379.758 -4.13475 2.42023 0
M  V30 4028 H 378.122 -2.24542 1.20221 0
M  V30 4029 H 378.905 -1.92487 2.8426 0
M  V30 4030 N 381.35 -0.985608 -1.22978 0
M  V30 4031 C 382.761 -0.693593 -1.73338 0
M  V30 4032 C 383.112 0.789935 -1.79595 0
M  V30 4033 O 382.237 1.61771 -1.43733 0
M  V30 4034 C 382.832 -1.25235 -3.14804 0
M  V30 4035 C 381.391 -1.00987 -3.626 0
M  V30 4036 C 380.538 -1.37695 -2.40698 0
M  V30 4037 H 383.489 -1.15884 -1.08428 0
M  V30 4038 H 383.51 -0.627329 -3.75293 0
M  V30 4039 H 383.022 -2.33209 -3.10218 0
M  V30 4040 H 381.123 0.0535565 -3.72562 0
M  V30 4041 H 381.236 -1.66812 -4.49122 0
M  V30 4042 H 379.6 -0.795459 -2.4196 0
M  V30 4043 H 380.383 -2.46657 -2.38779 0
M  V30 4044 N 382.828 1.3818 -0.7579 0
M  V30 4045 C 383.758 2.33027 -0.148597 0
M  V30 4046 C 384.739 1.55085 0.69875 0
M  V30 4047 O 385.924 1.83384 0.639053 0
M  V30 4048 C 383.054 3.3928 0.742034 0
M  V30 4049 C 382.008 4.28 -0.00291946 0
M  V30 4050 C 381.334 5.25146 1.00625 0
M  V30 4051 C 382.634 5.08938 -1.17385 0
M  V30 4052 H 384.328 2.84231 -0.940909 0
M  V30 4053 H 381.874 1.36659 -0.453908 0
M  V30 4054 H 383.827 4.046 1.17799 0
M  V30 4055 H 382.551 2.86569 1.56671 0
M  V30 4056 H 381.21 3.64192 -0.419504 0
M  V30 4057 H 380.858 4.68721 1.8251 0
M  V30 4058 H 380.558 5.85361 0.512428 0
M  V30 4059 H 382.082 5.93342 1.44143 0
M  V30 4060 H 383.496 5.67474 -0.815224 0
M  V30 4061 H 381.893 5.7841 -1.59882 0
M  V30 4062 H 382.963 4.42424 -1.98468 0
M  V30 4063 N 384.306 0.507319 1.49211 0
M  V30 4064 C 385.253 -0.267728 2.29242 0
M  V30 4065 C 386.223 -0.954609 1.35928 0
M  V30 4066 O 387.408 -0.960046 1.64887 0
M  V30 4067 C 384.548 -1.32243 3.18756 0
M  V30 4068 C 383.661 -0.64669 4.27132 0
M  V30 4069 C 382.796 -1.68238 5.03855 0
M  V30 4070 C 381.835 -0.98885 6.0406 0
M  V30 4071 N 380.972 -1.96903 6.73924 0
M  V30 4072 H 385.812 0.420968 2.95012 0
M  V30 4073 H 383.349 0.219443 1.45454 0
M  V30 4074 H 385.307 -1.94599 3.69036 0
M  V30 4075 H 383.937 -1.97981 2.54958 0
M  V30 4076 H 382.989 0.0902926 3.80293 0
M  V30 4077 H 384.301 -0.101058 4.98698 0
M  V30 4078 H 383.455 -2.38081 5.58034 0
M  V30 4079 H 382.194 -2.26187 4.32077 0
M  V30 4080 H 381.199 -0.276222 5.49106 0
M  V30 4081 H 382.424 -0.415767 6.77826 0
M  V30 4082 H 380.37 -2.53803 6.04913 0
M  V30 4083 H 380.287 -1.47423 7.41487 0
M  V30 4084 H 381.555 -2.66015 7.32705 0
M  V30 4085 N 385.784 -1.5574 0.241426 0
M  V30 4086 C 387.032 -1.98417 -0.384075 0
M  V30 4087 C 387.353 -1.13078 -1.58866 0
M  V30 4088 O 386.623 -0.212312 -1.94746 0
M  V30 4089 H 385.203 -0.732813 -0.144894 0
M  V30 4090 H 387.865 -1.9193 0.338943 0
M  V30 4091 H 386.961 -3.04219 -0.696939 0
M  V30 4092 N 387.262 0.0317525 -1.57568 0
M  V30 4093 C 388.508 0.724175 -1.8943 0
M  V30 4094 C 388.841 1.75149 -0.838836 0
M  V30 4095 O 388.116 1.93948 0.146422 0
M  V30 4096 C 388.399 1.39615 -3.31933 0
M  V30 4097 C 388.252 0.382537 -4.4817 0
M  V30 4098 C 389.571 2.33084 -3.73309 0
M  V30 4099 H 386.69 0.261797 -0.688935 0
M  V30 4100 H 389.332 -0.013017 -1.89996 0
M  V30 4101 H 387.482 2.02451 -3.31581 0
M  V30 4102 H 389.154 -0.243689 -4.60656 0
M  V30 4103 H 387.397 -0.29844 -4.32772 0
M  V30 4104 H 388.068 0.891145 -5.44759 0
M  V30 4105 H 390.544 1.80295 -3.7501 0
M  V30 4106 H 389.42 2.77084 -4.73831 0
M  V30 4107 H 389.681 3.19643 -3.05419 0
M  V30 4108 N 388.74 1.54641 0.303973 0
M  V30 4109 C 389.986 1.74038 1.04109 0
M  V30 4110 C 390.319 0.523051 1.87024 0
M  V30 4111 O 389.594 -0.479874 1.88487 0
M  V30 4112 C 389.877 3.02761 1.94955 0
M  V30 4113 C 389.73 4.34787 1.1524 0
M  V30 4114 C 391.049 3.27336 2.94175 0
M  V30 4115 H 388.168 0.63323 0.377079 0
M  V30 4116 H 390.81 1.87354 0.316001 0
M  V30 4117 H 388.96 2.9154 2.56782 0
M  V30 4118 H 390.632 4.57922 0.557236 0
M  V30 4119 H 388.875 4.31407 0.455053 0
M  V30 4120 H 389.546 5.21116 1.8205 0
M  V30 4121 H 392.022 3.38148 2.42477 0
M  V30 4122 H 390.898 4.18726 3.54908 0
M  V30 4123 H 391.159 2.45491 3.67677 0
M  V30 4124 N 390.218 -0.567019 1.47046 0
M  V30 4125 C 391.151 -1.69016 1.53326 0
M  V30 4126 C 392.129 -1.57949 0.386126 0
M  V30 4127 O 393.313 -1.78945 0.592529 0
M  V30 4128 C 390.44 -3.07191 1.42658 0
M  V30 4129 C 389.486 -3.36733 2.6175 0
M  V30 4130 S 390.319 -3.27069 4.24012 0
M  V30 4131 C 391.475 -4.67755 4.1588 0
M  V30 4132 H 391.708 -1.63434 2.48348 0
M  V30 4133 H 389.241 -0.747048 1.35124 0
M  V30 4134 H 391.199 -3.86897 1.37191 0
M  V30 4135 H 389.86 -3.10249 0.490369 0
M  V30 4136 H 389.053 -4.37441 2.50323 0
M  V30 4137 H 388.655 -2.64627 2.64289 0
M  V30 4138 H 390.947 -5.58491 3.83529 0
M  V30 4139 H 391.89 -4.84239 5.16641 0
M  V30 4140 H 392.298 -4.45341 3.46889 0
M  V30 4141 N 391.696 -1.35014 -0.812953 0
M  V30 4142 C 392.606 -1.2951 -1.95613 0
M  V30 4143 C 393.622 -0.20107 -1.72834 0
M  V30 4144 O 394.798 -0.42932 -1.96771 0
M  V30 4145 C 391.863 -1.06033 -3.30088 0
M  V30 4146 C 390.924 -2.24688 -3.65805 0
M  V30 4147 C 390.157 -2.02322 -4.93864 0
M  V30 4148 O 390.38 -0.986464 -5.61805 0
M  V30 4149 O 389.314 -2.89525 -5.27692 0
M  V30 4150 H 393.14 -2.25705 -2.03202 0
M  V30 4151 H 390.725 -1.15321 -0.949811 0
M  V30 4152 H 392.607 -0.94763 -4.10607 0
M  V30 4153 H 391.282 -0.128852 -3.23443 0
M  V30 4154 H 390.189 -2.41521 -2.85689 0
M  V30 4155 H 391.522 -3.16261 -3.77147 0
M  V30 4156 N 393.175 1.03435 -1.18907 0
M  V30 4157 C 394.403 1.80381 -1.01342 0
M  V30 4158 C 394.818 1.83649 0.438005 0
M  V30 4159 O 394.175 1.27655 1.30424 0
M  V30 4160 C 394.226 3.25689 -1.56873 0
M  V30 4161 O 393.947 3.22673 -2.96334 0
M  V30 4162 C 395.448 4.19255 -1.44014 0
M  V30 4163 H 392.668 0.56784 -0.35749 0
M  V30 4164 H 395.212 1.30317 -1.576 0
M  V30 4165 H 393.367 3.72962 -1.04777 0
M  V30 4166 H 393.781 4.13748 -3.22355 0
M  V30 4167 H 395.255 5.19123 -1.87657 0
M  V30 4168 H 395.732 4.37467 -0.389815 0
M  V30 4169 H 396.338 3.77851 -1.95214 0
M  V30 4170 N 394.653 0.992116 1.22453 0
M  V30 4171 C 395.9 0.667534 1.91181 0
M  V30 4172 C 396.228 -0.800317 1.77271 0
M  V30 4173 O 395.483 -1.59421 1.13505 0
M  V30 4174 C 395.782 1.01832 3.42586 0
M  V30 4175 C 395.448 2.47831 3.76684 0
M  V30 4176 C 394.11 2.87729 3.85701 0
M  V30 4177 C 396.462 3.42466 3.92895 0
M  V30 4178 C 393.79 4.21252 4.08367 0
M  V30 4179 C 396.142 4.75648 4.17064 0
M  V30 4180 C 394.806 5.15288 4.24305 0
M  V30 4181 H 394.076 0.244268 0.699581 0
M  V30 4182 H 396.723 1.24816 1.45235 0
M  V30 4183 H 395.028 0.355769 3.90181 0
M  V30 4184 H 396.725 0.745228 3.94014 0
M  V30 4185 H 393.315 2.15905 3.70247 0
M  V30 4186 H 397.499 3.12814 3.85307 0
M  V30 4187 H 392.755 4.51554 4.122 0
M  V30 4188 H 396.929 5.48924 4.2855 0
M  V30 4189 H 394.556 6.18769 4.41621 0
M  V30 4190 N 396.131 -1.37776 0.765217 0
M  V30 4191 C 397.379 -1.99454 0.325943 0
M  V30 4192 C 397.7 -1.61049 -1.09947 0
M  V30 4193 O 396.97 -0.872821 -1.75381 0
M  V30 4194 H 395.55 -0.737697 0.117525 0
M  V30 4195 H 398.212 -1.68359 0.981895 0
M  V30 4196 H 397.308 -3.09547 0.398353 0
M  V30 4197 N 397.609 -0.515225 -1.4894 0
M  V30 4198 C 398.834 0.022727 -2.07388 0
M  V30 4199 C 399.259 1.2876 -1.37122 0
M  V30 4200 O 398.617 1.76067 -0.432431 0
M  V30 4201 C 398.665 0.244869 -3.59768 0
M  V30 4202 O 397.769 1.31667 -3.90817 0
M  V30 4203 H 397.11 -0.0325506 -0.663202 0
M  V30 4204 H 399.64 -0.718918 -1.91553 0
M  V30 4205 H 399.65 0.47205 -4.0526 0
M  V30 4206 H 398.325 -0.679194 -4.10317 0
M  V30 4207 H 396.902 1.07331 -3.5712 0
M  V30 4208 N 399.087 1.5561 -0.249682 0
M  V30 4209 C 400.335 1.98618 0.373548 0
M  V30 4210 C 400.656 1.13919 1.58264 0
M  V30 4211 O 399.926 0.222637 1.94631 0
M  V30 4212 H 398.506 0.733571 0.141006 0
M  V30 4213 H 401.168 1.91748 -0.349117 0
M  V30 4214 H 400.264 3.04584 0.680796 0
M  V30 4215 N 400.565 -0.0233959 1.57583 0
M  V30 4216 C 401.513 -1.04063 2.08023 0
M  V30 4217 C 402.507 -1.37084 0.995204 0
M  V30 4218 O 403.713 -1.35923 1.18004 0
M  V30 4219 H 400.088 -0.353144 0.663922 0
M  V30 4220 H 402.059 -0.589453 2.9252 0
M  V30 4221 C 400.808 -2.33123 2.57971 0
M  V30 4222 H 400.131 -2.08577 3.4108 0
M  V30 4223 H 401.571 -3.02632 2.96967 0
M  V30 4224 C 400.03 -3.02483 1.48342 0
M  V30 4225 O 400.56 -3.92541 0.852898 0
M  V30 4226 N 398.766 -2.63909 1.21658 0
M  V30 4227 H 398.313 -1.90758 1.73116 0
M  V30 4228 H 398.271 -3.10633 0.485218 0
M  V30 4229 N 402.043 -1.548 -0.295768 0
M  V30 4230 C 403.291 -1.73985 -1.02828 0
M  V30 4231 C 403.612 -0.531406 -1.87619 0
M  V30 4232 O 402.882 0.454221 -1.90561 0
M  V30 4233 H 401.462 -0.641556 -0.382642 0
M  V30 4234 H 404.124 -1.92163 -0.325489 0
M  V30 4235 H 403.22 -2.63129 -1.67838 0
M  V30 4236 N 403.521 0.559213 -1.47345 0
M  V30 4237 C 404.932 1.14134 -1.47751 0
M  V30 4238 C 405.283 1.94834 -0.231103 0
M  V30 4239 O 404.408 2.05957 0.664137 0
M  V30 4240 C 405.003 2.07653 -2.67705 0
M  V30 4241 C 403.562 2.61141 -2.71076 0
M  V30 4242 C 402.709 1.3748 -2.40821 0
M  V30 4243 H 405.66 0.345917 -1.54884 0
M  V30 4244 H 405.681 2.91497 -2.44561 0
M  V30 4245 H 405.193 1.4889 -3.58404 0
M  V30 4246 H 403.294 3.23707 -1.84511 0
M  V30 4247 H 403.407 3.02272 -3.7171 0
M  V30 4248 H 401.771 1.68086 -1.91362 0
M  V30 4249 H 402.554 0.805135 -3.33725 0
M  V30 4250 N 404.999 1.35443 0.805782 0
M  V30 4251 C 406.227 1.31878 1.59423 0
M  V30 4252 C 406.642 -0.103562 1.88516 0
M  V30 4253 O 405.999 -1.05575 1.48863 0
M  V30 4254 C 406.05 2.12426 2.92502 0
M  V30 4255 O 405.771 3.49115 2.6467 0
M  V30 4256 C 407.272 2.16455 3.86862 0
M  V30 4257 H 404.492 0.453002 0.495005 0
M  V30 4258 H 407.036 1.78309 1.00131 0
M  V30 4259 H 405.191 1.69593 3.48306 0
M  V30 4260 H 405.605 3.90957 3.49647 0
M  V30 4261 H 407.079 2.77204 4.77349 0
M  V30 4262 H 407.556 1.16352 4.23508 0
M  V30 4263 H 408.162 2.59453 3.36993 0
M  V30 4264 N 406.477 -1.02803 1.19454 0
M  V30 4265 C 407.424 -2.11099 0.933046 0
M  V30 4266 C 408.394 -1.65571 -0.132447 0
M  V30 4267 O 409.579 -1.90797 0.00987576 0
M  V30 4268 C 406.719 -3.41763 0.478747 0
M  V30 4269 C 405.832 -4.00833 1.6111 0
M  V30 4270 C 404.967 -5.19511 1.10825 0
M  V30 4271 C 404.006 -5.70639 2.21445 0
M  V30 4272 N 403.143 -6.80589 1.72461 0
M  V30 4273 H 407.983 -2.32804 1.86028 0
M  V30 4274 H 405.52 -1.14179 0.927441 0
M  V30 4275 H 407.478 -4.16736 0.196745 0
M  V30 4276 H 406.108 -3.20166 -0.411493 0
M  V30 4277 H 405.16 -3.23066 2.00829 0
M  V30 4278 H 406.472 -4.34794 2.4445 0
M  V30 4279 H 405.626 -6.01645 0.781533 0
M  V30 4280 H 404.365 -4.87086 0.244606 0
M  V30 4281 H 403.37 -4.87116 2.54947 0
M  V30 4282 H 404.595 -6.05102 3.08267 0
M  V30 4283 H 402.541 -6.50016 0.884056 0
M  V30 4284 H 402.458 -7.13681 2.49389 0
M  V30 4285 H 403.726 -7.66317 1.42755 0
M  V30 4286 N 407.956 -0.998596 -1.21925 0
M  V30 4287 C 409.367 -0.711939 -1.72593 0
M  V30 4288 C 409.718 0.770842 -1.80423 0
M  V30 4289 O 408.843 1.60237 -1.4544 0
M  V30 4290 C 409.438 -1.28567 -3.13458 0
M  V30 4291 C 407.997 -1.04828 -3.61508 0
M  V30 4292 C 407.144 -1.4024 -2.39224 0
M  V30 4293 H 410.095 -1.17027 -1.07193 0
M  V30 4294 H 410.116 -0.667098 -3.74607 0
M  V30 4295 H 409.628 -2.36486 -3.07727 0
M  V30 4296 H 407.729 0.0140383 -3.72597 0
M  V30 4297 H 407.842 -1.71566 -4.47328 0
M  V30 4298 H 406.206 -0.821077 -2.41103 0
M  V30 4299 H 406.989 -2.49176 -2.36149 0
M  V30 4300 N 409.434 1.37368 -0.772513 0
M  V30 4301 C 410.711 1.93839 -0.26188 0
M  V30 4302 C 411.091 1.7061 1.24319 0
M  V30 4303 O 410.439 1.05534 2.02669 0
M  V30 4304 C 410.649 3.43154 -0.636102 0
M  V30 4305 C 411.997 4.20249 -0.606324 0
M  V30 4306 O 413.021 3.5152 -0.575538 0
M  V30 4307 O 411.88 5.42809 -0.634086 0
M  V30 4308 H 408.974 0.82478 -0.0605555 0
M  V30 4309 H 411.52 1.4665 -0.853917 0
M  V30 4310 H 410.292 3.53647 -1.6748 0
M  V30 4311 H 409.915 3.97596 -0.0170516 0
M  V30 4312 N 410.912 0.523116 1.48665 0
M  V30 4313 C 411.842 -0.23231 2.32342 0
M  V30 4314 C 412.823 -0.941637 1.41659 0
M  V30 4315 O 414.008 -0.928751 1.70552 0
M  V30 4316 C 411.138 -1.28387 3.22698 0
M  V30 4317 C 410.092 -0.693098 4.22351 0
M  V30 4318 C 409.418 -1.8468 5.01794 0
M  V30 4319 C 410.718 0.33063 5.21252 0
M  V30 4320 H 412.412 0.466192 2.95748 0
M  V30 4321 H 409.958 0.225643 1.42221 0
M  V30 4322 H 411.911 -1.82024 3.80059 0
M  V30 4323 H 410.635 -2.01186 2.57278 0
M  V30 4324 H 409.294 -0.178299 3.66166 0
M  V30 4325 H 408.942 -2.56301 4.32804 0
M  V30 4326 H 408.642 -1.45747 5.69238 0
M  V30 4327 H 410.166 -2.38709 5.62006 0
M  V30 4328 H 411.58 -0.118407 5.73178 0
M  V30 4329 H 409.977 0.636974 5.9671 0
M  V30 4330 H 411.047 1.23883 4.68808 0
M  V30 4331 N 412.39 -1.55475 0.257931 0
M  V30 4332 C 413.32 -2.24815 -0.630912 0
M  V30 4333 C 414.301 -1.23224 -1.17259 0
M  V30 4334 O 415.486 -1.51904 -1.20991 0
M  V30 4335 C 412.616 -2.95609 -1.82298 0
M  V30 4336 C 411.57 -4.03982 -1.41359 0
M  V30 4337 C 410.896 -4.6226 -2.68738 0
M  V30 4338 C 412.196 -5.19109 -0.57648 0
M  V30 4339 H 413.89 -2.99354 -0.0526878 0
M  V30 4340 H 411.436 -1.4398 -0.023901 0
M  V30 4341 H 413.389 -3.42822 -2.45054 0
M  V30 4342 H 412.113 -2.18577 -2.42676 0
M  V30 4343 H 410.772 -3.57555 -0.809324 0
M  V30 4344 H 410.42 -3.81915 -3.27338 0
M  V30 4345 H 410.12 -5.35424 -2.42065 0
M  V30 4346 H 411.644 -5.12212 -3.32372 0
M  V30 4347 H 413.058 -5.62479 -1.10861 0
M  V30 4348 H 411.455 -5.98729 -0.405351 0
M  V30 4349 H 412.525 -4.83174 0.408776 0
M  V30 4350 N 413.868 0.0150385 -1.57593 0
M  V30 4351 C 414.8 1.03912 -2.04291 0
M  V30 4352 C 415.813 1.31618 -0.958146 0
M  V30 4353 O 417.002 1.28859 -1.23522 0
M  V30 4354 C 414.102 2.37749 -2.41514 0
M  V30 4355 C 413.275 2.29198 -3.72541 0
M  V30 4356 C 412.334 3.45598 -3.96797 0
M  V30 4357 O 411.36 3.24461 -4.67668 0
M  V30 4358 N 412.562 4.67945 -3.43523 0
M  V30 4359 H 415.327 0.64099 -2.92765 0
M  V30 4360 H 412.888 0.20272 -1.60626 0
M  V30 4361 H 414.88 3.14364 -2.54867 0
M  V30 4362 H 413.45 2.69357 -1.58637 0
M  V30 4363 H 412.67 1.3759 -3.69408 0
M  V30 4364 H 413.958 2.20642 -4.5847 0
M  V30 4365 H 413.356 4.88017 -2.86104 0
M  V30 4366 H 411.913 5.41878 -3.62232 0
M  V30 4367 N 415.346 1.54954 0.287554 0
M  V30 4368 C 416.256 1.8991 1.37736 0
M  V30 4369 C 417.272 0.794701 1.54792 0
M  V30 4370 O 418.448 1.09243 1.69198 0
M  V30 4371 C 415.513 2.15108 2.71899 0
M  V30 4372 C 414.574 3.38752 2.63715 0
M  V30 4373 C 413.807 3.62739 3.91479 0
M  V30 4374 O 414.03 2.89492 4.91478 0
M  V30 4375 O 412.964 4.56267 3.92561 0
M  V30 4376 H 416.79 2.82652 1.11092 0
M  V30 4377 H 414.375 1.41315 0.484807 0
M  V30 4378 H 416.257 2.32806 3.51254 0
M  V30 4379 H 414.932 1.25551 2.9836 0
M  V30 4380 H 413.839 3.26405 1.82786 0
M  V30 4381 H 415.172 4.28483 2.42205 0
M  V30 4382 N 416.824 -0.551391 1.4764 0
M  V30 4383 C 417.754 -1.66757 1.63445 0
M  V30 4384 C 418.735 -1.63077 0.483742 0
M  V30 4385 O 419.92 -1.80607 0.71377 0
M  V30 4386 C 417.05 -3.05387 1.65396 0
M  V30 4387 C 416.004 -3.23918 2.79752 0
M  V30 4388 C 415.33 -4.63393 2.66779 0
M  V30 4389 C 416.63 -3.08735 4.21284 0
M  V30 4390 H 418.324 -1.53786 2.56886 0
M  V30 4391 H 415.87 -0.738415 1.23626 0
M  V30 4392 H 417.823 -3.83325 1.75043 0
M  V30 4393 H 416.547 -3.19332 0.685195 0
M  V30 4394 H 415.206 -2.48391 2.69625 0
M  V30 4395 H 414.854 -4.74144 1.67918 0
M  V30 4396 H 414.554 -4.7674 3.43501 0
M  V30 4397 H 416.078 -5.43458 2.78364 0
M  V30 4398 H 417.492 -3.76484 4.32357 0
M  V30 4399 H 415.889 -3.33588 4.98838 0
M  V30 4400 H 416.959 -2.0541 4.39243 0
M  V30 4401 N 418.302 -1.35869 -0.798587 0
M  V30 4402 C 419.718 -1.16082 -1.09532 0
M  V30 4403 C 419.918 0.0213124 -2.01489 0
M  V30 4404 O 418.974 0.689488 -2.42904 0
M  V30 4405 C 420.287 -2.46748 -1.7186 0
M  V30 4406 C 421.835 -2.53028 -1.84244 0
M  V30 4407 C 422.31 -3.83758 -2.49988 0
M  V30 4408 N 423.801 -3.85053 -2.57465 0
M  V30 4409 C 424.536 -4.8294 -3.09122 0
M  V30 4410 N 424.032 -5.91217 -3.61157 0
M  V30 4411 N 425.825 -4.70369 -3.0775 0
M  V30 4412 H 417.976 -2.11571 -0.187461 0
M  V30 4413 H 420.239 -0.936726 -0.145765 0
M  V30 4414 H 419.945 -3.33471 -1.11759 0
M  V30 4415 H 419.819 -2.61883 -2.71472 0
M  V30 4416 H 422.206 -1.66729 -2.43486 0
M  V30 4417 H 422.287 -2.418 -0.834643 0
M  V30 4418 H 421.931 -4.70459 -1.91393 0
M  V30 4419 H 421.861 -3.92278 -3.5132 0
M  V30 4420 H 424.352 -3.06822 -2.20609 0
M  V30 4421 H 424.665 -6.61892 -3.98896 0
M  V30 4422 H 423.01 -5.94899 -3.59333 0
M  V30 4423 H 426.201 -3.84914 -2.66381 0
M  V30 4424 H 426.374 -5.46816 -3.47701 0
M  V30 4425 N 419.78 1.02168 -1.19998 0
M  V30 4426 C 421.026 1.75945 -1.00852 0
M  V30 4427 C 421.359 1.88702 0.458828 0
M  V30 4428 O 420.634 1.40911 1.34069 0
M  V30 4429 C 420.917 3.18154 -1.68671 0
M  V30 4430 C 420.77 3.13224 -3.22817 0
M  V30 4431 C 422.089 4.16711 -1.41561 0
M  V30 4432 H 419.208 0.638673 -0.367785 0
M  V30 4433 H 421.85 1.19222 -1.4794 0
M  V30 4434 H 420 3.66586 -1.28636 0
M  V30 4435 H 421.672 2.72635 -3.72112 0
M  V30 4436 H 419.915 2.50751 -3.53986 0
M  V30 4437 H 420.586 4.13728 -3.65422 0
M  V30 4438 H 423.062 3.76913 -1.76284 0
M  V30 4439 H 421.938 5.14391 -1.91553 0
M  V30 4440 H 422.199 4.40774 -0.342193 0
M  V30 4441 N 421.258 1.00505 1.21394 0
M  V30 4442 C 422.221 0.570459 2.21987 0
M  V30 4443 C 423.221 -0.353211 1.56873 0
M  V30 4444 O 424.411 -0.14349 1.73608 0
M  V30 4445 C 421.543 -0.168555 3.40483 0
M  V30 4446 H 422.736 1.46021 2.6195 0
M  V30 4447 H 420.289 0.793565 1.34656 0
M  V30 4448 H 421.024 -1.07374 3.06009 0
M  V30 4449 H 420.809 0.494823 3.88965 0
M  V30 4450 H 422.299 -0.460362 4.15055 0
M  V30 4451 N 422.737 -1.36956 0.779787 0
M  V30 4452 C 423.965 -2.03755 0.359398 0
M  V30 4453 C 424.38 -1.58807 -1.02106 0
M  V30 4454 O 423.737 -0.773024 -1.6532 0
M  V30 4455 C 423.788 -3.59251 0.402568 0
M  V30 4456 O 423.509 -4.02557 1.72858 0
M  V30 4457 C 425.01 -4.43291 -0.0284068 0
M  V30 4458 H 422.23 -0.654148 0.149437 0
M  V30 4459 H 424.774 -1.75128 1.05595 0
M  V30 4460 H 422.929 -3.86621 -0.245478 0
M  V30 4461 H 423.343 -4.97111 1.67275 0
M  V30 4462 H 424.817 -5.51975 0.0529466 0
M  V30 4463 H 425.294 -4.25719 -1.07982 0
M  V30 4464 H 425.9 -4.21163 0.591758 0
M  V30 4465 N 424.215 -0.530993 -1.48385 0
M  V30 4466 C 425.125 0.23503 -2.3342 0
M  V30 4467 C 426.141 0.93801 -1.46552 0
M  V30 4468 O 427.317 0.912745 -1.7953 0
M  V30 4469 C 424.382 1.26778 -3.22689 0
M  V30 4470 C 423.443 0.575038 -4.25431 0
M  V30 4471 C 422.676 1.55858 -5.10435 0
M  V30 4472 O 422.899 2.79129 -4.97437 0
M  V30 4473 O 421.833 1.09742 -5.91811 0
M  V30 4474 H 425.659 -0.461794 -3.00169 0
M  V30 4475 H 423.244 -0.291903 -1.46521 0
M  V30 4476 H 425.126 1.86457 -3.77904 0
M  V30 4477 H 423.801 1.94699 -2.586 0
M  V30 4478 H 422.708 -0.0622782 -3.74048 0
M  V30 4479 H 424.041 -0.062253 -4.92161 0
M  V30 4480 N 425.693 1.55336 -0.266172 0
M  V30 4481 C 427.109 1.59356 0.0882065 0
M  V30 4482 C 427.309 1.2834 1.55342 0
M  V30 4483 O 426.365 1.03996 2.30089 0
M  V30 4484 C 427.678 2.99409 -0.278364 0
M  V30 4485 C 429.226 3.12196 -0.224243 0
M  V30 4486 C 429.701 4.545 -0.565123 0
M  V30 4487 N 431.192 4.60313 -0.51634 0
M  V30 4488 C 431.927 5.68434 -0.753013 0
M  V30 4489 N 431.423 6.84738 -1.05383 0
M  V30 4490 N 433.216 5.57942 -0.682414 0
M  V30 4491 H 425.367 1.73764 -1.22147 0
M  V30 4492 H 427.63 0.809822 -0.492841 0
M  V30 4493 H 427.336 3.2691 -1.29703 0
M  V30 4494 H 427.21 3.75228 0.385186 0
M  V30 4495 H 429.597 2.84464 0.78512 0
M  V30 4496 H 429.678 2.38609 -0.921922 0
M  V30 4497 H 429.322 4.82956 -1.57213 0
M  V30 4498 H 429.252 5.26374 0.154248 0
M  V30 4499 H 431.743 3.7676 -0.29335 0
M  V30 4500 H 432.056 7.63088 -1.22133 0
M  V30 4501 H 430.401 6.86375 -1.09151 0
M  V30 4502 H 433.592 4.65958 -0.44731 0
M  V30 4503 H 433.765 6.4213 -0.870248 0
M  V30 4504 N 427.171 -0.0066808 1.57599 0
M  V30 4505 C 428.419 -0.691552 1.899 0
M  V30 4506 C 428.74 -1.74682 0.866672 0
M  V30 4507 O 428.01 -1.95661 -0.0968189 0
M  V30 4508 H 426.59 -0.258416 0.700878 0
M  V30 4509 H 429.252 0.0326655 1.94873 0
M  V30 4510 H 428.348 -1.16702 2.8946 0
M  V30 4511 N 428.649 -1.55105 -0.279332 0
M  V30 4512 C 429.579 -1.90557 -1.34945 0
M  V30 4513 C 430.56 -0.766738 -1.51839 0
M  V30 4514 O 431.745 -1.02434 -1.64988 0
M  V30 4515 C 428.875 -2.17193 -2.71006 0
M  V30 4516 C 427.829 -3.33021 -2.68851 0
M  V30 4517 C 427.155 -3.45123 -4.08405 0
M  V30 4518 C 428.455 -4.69578 -2.28678 0
M  V30 4519 H 430.149 -2.80188 -1.05522 0
M  V30 4520 H 427.695 -1.34811 -0.506173 0
M  V30 4521 H 429.648 -2.40581 -3.45975 0
M  V30 4522 H 428.372 -1.24355 -3.01999 0
M  V30 4523 H 427.031 -3.0959 -1.9634 0
M  V30 4524 H 426.679 -2.49762 -4.3661 0
M  V30 4525 H 426.379 -4.22995 -4.07859 0
M  V30 4526 H 427.903 -3.70796 -4.85121 0
M  V30 4527 H 429.317 -4.92553 -2.93368 0
M  V30 4528 H 427.714 -5.5032 -2.39306 0
M  V30 4529 H 428.784 -4.68828 -1.23807 0
M  V30 4530 N 430.127 0.543554 -1.4793 0
M  V30 4531 C 431.373 1.30201 -1.55485 0
M  V30 4532 C 431.706 1.92925 -0.222201 0
M  V30 4533 O 430.981 1.78586 0.77053 0
M  V30 4534 C 431.264 2.40174 -2.68307 0
M  V30 4535 C 431.117 1.8223 -4.11233 0
M  V30 4536 C 432.436 3.42024 -2.76961 0
M  V30 4537 H 429.555 0.472036 -0.565996 0
M  V30 4538 H 432.197 0.606914 -1.80046 0
M  V30 4539 H 430.347 2.99463 -2.47495 0
M  V30 4540 H 432.019 1.27096 -4.43446 0
M  V30 4541 H 430.262 1.12832 -4.18869 0
M  V30 4542 H 430.933 2.61793 -4.85972 0
M  V30 4543 H 433.409 2.92672 -2.95774 0
M  V30 4544 H 432.285 4.16383 -3.57654 0
M  V30 4545 H 432.546 4.0173 -1.84568 0
M  V30 4546 N 431.605 1.3629 0.791371 0
M  V30 4547 C 432.854 1.29742 1.54434 0
M  V30 4548 C 433.167 -0.121729 1.95221 0
M  V30 4549 O 434.373 -0.309579 2.69729 0
M  V30 4550 C 432.829 2.27623 2.78776 0
M  V30 4551 C 432.437 3.74963 2.45166 0
M  V30 4552 C 434.181 2.30047 3.56761 0
M  V30 4553 C 432.088 4.64626 3.65891 0
M  V30 4554 H 431.018 0.482113 0.579727 0
M  V30 4555 H 433.669 1.61642 0.868565 0
M  V30 4556 H 432.051 1.88714 3.48142 0
M  V30 4557 H 433.225 4.22596 1.83709 0
M  V30 4558 H 431.54 3.75295 1.80396 0
M  V30 4559 H 434.137 2.94247 4.46456 0
M  V30 4560 H 434.48 1.30846 3.95203 0
M  V30 4561 H 435.013 2.67563 2.94372 0
M  V30 4562 H 431.752 5.64883 3.32547 0
M  V30 4563 H 431.272 4.2171 4.26521 0
M  V30 4564 H 432.951 4.80801 4.32943 0
M  V30 4565 N 433.083 -1.0153 1.20538 0
M  V30 4566 C 434.329 -1.75408 1.01783 0
M  V30 4567 C 434.662 -1.88943 -0.448814 0
M  V30 4568 O 433.937 -1.4162 -1.33319 0
M  V30 4569 C 434.22 -3.17255 1.70356 0
M  V30 4570 C 434.073 -3.11508 3.24473 0
M  V30 4571 C 435.392 -4.15955 1.43769 0
M  V30 4572 H 432.511 -0.636713 0.371167 0
M  V30 4573 H 435.153 -1.18436 1.4857 0
M  V30 4574 H 433.303 -3.65898 1.30578 0
M  V30 4575 H 434.975 -2.70658 3.73553 0
M  V30 4576 H 433.218 -2.4887 3.55311 0
M  V30 4577 H 433.889 -4.11784 3.67611 0
M  V30 4578 H 436.365 -3.75973 1.7828 0
M  V30 4579 H 435.241 -5.13368 1.94279 0
M  V30 4580 H 435.502 -4.40586 0.365564 0
M  V30 4581 N 434.561 -1.01147 -1.20859 0
M  V30 4582 C 435.509 -0.57059 -2.25493 0
M  V30 4583 C 436.503 0.388109 -1.64894 0
M  V30 4584 O 437.709 0.258592 -1.78133 0
M  V30 4585 H 434.084 -0.166191 -0.733406 0
M  V30 4586 H 436.055 -1.46411 -2.60012 0
M  V30 4587 C 434.804 0.0805241 -3.47607 0
M  V30 4588 H 434.127 -0.648156 -3.94511 0
M  V30 4589 H 435.567 0.352197 -4.22535 0
M  V30 4590 C 434.026 1.32175 -3.09889 0
M  V30 4591 O 434.556 2.41553 -3.20959 0
M  V30 4592 N 432.762 1.20392 -2.64488 0
M  V30 4593 H 432.309 0.313905 -2.5568 0
M  V30 4594 H 432.267 2.03541 -2.39621 0
M  V30 4595 N 436.039 1.36541 -0.78704 0
M  V30 4596 C 437.279 2.01138 -0.363714 0
M  V30 4597 C 437.643 1.61114 1.04433 0
M  V30 4598 O 438.844 2.18285 1.56861 0
M  V30 4599 C 437.115 3.53603 -0.519582 0
M  V30 4600 S 438.674 4.38415 -0.183782 0
M  V30 4601 H 435.492 0.697263 -0.13909 0
M  V30 4602 H 438.094 1.66475 -1.02501 0
M  V30 4603 H 436.798 3.8022 -1.5447 0
M  V30 4604 H 436.329 3.93084 0.15773 0
M  V30 4605 H 438.344 4.85698 1.01547 0
M  V30 4606 N 437.518 0.538854 1.48102 0
M  V30 4607 C 438.746 0.0123136 2.06896 0
M  V30 4608 C 439.161 -1.27312 1.39417 0
M  V30 4609 O 438.518 -1.75949 0.484582 0
M  V30 4610 C 438.569 -0.206118 3.60912 0
M  V30 4611 O 438.29 1.0284 4.25859 0
M  V30 4612 C 439.791 -0.772033 4.36526 0
M  V30 4613 H 437.011 0.0375239 0.66995 0
M  V30 4614 H 439.555 0.747032 1.90367 0
M  V30 4615 H 437.71 -0.89091 3.77017 0
M  V30 4616 H 438.124 0.814654 5.18135 0
M  V30 4617 H 439.598 -0.874251 5.45033 0
M  V30 4618 H 440.075 -1.77904 4.01555 0
M  V30 4619 H 440.681 -0.123526 4.25121 0
M  V30 4620 N 438.996 -1.55193 0.274407 0
M  V30 4621 C 439.946 -2.19184 -0.627882 0
M  V30 4622 C 440.93 -1.15625 -1.11892 0
M  V30 4623 O 442.122 -1.41441 -1.06411 0
M  V30 4624 C 439.251 -2.91591 -1.81189 0
M  V30 4625 C 438.337 -4.02438 -1.33807 0
M  V30 4626 N 438.728 -5.0246 -0.580349 0
M  V30 4627 C 437.026 -4.15496 -1.62109 0
M  V30 4628 C 437.727 -5.80756 -0.331344 0
M  V30 4629 N 436.703 -5.36038 -0.903556 0
M  V30 4630 H 440.505 -2.93871 -0.0411216 0
M  V30 4631 H 438.019 -1.62213 0.0779348 0
M  V30 4632 H 440.016 -3.35883 -2.46957 0
M  V30 4633 H 438.676 -2.18414 -2.40261 0
M  V30 4634 H 439.687 -5.17399 -0.227762 0
M  V30 4635 H 436.364 -3.53509 -2.22121 0
M  V30 4636 H 437.754 -6.71335 0.275454 0
M  V30 4637 N 440.474 -0.00167713 -1.576 0
M  V30 4638 C 441.714 0.687302 -1.92498 0
M  V30 4639 C 442.078 1.70844 -0.876144 0
M  V30 4640 O 443.279 2.44792 -1.11043 0
M  V30 4641 C 441.55 1.31217 -3.32441 0
M  V30 4642 S 443.109 2.02604 -3.89226 0
M  V30 4643 H 439.927 0.226985 -0.673794 0
M  V30 4644 H 442.529 -0.0587666 -1.95412 0
M  V30 4645 H 441.233 0.556164 -4.06614 0
M  V30 4646 H 440.764 2.09613 -3.32905 0
M  V30 4647 H 442.779 3.30137 -3.70438 0
M  V30 4648 N 441.952 1.55251 0.271103 0
M  V30 4649 C 442.882 1.9127 1.33933 0
M  V30 4650 C 443.863 0.77478 1.5143 0
M  V30 4651 O 445.048 1.03307 1.64442 0
M  V30 4652 C 442.178 2.18627 2.69851 0
M  V30 4653 C 441.132 3.34442 2.67081 0
M  V30 4654 C 440.458 3.47284 4.06569 0
M  V30 4655 C 441.758 4.70784 2.26185 0
M  V30 4656 H 443.452 2.80744 1.04035 0
M  V30 4657 H 440.998 1.35077 0.499017 0
M  V30 4658 H 442.951 2.42413 3.44694 0
M  V30 4659 H 441.675 1.25955 3.01335 0
M  V30 4660 H 440.334 3.10627 1.94695 0
M  V30 4661 H 439.982 2.52074 4.35279 0
M  V30 4662 H 439.682 4.25152 4.0561 0
M  V30 4663 H 441.206 3.73363 4.83148 0
M  V30 4664 H 442.62 4.94102 2.90751 0
M  V30 4665 H 441.017 5.51582 2.36384 0
M  V30 4666 H 442.087 4.69478 1.21319 0
M  V30 4667 N 443.43 -0.535701 1.48216 0
M  V30 4668 C 444.362 -1.65662 1.58394 0
M  V30 4669 C 445.375 -1.5591 0.468607 0
M  V30 4670 O 446.564 -1.62475 0.7392 0
M  V30 4671 C 443.664 -3.04276 1.4923 0
M  V30 4672 C 442.837 -3.39567 2.75705 0
M  V30 4673 C 441.896 -4.57436 2.60075 0
M  V30 4674 O 440.922 -4.60942 3.33948 0
M  V30 4675 N 442.124 -5.55259 1.69315 0
M  V30 4676 H 444.889 -1.5737 2.55058 0
M  V30 4677 H 442.45 -0.722845 1.44867 0
M  V30 4678 H 444.442 -3.80994 1.36477 0
M  V30 4679 H 443.012 -3.06677 0.605632 0
M  V30 4680 H 442.232 -2.52083 3.03064 0
M  V30 4681 H 443.52 -3.59929 3.59623 0
M  V30 4682 H 442.918 -5.552 1.08489 0
M  V30 4683 H 441.475 -6.31218 1.62504 0
M  V30 4684 N 444.908 -1.36708 -0.784132 0
M  V30 4685 C 446.156 -1.30972 -1.53918 0
M  V30 4686 C 446.477 0.109086 -1.94695 0
M  V30 4687 O 445.747 1.05048 -1.65353 0
M  V30 4688 H 444.327 -0.481819 -0.570841 0
M  V30 4689 H 446.989 -1.71063 -0.934002 0
M  V30 4690 H 446.085 -1.94061 -2.44431 0
M  V30 4691 N 446.386 1.0089 -1.21074 0
M  V30 4692 C 447.349 2.0775 -0.968129 0
M  V30 4693 C 448.349 1.6069 0.0593445 0
M  V30 4694 O 449.539 1.73293 -0.177525 0
M  V30 4695 C 446.671 3.37794 -0.459108 0
M  V30 4696 H 447.864 2.30707 -1.9161 0
M  V30 4697 H 445.417 1.17807 -1.02719 0
M  V30 4698 H 446.152 3.20516 0.49397 0
M  V30 4699 H 445.937 3.7328 -1.20019 0
M  V30 4700 H 447.427 4.16454 -0.309099 0
M  V30 4701 N 447.864 1.01787 1.20321 0
M  V30 4702 C 449.11 0.708985 1.90003 0
M  V30 4703 C 449.443 -0.759572 1.78729 0
M  V30 4704 O 448.718 -1.55198 1.17234 0
M  V30 4705 C 449.001 1.1469 3.41348 0
M  V30 4706 C 448.854 2.67586 3.61549 0
M  V30 4707 C 450.173 0.71915 4.34185 0
M  V30 4708 H 447.292 0.259034 0.689978 0
M  V30 4709 H 449.934 1.26584 1.41692 0
M  V30 4710 H 448.084 0.673128 3.82624 0
M  V30 4711 H 449.756 3.22826 3.29517 0
M  V30 4712 H 447.999 3.085 3.04976 0
M  V30 4713 H 448.67 2.93281 4.67643 0
M  V30 4714 H 451.146 1.12647 4.00562 0
M  V30 4715 H 450.022 1.05358 5.38694 0
M  V30 4716 H 450.283 -0.379111 4.40472 0
M  V30 4717 N 449.342 -1.36122 0.79427 0
M  V30 4718 C 450.57 -2.03362 0.380989 0
M  V30 4719 C 450.985 -1.59881 -1.00416 0
M  V30 4720 O 450.342 -0.790515 -1.6449 0
M  V30 4721 C 450.393 -3.58804 0.440649 0
M  V30 4722 O 450.114 -4.007 1.77118 0
M  V30 4723 C 451.615 -4.43296 0.0186117 0
M  V30 4724 H 448.835 -0.652526 0.156367 0
M  V30 4725 H 451.379 -1.73998 1.07447 0
M  V30 4726 H 449.534 -3.8686 -0.204458 0
M  V30 4727 H 449.948 -4.95309 1.72538 0
M  V30 4728 H 451.422 -5.51887 0.111488 0
M  V30 4729 H 451.899 -4.2684 -1.03461 0
M  V30 4730 H 452.505 -4.20512 0.636395 0
M  V30 4731 N 450.82 -0.546701 -1.47814 0
M  V30 4732 C 452.048 -0.0232857 -2.06887 0
M  V30 4733 C 452.463 1.26571 -1.4009 0
M  V30 4734 O 451.82 1.7569 -0.493906 0
M  V30 4735 C 451.871 0.186975 -3.61016 0
M  V30 4736 O 451.592 -1.05097 -4.25307 0
M  V30 4737 C 453.093 0.748872 -4.36929 0
M  V30 4738 H 450.313 -0.0410763 -0.669742 0
M  V30 4739 H 452.857 -0.757117 -1.89968 0
M  V30 4740 H 451.012 0.870903 -3.77484 0
M  V30 4741 H 451.426 -0.842121 -5.17695 0
M  V30 4742 H 452.9 0.845334 -5.45489 0
M  V30 4743 H 453.377 1.75772 -4.02493 0
M  V30 4744 H 453.983 0.100979 -4.2518 0
M  V30 4745 N 452.299 1.55045 -0.282633 0
M  V30 4746 C 453.576 1.9179 0.384166 0
M  V30 4747 C 453.956 1.20778 1.73136 0
M  V30 4748 O 453.304 0.33719 2.25998 0
M  V30 4749 C 453.514 3.45149 0.517014 0
M  V30 4750 C 454.862 4.17064 0.796427 0
M  V30 4751 O 455.886 3.51084 0.601535 0
M  V30 4752 O 454.745 5.33837 1.16962 0
M  V30 4753 H 451.839 0.799483 0.211558 0
M  V30 4754 H 454.385 1.66474 -0.32934 0
M  V30 4755 H 453.157 3.88922 -0.430772 0
M  V30 4756 H 452.78 3.76443 1.2797 0
M  V30 4757 N 453.777 0.010035 1.57597 0
M  V30 4758 C 455.007 -0.682422 1.95004 0
M  V30 4759 C 455.415 -1.67278 0.884014 0
M  V30 4760 O 454.758 -1.83129 -0.144672 0
M  V30 4761 C 454.82 -1.46141 3.28456 0
M  V30 4762 C 454.484 -0.631523 4.52615 0
M  V30 4763 C 455.481 0.0850905 5.1983 0
M  V30 4764 C 453.166 -0.574539 4.99003 0
M  V30 4765 C 455.16 0.847566 6.3174 0
M  V30 4766 C 452.847 0.191655 6.10799 0
M  V30 4767 C 453.845 0.901432 6.77025 0
M  V30 4768 O 453.533 1.65511 7.86677 0
M  V30 4769 H 453.265 -0.194361 0.647456 0
M  V30 4770 H 455.819 0.060312 2.05311 0
M  V30 4771 H 454.049 -2.24885 3.14585 0
M  V30 4772 H 455.738 -2.04016 3.50902 0
M  V30 4773 H 456.504 0.0502812 4.84974 0
M  V30 4774 H 452.383 -1.11654 4.47274 0
M  V30 4775 H 455.927 1.4021 6.83364 0
M  V30 4776 H 451.824 0.228249 6.45096 0
M  V30 4777 H 452.592 1.57287 8.03245 0
M  V30 4778 N 455.255 -1.55392 -0.262866 0
M  V30 4779 C 456.218 -1.88181 -1.30846 0
M  V30 4780 C 457.218 -0.757079 -1.41862 0
M  V30 4781 O 458.408 -1.02519 -1.40838 0
M  V30 4782 C 455.54 -2.09609 -2.68844 0
M  V30 4783 H 456.733 -2.81659 -1.02997 0
M  V30 4784 H 454.286 -1.48039 -0.501414 0
M  V30 4785 H 455.021 -1.18547 -3.01856 0
M  V30 4786 H 454.806 -2.91508 -2.62231 0
M  V30 4787 H 456.296 -2.36215 -3.44372 0
M  V30 4788 N 456.733 0.527833 -1.48498 0
M  V30 4789 C 457.696 1.61439 -1.62696 0
M  V30 4790 C 458.696 1.52824 -0.500136 0
M  V30 4791 O 459.886 1.56456 -0.765976 0
M  V30 4792 C 457.018 3.01063 -1.59918 0
M  V30 4793 H 458.211 1.50189 -2.59583 0
M  V30 4794 H 455.764 0.750055 -1.37127 0
M  V30 4795 H 456.499 3.17818 -0.645163 0
M  V30 4796 H 456.284 3.08725 -2.41726 0
M  V30 4797 H 457.774 3.80057 -1.73051 0
M  V30 4798 N 458.211 1.37122 0.776871 0
M  V30 4799 C 459.459 1.31787 1.53221 0
M  V30 4800 C 459.78 -0.0987589 1.9475 0
M  V30 4801 O 459.05 -1.0417 1.65908 0
M  V30 4802 H 457.63 0.484839 0.568278 0
M  V30 4803 H 460.292 1.71556 0.924917 0
M  V30 4804 H 459.388 1.95355 2.43398 0
M  V30 4805 N 459.689 -1.00246 1.21608 0
M  V30 4806 C 460.622 -2.08794 0.920892 0
M  V30 4807 C 461.6 -1.62059 -0.132552 0
M  V30 4808 O 462.784 -1.885 -0.0030366 0
M  V30 4809 C 459.911 -3.36525 0.383226 0
M  V30 4810 C 458.957 -4.02172 1.41987 0
M  V30 4811 S 459.79 -4.44256 2.98994 0
M  V30 4812 C 460.946 -5.7517 2.4684 0
M  V30 4813 H 461.179 -2.33511 1.8401 0
M  V30 4814 H 458.712 -1.13562 1.04609 0
M  V30 4815 H 460.67 -4.10423 0.0795871 0
M  V30 4816 H 459.331 -3.09854 -0.514711 0
M  V30 4817 H 458.524 -4.94114 0.993335 0
M  V30 4818 H 458.126 -3.34559 1.67171 0
M  V30 4819 H 460.418 -6.51042 1.87484 0
M  V30 4820 H 461.361 -6.22638 3.37235 0
M  V30 4821 H 461.769 -5.32112 1.88461 0
M  V30 4822 N 461.167 -1.02423 -1.1978 0
M  V30 4823 C 462.13 -0.605703 -2.21052 0
M  V30 4824 C 463.13 0.328209 -1.57415 0
M  V30 4825 O 464.32 0.115853 -1.73814 0
M  V30 4826 C 461.452 0.114366 -3.40708 0
M  V30 4827 H 462.645 -1.5017 -2.59594 0
M  V30 4828 H 460.198 -0.814888 -1.33376 0
M  V30 4829 H 460.933 1.02492 -3.07678 0
M  V30 4830 H 460.718 -0.556641 -3.88129 0
M  V30 4831 H 462.208 0.394272 -4.15735 0
M  V30 4832 N 462.645 1.35699 -0.801477 0
M  V30 4833 C 463.578 2.2768 -0.153922 0
M  V30 4834 C 464.556 1.47832 0.67709 0
M  V30 4835 O 465.74 1.77104 0.645474 0
M  V30 4836 C 462.867 3.2943 0.786986 0
M  V30 4837 C 461.913 4.26485 0.0362447 0
M  V30 4838 S 462.746 5.19573 -1.2963 0
M  V30 4839 C 463.902 6.24866 -0.359705 0
M  V30 4840 H 464.135 2.82254 -0.9338 0
M  V30 4841 H 461.668 1.42421 -0.596283 0
M  V30 4842 H 463.626 3.8855 1.32436 0
M  V30 4843 H 462.287 2.73745 1.54021 0
M  V30 4844 H 461.48 4.98378 0.750668 0
M  V30 4845 H 461.082 3.71508 -0.431017 0
M  V30 4846 H 463.374 6.75957 0.456954 0
M  V30 4847 H 464.317 7.00307 -1.04768 0
M  V30 4848 H 464.725 5.64484 0.0423274 0
M  V30 4849 N 464.123 0.554532 1.47522 0
M  V30 4850 C 465.086 -0.184174 2.28459 0
M  V30 4851 C 466.086 -0.845195 1.36796 0
M  V30 4852 O 467.276 -0.701467 1.59452 0
M  V30 4853 C 464.408 -1.26903 3.16399 0
M  V30 4854 H 465.601 0.526751 2.95238 0
M  V30 4855 H 463.154 0.311375 1.53167 0
M  V30 4856 H 463.889 -2.01244 2.54306 0
M  V30 4857 H 463.674 -0.799883 3.83854 0
M  V30 4858 H 465.164 -1.78794 3.77389 0
M  V30 4859 N 465.601 -1.54893 0.290851 0
M  V30 4860 C 466.849 -1.99538 -0.320756 0
M  V30 4861 C 467.17 -1.18075 -1.55188 0
M  V30 4862 O 466.44 -0.274162 -1.93972 0
M  V30 4863 H 465.02 -0.737052 -0.121507 0
M  V30 4864 H 467.682 -1.90755 0.399832 0
M  V30 4865 H 466.778 -3.06282 -0.599802 0
M  V30 4866 N 467.08 -0.0183926 -1.57589 0
M  V30 4867 C 468.043 0.951986 -2.08494 0
M  V30 4868 C 469.043 1.26092 -0.997874 0
M  V30 4869 O 470.233 1.20304 -1.25987 0
M  V30 4870 C 467.365 2.27165 -2.54182 0
M  V30 4871 H 468.558 0.511307 -2.95509 0
M  V30 4872 H 466.111 0.229444 -1.54607 0
M  V30 4873 H 466.846 2.75884 -1.70465 0
M  V30 4874 H 466.631 2.06057 -3.33591 0
M  V30 4875 H 468.121 2.9674 -2.93828 0
M  V30 4876 N 468.558 1.5553 0.254621 0
M  V30 4877 C 469.806 1.7665 0.981793 0
M  V30 4878 C 470.127 0.580963 1.86145 0
M  V30 4879 O 469.397 -0.403537 1.91699 0
M  V30 4880 H 467.977 0.651475 0.365498 0
M  V30 4881 H 470.639 1.92958 0.274426 0
M  V30 4882 H 469.735 2.67486 1.60802 0
M  V30 4883 N 470.036 -0.519951 1.48776 0
M  V30 4884 C 471.282 -1.27711 1.57536 0
M  V30 4885 C 471.615 -1.92547 0.252866 0
M  V30 4886 O 470.89 -1.7979 -0.742021 0
M  V30 4887 C 471.173 -2.35875 2.72094 0
M  V30 4888 C 471.026 -1.75664 4.1408 0
M  V30 4889 C 472.345 -3.37575 2.82367 0
M  V30 4890 H 469.464 -0.462971 0.573434 0
M  V30 4891 H 472.106 -0.578194 1.80989 0
M  V30 4892 H 470.256 -2.95488 2.52228 0
M  V30 4893 H 471.928 -1.20025 4.45412 0
M  V30 4894 H 470.171 -1.06154 4.20611 0
M  V30 4895 H 470.842 -2.54029 4.90075 0
M  V30 4896 H 473.318 -2.87929 3.00393 0
M  V30 4897 H 472.194 -4.1064 3.64233 0
M  V30 4898 H 472.455 -3.98743 1.90936 0
M  V30 4899 N 471.514 -1.37532 -0.769588 0
M  V30 4900 C 472.763 -1.32183 -1.5235 0
M  V30 4901 C 473.076 0.0906555 -1.9539 0
M  V30 4902 O 474.282 0.266628 -2.70188 0
M  V30 4903 C 472.738 -2.32029 -2.75119 0
M  V30 4904 C 472.346 -3.78816 -2.3917 0
M  V30 4905 C 474.09 -2.35694 -3.53056 0
M  V30 4906 C 471.997 -4.70388 -3.58453 0
M  V30 4907 H 470.927 -0.491275 -0.571984 0
M  V30 4908 H 473.578 -1.63004 -0.842739 0
M  V30 4909 H 471.96 -1.94229 -3.45096 0
M  V30 4910 H 473.134 -4.25466 -1.76962 0
M  V30 4911 H 471.449 -3.78117 -1.74402 0
M  V30 4912 H 474.046 -3.01312 -4.41718 0
M  V30 4913 H 474.389 -1.37117 -3.93071 0
M  V30 4914 H 474.922 -2.72212 -2.90078 0
M  V30 4915 H 471.661 -5.70102 -3.23518 0
M  V30 4916 H 471.181 -4.28442 -4.19758 0
M  V30 4917 H 472.86 -4.87628 -4.25239 0
M  V30 4918 N 472.992 0.995999 -1.22138 0
M  V30 4919 C 474.217 1.77601 -1.0711 0
M  V30 4920 C 474.642 1.84339 0.374264 0
M  V30 4921 O 474 1.29359 1.27028 0
M  V30 4922 C 474.048 3.18897 -1.68336 0
M  V30 4923 O 473.152 4.01663 -0.934928 0
M  V30 4924 H 472.493 0.547011 -0.376397 0
M  V30 4925 H 475.023 1.25137 -1.6187 0
M  V30 4926 H 475.033 3.69539 -1.72931 0
M  V30 4927 H 473.708 3.13308 -2.73516 0
M  V30 4928 H 472.285 3.60204 -0.964751 0
M  V30 4929 N 474.47 1.03057 1.19235 0
M  V30 4930 C 475.718 0.726581 1.88587 0
M  V30 4931 C 476.039 -0.747227 1.80115 0
M  V30 4932 O 475.309 -1.53849 1.21274 0
M  V30 4933 H 473.889 0.265768 0.698124 0
M  V30 4934 H 476.551 1.30516 1.44746 0
M  V30 4935 H 475.647 1.0224 2.94879 0
M  V30 4936 N 475.948 -1.35272 0.808662 0
M  V30 4937 C 477.195 -1.98709 0.390003 0
M  V30 4938 C 477.523 -1.64148 -1.04335 0
M  V30 4939 O 476.778 -0.897797 -1.73891 0
M  V30 4940 C 477.077 -3.53556 0.522798 0
M  V30 4941 C 476.743 -4.0799 1.91977 0
M  V30 4942 C 475.405 -4.22568 2.30195 0
M  V30 4943 C 477.757 -4.37442 2.83361 0
M  V30 4944 C 475.085 -4.63918 3.59162 0
M  V30 4945 C 477.437 -4.80232 4.11776 0
M  V30 4946 C 476.101 -4.93016 4.49991 0
M  V30 4947 H 475.371 -0.727127 0.142712 0
M  V30 4948 H 478.018 -1.6145 1.02985 0
M  V30 4949 H 476.323 -3.91287 -0.200494 0
M  V30 4950 H 478.02 -4.00598 0.179608 0
M  V30 4951 H 474.61 -3.97096 1.61284 0
M  V30 4952 H 478.794 -4.25731 2.55083 0
M  V30 4953 H 474.05 -4.72005 3.88615 0
M  V30 4954 H 478.224 -5.01982 4.82687 0
M  V30 4955 H 475.851 -5.24814 5.49976 0
M  V30 4956 N 477.426 -0.562348 -1.47226 0
M  V30 4957 C 478.703 0.0256985 -1.95583 0
M  V30 4958 C 479.083 1.48032 -1.50498 0
M  V30 4959 O 478.431 2.15973 -0.746181 0
M  V30 4960 C 478.641 -0.125129 -3.48776 0
M  V30 4961 C 479.989 0.0175728 -4.24596 0
M  V30 4962 O 481.013 -0.0529341 -3.56161 0
M  V30 4963 O 479.872 0.170145 -5.46235 0
M  V30 4964 H 476.966 0.0612565 -0.824728 0
M  V30 4965 H 479.512 -0.629233 -1.57603 0
M  V30 4966 H 478.284 -1.13715 -3.74412 0
M  V30 4967 H 477.907 0.567178 -3.93534 0
M  V30 4968 N 478.904 1.54736 -0.299062 0
M  V30 4969 C 479.837 2.1962 0.619851 0
M  V30 4970 C 480.815 1.16496 1.13434 0
M  V30 4971 O 481.999 1.4513 1.2029 0
M  V30 4972 C 479.126 2.8385 1.84788 0
M  V30 4973 C 478.172 4.00484 1.46679 0
M  V30 4974 S 479.005 5.32926 0.524389 0
M  V30 4975 C 480.161 6.00638 1.76026 0
M  V30 4976 H 480.394 2.97221 0.0686177 0
M  V30 4977 H 477.927 1.54176 -0.0832085 0
M  V30 4978 H 479.885 3.21483 2.55263 0
M  V30 4979 H 478.546 2.06099 2.37028 0
M  V30 4980 H 477.739 4.44201 2.38121 0
M  V30 4981 H 477.341 3.64398 0.842008 0
M  V30 4982 H 479.633 6.21327 2.70109 0
M  V30 4983 H 480.576 6.94805 1.36569 0
M  V30 4984 H 480.984 5.3026 1.93609 0
M  V30 4985 N 480.382 0.0267497 1.57577 0
M  V30 4986 C 481.61 -0.662661 1.96001 0
M  V30 4987 C 482.025 -1.65799 0.903117 0
M  V30 4988 O 481.382 -1.82135 -0.115317 0
M  V30 4989 C 481.433 -1.37112 3.34488 0
M  V30 4990 O 481.154 -0.415683 4.36123 0
M  V30 4991 C 482.655 -2.15257 3.8753 0
M  V30 4992 H 479.875 -0.18287 0.6456 0
M  V30 4993 H 482.419 0.0858116 2.0432 0
M  V30 4994 H 480.574 -2.07101 3.27395 0
M  V30 4995 H 480.988 -0.918496 5.16395 0
M  V30 4996 H 482.462 -2.60285 4.86781 0
M  V30 4997 H 482.939 -2.99063 3.21649 0
M  V30 4998 H 483.545 -1.50231 3.97883 0
M  V30 4999 N 481.861 -1.55662 -0.24637 0
M  V30 5000 C 483.086 -1.81914 -0.996093 0
M  V30 5001 C 483.511 -0.603875 -1.78143 0
M  V30 5002 O 482.869 0.447091 -1.75701 0
M  V30 5003 C 482.917 -3.05908 -1.90925 0
M  V30 5004 O 482.021 -2.82861 -3.00105 0
M  V30 5005 H 481.362 -0.600481 -0.283406 0
M  V30 5006 H 483.892 -2.02848 -0.267199 0
M  V30 5007 H 483.902 -3.35356 -2.3238 0
M  V30 5008 H 482.577 -3.93999 -1.33183 0
M  V30 5009 H 481.154 -2.64583 -2.62775 0
M  V30 5010 N 483.339 0.512053 -1.4905 0
M  V30 5011 C 484.249 1.64139 -1.67617 0
M  V30 5012 C 485.265 1.64786 -0.558701 0
M  V30 5013 O 486.441 1.8341 -0.832034 0
M  V30 5014 C 483.506 3.00548 -1.72835 0
M  V30 5015 C 482.567 3.10615 -2.96339 0
M  V30 5016 C 481.8 4.40517 -3.01298 0
M  V30 5017 O 482.023 5.28671 -2.14157 0
M  V30 5018 O 480.957 4.55325 -3.93653 0
M  V30 5019 H 484.783 1.51407 -2.63267 0
M  V30 5020 H 482.368 0.687131 -1.32661 0
M  V30 5021 H 484.25 3.81641 -1.78683 0
M  V30 5022 H 482.925 3.13566 -0.803616 0
M  V30 5023 H 481.832 2.2875 -2.96014 0
M  V30 5024 H 483.165 3.0252 -3.88256 0
M  V30 5025 N 484.817 1.37938 0.762283 0
M  V30 5026 C 485.78 1.34279 1.85747 0
M  V30 5027 C 486.78 0.244969 1.58923 0
M  V30 5028 O 487.97 0.501365 1.66829 0
M  V30 5029 C 485.102 1.08833 3.23061 0
M  V30 5030 H 486.295 2.31705 1.90401 0
M  V30 5031 H 483.848 1.23105 0.963057 0
M  V30 5032 H 484.583 0.119767 3.24079 0
M  V30 5033 H 484.368 1.88306 3.43923 0
M  V30 5034 H 485.858 1.08946 4.03138 0
M  V30 5035 N 486.295 -0.989507 1.22664 0
M  V30 5036 C 487.258 -2.06183 1.00106 0
M  V30 5037 C 488.258 -1.60765 -0.0337726 0
M  V30 5038 O 489.448 -1.72989 0.205072 0
M  V30 5039 C 486.58 -3.37021 0.51279 0
M  V30 5040 H 487.773 -2.27629 1.95256 0
M  V30 5041 H 485.326 -1.16158 1.0458 0
M  V30 5042 H 486.061 -3.21261 -0.442917 0
M  V30 5043 H 485.846 -3.71323 1.25942 0
M  V30 5044 H 487.336 -4.1591 0.375315 0
M  V30 5045 N 487.773 -1.03688 -1.18687 0
M  V30 5046 C 488.703 -0.645407 -2.24403 0
M  V30 5047 C 489.684 0.349511 -1.66471 0
M  V30 5048 O 490.869 0.230453 -1.92828 0
M  V30 5049 C 487.999 -0.00365337 -3.473 0
M  V30 5050 C 486.953 -0.921705 -4.17958 0
M  V30 5051 C 486.279 -0.144629 -5.34504 0
M  V30 5052 C 487.579 -2.23909 -4.71871 0
M  V30 5053 H 489.273 -1.52917 -2.57404 0
M  V30 5054 H 486.819 -0.736711 -1.23728 0
M  V30 5055 H 488.772 0.281908 -4.20456 0
M  V30 5056 H 487.496 0.914963 -3.13522 0
M  V30 5057 H 486.155 -1.19159 -3.46694 0
M  V30 5058 H 485.803 0.776274 -4.96974 0
M  V30 5059 H 485.503 -0.756206 -5.82714 0
M  V30 5060 H 487.027 0.134004 -6.10453 0
M  V30 5061 H 488.441 -2.0145 -5.36741 0
M  V30 5062 H 486.838 -2.8033 -5.30599 0
M  V30 5063 H 487.908 -2.88822 -3.895 0
M  V30 5064 N 489.251 1.34841 -0.815825 0
M  V30 5065 C 490.214 2.27959 -0.238185 0
M  V30 5066 C 491.214 1.49983 0.579816 0
M  V30 5067 O 492.404 1.69617 0.396953 0
M  V30 5068 C 489.536 3.34314 0.666876 0
M  V30 5069 H 490.729 2.80558 -1.05958 0
M  V30 5070 H 488.282 1.44852 -0.587156 0
M  V30 5071 H 489.017 2.86916 1.5116 0
M  V30 5072 H 488.802 3.92014 0.0819106 0
M  V30 5073 H 490.292 4.0379 1.06506 0
M  V30 5074 N 490.729 0.570148 1.46925 0
M  V30 5075 C 491.676 -0.170257 2.30171 0
M  V30 5076 C 492.646 -0.896099 1.39855 0
M  V30 5077 O 493.831 -0.889248 1.68811 0
M  V30 5078 C 490.971 -1.18605 3.24079 0
M  V30 5079 C 490.084 -0.464947 4.29491 0
M  V30 5080 C 489.219 -1.46716 5.10537 0
M  V30 5081 C 488.258 -0.731758 6.0771 0
M  V30 5082 N 487.395 -1.68142 6.81669 0
M  V30 5083 H 492.235 0.545713 2.92961 0
M  V30 5084 H 489.772 0.280938 1.44392 0
M  V30 5085 H 491.73 -1.78771 3.76957 0
M  V30 5086 H 490.36 -1.86989 2.63125 0
M  V30 5087 H 489.412 0.251506 3.79568 0
M  V30 5088 H 490.724 0.110548 4.98677 0
M  V30 5089 H 489.878 -2.14199 5.6763 0
M  V30 5090 H 488.617 -2.07658 4.41282 0
M  V30 5091 H 487.622 -0.0430787 5.49783 0
M  V30 5092 H 488.847 -0.127904 6.7898 0
M  V30 5093 H 486.793 -2.27918 6.15134 0
M  V30 5094 H 486.71 -1.15841 7.47072 0
M  V30 5095 H 487.978 -2.347 7.43328 0
M  V30 5096 N 492.207 -1.54576 0.307264 0
M  V30 5097 C 493.137 -2.26708 -0.55907 0
M  V30 5098 C 494.118 -1.26893 -1.1328 0
M  V30 5099 O 495.303 -1.55677 -1.16097 0
M  V30 5100 C 492.433 -3.01259 -1.72801 0
M  V30 5101 C 491.387 -4.08275 -1.28435 0
M  V30 5102 C 490.713 -4.70575 -2.53895 0
M  V30 5103 C 492.013 -5.2068 -0.411038 0
M  V30 5104 H 493.707 -2.9937 0.042576 0
M  V30 5105 H 491.253 -1.43983 0.0219173 0
M  V30 5106 H 493.206 -3.50444 -2.34023 0
M  V30 5107 H 491.93 -2.26187 -2.356 0
M  V30 5108 H 490.589 -3.59949 -0.695161 0
M  V30 5109 H 490.237 -3.92136 -3.15021 0
M  V30 5110 H 489.937 -5.42854 -2.24908 0
M  V30 5111 H 491.461 -5.22527 -3.15908 0
M  V30 5112 H 492.875 -5.65721 -0.929097 0
M  V30 5113 H 491.272 -5.99716 -0.214664 0
M  V30 5114 H 492.342 -4.81629 0.562287 0
M  V30 5115 N 493.685 -0.035106 -1.57561 0
M  V30 5116 C 494.91 0.655802 -1.96759 0
M  V30 5117 C 495.335 1.64523 -0.911809 0
M  V30 5118 O 494.693 1.80857 0.126673 0
M  V30 5119 C 494.741 1.33326 -3.35047 0
M  V30 5120 O 493.845 2.44866 -3.31835 0
M  V30 5121 H 493.186 0.171807 -0.641388 0
M  V30 5122 H 495.716 -0.0987369 -2.04362 0
M  V30 5123 H 495.726 1.68867 -3.71413 0
M  V30 5124 H 494.401 0.608033 -4.11431 0
M  V30 5125 H 492.978 2.11392 -3.07193 0
M  V30 5126 N 495.163 1.55791 0.238111 0
M  V30 5127 C 496.393 1.81834 0.980809 0
M  V30 5128 C 496.801 0.609741 1.79106 0
M  V30 5129 O 496.144 -0.431073 1.78571 0
M  V30 5130 C 496.206 3.01363 1.96011 0
M  V30 5131 C 495.87 4.37037 1.33597 0
M  V30 5132 C 496.867 5.14692 0.734063 0
M  V30 5133 C 494.552 4.83743 1.3527 0
M  V30 5134 C 496.546 6.37206 0.157208 0
M  V30 5135 C 494.233 6.06204 0.77199 0
M  V30 5136 C 495.231 6.82775 0.175282 0
M  V30 5137 O 494.919 8.02922 -0.396432 0
M  V30 5138 H 494.651 0.6088 0.293834 0
M  V30 5139 H 497.205 2.03702 0.263552 0
M  V30 5140 H 495.435 2.75273 2.71591 0
M  V30 5141 H 497.124 3.14422 2.56697 0
M  V30 5142 H 497.89 4.79722 0.713582 0
M  V30 5143 H 493.769 4.24129 1.80653 0
M  V30 5144 H 497.313 6.96915 -0.30917 0
M  V30 5145 H 493.21 6.4065 0.789828 0
M  V30 5146 H 493.978 8.17989 -0.289145 0
M  V30 5147 N 496.642 -0.504142 1.49319 0
M  V30 5148 C 497.888 -1.26033 1.58882 0
M  V30 5149 C 498.221 -1.92268 0.273274 0
M  V30 5150 O 497.496 -1.80567 -0.72291 0
M  V30 5151 C 497.779 -2.32976 2.7458 0
M  V30 5152 C 497.632 -1.71263 4.1592 0
M  V30 5153 C 498.951 -3.34561 2.85932 0
M  V30 5154 H 496.07 -0.456863 0.578312 0
M  V30 5155 H 498.712 -0.558965 1.81592 0
M  V30 5156 H 496.862 -2.92796 2.55348 0
M  V30 5157 H 498.534 -1.15294 4.4666 0
M  V30 5158 H 496.777 -1.01686 4.21714 0
M  V30 5159 H 497.448 -2.48816 4.92742 0
M  V30 5160 H 499.924 -2.84727 3.0343 0
M  V30 5161 H 498.8 -4.06754 3.68568 0
M  V30 5162 H 499.061 -3.96695 1.95154 0
M  V30 5163 N 498.12 -1.38341 -0.754957 0
M  V30 5164 C 499.05 -1.38176 -1.88227 0
M  V30 5165 C 500.031 -0.247873 -1.68284 0
M  V30 5166 O 501.216 -0.45075 -1.88896 0
M  V30 5167 C 498.346 -1.20471 -3.25736 0
M  V30 5168 C 497.3 -2.3105 -3.60278 0
M  V30 5169 C 496.626 -1.98452 -4.96509 0
M  V30 5170 C 497.926 -3.73305 -3.65295 0
M  V30 5171 H 499.62 -2.32512 -1.88622 0
M  V30 5172 H 497.166 -1.1192 -0.906082 0
M  V30 5173 H 499.119 -1.18982 -4.04254 0
M  V30 5174 H 497.843 -0.225965 -3.25817 0
M  V30 5175 H 496.502 -2.31723 -2.84078 0
M  V30 5176 H 496.15 -0.990641 -4.93148 0
M  V30 5177 H 495.85 -2.7251 -5.20588 0
M  V30 5178 H 497.374 -1.98578 -5.77407 0
M  V30 5179 H 498.788 -3.7467 -4.3393 0
M  V30 5180 H 497.185 -4.46557 -4.00883 0
M  V30 5181 H 498.255 -4.05719 -2.65556 0
M  V30 5182 N 499.598 0.982988 -1.23187 0
M  V30 5183 C 500.846 1.72052 -1.06031 0
M  V30 5184 C 501.167 1.90769 0.404019 0
M  V30 5185 O 500.437 1.47446 1.28982 0
M  V30 5186 H 499.017 0.637499 -0.389363 0
M  V30 5187 H 501.679 1.18338 -1.54862 0
M  V30 5188 H 500.775 2.7111 -1.54615 0
M  V30 5189 N 501.076 1.04316 1.18135 0
M  V30 5190 C 502.008 0.594444 2.21357 0
M  V30 5191 C 503.021 -0.337215 1.59269 0
M  V30 5192 O 504.21 -0.131337 1.78016 0
M  V30 5193 C 501.31 -0.151251 3.38562 0
M  V30 5194 C 500.483 0.788907 4.30227 0
M  V30 5195 C 499.542 0.0860572 5.2613 0
M  V30 5196 O 498.568 0.717302 5.64662 0
M  V30 5197 N 499.77 -1.17969 5.68387 0
M  V30 5198 H 502.535 1.48227 2.60478 0
M  V30 5199 H 500.096 0.92396 1.32946 0
M  V30 5200 H 502.088 -0.631352 3.99745 0
M  V30 5201 H 500.658 -0.940639 2.98112 0
M  V30 5202 H 499.878 1.44882 3.6661 0
M  V30 5203 H 501.166 1.42738 4.88368 0
M  V30 5204 H 500.564 -1.71302 5.3914 0
M  V30 5205 H 499.121 -1.60402 6.31755 0
M  V30 5206 N 502.554 -1.34406 0.822964 0
M  V30 5207 C 503.965 -1.8069 0.469879 0
M  V30 5208 C 504.316 -1.68223 -1.00972 0
M  V30 5209 O 503.441 -1.22226 -1.78577 0
M  V30 5210 C 504.036 -3.28064 0.846118 0
M  V30 5211 C 502.595 -3.72428 0.545402 0
M  V30 5212 C 501.742 -2.56116 1.06301 0
M  V30 5213 H 504.693 -1.22153 1.01313 0
M  V30 5214 H 504.714 -3.80205 0.149922 0
M  V30 5215 H 504.226 -3.37107 1.92304 0
M  V30 5216 H 502.327 -3.68924 -0.522109 0
M  V30 5217 H 502.44 -4.66548 1.0895 0
M  V30 5218 H 500.804 -2.50048 0.484554 0
M  V30 5219 H 501.587 -2.67928 2.14638 0
M  V30 5220 N 504.032 -0.577932 -1.46621 0
M  V30 5221 C 505.28 -0.061566 -2.02006 0
M  V30 5222 C 505.601 1.30117 -1.4524 0
M  V30 5223 O 504.871 1.85313 -0.63529 0
M  V30 5224 H 503.451 -0.0197692 -0.746738 0
M  V30 5225 H 506.113 -0.752631 -1.79782 0
M  V30 5226 H 505.209 0.0110238 -3.12098 0
M  V30 5227 N 505.51 1.54411 -0.315457 0
M  V30 5228 C 506.44 2.27002 0.547039 0
M  V30 5229 C 507.421 1.27492 1.12605 0
M  V30 5230 O 508.606 1.5629 1.15269 0
M  V30 5231 C 505.736 3.02171 1.71201 0
M  V30 5232 C 504.69 4.0895 1.26268 0
M  V30 5233 C 504.016 4.71915 2.51396 0
M  V30 5234 C 505.316 5.20891 0.383419 0
M  V30 5235 H 507.01 2.99343 -0.0584517 0
M  V30 5236 H 504.556 1.4397 -0.0295527 0
M  V30 5237 H 506.509 3.51681 2.32161 0
M  V30 5238 H 505.233 2.27433 2.34397 0
M  V30 5239 H 503.892 3.60312 0.676062 0
M  V30 5240 H 503.54 3.93801 3.12937 0
M  V30 5241 H 503.24 5.44039 2.22026 0
M  V30 5242 H 504.764 5.24195 3.13133 0
M  V30 5243 H 506.178 5.66206 0.899082 0
M  V30 5244 H 504.575 5.99821 0.182857 0
M  V30 5245 H 505.645 4.81324 -0.587821 0
M  V30 5246 N 506.988 0.0434614 1.5754 0
M  V30 5247 C 508.213 -0.645358 1.97104 0
M  V30 5248 C 508.638 -1.64037 0.920521 0
M  V30 5249 O 507.996 -1.80922 -0.11708 0
M  V30 5250 C 508.044 -1.31547 3.35749 0
M  V30 5251 O 507.148 -2.43103 3.33129 0
M  V30 5252 H 506.489 -0.168403 0.64229 0
M  V30 5253 H 509.019 0.109573 2.04306 0
M  V30 5254 H 509.029 -1.66895 3.72304 0
M  V30 5255 H 507.704 -0.586205 4.11748 0
M  V30 5256 H 506.281 -2.0976 3.0831 0
M  V30 5257 N 508.466 -1.55915 -0.229846 0
M  V30 5258 C 509.396 -1.94754 -1.28815 0
M  V30 5259 C 510.377 -0.814657 -1.49323 0
M  V30 5260 O 511.562 -1.07631 -1.61645 0
M  V30 5261 C 508.692 -2.25705 -2.63959 0
M  V30 5262 C 507.646 -3.41406 -2.5812 0
M  V30 5263 C 506.972 -3.57941 -3.97218 0
M  V30 5264 C 508.272 -4.76616 -2.13623 0
M  V30 5265 H 509.966 -2.83404 -0.965547 0
M  V30 5266 H 507.512 -1.36353 -0.463028 0
M  V30 5267 H 509.465 -2.51467 -3.38146 0
M  V30 5268 H 508.189 -1.339 -2.9789 0
M  V30 5269 H 506.848 -3.1568 -1.86391 0
M  V30 5270 H 506.496 -2.63526 -4.28443 0
M  V30 5271 H 506.196 -4.35757 -3.94195 0
M  V30 5272 H 507.72 -3.86042 -4.73079 0
M  V30 5273 H 509.134 -5.01637 -2.77549 0
M  V30 5274 H 507.531 -5.57655 -2.21677 0
M  V30 5275 H 508.601 -4.7253 -1.08829 0
M  V30 5276 N 509.944 0.496216 -1.49584 0
M  V30 5277 C 511.221 1.25755 -1.49816 0
M  V30 5278 C 511.601 2.09859 -0.228572 0
M  V30 5279 O 510.949 2.14449 0.788908 0
M  V30 5280 C 511.159 2.11017 -2.7798 0
M  V30 5281 C 512.507 2.70047 -3.27658 0
M  V30 5282 O 513.531 2.21281 -2.79129 0
M  V30 5283 O 512.39 3.58834 -4.1219 0
M  V30 5284 H 509.484 0.569322 -0.599834 0
M  V30 5285 H 512.03 0.510094 -1.61852 0
M  V30 5286 H 510.802 1.48879 -3.61871 0
M  V30 5287 H 510.425 2.92947 -2.68827 0
M  V30 5288 N 511.423 1.38739 0.74761 0
M  V30 5289 C 512.669 1.35475 1.50912 0
M  V30 5290 C 513.002 -0.0533093 1.94127 0
M  V30 5291 O 512.277 -1.01572 1.65871 0
M  V30 5292 C 512.56 2.31582 2.75757 0
M  V30 5293 C 512.413 3.81274 2.38642 0
M  V30 5294 C 513.732 2.25722 3.77806 0
M  V30 5295 H 510.851 0.493427 0.547447 0
M  V30 5296 H 513.493 1.69634 0.855823 0
M  V30 5297 H 511.643 2.02582 3.31501 0
M  V30 5298 H 513.315 4.20972 1.88626 0
M  V30 5299 H 511.558 3.98664 1.71025 0
M  V30 5300 H 512.229 4.4399 3.27989 0
M  V30 5301 H 514.705 2.51336 3.31616 0
M  V30 5302 H 513.581 2.95069 4.62845 0
M  V30 5303 H 513.842 1.25803 4.23823 0
M  V30 5304 N 512.901 -0.976442 1.23707 0
M  V30 5305 C 514.317 -1.24341 1.00058 0
M  V30 5306 C 514.517 -1.99315 -0.295932 0
M  V30 5307 O 513.573 -2.3123 -1.01435 0
M  V30 5308 C 514.886 -2.03909 2.21001 0
M  V30 5309 C 516.434 -2.17034 2.25534 0
M  V30 5310 C 516.909 -2.99994 3.46075 0
M  V30 5311 N 518.4 -3.07578 3.46338 0
M  V30 5312 C 519.135 -3.72104 4.36264 0
M  V30 5313 N 518.631 -4.3842 5.36432 0
M  V30 5314 N 520.424 -3.69029 4.23998 0
M  V30 5315 H 512.575 -0.47428 2.07037 0
M  V30 5316 H 514.838 -0.272167 0.908091 0
M  V30 5317 H 514.544 -1.56198 3.15111 0
M  V30 5318 H 514.418 -3.04654 2.22409 0
M  V30 5319 H 516.805 -2.63951 1.31961 0
M  V30 5320 H 516.886 -1.15664 2.28156 0
M  V30 5321 H 516.53 -2.53772 4.39957 0
M  V30 5322 H 516.46 -4.01541 3.40694 0
M  V30 5323 H 518.951 -2.60397 2.73865 0
M  V30 5324 H 519.264 -4.85447 6.013 0
M  V30 5325 H 517.609 -4.37116 5.40328 0
M  V30 5326 H 520.8 -3.16392 3.44984 0
M  V30 5327 H 520.973 -4.19034 4.94282 0
M  V30 5328 N 514.379 -1.04941 -1.1758 0
M  V30 5329 C 515.326 -0.648155 -2.21512 0
M  V30 5330 C 516.296 0.348431 -1.62404 0
M  V30 5331 O 517.481 0.240419 -1.89279 0
M  V30 5332 C 514.621 -0.0264291 -3.4509 0
M  V30 5333 C 513.734 -1.07154 -4.185 0
M  V30 5334 C 512.869 -0.417403 -5.29558 0
M  V30 5335 C 511.908 -1.447 -5.94751 0
M  V30 5336 N 511.045 -0.817203 -6.97328 0
M  V30 5337 H 515.885 -1.53891 -2.55189 0
M  V30 5338 H 513.422 -0.769699 -1.25356 0
M  V30 5339 H 515.38 0.351456 -4.15717 0
M  V30 5340 H 514.01 0.827802 -3.12005 0
M  V30 5341 H 513.062 -1.56728 -3.46613 0
M  V30 5342 H 514.374 -1.8532 -4.63096 0
M  V30 5343 H 513.528 0.0142061 -6.06698 0
M  V30 5344 H 512.267 0.396265 -4.86087 0
M  V30 5345 H 511.272 -1.88865 -5.16343 0
M  V30 5346 H 512.497 -2.26252 -6.40302 0
M  V30 5347 H 510.443 -0.0239995 -6.55996 0
M  V30 5348 H 510.36 -1.53644 -7.40223 0
M  V30 5349 H 511.628 -0.410283 -7.7842 0
M  V30 5350 N 515.857 1.33968 -0.830081 0
M  V30 5351 C 516.767 2.33164 -0.259207 0
M  V30 5352 C 517.783 1.62951 0.610164 0
M  V30 5353 O 518.959 1.94668 0.516369 0
M  V30 5354 C 516.024 3.42088 0.563598 0
M  V30 5355 C 515.085 4.28037 -0.329014 0
M  V30 5356 C 514.318 5.3176 0.454616 0
M  V30 5357 O 514.541 5.44876 1.6872 0
M  V30 5358 O 513.475 6.01669 -0.166794 0
M  V30 5359 H 517.301 2.83832 -1.08041 0
M  V30 5360 H 514.886 1.37154 -0.59239 0
M  V30 5361 H 516.768 4.08581 1.03147 0
M  V30 5362 H 515.443 2.93651 1.36201 0
M  V30 5363 H 514.35 3.64443 -0.844538 0
M  V30 5364 H 515.683 4.79934 -1.09196 0
M  V30 5365 N 517.335 0.585699 1.46312 0
M  V30 5366 C 518.265 -0.133556 2.33118 0
M  V30 5367 C 519.246 -0.880707 1.45525 0
M  V30 5368 O 520.431 -0.855579 1.74337 0
M  V30 5369 C 517.561 -1.14585 3.27853 0
M  V30 5370 C 516.515 -0.513341 4.2491 0
M  V30 5371 C 515.841 -1.63231 5.09175 0
M  V30 5372 C 517.141 0.551413 5.19381 0
M  V30 5373 H 518.835 0.59121 2.93505 0
M  V30 5374 H 516.381 0.285761 1.41136 0
M  V30 5375 H 518.334 -1.65741 3.87438 0
M  V30 5376 H 517.058 -1.90093 2.65579 0
M  V30 5377 H 515.717 -0.0228349 3.66593 0
M  V30 5378 H 515.365 -2.37713 4.43285 0
M  V30 5379 H 515.065 -1.21473 5.74907 0
M  V30 5380 H 516.589 -2.14658 5.71624 0
M  V30 5381 H 518.003 0.124804 5.73164 0
M  V30 5382 H 516.4 0.889486 5.93471 0
M  V30 5383 H 517.47 1.43655 4.63132 0
M  V30 5384 N 518.813 -1.54241 0.323641 0
M  V30 5385 C 519.743 -2.27289 -0.534993 0
M  V30 5386 C 520.724 -1.28087 -1.11927 0
M  V30 5387 O 521.909 -1.56899 -1.14439 0
M  V30 5388 C 519.039 -3.03075 -1.69596 0
M  V30 5389 C 517.993 -4.09614 -1.24098 0
M  V30 5390 C 517.319 -4.73242 -2.4889 0
M  V30 5391 C 518.619 -5.21087 -0.355789 0
M  V30 5392 H 520.313 -2.99308 0.0743257 0
M  V30 5393 H 517.859 -1.43952 0.0371874 0
M  V30 5394 H 519.812 -3.52907 -2.30293 0
M  V30 5395 H 518.536 -2.28673 -2.33187 0
M  V30 5396 H 517.195 -3.60666 -0.656945 0
M  V30 5397 H 516.843 -3.95455 -3.10845 0
M  V30 5398 H 516.543 -5.45209 -2.19138 0
M  V30 5399 H 518.067 -5.25848 -3.10348 0
M  V30 5400 H 519.481 -5.66675 -0.869042 0
M  V30 5401 H 517.878 -5.9991 -0.151045 0
M  V30 5402 H 518.948 -4.81005 0.613339 0
M  V30 5403 N 520.291 -0.0518155 -1.57515 0
M  V30 5404 C 521.519 0.631395 -1.9703 0
M  V30 5405 C 521.934 1.64341 -0.92938 0
M  V30 5406 O 521.291 1.82296 0.0863266 0
M  V30 5407 C 521.342 1.31774 -3.36627 0
M  V30 5408 O 521.063 0.346247 -4.3673 0
M  V30 5409 C 522.564 2.09065 -3.90905 0
M  V30 5410 H 519.784 0.172576 -0.648428 0
M  V30 5411 H 522.328 -0.118306 -2.04158 0
M  V30 5412 H 520.483 2.01867 -3.30649 0
M  V30 5413 H 520.897 0.836226 -5.17791 0
M  V30 5414 H 522.371 2.52508 -4.9086 0
M  V30 5415 H 522.848 2.93908 -3.26366 0
M  V30 5416 H 523.454 1.43882 -4.00223 0
M  V30 5417 N 521.769 1.56035 0.221574 0
M  V30 5418 C 522.716 1.92413 1.27459 0
M  V30 5419 C 523.686 0.781323 1.46576 0
M  V30 5420 O 524.871 1.03721 1.60145 0
M  V30 5421 C 522.011 2.24617 2.61995 0
M  V30 5422 C 521.124 3.51831 2.50677 0
M  V30 5423 C 520.259 3.73482 3.77736 0
M  V30 5424 C 519.298 4.94211 3.6114 0
M  V30 5425 N 518.435 5.12252 4.80148 0
M  V30 5426 H 523.275 2.82203 0.957355 0
M  V30 5427 H 520.812 1.39676 0.461415 0
M  V30 5428 H 522.77 2.41298 3.40339 0
M  V30 5429 H 521.4 1.38 2.91815 0
M  V30 5430 H 520.452 3.43343 1.63767 0
M  V30 5431 H 521.764 4.40328 2.34334 0
M  V30 5432 H 520.918 3.9026 4.64523 0
M  V30 5433 H 519.657 2.83266 3.97003 0
M  V30 5434 H 518.662 4.77384 2.72736 0
M  V30 5435 H 519.887 5.85912 3.43343 0
M  V30 5436 H 517.833 4.24978 4.99729 0
M  V30 5437 H 517.75 5.94881 4.66532 0
M  V30 5438 H 519.018 5.33465 5.68362 0
M  V30 5439 N 523.247 -0.488276 1.49845 0
M  V30 5440 C 524.524 -1.24959 1.50481 0
M  V30 5441 C 524.904 -2.09735 0.239698 0
M  V30 5442 O 524.252 -2.14865 -0.777524 0
M  V30 5443 C 524.462 -2.0954 2.79095 0
M  V30 5444 C 525.81 -2.68305 3.29086 0
M  V30 5445 O 526.834 -2.19797 2.80299 0
M  V30 5446 O 525.693 -3.56643 4.14087 0
M  V30 5447 H 522.787 -0.566133 0.602845 0
M  V30 5448 H 525.333 -0.501504 1.6212 0
M  V30 5449 H 524.105 -1.46958 3.62656 0
M  V30 5450 H 523.728 -2.91517 2.70377 0
M  V30 5451 N 524.725 -1.39134 -0.740242 0
M  V30 5452 C 525.655 -1.40165 -1.86751 0
M  V30 5453 C 526.636 -0.265708 -1.68012 0
M  V30 5454 O 527.821 -0.47076 -1.88408 0
M  V30 5455 C 524.951 -1.2392 -3.2444 0
M  V30 5456 C 523.905 -2.34858 -3.57807 0
M  V30 5457 C 523.231 -2.03707 -4.94376 0
M  V30 5458 C 524.531 -3.77159 -3.61315 0
M  V30 5459 H 526.225 -2.345 -1.86145 0
M  V30 5460 H 523.771 -1.12875 -0.89416 0
M  V30 5461 H 525.724 -1.23263 -4.02969 0
M  V30 5462 H 524.448 -0.26051 -3.25559 0
M  V30 5463 H 523.107 -2.34723 -2.81604 0
M  V30 5464 H 522.755 -1.04289 -4.9207 0
M  V30 5465 H 522.455 -2.78016 -5.17669 0
M  V30 5466 H 523.979 -2.04691 -5.75268 0
M  V30 5467 H 525.393 -3.79252 -4.29931 0
M  V30 5468 H 523.79 -4.50784 -3.96124 0
M  V30 5469 H 524.86 -4.08513 -2.61238 0
M  V30 5470 N 526.204 0.969867 -1.24223 0
M  V30 5471 C 527.62 1.23809 -1.00716 0
M  V30 5472 C 527.82 1.99469 0.285358 0
M  V30 5473 O 526.876 2.31764 1.00207 0
M  V30 5474 C 528.189 2.02734 -2.2208 0
M  V30 5475 C 529.737 2.15834 -2.26681 0
M  V30 5476 C 530.212 2.98154 -3.47661 0
M  V30 5477 N 531.703 3.05737 -3.47964 0
M  V30 5478 C 532.438 3.69785 -4.38231 0
M  V30 5479 N 531.934 4.35569 -5.3875 0
M  V30 5480 N 533.727 3.66775 -4.25949 0
M  V30 5481 H 525.878 0.463294 -2.07286 0
M  V30 5482 H 528.141 0.267348 -0.909521 0
M  V30 5483 H 527.847 1.54524 -3.15935 0
M  V30 5484 H 527.721 3.0347 -2.24021 0
M  V30 5485 H 530.108 2.63248 -1.33359 0
M  V30 5486 H 530.189 1.14453 -2.28767 0
M  V30 5487 H 529.833 2.51435 -4.41297 0
M  V30 5488 H 529.763 3.99729 -3.42818 0
M  V30 5489 H 532.254 2.58941 -2.75242 0
M  V30 5490 H 532.567 4.82251 -6.03866 0
M  V30 5491 H 530.912 4.34244 -5.42639 0
M  V30 5492 H 534.103 3.14558 -3.46657 0
M  V30 5493 H 534.276 4.16407 -4.96497 0
M  V30 5494 N 527.682 1.05563 1.17022 0
M  V30 5495 C 528.93 0.76642 1.87004 0
M  V30 5496 C 529.251 -0.708854 1.8166 0
M  V30 5497 O 528.521 -1.51242 1.2451 0
M  V30 5498 H 527.101 0.280516 0.692329 0
M  V30 5499 H 529.763 1.33557 1.41945 0
M  V30 5500 H 528.859 1.08472 2.92644 0
M  V30 5501 N 529.16 -1.33526 0.837174 0
M  V30 5502 C 530.07 -2.33023 0.271568 0
M  V30 5503 C 531.086 -1.63272 -0.601514 0
M  V30 5504 O 532.262 -1.94939 -0.506038 0
M  V30 5505 C 529.327 -3.42382 -0.545448 0
M  V30 5506 C 528.388 -4.27857 0.351709 0
M  V30 5507 C 527.621 -5.31994 -0.426409 0
M  V30 5508 O 527.844 -5.45763 -1.65828 0
M  V30 5509 O 526.778 -6.01572 0.1987 0
M  V30 5510 H 530.604 -2.83256 1.09545 0
M  V30 5511 H 528.189 -1.36837 0.599655 0
M  V30 5512 H 530.071 -4.09122 -1.00979 0
M  V30 5513 H 528.746 -2.94369 -1.34641 0
M  V30 5514 H 527.653 -3.6399 0.863853 0
M  V30 5515 H 528.986 -4.79349 1.1174 0
M  V30 5516 N 530.638 -0.59345 -1.46 0
M  V30 5517 C 531.571 0.182196 -2.27472 0
M  V30 5518 C 532.549 0.886901 -1.36282 0
M  V30 5519 O 533.733 0.898627 -1.65701 0
M  V30 5520 C 530.86 1.26236 -3.14296 0
M  V30 5521 C 529.906 0.662331 -4.21326 0
M  V30 5522 S 530.739 -0.519017 -5.32979 0
M  V30 5523 C 531.895 0.562086 -6.23371 0
M  V30 5524 H 532.128 -0.509056 -2.92909 0
M  V30 5525 H 529.661 -0.380607 -1.49635 0
M  V30 5526 H 531.619 1.88075 -3.64881 0
M  V30 5527 H 530.28 1.92562 -2.48151 0
M  V30 5528 H 529.473 1.47461 -4.81945 0
M  V30 5529 H 529.075 0.119381 -3.73809 0
M  V30 5530 H 531.367 1.44494 -6.61912 0
M  V30 5531 H 532.31 -0.00760776 -7.081 0
M  V30 5532 H 532.718 0.871061 -5.57739 0
M  V30 5533 N 532.116 1.54067 -0.331816 0
M  V30 5534 C 533.344 2.05131 0.269996 0
M  V30 5535 C 533.759 1.20749 1.45138 0
M  V30 5536 O 533.116 0.240069 1.80914 0
M  V30 5537 C 533.167 3.54728 0.696456 0
M  V30 5538 O 532.888 4.35906 -0.43794 0
M  V30 5539 C 534.389 4.21916 1.36021 0
M  V30 5540 H 531.609 0.668807 0.0542042 0
M  V30 5541 H 534.153 1.98777 -0.4804 0
M  V30 5542 H 532.308 3.61342 1.39681 0
M  V30 5543 H 532.722 5.24404 -0.100334 0
M  V30 5544 H 534.196 5.28015 1.60947 0
M  V30 5545 H 534.673 3.73538 2.31011 0
M  V30 5546 H 535.279 4.19463 0.702212 0
M  V30 5547 N 533.594 0.0601682 1.57485 0
M  V30 5548 C 535.005 -0.474217 1.80577 0
M  V30 5549 C 535.356 -1.70365 0.973147 0
M  V30 5550 O 534.481 -2.15544 0.192306 0
M  V30 5551 C 535.076 -0.867102 3.27516 0
M  V30 5552 C 533.635 -1.34642 3.51495 0
M  V30 5553 C 532.782 -0.32594 2.75378 0
M  V30 5554 H 535.733 0.285973 1.56102 0
M  V30 5555 H 535.754 -1.72938 3.38929 0
M  V30 5556 H 535.266 0.0278927 3.8809 0
M  V30 5557 H 533.367 -2.2603 2.96212 0
M  V30 5558 H 533.48 -1.33237 4.60201 0
M  V30 5559 H 531.844 -0.800749 2.41785 0
M  V30 5560 H 532.627 0.561125 3.38683 0
M  V30 5561 N 535.072 -1.5615 -0.213296 0
M  V30 5562 C 536.483 -1.69645 -0.779582 0
M  V30 5563 C 536.834 -0.663615 -1.84636 0
M  V30 5564 O 535.959 0.183633 -2.15619 0
M  V30 5565 C 536.554 -3.07567 -1.42084 0
M  V30 5566 C 535.113 -3.22889 -1.93442 0
M  V30 5567 C 534.26 -2.65581 -0.797612 0
M  V30 5568 H 537.211 -1.58696 0.0114951 0
M  V30 5569 H 537.232 -3.03884 -2.28986 0
M  V30 5570 H 536.744 -3.82716 -0.644187 0
M  V30 5571 H 534.845 -2.52623 -2.73884 0
M  V30 5572 H 534.958 -4.30197 -2.10872 0
M  V30 5573 H 533.322 -2.24278 -1.20712 0
M  V30 5574 H 534.105 -3.43284 -0.033494 0
M  V30 5575 N 536.55 0.480323 -1.50102 0
M  V30 5576 C 537.775 1.26126 -1.64642 0
M  V30 5577 C 538.2 1.85257 -0.325823 0
M  V30 5578 O 537.558 1.66854 0.709194 0
M  V30 5579 C 537.606 2.35243 -2.73301 0
M  V30 5580 O 536.71 3.39646 -2.33911 0
M  V30 5581 H 536.051 0.371463 -0.550374 0
M  V30 5582 H 538.581 0.572696 -1.96421 0
M  V30 5583 H 538.591 2.80695 -2.96098 0
M  V30 5584 H 537.266 1.91574 -3.6915 0
M  V30 5585 H 535.843 2.99969 -2.21525 0
M  V30 5586 N 538.028 1.39524 0.732853 0
M  V30 5587 C 539.274 1.37068 1.49467 0
M  V30 5588 C 539.607 -0.0327166 1.94172 0
M  V30 5589 O 538.882 -0.998071 1.66939 0
M  V30 5590 C 539.165 2.34494 2.73285 0
M  V30 5591 C 539.018 3.83784 2.34585 0
M  V30 5592 C 540.337 2.29717 3.75391 0
M  V30 5593 H 537.456 0.499206 0.542183 0
M  V30 5594 H 540.098 1.70532 0.837783 0
M  V30 5595 H 538.248 2.06087 3.29333 0
M  V30 5596 H 539.92 4.22949 1.84151 0
M  V30 5597 H 538.163 4.00455 1.66787 0
M  V30 5598 H 538.834 4.47444 3.23262 0
M  V30 5599 H 541.31 2.54839 3.28932 0
M  V30 5600 H 540.186 2.99962 4.59689 0
M  V30 5601 H 540.447 1.30291 4.22465 0
M  V30 5602 N 539.506 -0.963266 1.24736 0
M  V30 5603 C 540.416 -2.09246 1.06082 0
M  V30 5604 C 541.432 -1.74 0.000363101 0
M  V30 5605 O 542.608 -2.0041 0.199479 0
M  V30 5606 C 539.673 -3.40115 0.672498 0
M  V30 5607 C 538.734 -3.89282 1.80993 0
M  V30 5608 C 537.967 -5.13905 1.44004 0
M  V30 5609 O 538.19 -5.69434 0.331835 0
M  V30 5610 O 537.124 -5.57566 2.26723 0
M  V30 5611 H 540.95 -2.27881 2.00759 0
M  V30 5612 H 538.535 -1.07649 1.03595 0
M  V30 5613 H 540.417 -4.18797 0.467668 0
M  V30 5614 H 539.092 -3.22771 -0.245102 0
M  V30 5615 H 537.999 -3.11642 2.06955 0
M  V30 5616 H 539.332 -4.1111 2.70646 0
M  V30 5617 N 540.985 -1.06182 -1.16461 0
M  V30 5618 C 541.895 -0.682671 -2.24448 0
M  V30 5619 C 542.911 0.30078 -1.71381 0
M  V30 5620 O 544.087 0.150376 -2.00838 0
M  V30 5621 C 541.152 -0.0737202 -3.46622 0
M  V30 5622 C 540.213 -1.10889 -4.14731 0
M  V30 5623 C 539.446 -0.528908 -5.31073 0
M  V30 5624 O 539.669 0.65868 -5.66584 0
M  V30 5625 O 538.603 -1.26805 -5.88391 0
M  V30 5626 H 542.429 -1.58291 -2.59187 0
M  V30 5627 H 540.014 -0.834013 -1.23954 0
M  V30 5628 H 541.896 0.264192 -4.20571 0
M  V30 5629 H 540.571 0.800015 -3.13658 0
M  V30 5630 H 539.478 -1.49896 -3.42756 0
M  V30 5631 H 540.811 -1.95412 -4.51747 0
M  V30 5632 N 542.463 1.3308 -0.844243 0
M  V30 5633 C 543.879 1.50447 -0.532729 0
M  V30 5634 C 544.079 1.78292 0.938837 0
M  V30 5635 O 543.135 1.84635 1.72239 0
M  V30 5636 C 544.448 2.65555 -1.41072 0
M  V30 5637 C 545.996 2.7944 -1.41005 0
M  V30 5638 C 546.471 3.97616 -2.27301 0
M  V30 5639 N 547.962 4.0486 -2.2504 0
M  V30 5640 C 548.697 4.95508 -2.88547 0
M  V30 5641 N 548.193 5.91236 -3.61126 0
M  V30 5642 N 549.986 4.88548 -2.77989 0
M  V30 5643 H 542.137 1.13269 -1.79677 0
M  V30 5644 H 544.4 0.55734 -0.766861 0
M  V30 5645 H 544.106 2.51675 -2.45668 0
M  V30 5646 H 543.98 3.61089 -1.09061 0
M  V30 5647 H 546.367 2.92749 -0.371784 0
M  V30 5648 H 546.448 1.8465 -1.77026 0
M  V30 5649 H 546.092 3.85066 -3.3119 0
M  V30 5650 H 546.022 4.91661 -1.88619 0
M  V30 5651 H 548.513 3.36353 -1.72264 0
M  V30 5652 H 548.826 6.57079 -4.06776 0
M  V30 5653 H 547.171 5.91295 -3.65234 0
M  V30 5654 H 550.362 4.12729 -2.20846 0
M  V30 5655 H 550.535 5.58994 -3.27765 0
M  V30 5656 N 543.941 0.601185 1.45683 0
M  V30 5657 C 545.357 0.264315 1.57396 0
M  V30 5658 C 545.557 -1.23324 1.59353 0
M  V30 5659 O 544.613 -2.01594 1.52039 0
M  V30 5660 C 545.926 0.929839 2.85962 0
M  V30 5661 C 547.474 0.905156 2.99626 0
M  V30 5662 C 547.949 1.55057 4.30954 0
M  V30 5663 N 549.44 1.51576 4.37697 0
M  V30 5664 C 550.175 1.98436 5.37969 0
M  V30 5665 N 549.671 2.53352 6.44813 0
M  V30 5666 N 551.464 1.89242 5.29286 0
M  V30 5667 H 543.615 1.57363 1.42656 0
M  V30 5668 H 545.878 0.658831 0.681649 0
M  V30 5669 H 545.584 1.98404 2.90394 0
M  V30 5670 H 545.458 0.449224 3.74515 0
M  V30 5671 H 547.845 -0.14048 2.94765 0
M  V30 5672 H 547.926 1.42397 2.12501 0
M  V30 5673 H 547.57 2.5955 4.36573 0
M  V30 5674 H 547.5 1.00682 5.16886 0
M  V30 5675 H 549.991 1.11452 3.61091 0
M  V30 5676 H 550.304 2.86918 7.17564 0
M  V30 5677 H 548.649 2.57388 6.45582 0
M  V30 5678 H 551.84 1.46083 4.44722 0
M  V30 5679 H 552.013 2.26075 6.07284 0
M  V30 5680 N 545.419 -1.53889 0.339982 0
M  V30 5681 C 546.83 -1.86139 -0.144671 0
M  V30 5682 C 547.181 -1.2613 -1.50285 0
M  V30 5683 O 546.306 -0.573515 -2.08662 0
M  V30 5684 C 546.901 -3.37728 -0.269285 0
M  V30 5685 C 545.46 -3.69868 -0.698168 0
M  V30 5686 C 544.607 -2.76777 0.170249 0
M  V30 5687 H 547.558 -1.48503 0.559704 0
M  V30 5688 H 547.579 -3.64331 -1.0974 0
M  V30 5689 H 547.091 -3.81375 0.719366 0
M  V30 5690 H 545.192 -3.31764 -1.69597 0
M  V30 5691 H 545.305 -4.76582 -0.490533 0
M  V30 5692 H 543.669 -2.52188 -0.356844 0
M  V30 5693 H 544.452 -3.23253 1.15597 0
M  V30 5694 N 546.897 -0.0685191 -1.57451 0
M  V30 5695 C 548.122 0.613919 -1.98106 0
M  V30 5696 C 548.547 1.62551 -0.946501 0
M  V30 5697 O 547.905 1.81085 0.0882824 0
M  V30 5698 C 547.953 1.26189 -3.378 0
M  V30 5699 O 547.057 2.37773 -3.36954 0
M  V30 5700 H 546.398 0.158163 -0.644888 0
M  V30 5701 H 548.928 -0.142063 -2.04106 0
M  V30 5702 H 548.938 1.60951 -3.74912 0
M  V30 5703 H 547.613 0.520625 -4.12629 0
M  V30 5704 H 546.19 2.04829 -3.11608 0
M  V30 5705 N 548.375 1.56261 0.205012 0
M  V30 5706 C 549.305 1.96779 1.257 0
M  V30 5707 C 550.286 0.838309 1.48008 0
M  V30 5708 O 551.471 1.10189 1.59913 0
M  V30 5709 C 548.601 2.29876 2.60335 0
M  V30 5710 C 547.555 3.45469 2.52656 0
M  V30 5711 C 546.881 3.64215 3.91473 0
M  V30 5712 C 548.181 4.79954 2.06014 0
M  V30 5713 H 549.875 2.84904 0.920338 0
M  V30 5714 H 547.421 1.37072 0.441277 0
M  V30 5715 H 549.374 2.56814 3.34102 0
M  V30 5716 H 548.098 1.38622 2.95722 0
M  V30 5717 H 546.757 3.18605 1.81345 0
M  V30 5718 H 546.405 2.70309 4.24196 0
M  V30 5719 H 546.105 4.41973 3.87213 0
M  V30 5720 H 547.629 3.93519 4.66878 0
M  V30 5721 H 549.043 5.05989 2.69533 0
M  V30 5722 H 547.44 5.61111 2.12777 0
M  V30 5723 H 548.51 4.74201 1.01297 0
M  V30 5724 N 549.853 -0.472356 1.50355 0
M  V30 5725 C 550.785 -1.58795 1.65278 0
M  V30 5726 C 551.798 -1.53782 0.534313 0
M  V30 5727 O 552.987 -1.59193 0.807446 0
M  V30 5728 C 550.087 -2.97672 1.62001 0
M  V30 5729 C 549.26 -3.27568 2.89859 0
M  V30 5730 C 548.319 -4.45993 2.79242 0
M  V30 5731 O 547.345 -4.46364 3.53197 0
M  V30 5732 N 548.547 -5.47578 1.92713 0
M  V30 5733 H 551.312 -1.46411 2.61503 0
M  V30 5734 H 548.873 -0.660751 1.47803 0
M  V30 5735 H 550.865 -3.74862 1.52513 0
M  V30 5736 H 549.435 -3.03832 0.735159 0
M  V30 5737 H 548.655 -2.39003 3.13483 0
M  V30 5738 H 549.943 -3.44352 3.74565 0
M  V30 5739 H 549.341 -5.50099 1.31939 0
M  V30 5740 H 547.898 -6.23757 1.8913 0
M  V30 5741 N 551.331 -1.39911 -0.725443 0
M  V30 5742 C 552.579 -1.37382 -1.48224 0
M  V30 5743 C 552.9 0.0264107 -1.94982 0
M  V30 5744 O 552.17 0.979408 -1.6966 0
M  V30 5745 H 550.75 -0.505596 -0.549892 0
M  V30 5746 H 553.412 -1.7487 -0.860608 0
M  V30 5747 H 552.508 -2.04254 -2.3598 0
M  V30 5748 N 552.809 0.956637 -1.25245 0
M  V30 5749 C 553.757 2.0743 -1.0524 0
M  V30 5750 C 554.751 1.69392 0.0160725 0
M  V30 5751 O 555.957 1.7946 -0.139382 0
M  V30 5752 H 552.332 0.678921 -0.323373 0
M  V30 5753 H 554.303 2.2146 -1.99995 0
M  V30 5754 C 553.052 3.40872 -0.685702 0
M  V30 5755 H 552.375 3.70607 -1.49968 0
M  V30 5756 H 553.815 4.19939 -0.585415 0
M  V30 5757 C 552.274 3.31367 0.608082 0
M  V30 5758 O 552.804 3.66214 1.65076 0
M  V30 5759 N 551.01 2.84486 0.592955 0
M  V30 5760 H 550.557 2.56326 -0.25592 0
M  V30 5761 H 550.515 2.78509 1.45877 0
M  V30 5762 N 554.287 1.06798 1.15896 0
M  V30 5763 C 555.515 0.808694 1.90441 0
M  V30 5764 C 555.93 -0.637506 1.77711 0
M  V30 5765 O 555.287 -1.43684 1.12522 0
M  V30 5766 C 555.338 1.20068 3.40978 0
M  V30 5767 O 555.059 2.59013 3.53333 0
M  V30 5768 C 556.56 0.96987 4.3256 0
M  V30 5769 H 553.78 0.292809 0.603742 0
M  V30 5770 H 556.324 1.42296 1.46874 0
M  V30 5771 H 554.479 0.630842 3.82229 0
M  V30 5772 H 554.893 2.7485 4.46719 0
M  V30 5773 H 556.367 1.29371 5.36626 0
M  V30 5774 H 556.844 -0.0941209 4.39099 0
M  V30 5775 H 557.45 1.52433 3.97044 0
M  V30 5776 N 555.766 -1.3263 0.851289 0
M  V30 5777 C 556.696 -2.31449 0.308771 0
M  V30 5778 C 557.677 -1.59531 -0.590255 0
M  V30 5779 O 558.862 -1.87351 -0.511205 0
M  V30 5780 C 555.992 -3.43586 -0.506548 0
M  V30 5781 C 554.946 -4.26963 0.297753 0
M  V30 5782 C 554.272 -5.30831 -0.642094 0
M  V30 5783 C 555.572 -4.99643 1.52166 0
M  V30 5784 H 557.266 -2.77074 1.13447 0
M  V30 5785 H 554.812 -1.33207 0.546971 0
M  V30 5786 H 556.765 -4.11754 -0.896474 0
M  V30 5787 H 555.489 -2.96681 -1.36558 0
M  V30 5788 H 554.148 -3.60437 0.669391 0
M  V30 5789 H 553.796 -4.8018 -1.49788 0
M  V30 5790 H 553.496 -5.87501 -0.107968 0
M  V30 5791 H 555.02 -6.01862 -1.02927 0
M  V30 5792 H 556.434 -5.6051 1.20421 0
M  V30 5793 H 554.831 -5.66022 1.99347 0
M  V30 5794 H 555.901 -4.27701 2.28474 0
M  V30 5795 N 557.244 -0.608902 -1.45362 0
M  V30 5796 C 558.492 -0.104401 -2.0183 0
M  V30 5797 C 558.813 1.27007 -1.47967 0
M  V30 5798 O 558.083 1.83924 -0.674455 0
M  V30 5799 H 556.663 -0.0356042 -0.746151 0
M  V30 5800 H 559.325 -0.790596 -1.78145 0
M  V30 5801 H 558.421 -0.0551793 -3.12051 0
M  V30 5802 N 558.722 1.53707 -0.348139 0
M  V30 5803 C 559.97 2.00591 0.246478 0
M  V30 5804 C 560.291 1.23753 1.50699 0
M  V30 5805 O 559.561 0.345964 1.92821 0
M  V30 5806 H 558.141 0.741053 0.0940679 0
M  V30 5807 H 560.803 1.89139 -0.470354 0
M  V30 5808 H 559.899 3.08297 0.485714 0
M  V30 5809 N 560.2 0.0768682 1.57412 0
M  V30 5810 C 561.448 -0.589918 1.93299 0
M  V30 5811 C 561.769 -1.69842 0.958049 0
M  V30 5812 O 561.039 -1.95899 0.00703261 0
M  V30 5813 H 559.619 -0.220901 0.713591 0
M  V30 5814 H 562.281 0.135917 1.94425 0
M  V30 5815 H 561.377 -1.01195 2.95239 0
M  V30 5816 N 561.678 -1.56367 -0.196722 0
M  V30 5817 C 562.924 -1.80796 -0.918725 0
M  V30 5818 C 563.257 -0.650645 -1.82976 0
M  V30 5819 O 562.532 0.348889 -1.91345 0
M  V30 5820 C 562.815 -3.15472 -1.73636 0
M  V30 5821 C 562.668 -4.41693 -0.85015 0
M  V30 5822 C 563.987 -3.46824 -2.70927 0
M  V30 5823 H 561.106 -0.657702 -0.332561 0
M  V30 5824 H 563.748 -1.89086 -0.186186 0
M  V30 5825 H 561.898 -3.08536 -2.36088 0
M  V30 5826 H 563.57 -4.60673 -0.240459 0
M  V30 5827 H 561.813 -4.33517 -0.156785 0
M  V30 5828 H 562.484 -5.32419 -1.45719 0
M  V30 5829 H 564.96 -3.54049 -2.18607 0
M  V30 5830 H 563.836 -4.4218 -3.25219 0
M  V30 5831 H 564.097 -2.70236 -3.49893 0
M  V30 5832 N 563.156 0.464375 -1.50603 0
M  V30 5833 C 564.381 1.24372 -1.65971 0
M  V30 5834 C 564.806 1.84901 -0.345453 0
M  V30 5835 O 564.164 1.67596 0.691457 0
M  V30 5836 C 564.212 2.32331 -2.7578 0
M  V30 5837 O 563.316 3.37146 -2.375 0
M  V30 5838 H 562.657 0.365604 -0.554283 0
M  V30 5839 H 565.187 0.55183 -1.97018 0
M  V30 5840 H 565.197 2.77539 -2.99059 0
M  V30 5841 H 563.872 1.87648 -3.71162 0
M  V30 5842 H 562.449 2.97602 -2.24694 0
M  V30 5843 N 564.634 1.40294 0.718013 0
M  V30 5844 C 565.88 1.39648 1.47885 0
M  V30 5845 C 566.235 -0.0023879 1.924 0
M  V30 5846 O 565.528 -0.972304 1.65096 0
M  V30 5847 C 565.722 2.31814 2.72024 0
M  V30 5848 C 565.551 3.80523 2.3965 0
M  V30 5849 C 564.321 4.49351 2.3111 0
M  V30 5850 C 566.519 4.72077 2.04079 0
M  V30 5851 N 564.501 5.83305 1.91385 0
M  V30 5852 C 565.872 5.94809 1.74935 0
M  V30 5853 C 567.927 4.59935 1.90694 0
M  V30 5854 C 566.63 7.06755 1.33753 0
M  V30 5855 C 568.656 5.7182 1.50915 0
M  V30 5856 C 568.018 6.93637 1.22668 0
M  V30 5857 H 564.117 0.566263 0.539324 0
M  V30 5858 H 566.701 1.75986 0.832891 0
M  V30 5859 H 564.872 1.97607 3.34374 0
M  V30 5860 H 566.604 2.22042 3.38348 0
M  V30 5861 H 563.359 4.03002 2.4877 0
M  V30 5862 H 563.783 6.54239 1.74068 0
M  V30 5863 H 568.425 3.66274 2.11194 0
M  V30 5864 H 566.143 8.00302 1.11995 0
M  V30 5865 H 569.729 5.64421 1.4114 0
M  V30 5866 H 568.609 7.78743 0.923502 0
M  V30 5867 N 566.112 -0.949982 1.2575 0
M  V30 5868 C 567.042 -2.06483 1.09028 0
M  V30 5869 C 568.023 -1.701 -0.00201532 0
M  V30 5870 O 569.208 -1.93469 0.168383 0
M  V30 5871 C 566.338 -3.39899 0.71316 0
M  V30 5872 C 565.292 -3.90309 1.75621 0
M  V30 5873 C 564.618 -5.20274 1.23365 0
M  V30 5874 C 565.918 -4.16169 3.15596 0
M  V30 5875 H 567.612 -2.20731 2.02283 0
M  V30 5876 H 565.158 -1.06066 0.973964 0
M  V30 5877 H 567.111 -4.17346 0.58309 0
M  V30 5878 H 565.835 -3.25602 -0.255091 0
M  V30 5879 H 564.494 -3.15035 1.8748 0
M  V30 5880 H 564.142 -5.02351 0.255491 0
M  V30 5881 H 563.842 -5.54971 1.93082 0
M  V30 5882 H 565.366 -6.00314 1.11607 0
M  V30 5883 H 566.78 -4.84259 3.06864 0
M  V30 5884 H 565.177 -4.62131 3.82825 0
M  V30 5885 H 566.247 -3.22273 3.6231 0
M  V30 5886 N 567.59 -1.07411 -1.15328 0
M  V30 5887 C 568.52 -0.716472 -2.22236 0
M  V30 5888 C 569.501 0.296373 -1.67498 0
M  V30 5889 O 570.686 0.168989 -1.93463 0
M  V30 5890 C 567.816 -0.114142 -3.47112 0
M  V30 5891 C 566.77 -1.05421 -4.14814 0
M  V30 5892 C 566.096 -0.314604 -5.33774 0
M  V30 5893 C 567.396 -2.38808 -4.64508 0
M  V30 5894 H 569.09 -1.61029 -2.52408 0
M  V30 5895 H 566.636 -0.775702 -1.21321 0
M  V30 5896 H 568.589 0.148001 -4.2114 0
M  V30 5897 H 567.313 0.814755 -3.16274 0
M  V30 5898 H 565.972 -1.30128 -3.42728 0
M  V30 5899 H 565.62 0.617772 -4.99192 0
M  V30 5900 H 565.32 -0.941209 -5.80013 0
M  V30 5901 H 566.844 -0.0602747 -6.1057 0
M  V30 5902 H 568.258 -2.18424 -5.3006 0
M  V30 5903 H 566.655 -2.97069 -5.21412 0
M  V30 5904 H 567.725 -3.01067 -3.80114 0
M  V30 5905 N 569.068 1.32177 -0.85831 0
M  V30 5906 C 570.293 2.01847 -0.476718 0
M  V30 5907 C 570.718 1.64065 0.920021 0
M  V30 5908 O 570.076 0.843189 1.60499 0
M  V30 5909 C 570.124 3.55097 -0.627578 0
M  V30 5910 O 569.228 4.11012 0.338086 0
M  V30 5911 H 568.569 0.635907 -0.191099 0
M  V30 5912 H 571.099 1.68641 -1.15851 0
M  V30 5913 H 571.109 4.04718 -0.516476 0
M  V30 5914 H 569.784 3.81938 -1.64609 0
M  V30 5915 H 568.361 3.72451 0.182917 0
M  V30 5916 N 570.547 0.616602 1.45037 0
M  V30 5917 C 571.477 -0.0840787 2.33349 0
M  V30 5918 C 572.458 -0.849641 1.4736 0
M  V30 5919 O 573.643 -0.818407 1.76113 0
M  V30 5920 C 570.773 -1.07604 3.3021 0
M  V30 5921 C 569.727 -0.423096 4.25904 0
M  V30 5922 C 569.053 -1.52394 5.12523 0
M  V30 5923 C 570.353 0.661457 5.18095 0
M  V30 5924 H 572.047 0.653333 2.92185 0
M  V30 5925 H 569.593 0.315634 1.40498 0
M  V30 5926 H 571.546 -1.57485 3.90866 0
M  V30 5927 H 570.27 -1.84416 2.69552 0
M  V30 5928 H 568.929 0.05493 3.66559 0
M  V30 5929 H 568.577 -2.28257 4.48227 0
M  V30 5930 H 568.277 -1.09251 5.77354 0
M  V30 5931 H 569.801 -2.02485 5.76049 0
M  V30 5932 H 571.215 0.246353 5.7277 0
M  V30 5933 H 569.612 1.01517 5.91451 0
M  V30 5934 H 570.682 1.53446 4.59981 0
M  V30 5935 N 572.025 -1.5352 0.356285 0
M  V30 5936 C 573.25 -2.06007 -0.239961 0
M  V30 5937 C 573.675 -1.22872 -1.42422 0
M  V30 5938 O 573.033 -0.245516 -1.7963 0
M  V30 5939 C 573.081 -3.5522 -0.620587 0
M  V30 5940 O 572.185 -3.74864 -1.71902 0
M  V30 5941 H 571.526 -0.662961 -0.0371377 0
M  V30 5942 H 574.056 -1.98033 0.514194 0
M  V30 5943 H 574.066 -3.98081 -0.894197 0
M  V30 5944 H 572.741 -4.15175 0.245407 0
M  V30 5945 H 571.318 -3.43904 -1.44169 0
M  V30 5946 N 573.503 -0.0852151 -1.57369 0
M  V30 5947 C 574.751 0.579658 -1.93609 0
M  V30 5948 C 575.072 1.69332 -0.967043 0
M  V30 5949 O 574.342 1.95892 -0.0174215 0
M  V30 5950 H 572.922 0.217113 -0.714752 0
M  V30 5951 H 575.584 -0.146226 -1.94351 0
M  V30 5952 H 574.68 0.996276 -2.95771 0
M  V30 5953 N 574.981 1.5647 0.188427 0
M  V30 5954 C 576.206 1.85486 0.927891 0
M  V30 5955 C 576.631 0.669575 1.75779 0
M  V30 5956 O 575.989 -0.381573 1.77239 0
M  V30 5957 C 576.037 3.12784 1.7944 0
M  V30 5958 O 575.141 2.93805 2.894 0
M  V30 5959 H 574.482 0.610585 0.260925 0
M  V30 5960 H 577.012 2.037 0.191729 0
M  V30 5961 H 577.022 3.43749 2.19774 0
M  V30 5962 H 575.697 3.98671 1.18468 0
M  V30 5963 H 574.274 2.74153 2.52774 0
M  V30 5964 N 576.459 -0.456382 1.50847 0
M  V30 5965 C 577.391 -1.57033 1.66953 0
M  V30 5966 C 578.404 -1.53207 0.550593 0
M  V30 5967 O 579.593 -1.58328 0.824285 0
M  V30 5968 C 576.693 -2.95937 1.65149 0
M  V30 5969 C 575.866 -3.24475 2.93317 0
M  V30 5970 C 574.925 -4.43007 2.83957 0
M  V30 5971 O 573.951 -4.42592 3.57912 0
M  V30 5972 N 575.153 -5.45503 1.9851 0
M  V30 5973 H 577.918 -1.43629 2.63042 0
M  V30 5974 H 575.479 -0.645037 1.48495 0
M  V30 5975 H 577.471 -3.73224 1.56481 0
M  V30 5976 H 576.041 -3.03036 0.767343 0
M  V30 5977 H 575.261 -2.35664 3.16 0
M  V30 5978 H 576.549 -3.4036 3.78196 0
M  V30 5979 H 575.947 -5.48668 1.37766 0
M  V30 5980 H 574.504 -6.21716 1.95735 0
M  V30 5981 N 577.937 -1.40673 -0.710563 0
M  V30 5982 C 578.847 -1.43663 -1.85467 0
M  V30 5983 C 579.863 -0.328721 -1.70867 0
M  V30 5984 O 581.039 -0.574098 -1.93044 0
M  V30 5985 C 578.104 -1.30226 -3.21313 0
M  V30 5986 C 577.165 -2.51204 -3.48131 0
M  V30 5987 C 576.398 -2.38398 -4.77495 0
M  V30 5988 O 576.621 -1.40048 -5.5294 0
M  V30 5989 O 575.555 -3.2787 -5.04762 0
M  V30 5990 H 579.381 -2.40156 -1.859 0
M  V30 5991 H 576.966 -1.22049 -0.861652 0
M  V30 5992 H 578.848 -1.2496 -4.02446 0
M  V30 5993 H 577.523 -0.368419 -3.21597 0
M  V30 5994 H 576.43 -2.62048 -2.66987 0
M  V30 5995 H 577.763 -3.43366 -3.52648 0
M  V30 5996 N 579.415 0.9433 -1.26252 0
M  V30 5997 C 580.378 2.02326 -1.07689 0
M  V30 5998 C 581.378 1.60779 -0.0259174 0
M  V30 5999 O 582.568 1.72108 -0.269134 0
M  V30 6000 C 579.7 3.34886 -0.63752 0
M  V30 6001 H 580.893 2.20225 -2.0357 0
M  V30 6002 H 578.446 1.12197 -1.08819 0
M  V30 6003 H 579.181 3.22684 0.323377 0
M  V30 6004 H 578.966 3.66393 -1.39637 0
M  V30 6005 H 580.456 4.14231 -0.529418 0
M  V30 6006 N 580.893 1.08022 1.14757 0
M  V30 6007 C 582.17 0.720386 1.81851 0
M  V30 6008 C 582.55 -0.796375 1.95502 0
M  V30 6009 O 581.898 -1.71339 1.51179 0
M  V30 6010 C 582.108 1.44273 3.17783 0
M  V30 6011 C 583.456 1.59925 3.93331 0
M  V30 6012 O 584.48 1.40407 3.2736 0
M  V30 6013 O 583.339 1.92096 5.11626 0
M  V30 6014 H 580.433 0.257142 0.786007 0
M  V30 6015 H 582.979 1.18155 1.21809 0
M  V30 6016 H 581.751 2.47618 3.02987 0
M  V30 6017 H 581.374 0.97279 3.85516 0
M  V30 6018 N 582.371 -1.3172 0.865308 0
M  V30 6019 C 583.334 -2.26918 0.322627 0
M  V30 6020 C 584.334 -1.52031 -0.523751 0
M  V30 6021 O 585.524 -1.70973 -0.333727 0
M  V30 6022 C 582.656 -3.36558 -0.542338 0
M  V30 6023 H 583.849 -2.76432 1.16298 0
M  V30 6024 H 581.402 -1.42573 0.640512 0
M  V30 6025 H 582.137 -2.92329 -1.40407 0
M  V30 6026 H 581.922 -3.92048 0.0636395 0
M  V30 6027 H 583.412 -4.07465 -0.91446 0
M  V30 6028 N 583.85 -0.624285 -1.44708 0
M  V30 6029 C 584.779 0.0717025 -2.3339 0
M  V30 6030 C 585.76 0.841814 -1.47809 0
M  V30 6031 O 586.946 0.809056 -1.76544 0
M  V30 6032 C 584.076 1.05852 -3.30776 0
M  V30 6033 C 583.029 0.400503 -4.26122 0
M  V30 6034 C 582.356 1.49674 -5.13324 0
M  V30 6035 C 583.656 -0.688924 -5.17737 0
M  V30 6036 H 585.35 -0.668819 -2.91834 0
M  V30 6037 H 582.896 -0.32308 -1.40329 0
M  V30 6038 H 584.849 1.5541 -3.91696 0
M  V30 6039 H 583.572 1.82984 -2.70526 0
M  V30 6040 H 582.231 -0.0743687 -3.66525 0
M  V30 6041 H 581.88 2.25877 -4.49431 0
M  V30 6042 H 581.58 1.06188 -5.77926 0
M  V30 6043 H 583.104 1.99427 -5.77115 0
M  V30 6044 H 584.518 -0.276724 -5.72632 0
M  V30 6045 H 582.915 -1.04652 -5.90904 0
M  V30 6046 H 583.985 -1.55884 -4.5916 0
M  V30 6047 N 585.328 1.53329 -0.364422 0
M  V30 6048 C 586.744 1.59594 -0.0133165 0
M  V30 6049 C 586.944 1.37959 1.46865 0
M  V30 6050 O 586 1.18418 2.2301 0
M  V30 6051 C 587.313 2.97032 -0.468213 0
M  V30 6052 C 588.861 3.10138 -0.422334 0
M  V30 6053 C 589.336 4.49986 -0.853024 0
M  V30 6054 N 590.827 4.56098 -0.808037 0
M  V30 6055 C 591.562 5.62495 -1.11299 0
M  V30 6056 N 591.058 6.7665 -1.48717 0
M  V30 6057 N 592.851 5.52473 -1.03586 0
M  V30 6058 H 585.002 1.65644 -1.32951 0
M  V30 6059 H 587.265 0.77684 -0.543345 0
M  V30 6060 H 586.971 3.18 -1.5023 0
M  V30 6061 H 586.845 3.76918 0.145775 0
M  V30 6062 H 589.232 2.88881 0.602622 0
M  V30 6063 H 589.313 2.32263 -1.0718 0
M  V30 6064 H 588.957 4.7198 -1.87609 0
M  V30 6065 H 588.887 5.26289 -0.180819 0
M  V30 6066 H 591.378 3.74131 -0.532361 0
M  V30 6067 H 591.691 7.53776 -1.70415 0
M  V30 6068 H 590.036 6.78044 -1.52581 0
M  V30 6069 H 593.227 4.6217 -0.742736 0
M  V30 6070 H 593.4 6.35295 -1.27686 0
M  V30 6071 N 586.806 0.0935595 1.57322 0
M  V30 6072 C 587.754 -0.883457 2.15169 0
M  V30 6073 C 588.748 -1.29324 1.09415 0
M  V30 6074 O 589.954 -1.26795 1.27762 0
M  V30 6075 H 586.329 -0.302923 0.688289 0
M  V30 6076 H 588.3 -0.370845 2.96087 0
M  V30 6077 C 587.049 -2.13345 2.74552 0
M  V30 6078 H 586.372 -1.82702 3.55612 0
M  V30 6079 H 587.812 -2.7977 3.18598 0
M  V30 6080 C 586.271 -2.90646 1.70371 0
M  V30 6081 O 586.801 -3.85133 1.14173 0
M  V30 6082 N 585.007 -2.54157 1.40899 0
M  V30 6083 H 584.554 -1.77391 1.86789 0
M  V30 6084 H 584.512 -3.06178 0.714301 0
M  V30 6085 N 588.284 -1.56567 -0.180126 0
M  V30 6086 C 589.247 -1.94852 -1.20686 0
M  V30 6087 C 590.247 -0.831212 -1.3765 0
M  V30 6088 O 591.437 -1.09841 -1.35206 0
M  V30 6089 C 588.569 -2.23565 -2.57355 0
M  V30 6090 H 589.762 -2.86722 -0.879225 0
M  V30 6091 H 587.315 -1.50489 -0.422237 0
M  V30 6092 H 588.05 -1.34381 -2.95148 0
M  V30 6093 H 587.835 -3.04999 -2.46411 0
M  V30 6094 H 589.325 -2.54137 -3.31367 0
M  V30 6095 N 589.762 0.448376 -1.51087 0
M  V30 6096 C 590.692 1.55102 -1.74544 0
M  V30 6097 C 591.673 1.59357 -0.594932 0
M  V30 6098 O 592.858 1.75261 -0.836491 0
M  V30 6099 C 589.988 2.93268 -1.86041 0
M  V30 6100 C 588.942 3.03877 -3.01402 0
M  V30 6101 C 588.268 4.43914 -2.98068 0
M  V30 6102 C 589.568 2.7898 -4.41551 0
M  V30 6103 H 591.262 1.35724 -2.66869 0
M  V30 6104 H 588.808 0.651498 -1.28419 0
M  V30 6105 H 590.761 3.70356 -2.01034 0
M  V30 6106 H 589.485 3.13853 -0.903548 0
M  V30 6107 H 588.144 2.29227 -2.86096 0
M  V30 6108 H 587.792 4.6145 -2.00182 0
M  V30 6109 H 587.492 4.51944 -3.75527 0
M  V30 6110 H 589.016 5.22991 -3.1514 0
M  V30 6111 H 590.43 3.45805 -4.57265 0
M  V30 6112 H 588.827 2.98431 -5.20633 0
M  V30 6113 H 589.897 1.74663 -4.5235 0
M  V30 6114 N 591.24 1.41047 0.703093 0
M  V30 6115 C 592.486 1.40207 1.46526 0
M  V30 6116 C 592.819 0.00847763 1.94198 0
M  V30 6117 O 592.094 -0.962437 1.69019 0
M  V30 6118 C 592.377 2.40238 2.6825 0
M  V30 6119 C 592.23 3.88674 2.26391 0
M  V30 6120 C 593.549 2.37627 3.70434 0
M  V30 6121 H 590.668 0.510594 0.531472 0
M  V30 6122 H 593.31 1.72271 0.801422 0
M  V30 6123 H 591.46 2.13026 3.24888 0
M  V30 6124 H 593.132 4.2676 1.75138 0
M  V30 6125 H 591.375 4.03903 1.58255 0
M  V30 6126 H 592.046 4.542 3.13698 0
M  V30 6127 H 594.522 2.61759 3.23452 0
M  V30 6128 H 593.398 3.09645 4.53223 0
M  V30 6129 H 593.659 1.39223 4.19606 0
M  V30 6130 N 592.718 -0.936591 1.26751 0
M  V30 6131 C 594.129 -1.49816 1.1141 0
M  V30 6132 C 594.48 -1.9383 -0.304015 0
M  V30 6133 O 593.605 -1.80346 -1.196 0
M  V30 6134 C 594.2 -2.72271 2.01629 0
M  V30 6135 C 592.759 -3.2468 1.9042 0
M  V30 6136 C 591.906 -1.97444 1.94708 0
M  V30 6137 H 594.857 -0.751604 1.39773 0
M  V30 6138 H 594.878 -3.46741 1.56688 0
M  V30 6139 H 594.39 -2.40205 3.04833 0
M  V30 6140 H 592.491 -3.61525 0.901674 0
M  V30 6141 H 592.604 -3.91476 2.76195 0
M  V30 6142 H 590.968 -2.13545 1.38818 0
M  V30 6143 H 591.751 -1.67703 2.9955 0
M  V30 6144 N 594.196 -1.08629 -1.14182 0
M  V30 6145 C 595.421 -0.83902 -1.89671 0
M  V30 6146 C 595.846 0.603332 -1.78161 0
M  V30 6147 O 595.204 1.42301 -1.12339 0
M  V30 6148 C 595.252 -1.26854 -3.37551 0
M  V30 6149 O 594.356 -0.42188 -4.10236 0
M  V30 6150 H 593.697 -0.304545 -0.590041 0
M  V30 6151 H 596.227 -1.4483 -1.44518 0
M  V30 6152 H 596.237 -1.25038 -3.88368 0
M  V30 6153 H 594.912 -2.31901 -3.45246 0
M  V30 6154 H 593.489 -0.503654 -3.69483 0
M  V30 6155 N 595.674 1.31259 -0.872281 0
M  V30 6156 C 596.604 2.30929 -0.345554 0
M  V30 6157 C 597.585 1.60449 0.5648 0
M  V30 6158 O 598.77 1.8814 0.481335 0
M  V30 6159 C 595.9 3.44348 0.451823 0
M  V30 6160 C 594.854 4.26435 -0.365641 0
M  V30 6161 C 594.18 5.31785 0.557562 0
M  V30 6162 C 595.48 4.97159 -1.60095 0
M  V30 6163 H 597.174 2.75234 -1.17841 0
M  V30 6164 H 594.72 1.3232 -0.568094 0
M  V30 6165 H 596.673 4.13128 0.830854 0
M  V30 6166 H 595.397 2.98816 1.31821 0
M  V30 6167 H 594.056 3.59326 -0.726649 0
M  V30 6168 H 593.704 4.82502 1.4213 0
M  V30 6169 H 593.404 5.87598 0.0144878 0
M  V30 6170 H 594.928 6.03424 0.933387 0
M  V30 6171 H 596.342 5.58523 -1.29323 0
M  V30 6172 H 594.739 5.62779 -2.08327 0
M  V30 6173 H 595.809 4.24012 -2.35249 0
M  V30 6174 N 597.152 0.631951 1.44375 0
M  V30 6175 C 598.115 -0.0628142 2.29114 0
M  V30 6176 C 599.115 -0.771494 1.41084 0
M  V30 6177 O 600.305 -0.615959 1.62947 0
M  V30 6178 C 597.437 -1.09953 3.22681 0
M  V30 6179 H 598.63 0.682509 2.92031 0
M  V30 6180 H 596.183 0.392128 1.51301 0
M  V30 6181 H 596.918 -1.87481 2.64616 0
M  V30 6182 H 596.703 -0.595286 3.87555 0
M  V30 6183 H 598.193 -1.58538 3.86336 0
M  V30 6184 N 598.631 -1.53133 0.372548 0
M  V30 6185 C 599.871 -2.03267 -0.214943 0
M  V30 6186 C 600.235 -1.25362 -1.45425 0
M  V30 6187 O 601.436 -1.65536 -2.11781 0
M  V30 6188 C 599.707 -3.53985 -0.492897 0
M  V30 6189 S 601.266 -4.25977 -1.05307 0
M  V30 6190 H 598.084 -0.708289 -0.062029 0
M  V30 6191 H 600.686 -1.88539 0.517025 0
M  V30 6192 H 599.39 -4.08282 0.416442 0
M  V30 6193 H 598.921 -3.72887 -1.25375 0
M  V30 6194 H 600.936 -4.37731 -2.33679 0
M  V30 6195 N 600.109 -0.101901 -1.5727 0
M  V30 6196 C 601.072 0.840129 -2.13247 0
M  V30 6197 C 602.072 1.20625 -1.06331 0
M  V30 6198 O 603.262 1.13456 -1.32186 0
M  V30 6199 C 600.394 2.13372 -2.65867 0
M  V30 6200 H 601.587 0.353945 -2.97804 0
M  V30 6201 H 599.14 0.147167 -1.55606 0
M  V30 6202 H 599.875 2.66461 -1.84849 0
M  V30 6203 H 599.66 1.88085 -3.44044 0
M  V30 6204 H 601.15 2.80748 -3.09145 0
M  V30 6205 N 601.587 1.56661 0.17182 0
M  V30 6206 C 602.55 1.9549 1.19651 0
M  V30 6207 C 603.55 0.838501 1.37207 0
M  V30 6208 O 604.74 1.10556 1.34622 0
M  V30 6209 C 601.872 2.24927 2.56166 0
M  V30 6210 H 603.065 2.87184 0.864007 0
M  V30 6211 H 600.618 1.50711 0.41425 0
M  V30 6212 H 601.353 1.35944 2.94431 0
M  V30 6213 H 601.138 3.06301 2.4479 0
M  V30 6214 H 602.628 2.55891 3.30014 0
M  V30 6215 N 603.065 -0.440357 1.51323 0
M  V30 6216 C 604.028 -1.51679 1.71832 0
M  V30 6217 C 605.028 -1.49648 0.588386 0
M  V30 6218 O 606.218 -1.51724 0.855891 0
M  V30 6219 C 603.35 -2.91228 1.77199 0
M  V30 6220 H 604.543 -1.34799 2.67898 0
M  V30 6221 H 602.096 -0.66883 1.41267 0
M  V30 6222 H 602.831 -3.13516 0.829363 0
M  V30 6223 H 602.616 -2.94107 2.59314 0
M  V30 6224 H 604.106 -3.69321 1.94915 0
M  V30 6225 N 604.543 -1.41418 -0.695603 0
M  V30 6226 C 605.493 -1.39731 -1.80165 0
M  V30 6227 C 606.477 -0.271689 -1.5859 0
M  V30 6228 O 607.669 -0.512354 -1.69422 0
M  V30 6229 C 604.798 -1.28187 -3.1847 0
M  V30 6230 C 603.884 -2.45612 -3.45739 0
M  V30 6231 N 604.275 -3.71077 -3.43708 0
M  V30 6232 C 602.573 -2.39424 -3.76288 0
M  V30 6233 C 603.274 -4.48957 -3.69882 0
M  V30 6234 N 602.25 -3.7907 -3.89624 0
M  V30 6235 H 606.052 -2.34656 -1.76957 0
M  V30 6236 H 603.566 -1.35473 -0.89559 0
M  V30 6237 H 605.563 -1.2506 -3.977 0
M  V30 6238 H 604.223 -0.342468 -3.22889 0
M  V30 6239 H 605.234 -4.03963 -3.2409 0
M  V30 6240 H 601.911 -1.53955 -3.88077 0
M  V30 6241 H 603.301 -5.57887 -3.74448 0
M  V30 6242 N 606.021 0.929856 -1.27246 0
M  V30 6243 C 606.984 2.01172 -1.09829 0
M  V30 6244 C 607.984 1.60743 -0.0429687 0
M  V30 6245 O 609.174 1.71813 -0.287373 0
M  V30 6246 C 606.306 3.34191 -0.673003 0
M  V30 6247 H 607.499 2.18054 -2.05895 0
M  V30 6248 H 605.052 1.11036 -1.10003 0
M  V30 6249 H 605.787 3.23009 0.289134 0
M  V30 6250 H 605.572 3.64892 -1.43515 0
M  V30 6251 H 607.062 4.13646 -0.573323 0
M  V30 6252 N 607.499 1.09233 1.13605 0
M  V30 6253 C 608.747 0.825525 1.84471 0
M  V30 6254 C 609.068 -0.650702 1.83823 0
M  V30 6255 O 608.338 -1.47204 1.29259 0
M  V30 6256 H 606.918 0.3024 0.683054 0
M  V30 6257 H 609.58 1.38006 1.37624 0
M  V30 6258 H 608.676 1.17727 2.89045 0
M  V30 6259 N 608.977 -1.30795 0.87923 0
M  V30 6260 C 610.254 -1.91145 0.415086 0
M  V30 6261 C 610.634 -1.7995 -1.10368 0
M  V30 6262 O 609.982 -1.21305 -1.93642 0
M  V30 6263 C 610.192 -3.37014 0.906778 0
M  V30 6264 C 611.54 -4.14101 0.938358 0
M  V30 6265 O 612.564 -3.45834 0.853053 0
M  V30 6266 O 611.423 -5.36054 1.06342 0
M  V30 6267 H 608.517 -0.81736 0.125905 0
M  V30 6268 H 611.063 -1.39401 0.967753 0
M  V30 6269 H 609.835 -3.3922 1.95053 0
M  V30 6270 H 609.458 -3.96204 0.332948 0
M  V30 6271 N 610.455 -0.639598 -1.44038 0
M  V30 6272 C 611.701 -0.147698 -2.02261 0
M  V30 6273 C 612.034 1.23031 -1.50256 0
M  V30 6274 O 611.309 1.81847 -0.690068 0
M  V30 6275 C 611.592 -0.14362 -3.59813 0
M  V30 6276 C 611.445 -1.55458 -4.22082 0
M  V30 6277 C 612.764 0.527317 -4.36929 0
M  V30 6278 H 609.883 -0.0551453 -0.734934 0
M  V30 6279 H 612.525 -0.817688 -1.71505 0
M  V30 6280 H 610.675 0.426898 -3.86147 0
M  V30 6281 H 612.347 -2.17464 -4.06826 0
M  V30 6282 H 610.59 -2.10594 -3.79253 0
M  V30 6283 H 611.261 -1.50369 -5.31124 0
M  V30 6284 H 613.737 0.0420504 -4.16079 0
M  V30 6285 H 612.613 0.499389 -5.46624 0
M  V30 6286 H 612.874 1.59914 -4.12165 0
M  V30 6287 N 611.933 1.52934 -0.380664 0
M  V30 6288 C 612.843 2.29921 0.466192 0
M  V30 6289 C 613.859 1.36488 1.07922 0
M  V30 6290 O 615.035 1.69553 1.0869 0
M  V30 6291 C 612.1 3.08468 1.58266 0
M  V30 6292 C 611.161 4.17595 0.995627 0
M  V30 6293 C 610.394 4.92387 2.05889 0
M  V30 6294 O 610.617 4.67184 3.27254 0
M  V30 6295 O 609.551 5.77949 1.68102 0
M  V30 6296 H 613.377 3.03274 -0.160735 0
M  V30 6297 H 610.962 1.48698 -0.144617 0
M  V30 6298 H 612.844 3.57469 2.23145 0
M  V30 6299 H 611.519 2.37937 2.19471 0
M  V30 6300 H 610.426 3.72811 0.310332 0
M  V30 6301 H 611.759 4.90336 0.427918 0
M  V30 6302 N 613.412 0.11024 1.57214 0
M  V30 6303 C 614.375 -0.828808 2.1369 0
M  V30 6304 C 615.375 -1.20059 1.06969 0
M  V30 6305 O 616.565 -1.12754 1.32786 0
M  V30 6306 C 613.697 -2.11959 2.66994 0
M  V30 6307 H 614.89 -0.338146 2.97988 0
M  V30 6308 H 612.443 -0.138913 1.55681 0
M  V30 6309 H 613.178 -2.65476 1.8626 0
M  V30 6310 H 612.963 -1.86258 3.45037 0
M  V30 6311 H 614.453 -2.79105 3.10629 0
M  V30 6312 N 614.89 -1.56749 -0.16351 0
M  V30 6313 C 615.82 -2.00042 -1.20438 0
M  V30 6314 C 616.801 -0.877256 -1.45733 0
M  V30 6315 O 617.986 -1.1439 -1.56935 0
M  V30 6316 C 615.116 -2.36697 -2.54149 0
M  V30 6317 C 614.07 -3.52046 -2.43408 0
M  V30 6318 C 613.396 -3.74466 -3.81679 0
M  V30 6319 C 614.696 -4.85247 -1.93216 0
M  V30 6320 H 616.39 -2.87244 -0.844477 0
M  V30 6321 H 613.936 -1.38194 -0.40478 0
M  V30 6322 H 615.889 -2.65582 -3.27176 0
M  V30 6323 H 614.613 -1.46414 -2.91943 0
M  V30 6324 H 613.272 -3.23301 -1.72834 0
M  V30 6325 H 612.92 -2.81461 -4.1688 0
M  V30 6326 H 612.62 -4.52084 -3.75359 0
M  V30 6327 H 614.144 -4.0576 -4.5628 0
M  V30 6328 H 615.558 -5.12957 -2.56023 0
M  V30 6329 H 613.955 -5.66556 -1.97825 0
M  V30 6330 H 615.025 -4.7672 -0.88689 0
M  V30 6331 N 616.368 0.432326 -1.51554 0
M  V30 6332 C 617.3 1.54357 -1.6943 0
M  V30 6333 C 618.313 1.52311 -0.574897 0
M  V30 6334 O 619.502 1.56997 -0.849369 0
M  V30 6335 C 616.602 2.93273 -1.69836 0
M  V30 6336 C 615.775 3.19768 -2.98442 0
M  V30 6337 C 614.834 4.38433 -2.90969 0
M  V30 6338 O 613.86 4.36842 -3.64908 0
M  V30 6339 N 615.062 5.42276 -2.07163 0
M  V30 6340 H 617.827 1.39426 -2.65293 0
M  V30 6341 H 615.388 0.621331 -1.49503 0
M  V30 6342 H 617.38 3.70687 -1.62399 0
M  V30 6343 H 615.95 3.01777 -0.815456 0
M  V30 6344 H 615.17 2.30607 -3.19709 0
M  V30 6345 H 616.458 3.343 -3.83563 0
M  V30 6346 H 615.856 5.46407 -1.46477 0
M  V30 6347 H 614.413 6.18524 -2.05601 0
M  V30 6348 N 617.846 1.41785 0.688094 0
M  V30 6349 C 618.809 1.43936 1.78368 0
M  V30 6350 C 619.809 0.328866 1.57401 0
M  V30 6351 O 620.999 0.589093 1.63937 0
M  V30 6352 C 618.131 1.25804 3.16838 0
M  V30 6353 H 619.324 2.41472 1.77852 0
M  V30 6354 H 616.877 1.28037 0.896448 0
M  V30 6355 H 617.612 0.291386 3.22988 0
M  V30 6356 H 617.397 2.06272 3.33458 0
M  V30 6357 H 618.887 1.30162 3.96797 0
M  V30 6358 N 619.324 -0.923095 1.27737 0
M  V30 6359 C 620.254 -2.04124 1.13383 0
M  V30 6360 C 621.235 -1.70066 0.0340658 0
M  V30 6361 O 622.42 -1.93068 0.209383 0
M  V30 6362 C 619.55 -3.3831 0.785097 0
M  V30 6363 C 618.504 -3.86496 1.8386 0
M  V30 6364 C 617.83 -5.1754 1.34373 0
M  V30 6365 C 619.13 -4.09381 3.24353 0
M  V30 6366 H 620.824 -2.1639 2.06919 0
M  V30 6367 H 618.37 -1.03976 0.996243 0
M  V30 6368 H 620.323 -4.16016 0.671485 0
M  V30 6369 H 619.047 -3.2607 -0.185969 0
M  V30 6370 H 617.706 -3.10987 1.9412 0
M  V30 6371 H 617.354 -5.01696 0.361989 0
M  V30 6372 H 617.054 -5.50751 2.04811 0
M  V30 6373 H 618.578 -5.97811 1.24315 0
M  V30 6374 H 619.992 -4.77641 3.17067 0
M  V30 6375 H 618.389 -4.53906 3.92542 0
M  V30 6376 H 619.459 -3.14515 3.69064 0
M  V30 6377 N 620.802 -1.09834 -1.13024 0
M  V30 6378 C 622.048 -0.83819 -1.84668 0
M  V30 6379 C 622.381 0.634645 -1.83537 0
M  V30 6380 O 621.656 1.46753 -1.27647 0
M  V30 6381 C 621.939 -1.37933 -3.32636 0
M  V30 6382 C 621.792 -2.91857 -3.42257 0
M  V30 6383 C 623.111 -1.01654 -4.28199 0
M  V30 6384 H 620.23 -0.30595 -0.670495 0
M  V30 6385 H 622.872 -1.36044 -1.32635 0
M  V30 6386 H 621.022 -0.935111 -3.77078 0
M  V30 6387 H 622.694 -3.44759 -3.06495 0
M  V30 6388 H 620.937 -3.28776 -2.83 0
M  V30 6389 H 621.608 -3.24799 -4.46329 0
M  V30 6390 H 624.084 -1.39973 -3.9185 0
M  V30 6391 H 622.96 -1.42217 -5.30156 0
M  V30 6392 H 623.221 0.0747794 -4.42037 0
M  V30 6393 N 622.28 1.30327 -0.886154 0
M  V30 6394 C 623.19 2.31854 -0.357866 0
M  V30 6395 C 624.206 1.65392 0.540502 0
M  V30 6396 O 625.382 1.96683 0.433339 0
M  V30 6397 C 622.447 3.44171 0.417999 0
M  V30 6398 C 621.508 4.26257 -0.510263 0
M  V30 6399 C 620.741 5.3321 0.228669 0
M  V30 6400 O 620.964 5.51542 1.45458 0
M  V30 6401 O 619.898 6.0042 -0.421832 0
M  V30 6402 H 623.724 2.78995 -1.19982 0
M  V30 6403 H 621.309 1.34518 -0.650028 0
M  V30 6404 H 623.191 4.12588 0.857251 0
M  V30 6405 H 621.866 2.99164 1.23623 0
M  V30 6406 H 620.773 3.60533 -0.99835 0
M  V30 6407 H 622.106 4.74871 -1.29454 0
M  V30 6408 N 623.758 0.647228 1.43697 0
M  V30 6409 C 624.688 -0.0345631 2.33474 0
M  V30 6410 C 625.669 -0.818193 1.4913 0
M  V30 6411 O 626.854 -0.780867 1.77809 0
M  V30 6412 C 623.984 -1.00576 3.32418 0
M  V30 6413 C 622.938 -0.33266 4.26705 0
M  V30 6414 C 622.264 -1.41489 5.1564 0
M  V30 6415 C 623.564 0.771204 5.16575 0
M  V30 6416 H 625.258 0.715163 2.90733 0
M  V30 6417 H 622.804 0.345364 1.39797 0
M  V30 6418 H 624.757 -1.49159 3.94119 0
M  V30 6419 H 623.481 -1.78657 2.73403 0
M  V30 6420 H 622.14 0.13267 3.6636 0
M  V30 6421 H 621.788 -2.18698 4.52968 0
M  V30 6422 H 621.488 -0.969799 5.79542 0
M  V30 6423 H 623.012 -1.9022 5.80214 0
M  V30 6424 H 624.426 0.36779 5.72119 0
M  V30 6425 H 622.823 1.1404 5.89165 0
M  V30 6426 H 623.893 1.63169 4.56622 0
M  V30 6427 N 625.236 -1.5273 0.388769 0
M  V30 6428 C 626.484 -2.01174 -0.193208 0
M  V30 6429 C 626.805 -1.27705 -1.47365 0
M  V30 6430 O 626.075 -0.396966 -1.91836 0
M  V30 6431 H 624.655 -0.743287 -0.0743871 0
M  V30 6432 H 627.317 -1.87826 0.520336 0
M  V30 6433 H 626.413 -3.09477 -0.403803 0
M  V30 6434 N 626.714 -0.118576 -1.57153 0
M  V30 6435 C 627.939 0.550582 -1.99958 0
M  V30 6436 C 628.364 1.59458 -0.997736 0
M  V30 6437 O 627.722 1.81274 0.0306269 0
M  V30 6438 C 627.77 1.15379 -3.41643 0
M  V30 6439 O 626.874 2.26932 -3.44348 0
M  V30 6440 H 626.215 0.137567 -0.649593 0
M  V30 6441 H 628.745 -0.206926 -2.03551 0
M  V30 6442 H 628.755 1.48942 -3.79843 0
M  V30 6443 H 627.43 0.389087 -4.14076 0
M  V30 6444 H 626.007 1.94812 -3.17967 0
M  V30 6445 N 628.193 1.56834 0.155195 0
M  V30 6446 C 629.47 1.73799 0.897395 0
M  V30 6447 C 629.85 0.684379 1.99698 0
M  V30 6448 O 629.198 -0.298111 2.26547 0
M  V30 6449 C 629.408 3.17572 1.44737 0
M  V30 6450 C 630.756 3.79014 1.91399 0
M  V30 6451 O 631.78 3.20951 1.54496 0
M  V30 6452 O 630.639 4.80998 2.59429 0
M  V30 6453 H 627.733 0.710329 0.423511 0
M  V30 6454 H 630.279 1.69107 0.141761 0
M  V30 6455 H 629.051 3.85749 0.656741 0
M  V30 6456 H 628.674 3.26657 2.26674 0
M  V30 6457 N 629.671 -0.424282 1.51781 0
M  V30 6458 C 630.601 -1.52305 1.7699 0
M  V30 6459 C 631.582 -1.5839 0.620209 0
M  V30 6460 O 632.767 -1.73908 0.864268 0
M  V30 6461 C 629.897 -2.90271 1.90683 0
M  V30 6462 C 628.851 -2.99043 3.06198 0
M  V30 6463 C 628.177 -4.39116 3.05092 0
M  V30 6464 C 629.477 -2.7192 4.45934 0
M  V30 6465 H 631.171 -1.31461 2.68995 0
M  V30 6466 H 628.717 -0.630985 1.29439 0
M  V30 6467 H 630.67 -3.6711 2.06901 0
M  V30 6468 H 629.394 -3.12376 0.953365 0
M  V30 6469 H 628.053 -2.24646 2.89706 0
M  V30 6470 H 627.701 -4.58207 2.07498 0
M  V30 6471 H 627.401 -4.45912 3.82669 0
M  V30 6472 H 628.925 -5.17911 3.2342 0
M  V30 6473 H 630.339 -3.38487 4.62709 0
M  V30 6474 H 628.736 -2.90111 5.25315 0
M  V30 6475 H 629.806 -1.67445 4.55072 0
M  V30 6476 N 631.149 -1.42148 -0.680565 0
M  V30 6477 C 632.397 -1.42029 -1.43779 0
M  V30 6478 C 632.718 -0.0356347 -1.94967 0
M  V30 6479 O 631.988 0.924936 -1.7269 0
M  V30 6480 H 630.568 -0.522835 -0.533529 0
M  V30 6481 H 633.23 -1.7752 -0.804538 0
M  V30 6482 H 632.326 -2.11658 -2.29363 0
M  V30 6483 N 632.627 0.916307 -1.28225 0
M  V30 6484 C 633.557 2.0352 -1.14464 0
M  V30 6485 C 634.538 1.70045 -0.0430844 0
M  V30 6486 O 635.723 1.92954 -0.219619 0
M  V30 6487 C 632.853 3.37889 -0.803027 0
M  V30 6488 C 631.807 3.85516 -1.85908 0
M  V30 6489 C 631.133 5.1682 -1.37116 0
M  V30 6490 C 632.433 4.07655 -3.26519 0
M  V30 6491 H 634.127 2.1529 -2.08064 0
M  V30 6492 H 631.673 1.03446 -1.00174 0
M  V30 6493 H 633.626 4.15654 -0.693537 0
M  V30 6494 H 632.35 3.26164 0.168674 0
M  V30 6495 H 631.009 3.09953 -1.95767 0
M  V30 6496 H 630.657 5.01497 -0.38859 0
M  V30 6497 H 630.357 5.49657 -2.07728 0
M  V30 6498 H 631.881 5.97143 -1.27484 0
M  V30 6499 H 633.295 4.75953 -3.19596 0
M  V30 6500 H 631.692 4.51818 -3.94943 0
M  V30 6501 H 632.762 3.12553 -3.70727 0
M  V30 6502 N 634.105 1.10431 1.1244 0
M  V30 6503 C 635.351 0.847972 1.84221 0
M  V30 6504 C 635.684 -0.624903 1.83871 0
M  V30 6505 O 634.959 -1.46074 1.28423 0
M  V30 6506 C 635.242 1.39695 3.319 0
M  V30 6507 C 635.095 2.93668 3.40704 0
M  V30 6508 C 636.414 1.03924 4.27654 0
M  V30 6509 H 633.533 0.309502 0.668863 0
M  V30 6510 H 636.175 1.36745 1.31912 0
M  V30 6511 H 634.325 0.955095 3.76577 0
M  V30 6512 H 635.997 3.46379 3.04662 0
M  V30 6513 H 634.24 3.30272 2.81252 0
M  V30 6514 H 634.911 3.27162 4.446 0
M  V30 6515 H 637.387 1.42049 3.91102 0
M  V30 6516 H 636.263 1.45027 5.29394 0
M  V30 6517 H 636.524 -0.051336 4.4207 0
M  V30 6518 N 635.583 -1.29855 0.893053 0
M  V30 6519 C 636.86 -1.90694 0.435336 0
M  V30 6520 C 637.24 -1.8111 -1.08454 0
M  V30 6521 O 636.588 -1.23352 -1.92345 0
M  V30 6522 C 636.798 -3.36033 0.942472 0
M  V30 6523 C 638.146 -4.13083 0.982226 0
M  V30 6524 O 639.17 -3.4491 0.889686 0
M  V30 6525 O 638.029 -5.34896 1.12022 0
M  V30 6526 H 635.123 -0.815978 0.134567 0
M  V30 6527 H 637.669 -1.38367 0.982484 0
M  V30 6528 H 636.441 -3.37132 1.9864 0
M  V30 6529 H 636.064 -3.95828 0.374952 0
M  V30 6530 N 637.061 -0.65484 -1.43351 0
M  V30 6531 C 638.308 -0.168892 -2.01794 0
M  V30 6532 C 638.636 1.2177 -1.51665 0
M  V30 6533 O 637.891 1.82717 -0.70092 0
M  V30 6534 C 638.19 -0.130424 -3.57162 0
M  V30 6535 C 637.856 -1.45898 -4.26643 0
M  V30 6536 C 636.518 -1.82279 -4.4534 0
M  V30 6537 C 638.87 -2.33485 -4.65976 0
M  V30 6538 C 636.198 -3.0591 -5.00635 0
M  V30 6539 C 638.55 -3.5641 -5.22642 0
M  V30 6540 C 637.214 -3.92985 -5.39555 0
M  V30 6541 H 636.484 -0.061802 -0.738418 0
M  V30 6542 H 639.131 -0.845869 -1.71806 0
M  V30 6543 H 637.436 0.630008 -3.86702 0
M  V30 6544 H 639.133 0.262465 -4.0014 0
M  V30 6545 H 635.723 -1.16591 -4.12437 0
M  V30 6546 H 639.907 -2.06668 -4.51223 0
M  V30 6547 H 635.163 -3.34295 -5.11915 0
M  V30 6548 H 639.337 -4.24495 -5.52066 0
M  V30 6549 H 636.964 -4.88862 -5.82167 0
M  V30 6550 N 638.539 1.52521 -0.396863 0
M  V30 6551 C 639.487 2.28217 0.44943 0
M  V30 6552 C 640.481 1.32416 1.05652 0
M  V30 6553 O 641.687 1.49925 0.996124 0
M  V30 6554 H 638.062 0.733966 0.1637 0
M  V30 6555 H 640.033 2.97658 -0.210367 0
M  V30 6556 C 638.782 3.10713 1.56054 0
M  V30 6557 H 638.105 3.84291 1.10273 0
M  V30 6558 H 639.545 3.66803 2.12677 0
M  V30 6559 C 638.004 2.23499 2.52091 0
M  V30 6560 O 638.534 1.8669 3.55682 0
M  V30 6561 N 636.74 1.8751 2.2201 0
M  V30 6562 H 636.287 2.17643 1.37802 0
M  V30 6563 H 636.245 1.29448 2.86514 0
M  V30 6564 N 640.017 0.126909 1.57088 0
M  V30 6565 C 641.265 -0.528123 1.95078 0
M  V30 6566 C 641.586 -1.66708 1.0116 0
M  V30 6567 O 640.856 -1.95777 0.0693527 0
M  V30 6568 H 639.436 -0.198087 0.720257 0
M  V30 6569 H 642.098 0.197703 1.93895 0
M  V30 6570 H 641.194 -0.917507 2.98309 0
M  V30 6571 N 641.495 -1.56914 -0.146875 0
M  V30 6572 C 642.427 -1.94878 -1.20645 0
M  V30 6573 C 643.44 -0.844633 -1.39175 0
M  V30 6574 O 644.629 -1.12304 -1.38744 0
M  V30 6575 C 641.729 -2.20769 -2.57127 0
M  V30 6576 C 640.902 -3.52053 -2.59572 0
M  V30 6577 C 639.961 -3.66482 -3.77594 0
M  V30 6578 O 638.987 -4.38873 -3.62462 0
M  V30 6579 N 640.189 -3.03156 -4.95052 0
M  V30 6580 H 642.954 -2.86374 -0.883757 0
M  V30 6581 H 640.515 -1.58366 -0.336436 0
M  V30 6582 H 642.507 -2.27664 -3.34591 0
M  V30 6583 H 641.077 -1.35538 -2.81688 0
M  V30 6584 H 640.297 -3.56598 -1.68023 0
M  V30 6585 H 641.585 -4.38396 -2.58238 0
M  V30 6586 H 640.983 -2.44258 -5.10249 0
M  V30 6587 H 639.54 -3.15611 -5.70292 0
M  V30 6588 N 642.974 0.416227 -1.52004 0
M  V30 6589 C 644.202 1.18573 -1.69553 0
M  V30 6590 C 644.617 1.84472 -0.401919 0
M  V30 6591 O 643.974 1.71593 0.621463 0
M  V30 6592 C 644.025 2.25413 -2.82615 0
M  V30 6593 O 643.746 1.62205 -4.06966 0
M  V30 6594 C 645.247 3.15297 -3.11613 0
M  V30 6595 H 642.467 0.356582 -0.56841 0
M  V30 6596 H 645.011 0.490618 -1.98528 0
M  V30 6597 H 643.166 2.90604 -2.56179 0
M  V30 6598 H 643.58 2.3298 -4.69916 0
M  V30 6599 H 645.054 3.86351 -3.94255 0
M  V30 6600 H 645.531 3.77264 -2.24874 0
M  V30 6601 H 646.137 2.55783 -3.39787 0
M  V30 6602 N 644.452 1.42507 0.673017 0
M  V30 6603 C 645.863 1.38347 1.25367 0
M  V30 6604 C 646.214 0.0776327 1.96046 0
M  V30 6605 O 645.339 -0.823571 2.00116 0
M  V30 6606 C 645.934 2.506 2.28002 0
M  V30 6607 C 644.493 2.49767 2.81591 0
M  V30 6608 C 643.64 2.293 1.55938 0
M  V30 6609 H 646.591 1.51695 0.466288 0
M  V30 6610 H 646.612 2.20953 3.09774 0
M  V30 6611 H 646.124 3.45627 1.76532 0
M  V30 6612 H 644.225 1.58563 3.37177 0
M  V30 6613 H 644.338 3.46867 3.30485 0
M  V30 6614 H 642.702 1.77594 1.82572 0
M  V30 6615 H 643.485 3.26385 1.06431 0
M  V30 6616 N 645.93 -0.909495 1.28709 0
M  V30 6617 C 646.86 -2.0291 1.15542 0
M  V30 6618 C 647.841 -1.7002 0.0521017 0
M  V30 6619 O 649.026 -1.92835 0.229849 0
M  V30 6620 C 646.156 -3.37458 0.820935 0
M  V30 6621 C 645.11 -3.84524 1.87949 0
M  V30 6622 C 644.436 -5.16086 1.39854 0
M  V30 6623 C 645.736 -4.05918 3.28676 0
M  V30 6624 H 647.43 -2.14183 2.09203 0
M  V30 6625 H 644.976 -1.02913 1.00722 0
M  V30 6626 H 646.929 -4.1528 0.715571 0
M  V30 6627 H 645.653 -3.26249 -0.151374 0
M  V30 6628 H 644.312 -3.08911 1.97408 0
M  V30 6629 H 643.96 -5.01284 0.41518 0
M  V30 6630 H 643.66 -5.48547 2.1064 0
M  V30 6631 H 645.184 -5.96459 1.30649 0
M  V30 6632 H 646.598 -4.74252 3.22115 0
M  V30 6633 H 644.995 -4.49717 3.97334 0
M  V30 6634 H 646.065 -3.10583 3.72379 0
M  V30 6635 N 647.408 -1.11026 -1.11852 0
M  V30 6636 C 648.358 -0.733836 -2.15868 0
M  V30 6637 C 649.342 0.26001 -1.58785 0
M  V30 6638 O 650.534 0.0677901 -1.7687 0
M  V30 6639 C 647.663 -0.173948 -3.42859 0
M  V30 6640 C 646.749 -1.1952 -4.0691 0
M  V30 6641 N 647.14 -2.38797 -4.45881 0
M  V30 6642 C 645.438 -1.03714 -4.33773 0
M  V30 6643 C 646.139 -3.03894 -4.96007 0
M  V30 6644 N 645.115 -2.31389 -4.91894 0
M  V30 6645 H 648.917 -1.64171 -2.43773 0
M  V30 6646 H 646.431 -0.988877 -1.28822 0
M  V30 6647 H 648.428 0.113836 -4.16745 0
M  V30 6648 H 647.088 0.728568 -3.16421 0
M  V30 6649 H 648.099 -2.76281 -4.38051 0
M  V30 6650 H 644.776 -0.190694 -4.17064 0
M  V30 6651 H 646.166 -4.05389 -5.35826 0
M  V30 6652 N 648.886 1.2938 -0.899927 0
M  V30 6653 C 649.849 2.25983 -0.382677 0
M  V30 6654 C 650.849 1.53366 0.483259 0
M  V30 6655 O 652.039 1.71798 0.28828 0
M  V30 6656 C 649.171 3.37878 0.452915 0
M  V30 6657 H 650.364 2.73252 -1.23586 0
M  V30 6658 H 647.917 1.40825 -0.678088 0
M  V30 6659 H 648.652 2.95949 1.32608 0
M  V30 6660 H 648.437 3.91742 -0.167562 0
M  V30 6661 H 649.927 4.09746 0.806107 0
M  V30 6662 N 650.364 0.662433 1.43002 0
M  V30 6663 C 651.327 -0.0142016 2.29196 0
M  V30 6664 C 652.327 -0.741394 1.42688 0
M  V30 6665 O 653.517 -0.581257 1.64216 0
M  V30 6666 C 650.649 -1.03084 3.24941 0
M  V30 6667 H 651.842 0.7443 2.90517 0
M  V30 6668 H 649.395 0.424133 1.50435 0
M  V30 6669 H 650.13 -1.81826 2.68533 0
M  V30 6670 H 649.915 -0.512946 3.8873 0
M  V30 6671 H 651.405 -1.50308 3.89612 0
M  V30 6672 N 651.842 -1.52309 0.404946 0
M  V30 6673 C 652.805 -2.25491 -0.410651 0
M  V30 6674 C 653.805 -1.27704 -0.977154 0
M  V30 6675 O 654.995 -1.51679 -0.856691 0
M  V30 6676 C 652.127 -3.02197 -1.57765 0
M  V30 6677 H 653.32 -2.99015 0.230277 0
M  V30 6678 H 650.873 -1.55506 0.157377 0
M  V30 6679 H 651.608 -2.33013 -2.25556 0
M  V30 6680 H 651.393 -3.73987 -1.17797 0
M  V30 6681 H 652.883 -3.57719 -2.15469 0
M  V30 6682 N 653.32 -0.135238 -1.57019 0
M  V30 6683 C 654.736 0.221262 -1.58059 0
M  V30 6684 C 654.936 1.65538 -1.14889 0
M  V30 6685 O 653.992 2.37985 -0.843751 0
M  V30 6686 C 655.305 -0.0268114 -3.00688 0
M  V30 6687 C 656.853 0.0378206 -3.12977 0
M  V30 6688 C 657.328 -0.182769 -4.57635 0
M  V30 6689 N 658.819 -0.129292 -4.6302 0
M  V30 6690 C 659.554 -0.274648 -5.72742 0
M  V30 6691 N 659.05 -0.477075 -6.91155 0
M  V30 6692 N 660.843 -0.213077 -5.61696 0
M  V30 6693 H 652.994 -1.07177 -1.83376 0
M  V30 6694 H 655.257 -0.423338 -0.848227 0
M  V30 6695 H 654.963 -1.01889 -3.36618 0
M  V30 6696 H 654.837 0.697863 -3.70688 0
M  V30 6697 H 657.224 1.02043 -2.76896 0
M  V30 6698 H 657.305 -0.718996 -2.45487 0
M  V30 6699 H 656.949 -1.16243 -4.94419 0
M  V30 6700 H 656.879 0.59423 -5.23237 0
M  V30 6701 H 659.37 0.0229896 -3.77893 0
M  V30 6702 H 659.683 -0.578413 -7.70632 0
M  V30 6703 H 658.028 -0.513252 -6.93102 0
M  V30 6704 H 661.219 -0.0557796 -4.68067 0
M  V30 6705 H 661.392 -0.329796 -6.4716 0
M  V30 6706 N 654.798 1.5699 0.138552 0
M  V30 6707 C 656.046 1.83446 0.848053 0
M  V30 6708 C 656.367 0.71744 1.81322 0
M  V30 6709 O 655.637 -0.260228 1.94164 0
M  V30 6710 H 654.217 0.676792 0.316166 0
M  V30 6711 H 656.879 1.94462 0.130538 0
M  V30 6712 H 655.975 2.78677 1.40518 0
M  V30 6713 N 656.276 -0.40816 1.52223 0
M  V30 6714 C 657.524 -1.15274 1.66001 0
M  V30 6715 C 657.845 -1.91003 0.392803 0
M  V30 6716 O 657.115 -1.8673 -0.592336 0
M  V30 6717 H 655.695 -0.428526 0.611861 0
M  V30 6718 H 658.357 -0.46512 1.89269 0
M  V30 6719 H 657.453 -1.86628 2.50153 0
M  V30 6720 N 657.755 -1.42862 -0.66545 0
M  V30 6721 C 658.705 -1.43521 -1.7716 0
M  V30 6722 C 659.689 -0.305267 -1.57978 0
M  V30 6723 O 660.881 -0.548176 -1.68297 0
M  V30 6724 C 658.01 -1.34914 -3.15679 0
M  V30 6725 C 657.096 -2.5289 -3.40452 0
M  V30 6726 N 657.487 -3.78284 -3.3576 0
M  V30 6727 C 655.785 -2.47351 -3.71124 0
M  V30 6728 C 656.486 -4.56701 -3.60276 0
M  V30 6729 N 655.462 -3.87249 -3.81496 0
M  V30 6730 H 659.264 -2.38357 -1.7194 0
M  V30 6731 H 656.778 -1.37342 -0.866653 0
M  V30 6732 H 658.775 -1.33468 -3.94958 0
M  V30 6733 H 657.435 -0.410881 -3.2209 0
M  V30 6734 H 658.446 -4.10746 -3.15448 0
M  V30 6735 H 655.123 -1.62152 -3.84725 0
M  V30 6736 H 656.513 -5.65704 -3.6253 0
M  V30 6737 N 659.233 0.902656 -1.29189 0
M  V30 6738 C 660.461 1.68639 -1.19869 0
M  V30 6739 C 660.876 1.87254 0.241121 0
M  V30 6740 O 660.233 1.40745 1.16177 0
M  V30 6741 C 660.284 3.07251 -1.90471 0
M  V30 6742 O 660.005 2.89488 -3.28829 0
M  V30 6743 C 661.506 4.01653 -1.8759 0
M  V30 6744 H 658.726 0.526802 -0.415596 0
M  V30 6745 H 661.27 1.12901 -1.7051 0
M  V30 6746 H 659.425 3.59774 -1.43672 0
M  V30 6747 H 659.839 3.77296 -3.64346 0
M  V30 6748 H 661.313 4.96339 -2.4156 0
M  V30 6749 H 661.79 4.30881 -0.850756 0
M  V30 6750 H 662.396 3.55061 -2.34119 0
M  V30 6751 N 660.711 1.11618 1.11262 0
M  V30 6752 C 661.621 0.78898 2.20935 0
M  V30 6753 C 662.637 -0.21867 1.7262 0
M  V30 6754 O 663.813 -0.0543826 2.01327 0
M  V30 6755 C 660.878 0.239014 3.45875 0
M  V30 6756 C 659.939 1.3055 4.08968 0
M  V30 6757 C 659.172 0.781687 5.27944 0
M  V30 6758 O 659.395 -0.387605 5.69082 0
M  V30 6759 O 658.329 1.54734 5.81671 0
M  V30 6760 H 662.155 1.70477 2.51339 0
M  V30 6761 H 659.74 0.892203 1.19834 0
M  V30 6762 H 661.622 -0.0632312 4.21353 0
M  V30 6763 H 660.297 -0.649454 3.17118 0
M  V30 6764 H 659.204 1.66079 3.35214 0
M  V30 6765 H 660.537 2.16743 4.41909 0
M  V30 6766 N 662.189 -1.289 0.906776 0
M  V30 6767 C 663.152 -2.25777 0.394656 0
M  V30 6768 C 664.152 -1.53621 -0.475119 0
M  V30 6769 O 665.342 -1.71949 -0.279165 0
M  V30 6770 C 662.474 -3.38113 -0.43499 0
M  V30 6771 H 663.667 -2.72592 1.25033 0
M  V30 6772 H 661.22 -1.40463 0.685547 0
M  V30 6773 H 661.955 -2.96648 -1.31036 0
M  V30 6774 H 661.74 -3.91647 0.188334 0
M  V30 6775 H 663.23 -4.10168 -0.784365 0
M  V30 6776 N 663.667 -0.670007 -1.42649 0
M  V30 6777 C 664.913 -0.190568 -2.01903 0
M  V30 6778 C 665.246 1.19817 -1.52832 0
M  V30 6779 O 664.521 1.80342 -0.728485 0
M  V30 6780 C 664.804 -0.21991 -3.59428 0
M  V30 6781 C 664.657 -1.64376 -4.18689 0
M  V30 6782 C 665.976 0.434519 -4.3795 0
M  V30 6783 H 663.095 -0.0707219 -0.733599 0
M  V30 6784 H 665.737 -0.853883 -1.69732 0
M  V30 6785 H 663.887 0.344894 -3.86966 0
M  V30 6786 H 665.559 -2.26044 -4.02122 0
M  V30 6787 H 663.802 -2.18591 -3.747 0
M  V30 6788 H 664.473 -1.61601 -5.27815 0
M  V30 6789 H 666.949 -0.0462156 -4.16074 0
M  V30 6790 H 665.825 0.38333 -5.4756 0
M  V30 6791 H 666.086 1.51135 -4.15464 0
M  V30 6792 N 665.145 1.52092 -0.413018 0
M  V30 6793 C 666.373 2.06274 0.160881 0
M  V30 6794 C 666.788 1.28273 1.38533 0
M  V30 6795 O 666.145 0.33563 1.79387 0
M  V30 6796 C 666.196 3.57921 0.507443 0
M  V30 6797 O 665.917 4.32971 -0.668388 0
M  V30 6798 C 667.418 4.28533 1.13465 0
M  V30 6799 H 664.638 0.67074 0.0186759 0
M  V30 6800 H 667.182 1.95951 -0.585092 0
M  V30 6801 H 665.337 3.68238 1.20331 0
M  V30 6802 H 665.751 5.23135 -0.378169 0
M  V30 6803 H 667.225 5.35804 1.32732 0
M  V30 6804 H 667.702 3.85258 2.10886 0
M  V30 6805 H 668.308 4.22595 0.478876 0
M  V30 6806 N 666.623 0.143563 1.56945 0
M  V30 6807 C 667.556 -0.835367 2.1236 0
M  V30 6808 C 668.534 -1.24466 1.04627 0
M  V30 6809 O 669.718 -1.34138 1.32436 0
M  V30 6810 C 666.845 -2.12123 2.64048 0
M  V30 6811 C 665.891 -1.85812 3.83896 0
M  V30 6812 S 666.724 -1.05222 5.25061 0
M  V30 6813 C 667.88 -2.34935 5.80135 0
M  V30 6814 H 668.113 -0.364109 2.95062 0
M  V30 6815 H 665.646 -0.0706601 1.54238 0
M  V30 6816 H 667.604 -2.85993 2.94479 0
M  V30 6817 H 666.265 -2.56364 1.81483 0
M  V30 6818 H 665.458 -2.81151 4.18294 0
M  V30 6819 H 665.06 -1.20052 3.54208 0
M  V30 6820 H 667.352 -3.3061 5.91357 0
M  V30 6821 H 668.295 -2.05046 6.77762 0
M  V30 6822 H 668.703 -2.45426 5.08356 0
M  V30 6823 N 668.101 -1.57061 -0.130224 0
M  V30 6824 C 669.031 -2.02552 -1.16168 0
M  V30 6825 C 670.012 -0.907971 -1.4384 0
M  V30 6826 O 671.197 -1.17693 -1.54473 0
M  V30 6827 C 668.327 -2.42035 -2.49071 0
M  V30 6828 C 667.281 -3.5713 -2.35886 0
M  V30 6829 C 666.607 -3.82478 -3.7365 0
M  V30 6830 C 667.907 -4.89236 -1.8288 0
M  V30 6831 H 669.601 -2.8897 -0.783359 0
M  V30 6832 H 667.147 -1.39021 -0.375376 0
M  V30 6833 H 669.1 -2.72462 -3.21469 0
M  V30 6834 H 667.824 -1.52573 -2.88771 0
M  V30 6835 H 666.483 -3.26895 -1.65938 0
M  V30 6836 H 666.131 -2.9024 -4.10816 0
M  V30 6837 H 665.831 -4.59944 -3.65685 0
M  V30 6838 H 667.355 -4.15347 -4.47571 0
M  V30 6839 H 668.769 -5.18272 -2.45085 0
M  V30 6840 H 667.166 -5.70624 -1.85763 0
M  V30 6841 H 668.236 -4.78494 -0.785571 0
M  V30 6842 N 669.579 0.400081 -1.52437 0
M  V30 6843 C 670.509 1.4947 -1.7939 0
M  V30 6844 C 671.49 1.57383 -0.645329 0
M  V30 6845 O 672.675 1.72511 -0.891826 0
M  V30 6846 C 669.805 2.87201 -1.95276 0
M  V30 6847 C 668.759 2.94134 -3.10917 0
M  V30 6848 C 668.085 4.34207 -3.1204 0
M  V30 6849 C 669.385 2.64791 -4.50203 0
M  V30 6850 H 671.079 1.27165 -2.71052 0
M  V30 6851 H 668.625 0.610312 -1.30427 0
M  V30 6852 H 670.578 3.63772 -2.12715 0
M  V30 6853 H 669.302 3.10819 -1.00294 0
M  V30 6854 H 667.961 2.20009 -2.93243 0
M  V30 6855 H 667.609 4.54848 -2.14761 0
M  V30 6856 H 667.309 4.39768 -3.89715 0
M  V30 6857 H 668.833 5.127 -3.31619 0
M  V30 6858 H 670.247 3.31083 -4.68035 0
M  V30 6859 H 668.644 2.81717 -5.29864 0
M  V30 6860 H 669.714 1.60184 -4.57678 0
M  V30 6861 N 671.057 1.43213 0.657864 0
M  V30 6862 C 671.989 1.43974 1.78337 0
M  V30 6863 C 673.002 0.336482 1.59285 0
M  V30 6864 O 674.191 0.600631 1.68091 0
M  V30 6865 C 671.291 1.23242 3.15697 0
M  V30 6866 C 670.464 2.46319 3.61449 0
M  V30 6867 C 669.523 2.2088 4.77597 0
M  V30 6868 O 668.549 2.942 4.87273 0
M  V30 6869 N 669.751 1.22251 5.67481 0
M  V30 6870 H 672.516 2.40993 1.78164 0
M  V30 6871 H 670.077 1.3831 0.841549 0
M  V30 6872 H 672.069 1.04113 3.91079 0
M  V30 6873 H 670.639 0.346849 3.1067 0
M  V30 6874 H 669.859 2.80904 2.76563 0
M  V30 6875 H 671.147 3.28239 3.88763 0
M  V30 6876 H 670.545 0.616433 5.62331 0
M  V30 6877 H 669.102 1.09107 6.42603 0
M  V30 6878 N 672.536 -0.895792 1.29666 0
M  V30 6879 C 673.952 -1.17726 1.07763 0
M  V30 6880 C 674.152 -2.00794 -0.168576 0
M  V30 6881 O 673.208 -2.37213 -0.865244 0
M  V30 6882 C 674.521 -1.89441 2.33522 0
M  V30 6883 C 676.069 -2.02251 2.3888 0
M  V30 6884 C 676.544 -2.77378 3.64452 0
M  V30 6885 N 678.035 -2.8493 3.65198 0
M  V30 6886 C 678.77 -3.43606 4.59045 0
M  V30 6887 N 678.266 -4.03417 5.63228 0
M  V30 6888 N 680.059 -3.41317 4.46608 0
M  V30 6889 H 672.21 -0.341652 2.09634 0
M  V30 6890 H 674.473 -0.213865 0.923561 0
M  V30 6891 H 674.179 -1.35842 3.24407 0
M  V30 6892 H 674.053 -2.89893 2.41334 0
M  V30 6893 H 676.44 -2.55025 1.4848 0
M  V30 6894 H 676.521 -1.0092 2.3505 0
M  V30 6895 H 676.165 -2.25279 4.55205 0
M  V30 6896 H 676.095 -3.79062 3.65541 0
M  V30 6897 H 678.586 -2.42453 2.89871 0
M  V30 6898 H 678.899 -4.46224 6.30955 0
M  V30 6899 H 677.244 -4.01868 5.67033 0
M  V30 6900 H 680.435 -2.93812 3.64407 0
M  V30 6901 H 680.608 -3.86751 5.1993 0
M  V30 6902 N 674.014 -1.12206 -1.10668 0
M  V30 6903 C 675.262 -0.874144 -1.82217 0
M  V30 6904 C 675.583 0.601736 -1.85484 0
M  V30 6905 O 674.853 1.43725 -1.33116 0
M  V30 6906 H 673.433 -0.320404 -0.674797 0
M  V30 6907 H 676.095 -1.41606 -1.33917 0
M  V30 6908 H 675.191 -1.25349 -2.85822 0
M  V30 6909 N 675.492 1.28418 -0.913599 0
M  V30 6910 C 676.738 1.9527 -0.547484 0
M  V30 6911 C 677.071 1.71745 0.906486 0
M  V30 6912 O 676.346 1.03834 1.64465 0
M  V30 6913 C 676.629 3.49748 -0.857205 0
M  V30 6914 C 676.482 3.82675 -2.3639 0
M  V30 6915 C 677.801 4.3868 -0.353258 0
M  V30 6916 H 674.92 0.709236 -0.200381 0
M  V30 6917 H 677.562 1.51789 -1.14281 0
M  V30 6918 H 675.712 3.86915 -0.350548 0
M  V30 6919 H 677.384 3.55378 -2.94116 0
M  V30 6920 H 675.627 3.29724 -2.81894 0
M  V30 6921 H 676.298 4.90547 -2.53115 0
M  V30 6922 H 678.774 4.08584 -0.787288 0
M  V30 6923 H 677.65 5.45621 -0.599049 0
M  V30 6924 H 677.911 4.35753 0.746413 0
M  V30 6925 N 676.97 0.677563 1.42291 0
M  V30 6926 C 678.247 0.129803 1.95169 0
M  V30 6927 C 678.627 -1.35605 1.61786 0
M  V30 6928 O 677.975 -2.09361 0.915444 0
M  V30 6929 C 678.185 0.401889 3.46678 0
M  V30 6930 C 679.533 0.319889 4.23393 0
M  V30 6931 O 680.557 0.33579 3.54614 0
M  V30 6932 O 679.416 0.264459 5.4586 0
M  V30 6933 H 676.51 0.00447433 0.826988 0
M  V30 6934 H 679.056 0.752483 1.52105 0
M  V30 6935 H 677.828 1.43108 3.64192 0
M  V30 6936 H 677.451 -0.252662 3.96796 0
M  V30 6937 N 678.448 -1.51871 0.421078 0
M  V30 6938 C 679.694 -2.02237 -0.151014 0
M  V30 6939 C 680.027 -1.30554 -1.43768 0
M  V30 6940 O 679.302 -0.41546 -1.90011 0
M  V30 6941 C 679.585 -3.5802 -0.386482 0
M  V30 6942 C 679.438 -4.40339 0.9177 0
M  V30 6943 C 680.757 -4.24444 -1.16342 0
M  V30 6944 H 677.876 -0.735062 -0.0534102 0
M  V30 6945 H 680.518 -1.81656 0.556888 0
M  V30 6946 H 678.668 -3.75688 -0.989494 0
M  V30 6947 H 680.34 -4.34357 1.55344 0
M  V30 6948 H 678.583 -4.06073 1.526 0
M  V30 6949 H 679.254 -5.47451 0.707187 0
M  V30 6950 H 681.73 -4.10948 -0.652788 0
M  V30 6951 H 680.606 -5.33358 -1.29693 0
M  V30 6952 H 680.867 -3.84204 -2.18724 0
M  V30 6953 N 679.926 -0.151884 -1.56866 0
M  V30 6954 C 680.874 0.80299 -2.183 0
M  V30 6955 C 681.868 1.25174 -1.14139 0
M  V30 6956 O 683.074 1.21966 -1.3238 0
M  V30 6957 H 679.449 0.277169 -0.699057 0
M  V30 6958 H 681.42 0.260699 -2.97259 0
M  V30 6959 C 680.169 2.03009 -2.82281 0
M  V30 6960 H 679.492 1.69377 -3.62148 0
M  V30 6961 H 680.932 2.67753 -3.28762 0
M  V30 6962 C 679.391 2.84123 -1.81041 0
M  V30 6963 O 679.921 3.8063 -1.28388 0
M  V30 6964 N 678.127 2.48753 -1.50234 0
M  V30 6965 H 677.674 1.70337 -1.93244 0
M  V30 6966 H 677.632 3.03316 -0.827445 0
M  V30 6967 N 681.404 1.57128 0.121893 0
M  V30 6968 C 682.632 1.88883 0.844451 0
M  V30 6969 C 683.047 0.742824 1.73573 0
M  V30 6970 O 682.404 -0.286475 1.80238 0
M  V30 6971 C 682.455 3.20076 1.68029 0
M  V30 6972 O 682.176 4.30264 0.824898 0
M  V30 6973 C 683.677 3.65515 2.50826 0
M  V30 6974 H 680.897 0.62549 0.242907 0
M  V30 6975 H 683.441 2.04219 0.107151 0
M  V30 6976 H 681.596 3.06418 2.37038 0
M  V30 6977 H 682.01 5.05439 1.40113 0
M  V30 6978 H 683.484 4.60081 3.05008 0
M  V30 6979 H 683.961 2.92029 3.28048 0
M  V30 6980 H 684.567 3.81952 1.87064 0
M  V30 6981 N 682.882 -0.391992 1.52647 0
M  V30 6982 C 684.298 -0.731848 1.41831 0
M  V30 6983 C 684.498 -1.9423 0.536361 0
M  V30 6984 O 683.554 -2.52499 0.00866571 0
M  V30 6985 C 684.867 -0.969743 2.84634 0
M  V30 6986 C 686.415 -1.0714 2.94092 0
M  V30 6987 C 686.89 -1.34195 4.37899 0
M  V30 6988 N 688.381 -1.41023 4.41211 0
M  V30 6989 C 689.116 -1.63616 5.49561 0
M  V30 6990 N 688.612 -1.83699 6.68002 0
M  V30 6991 N 690.405 -1.65771 5.371 0
M  V30 6992 H 682.556 0.404547 2.08512 0
M  V30 6993 H 684.819 0.11879 0.940528 0
M  V30 6994 H 684.525 -0.152465 3.51369 0
M  V30 6995 H 684.399 -1.88523 3.26709 0
M  V30 6996 H 686.786 -1.87925 2.27526 0
M  V30 6997 H 686.867 -0.133887 2.55449 0
M  V30 6998 H 686.511 -0.539207 5.0503 0
M  V30 6999 H 686.441 -2.29226 4.74092 0
M  V30 7000 H 688.932 -1.27223 3.55841 0
M  V30 7001 H 689.245 -2.00437 7.46354 0
M  V30 7002 H 687.59 -1.8093 6.71036 0
M  V30 7003 H 690.781 -1.4963 4.43541 0
M  V30 7004 H 690.954 -1.83038 6.21612 0
M  V30 7005 N 684.36 -1.4356 -0.65026 0
M  V30 7006 C 685.637 -1.35811 -1.40765 0
M  V30 7007 C 686.017 -0.00736379 -2.11099 0
M  V30 7008 O 685.365 1.00932 -2.05 0
M  V30 7009 C 685.575 -2.54332 -2.3899 0
M  V30 7010 C 686.923 -2.97551 -3.02901 0
M  V30 7011 O 687.947 -2.544 -2.49317 0
M  V30 7012 O 686.806 -3.72311 -4.00059 0
M  V30 7013 H 683.9 -0.536861 -0.629054 0
M  V30 7014 H 686.446 -1.55615 -0.676919 0
M  V30 7015 H 685.218 -3.44274 -1.85986 0
M  V30 7016 H 684.841 -2.36643 -3.19509 0
M  V30 7017 N 685.838 0.888903 -1.30139 0
M  V30 7018 C 687.066 1.67358 -1.21651 0
M  V30 7019 C 687.481 1.87499 0.221246 0
M  V30 7020 O 686.838 1.41969 1.14677 0
M  V30 7021 C 686.889 3.05213 -1.93719 0
M  V30 7022 O 686.61 2.85984 -3.31881 0
M  V30 7023 C 688.111 3.9964 -1.9184 0
M  V30 7024 H 685.331 0.522365 -0.42116 0
M  V30 7025 H 687.875 1.11086 -1.71698 0
M  V30 7026 H 686.03 3.5823 -1.4748 0
M  V30 7027 H 686.444 3.73411 -3.68327 0
M  V30 7028 H 687.918 4.93749 -2.46811 0
M  V30 7029 H 688.395 4.29955 -0.896409 0
M  V30 7030 H 689.001 3.52558 -2.37872 0
M  V30 7031 N 687.317 1.12792 1.10072 0
M  V30 7032 C 688.594 0.796867 1.78632 0
M  V30 7033 C 688.974 -0.712739 1.98704 0
M  V30 7034 O 688.322 -1.64773 1.5831 0
M  V30 7035 C 688.532 1.57622 3.11378 0
M  V30 7036 C 689.88 1.76463 3.86194 0
M  V30 7037 O 690.904 1.54165 3.2111 0
M  V30 7038 O 689.763 2.13623 5.03018 0
M  V30 7039 H 686.857 0.290248 0.774394 0
M  V30 7040 H 689.403 1.23215 1.16688 0
M  V30 7041 H 688.175 2.60246 2.92212 0
M  V30 7042 H 687.798 1.13543 3.81043 0
M  V30 7043 N 688.795 -1.27931 0.920396 0
M  V30 7044 C 690.043 -1.94304 0.555906 0
M  V30 7045 C 690.364 -1.72753 -0.904519 0
M  V30 7046 O 689.634 -1.07104 -1.64029 0
M  V30 7047 H 688.214 -0.719001 0.202599 0
M  V30 7048 H 690.876 -1.55785 1.1712 0
M  V30 7049 H 689.972 -3.02806 0.755981 0
M  V30 7050 N 690.273 -0.685099 -1.4193 0
M  V30 7051 C 691.52 -0.211658 -2.01391 0
M  V30 7052 C 691.848 1.18526 -1.54214 0
M  V30 7053 O 691.103 1.81189 -0.739519 0
M  V30 7054 C 691.402 -0.206154 -3.56805 0
M  V30 7055 C 691.068 -1.54915 -4.23453 0
M  V30 7056 C 689.73 -1.91684 -4.41373 0
M  V30 7057 C 692.082 -2.43317 -4.60919 0
M  V30 7058 C 689.41 -3.16461 -4.94034 0
M  V30 7059 C 691.762 -3.67415 -5.14965 0
M  V30 7060 C 690.426 -4.04341 -5.31098 0
M  V30 7061 H 689.696 -0.0774511 -0.736941 0
M  V30 7062 H 692.343 -0.882121 -1.69973 0
M  V30 7063 H 690.648 0.547841 -3.87951 0
M  V30 7064 H 692.345 0.17753 -4.00607 0
M  V30 7065 H 688.935 -1.25314 -4.09871 0
M  V30 7066 H 693.119 -2.16192 -4.46738 0
M  V30 7067 H 688.375 -3.45078 -5.04709 0
M  V30 7068 H 692.549 -4.3611 -5.42938 0
M  V30 7069 H 690.176 -5.01101 -5.71666 0
M  V30 7070 N 691.751 1.51645 -0.429126 0
M  V30 7071 C 692.976 2.06917 0.141399 0
M  V30 7072 C 693.401 1.29527 1.36398 0
M  V30 7073 O 692.759 0.33094 1.78254 0
M  V30 7074 C 692.807 3.57776 0.4504 0
M  V30 7075 O 691.911 3.82639 1.53821 0
M  V30 7076 H 691.252 0.663978 0.0054647 0
M  V30 7077 H 693.782 1.95355 -0.608093 0
M  V30 7078 H 693.792 4.01894 0.703249 0
M  V30 7079 H 692.467 4.13532 -0.443213 0
M  V30 7080 H 691.044 3.5039 1.27597 0
M  V30 7081 N 693.229 0.160201 1.56784 0
M  V30 7082 C 694.64 -0.358417 1.83227 0
M  V30 7083 C 694.991 -1.63831 1.07952 0
M  V30 7084 O 694.116 -2.13885 0.328995 0
M  V30 7085 C 694.711 -0.657058 3.32368 0
M  V30 7086 C 693.27 -1.12015 3.59346 0
M  V30 7087 C 692.417 -0.15015 2.76893 0
M  V30 7088 H 695.368 0.384669 1.53967 0
M  V30 7089 H 695.389 -1.51033 3.49241 0
M  V30 7090 H 694.901 0.274647 3.87127 0
M  V30 7091 H 693.002 -2.06734 3.09987 0
M  V30 7092 H 693.115 -1.037 4.67743 0
M  V30 7093 H 691.479 -0.645361 2.46388 0
M  V30 7094 H 692.262 0.775379 3.34429 0
M  V30 7095 N 694.707 -1.5719 -0.113559 0
M  V30 7096 C 695.637 -2.03772 -1.14013 0
M  V30 7097 C 696.618 -0.923176 -1.42869 0
M  V30 7098 O 697.803 -1.19325 -1.53216 0
M  V30 7099 C 694.933 -2.44663 -2.4649 0
M  V30 7100 C 693.887 -3.59612 -2.32085 0
M  V30 7101 C 693.213 -3.8642 -3.69573 0
M  V30 7102 C 694.513 -4.91149 -1.7768 0
M  V30 7103 H 696.207 -2.89785 -0.752665 0
M  V30 7104 H 693.753 -1.39412 -0.360609 0
M  V30 7105 H 695.706 -2.75857 -3.18561 0
M  V30 7106 H 694.43 -1.55628 -2.87137 0
M  V30 7107 H 693.089 -3.28636 -1.62461 0
M  V30 7108 H 692.737 -2.94581 -4.07715 0
M  V30 7109 H 692.437 -4.63797 -3.60786 0
M  V30 7110 H 693.961 -4.2007 -4.4314 0
M  V30 7111 H 695.375 -5.20843 -2.39574 0
M  V30 7112 H 693.772 -5.72562 -1.79701 0
M  V30 7113 H 694.842 -4.79301 -0.734776 0
M  V30 7114 N 696.185 0.383891 -1.52853 0
M  V30 7115 C 697.115 1.47559 -1.80965 0
M  V30 7116 C 698.096 1.5669 -0.661986 0
M  V30 7117 O 699.281 1.71556 -0.910072 0
M  V30 7118 C 696.411 2.85114 -1.98312 0
M  V30 7119 C 695.365 2.9082 -3.14019 0
M  V30 7120 C 694.691 4.30873 -3.16627 0
M  V30 7121 C 695.991 2.60001 -4.52986 0
M  V30 7122 H 697.685 1.24283 -2.72386 0
M  V30 7123 H 695.231 0.596445 -1.31067 0
M  V30 7124 H 697.184 3.61496 -2.16561 0
M  V30 7125 H 695.908 3.09738 -1.03585 0
M  V30 7126 H 694.567 2.16886 -2.9556 0
M  V30 7127 H 694.215 4.52545 -2.19573 0
M  V30 7128 H 693.915 4.3561 -3.94357 0
M  V30 7129 H 695.439 5.09154 -3.37038 0
M  V30 7130 H 696.853 3.261 -4.71521 0
M  V30 7131 H 695.25 2.76081 -5.32822 0
M  V30 7132 H 696.32 1.5532 -4.59351 0
M  V30 7133 N 697.663 1.43903 0.642637 0
M  V30 7134 C 698.593 1.52697 1.76652 0
M  V30 7135 C 699.574 0.380816 1.65782 0
M  V30 7136 O 700.759 0.599432 1.84717 0
M  V30 7137 C 697.889 1.45975 3.15133 0
M  V30 7138 C 696.843 2.58949 3.40778 0
M  V30 7139 C 696.169 2.37279 4.79169 0
M  V30 7140 C 697.469 4.01153 3.34475 0
M  V30 7141 H 699.163 2.46766 1.69549 0
M  V30 7142 H 696.709 1.18767 0.814279 0
M  V30 7143 H 698.662 1.5073 3.93521 0
M  V30 7144 H 697.386 0.484162 3.22991 0
M  V30 7145 H 696.045 2.53564 2.64765 0
M  V30 7146 H 695.693 1.37939 4.83717 0
M  V30 7147 H 695.393 3.13016 4.97287 0
M  V30 7148 H 696.917 2.43834 5.59801 0
M  V30 7149 H 698.331 4.07968 4.02784 0
M  V30 7150 H 696.728 4.77001 3.64129 0
M  V30 7151 H 697.798 4.25539 2.32475 0
M  V30 7152 N 699.141 -0.881989 1.30609 0
M  V30 7153 C 700.104 -1.96957 1.1722 0
M  V30 7154 C 701.104 -1.60472 0.102598 0
M  V30 7155 O 702.294 -1.70628 0.350943 0
M  V30 7156 C 699.426 -3.31463 0.796572 0
M  V30 7157 H 700.619 -2.10262 2.13846 0
M  V30 7158 H 698.172 -1.06877 1.14048 0
M  V30 7159 H 698.907 -3.23859 -0.169053 0
M  V30 7160 H 698.692 -3.59314 1.56959 0
M  V30 7161 H 700.182 -4.11233 0.72645 0
M  V30 7162 N 700.619 -1.13374 -1.09472 0
M  V30 7163 C 701.865 -0.896516 -1.81908 0
M  V30 7164 C 702.198 0.575933 -1.85463 0
M  V30 7165 O 701.473 1.42618 -1.32251 0
M  V30 7166 C 701.756 -1.48445 -3.28079 0
M  V30 7167 C 701.609 -3.02598 -3.32798 0
M  V30 7168 C 702.928 -1.15226 -4.24748 0
M  V30 7169 H 700.047 -0.327127 -0.660422 0
M  V30 7170 H 702.689 -1.40195 -1.2824 0
M  V30 7171 H 700.839 -1.0546 -3.73912 0
M  V30 7172 H 702.511 -3.54335 -2.95372 0
M  V30 7173 H 700.754 -3.37613 -2.72397 0
M  V30 7174 H 701.425 -3.38835 -4.3577 0
M  V30 7175 H 703.901 -1.52369 -3.87199 0
M  V30 7176 H 702.777 -1.59012 -5.25363 0
M  V30 7177 H 703.038 -0.0658891 -4.42051 0
M  V30 7178 N 702.098 1.27442 -0.927168 0
M  V30 7179 C 703.514 1.46754 -0.627329 0
M  V30 7180 C 703.714 1.83902 0.823549 0
M  V30 7181 O 702.77 1.95215 1.60148 0
M  V30 7182 C 704.083 2.56045 -1.57674 0
M  V30 7183 C 705.631 2.69906 -1.58491 0
M  V30 7184 C 706.106 3.82355 -2.52128 0
M  V30 7185 N 707.597 3.89728 -2.50332 0
M  V30 7186 C 708.332 4.76155 -3.19475 0
M  V30 7187 N 707.828 5.67073 -3.97995 0
M  V30 7188 N 709.621 4.6988 -3.08496 0
M  V30 7189 H 701.772 1.01613 -1.86517 0
M  V30 7190 H 704.035 0.507443 -0.800753 0
M  V30 7191 H 703.741 2.35542 -2.61176 0
M  V30 7192 H 703.615 3.53423 -1.31804 0
M  V30 7193 H 706.002 2.89792 -0.557208 0
M  V30 7194 H 706.083 1.73018 -1.8841 0
M  V30 7195 H 705.727 3.63224 -3.55008 0
M  V30 7196 H 705.657 4.7867 -2.19505 0
M  V30 7197 H 708.148 3.24717 -1.93306 0
M  V30 7198 H 708.461 6.2988 -4.4774 0
M  V30 7199 H 706.806 5.6687 -4.02098 0
M  V30 7200 H 709.997 3.97848 -2.46646 0
M  V30 7201 H 710.17 5.37017 -3.62652 0
M  V30 7202 N 703.576 0.692616 1.41565 0
M  V30 7203 C 704.824 0.221896 2.00878 0
M  V30 7204 C 705.145 -1.18164 1.5512 0
M  V30 7205 O 704.415 -1.79679 0.78054 0
M  V30 7206 H 702.995 0.0790463 0.742806 0
M  V30 7207 H 705.657 0.893115 1.73232 0
M  V30 7208 H 704.753 0.23702 3.11199 0
M  V30 7209 N 705.054 -1.51416 0.437162 0
M  V30 7210 C 706.47 -1.59349 0.0894459 0
M  V30 7211 C 706.67 -1.44809 -1.40116 0
M  V30 7212 O 705.726 -1.28924 -2.17106 0
M  V30 7213 C 707.039 -2.9446 0.609398 0
M  V30 7214 C 708.587 -3.07769 0.569824 0
M  V30 7215 C 709.062 -4.45404 1.06675 0
M  V30 7216 N 710.553 -4.51723 1.02473 0
M  V30 7217 C 711.288 -5.56544 1.3801 0
M  V30 7218 N 710.784 -6.68784 1.80831 0
M  V30 7219 N 712.577 -5.46901 1.29828 0
M  V30 7220 H 704.728 -1.59112 1.40703 0
M  V30 7221 H 706.991 -0.750031 0.579791 0
M  V30 7222 H 706.697 -3.1047 1.65231 0
M  V30 7223 H 706.571 -3.77184 0.0342236 0
M  V30 7224 H 708.958 -2.91428 -0.464107 0
M  V30 7225 H 709.039 -2.26885 1.1814 0
M  V30 7226 H 708.683 -4.62492 2.09914 0
M  V30 7227 H 708.613 -5.24827 0.431712 0
M  V30 7228 H 711.104 -3.71165 0.710258 0
M  V30 7229 H 711.417 -7.44787 2.06185 0
M  V30 7230 H 709.762 -6.69992 1.84757 0
M  V30 7231 H 712.953 -4.581 0.962397 0
M  V30 7232 H 713.126 -6.2848 1.57851 0
M  V30 7233 N 706.532 -0.168513 -1.56696 0
M  V30 7234 C 707.482 0.7751 -2.14421 0
M  V30 7235 C 708.466 1.19476 -1.07769 0
M  V30 7236 O 709.658 1.15759 -1.33898 0
M  V30 7237 C 706.787 2.00549 -2.7863 0
M  V30 7238 C 705.873 1.60795 -3.92436 0
M  V30 7239 N 706.264 0.919812 -4.97366 0
M  V30 7240 C 704.562 1.89917 -4.03544 0
M  V30 7241 C 705.263 0.724485 -5.77171 0
M  V30 7242 N 704.239 1.26505 -5.28675 0
M  V30 7243 H 708.041 0.240349 -2.92916 0
M  V30 7244 H 705.555 0.0322675 -1.62368 0
M  V30 7245 H 707.552 2.6917 -3.1836 0
M  V30 7246 H 706.212 2.54522 -2.01615 0
M  V30 7247 H 707.223 0.578169 -5.14663 0
M  V30 7248 H 703.9 2.45587 -3.37629 0
M  V30 7249 H 705.29 0.180521 -6.71657 0
M  V30 7250 N 708.01 1.57248 0.105221 0
M  V30 7251 C 709.421 1.74612 0.660865 0
M  V30 7252 C 709.772 0.789231 1.79626 0
M  V30 7253 O 708.897 -0.0346611 2.16372 0
M  V30 7254 C 709.492 3.16624 1.20559 0
M  V30 7255 C 708.051 3.35447 1.7074 0
M  V30 7256 C 707.198 2.70445 0.612764 0
M  V30 7257 H 710.149 1.5824 -0.12079 0
M  V30 7258 H 710.17 3.18937 2.07508 0
M  V30 7259 H 709.682 3.86245 0.379012 0
M  V30 7260 H 707.783 2.7089 2.5583 0
M  V30 7261 H 707.896 4.43702 1.80736 0
M  V30 7262 H 706.26 2.32061 1.04975 0
M  V30 7263 H 707.043 3.42699 -0.203066 0
M  V30 7264 N 709.488 -0.375779 1.53054 0
M  V30 7265 C 710.736 -1.11727 1.68409 0
M  V30 7266 C 711.057 -1.90127 0.43323 0
M  V30 7267 O 710.327 -1.87945 -0.552595 0
M  V30 7268 H 708.907 -0.415451 0.620813 0
M  V30 7269 H 711.569 -0.424869 1.90213 0
M  V30 7270 H 710.665 -1.8128 2.54055 0
M  V30 7271 N 710.966 -1.44241 -0.634997 0
M  V30 7272 C 712.212 -1.47038 -1.39669 0
M  V30 7273 C 712.545 -0.101122 -1.93937 0
M  V30 7274 O 711.82 0.880699 -1.73418 0
M  V30 7275 C 712.103 -2.52763 -2.56482 0
M  V30 7276 C 711.956 -3.99032 -2.07589 0
M  V30 7277 C 713.275 -2.55031 -3.58674 0
M  V30 7278 H 710.394 -0.53537 -0.506506 0
M  V30 7279 H 713.036 -1.75898 -0.718317 0
M  V30 7280 H 711.186 -2.28284 -3.14354 0
M  V30 7281 H 712.858 -4.3463 -1.54577 0
M  V30 7282 H 711.101 -4.10994 -1.38804 0
M  V30 7283 H 711.772 -4.68649 -2.91671 0
M  V30 7284 H 714.248 -2.76893 -3.10595 0
M  V30 7285 H 713.124 -3.30916 -4.37934 0
M  V30 7286 H 713.385 -1.59085 -4.12486 0
M  V30 7287 N 712.444 0.87505 -1.31075 0
M  V30 7288 C 713.693 1.62245 -1.19831 0
M  V30 7289 C 714.006 1.94078 0.24357 0
M  V30 7290 O 715.212 2.67265 0.477646 0
M  V30 7291 C 713.668 2.92464 -2.09744 0
M  V30 7292 C 713.276 2.68134 -3.58898 0
M  V30 7293 C 715.02 3.70449 -2.07287 0
M  V30 7294 C 712.927 3.9423 -4.40836 0
M  V30 7295 H 711.857 0.608741 -0.444916 0
M  V30 7296 H 714.508 0.967947 -1.55894 0
M  V30 7297 H 712.89 3.59262 -1.66574 0
M  V30 7298 H 714.064 2.09776 -4.10281 0
M  V30 7299 H 712.379 2.03511 -3.6328 0
M  V30 7300 H 714.976 4.63983 -2.65752 0
M  V30 7301 H 715.319 4.02611 -1.05876 0
M  V30 7302 H 715.852 3.10528 -2.48631 0
M  V30 7303 H 712.591 3.67221 -5.42982 0
M  V30 7304 H 712.111 4.52058 -3.94213 0
M  V30 7305 H 713.79 4.62162 -4.52786 0
M  V30 7306 N 713.922 1.13953 1.08869 0
M  V30 7307 C 715.17 0.903023 1.80803 0
M  V30 7308 C 715.491 -0.572151 1.86417 0
M  V30 7309 O 714.761 -1.41589 1.35386 0
M  V30 7310 H 713.341 0.331099 0.669614 0
M  V30 7311 H 716.003 1.43719 1.31647 0
M  V30 7312 H 715.099 1.29881 2.83791 0
M  V30 7313 N 715.4 -1.26948 0.933913 0
M  V30 7314 C 716.33 -2.29017 0.45534 0
M  V30 7315 C 717.311 -1.62961 -0.487605 0
M  V30 7316 O 718.496 -1.90223 -0.391022 0
M  V30 7317 C 715.626 -3.46112 -0.287015 0
M  V30 7318 C 714.58 -4.24205 0.568682 0
M  V30 7319 C 713.906 -5.3384 -0.303206 0
M  V30 7320 C 715.206 -4.88954 1.83633 0
M  V30 7321 H 716.9 -2.69298 1.30839 0
M  V30 7322 H 714.446 -1.29459 0.630579 0
M  V30 7323 H 716.399 -4.16622 -0.6328 0
M  V30 7324 H 715.123 -3.04765 -1.17414 0
M  V30 7325 H 713.782 -3.5545 0.897261 0
M  V30 7326 H 713.43 -4.88734 -1.18947 0
M  V30 7327 H 713.13 -5.86998 0.265879 0
M  V30 7328 H 714.654 -6.0719 -0.644423 0
M  V30 7329 H 716.068 -5.51717 1.55823 0
M  V30 7330 H 714.465 -5.52198 2.34941 0
M  V30 7331 H 715.535 -4.12305 2.55211 0
M  V30 7332 N 716.879 -0.700114 -1.41195 0
M  V30 7333 C 717.809 -0.0521132 -2.33442 0
M  V30 7334 C 718.79 0.76228 -1.52063 0
M  V30 7335 O 719.975 0.714336 -1.80585 0
M  V30 7336 C 717.105 0.881693 -3.35922 0
M  V30 7337 C 716.059 0.174062 -4.27646 0
M  V30 7338 C 715.385 1.22254 -5.20536 0
M  V30 7339 C 716.685 -0.962396 -5.13357 0
M  V30 7340 H 718.379 -0.822574 -2.87879 0
M  V30 7341 H 715.925 -0.397011 -1.38419 0
M  V30 7342 H 717.878 1.34429 -3.99383 0
M  V30 7343 H 716.602 1.68387 -2.79845 0
M  V30 7344 H 715.261 -0.268551 -3.65615 0
M  V30 7345 H 714.909 2.01736 -4.60773 0
M  V30 7346 H 714.609 0.754038 -5.82742 0
M  V30 7347 H 716.133 1.68555 -5.86874 0
M  V30 7348 H 717.547 -0.579875 -5.7036 0
M  V30 7349 H 715.944 -1.35828 -5.84526 0
M  V30 7350 H 717.014 -1.80003 -4.50252 0
M  V30 7351 N 718.357 1.51182 -0.445186 0
M  V30 7352 C 719.773 1.59299 -0.0978954 0
M  V30 7353 C 719.973 1.4555 1.39346 0
M  V30 7354 O 719.029 1.30073 2.16419 0
M  V30 7355 C 720.342 2.94133 -0.625005 0
M  V30 7356 C 721.89 3.07463 -0.586137 0
M  V30 7357 C 722.365 4.44832 -1.09035 0
M  V30 7358 N 723.856 4.51173 -1.04867 0
M  V30 7359 C 724.591 5.55804 -1.40959 0
M  V30 7360 N 724.087 6.67816 -1.84375 0
M  V30 7361 N 725.88 5.46205 -1.32726 0
M  V30 7362 H 718.031 1.58363 -1.41544 0
M  V30 7363 H 720.294 0.746946 -0.58376 0
M  V30 7364 H 720 3.09589 -1.66876 0
M  V30 7365 H 719.874 3.77161 -0.0542262 0
M  V30 7366 H 722.261 2.9167 0.448646 0
M  V30 7367 H 722.342 2.26255 -1.19341 0
M  V30 7368 H 721.986 4.61372 -2.12364 0
M  V30 7369 H 721.916 5.24591 -0.459539 0
M  V30 7370 H 724.407 3.70783 -0.729932 0
M  V30 7371 H 724.72 7.43683 -2.10131 0
M  V30 7372 H 723.065 6.69003 -1.88308 0
M  V30 7373 H 726.256 4.57583 -0.986678 0
M  V30 7374 H 726.429 6.27634 -1.61182 0
M  V30 7375 N 719.835 0.176821 1.56605 0
M  V30 7376 C 720.745 -0.763682 2.21822 0
M  V30 7377 C 721.761 -1.24889 1.21156 0
M  V30 7378 O 722.937 -1.29987 1.53836 0
M  V30 7379 C 720.002 -1.97352 2.8505 0
M  V30 7380 C 719.063 -1.53466 4.00932 0
M  V30 7381 C 718.296 -2.68682 4.61135 0
M  V30 7382 O 718.519 -3.85694 4.20234 0
M  V30 7383 O 717.453 -2.42442 5.50913 0
M  V30 7384 H 721.279 -0.238363 3.02763 0
M  V30 7385 H 718.864 -0.0516331 1.49311 0
M  V30 7386 H 720.746 -2.68096 3.25119 0
M  V30 7387 H 719.421 -2.48779 2.07101 0
M  V30 7388 H 718.328 -0.796551 3.65521 0
M  V30 7389 H 719.661 -1.06724 4.8049 0
M  V30 7390 N 721.313 -1.57302 -0.09688 0
M  V30 7391 C 722.276 -2.00976 -1.10188 0
M  V30 7392 C 723.276 -0.903009 -1.3305 0
M  V30 7393 O 724.466 -1.16853 -1.29194 0
M  V30 7394 C 721.598 -2.36893 -2.45142 0
M  V30 7395 H 722.791 -2.9098 -0.726003 0
M  V30 7396 H 720.344 -1.52515 -0.341872 0
M  V30 7397 H 721.079 -1.49837 -2.8761 0
M  V30 7398 H 720.864 -3.17632 -2.29897 0
M  V30 7399 H 722.354 -2.71345 -3.1743 0
M  V30 7400 N 722.791 0.367657 -1.53252 0
M  V30 7401 C 724.039 1.10832 -1.68999 0
M  V30 7402 C 724.36 1.89894 -0.443306 0
M  V30 7403 O 723.63 1.88235 0.54262 0
M  V30 7404 H 722.21 0.412153 -0.623008 0
M  V30 7405 H 724.872 0.414775 -1.90435 0
M  V30 7406 H 723.968 1.7993 -2.55013 0
M  V30 7407 N 724.269 1.44576 0.627338 0
M  V30 7408 C 725.232 1.51372 1.72102 0
M  V30 7409 C 726.232 0.395329 1.55865 0
M  V30 7410 O 727.422 0.658094 1.61291 0
M  V30 7411 C 724.554 1.39129 3.11217 0
M  V30 7412 H 725.747 2.48798 1.6745 0
M  V30 7413 H 723.3 1.31724 0.841336 0
M  V30 7414 H 724.035 0.428114 3.21462 0
M  V30 7415 H 723.82 2.20229 3.24409 0
M  V30 7416 H 725.31 1.46874 3.90919 0
M  V30 7417 N 725.747 -0.868086 1.31537 0
M  V30 7418 C 726.972 -1.65926 1.24432 0
M  V30 7419 C 727.397 -1.87169 -0.186936 0
M  V30 7420 O 726.755 -1.4148 -1.13371 0
M  V30 7421 C 726.803 -3.00347 1.9956 0
M  V30 7422 O 725.907 -3.90221 1.33422 0
M  V30 7423 H 725.248 -0.506375 0.429512 0
M  V30 7424 H 727.778 -1.0822 1.73637 0
M  V30 7425 H 727.788 -3.50269 2.09226 0
M  V30 7426 H 726.463 -2.84205 3.03645 0
M  V30 7427 H 725.04 -3.48672 1.32219 0
M  V30 7428 N 727.225 -1.14528 -1.08264 0
M  V30 7429 C 728.155 -0.856356 -2.1723 0
M  V30 7430 C 729.136 0.189251 -1.69044 0
M  V30 7431 O 730.321 0.0456119 -1.94146 0
M  V30 7432 C 727.451 -0.334662 -3.45684 0
M  V30 7433 C 726.405 -1.31588 -4.0727 0
M  V30 7434 C 725.731 -0.653428 -5.30692 0
M  V30 7435 C 727.031 -2.67866 -4.48381 0
M  V30 7436 H 728.725 -1.76755 -2.41657 0
M  V30 7437 H 726.271 -0.851287 -1.16143 0
M  V30 7438 H 728.224 -0.120128 -4.21229 0
M  V30 7439 H 726.948 0.611967 -3.20815 0
M  V30 7440 H 725.607 -1.51661 -3.33758 0
M  V30 7441 H 725.255 0.299054 -5.0211 0
M  V30 7442 H 724.955 -1.30817 -5.72853 0
M  V30 7443 H 726.479 -0.448453 -6.08951 0
M  V30 7444 H 727.893 -2.51692 -5.15096 0
M  V30 7445 H 726.29 -3.29627 -5.01464 0
M  V30 7446 H 727.36 -3.24632 -3.60198 0
M  V30 7447 N 728.703 1.26451 -0.940633 0
M  V30 7448 C 729.928 1.98407 -0.60412 0
M  V30 7449 C 730.353 1.69584 0.81382 0
M  V30 7450 O 729.711 0.943553 1.54812 0
M  V30 7451 C 729.759 3.50387 -0.852136 0
M  V30 7452 O 728.863 4.1233 0.076013 0
M  V30 7453 H 728.204 0.622466 -0.231153 0
M  V30 7454 H 730.734 1.60932 -1.26342 0
M  V30 7455 H 730.744 4.00614 -0.772816 0
M  V30 7456 H 729.419 3.70696 -1.88566 0
M  V30 7457 H 727.996 3.7286 -0.0543187 0
M  V30 7458 N 730.181 0.707592 1.40822 0
M  V30 7459 C 731.409 0.253073 2.05346 0
M  V30 7460 C 731.824 -1.10218 1.53289 0
M  V30 7461 O 731.181 -1.69112 0.686105 0
M  V30 7462 C 731.232 0.215411 3.60858 0
M  V30 7463 O 730.953 1.51714 4.10992 0
M  V30 7464 C 732.454 -0.258636 4.42545 0
M  V30 7465 H 729.674 0.115256 0.661027 0
M  V30 7466 H 732.218 0.963555 1.80377 0
M  V30 7467 H 730.373 -0.445978 3.84824 0
M  V30 7468 H 730.787 1.41226 5.05129 0
M  V30 7469 H 732.261 -0.233849 5.51504 0
M  V30 7470 H 732.738 -1.2995 4.19535 0
M  V30 7471 H 733.344 0.372186 4.23668 0
M  V30 7472 N 731.66 -1.50943 0.453197 0
M  V30 7473 C 732.592 -2.25922 -0.38623 0
M  V30 7474 C 733.605 -1.3055 -0.972652 0
M  V30 7475 O 734.794 -1.56191 -0.864097 0
M  V30 7476 C 731.894 -3.01176 -1.5539 0
M  V30 7477 C 731.067 -4.23768 -1.0835 0
M  V30 7478 C 730.126 -4.81466 -2.12313 0
M  V30 7479 O 729.152 -5.42875 -1.71101 0
M  V30 7480 N 730.354 -4.66889 -3.44956 0
M  V30 7481 H 733.119 -2.98601 0.256468 0
M  V30 7482 H 730.68 -1.59408 0.282965 0
M  V30 7483 H 732.672 -3.36659 -2.24594 0
M  V30 7484 H 731.242 -2.31409 -2.10163 0
M  V30 7485 H 730.462 -3.93597 -0.217961 0
M  V30 7486 H 731.75 -5.03289 -0.746857 0
M  V30 7487 H 731.148 -4.18011 -3.81161 0
M  V30 7488 H 729.705 -5.06691 -4.1001 0
M  V30 7489 N 733.138 -0.185124 -1.56509 0
M  V30 7490 C 734.048 0.751908 -2.22224 0
M  V30 7491 C 735.064 1.24244 -1.21817 0
M  V30 7492 O 736.24 1.29169 -1.54523 0
M  V30 7493 C 733.305 1.95837 -2.86092 0
M  V30 7494 C 732.366 1.51337 -4.01741 0
M  V30 7495 C 731.599 2.66233 -4.62554 0
M  V30 7496 O 731.822 3.8346 -4.22273 0
M  V30 7497 O 730.756 2.39517 -5.52191 0
M  V30 7498 H 734.582 0.222304 -3.02885 0
M  V30 7499 H 732.167 0.0437141 -1.49336 0
M  V30 7500 H 734.049 2.66368 -3.26536 0
M  V30 7501 H 732.724 2.47677 -2.08417 0
M  V30 7502 H 731.631 0.777155 -3.65939 0
M  V30 7503 H 732.964 1.04175 -4.81049 0
M  V30 7504 N 734.616 1.57351 0.0885366 0
M  V30 7505 C 735.546 2.05561 1.10757 0
M  V30 7506 C 736.527 0.945789 1.41382 0
M  V30 7507 O 737.712 1.21747 1.51299 0
M  V30 7508 C 734.842 2.48554 2.42566 0
M  V30 7509 C 733.796 3.63259 2.26334 0
M  V30 7510 C 733.122 3.9225 3.63378 0
M  V30 7511 C 734.422 4.93913 1.69844 0
M  V30 7512 H 736.116 2.90946 0.706468 0
M  V30 7513 H 733.662 1.39968 0.338385 0
M  V30 7514 H 735.615 2.8089 3.14132 0
M  V30 7515 H 734.339 1.60176 2.84625 0
M  V30 7516 H 732.998 3.31179 1.57213 0
M  V30 7517 H 732.646 3.0103 4.02976 0
M  V30 7518 H 732.346 4.69478 3.53362 0
M  V30 7519 H 733.87 4.27067 4.36401 0
M  V30 7520 H 735.284 5.24588 2.31258 0
M  V30 7521 H 733.681 5.75349 1.70569 0
M  V30 7522 H 734.751 4.80409 0.65843 0
M  V30 7523 N 736.094 -0.359525 1.53444 0
M  V30 7524 C 737.004 -1.46445 1.83278 0
M  V30 7525 C 738.02 -1.5833 0.721629 0
M  V30 7526 O 739.196 -1.7411 1.01231 0
M  V30 7527 C 736.261 -2.81638 2.02191 0
M  V30 7528 C 735.322 -2.7923 3.26082 0
M  V30 7529 C 734.555 -4.07974 3.44082 0
M  V30 7530 O 734.778 -5.04447 2.66251 0
M  V30 7531 O 733.712 -4.13417 4.37458 0
M  V30 7532 H 737.538 -1.24156 2.77162 0
M  V30 7533 H 735.123 -0.550201 1.389 0
M  V30 7534 H 737.005 -3.61732 2.16167 0
M  V30 7535 H 735.68 -3.03892 1.11496 0
M  V30 7536 H 734.587 -1.97813 3.17523 0
M  V30 7537 H 735.92 -2.6193 4.16718 0
M  V30 7538 N 737.572 -1.44907 -0.619662 0
M  V30 7539 C 738.482 -1.55168 -1.75955 0
M  V30 7540 C 739.498 -0.43672 -1.6843 0
M  V30 7541 O 740.674 -0.695704 -1.89002 0
M  V30 7542 C 737.739 -1.50397 -3.12381 0
M  V30 7543 C 736.8 -2.72835 -3.31451 0
M  V30 7544 C 736.033 -2.68283 -4.61368 0
M  V30 7545 O 736.256 -1.74929 -5.42914 0
M  V30 7546 O 735.19 -3.59308 -4.82889 0
M  V30 7547 H 739.016 -2.51493 -1.7025 0
M  V30 7548 H 736.601 -1.27282 -0.782289 0
M  V30 7549 H 738.483 -1.50301 -3.93685 0
M  V30 7550 H 737.158 -0.572197 -3.18603 0
M  V30 7551 H 736.065 -2.78496 -2.49781 0
M  V30 7552 H 737.398 -3.65098 -3.30098 0
M  V30 7553 N 739.05 0.861098 -1.31996 0
M  V30 7554 C 740.013 1.95068 -1.20338 0
M  V30 7555 C 741.013 1.60289 -0.128114 0
M  V30 7556 O 742.203 1.70048 -0.378044 0
M  V30 7557 C 739.335 3.30153 -0.849205 0
M  V30 7558 H 740.528 2.06833 -2.17164 0
M  V30 7559 H 738.081 1.05049 -1.15734 0
M  V30 7560 H 738.816 3.24087 0.117508 0
M  V30 7561 H 738.601 3.56771 -1.62655 0
M  V30 7562 H 740.091 4.10025 -0.791782 0
M  V30 7563 N 740.528 1.15101 1.07655 0
M  V30 7564 C 741.776 0.922149 1.79836 0
M  V30 7565 C 742.097 -0.552346 1.87014 0
M  V30 7566 O 741.367 -1.40145 1.3688 0
M  V30 7567 H 739.947 0.338182 0.666064 0
M  V30 7568 H 742.609 1.45107 1.30115 0
M  V30 7569 H 741.705 1.32883 2.82398 0
M  V30 7570 N 742.006 -1.2595 0.947325 0
M  V30 7571 C 743.234 -1.97544 0.615127 0
M  V30 7572 C 743.649 -1.70484 -0.811221 0
M  V30 7573 O 743.006 -0.97662 -1.5417 0
M  V30 7574 C 743.057 -3.51236 0.855328 0
M  V30 7575 O 742.778 -3.77359 2.22558 0
M  V30 7576 C 744.279 -4.40066 0.534515 0
M  V30 7577 H 741.499 -0.629888 0.231263 0
M  V30 7578 H 744.043 -1.60308 1.26971 0
M  V30 7579 H 742.198 -3.8661 0.247266 0
M  V30 7580 H 742.612 -4.71857 2.29022 0
M  V30 7581 H 744.086 -5.46838 0.753168 0
M  V30 7582 H 744.563 -4.35982 -0.530701 0
M  V30 7583 H 745.169 -4.10245 1.12158 0
M  V30 7584 N 743.484 -0.715051 -1.40445 0
M  V30 7585 C 744.394 -0.0631624 -2.34515 0
M  V30 7586 C 745.41 0.744397 -1.57273 0
M  V30 7587 O 746.586 0.677475 -1.89663 0
M  V30 7588 C 743.651 0.847915 -3.36172 0
M  V30 7589 C 742.712 0.0303655 -4.29289 0
M  V30 7590 C 741.945 0.898051 -5.2609 0
M  V30 7591 O 742.168 2.13729 -5.28844 0
M  V30 7592 O 741.102 0.337328 -6.00954 0
M  V30 7593 H 744.928 -0.839078 -2.91879 0
M  V30 7594 H 742.513 -0.475527 -1.4163 0
M  V30 7595 H 744.395 1.3698 -3.98515 0
M  V30 7596 H 743.07 1.60299 -2.81222 0
M  V30 7597 H 741.977 -0.536573 -3.70232 0
M  V30 7598 H 743.31 -0.686474 -4.87389 0
M  V30 7599 N 744.962 1.50701 -0.461195 0
M  V30 7600 C 745.892 2.31182 0.328184 0
M  V30 7601 C 746.873 1.37644 0.999408 0
M  V30 7602 O 748.058 1.66565 0.99848 0
M  V30 7603 C 745.188 3.17113 1.41621 0
M  V30 7604 C 744.142 4.19124 0.867148 0
M  V30 7605 C 743.468 4.93728 2.05272 0
M  V30 7606 C 744.768 5.22174 -0.114808 0
M  V30 7607 H 746.462 2.97423 -0.343501 0
M  V30 7608 H 744.008 1.43033 -0.166641 0
M  V30 7609 H 745.961 3.72208 1.97584 0
M  V30 7610 H 744.685 2.48739 2.11652 0
M  V30 7611 H 743.344 3.65116 0.329557 0
M  V30 7612 H 742.992 4.21835 2.73978 0
M  V30 7613 H 742.692 5.62724 1.69161 0
M  V30 7614 H 744.216 5.51654 2.61744 0
M  V30 7615 H 745.63 5.72198 0.355316 0
M  V30 7616 H 744.027 5.98833 -0.389689 0
M  V30 7617 H 745.097 4.7353 -1.04391 0
M  V30 7618 N 746.441 0.193421 1.56409 0
M  V30 7619 C 747.681 -0.447977 1.9943 0
M  V30 7620 C 748.045 -1.58915 1.07751 0
M  V30 7621 O 749.246 -2.29462 1.40002 0
M  V30 7622 C 747.517 -0.89793 3.45936 0
M  V30 7623 S 749.076 -1.5374 4.10986 0
M  V30 7624 H 745.894 -0.143316 0.696406 0
M  V30 7625 H 748.496 0.296093 1.93245 0
M  V30 7626 H 747.2 -0.0572927 4.1036 0
M  V30 7627 H 746.731 -1.67551 3.55936 0
M  V30 7628 H 748.746 -2.82612 4.07854 0
M  V30 7629 N 747.919 -1.57396 -0.0801906 0
M  V30 7630 C 749.335 -1.53564 -0.434778 0
M  V30 7631 C 749.535 -0.912372 -1.79661 0
M  V30 7632 O 748.591 -0.511268 -2.4727 0
M  V30 7633 C 749.904 -2.98244 -0.383561 0
M  V30 7634 C 751.452 -3.09536 -0.46435 0
M  V30 7635 C 751.927 -4.55851 -0.443128 0
M  V30 7636 N 753.418 -4.60456 -0.503448 0
M  V30 7637 C 754.153 -5.71135 -0.509106 0
M  V30 7638 N 753.649 -6.91203 -0.47008 0
M  V30 7639 N 755.442 -5.59353 -0.555035 0
M  V30 7640 H 747.593 -1.96281 0.811635 0
M  V30 7641 H 749.856 -0.898041 0.303689 0
M  V30 7642 H 749.562 -3.47369 0.550236 0
M  V30 7643 H 749.436 -3.57705 -1.19694 0
M  V30 7644 H 751.823 -2.6039 -1.38857 0
M  V30 7645 H 751.904 -2.53 0.377445 0
M  V30 7646 H 751.548 -5.05653 0.477207 0
M  V30 7647 H 751.478 -5.10242 -1.30234 0
M  V30 7648 H 753.969 -3.74048 -0.538199 0
M  V30 7649 H 754.282 -7.7132 -0.478091 0
M  V30 7650 H 752.627 -6.93625 -0.436897 0
M  V30 7651 H 755.818 -4.64453 -0.583158 0
M  V30 7652 H 755.991 -6.4561 -0.555976 0
M  V30 7653 N 749.397 0.351382 -1.53633 0
M  V30 7654 C 750.327 1.43688 -1.84055 0
M  V30 7655 C 751.308 1.55251 -0.695073 0
M  V30 7656 O 752.493 1.69587 -0.946257 0
M  V30 7657 C 749.623 2.80843 -2.04315 0
M  V30 7658 C 748.577 2.84094 -3.20117 0
M  V30 7659 C 747.903 4.2406 -3.25696 0
M  V30 7660 C 749.203 2.50334 -4.58399 0
M  V30 7661 H 750.897 1.18478 -2.74961 0
M  V30 7662 H 748.443 0.568509 -1.32303 0
M  V30 7663 H 750.396 3.56821 -2.2418 0
M  V30 7664 H 749.12 3.07471 -1.10132 0
M  V30 7665 H 747.779 2.10568 -3.00094 0
M  V30 7666 H 747.427 4.47785 -2.29123 0
M  V30 7667 H 747.127 4.27147 -4.03509 0
M  V30 7668 H 748.651 5.0189 -3.47762 0
M  V30 7669 H 750.065 3.16025 -4.78332 0
M  V30 7670 H 748.462 2.64717 -5.38558 0
M  V30 7671 H 749.532 1.45542 -4.62543 0
M  V30 7672 N 750.875 1.45233 0.611969 0
M  V30 7673 C 751.838 1.53189 1.70487 0
M  V30 7674 C 752.838 0.411839 1.55437 0
M  V30 7675 O 754.028 0.675164 1.60584 0
M  V30 7676 C 751.16 1.42422 3.09723 0
M  V30 7677 H 752.353 2.5056 1.64802 0
M  V30 7678 H 749.906 1.32609 0.827318 0
M  V30 7679 H 750.641 0.462185 3.2099 0
M  V30 7680 H 750.426 2.23658 3.22055 0
M  V30 7681 H 751.916 1.51012 3.89339 0
M  V30 7682 N 752.353 -0.854086 1.3245 0
M  V30 7683 C 753.583 -1.63836 1.25862 0
M  V30 7684 C 753.991 -1.88383 -0.175588 0
M  V30 7685 O 753.334 -1.45353 -1.1233 0
M  V30 7686 C 753.396 -3.02068 1.94923 0
M  V30 7687 C 753.06 -3.0056 3.44257 0
M  V30 7688 C 754.057 -2.77368 4.39731 0
M  V30 7689 C 751.742 -3.21177 3.862 0
M  V30 7690 C 753.736 -2.74797 5.75122 0
M  V30 7691 C 751.423 -3.18234 5.217 0
M  V30 7692 C 752.421 -2.95072 6.15972 0
M  V30 7693 O 752.109 -2.92003 7.48992 0
M  V30 7694 H 751.841 -0.517007 0.435523 0
M  V30 7695 H 754.395 -1.07314 1.75137 0
M  V30 7696 H 752.625 -3.60382 1.40219 0
M  V30 7697 H 754.314 -3.62791 1.82037 0
M  V30 7698 H 755.08 -2.61205 4.08653 0
M  V30 7699 H 750.959 -3.38231 3.13243 0
M  V30 7700 H 754.503 -2.56638 6.48678 0
M  V30 7701 H 750.4 -3.33941 5.52407 0
M  V30 7702 H 751.168 -3.07953 7.58358 0
M  V30 7703 N 753.831 -1.1567 -1.07043 0
M  V30 7704 C 755.247 -0.900006 -1.31803 0
M  V30 7705 C 755.447 0.451293 -1.96381 0
M  V30 7706 O 754.503 1.19252 -2.22565 0
M  V30 7707 C 755.816 -2.04334 -2.20609 0
M  V30 7708 C 757.364 -2.07823 -2.34048 0
M  V30 7709 C 757.839 -3.21488 -3.26204 0
M  V30 7710 N 759.33 -3.21156 -3.33786 0
M  V30 7711 C 760.065 -4.05746 -4.05163 0
M  V30 7712 N 759.561 -5.00407 -4.79129 0
M  V30 7713 N 761.354 -3.93759 -4.01136 0
M  V30 7714 H 753.505 -2.02681 -0.635146 0
M  V30 7715 H 755.768 -0.883956 -0.342528 0
M  V30 7716 H 755.474 -3.01895 -1.80423 0
M  V30 7717 H 755.348 -1.97838 -3.21154 0
M  V30 7718 H 757.735 -1.1086 -2.73485 0
M  V30 7719 H 757.816 -2.18386 -1.33197 0
M  V30 7720 H 757.46 -4.18706 -2.87485 0
M  V30 7721 H 757.39 -3.08162 -4.27017 0
M  V30 7722 H 759.881 -2.52606 -2.81067 0
M  V30 7723 H 760.194 -5.61387 -5.31097 0
M  V30 7724 H 758.539 -5.04393 -4.78135 0
M  V30 7725 H 761.73 -3.19115 -3.42466 0
M  V30 7726 H 761.903 -4.59906 -4.56498 0
M  V30 7727 N 755.309 1.25446 -0.953992 0
M  V30 7728 C 756.272 2.24156 -0.478179 0
M  V30 7729 C 757.272 1.55278 0.417776 0
M  V30 7730 O 758.462 1.72866 0.215155 0
M  V30 7731 C 755.594 3.39495 0.309202 0
M  V30 7732 H 756.787 2.67764 -1.35064 0
M  V30 7733 H 754.34 1.37822 -0.737206 0
M  V30 7734 H 755.075 3.01307 1.19936 0
M  V30 7735 H 754.86 3.90679 -0.333562 0
M  V30 7736 H 756.35 4.12796 0.631594 0
M  V30 7737 N 756.787 0.722489 1.40064 0
M  V30 7738 C 758.064 0.191829 1.94657 0
M  V30 7739 C 758.444 -1.30389 1.66018 0
M  V30 7740 O 757.792 -2.06342 0.981588 0
M  V30 7741 C 758.002 0.511978 3.45224 0
M  V30 7742 C 759.35 0.454426 4.22161 0
M  V30 7743 O 760.374 0.448438 3.53366 0
M  V30 7744 O 759.233 0.437986 5.44742 0
M  V30 7745 H 756.327 0.0307821 0.826427 0
M  V30 7746 H 758.873 0.800493 1.49634 0
M  V30 7747 H 757.645 1.54622 3.59455 0
M  V30 7748 H 757.268 -0.126296 3.97399 0
M  V30 7749 N 758.265 -1.50454 0.469181 0
M  V30 7750 C 759.195 -2.31353 -0.31592 0
M  V30 7751 C 760.176 -1.38172 -0.992094 0
M  V30 7752 O 761.361 -1.67093 -0.989633 0
M  V30 7753 C 758.491 -3.1786 -1.39937 0
M  V30 7754 C 757.445 -4.19578 -0.844909 0
M  V30 7755 C 756.771 -4.9481 -2.0265 0
M  V30 7756 C 758.071 -5.22106 0.142499 0
M  V30 7757 H 759.765 -2.97237 0.359269 0
M  V30 7758 H 757.311 -1.42942 0.174224 0
M  V30 7759 H 759.264 -3.7325 -1.95607 0
M  V30 7760 H 757.988 -2.49858 -2.1033 0
M  V30 7761 H 756.647 -3.65285 -0.310189 0
M  V30 7762 H 756.295 -4.23282 -2.71737 0
M  V30 7763 H 755.995 -5.63613 -1.66174 0
M  V30 7764 H 757.519 -5.53035 -2.58815 0
M  V30 7765 H 758.933 -5.72378 -0.324966 0
M  V30 7766 H 757.33 -5.98618 0.421441 0
M  V30 7767 H 758.4 -4.7297 1.06901 0
M  V30 7768 N 759.743 -0.201713 -1.56304 0
M  V30 7769 C 760.653 0.728296 -2.23009 0
M  V30 7770 C 761.669 1.22945 -1.23128 0
M  V30 7771 O 762.845 1.27523 -1.55884 0
M  V30 7772 C 759.91 1.92792 -2.88153 0
M  V30 7773 C 758.971 1.47068 -4.03323 0
M  V30 7774 C 758.204 2.61312 -4.65351 0
M  V30 7775 O 758.427 3.7896 -4.26317 0
M  V30 7776 O 757.361 2.33646 -5.54701 0
M  V30 7777 H 761.187 0.190166 -3.03104 0
M  V30 7778 H 758.772 0.0278725 -1.49374 0
M  V30 7779 H 760.654 2.6289 -3.29343 0
M  V30 7780 H 759.329 2.45452 -2.11033 0
M  V30 7781 H 758.236 0.738299 -3.66742 0
M  V30 7782 H 759.569 0.990666 -4.82127 0
M  V30 7783 N 761.222 1.57436 0.0718424 0
M  V30 7784 C 762.47 1.86878 0.769484 0
M  V30 7785 C 762.791 0.7937 1.78116 0
M  V30 7786 O 762.061 -0.177642 1.95093 0
M  V30 7787 H 760.641 0.689593 0.287177 0
M  V30 7788 H 763.303 1.94841 0.0479427 0
M  V30 7789 H 762.399 2.84387 1.28572 0
M  V30 7790 N 762.7 -0.34323 1.53817 0
M  V30 7791 C 763.63 -1.42709 1.84814 0
M  V30 7792 C 764.611 -1.5488 0.703297 0
M  V30 7793 O 765.796 -1.69082 0.955237 0
M  V30 7794 C 762.926 -2.79756 2.05801 0
M  V30 7795 C 761.88 -2.82392 3.21619 0
M  V30 7796 C 761.206 -4.22326 3.2794 0
M  V30 7797 C 762.506 -2.479 4.59721 0
M  V30 7798 H 764.2 -1.17018 2.75585 0
M  V30 7799 H 761.746 -0.561485 1.32602 0
M  V30 7800 H 763.699 -3.55627 2.26069 0
M  V30 7801 H 762.423 -3.06883 1.11761 0
M  V30 7802 H 761.082 -2.08974 3.01207 0
M  V30 7803 H 760.73 -4.46564 2.31494 0
M  V30 7804 H 760.43 -4.25001 4.05768 0
M  V30 7805 H 761.954 -5.00039 3.50419 0
M  V30 7806 H 763.368 -3.13484 4.80001 0
M  V30 7807 H 761.765 -2.61857 5.39954 0
M  V30 7808 H 762.835 -1.43087 4.63308 0
M  V30 7809 N 764.178 -1.45556 -0.604258 0
M  V30 7810 C 765.11 -1.50494 -1.72871 0
M  V30 7811 C 766.123 -0.395368 -1.57926 0
M  V30 7812 O 767.312 -0.662603 -1.65746 0
M  V30 7813 C 764.412 -1.34874 -3.10906 0
M  V30 7814 C 763.585 -2.59564 -3.52058 0
M  V30 7815 C 762.644 -2.38453 -4.6907 0
M  V30 7816 O 761.67 -3.12082 -4.76018 0
M  V30 7817 N 762.872 -1.43229 -5.62553 0
M  V30 7818 H 765.637 -2.4744 -1.69097 0
M  V30 7819 H 763.198 -1.41338 -0.789636 0
M  V30 7820 H 765.19 -1.18556 -3.86945 0
M  V30 7821 H 763.76 -0.461913 -3.09168 0
M  V30 7822 H 762.98 -2.90974 -2.65946 0
M  V30 7823 H 764.268 -3.42441 -3.76313 0
M  V30 7824 H 763.666 -0.824714 -5.59656 0
M  V30 7825 H 762.223 -1.32882 -6.38111 0
M  V30 7826 N 765.656 0.84705 -1.32902 0
M  V30 7827 C 766.902 1.60414 -1.24078 0
M  V30 7828 C 767.235 1.93217 0.195105 0
M  V30 7829 O 766.51 1.58001 1.13428 0
M  V30 7830 C 766.793 2.91951 -2.108 0
M  V30 7831 C 766.646 2.6588 -3.62805 0
M  V30 7832 C 767.965 3.93299 -1.97494 0
M  V30 7833 H 765.084 0.58206 -0.452079 0
M  V30 7834 H 767.726 0.977562 -1.62922 0
M  V30 7835 H 765.876 3.45425 -1.77802 0
M  V30 7836 H 767.548 2.18902 -4.06054 0
M  V30 7837 H 765.791 1.99716 -3.85092 0
M  V30 7838 H 766.462 3.59574 -4.1882 0
M  V30 7839 H 768.938 3.49105 -2.26417 0
M  V30 7840 H 767.814 4.8318 -2.60438 0
M  V30 7841 H 768.075 4.31887 -0.944782 0
M  V30 7842 N 767.134 1.16236 1.06428 0
M  V30 7843 C 768.38 0.954417 1.79617 0
M  V30 7844 C 768.735 -0.512411 1.85451 0
M  V30 7845 O 768.028 -1.37523 1.33409 0
M  V30 7846 C 768.222 1.51396 3.2375 0
M  V30 7847 C 768.051 3.03367 3.31962 0
M  V30 7848 C 766.821 3.71996 3.41975 0
M  V30 7849 C 769.019 4.01075 3.21937 0
M  V30 7850 N 767.001 5.11688 3.39187 0
M  V30 7851 C 768.372 5.27142 3.26376 0
M  V30 7852 C 770.427 3.92917 3.05812 0
M  V30 7853 C 769.13 6.46 3.16348 0
M  V30 7854 C 771.156 5.11344 2.97121 0
M  V30 7855 C 770.518 6.36291 3.02181 0
M  V30 7856 H 766.617 0.403007 0.670156 0
M  V30 7857 H 769.201 1.47605 1.26968 0
M  V30 7858 H 767.372 1.01883 3.74799 0
M  V30 7859 H 769.104 1.2439 3.85109 0
M  V30 7860 H 765.859 3.22623 3.46715 0
M  V30 7861 H 766.283 5.84676 3.41297 0
M  V30 7862 H 770.925 2.97172 3.00746 0
M  V30 7863 H 768.643 7.41968 3.2017 0
M  V30 7864 H 772.229 5.06801 2.85734 0
M  V30 7865 H 771.109 7.26389 2.95513 0
M  V30 7866 N 768.612 -1.24939 0.960631 0
M  V30 7867 C 769.858 -1.93425 0.629155 0
M  V30 7868 C 770.213 -1.73784 -0.825635 0
M  V30 7869 O 769.506 -1.07595 -1.58536 0
M  V30 7870 C 769.7 -3.45066 0.930809 0
M  V30 7871 C 769.529 -3.79455 2.41337 0
M  V30 7872 C 768.299 -4.01195 3.07197 0
M  V30 7873 C 770.497 -3.86492 3.39306 0
M  V30 7874 N 768.479 -4.22626 4.45265 0
M  V30 7875 C 769.85 -4.12682 4.62702 0
M  V30 7876 C 771.905 -3.69198 3.34061 0
M  V30 7877 C 770.608 -4.23376 5.81502 0
M  V30 7878 C 772.634 -3.81135 4.52206 0
M  V30 7879 C 771.996 -4.07743 5.74391 0
M  V30 7880 H 768.095 -0.729791 0.280943 0
M  V30 7881 H 770.679 -1.50597 1.23404 0
M  V30 7882 H 768.85 -3.86776 0.354801 0
M  V30 7883 H 770.582 -4.00826 0.558627 0
M  V30 7884 H 767.337 -3.97319 2.5775 0
M  V30 7885 H 767.761 -4.37335 5.16785 0
M  V30 7886 H 772.403 -3.47639 2.40638 0
M  V30 7887 H 770.121 -4.4375 6.75361 0
M  V30 7888 H 773.707 -3.69133 4.49702 0
M  V30 7889 H 772.587 -4.16768 6.64284 0
M  V30 7890 N 770.09 -0.729906 -1.39679 0
M  V30 7891 C 771.022 -0.0470588 -2.29152 0
M  V30 7892 C 772.035 0.708808 -1.4656 0
M  V30 7893 O 773.224 0.553815 -1.69691 0
M  V30 7894 C 770.324 0.957612 -3.25089 0
M  V30 7895 C 769.497 0.264321 -4.36601 0
M  V30 7896 C 768.556 1.17638 -5.12882 0
M  V30 7897 O 767.582 0.655777 -5.6541 0
M  V30 7898 N 768.784 2.50649 -5.23598 0
M  V30 7899 H 771.549 -0.815364 -2.88395 0
M  V30 7900 H 769.11 -0.578707 -1.51204 0
M  V30 7901 H 771.102 1.57026 -3.72995 0
M  V30 7902 H 769.672 1.62716 -2.66912 0
M  V30 7903 H 768.892 -0.528732 -3.90638 0
M  V30 7904 H 770.18 -0.216344 -5.0834 0
M  V30 7905 H 769.578 2.95427 -4.82431 0
M  V30 7906 H 768.135 3.07022 -5.74961 0
M  V30 7907 N 771.568 1.50203 -0.477153 0
M  V30 7908 C 772.531 2.27194 0.302599 0
M  V30 7909 C 773.531 1.32221 0.915112 0
M  V30 7910 O 774.721 1.55593 0.783348 0
M  V30 7911 C 771.853 3.0938 1.43167 0
M  V30 7912 H 773.046 2.97575 -0.372678 0
M  V30 7913 H 770.599 1.54578 -0.231392 0
M  V30 7914 H 771.334 2.43509 2.14182 0
M  V30 7915 H 771.119 3.79181 0.998197 0
M  V30 7916 H 772.609 3.67592 1.98157 0
M  V30 7917 N 773.046 0.209999 1.56195 0
M  V30 7918 C 774.294 -0.423974 1.97603 0
M  V30 7919 C 774.615 -1.61112 1.09854 0
M  V30 7920 O 773.885 -1.95134 0.173032 0
M  V30 7921 H 772.465 -0.159629 0.729745 0
M  V30 7922 H 775.127 0.300205 1.92574 0
M  V30 7923 H 774.223 -0.75809 3.02753 0
M  V30 7924 N 774.524 -1.57472 -0.0634922 0
M  V30 7925 C 775.487 -2.03268 -1.059 0
M  V30 7926 C 776.487 -0.931028 -1.31105 0
M  V30 7927 O 777.677 -1.19567 -1.26686 0
M  V30 7928 C 774.809 -2.42039 -2.40062 0
M  V30 7929 H 776.002 -2.92454 -0.664119 0
M  V30 7930 H 773.555 -1.53206 -0.309444 0
M  V30 7931 H 774.29 -1.55904 -2.84367 0
M  V30 7932 H 774.075 -3.22437 -2.23108 0
M  V30 7933 H 775.565 -2.78017 -3.11603 0
M  V30 7934 N 776.003 0.335068 -1.53997 0
M  V30 7935 C 777.28 1.09188 -1.62288 0
M  V30 7936 C 777.66 2.0626 -0.449458 0
M  V30 7937 O 777.008 2.21596 0.557444 0
M  V30 7938 C 777.218 1.80403 -2.98757 0
M  V30 7939 C 778.566 2.33841 -3.54406 0
M  V30 7940 O 779.59 1.90487 -3.00987 0
M  V30 7941 O 778.449 3.1318 -4.47862 0
M  V30 7942 H 775.543 0.502621 -0.656736 0
M  V30 7943 H 778.089 0.33588 -1.66343 0
M  V30 7944 H 776.861 1.09732 -3.75599 0
M  V30 7945 H 776.484 2.62841 -2.9833 0
M  V30 7946 N 777.481 1.45874 0.596531 0
M  V30 7947 C 778.411 1.5824 1.71705 0
M  V30 7948 C 779.392 0.433366 1.64487 0
M  V30 7949 O 780.577 0.657895 1.82717 0
M  V30 7950 C 777.707 1.55927 3.10329 0
M  V30 7951 C 776.661 2.69659 3.32367 0
M  V30 7952 C 775.987 2.52403 4.71377 0
M  V30 7953 C 777.287 4.11591 3.21544 0
M  V30 7954 H 778.981 2.52035 1.61613 0
M  V30 7955 H 776.527 1.21297 0.776082 0
M  V30 7956 H 778.48 1.63173 3.88526 0
M  V30 7957 H 777.204 0.586674 3.21288 0
M  V30 7958 H 775.863 2.61859 2.56564 0
M  V30 7959 H 775.511 1.53258 4.79083 0
M  V30 7960 H 775.211 3.28679 4.87077 0
M  V30 7961 H 776.735 2.6152 5.5176 0
M  V30 7962 H 778.149 4.20576 3.89601 0
M  V30 7963 H 776.546 4.88344 3.4877 0
M  V30 7964 H 777.616 4.32719 2.1882 0
M  V30 7965 N 778.959 -0.83999 1.33349 0
M  V30 7966 C 780.207 -1.59202 1.24496 0
M  V30 7967 C 780.528 -1.94077 -0.189499 0
M  V30 7968 O 779.798 -1.60868 -1.11796 0
M  V30 7969 H 778.378 -0.590276 0.457802 0
M  V30 7970 H 781.04 -1.00394 1.67054 0
M  V30 7971 H 780.136 -2.52247 1.83788 0
M  V30 7972 N 780.437 -1.16799 -1.0581 0
M  V30 7973 C 781.369 -0.836774 -2.13379 0
M  V30 7974 C 782.382 0.158116 -1.6203 0
M  V30 7975 O 783.571 -0.0673211 -1.78373 0
M  V30 7976 C 780.671 -0.225959 -3.38146 0
M  V30 7977 C 779.844 -1.26217 -4.18794 0
M  V30 7978 C 778.903 -0.670257 -5.21914 0
M  V30 7979 O 777.929 -1.34042 -5.53192 0
M  V30 7980 N 779.131 0.540683 -5.77977 0
M  V30 7981 H 781.896 -1.76257 -2.42391 0
M  V30 7982 H 779.457 -1.06599 -1.21853 0
M  V30 7983 H 781.449 0.18317 -4.04285 0
M  V30 7984 H 780.019 0.603494 -3.06719 0
M  V30 7985 H 779.239 -1.84729 -3.48237 0
M  V30 7986 H 780.527 -1.9613 -4.69479 0
M  V30 7987 H 779.925 1.10322 -5.54838 0
M  V30 7988 H 778.482 0.891958 -6.45668 0
M  V30 7989 N 781.915 1.24427 -0.967243 0
M  V30 7990 C 783.326 1.74349 -0.667785 0
M  V30 7991 C 783.677 1.78403 0.816509 0
M  V30 7992 O 782.802 1.41315 1.63887 0
M  V30 7993 C 783.397 3.16628 -1.20548 0
M  V30 7994 C 781.956 3.64059 -0.955934 0
M  V30 7995 C 781.103 2.42715 -1.34106 0
M  V30 7996 H 784.054 1.10136 -1.14262 0
M  V30 7997 H 784.075 3.76183 -0.571547 0
M  V30 7998 H 783.587 3.13646 -2.28578 0
M  V30 7999 H 781.688 3.72441 0.108858 0
M  V30 8000 H 781.801 4.51549 -1.60126 0
M  V30 8001 H 780.165 2.43114 -0.759452 0
M  V30 8002 H 780.948 2.42414 -2.43085 0
M  V30 8003 N 783.393 0.737304 1.3929 0
M  V30 8004 C 784.641 0.285691 2.00071 0
M  V30 8005 C 784.962 -1.13169 1.58801 0
M  V30 8006 O 784.232 -1.77104 0.837308 0
M  V30 8007 H 782.812 0.102638 0.739915 0
M  V30 8008 H 785.474 0.947775 1.70303 0
M  V30 8009 H 784.57 0.335906 3.10287 0
M  V30 8010 N 784.871 -1.49948 0.485112 0
M  V30 8011 C 786.101 -2.06506 -0.0621921 0
M  V30 8012 C 786.509 -1.34756 -1.32806 0
M  V30 8013 O 785.852 -0.41466 -1.78959 0
M  V30 8014 C 785.914 -3.57243 -0.402182 0
M  V30 8015 C 785.578 -4.50574 0.763671 0
M  V30 8016 C 786.575 -4.93032 1.6497 0
M  V30 8017 C 784.26 -4.9308 0.957973 0
M  V30 8018 C 786.254 -5.76718 2.71432 0
M  V30 8019 C 783.941 -5.76546 2.0258 0
M  V30 8020 C 784.939 -6.18267 2.90232 0
M  V30 8021 O 784.627 -7.00066 3.95174 0
M  V30 8022 H 784.359 -0.675925 0.0100672 0
M  V30 8023 H 786.913 -1.93922 0.677023 0
M  V30 8024 H 785.143 -3.6778 -1.19478 0
M  V30 8025 H 786.832 -3.96107 -0.886219 0
M  V30 8026 H 787.598 -4.60851 1.51134 0
M  V30 8027 H 783.477 -4.60117 0.285144 0
M  V30 8028 H 787.021 -6.09203 3.39878 0
M  V30 8029 H 782.918 -6.0814 2.16417 0
M  V30 8030 H 783.686 -7.18343 3.92333 0
M  V30 8031 N 786.349 -0.21828 -1.56081 0
M  V30 8032 C 787.626 0.463143 -1.90038 0
M  V30 8033 C 788.006 1.77982 -1.13515 0
M  V30 8034 O 787.354 2.27199 -0.24345 0
M  V30 8035 C 787.564 0.659292 -3.42716 0
M  V30 8036 C 788.912 0.968203 -4.13414 0
M  V30 8037 O 789.936 0.746195 -3.48296 0
M  V30 8038 O 788.795 1.38936 -5.28544 0
M  V30 8039 H 785.889 0.244435 -0.790051 0
M  V30 8040 H 788.435 -0.260221 -1.67693 0
M  V30 8041 H 787.207 -0.269584 -3.9037 0
M  V30 8042 H 786.83 1.43426 -3.7083 0
M  V30 8043 N 787.827 1.57504 0.0551401 0
M  V30 8044 C 789.075 1.87684 0.74962 0
M  V30 8045 C 789.396 0.812547 1.77264 0
M  V30 8046 O 788.666 -0.15694 1.9527 0
M  V30 8047 H 787.246 0.6926 0.279846 0
M  V30 8048 H 789.908 1.94881 0.0272745 0
M  V30 8049 H 789.004 2.85734 1.25548 0
M  V30 8050 N 789.305 -0.326896 1.54172 0
M  V30 8051 C 790.255 -1.40319 1.79707 0
M  V30 8052 C 791.239 -1.47056 0.652938 0
M  V30 8053 O 792.431 -1.51645 0.91284 0
M  V30 8054 C 789.56 -2.77222 2.02491 0
M  V30 8055 C 788.646 -2.74811 3.23016 0
M  V30 8056 N 789.037 -2.42022 4.44138 0
M  V30 8057 C 787.335 -3.05943 3.24522 0
M  V30 8058 C 788.036 -2.48263 5.26061 0
M  V30 8059 N 787.012 -2.84567 4.63166 0
M  V30 8060 H 790.814 -1.13892 2.70935 0
M  V30 8061 H 788.328 -0.53536 1.53322 0
M  V30 8062 H 790.325 -3.54793 2.18923 0
M  V30 8063 H 788.985 -3.04582 1.12515 0
M  V30 8064 H 789.996 -2.14926 4.71197 0
M  V30 8065 H 786.673 -3.38367 2.44569 0
M  V30 8066 H 788.063 -2.2593 6.32776 0
M  V30 8067 N 790.784 -1.46188 -0.588786 0
M  V30 8068 C 792.009 -1.5498 -1.37826 0
M  V30 8069 C 792.434 -0.189498 -1.87143 0
M  V30 8070 O 791.792 0.829293 -1.61222 0
M  V30 8071 C 791.84 -2.55369 -2.54596 0
M  V30 8072 O 790.944 -2.08452 -3.55839 0
M  V30 8073 H 790.285 -0.521741 -0.41071 0
M  V30 8074 H 792.815 -1.91708 -0.714779 0
M  V30 8075 H 792.825 -2.74782 -3.01594 0
M  V30 8076 H 791.5 -3.54155 -2.18052 0
M  V30 8077 H 790.077 -1.98999 -3.15363 0
M  V30 8078 N 792.262 0.832906 -1.33792 0
M  V30 8079 C 793.225 1.92471 -1.24449 0
M  V30 8080 C 794.225 1.59981 -0.162085 0
M  V30 8081 O 795.415 1.69208 -0.414029 0
M  V30 8082 C 792.547 3.28278 -0.919044 0
M  V30 8083 H 793.74 2.0218 -2.21502 0
M  V30 8084 H 791.293 1.0257 -1.17936 0
M  V30 8085 H 792.028 3.24263 0.048738 0
M  V30 8086 H 791.813 3.53241 -1.70187 0
M  V30 8087 H 793.303 4.08253 -0.878576 0
M  V30 8088 N 793.74 1.17359 1.05189 0
M  V30 8089 C 794.67 0.91365 2.14883 0
M  V30 8090 C 795.651 -0.144365 1.69486 0
M  V30 8091 O 796.836 0.00587861 1.94199 0
M  V30 8092 C 793.966 0.426196 3.44675 0
M  V30 8093 C 792.92 1.4234 4.03638 0
M  V30 8094 C 792.246 0.793902 5.28773 0
M  V30 8095 C 793.546 2.7966 4.41121 0
M  V30 8096 H 795.24 1.831 2.36885 0
M  V30 8097 H 792.786 0.881781 1.13845 0
M  V30 8098 H 794.739 0.231767 4.20762 0
M  V30 8099 H 793.463 -0.526693 3.22325 0
M  V30 8100 H 792.122 1.60457 3.2962 0
M  V30 8101 H 791.77 -0.165824 5.02727 0
M  V30 8102 H 791.47 1.45959 5.69183 0
M  V30 8103 H 792.994 0.609747 6.07548 0
M  V30 8104 H 794.408 2.6526 5.08242 0
M  V30 8105 H 792.805 3.42807 4.92548 0
M  V30 8106 H 793.875 3.34068 3.51464 0
M  V30 8107 N 795.218 -1.23913 0.973828 0
M  V30 8108 C 796.168 -2.22892 0.479933 0
M  V30 8109 C 797.152 -1.54726 -0.441434 0
M  V30 8110 O 798.344 -1.74908 -0.271358 0
M  V30 8111 C 795.473 -3.42577 -0.222702 0
M  V30 8112 C 794.559 -4.17981 0.717851 0
M  V30 8113 N 794.95 -4.7045 1.8577 0
M  V30 8114 C 793.248 -4.42841 0.529858 0
M  V30 8115 C 793.949 -5.27751 2.44651 0
M  V30 8116 N 792.925 -5.15302 1.73104 0
M  V30 8117 H 796.727 -2.61083 1.34956 0
M  V30 8118 H 794.241 -1.39368 0.83368 0
M  V30 8119 H 796.238 -4.1265 -0.593793 0
M  V30 8120 H 794.898 -3.05904 -1.0887 0
M  V30 8121 H 795.909 -4.66997 2.23908 0
M  V30 8122 H 792.586 -4.1648 -0.291664 0
M  V30 8123 H 793.976 -5.79011 3.40875 0
M  V30 8124 N 796.696 -0.74468 -1.38897 0
M  V30 8125 C 797.942 -0.297324 -2.00609 0
M  V30 8126 C 798.275 1.11547 -1.58968 0
M  V30 8127 O 797.55 1.76227 -0.823057 0
M  V30 8128 C 797.833 -0.410125 -3.57757 0
M  V30 8129 C 797.686 -1.86338 -4.09387 0
M  V30 8130 C 799.005 0.20176 -4.39637 0
M  V30 8131 H 796.124 -0.109509 -0.728819 0
M  V30 8132 H 798.766 -0.942653 -1.64967 0
M  V30 8133 H 796.916 0.139287 -3.8825 0
M  V30 8134 H 798.588 -2.47042 -3.89574 0
M  V30 8135 H 796.831 -2.38146 -3.62586 0
M  V30 8136 H 797.502 -1.89352 -5.18507 0
M  V30 8137 H 799.978 -0.266703 -4.15244 0
M  V30 8138 H 798.854 0.0925415 -5.48822 0
M  V30 8139 H 799.115 1.289 -4.22891 0
M  V30 8140 N 798.174 1.49689 -0.493057 0
M  V30 8141 C 799.137 2.27502 0.278485 0
M  V30 8142 C 800.137 1.33184 0.901037 0
M  V30 8143 O 801.327 1.56415 0.766801 0
M  V30 8144 C 798.459 3.10881 1.39878 0
M  V30 8145 H 799.652 2.97163 -0.404219 0
M  V30 8146 H 797.205 1.54324 -0.247774 0
M  V30 8147 H 797.94 2.45767 2.11587 0
M  V30 8148 H 797.725 3.80219 0.957924 0
M  V30 8149 H 799.215 3.69673 1.94247 0
M  V30 8150 N 799.652 0.226554 1.55963 0
M  V30 8151 C 800.562 -0.692725 2.24139 0
M  V30 8152 C 801.578 -1.20971 1.25068 0
M  V30 8153 O 802.754 -1.25027 1.57893 0
M  V30 8154 C 799.819 -1.88183 2.91184 0
M  V30 8155 C 798.88 -1.40633 4.05612 0
M  V30 8156 C 798.113 -2.53875 4.6945 0
M  V30 8157 O 798.336 -3.72129 4.32292 0
M  V30 8158 O 797.27 -2.24792 5.58348 0
M  V30 8159 H 801.096 -0.141921 3.03368 0
M  V30 8160 H 798.681 -0.0041049 1.49399 0
M  V30 8161 H 800.563 -2.57617 3.33484 0
M  V30 8162 H 799.238 -2.42064 2.14911 0
M  V30 8163 H 798.145 -0.67986 3.67871 0
M  V30 8164 H 799.478 -0.913838 4.83642 0
M  V30 8165 N 801.13 -1.57531 -0.0467866 0
M  V30 8166 C 802.093 -2.04379 -1.03738 0
M  V30 8167 C 803.093 -0.944881 -1.3011 0
M  V30 8168 O 804.283 -1.20904 -1.25411 0
M  V30 8169 C 801.415 -2.44572 -2.37482 0
M  V30 8170 H 802.608 -2.93142 -0.633063 0
M  V30 8171 H 800.161 -1.53526 -0.293177 0
M  V30 8172 H 800.896 -1.58911 -2.82697 0
M  V30 8173 H 800.681 -3.24785 -2.19675 0
M  V30 8174 H 802.171 -2.81307 -3.08636 0
M  V30 8175 N 802.608 0.318715 -1.54344 0
M  V30 8176 C 803.571 1.37545 -1.83342 0
M  V30 8177 C 804.571 1.445 -0.705444 0
M  V30 8178 O 805.761 1.44443 -0.973752 0
M  V30 8179 C 802.893 2.76225 -1.99781 0
M  V30 8180 H 804.086 1.13084 -2.77762 0
M  V30 8181 H 801.639 0.554457 -1.46135 0
M  V30 8182 H 802.374 3.05934 -1.07588 0
M  V30 8183 H 802.159 2.7257 -2.81865 0
M  V30 8184 H 803.649 3.52664 -2.23647 0
M  V30 8185 N 804.086 1.46499 0.581025 0
M  V30 8186 C 805.334 1.51596 1.33653 0
M  V30 8187 C 805.655 0.169859 1.94259 0
M  V30 8188 O 804.925 -0.803776 1.78651 0
M  V30 8189 H 803.505 0.558346 0.496244 0
M  V30 8190 H 806.167 1.8264 0.680338 0
M  V30 8191 H 805.263 2.26956 2.14237 0
M  V30 8192 N 805.565 -0.825799 1.34232 0
M  V30 8193 C 806.513 -1.95792 1.25572 0
M  V30 8194 C 807.507 -1.68695 0.154404 0
M  V30 8195 O 808.713 -1.77147 0.319196 0
M  V30 8196 H 805.088 -0.642949 0.390027 0
M  V30 8197 H 807.059 -2.00219 2.21258 0
M  V30 8198 C 805.808 -3.32245 1.02511 0
M  V30 8199 H 805.131 -3.53642 1.86487 0
M  V30 8200 H 806.571 -4.1192 1.00487 0
M  V30 8201 C 805.03 -3.35803 -0.27167 0
M  V30 8202 O 805.56 -3.80962 -1.274 0
M  V30 8203 N 803.766 -2.89008 -0.303778 0
M  V30 8204 H 803.313 -2.52451 0.512464 0
M  V30 8205 H 803.271 -2.9177 -1.17121 0
M  V30 8206 N 807.043 -1.17915 -1.04565 0
M  V30 8207 C 807.973 -0.925033 -2.14395 0
M  V30 8208 C 808.954 0.135375 -1.6956 0
M  V30 8209 O 810.139 -0.0161774 -1.94193 0
M  V30 8210 C 807.269 -0.444469 -3.44444 0
M  V30 8211 C 806.223 -1.44478 -4.02877 0
M  V30 8212 C 805.549 -0.821933 -5.28345 0
M  V30 8213 C 806.849 -2.81995 -4.39632 0
M  V30 8214 H 808.543 -1.84354 -2.35911 0
M  V30 8215 H 806.089 -0.887806 -1.13375 0
M  V30 8216 H 808.042 -0.254078 -4.20633 0
M  V30 8217 H 806.766 0.509592 -3.226 0
M  V30 8218 H 805.425 -1.62203 -3.28764 0
M  V30 8219 H 805.073 0.139161 -5.02807 0
M  V30 8220 H 804.773 -1.48976 -5.68401 0
M  V30 8221 H 806.297 -0.641959 -6.07216 0
M  V30 8222 H 807.711 -2.67952 -5.06828 0
M  V30 8223 H 806.108 -3.45414 -4.90723 0
M  V30 8224 H 807.178 -3.35927 -3.49687 0
M  V30 8225 N 808.521 1.23394 -0.980386 0
M  V30 8226 C 809.484 2.23092 -0.525619 0
M  V30 8227 C 810.484 1.56129 0.384745 0
M  V30 8228 O 811.674 1.73284 0.178439 0
M  V30 8229 C 808.806 3.40074 0.23712 0
M  V30 8230 H 809.999 2.64839 -1.40714 0
M  V30 8231 H 807.552 1.36227 -0.766275 0
M  V30 8232 H 808.287 3.03783 1.13518 0
M  V30 8233 H 808.072 3.89883 -0.416356 0
M  V30 8234 H 809.562 4.14043 0.543892 0
M  V30 8235 N 809.999 0.752036 1.385 0
M  V30 8236 C 811.245 0.307958 2.00448 0
M  V30 8237 C 811.578 -1.10702 1.59558 0
M  V30 8238 O 810.853 -1.75788 0.832391 0
M  V30 8239 C 811.136 0.429092 3.57534 0
M  V30 8240 C 810.989 1.88507 4.08393 0
M  V30 8241 C 812.308 -0.178442 4.39738 0
M  V30 8242 H 809.427 0.113373 0.728228 0
M  V30 8243 H 812.069 0.951389 1.64465 0
M  V30 8244 H 810.219 -0.118695 3.88319 0
M  V30 8245 H 811.891 2.49104 3.88259 0
M  V30 8246 H 810.134 2.40066 3.61318 0
M  V30 8247 H 810.805 1.92099 5.17496 0
M  V30 8248 H 813.281 0.28872 4.15097 0
M  V30 8249 H 812.157 -0.0634349 5.48863 0
M  V30 8250 H 812.418 -1.26655 4.23569 0
M  V30 8251 N 811.477 -1.49425 0.500989 0
M  V30 8252 C 812.723 -2.02753 -0.0436 0
M  V30 8253 C 813.056 -1.37991 -1.36646 0
M  V30 8254 O 812.331 -0.515597 -1.87542 0
M  V30 8255 C 812.614 -3.59565 -0.19616 0
M  V30 8256 C 812.467 -4.34855 1.14982 0
M  V30 8257 C 813.786 -4.30014 -0.936795 0
M  V30 8258 H 810.905 -0.73686 -0.0143711 0
M  V30 8259 H 813.547 -1.78448 0.652397 0
M  V30 8260 H 811.697 -3.80405 -0.788959 0
M  V30 8261 H 813.369 -4.25512 1.7815 0
M  V30 8262 H 811.612 -3.97414 1.73911 0
M  V30 8263 H 812.283 -5.42933 0.996385 0
M  V30 8264 H 814.759 -4.1383 -0.434036 0
M  V30 8265 H 813.635 -5.39483 -1.01238 0
M  V30 8266 H 813.896 -3.95257 -1.9805 0
M  V30 8267 N 812.955 -0.234822 -1.55841 0
M  V30 8268 C 813.918 0.656378 -2.196 0
M  V30 8269 C 814.918 1.11179 -1.16171 0
M  V30 8270 O 816.108 1.01845 -1.41326 0
M  V30 8271 C 813.24 1.90072 -2.82993 0
M  V30 8272 H 814.433 0.100281 -2.99732 0
M  V30 8273 H 811.986 0.0147613 -1.56293 0
M  V30 8274 H 812.721 2.49836 -2.06767 0
M  V30 8275 H 812.506 1.5825 -3.58747 0
M  V30 8276 H 813.996 2.53538 -3.31826 0
M  V30 8277 N 814.433 1.57553 0.0384317 0
M  V30 8278 C 815.68 1.88841 0.731116 0
M  V30 8279 C 816.008 0.83093 1.75857 0
M  V30 8280 O 815.263 -0.169248 1.94967 0
M  V30 8281 C 815.562 3.26862 1.44554 0
M  V30 8282 C 815.228 4.47472 0.554946 0
M  V30 8283 C 813.89 4.80203 0.309621 0
M  V30 8284 C 816.242 5.21165 -0.0605204 0
M  V30 8285 C 813.57 5.8402 -0.560101 0
M  V30 8286 C 815.922 6.25905 -0.91789 0
M  V30 8287 C 814.586 6.57117 -1.17277 0
M  V30 8288 H 813.856 0.691018 0.267534 0
M  V30 8289 H 816.503 1.91498 -0.00883195 0
M  V30 8290 H 814.808 3.2015 2.25856 0
M  V30 8291 H 816.505 3.48316 1.98688 0
M  V30 8292 H 813.095 4.21874 0.756304 0
M  V30 8293 H 817.279 4.96164 0.116064 0
M  V30 8294 H 812.535 6.06583 -0.765974 0
M  V30 8295 H 816.709 6.82155 -1.40136 0
M  V30 8296 H 814.336 7.37385 -1.84843 0
M  V30 8297 N 815.911 -0.310526 1.54511 0
M  V30 8298 C 816.841 -1.38757 1.878 0
M  V30 8299 C 817.822 -1.53353 0.735991 0
M  V30 8300 O 819.007 -1.67018 0.990887 0
M  V30 8301 C 816.137 -2.75327 2.11689 0
M  V30 8302 C 815.091 -2.75506 3.27537 0
M  V30 8303 C 814.417 -4.15275 3.36824 0
M  V30 8304 C 815.717 -2.38093 4.64875 0
M  V30 8305 H 817.411 -1.11146 2.78005 0
M  V30 8306 H 814.957 -0.533232 1.33763 0
M  V30 8307 H 816.91 -3.50752 2.33562 0
M  V30 8308 H 815.634 -3.04443 1.18245 0
M  V30 8309 H 814.293 -2.02538 3.05572 0
M  V30 8310 H 813.941 -4.41553 2.40915 0
M  V30 8311 H 813.641 -4.16299 4.14692 0
M  V30 8312 H 815.165 -4.92493 3.60947 0
M  V30 8313 H 816.579 -3.03232 4.86542 0
M  V30 8314 H 814.976 -2.50345 5.45387 0
M  V30 8315 H 816.046 -1.33227 4.66239 0
M  V30 8316 N 817.389 -1.46805 -0.573248 0
M  V30 8317 C 818.321 -1.54127 -1.6964 0
M  V30 8318 C 819.334 -0.428778 -1.57052 0
M  V30 8319 O 820.523 -0.697612 -1.64303 0
M  V30 8320 C 817.623 -1.41438 -3.07975 0
M  V30 8321 C 816.796 -2.66974 -3.46474 0
M  V30 8322 C 815.855 -2.48349 -4.63906 0
M  V30 8323 O 814.881 -3.22109 -4.69292 0
M  V30 8324 N 816.083 -1.55129 -5.59388 0
M  V30 8325 H 818.848 -2.50971 -1.6381 0
M  V30 8326 H 816.409 -1.42981 -0.759479 0
M  V30 8327 H 818.401 -1.26737 -3.84343 0
M  V30 8328 H 816.971 -0.527388 -3.08119 0
M  V30 8329 H 816.191 -2.9655 -2.59715 0
M  V30 8330 H 817.479 -3.50347 -3.68964 0
M  V30 8331 H 816.877 -0.94324 -5.57781 0
M  V30 8332 H 815.434 -1.46387 -6.35149 0
M  V30 8333 N 818.867 0.818669 -1.34668 0
M  V30 8334 C 820.092 1.61193 -1.30505 0
M  V30 8335 C 820.517 1.87734 0.117341 0
M  V30 8336 O 819.875 1.45591 1.08042 0
M  V30 8337 C 819.923 2.92733 -2.1057 0
M  V30 8338 O 819.027 3.85 -1.47813 0
M  V30 8339 H 818.368 0.490085 -0.44801 0
M  V30 8340 H 820.898 1.01701 -1.77534 0
M  V30 8341 H 820.908 3.42262 -2.22082 0
M  V30 8342 H 819.583 2.7274 -3.13984 0
M  V30 8343 H 818.16 3.43525 -1.45069 0
M  V30 8344 N 820.346 1.18468 1.03938 0
M  V30 8345 C 821.276 0.936389 2.13902 0
M  V30 8346 C 822.257 -0.126381 1.6963 0
M  V30 8347 O 823.442 0.0264757 1.94182 0
M  V30 8348 C 820.572 0.462729 3.44204 0
M  V30 8349 C 819.526 1.46613 4.02105 0
M  V30 8350 C 818.852 0.84994 5.27902 0
M  V30 8351 C 820.152 2.84323 4.3813 0
M  V30 8352 H 821.846 1.85602 2.3493 0
M  V30 8353 H 819.392 0.893806 1.12903 0
M  V30 8354 H 821.345 0.276382 4.20493 0
M  V30 8355 H 820.069 -0.492477 3.22866 0
M  V30 8356 H 818.728 1.63944 3.27899 0
M  V30 8357 H 818.376 -0.112493 5.02874 0
M  V30 8358 H 818.076 1.51988 5.67603 0
M  V30 8359 H 819.6 0.674152 6.06867 0
M  V30 8360 H 821.014 2.70636 5.054 0
M  V30 8361 H 819.411 3.48012 4.88884 0
M  V30 8362 H 820.481 3.37776 3.47901 0
M  V30 8363 N 821.824 -1.22873 0.986916 0
M  V30 8364 C 822.734 -2.28277 0.540978 0
M  V30 8365 C 823.75 -1.69164 -0.407363 0
M  V30 8366 O 824.926 -1.99504 -0.275674 0
M  V30 8367 C 821.991 -3.46404 -0.143181 0
M  V30 8368 C 821.052 -4.20854 0.847375 0
M  V30 8369 C 820.285 -5.33341 0.19577 0
M  V30 8370 O 820.508 -5.61356 -1.0117 0
M  V30 8371 O 819.442 -5.95169 0.897623 0
M  V30 8372 H 823.268 -2.68578 1.41773 0
M  V30 8373 H 820.853 -1.28927 0.754867 0
M  V30 8374 H 822.735 -4.18096 -0.526676 0
M  V30 8375 H 821.41 -3.08041 -0.994593 0
M  V30 8376 H 820.317 -3.51459 1.28169 0
M  V30 8377 H 821.65 -4.63082 1.6678 0
M  V30 8378 N 823.302 -0.75937 -1.38099 0
M  V30 8379 C 824.55 -0.317485 -1.99591 0
M  V30 8380 C 824.871 1.10628 -1.60581 0
M  V30 8381 O 824.141 1.7575 -0.865378 0
M  V30 8382 H 822.721 -0.114397 -0.738189 0
M  V30 8383 H 825.383 -0.974749 -1.68774 0
M  V30 8384 H 824.479 -0.385227 -3.09713 0
M  V30 8385 N 824.78 1.49157 -0.508906 0
M  V30 8386 C 825.743 2.27784 0.25434 0
M  V30 8387 C 826.743 1.34132 0.88686 0
M  V30 8388 O 827.933 1.5722 0.750168 0
M  V30 8389 C 825.065 3.12347 1.36573 0
M  V30 8390 H 826.258 2.96718 -0.435714 0
M  V30 8391 H 823.811 1.54052 -0.264128 0
M  V30 8392 H 824.546 2.47997 2.08969 0
M  V30 8393 H 824.331 3.81213 0.917543 0
M  V30 8394 H 825.821 3.71712 1.90315 0
M  V30 8395 N 826.258 0.243083 1.55714 0
M  V30 8396 C 827.504 -0.383287 1.99145 0
M  V30 8397 C 827.837 -1.57868 1.13098 0
M  V30 8398 O 827.112 -1.93535 0.193509 0
M  V30 8399 C 827.395 -0.796879 3.51172 0
M  V30 8400 C 827.248 0.403642 4.47985 0
M  V30 8401 C 828.567 -1.64525 4.08191 0
M  V30 8402 H 825.686 -0.137843 0.723995 0
M  V30 8403 H 828.328 0.343631 1.86867 0
M  V30 8404 H 826.478 -1.41625 3.61766 0
M  V30 8405 H 828.15 1.04204 4.49376 0
M  V30 8406 H 826.393 1.04741 4.20965 0
M  V30 8407 H 827.064 0.0709794 5.51954 0
M  V30 8408 H 829.54 -1.12246 4.00674 0
M  V30 8409 H 828.416 -1.9035 5.14838 0
M  V30 8410 H 828.677 -2.61582 3.56409 0
M  V30 8411 N 827.736 -1.57571 -0.0300757 0
M  V30 8412 C 828.984 -1.88852 -0.719666 0
M  V30 8413 C 829.305 -0.840645 -1.75949 0
M  V30 8414 O 828.575 0.125854 -1.95495 0
M  V30 8415 H 827.155 -0.696965 -0.268792 0
M  V30 8416 H 829.817 -1.949 0.00373285 0
M  V30 8417 H 828.913 -2.87695 -1.20987 0
M  V30 8418 N 829.214 0.302327 -1.54673 0
M  V30 8419 C 830.177 1.35592 -1.8479 0
M  V30 8420 C 831.177 1.43743 -0.72073 0
M  V30 8421 O 832.367 1.43402 -0.989017 0
M  V30 8422 C 829.499 2.74091 -2.02699 0
M  V30 8423 H 830.692 1.10132 -2.78946 0
M  V30 8424 H 828.245 0.538926 -1.46715 0
M  V30 8425 H 828.98 3.04775 -1.10826 0
M  V30 8426 H 828.765 2.69565 -2.8474 0
M  V30 8427 H 830.255 3.50272 -2.27374 0
M  V30 8428 N 830.692 1.47107 0.565454 0
M  V30 8429 C 831.624 1.55024 1.6882 0
M  V30 8430 C 832.637 0.4371 1.56822 0
M  V30 8431 O 833.826 0.706315 1.63931 0
M  V30 8432 C 830.926 1.43069 3.0722 0
M  V30 8433 C 830.099 2.68807 3.45053 0
M  V30 8434 C 829.158 2.50806 4.62583 0
M  V30 8435 O 828.184 3.24593 4.67577 0
M  V30 8436 N 829.386 1.58093 5.58558 0
M  V30 8437 H 832.151 2.51836 1.62477 0
M  V30 8438 H 829.712 1.43382 0.751885 0
M  V30 8439 H 831.704 1.28773 3.83666 0
M  V30 8440 H 830.274 0.543721 3.07835 0
M  V30 8441 H 829.494 2.97923 2.58138 0
M  V30 8442 H 830.782 3.52298 3.67101 0
M  V30 8443 H 830.18 0.972807 5.57273 0
M  V30 8444 H 828.737 1.49753 6.34364 0
M  V30 8445 N 832.17 -0.811516 1.35101 0
M  V30 8446 C 833.133 -1.90467 1.27495 0
M  V30 8447 C 834.133 -1.59703 0.187516 0
M  V30 8448 O 835.323 -1.68528 0.440896 0
M  V30 8449 C 832.455 -3.26774 0.971154 0
M  V30 8450 H 833.648 -1.98631 2.2469 0
M  V30 8451 H 831.201 -1.00681 1.19553 0
M  V30 8452 H 831.936 -3.243 0.0028557 0
M  V30 8453 H 831.721 -3.50488 1.75785 0
M  V30 8454 H 833.211 -4.06804 0.943414 0
M  V30 8455 N 833.648 -1.19017 -1.03309 0
M  V30 8456 C 835.059 -0.993206 -1.5809 0
M  V30 8457 C 835.41 0.45505 -1.9085 0
M  V30 8458 O 834.535 1.33372 -1.70414 0
M  V30 8459 C 835.13 -1.79661 -2.87241 0
M  V30 8460 C 833.689 -1.64377 -3.38611 0
M  V30 8461 C 832.836 -1.78628 -2.12102 0
M  V30 8462 H 835.787 -1.3345 -0.858879 0
M  V30 8463 H 835.808 -1.29019 -3.57958 0
M  V30 8464 H 835.32 -2.85061 -2.63366 0
M  V30 8465 H 833.421 -0.615447 -3.67482 0
M  V30 8466 H 833.534 -2.44651 -4.11926 0
M  V30 8467 H 831.898 -1.21648 -2.23772 0
M  V30 8468 H 832.681 -2.8548 -1.90673 0
M  V30 8469 N 835.127 1.22348 -0.993418 0
M  V30 8470 C 836.367 1.92835 -0.677779 0
M  V30 8471 C 836.731 1.75624 0.775893 0
M  V30 8472 O 837.932 2.40379 1.20297 0
M  V30 8473 C 836.203 3.40906 -1.07322 0
M  V30 8474 S 837.762 4.29966 -0.876032 0
M  V30 8475 H 834.58 0.666421 -0.247799 0
M  V30 8476 H 837.182 1.48133 -1.27581 0
M  V30 8477 H 835.886 3.50946 -2.12756 0
M  V30 8478 H 835.417 3.90618 -0.467015 0
M  V30 8479 H 837.432 4.95652 0.233162 0
M  V30 8480 N 836.605 0.766683 1.37694 0
M  V30 8481 C 838.016 0.394761 1.82479 0
M  V30 8482 C 838.367 -1.07842 1.63904 0
M  V30 8483 O 837.492 -1.83479 1.14737 0
M  V30 8484 C 838.087 0.70974 3.31283 0
M  V30 8485 C 836.646 0.390936 3.74364 0
M  V30 8486 C 835.793 0.956192 2.60293 0
M  V30 8487 H 838.744 0.961756 1.26238 0
M  V30 8488 H 838.765 -0.00742144 3.80499 0
M  V30 8489 H 838.277 1.782 3.4477 0
M  V30 8490 H 836.378 -0.674213 3.66449 0
M  V30 8491 H 836.491 0.895645 4.70654 0
M  V30 8492 H 834.855 0.380744 2.51838 0
M  V30 8493 H 835.638 2.03375 2.76575 0
M  V30 8494 N 838.083 -1.48885 0.516809 0
M  V30 8495 C 838.993 -2.33185 -0.257293 0
M  V30 8496 C 840.009 -1.4565 -0.951952 0
M  V30 8497 O 841.185 -1.78651 -0.929834 0
M  V30 8498 C 838.25 -3.21465 -1.29851 0
M  V30 8499 C 837.311 -4.24863 -0.615608 0
M  V30 8500 C 836.544 -5.08925 -1.60722 0
M  V30 8501 O 836.767 -4.9475 -2.83863 0
M  V30 8502 O 835.701 -5.90737 -1.15384 0
M  V30 8503 H 839.527 -3.00596 0.433131 0
M  V30 8504 H 837.112 -1.46792 0.277908 0
M  V30 8505 H 838.994 -3.76108 -1.90055 0
M  V30 8506 H 837.669 -2.5673 -1.97158 0
M  V30 8507 H 836.576 -3.74091 0.0265829 0
M  V30 8508 H 837.909 -4.92198 0.0152871 0
M  V30 8509 N 839.561 -0.251338 -1.55583 0
M  V30 8510 C 840.807 0.37272 -1.99346 0
M  V30 8511 C 841.14 1.57266 -1.13934 0
M  V30 8512 O 840.415 1.9343 -0.20377 0
M  V30 8513 C 840.698 0.778245 -3.5159 0
M  V30 8514 C 840.551 -0.427394 -4.47765 0
M  V30 8515 C 841.87 1.62358 -4.09057 0
M  V30 8516 H 838.989 0.134002 -0.724715 0
M  V30 8517 H 841.631 -0.353536 -1.86682 0
M  V30 8518 H 839.781 1.39704 -3.62512 0
M  V30 8519 H 841.453 -1.06586 -4.48818 0
M  V30 8520 H 839.696 -1.06972 -4.20404 0
M  V30 8521 H 840.367 -0.10025 -5.51909 0
M  V30 8522 H 842.843 1.1012 -4.01264 0
M  V30 8523 H 841.719 1.87617 -5.1584 0
M  V30 8524 H 841.98 2.59688 -3.57791 0
M  V30 8525 N 841.039 1.57585 0.0217189 0
M  V30 8526 C 841.969 2.10073 1.01939 0
M  V30 8527 C 842.95 1.0049 1.37243 0
M  V30 8528 O 844.135 1.28055 1.45999 0
M  V30 8529 C 841.265 2.58618 2.31806 0
M  V30 8530 C 840.219 3.72531 2.10724 0
M  V30 8531 C 839.545 4.07309 3.46415 0
M  V30 8532 C 840.845 5.00672 1.48743 0
M  V30 8533 H 842.539 2.9368 0.582432 0
M  V30 8534 H 840.085 1.41277 0.278715 0
M  V30 8535 H 842.038 2.9396 3.01936 0
M  V30 8536 H 840.762 1.72104 2.77575 0
M  V30 8537 H 839.421 3.37549 1.43025 0
M  V30 8538 H 839.069 3.17851 3.89846 0
M  V30 8539 H 838.769 4.84042 3.33132 0
M  V30 8540 H 840.293 4.45192 4.17895 0
M  V30 8541 H 841.707 5.33925 2.088 0
M  V30 8542 H 840.104 5.82065 1.46013 0
M  V30 8543 H 841.174 4.82769 0.45408 0
M  V30 8544 N 842.517 -0.29412 1.54831 0
M  V30 8545 C 843.928 -0.866651 1.65366 0
M  V30 8546 C 844.279 -1.87834 0.56681 0
M  V30 8547 O 843.404 -2.14374 -0.295389 0
M  V30 8548 C 843.999 -1.57869 2.99771 0
M  V30 8549 C 842.558 -2.09954 3.12404 0
M  V30 8550 C 841.705 -0.934492 2.6108 0
M  V30 8551 H 844.656 -0.0709551 1.58541 0
M  V30 8552 H 844.677 -2.44462 2.91579 0
M  V30 8553 H 844.189 -0.84212 3.78853 0
M  V30 8554 H 842.29 -2.86637 2.38055 0
M  V30 8555 H 842.403 -2.32934 4.18663 0
M  V30 8556 H 840.767 -1.32199 2.17705 0
M  V30 8557 H 841.55 -0.211768 3.42646 0
M  V30 8558 N 843.995 -1.47404 -0.557645 0
M  V30 8559 C 845.243 -1.53703 -1.31224 0
M  V30 8560 C 845.564 -0.200742 -1.93964 0
M  V30 8561 O 844.834 0.775253 -1.79907 0
M  V30 8562 H 843.414 -0.566171 -0.487299 0
M  V30 8563 H 846.076 -1.83699 -0.651195 0
M  V30 8564 H 845.172 -2.30335 -2.10599 0
M  V30 8565 N 845.473 0.80434 -1.35529 0
M  V30 8566 C 846.719 1.56385 -1.29118 0
M  V30 8567 C 847.052 1.9374 0.133536 0
M  V30 8568 O 846.327 1.6153 1.08344 0
M  V30 8569 C 846.61 2.85097 -2.19981 0
M  V30 8570 C 846.463 2.54204 -3.7108 0
M  V30 8571 C 847.782 3.86817 -2.09907 0
M  V30 8572 H 844.901 0.567382 -0.470368 0
M  V30 8573 H 847.543 0.925235 -1.6595 0
M  V30 8574 H 845.693 3.39594 -1.88701 0
M  V30 8575 H 847.365 2.05872 -4.12813 0
M  V30 8576 H 845.608 1.87364 -3.91251 0
M  V30 8577 H 846.279 3.46068 -4.30048 0
M  V30 8578 H 848.755 3.41725 -2.37409 0
M  V30 8579 H 847.631 4.7465 -2.75678 0
M  V30 8580 H 847.892 4.28663 -1.08171 0
M  V30 8581 O 846.99 1.31082 0.943381 0
M  V30 8582 H 847.681 1.13016 1.57312 0
M  V30 END ATOM
M  V30 BEGIN BOND
M  V30 END BOND
M  V30 END CTAB
M  END
$$$$
