drugbank_target|Q86UW7 Calcium-dependent secretion activator 2 (DB11093; DB11348; DB14481)
 OpenBabel12092121053D

  0  0  0     0  0            999 V3000
M  V30 BEGIN CTAB
M  V30 COUNTS 20716 20924 0 0 0
M  V30 BEGIN ATOM
M  V30 1 H -0.908 1.98254 -0.117106 0
M  V30 2 N 0 1.576 0 0
M  V30 3 C 0.933 2.03868 1.02534 0
M  V30 4 C 1.911 0.928543 1.3348 0
M  V30 5 O 3.095 1.19667 1.45644 0
M  V30 6 C 0.222 2.43627 2.35294 0
M  V30 7 C -0.732 3.65373 2.2001 0
M  V30 8 S 0.101 5.13292 1.52614 0
M  V30 9 C 1.257 5.56322 2.86805 0
M  V30 10 H 1.49 2.90518 0.631377 0
M  V30 11 H -0.977 1.52953 0.210867 0
M  V30 12 H 0.981 2.67203 3.11629 0
M  V30 13 H -0.358 1.57376 2.7183 0
M  V30 14 H -1.165 3.90944 3.18086 0
M  V30 15 H -1.563 3.418 1.51819 0
M  V30 16 H 0.729 5.58782 3.83104 0
M  V30 17 H 1.672 6.56266 2.65933 0
M  V30 18 H 2.08 4.83886 2.90714 0
M  V30 19 N 1.4781 -0.272755 1.55222 0
M  V30 20 C 2.4081 -1.34136 1.91127 0
M  V30 21 C 3.3891 -1.51513 0.773168 0
M  V30 22 O 4.5741 -1.64552 1.03132 0
M  V30 23 C 1.7041 -2.70083 2.1834 0
M  V30 24 C 0.6581 -2.67437 3.34158 0
M  V30 25 C -0.0159 -4.06938 3.46851 0
M  V30 26 C 1.2841 -2.26686 4.70543 0
M  V30 27 H 2.9781 -1.04333 2.80633 0
M  V30 28 H 0.5241 -0.500454 1.35024 0
M  V30 29 H 2.4771 -3.44952 2.42046 0
M  V30 30 H 1.2011 -3.01469 1.25634 0
M  V30 31 H -0.1399 -1.95026 3.1042 0
M  V30 32 H -0.4919 -4.35547 2.51611 0
M  V30 33 H -0.7919 -4.06062 4.2472 0
M  V30 34 H 0.7321 -4.83545 3.72849 0
M  V30 35 H 2.1461 -2.91277 4.93792 0
M  V30 36 H 0.5431 -2.36971 5.5133 0
M  V30 37 H 1.6131 -1.21818 4.69349 0
M  V30 38 N 2.9562 -1.48159 -0.537278 0
M  V30 39 C 4.2332 -1.46291 -1.29839 0
M  V30 40 C 4.6132 -0.170613 -2.10409 0
M  V30 41 O 3.9612 0.847746 -2.12192 0
M  V30 42 C 4.1712 -2.72055 -2.18603 0
M  V30 43 C 5.5192 -3.20087 -2.7898 0
M  V30 44 O 6.5432 -2.72921 -2.28894 0
M  V30 45 O 5.4022 -4.02138 -3.70064 0
M  V30 46 H 2.4962 -0.583906 -0.585647 0
M  V30 47 H 5.0422 -1.60384 -0.554534 0
M  V30 48 H 3.8142 -3.57628 -1.58801 0
M  V30 49 H 3.4372 -2.60646 -3.00249 0
M  V30 50 N 4.4343 0.785586 -1.36625 0
M  V30 51 C 5.8453 1.36101 -1.27803 0
M  V30 52 C 6.1963 1.96035 0.0804875 0
M  V30 53 O 5.3213 1.92834 0.982042 0
M  V30 54 C 5.9163 2.47442 -2.31426 0
M  V30 55 C 4.4753 3.00789 -2.26281 0
M  V30 56 C 3.6223 1.73896 -2.15999 0
M  V30 57 H 6.5733 0.586928 -1.47448 0
M  V30 58 H 6.5943 3.2656 -1.95291 0
M  V30 59 H 6.1063 2.03791 -3.30289 0
M  V30 60 H 4.2073 3.48851 -1.30896 0
M  V30 61 H 4.3203 3.57343 -3.19128 0
M  V30 62 H 2.6843 1.9628 -1.62316 0
M  V30 63 H 3.4673 1.32368 -3.16755 0
M  V30 64 N 5.9124 1.20967 1.01018 0
M  V30 65 C 7.1374 1.0503 1.78839 0
M  V30 66 C 7.5624 -0.395752 1.8389 0
M  V30 67 O 6.9204 -1.28529 1.27867 0
M  V30 68 C 6.9684 1.64602 3.2084 0
M  V30 69 O 6.0724 0.887988 4.02726 0
M  V30 70 H 5.4134 0.369987 0.551367 0
M  V30 71 H 7.9434 1.60399 1.27018 0
M  V30 72 H 7.9534 1.68607 3.71532 0
M  V30 73 H 6.6284 2.69841 3.16479 0
M  V30 74 H 5.2054 0.922648 3.61305 0
M  V30 75 N 7.3905 -1.2043 1.01659 0
M  V30 76 C 8.6155 -1.94318 0.724942 0
M  V30 77 C 9.0405 -1.74266 -0.708034 0
M  V30 78 O 8.3985 -1.03694 -1.48719 0
M  V30 79 C 8.4465 -3.44486 1.06591 0
M  V30 80 O 7.5505 -4.12017 0.177599 0
M  V30 81 H 6.8915 -0.60708 0.26898 0
M  V30 82 H 9.4215 -1.52861 1.35995 0
M  V30 83 H 9.4315 -3.95106 1.01762 0
M  V30 84 H 8.1065 -3.58404 2.10997 0
M  V30 85 H 6.6835 -3.71821 0.283421 0
M  V30 86 N 8.8686 -0.792821 -1.36206 0
M  V30 87 C 10.0936 -0.377701 -2.03932 0
M  V30 88 C 10.5186 0.998947 -1.59382 0
M  V30 89 O 9.8766 1.64421 -0.763903 0
M  V30 90 C 9.9246 -0.453635 -3.57735 0
M  V30 91 O 9.0286 0.538151 -4.08874 0
M  V30 92 H 8.3696 -0.159855 -0.644471 0
M  V30 93 H 10.8996 -1.07488 -1.7409 0
M  V30 94 H 10.9096 -0.318464 -4.06755 0
M  V30 95 H 9.5846 -1.45784 -3.89512 0
M  V30 96 H 8.1616 0.364359 -3.71116 0
M  V30 97 N 10.3467 1.47872 -0.545128 0
M  V30 98 C 11.2567 2.33633 0.212746 0
M  V30 99 C 12.2727 1.4744 0.923983 0
M  V30 100 O 13.4487 1.80393 0.895572 0
M  V30 101 C 10.5137 3.23884 1.23693 0
M  V30 102 C 9.5747 4.25961 0.534417 0
M  V30 103 C 8.8077 5.11899 1.5098 0
M  V30 104 O 9.0307 5.00077 2.7437 0
M  V30 105 O 7.9647 5.92831 1.0409 0
M  V30 106 H 11.7907 2.99714 -0.490416 0
M  V30 107 H 9.3757 1.46235 -0.305871 0
M  V30 108 H 11.2577 3.79666 1.82843 0
M  V30 109 H 9.9327 2.60446 1.92222 0
M  V30 110 H 8.8397 3.73972 -0.0979679 0
M  V30 111 H 10.1727 4.92079 -0.109213 0
M  V30 112 N 11.8248 0.280983 1.55075 0
M  V30 113 C 12.7348 -0.61388 2.26426 0
M  V30 114 C 13.7508 -1.16521 1.29224 0
M  V30 115 O 14.9268 -1.19426 1.62171 0
M  V30 116 C 11.9918 -1.7788 2.9759 0
M  V30 117 C 11.0528 -1.26355 4.10284 0
M  V30 118 C 10.2858 -2.37295 4.78045 0
M  V30 119 O 10.5088 -3.56777 4.45047 0
M  V30 120 O 9.4428 -2.05119 5.65871 0
M  V30 121 H 13.2688 -0.0356932 3.03679 0
M  V30 122 H 10.8538 0.0481686 1.49322 0
M  V30 123 H 12.7358 -2.45791 3.42293 0
M  V30 124 H 11.4108 -2.34397 2.23249 0
M  V30 125 H 10.3178 -0.550735 3.70024 0
M  V30 126 H 11.6508 -0.744065 4.86543 0
M  V30 127 N 13.3029 -1.57598 0.00835791 0
M  V30 128 C 14.2129 -2.12385 -0.996487 0
M  V30 129 C 15.2289 -1.07108 -1.37127 0
M  V30 130 O 16.4049 -1.39055 -1.4569 0
M  V30 131 C 13.4699 -2.62314 -2.26699 0
M  V30 132 C 12.5309 -3.82225 -1.95456 0
M  V30 133 C 11.7639 -4.29763 -3.16449 0
M  V30 134 O 11.9869 -3.76584 -4.28416 0
M  V30 135 O 10.9209 -5.21832 -2.99958 0
M  V30 136 H 14.7469 -2.98479 -0.560725 0
M  V30 137 H 12.3319 -1.47903 -0.210987 0
M  V30 138 H 14.2139 -2.94589 -3.01322 0
M  V30 139 H 12.8889 -1.79313 -2.69497 0
M  V30 140 H 11.7959 -3.54909 -1.18282 0
M  V30 141 H 13.1289 -4.66324 -1.57489 0
M  V30 142 N 14.781 0.264519 -1.55364 0
M  V30 143 C 16.006 1.01726 -1.80739 0
M  V30 144 C 16.431 1.78836 -0.583044 0
M  V30 145 O 15.789 1.75167 0.467566 0
M  V30 146 C 15.837 1.94482 -3.03659 0
M  V30 147 O 14.941 3.03386 -2.7934 0
M  V30 148 H 14.282 0.290395 -0.597132 0
M  V30 149 H 16.812 0.290854 -2.02522 0
M  V30 150 H 16.822 2.36278 -3.32621 0
M  V30 151 H 15.497 1.37772 -3.92418 0
M  V30 152 H 14.074 2.65844 -2.61498 0
M  V30 153 N 16.2591 1.48442 0.529413 0
M  V30 154 C 17.5361 1.46978 1.29062 0
M  V30 155 C 17.9161 0.181769 2.10316 0
M  V30 156 O 17.2641 -0.836481 2.12639 0
M  V30 157 C 17.4741 2.7321 2.17157 0
M  V30 158 C 18.8221 3.21562 2.77278 0
M  V30 159 O 19.8461 2.74131 2.27444 0
M  V30 160 O 18.7051 4.04094 3.67927 0
M  V30 161 H 15.7991 0.587003 0.582543 0
M  V30 162 H 18.3451 1.60676 0.546021 0
M  V30 163 H 17.1171 3.58465 1.56903 0
M  V30 164 H 16.7401 2.62235 2.98862 0
M  V30 165 N 17.7372 -0.778329 1.37039 0
M  V30 166 C 18.6472 -1.92253 1.34446 0
M  V30 167 C 19.6632 -1.72267 0.244991 0
M  V30 168 O 20.8392 -1.95615 0.479258 0
M  V30 169 C 17.9042 -3.27282 1.144 0
M  V30 170 C 16.9652 -3.59969 2.33925 0
M  V30 171 C 16.1982 -4.88555 2.14825 0
M  V30 172 O 16.4212 -5.59113 1.12912 0
M  V30 173 O 15.3552 -5.20153 3.02861 0
M  V30 174 H 19.1812 -1.97392 2.30803 0
M  V30 175 H 16.7662 -0.920154 1.17701 0
M  V30 176 H 18.6482 -4.08062 1.05182 0
M  V30 177 H 17.3232 -3.23011 0.211124 0
M  V30 178 H 16.2302 -2.7945 2.48714 0
M  V30 179 H 17.5632 -3.68976 3.25757 0
M  V30 180 N 19.2153 -1.21501 -1.00376 0
M  V30 181 C 20.4633 -1.03095 -1.73827 0
M  V30 182 C 20.7843 0.436341 -1.90055 0
M  V30 183 O 20.0543 1.31466 -1.45236 0
M  V30 184 H 18.6343 -0.378487 -0.644016 0
M  V30 185 H 21.2963 -1.52831 -1.20949 0
M  V30 186 H 20.3923 -1.49991 -2.73695 0
M  V30 187 N 20.6934 1.19889 -1.02296 0
M  V30 188 C 21.6234 2.25141 -0.619174 0
M  V30 189 C 22.6044 1.66051 0.368915 0
M  V30 190 O 23.7894 1.92546 0.252941 0
M  V30 191 C 20.9194 3.4728 0.0368783 0
M  V30 192 C 19.8734 4.19005 -0.872865 0
M  V30 193 C 19.1994 5.34637 -0.0822402 0
M  V30 194 C 20.4994 4.74452 -2.18387 0
M  V30 195 H 22.1934 2.59171 -1.49903 0
M  V30 196 H 19.7394 1.24579 -0.722222 0
M  V30 197 H 21.6924 4.20098 0.330958 0
M  V30 198 H 20.4164 3.12433 0.95149 0
M  V30 199 H 19.0754 3.48061 -1.15105 0
M  V30 200 H 18.7234 4.96034 0.83422 0
M  V30 201 H 18.4234 5.83557 -0.688149 0
M  V30 202 H 19.9474 6.10255 0.205238 0
M  V30 203 H 21.3614 5.39055 -1.95172 0
M  V30 204 H 19.7584 5.33834 -2.74119 0
M  V30 205 H 20.8284 3.92844 -2.84257 0
M  V30 206 N 22.1715 0.800033 1.35784 0
M  V30 207 C 23.0815 0.207204 2.33683 0
M  V30 208 C 24.0975 -0.64631 1.61551 0
M  V30 209 O 25.2735 -0.559604 1.93469 0
M  V30 210 C 22.3385 -0.639659 3.40748 0
M  V30 211 C 21.3995 0.233585 4.28664 0
M  V30 212 C 20.6325 -0.572954 5.30616 0
M  V30 213 O 20.8555 -1.80816 5.40982 0
M  V30 214 O 19.7895 0.0327285 6.01891 0
M  V30 215 H 23.6155 1.01692 2.86169 0
M  V30 216 H 21.2005 0.561691 1.38439 0
M  V30 217 H 23.0825 -1.12223 4.06182 0
M  V30 218 H 21.7575 -1.42708 2.90544 0
M  V30 219 H 20.6645 0.763147 3.66233 0
M  V30 220 H 21.9975 0.984784 4.82248 0
M  V30 221 N 23.6496 -1.47581 0.552962 0
M  V30 222 C 24.5596 -2.33743 -0.200353 0
M  V30 223 C 25.5756 -1.47928 -0.916151 0
M  V30 224 O 26.7516 -1.80865 -0.885993 0
M  V30 225 C 23.8166 -3.24536 -1.21973 0
M  V30 226 C 22.8776 -4.26238 -0.511819 0
M  V30 227 C 22.1106 -5.12693 -1.48263 0
M  V30 228 O 22.3336 -5.01525 -2.71714 0
M  V30 229 O 21.2676 -5.93375 -1.00945 0
M  V30 230 H 25.0936 -2.9945 0.506304 0
M  V30 231 H 22.6786 -1.46071 0.313622 0
M  V30 232 H 24.5606 -3.80631 -1.80827 0
M  V30 233 H 23.2356 -2.61462 -1.90839 0
M  V30 234 H 22.1426 -3.73914 0.117799 0
M  V30 235 H 23.4756 -4.92014 0.135308 0
M  V30 236 N 25.1277 -0.289203 -1.54924 0
M  V30 237 C 26.0377 0.601863 -2.26748 0
M  V30 238 C 27.0537 1.15834 -1.2984 0
M  V30 239 O 28.2297 1.18564 -1.62802 0
M  V30 240 C 25.2947 1.76299 -2.98529 0
M  V30 241 C 24.3557 1.24178 -4.10948 0
M  V30 242 C 23.5887 2.34757 -4.79296 0
M  V30 243 O 23.8117 3.54411 -4.46933 0
M  V30 244 O 22.7457 2.02115 -5.66951 0
M  V30 245 H 26.5717 0.0195879 -3.03694 0
M  V30 246 H 24.1567 -0.0560868 -1.49295 0
M  V30 247 H 26.0387 2.43973 -3.43592 0
M  V30 248 H 24.7137 2.33209 -2.24488 0
M  V30 249 H 23.6207 0.531104 -3.70311 0
M  V30 250 H 24.9537 0.718252 -4.86931 0
M  V30 251 N 26.6058 1.57591 -0.0167156 0
M  V30 252 C 27.8308 1.9598 0.67872 0
M  V30 253 C 28.2558 0.892546 1.65575 0
M  V30 254 O 27.6138 -0.147772 1.80697 0
M  V30 255 C 27.6618 3.33468 1.37227 0
M  V30 256 O 26.7658 3.28954 2.48722 0
M  V30 257 H 26.1068 0.639339 0.17928 0
M  V30 258 H 28.6368 2.04463 -0.0748802 0
M  V30 259 H 28.6468 3.69417 1.7319 0
M  V30 260 H 27.3218 4.10694 0.656007 0
M  V30 261 H 25.8988 3.04705 2.14963 0
M  V30 262 N 28.0839 -0.256276 1.55502 0
M  V30 263 C 29.4999 -0.604325 1.47716 0
M  V30 264 C 29.6999 -1.88763 0.705039 0
M  V30 265 O 28.7559 -2.51445 0.230613 0
M  V30 266 C 30.0689 -0.715756 2.92057 0
M  V30 267 C 31.6169 -0.808706 3.02372 0
M  V30 268 C 32.0919 -0.951777 4.48001 0
M  V30 269 N 33.5829 -1.01688 4.519 0
M  V30 270 C 34.3179 -1.14668 5.61817 0
M  V30 271 N 33.8139 -1.24261 6.81565 0
M  V30 272 N 35.6069 -1.1791 5.49594 0
M  V30 273 H 27.7579 0.586291 2.04148 0
M  V30 274 H 30.0209 0.201015 0.926443 0
M  V30 275 H 29.7269 0.157027 3.51349 0
M  V30 276 H 29.6009 -1.59071 3.42018 0
M  V30 277 H 31.9879 -1.67195 2.43166 0
M  V30 278 H 32.0689 0.0912063 2.55637 0
M  V30 279 H 31.7129 -0.0931291 5.07815 0
M  V30 280 H 31.6429 -1.86659 4.92408 0
M  V30 281 H 34.1339 -0.954468 3.65648 0
M  V30 282 H 34.4469 -1.34046 7.61086 0
M  V30 283 H 32.7919 -1.21236 6.84344 0
M  V30 284 H 35.9829 -1.10057 4.54978 0
M  V30 285 H 36.1559 -1.27681 6.35296 0
M  V30 286 N 29.562 -1.4872 -0.521534 0
M  V30 287 C 30.839 -1.4766 -1.2828 0
M  V30 288 C 31.219 -0.19292 -2.10217 0
M  V30 289 O 30.567 0.825193 -2.13079 0
M  V30 290 C 30.777 -2.74358 -2.15705 0
M  V30 291 C 32.125 -3.23028 -2.75569 0
M  V30 292 O 33.149 -2.75333 -2.25987 0
M  V30 293 O 32.008 -4.0604 -3.65778 0
M  V30 294 H 29.102 -0.590085 -0.579421 0
M  V30 295 H 31.648 -1.60963 -0.537492 0
M  V30 296 H 30.42 -3.59292 -1.54999 0
M  V30 297 H 30.043 -2.63816 -2.97467 0
M  V30 298 N 31.0401 0.771051 -1.3745 0
M  V30 299 C 32.2861 1.5319 -1.32894 0
M  V30 300 C 32.6191 1.94008 0.0862511 0
M  V30 301 O 31.8941 1.64124 1.04373 0
M  V30 302 C 32.1771 2.79648 -2.26868 0
M  V30 303 C 32.0301 2.45079 -3.77169 0
M  V30 304 C 33.3491 3.81583 -2.19277 0
M  V30 305 H 30.4681 0.555744 -0.484064 0
M  V30 306 H 33.1101 0.884492 -1.68157 0
M  V30 307 H 31.2601 3.34891 -1.96926 0
M  V30 308 H 32.9321 1.95745 -4.1771 0
M  V30 309 H 31.1751 1.77767 -3.95704 0
M  V30 310 H 31.8461 3.35478 -4.38359 0
M  V30 311 H 34.3221 3.35835 -2.45671 0
M  V30 312 H 33.1981 4.67787 -2.87171 0
M  V30 313 H 33.4591 4.25897 -1.18592 0
M  V30 314 N 32.5182 1.22032 0.997298 0
M  V30 315 C 33.4482 1.01065 2.10495 0
M  V30 316 C 34.4292 -0.0669542 1.69968 0
M  V30 317 O 35.6142 0.0943987 1.9397 0
M  V30 318 C 32.7442 0.582874 3.42374 0
M  V30 319 C 31.6982 1.60592 3.96729 0
M  V30 320 C 31.0242 1.03412 5.24605 0
M  V30 321 C 32.3242 2.99478 4.27914 0
M  V30 322 H 34.0182 1.93708 2.28292 0
M  V30 323 H 31.5642 0.932761 1.09707 0
M  V30 324 H 33.5172 0.423332 4.19268 0
M  V30 325 H 32.2412 -0.379213 3.24391 0
M  V30 326 H 30.9002 1.75316 3.21963 0
M  V30 327 H 30.5482 0.063518 5.0296 0
M  V30 328 H 30.2482 1.71754 5.61938 0
M  V30 329 H 31.7722 0.886066 6.04137 0
M  V30 330 H 33.1862 2.88153 4.95622 0
M  V30 331 H 31.5832 3.64903 4.76409 0
M  V30 332 H 32.6532 3.49742 3.3587 0
M  V30 333 N 33.9963 -1.19345 1.0293 0
M  V30 334 C 35.2423 -1.89318 0.727083 0
M  V30 335 C 35.5753 -1.79446 -0.742483 0
M  V30 336 O 34.8503 -1.1871 -1.54072 0
M  V30 337 C 35.1333 -3.40238 1.17942 0
M  V30 338 C 34.9863 -3.58979 2.71024 0
M  V30 339 C 36.3053 -4.33479 0.760548 0
M  V30 340 H 33.4243 -0.687475 0.265606 0
M  V30 341 H 36.0663 -1.40477 1.2793 0
M  V30 342 H 34.2163 -3.81964 0.709608 0
M  V30 343 H 35.8883 -3.26421 3.25955 0
M  V30 344 H 34.1313 -3.02018 3.11396 0
M  V30 345 H 34.8023 -4.64823 2.9773 0
M  V30 346 H 37.2783 -3.99469 1.16464 0
M  V30 347 H 36.1543 -5.37664 1.10493 0
M  V30 348 H 36.4153 -4.40813 -0.337063 0
M  V30 349 N 35.4744 -0.807222 -1.35358 0
M  V30 350 C 36.4374 -0.223665 -2.28106 0
M  V30 351 C 37.4374 0.589354 -1.4961 0
M  V30 352 O 38.6274 0.407745 -1.69361 0
M  V30 353 C 35.7594 0.688149 -3.33882 0
M  V30 354 H 36.9524 -1.04169 -2.81227 0
M  V30 355 H 34.5054 -0.577921 -1.45223 0
M  V30 356 H 35.2404 1.52984 -2.85948 0
M  V30 357 H 35.0254 0.10687 -3.91954 0
M  V30 358 H 36.5154 1.09075 -4.03104 0
M  V30 359 N 36.9525 1.47285 -0.560781 0
M  V30 360 C 37.9155 2.28535 0.174488 0
M  V30 361 C 38.9155 1.37153 0.839388 0
M  V30 362 O 40.1055 1.59748 0.694702 0
M  V30 363 C 37.2375 3.16934 1.25561 0
M  V30 364 H 38.4305 2.95012 -0.539262 0
M  V30 365 H 35.9835 1.53034 -0.317865 0
M  V30 366 H 36.7185 2.55157 2.00164 0
M  V30 367 H 36.5035 3.8419 0.783604 0
M  V30 368 H 37.9935 3.78143 1.77193 0
M  V30 369 N 38.4306 0.297415 1.54768 0
M  V30 370 C 39.6786 -0.312295 1.99673 0
M  V30 371 C 39.9996 -1.54686 1.18732 0
M  V30 372 O 39.2696 -1.93854 0.282382 0
M  V30 373 H 37.8496 -0.118381 0.73756 0
M  V30 374 H 40.5116 0.407915 1.90583 0
M  V30 375 H 39.6076 -0.586813 3.06534 0
M  V30 376 N 39.9087 -1.5758 0.0250728 0
M  V30 377 C 41.1337 -1.96337 -0.668317 0
M  V30 378 C 41.5587 -0.901314 -1.651 0
M  V30 379 O 40.9167 0.138187 -1.80773 0
M  V30 380 C 40.9647 -3.34191 -1.35457 0
M  V30 381 O 40.0687 -3.30269 -2.46974 0
M  V30 382 H 39.4097 -0.640281 -0.175887 0
M  V30 383 H 41.9397 -2.0442 0.0857224 0
M  V30 384 H 41.9497 -3.70331 -1.71228 0
M  V30 385 H 40.6247 -4.11036 -0.634218 0
M  V30 386 H 39.2017 -3.05841 -2.13344 0
M  V30 387 N 41.3868 0.248026 -1.55636 0
M  V30 388 C 42.6118 0.998028 -1.81808 0
M  V30 389 C 43.0368 1.78207 -0.601979 0
M  V30 390 O 42.3948 1.75653 0.448961 0
M  V30 391 C 42.4428 1.9125 -3.05705 0
M  V30 392 O 41.5468 3.00406 -2.82542 0
M  V30 393 H 40.8878 0.284045 -0.600179 0
M  V30 394 H 43.4178 0.269357 -2.02819 0
M  V30 395 H 43.4278 2.32737 -3.35108 0
M  V30 396 H 42.1028 1.33602 -3.93857 0
M  V30 397 H 40.6798 2.63056 -2.64303 0
M  V30 398 N 42.8649 1.48995 0.513639 0
M  V30 399 C 43.7969 1.60836 1.63293 0
M  V30 400 C 44.8099 0.491701 1.55197 0
M  V30 401 O 45.9989 0.763238 1.6136 0
M  V30 402 C 43.0989 1.53731 3.02027 0
M  V30 403 C 42.2719 2.80715 3.35437 0
M  V30 404 C 41.3309 2.66837 4.53525 0
M  V30 405 O 40.3569 3.40753 4.55934 0
M  V30 406 N 41.5589 1.77539 5.52684 0
M  V30 407 H 44.3239 2.57366 1.53566 0
M  V30 408 H 41.8849 1.45925 0.701259 0
M  V30 409 H 43.8769 1.42118 3.78926 0
M  V30 410 H 42.4469 0.651092 3.05744 0
M  V30 411 H 41.6669 3.06772 2.47557 0
M  V30 412 H 42.9549 3.64927 3.54551 0
M  V30 413 H 42.3529 1.16719 5.53528 0
M  V30 414 H 40.9099 1.71856 6.28736 0
M  V30 415 N 44.343 -0.763751 1.37857 0
M  V30 416 C 45.759 -1.06542 1.18832 0
M  V30 417 C 45.959 -2.01478 0.0299722 0
M  V30 418 O 45.015 -2.4458 -0.627447 0
M  V30 419 C 46.328 -1.65525 2.51042 0
M  V30 420 C 47.876 -1.77745 2.57635 0
M  V30 421 C 48.351 -2.4014 3.89996 0
M  V30 422 N 49.842 -2.47582 3.91481 0
M  V30 423 C 50.577 -2.96732 4.9065 0
M  V30 424 N 50.073 -3.45993 6.00217 0
M  V30 425 N 51.866 -2.95679 4.78048 0
M  V30 426 H 44.017 -0.133556 2.1198 0
M  V30 427 H 46.28 -0.121879 0.940133 0
M  V30 428 H 45.986 -1.03236 3.36207 0
M  V30 429 H 45.86 -2.64719 2.68707 0
M  V30 430 H 48.247 -2.39164 1.72872 0
M  V30 431 H 48.328 -0.772836 2.43846 0
M  V30 432 H 47.972 -1.79358 4.75177 0
M  V30 433 H 47.902 -3.41223 4.01092 0
M  V30 434 H 50.393 -2.1273 3.12337 0
M  V30 435 H 50.706 -3.81922 6.7183 0
M  V30 436 H 49.051 -3.44077 6.03851 0
M  V30 437 H 52.242 -2.56499 3.91568 0
M  V30 438 H 52.415 -3.33672 5.55488 0
M  V30 439 N 45.8211 -1.22559 -0.990812 0
M  V30 440 C 46.7841 -0.998863 -2.0629 0
M  V30 441 C 47.7841 0.0354834 -1.60761 0
M  V30 442 O 48.9741 -0.203231 -1.7301 0
M  V30 443 C 46.1061 -0.509203 -3.37076 0
M  V30 444 H 47.2991 -1.95014 -2.27837 0
M  V30 445 H 44.8521 -1.04456 -1.16269 0
M  V30 446 H 45.5871 0.446335 -3.21214 0
M  V30 447 H 45.3721 -1.25547 -3.71457 0
M  V30 448 H 46.8621 -0.370888 -4.1595 0
M  V30 449 N 47.2992 1.18797 -1.03562 0
M  V30 450 C 48.7102 1.70322 -0.764676 0
M  V30 451 C 49.0612 1.82708 0.714996 0
M  V30 452 O 48.1862 1.50299 1.55689 0
M  V30 453 C 48.7812 3.09356 -1.38145 0
M  V30 454 C 47.3402 3.58114 -1.15895 0
M  V30 455 C 46.4872 2.34798 -1.4753 0
M  V30 456 H 49.4382 1.03543 -1.20268 0
M  V30 457 H 49.4592 3.72378 -0.781977 0
M  V30 458 H 48.9712 3.00309 -2.45837 0
M  V30 459 H 47.0722 3.72464 -0.100544 0
M  V30 460 H 47.1852 4.4184 -1.8524 0
M  V30 461 H 45.5492 2.38464 -0.894829 0
M  V30 462 H 46.3322 2.28375 -2.56319 0
M  V30 463 N 48.7773 0.814389 1.34928 0
M  V30 464 C 50.1883 0.458364 1.80986 0
M  V30 465 C 50.5393 -1.02042 1.67577 0
M  V30 466 O 49.6643 -1.79352 1.21086 0
M  V30 467 C 50.2593 0.825212 3.28597 0
M  V30 468 C 48.8183 0.521677 3.72767 0
M  V30 469 C 47.9653 1.04668 2.56788 0
M  V30 470 H 50.9163 1.00533 1.22795 0
M  V30 471 H 50.9373 0.12571 3.80292 0
M  V30 472 H 50.4493 1.90154 3.38324 0
M  V30 473 H 48.5503 -0.545589 3.68584 0
M  V30 474 H 48.6633 1.05977 4.67232 0
M  V30 475 H 47.0273 0.468622 2.50352 0
M  V30 476 H 47.8103 2.12927 2.6929 0
M  V30 477 N 50.2554 -1.46986 0.568584 0
M  V30 478 C 51.2184 -2.28624 -0.162366 0
M  V30 479 C 52.2184 -1.37596 -0.832103 0
M  V30 480 O 53.4084 -1.60115 -0.68622 0
M  V30 481 C 50.5404 -3.17596 -1.23878 0
M  V30 482 H 51.7334 -2.94722 0.554899 0
M  V30 483 H 49.2864 -1.52863 0.325976 0
M  V30 484 H 50.0214 -2.56214 -1.98808 0
M  V30 485 H 49.8064 -3.846 -0.763219 0
M  V30 486 H 51.2964 -3.79078 -1.75185 0
M  V30 487 N 51.7335 -0.305618 -1.54608 0
M  V30 488 C 53.1445 0.186098 -1.8577 0
M  V30 489 C 53.4955 1.53058 -1.22751 0
M  V30 490 O 52.6205 2.09888 -0.526893 0
M  V30 491 C 53.2155 0.344449 -3.37044 0
M  V30 492 C 51.7745 0.780384 -3.68221 0
M  V30 493 C 50.9215 -0.108554 -2.77087 0
M  V30 494 H 53.8725 -0.526485 -1.49712 0
M  V30 495 H 53.8935 1.17828 -3.61796 0
M  V30 496 H 53.4055 -0.634235 -3.82883 0
M  V30 497 H 51.5065 1.76945 -3.27904 0
M  V30 498 H 51.6195 0.596572 -4.75371 0
M  V30 499 H 49.9835 0.412931 -2.5133 0
M  V30 500 H 50.7665 -1.08368 -3.25747 0
M  V30 501 N 53.2116 1.57565 -0.0334293 0
M  V30 502 C 54.4396 1.9628 0.654347 0
M  V30 503 C 54.8546 0.910138 1.65414 0
M  V30 504 O 54.2116 -0.107595 1.82183 0
M  V30 505 C 54.2626 3.35067 1.35693 0
M  V30 506 O 53.9836 4.36296 0.397191 0
M  V30 507 C 55.4846 3.88439 2.13613 0
M  V30 508 H 52.7046 0.646369 0.180132 0
M  V30 509 H 55.2486 2.04282 -0.0944721 0
M  V30 510 H 53.4036 3.2827 2.05712 0
M  V30 511 H 53.8176 5.1678 0.896597 0
M  V30 512 H 55.2916 4.8788 2.58219 0
M  V30 513 H 55.7686 3.22914 2.97696 0
M  V30 514 H 56.3746 3.98516 1.48543 0
M  V30 515 N 54.6897 -0.239769 1.55765 0
M  V30 516 C 56.1057 -0.588624 1.48349 0
M  V30 517 C 56.3057 -1.88005 0.72502 0
M  V30 518 O 55.3617 -2.51186 0.257269 0
M  V30 519 C 56.6747 -0.68474 2.928 0
M  V30 520 C 58.2227 -0.77659 3.03213 0
M  V30 521 C 58.6977 -0.904207 4.48986 0
M  V30 522 N 60.1887 -0.968896 4.52953 0
M  V30 523 C 60.9237 -1.08703 5.63002 0
M  V30 524 N 60.4197 -1.17026 6.82845 0
M  V30 525 N 62.2127 -1.12074 5.50814 0
M  V30 526 H 54.3637 0.607911 2.03515 0
M  V30 527 H 56.6267 0.21083 0.924259 0
M  V30 528 H 56.3327 0.194284 3.51163 0
M  V30 529 H 56.2067 -1.55435 3.43686 0
M  V30 530 H 58.5937 -1.64606 2.44926 0
M  V30 531 H 58.6747 0.118315 2.55526 0
M  V30 532 H 58.3187 -0.0392633 5.07885 0
M  V30 533 H 58.2487 -1.81426 4.9436 0
M  V30 534 H 60.7397 -0.915633 3.6664 0
M  V30 535 H 61.0527 -1.25966 7.62465 0
M  V30 536 H 59.3977 -1.13971 6.85591 0
M  V30 537 H 62.5887 -1.05226 4.5612 0
M  V30 538 H 62.7617 -1.20936 6.36615 0
M  V30 539 N 56.1678 -1.49265 -0.50573 0
M  V30 540 C 57.0778 -1.68312 -1.63427 0
M  V30 541 C 58.0938 -0.565682 -1.64548 0
M  V30 542 O 59.2698 -0.839801 -1.83055 0
M  V30 543 C 56.3348 -1.74107 -2.99813 0
M  V30 544 C 55.3958 -2.97653 -3.09356 0
M  V30 545 C 54.6288 -3.03163 -4.39236 0
M  V30 546 O 54.8518 -2.16396 -5.27758 0
M  V30 547 O 53.7858 -3.9558 -4.53652 0
M  V30 548 H 57.6118 -2.63907 -1.50289 0
M  V30 549 H 55.1968 -1.32951 -0.681502 0
M  V30 550 H 57.0788 -1.803 -3.80881 0
M  V30 551 H 55.7538 -0.816901 -3.13223 0
M  V30 552 H 54.6608 -2.96981 -2.27493 0
M  V30 553 H 55.9938 -3.89535 -3.00871 0
M  V30 554 N 57.6459 0.756429 -1.3826 0
M  V30 555 C 58.8939 1.51248 -1.34047 0
M  V30 556 C 59.2149 1.94875 0.0698372 0
M  V30 557 O 58.4849 1.67436 1.01696 0
M  V30 558 H 57.0649 0.561018 -0.493222 0
M  V30 559 H 59.7269 0.899347 -1.7291 0
M  V30 560 H 58.8229 2.40472 -1.98947 0
M  V30 561 N 59.124 1.23083 0.984299 0
M  V30 562 C 60.54 0.992637 1.24975 0
M  V30 563 C 60.74 -0.308618 1.99123 0
M  V30 564 O 59.796 -1.02905 2.30579 0
M  V30 565 C 61.109 2.19698 2.05312 0
M  V30 566 C 62.657 2.24147 2.18465 0
M  V30 567 C 63.132 3.44157 3.02192 0
M  V30 568 N 64.623 3.44372 3.09777 0
M  V30 569 C 65.358 4.33886 3.74874 0
M  V30 570 N 64.854 5.3363 4.41827 0
M  V30 571 N 66.647 4.21639 3.71721 0
M  V30 572 H 58.798 2.06731 0.487453 0
M  V30 573 H 61.061 0.906339 0.277944 0
M  V30 574 H 60.767 3.1411 1.58201 0
M  V30 575 H 60.641 2.20465 3.06064 0
M  V30 576 H 63.028 1.30277 2.64786 0
M  V30 577 H 63.109 2.27415 1.17115 0
M  V30 578 H 62.753 4.38332 2.56568 0
M  V30 579 H 62.683 3.3813 4.03702 0
M  V30 580 H 65.174 2.72201 2.62135 0
M  V30 581 H 65.487 5.98196 4.89266 0
M  V30 582 H 63.832 5.37534 4.40548 0
M  V30 583 H 67.023 3.42962 3.18582 0
M  V30 584 H 67.196 4.91604 4.22173 0
M  V30 585 N 60.6021 -1.18246 1.0419 0
M  V30 586 C 62.0181 -1.40269 0.761366 0
M  V30 587 C 62.2181 -1.90777 -0.648578 0
M  V30 588 O 61.2741 -2.0929 -1.41258 0
M  V30 589 C 62.5871 -2.40237 1.8085 0
M  V30 590 C 64.1351 -2.53961 1.82955 0
M  V30 591 C 64.6101 -3.57194 2.86664 0
M  V30 592 N 66.1011 -3.64702 2.85563 0
M  V30 593 C 66.8361 -4.44309 3.6246 0
M  V30 594 N 66.3321 -5.27514 4.49111 0
M  V30 595 N 68.1251 -4.39084 3.50944 0
M  V30 596 H 60.2761 -0.837882 1.95175 0
M  V30 597 H 62.5391 -0.430608 0.84456 0
M  V30 598 H 62.2451 -2.10176 2.81991 0
M  V30 599 H 62.1191 -3.39601 1.64168 0
M  V30 600 H 64.5061 -2.83338 0.824855 0
M  V30 601 H 64.5871 -1.54706 2.03715 0
M  V30 602 H 64.2311 -3.28558 3.87314 0
M  V30 603 H 64.1611 -4.5613 2.6316 0
M  V30 604 H 66.6521 -3.05289 2.22727 0
M  V30 605 H 66.9651 -5.85411 5.04493 0
M  V30 606 H 65.3101 -5.2693 4.53178 0
M  V30 607 H 68.5011 -3.7313 2.82651 0
M  V30 608 H 68.6741 -5.00883 4.11121 0
M  V30 609 N 62.0802 -0.821533 -1.34494 0
M  V30 610 C 63.3572 -0.33159 -1.92769 0
M  V30 611 C 63.7372 1.18088 -1.74981 0
M  V30 612 O 63.0852 1.98733 -1.12772 0
M  V30 613 C 63.2952 -0.759398 -3.40638 0
M  V30 614 C 64.6432 -0.757433 -4.1779 0
M  V30 615 O 65.6672 -0.70189 -3.49216 0
M  V30 616 O 64.5262 -0.829361 -5.4017 0
M  V30 617 H 61.6202 -0.0902502 -0.822061 0
M  V30 618 H 64.1662 -0.906231 -1.43477 0
M  V30 619 H 62.9382 -1.8012 -3.47379 0
M  V30 620 H 62.5612 -0.160378 -3.97276 0
M  V30 621 N 63.5583 1.46682 -0.576371 0
M  V30 622 C 64.5213 2.28707 0.150239 0
M  V30 623 C 65.5213 1.38035 0.824794 0
M  V30 624 O 66.7113 1.60476 0.677719 0
M  V30 625 C 63.8433 3.18248 1.22192 0
M  V30 626 H 65.0363 2.94423 -0.570521 0
M  V30 627 H 62.5893 1.52688 -0.334078 0
M  V30 628 H 63.3243 2.57265 1.97447 0
M  V30 629 H 63.1093 3.85 0.742812 0
M  V30 630 H 64.5993 3.80001 1.73172 0
M  V30 631 N 65.0364 0.313813 1.54444 0
M  V30 632 C 66.4474 -0.176243 1.85866 0
M  V30 633 C 66.7984 -1.52405 1.23561 0
M  V30 634 O 65.9234 -2.09605 0.538016 0
M  V30 635 C 66.5184 -0.32657 3.37222 0
M  V30 636 C 65.0774 -0.760846 3.6863 0
M  V30 637 C 64.2244 0.123247 2.77026 0
M  V30 638 H 67.1754 0.534418 1.49431 0
M  V30 639 H 67.1964 -1.15908 3.62416 0
M  V30 640 H 66.7084 0.654531 3.82541 0
M  V30 641 H 64.8094 -1.75204 3.28838 0
M  V30 642 H 64.9224 -0.571353 4.75681 0
M  V30 643 H 63.2864 -0.399597 2.51546 0
M  V30 644 H 64.0694 1.10094 3.25168 0
M  V30 645 N 66.5145 -1.57545 0.0417849 0
M  V30 646 C 67.7625 -1.91937 -0.632829 0
M  V30 647 C 68.0835 -0.919978 -1.71934 0
M  V30 648 O 67.3535 0.0366064 -1.95866 0
M  V30 649 H 65.9335 -0.708493 -0.236742 0
M  V30 650 H 68.5955 -1.9468 0.0925745 0
M  V30 651 H 67.6915 -2.92912 -1.07746 0
M  V30 652 N 67.9926 0.231505 -1.5589 0
M  V30 653 C 69.4086 0.580748 -1.48659 0
M  V30 654 C 69.6086 1.87617 -0.73498 0
M  V30 655 O 68.6646 2.51046 -0.270586 0
M  V30 656 C 69.9776 0.669202 -2.93159 0
M  V30 657 C 71.5256 0.760499 -3.03621 0
M  V30 658 C 72.0006 0.880383 -4.49459 0
M  V30 659 N 73.4916 0.944861 -4.53461 0
M  V30 660 C 74.2266 1.05716 -5.63571 0
M  V30 661 N 73.7226 1.13403 -6.83456 0
M  V30 662 N 75.5156 1.09152 -5.514 0
M  V30 663 H 67.6666 -0.618695 -2.03189 0
M  V30 664 H 69.9296 -0.215728 -0.923128 0
M  V30 665 H 69.6356 -0.212904 -3.51055 0
M  V30 666 H 69.5096 1.5361 -3.44505 0
M  V30 667 H 71.8966 1.63305 -2.45796 0
M  V30 668 H 71.9776 -0.131864 -2.5546 0
M  V30 669 H 71.6216 0.0123284 -5.07899 0
M  V30 670 H 71.5516 1.78802 -4.95316 0
M  V30 671 H 74.0426 0.896176 -3.6712 0
M  V30 672 H 74.3556 1.21921 -7.63122 0
M  V30 673 H 72.7006 1.10333 -6.86186 0
M  V30 674 H 75.8916 1.02805 -4.56671 0
M  V30 675 H 76.0646 1.17558 -6.37247 0
M  V30 676 N 69.4707 1.49531 0.497807 0
M  V30 677 C 70.4337 1.65916 1.58128 0
M  V30 678 C 71.4337 0.530825 1.51786 0
M  V30 679 O 72.6237 0.797342 1.54881 0
M  V30 680 C 69.7557 1.65951 2.9778 0
M  V30 681 H 70.9487 2.62556 1.44929 0
M  V30 682 H 68.5017 1.38611 0.722275 0
M  V30 683 H 69.2367 0.709065 3.16453 0
M  V30 684 H 69.0217 2.47897 3.03792 0
M  V30 685 H 70.5117 1.80673 3.76493 0
M  V30 686 N 70.9488 -0.749086 1.3866 0
M  V30 687 C 72.1968 -1.50535 1.34847 0
M  V30 688 C 72.5178 -1.94909 -0.0595016 0
M  V30 689 O 71.7878 -1.67973 -1.00806 0
M  V30 690 H 70.3678 -0.558395 0.49619 0
M  V30 691 H 73.0298 -0.890165 1.73384 0
M  V30 692 H 72.1258 -2.39413 2.00219 0
M  V30 693 N 72.4269 -1.23603 -0.977757 0
M  V30 694 C 73.6749 -1.06759 -1.71601 0
M  V30 695 C 73.9959 0.395929 -1.90938 0
M  V30 696 O 73.2659 1.28356 -1.47992 0
M  V30 697 H 71.8459 -0.392062 -0.635843 0
M  V30 698 H 74.5079 -1.55362 -1.1768 0
M  V30 699 H 73.6039 -1.55763 -2.70452 0
M  V30 700 N 73.905 1.17692 -1.04816 0
M  V30 701 C 75.153 1.87488 -0.754497 0
M  V30 702 C 75.474 1.81205 0.720407 0
M  V30 703 O 74.744 1.23544 1.52032 0
M  V30 704 H 73.324 0.694101 -0.276102 0
M  V30 705 H 75.986 1.42793 -1.32651 0
M  V30 706 H 75.082 2.93328 -1.06606 0
M  V30 707 N 75.3831 0.828654 1.34056 0
M  V30 708 C 76.6311 0.41863 1.97717 0
M  V30 709 C 76.9521 -1.02314 1.66002 0
M  V30 710 O 76.2221 -1.71119 0.953683 0
M  V30 711 H 74.8021 0.151809 0.731412 0
M  V30 712 H 77.4641 1.05936 1.63596 0
M  V30 713 H 76.5601 0.542318 3.07352 0
M  V30 714 N 76.8612 -1.46375 0.584142 0
M  V30 715 C 77.8242 -2.28784 -0.138108 0
M  V30 716 C 78.8242 -1.38471 -0.817462 0
M  V30 717 O 80.0142 -1.60833 -0.669199 0
M  V30 718 C 77.1462 -3.18892 -1.20503 0
M  V30 719 H 78.3392 -2.94117 0.586127 0
M  V30 720 H 75.8922 -1.52509 0.342171 0
M  V30 721 H 76.6272 -2.58309 -1.96079 0
M  V30 722 H 76.4122 -3.85388 -0.722384 0
M  V30 723 H 77.9022 -3.80914 -1.71155 0
M  V30 724 N 78.3393 -0.321999 -1.54275 0
M  V30 725 C 79.3023 0.531975 -2.22941 0
M  V30 726 C 80.3023 1.04478 -1.22234 0
M  V30 727 O 81.4923 0.937452 -1.46825 0
M  V30 728 C 78.6243 1.73874 -2.93224 0
M  V30 729 H 79.8173 -0.0682612 -2.99822 0
M  V30 730 H 77.3703 -0.0730644 -1.56129 0
M  V30 731 H 78.1053 2.37825 -2.20476 0
M  V30 732 H 77.8903 1.37847 -3.6707 0
M  V30 733 H 79.3803 2.34496 -3.45545 0
M  V30 734 N 79.8174 1.5752 -0.0501392 0
M  V30 735 C 81.2334 1.56631 0.306402 0
M  V30 736 C 81.4334 1.0577 1.71508 0
M  V30 737 O 80.4894 0.713837 2.422 0
M  V30 738 C 81.8024 3.00393 0.135811 0
M  V30 739 C 83.3504 3.12315 0.206993 0
M  V30 740 C 83.8254 4.57954 0.064944 0
M  V30 741 N 85.3164 4.63041 0.121254 0
M  V30 742 C 86.0514 5.73389 0.0354381 0
M  V30 743 N 85.5474 6.92724 -0.102666 0
M  V30 744 N 87.3404 5.62026 0.090946 0
M  V30 745 H 79.4914 1.88903 -0.971046 0
M  V30 746 H 81.7544 0.869876 -0.376855 0
M  V30 747 H 81.4604 3.41635 -0.835384 0
M  V30 748 H 81.3344 3.66373 0.897275 0
M  V30 749 H 83.7214 2.70973 1.16866 0
M  V30 750 H 83.8024 2.49016 -0.585208 0
M  V30 751 H 83.4464 4.99981 -0.893394 0
M  V30 752 H 83.3764 5.19258 0.876277 0
M  V30 753 H 85.8674 3.77216 0.227284 0
M  V30 754 H 86.1804 7.72633 -0.160882 0
M  V30 755 H 84.5254 6.94864 -0.137737 0
M  V30 756 H 87.7164 4.67684 0.197388 0
M  V30 757 H 87.8894 6.47997 0.0206089 0
M  V30 758 N 81.2955 -0.223234 1.56011 0
M  V30 759 C 82.5205 -0.968978 1.83373 0
M  V30 760 C 82.9455 -1.77227 0.630254 0
M  V30 761 O 82.3035 -1.76345 -0.420959 0
M  V30 762 C 82.3515 -1.86363 3.08709 0
M  V30 763 O 81.4555 -2.95873 2.87285 0
M  V30 764 H 80.7965 -0.274461 0.604622 0
M  V30 765 H 83.3265 -0.237056 2.03222 0
M  V30 766 H 83.3365 -2.27376 3.38768 0
M  V30 767 H 82.0115 -1.27319 3.95933 0
M  V30 768 H 80.5885 -2.58818 2.68454 0
M  V30 769 N 82.7736 -1.49793 -0.48987 0
M  V30 770 C 84.0196 -1.60078 -1.24511 0
M  V30 771 C 84.3526 -0.291608 -1.91998 0
M  V30 772 O 83.6276 0.705647 -1.81248 0
M  V30 773 C 83.9106 -2.76791 -2.30345 0
M  V30 774 C 83.7636 -4.17535 -1.67286 0
M  V30 775 C 85.0826 -2.89111 -3.31817 0
M  V30 776 H 82.2016 -0.582645 -0.451324 0
M  V30 777 H 84.8436 -1.82117 -0.541612 0
M  V30 778 H 82.9936 -2.5813 -2.90346 0
M  V30 779 H 84.6656 -4.4774 -1.11026 0
M  V30 780 H 82.9086 -4.22665 -0.976577 0
M  V30 781 H 83.5796 -4.95094 -2.44103 0
M  V30 782 H 86.0556 -3.06133 -2.81819 0
M  V30 783 H 84.9316 -3.72433 -4.03219 0
M  V30 784 H 85.1926 -1.9893 -3.94815 0
M  V30 785 N 84.2517 0.741722 -1.39055 0
M  V30 786 C 85.4767 1.53607 -1.39354 0
M  V30 787 C 85.9017 1.88096 0.0116905 0
M  V30 788 O 85.2597 1.5143 0.996924 0
M  V30 789 C 85.3077 2.80441 -2.26682 0
M  V30 790 O 84.4117 3.76088 -1.69208 0
M  V30 791 H 83.7527 0.464142 -0.474835 0
M  V30 792 H 86.2827 0.915665 -1.82967 0
M  V30 793 H 86.2927 3.29246 -2.40959 0
M  V30 794 H 84.9677 2.5467 -3.2881 0
M  V30 795 H 83.5447 3.34833 -1.64138 0
M  V30 796 N 85.7298 1.2412 0.971189 0
M  V30 797 C 87.1408 1.07236 1.52831 0
M  V30 798 C 87.4918 -0.357352 1.92918 0
M  V30 799 O 86.6168 -1.24528 1.76979 0
M  V30 800 C 87.2118 1.94043 2.77728 0
M  V30 801 C 85.7708 1.81394 3.29808 0
M  V30 802 C 84.9178 1.89189 2.02738 0
M  V30 803 H 87.8688 1.37648 0.789864 0
M  V30 804 H 87.8898 1.47066 3.5093 0
M  V30 805 H 87.4018 2.98093 2.4852 0
M  V30 806 H 85.5028 0.801634 3.63874 0
M  V30 807 H 85.6158 2.65294 3.98944 0
M  V30 808 H 83.9798 1.32877 2.17292 0
M  V30 809 H 84.7628 2.94812 1.759 0
M  V30 810 N 87.2079 -1.17134 1.05439 0
M  V30 811 C 88.4329 -1.91913 0.786396 0
M  V30 812 C 88.8579 -1.7643 -0.652234 0
M  V30 813 O 88.2159 -1.08372 -1.45345 0
M  V30 814 C 88.2639 -3.40921 1.17497 0
M  V30 815 O 87.3679 -4.11244 0.308589 0
M  V30 816 H 86.7089 -0.598215 0.288158 0
M  V30 817 H 89.2389 -1.48457 1.4079 0
M  V30 818 H 89.2489 -3.91668 1.14281 0
M  V30 819 H 87.9239 -3.5151 2.22292 0
M  V30 820 H 86.5009 -3.70731 0.40157 0
M  V30 821 N 88.686 -0.835752 -1.33615 0
M  V30 822 C 90.097 -0.487099 -1.80234 0
M  V30 823 C 90.448 0.993627 -1.69179 0
M  V30 824 O 89.573 1.77403 -1.23924 0
M  V30 825 C 90.168 -0.877385 -3.27242 0
M  V30 826 C 88.727 -0.580915 -3.7189 0
M  V30 827 C 87.874 -1.0874 -2.5509 0
M  V30 828 H 90.825 -1.02474 -1.2118 0
M  V30 829 H 90.846 -0.186195 -3.80044 0
M  V30 830 H 90.358 -1.95512 -3.35256 0
M  V30 831 H 88.459 0.486881 -3.69405 0
M  V30 832 H 88.572 -1.13396 -4.65487 0
M  V30 833 H 86.936 -0.508392 -2.49575 0
M  V30 834 H 87.719 -2.17184 -2.65868 0
M  V30 835 N 90.1641 1.46063 -0.591896 0
M  V30 836 C 91.3891 2.07226 -0.0850314 0
M  V30 837 C 91.8141 1.43625 1.21463 0
M  V30 838 O 91.1721 0.523305 1.73583 0
M  V30 839 C 91.2201 3.60554 0.0576567 0
M  V30 840 O 90.3241 3.97128 1.11188 0
M  V30 841 H 89.6651 0.660615 -0.0669568 0
M  V30 842 H 92.1951 1.8756 -0.81745 0
M  V30 843 H 92.2051 4.07165 0.2609 0
M  V30 844 H 90.8801 4.06235 -0.891416 0
M  V30 845 H 89.4571 3.62213 0.886356 0
M  V30 846 N 91.6422 0.330177 1.54103 0
M  V30 847 C 92.8882 -0.270806 2.00984 0
M  V30 848 C 93.2212 -1.51265 1.21789 0
M  V30 849 O 92.4962 -1.92142 0.301927 0
M  V30 850 C 92.7792 -0.598339 3.55094 0
M  V30 851 C 92.6322 0.654674 4.4501 0
M  V30 852 C 93.9512 -1.41334 4.16789 0
M  V30 853 H 91.0702 -0.0969531 0.730595 0
M  V30 854 H 93.7122 0.448066 1.84641 0
M  V30 855 H 91.8622 -1.21078 3.69151 0
M  V30 856 H 93.5342 1.29285 4.42813 0
M  V30 857 H 91.7772 1.28224 4.14416 0
M  V30 858 H 92.4482 0.380944 5.50684 0
M  V30 859 H 94.9242 -0.895597 4.06347 0
M  V30 860 H 93.8002 -1.61127 5.24718 0
M  V30 861 H 94.0612 -2.41146 3.70541 0
M  V30 862 N 93.1203 -1.57491 0.0584922 0
M  V30 863 C 94.0503 -2.14988 -0.911178 0
M  V30 864 C 95.0313 -1.07343 -1.31952 0
M  V30 865 O 96.2163 -1.35318 -1.39294 0
M  V30 866 C 93.3463 -2.70078 -2.18347 0
M  V30 867 C 92.3003 -3.82771 -1.91495 0
M  V30 868 C 91.6263 -4.24408 -3.25241 0
M  V30 869 C 92.9263 -5.07592 -1.23075 0
M  V30 870 H 94.6203 -2.96263 -0.432246 0
M  V30 871 H 92.1663 -1.42512 -0.206469 0
M  V30 872 H 94.1193 -3.08943 -2.86587 0
M  V30 873 H 92.8433 -1.86005 -2.68458 0
M  V30 874 H 91.5023 -3.44389 -1.25664 0
M  V30 875 H 91.1503 -3.37275 -3.73168 0
M  V30 876 H 90.8503 -5.00366 -3.08071 0
M  V30 877 H 92.3743 -4.65879 -3.94701 0
M  V30 878 H 93.7883 -5.43857 -1.81362 0
M  V30 879 H 92.1853 -5.88741 -1.16207 0
M  V30 880 H 93.2553 -4.84454 -0.207847 0
M  V30 881 N 94.5984 0.214957 -1.56127 0
M  V30 882 C 95.8234 0.95924 -1.83884 0
M  V30 883 C 96.2484 1.7689 -0.639644 0
M  V30 884 O 95.6064 1.76566 0.411601 0
M  V30 885 C 95.6544 1.84723 -3.09693 0
M  V30 886 O 94.7584 2.94346 -2.8885 0
M  V30 887 H 94.0994 0.27125 -0.606069 0
M  V30 888 H 96.6294 0.226276 -2.03345 0
M  V30 889 H 96.6394 2.25576 -3.39969 0
M  V30 890 H 95.3144 1.25218 -3.96602 0
M  V30 891 H 93.8914 2.57391 -2.69823 0
M  V30 892 N 96.0765 1.50051 0.48192 0
M  V30 893 C 96.9865 1.7089 1.60728 0
M  V30 894 C 98.0025 0.591788 1.63627 0
M  V30 895 O 99.1785 0.868817 1.81696 0
M  V30 896 C 96.2435 1.78855 2.97005 0
M  V30 897 C 95.3045 3.02537 3.04581 0
M  V30 898 C 94.5375 3.10112 4.34357 0
M  V30 899 O 94.7605 2.24765 5.24249 0
M  V30 900 O 93.6945 4.02747 4.47301 0
M  V30 901 H 97.5205 2.66264 1.46072 0
M  V30 902 H 95.1055 1.34018 0.660264 0
M  V30 903 H 96.9875 1.86336 3.77964 0
M  V30 904 H 95.6625 0.866628 3.11883 0
M  V30 905 H 94.5695 3.00563 2.22739 0
M  V30 906 H 95.9025 3.94272 2.94636 0
M  V30 907 N 97.5546 -0.734337 1.39446 0
M  V30 908 C 98.8026 -1.49096 1.36436 0
M  V30 909 C 99.1236 -1.94961 -0.0388255 0
M  V30 910 O 98.3936 -1.69033 -0.990191 0
M  V30 911 H 96.9736 -0.5531 0.502085 0
M  V30 912 H 99.6356 -0.871725 1.74319 0
M  V30 913 H 98.7316 -2.37276 2.02747 0
M  V30 914 N 99.0327 -1.24633 -0.964593 0
M  V30 915 C 100.449 -1.01239 -1.2338 0
M  V30 916 C 100.649 0.2769 -1.99588 0
M  V30 917 O 99.7047 0.992241 -2.32187 0
M  V30 918 C 101.018 -2.22937 -2.01791 0
M  V30 919 C 102.566 -2.27594 -2.14872 0
M  V30 920 C 103.041 -3.48921 -2.96678 0
M  V30 921 N 104.532 -3.49257 -3.04259 0
M  V30 922 C 105.267 -4.39795 -3.67924 0
M  V30 923 N 104.763 -5.40591 -4.33281 0
M  V30 924 N 106.556 -4.275 -3.64966 0
M  V30 925 H 98.7067 -2.0748 -0.454502 0
M  V30 926 H 100.97 -0.910647 -0.26349 0
M  V30 927 H 100.676 -3.16587 -1.53184 0
M  V30 928 H 100.55 -2.25306 -3.02518 0
M  V30 929 H 102.937 -1.34473 -2.6268 0
M  V30 930 H 103.018 -2.2925 -1.13482 0
M  V30 931 H 102.662 -4.42359 -2.49562 0
M  V30 932 H 102.592 -3.4451 -3.98272 0
M  V30 933 H 105.083 -2.76337 -2.57771 0
M  V30 934 H 105.396 -6.05904 -4.79687 0
M  V30 935 H 103.741 -5.44475 -4.3194 0
M  V30 936 H 106.932 -3.47987 -3.13086 0
M  V30 937 H 107.105 -4.98258 -4.14298 0
M  V30 938 N 100.511 1.16574 -1.06058 0
M  V30 939 C 101.788 1.83048 -0.689416 0
M  V30 940 C 102.168 1.94122 0.829443 0
M  V30 941 O 101.516 1.48249 1.7388 0
M  V30 942 C 101.726 3.20186 -1.38859 0
M  V30 943 C 103.074 3.95989 -1.53226 0
M  V30 944 O 104.098 3.29696 -1.3483 0
M  V30 945 O 102.957 5.14813 -1.83384 0
M  V30 946 H 100.051 0.790258 -0.243764 0
M  V30 947 H 102.597 1.23797 -1.16071 0
M  V30 948 H 101.369 3.07146 -2.4244 0
M  V30 949 H 100.992 3.87112 -0.907216 0
M  V30 950 N 101.989 0.842826 1.3317 0
M  V30 951 C 102.899 0.281444 2.32906 0
M  V30 952 C 103.915 -0.594587 1.63526 0
M  V30 953 O 105.091 -0.49777 1.95152 0
M  V30 954 C 102.156 -0.530929 3.42611 0
M  V30 955 C 101.217 0.369843 4.27704 0
M  V30 956 C 100.45 -0.403853 5.3217 0
M  V30 957 O 100.673 -1.63513 5.46461 0
M  V30 958 O 99.6069 0.224199 6.01482 0
M  V30 959 H 103.433 1.10744 2.82789 0
M  V30 960 H 101.018 0.60545 1.36582 0
M  V30 961 H 102.9 -0.992437 4.09547 0
M  V30 962 H 101.575 -1.33392 2.94938 0
M  V30 963 H 100.482 0.879275 3.6362 0
M  V30 964 H 101.815 1.13771 4.78871 0
M  V30 965 N 103.467 -1.45747 0.599634 0
M  V30 966 C 104.878 -1.85853 0.177681 0
M  V30 967 C 105.229 -1.50102 -1.26348 0
M  V30 968 O 104.354 -0.923905 -1.95686 0
M  V30 969 C 104.949 -3.37326 0.315688 0
M  V30 970 C 103.508 -3.76365 -0.0515144 0
M  V30 971 C 102.655 -2.69722 0.643822 0
M  V30 972 H 105.606 -1.36661 0.806814 0
M  V30 973 H 105.627 -3.77778 -0.454321 0
M  V30 974 H 105.139 -3.63315 1.36468 0
M  V30 975 H 103.24 -3.55993 -1.09999 0
M  V30 976 H 103.353 -4.77916 0.336594 0
M  V30 977 H 101.717 -2.54567 0.0822881 0
M  V30 978 H 102.5 -2.98549 1.6948 0
M  V30 979 N 104.945 -0.338344 -1.53925 0
M  V30 980 C 105.877 0.555117 -2.22376 0
M  V30 981 C 106.89 1.06812 -1.22862 0
M  V30 982 O 108.079 0.979163 -1.49247 0
M  V30 983 C 105.179 1.77609 -2.88631 0
M  V30 984 C 104.352 1.39927 -4.14414 0
M  V30 985 C 103.411 2.47936 -4.64127 0
M  V30 986 O 102.437 2.11461 -5.28463 0
M  V30 987 N 103.639 3.79107 -4.39612 0
M  V30 988 H 106.404 -0.0310778 -2.99684 0
M  V30 989 H 103.965 -0.162226 -1.61085 0
M  V30 990 H 105.957 2.49287 -3.18807 0
M  V30 991 H 104.527 2.26978 -2.14941 0
M  V30 992 H 103.747 0.513481 -3.90841 0
M  V30 993 H 105.035 1.12341 -4.96243 0
M  V30 994 H 104.433 4.11531 -3.88148 0
M  V30 995 H 102.99 4.4697 -4.74406 0
M  V30 996 N 106.423 1.57458 -0.0668435 0
M  V30 997 C 107.839 1.56947 0.289772 0
M  V30 998 C 108.039 1.07584 1.70376 0
M  V30 999 O 107.095 0.739486 2.41429 0
M  V30 1000 C 108.408 3.0052 0.103943 0
M  V30 1001 C 109.956 3.12517 0.173857 0
M  V30 1002 C 110.431 4.57997 0.0163682 0
M  V30 1003 N 111.922 4.63144 0.0721352 0
M  V30 1004 C 112.657 5.73394 -0.0253794 0
M  V30 1005 N 112.153 6.92576 -0.176133 0
M  V30 1006 N 113.946 5.62091 0.0313305 0
M  V30 1007 H 106.097 1.87863 -0.991027 0
M  V30 1008 H 108.36 0.86583 -0.38606 0
M  V30 1009 H 108.066 3.40729 -0.871572 0
M  V30 1010 H 107.94 3.67304 0.858366 0
M  V30 1011 H 110.327 2.72197 1.13985 0
M  V30 1012 H 110.408 2.48381 -0.611586 0
M  V30 1013 H 110.052 4.99005 -0.946374 0
M  V30 1014 H 109.982 5.20158 0.821153 0
M  V30 1015 H 112.473 3.77436 0.187263 0
M  V30 1016 H 112.786 7.72418 -0.242821 0
M  V30 1017 H 111.131 6.94678 -0.211429 0
M  V30 1018 H 114.322 4.67867 0.147773 0
M  V30 1019 H 114.495 6.47982 -0.048121 0
M  V30 1020 N 107.901 -0.206675 1.56239 0
M  V30 1021 C 108.833 -1.27997 1.9013 0
M  V30 1022 C 109.846 -1.42299 0.790883 0
M  V30 1023 O 111.035 -1.42931 1.06925 0
M  V30 1024 C 108.135 -2.65368 2.10792 0
M  V30 1025 C 107.308 -2.72824 3.41886 0
M  V30 1026 C 106.367 -3.9131 3.51799 0
M  V30 1027 O 105.393 -3.78953 4.24716 0
M  V30 1028 N 106.595 -5.06265 2.84035 0
M  V30 1029 H 109.36 -0.992444 2.82791 0
M  V30 1030 H 106.921 -0.396652 1.56966 0
M  V30 1031 H 108.913 -3.43039 2.14724 0
M  V30 1032 H 107.483 -2.86657 1.24685 0
M  V30 1033 H 106.703 -1.81515 3.49923 0
M  V30 1034 H 107.991 -2.74786 4.28217 0
M  V30 1035 H 107.389 -5.19203 2.246 0
M  V30 1036 H 105.946 -5.81925 2.93609 0
M  V30 1037 N 109.379 -1.50304 -0.473955 0
M  V30 1038 C 110.309 -1.71886 -1.58042 0
M  V30 1039 C 111.29 -0.567799 -1.60344 0
M  V30 1040 O 112.475 -0.806623 -1.76656 0
M  V30 1041 C 109.605 -1.81036 -2.96384 0
M  V30 1042 C 108.559 -2.962 -3.08949 0
M  V30 1043 C 107.885 -2.9049 -4.48909 0
M  V30 1044 C 109.185 -4.36752 -2.86434 0
M  V30 1045 H 110.879 -2.64527 -1.40234 0
M  V30 1046 H 108.425 -1.27295 -0.673201 0
M  V30 1047 H 110.378 -1.94719 -3.73714 0
M  V30 1048 H 109.102 -0.850147 -3.15341 0
M  V30 1049 H 107.761 -2.82164 -2.3405 0
M  V30 1050 H 107.409 -1.92321 -4.64781 0
M  V30 1051 H 107.109 -3.67802 -4.58253 0
M  V30 1052 H 108.633 -3.06218 -5.28264 0
M  V30 1053 H 110.047 -4.5133 -3.53517 0
M  V30 1054 H 108.444 -5.15493 -3.07225 0
M  V30 1055 H 109.514 -4.49321 -1.82316 0
M  V30 1056 N 110.857 0.726932 -1.39834 0
M  V30 1057 C 112.134 1.47902 -1.28001 0
M  V30 1058 C 112.514 2.1083 0.106789 0
M  V30 1059 O 111.862 1.99242 1.11869 0
M  V30 1060 C 112.072 2.52392 -2.41038 0
M  V30 1061 C 113.42 3.18546 -2.80737 0
M  V30 1062 O 114.444 2.62708 -2.40547 0
M  V30 1063 O 113.303 4.19604 -3.50135 0
M  V30 1064 H 110.397 0.657163 -0.502062 0
M  V30 1065 H 112.943 0.760071 -1.51727 0
M  V30 1066 H 111.715 2.04329 -3.33715 0
M  V30 1067 H 111.338 3.31837 -2.19021 0
M  V30 1068 N 112.336 1.25143 0.95797 0
M  V30 1069 C 113.613 1.00472 1.67823 0
M  V30 1070 C 113.993 -0.470056 2.058 0
M  V30 1071 O 113.341 -1.44663 1.76875 0
M  V30 1072 C 113.551 1.9372 2.90299 0
M  V30 1073 C 114.899 2.21371 3.62326 0
M  V30 1074 O 115.923 1.91451 3.00375 0
M  V30 1075 O 114.782 2.72231 4.7387 0
M  V30 1076 H 111.876 0.380752 0.734137 0
M  V30 1077 H 114.422 1.36283 1.01119 0
M  V30 1078 H 113.194 2.93316 2.59001 0
M  V30 1079 H 112.817 1.58286 3.64735 0
M  V30 1080 N 113.814 -1.1601 1.06675 0
M  V30 1081 C 114.724 -2.24156 0.692179 0
M  V30 1082 C 115.74 -1.71507 -0.293513 0
M  V30 1083 O 116.916 -2.009 -0.141861 0
M  V30 1084 C 113.981 -3.46587 0.0884131 0
M  V30 1085 C 113.042 -4.14257 1.12646 0
M  V30 1086 C 112.275 -5.30844 0.551416 0
M  V30 1087 O 112.498 -5.66858 -0.634656 0
M  V30 1088 O 111.432 -5.87848 1.29298 0
M  V30 1089 H 115.258 -2.58513 1.59388 0
M  V30 1090 H 112.843 -1.23599 0.83926 0
M  V30 1091 H 114.725 -4.20679 -0.246361 0
M  V30 1092 H 113.4 -3.13994 -0.786712 0
M  V30 1093 H 112.307 -3.42118 1.51348 0
M  V30 1094 H 113.64 -4.50914 1.97325 0
M  V30 1095 N 115.292 -0.849877 -1.32721 0
M  V30 1096 C 116.224 -0.248332 -2.27851 0
M  V30 1097 C 117.237 0.577218 -1.52224 0
M  V30 1098 O 118.426 0.402489 -1.73903 0
M  V30 1099 C 115.526 0.668107 -3.32249 0
M  V30 1100 C 114.699 -0.120534 -4.37234 0
M  V30 1101 C 113.758 0.720932 -5.21238 0
M  V30 1102 O 112.784 0.156166 -5.68986 0
M  V30 1103 N 113.986 2.03647 -5.43607 0
M  V30 1104 H 116.751 -1.06575 -2.80111 0
M  V30 1105 H 114.312 -0.709395 -1.45531 0
M  V30 1106 H 116.304 1.23627 -3.85355 0
M  V30 1107 H 114.874 1.38621 -2.80184 0
M  V30 1108 H 114.094 -0.870108 -3.84477 0
M  V30 1109 H 115.382 -0.662406 -5.0447 0
M  V30 1110 H 114.78 2.51871 -5.06535 0
M  V30 1111 H 113.337 2.55287 -5.99727 0
M  V30 1112 N 116.77 1.45427 -0.607355 0
M  V30 1113 C 117.68 2.34325 0.113463 0
M  V30 1114 C 118.696 1.51226 0.860617 0
M  V30 1115 O 119.872 1.84029 0.818255 0
M  V30 1116 C 116.937 3.28839 1.09844 0
M  V30 1117 C 115.998 4.27844 0.353271 0
M  V30 1118 C 115.231 5.17842 1.29133 0
M  V30 1119 O 115.454 5.11264 2.52913 0
M  V30 1120 O 114.388 5.96713 0.788523 0
M  V30 1121 H 118.214 2.97364 -0.617094 0
M  V30 1122 H 115.799 1.44807 -0.367619 0
M  V30 1123 H 117.681 3.8708 1.66575 0
M  V30 1124 H 116.356 2.68365 1.81003 0
M  V30 1125 H 115.263 3.7322 -0.256494 0
M  V30 1126 H 116.596 4.91173 -0.317822 0
M  V30 1127 N 118.248 0.346503 1.53744 0
M  V30 1128 C 119.664 -0.00530975 1.59599 0
M  V30 1129 C 119.864 -1.48465 1.36236 0
M  V30 1130 O 118.92 -2.24376 1.15808 0
M  V30 1131 C 120.233 0.433516 2.97559 0
M  V30 1132 C 121.781 0.386111 3.10609 0
M  V30 1133 C 122.256 0.800451 4.50951 0
M  V30 1134 N 123.747 0.754753 4.5701 0
M  V30 1135 C 124.482 1.04727 5.63755 0
M  V30 1136 N 123.978 1.4081 6.7834 0
M  V30 1137 N 125.771 0.971316 5.53644 0
M  V30 1138 H 117.922 1.31009 1.67184 0
M  V30 1139 H 120.185 0.534242 0.783128 0
M  V30 1140 H 119.891 1.46509 3.19731 0
M  V30 1141 H 119.765 -0.189753 3.76722 0
M  V30 1142 H 122.152 -0.636295 2.88158 0
M  V30 1143 H 122.233 1.04462 2.33498 0
M  V30 1144 H 121.877 1.82088 4.74137 0
M  V30 1145 H 121.807 0.119386 5.26465 0
M  V30 1146 H 124.298 0.488662 3.74727 0
M  V30 1147 H 124.611 1.61607 7.55714 0
M  V30 1148 H 122.956 1.44657 6.79779 0
M  V30 1149 H 126.147 0.688748 4.63005 0
M  V30 1150 H 126.32 1.20263 6.36742 0
M  V30 1151 N 119.726 -1.57421 0.075193 0
M  V30 1152 C 121.142 -1.57099 -0.281444 0
M  V30 1153 C 121.342 -1.08486 -1.69803 0
M  V30 1154 O 120.398 -0.752279 -2.41033 0
M  V30 1155 C 121.711 -3.00571 -0.0880041 0
M  V30 1156 C 123.259 -3.12605 -0.157281 0
M  V30 1157 C 123.734 -4.57999 0.0079207 0
M  V30 1158 N 125.225 -4.63176 -0.0475725 0
M  V30 1159 C 125.96 -5.73373 0.0557876 0
M  V30 1160 N 125.456 -6.92473 0.21286 0
M  V30 1161 N 127.249 -5.621 -0.00152098 0
M  V30 1162 H 119.4 -1.87335 1.00098 0
M  V30 1163 H 121.663 -0.86377 0.390646 0
M  V30 1164 H 121.369 -3.40262 0.889629 0
M  V30 1165 H 121.243 -3.67754 -0.838875 0
M  V30 1166 H 123.63 -2.72798 -1.1254 0
M  V30 1167 H 123.711 -2.48053 0.62475 0
M  V30 1168 H 123.355 -4.98496 0.972824 0
M  V30 1169 H 123.285 -5.20586 -0.793556 0
M  V30 1170 H 125.776 -3.7753 -0.167244 0
M  V30 1171 H 126.089 -7.72279 0.283781 0
M  V30 1172 H 124.434 -6.94556 0.248267 0
M  V30 1173 H 127.625 -4.67938 -0.122958 0
M  V30 1174 H 127.798 -6.47948 0.0824844 0
M  V30 1175 N 121.204 0.198386 -1.56346 0
M  V30 1176 C 122.453 0.917451 -1.79627 0
M  V30 1177 C 122.766 1.8456 -0.64784 0
M  V30 1178 O 123.972 2.60504 -0.764859 0
M  V30 1179 C 122.428 1.68175 -3.18191 0
M  V30 1180 C 122.036 0.798589 -4.40825 0
M  V30 1181 C 123.78 2.39065 -3.50782 0
M  V30 1182 C 121.687 1.56157 -5.70411 0
M  V30 1183 H 120.617 0.346317 -0.669762 0
M  V30 1184 H 123.268 0.170801 -1.82703 0
M  V30 1185 H 121.65 2.47216 -3.09354 0
M  V30 1186 H 122.824 0.0470665 -4.60776 0
M  V30 1187 H 121.139 0.200686 -4.15916 0
M  V30 1188 H 123.736 2.96692 -4.44835 0
M  V30 1189 H 124.079 3.13091 -2.74371 0
M  V30 1190 H 124.612 1.66993 -3.61052 0
M  V30 1191 H 121.351 0.864142 -6.49779 0
M  V30 1192 H 120.871 2.2871 -5.54483 0
M  V30 1193 H 122.55 2.11622 -6.11412 0
M  V30 1194 N 122.682 1.50554 0.465978 0
M  V30 1195 C 124.098 1.38093 0.800154 0
M  V30 1196 C 124.298 0.440988 1.96615 0
M  V30 1197 O 123.354 -0.114499 2.5224 0
M  V30 1198 C 124.667 2.79565 1.10742 0
M  V30 1199 C 126.215 2.88516 1.21357 0
M  V30 1200 C 126.69 4.30833 1.55393 0
M  V30 1201 N 128.181 4.33807 1.62375 0
M  V30 1202 C 128.916 5.40927 1.90225 0
M  V30 1203 N 128.412 6.58247 2.16062 0
M  V30 1204 N 130.205 5.28376 1.9177 0
M  V30 1205 H 122.356 2.10237 -0.302366 0
M  V30 1206 H 124.619 0.945203 -0.0727746 0
M  V30 1207 H 124.325 3.50208 0.323661 0
M  V30 1208 H 124.199 3.17125 2.04234 0
M  V30 1209 H 126.586 2.1809 1.98799 0
M  V30 1210 H 126.667 2.54492 0.258321 0
M  V30 1211 H 126.311 5.01799 0.784889 0
M  V30 1212 H 126.241 4.62347 2.52076 0
M  V30 1213 H 128.732 3.49212 1.44427 0
M  V30 1214 H 129.045 7.3569 2.36601 0
M  V30 1215 H 127.39 6.61413 2.13444 0
M  V30 1216 H 130.581 4.35715 1.71085 0
M  V30 1217 H 130.754 6.11944 2.13139 0
M  V30 1218 N 124.16 -0.719506 1.40217 0
M  V30 1219 C 125.09 -1.8465 1.42922 0
M  V30 1220 C 126.071 -1.67599 0.29062 0
M  V30 1221 O 127.256 -1.87688 0.498677 0
M  V30 1222 C 124.386 -3.22565 1.28722 0
M  V30 1223 C 123.34 -3.54281 2.40144 0
M  V30 1224 C 122.666 -4.91298 2.11023 0
M  V30 1225 C 123.966 -3.55676 3.82481 0
M  V30 1226 H 125.66 -1.82644 2.37237 0
M  V30 1227 H 123.206 -0.877305 1.1419 0
M  V30 1228 H 125.159 -4.01095 1.29232 0
M  V30 1229 H 123.883 -3.25137 0.308811 0
M  V30 1230 H 122.542 -2.78088 2.38877 0
M  V30 1231 H 122.19 -4.90468 1.11582 0
M  V30 1232 H 121.89 -5.13485 2.8567 0
M  V30 1233 H 123.414 -5.72166 2.13209 0
M  V30 1234 H 124.828 -4.24254 3.85592 0
M  V30 1235 H 123.225 -3.89388 4.56614 0
M  V30 1236 H 124.295 -2.55144 4.12346 0
M  V30 1237 N 125.638 -1.25649 -0.95132 0
M  V30 1238 C 126.57 -1.02112 -2.05197 0
M  V30 1239 C 127.583 0.0150571 -1.62793 0
M  V30 1240 O 128.772 -0.223874 -1.77091 0
M  V30 1241 C 125.872 -0.522361 -3.3485 0
M  V30 1242 C 125.045 -1.62546 -4.06076 0
M  V30 1243 C 124.104 -1.12649 -5.14001 0
M  V30 1244 O 123.13 -1.82156 -5.39266 0
M  V30 1245 N 124.332 0.03047 -5.80492 0
M  V30 1246 H 127.097 -1.96885 -2.25957 0
M  V30 1247 H 124.658 -1.16899 -1.1201 0
M  V30 1248 H 126.65 -0.172961 -4.0433 0
M  V30 1249 H 125.22 0.33151 -3.10837 0
M  V30 1250 H 124.44 -2.14628 -3.30649 0
M  V30 1251 H 125.728 -2.36644 -4.50419 0
M  V30 1252 H 125.126 0.611169 -5.62389 0
M  V30 1253 H 123.683 0.320875 -6.5101 0
M  V30 1254 N 127.117 1.15442 -1.07289 0
M  V30 1255 C 128.047 2.22312 -0.714107 0
M  V30 1256 C 129.028 1.67467 0.298155 0
M  V30 1257 O 130.213 1.93445 0.171048 0
M  V30 1258 C 127.343 3.47124 -0.110448 0
M  V30 1259 C 126.297 4.14926 -1.04979 0
M  V30 1260 C 125.623 5.33807 -0.308924 0
M  V30 1261 C 126.923 4.64762 -2.38314 0
M  V30 1262 H 128.617 2.5258 -1.6076 0
M  V30 1263 H 126.163 1.21404 -0.77441 0
M  V30 1264 H 128.116 4.21124 0.152482 0
M  V30 1265 H 126.84 3.16187 0.81812 0
M  V30 1266 H 125.499 3.42866 -1.29764 0
M  V30 1267 H 125.147 4.99126 0.623084 0
M  V30 1268 H 124.847 5.80113 -0.935036 0
M  V30 1269 H 126.371 6.10576 -0.0537771 0
M  V30 1270 H 127.785 5.30292 -2.1786 0
M  V30 1271 H 126.182 5.21728 -2.96514 0
M  V30 1272 H 127.252 3.80434 -3.00663 0
M  V30 1273 N 128.595 0.856903 1.32268 0
M  V30 1274 C 129.825 0.47475 2.01071 0
M  V30 1275 C 130.233 -0.933746 1.64553 0
M  V30 1276 O 129.576 -1.62114 0.863989 0
M  V30 1277 C 129.638 0.536746 3.55471 0
M  V30 1278 C 129.302 1.90453 4.15423 0
M  V30 1279 C 130.299 2.87029 4.33486 0
M  V30 1280 C 127.984 2.20229 4.51447 0
M  V30 1281 C 129.978 4.11532 4.86744 0
M  V30 1282 C 127.665 3.44984 5.0441 0
M  V30 1283 C 128.663 4.40452 5.22007 0
M  V30 1284 O 128.351 5.62998 5.73837 0
M  V30 1285 H 128.083 0.184778 0.650256 0
M  V30 1286 H 130.637 1.15615 1.69771 0
M  V30 1287 H 128.867 -0.20152 3.86175 0
M  V30 1288 H 130.556 0.169875 4.05544 0
M  V30 1289 H 131.322 2.6533 4.05986 0
M  V30 1290 H 127.201 1.46705 4.37034 0
M  V30 1291 H 130.745 4.86056 5.00395 0
M  V30 1292 H 126.642 3.66532 5.31342 0
M  V30 1293 H 127.41 5.64987 5.92226 0
M  V30 1294 N 130.073 -1.45103 0.615059 0
M  V30 1295 C 131.319 -2.02483 0.113347 0
M  V30 1296 C 131.652 -1.48146 -1.25564 0
M  V30 1297 O 130.927 -0.659104 -1.82992 0
M  V30 1298 C 131.21 -3.60005 0.0825278 0
M  V30 1299 C 131.063 -4.2466 1.48271 0
M  V30 1300 C 132.382 -4.35972 -0.601401 0
M  V30 1301 H 129.501 -0.735764 0.0426632 0
M  V30 1302 H 132.143 -1.72868 0.788461 0
M  V30 1303 H 130.293 -3.85367 -0.492378 0
M  V30 1304 H 131.965 -4.10458 2.10527 0
M  V30 1305 H 130.208 -3.82772 2.04127 0
M  V30 1306 H 130.879 -5.336 1.41332 0
M  V30 1307 H 133.355 -4.15947 -0.112666 0
M  V30 1308 H 132.231 -5.45697 -0.592097 0
M  V30 1309 H 132.492 -4.09391 -1.66887 0
M  V30 1310 N 131.551 -0.354651 -1.53558 0
M  V30 1311 C 132.798 0.238443 -2.01091 0
M  V30 1312 C 133.126 1.49663 -1.24222 0
M  V30 1313 O 132.381 1.93049 -0.321003 0
M  V30 1314 C 132.68 0.587121 -3.52545 0
M  V30 1315 C 132.346 -0.575472 -4.47213 0
M  V30 1316 C 131.008 -0.894497 -4.72813 0
M  V30 1317 C 133.36 -1.35489 -5.03281 0
M  V30 1318 C 130.688 -1.99511 -5.51736 0
M  V30 1319 C 133.04 -2.44583 -5.83405 0
M  V30 1320 C 131.704 -2.77033 -6.07296 0
M  V30 1321 H 130.974 0.0872526 -0.735845 0
M  V30 1322 H 133.621 -0.484859 -1.8526 0
M  V30 1323 H 131.926 1.39129 -3.66265 0
M  V30 1324 H 133.623 1.05809 -3.86789 0
M  V30 1325 H 130.213 -0.316774 -4.27428 0
M  V30 1326 H 134.397 -1.12167 -4.83459 0
M  V30 1327 H 129.653 -2.25063 -5.68469 0
M  V30 1328 H 133.827 -3.05401 -6.25862 0
M  V30 1329 H 131.454 -3.6244 -6.68237 0
M  V30 1330 N 133.029 1.57378 -0.0835403 0
M  V30 1331 C 134.275 1.94217 0.583733 0
M  V30 1332 C 134.608 0.964653 1.68547 0
M  V30 1333 O 133.883 -0.00422258 1.945 0
M  V30 1334 C 134.166 3.41253 1.14972 0
M  V30 1335 C 134.019 4.49768 0.0538277 0
M  V30 1336 C 135.338 3.89352 2.05166 0
M  V30 1337 H 132.457 0.706233 0.210724 0
M  V30 1338 H 135.099 1.89392 -0.1519 0
M  V30 1339 H 133.249 3.45496 1.77665 0
M  V30 1340 H 134.921 4.57641 -0.579851 0
M  V30 1341 H 133.164 4.29432 -0.614068 0
M  V30 1342 H 133.835 5.49817 0.490452 0
M  V30 1343 H 136.311 3.87189 1.52393 0
M  V30 1344 H 135.187 4.92822 2.41698 0
M  V30 1345 H 135.448 3.27973 2.96456 0
M  V30 1346 N 134.507 -0.190092 1.56449 0
M  V30 1347 C 135.753 -0.911052 1.81184 0
M  V30 1348 C 136.086 -1.82699 0.658396 0
M  V30 1349 O 135.361 -1.91491 -0.340775 0
M  V30 1350 C 135.644 -1.72297 3.16205 0
M  V30 1351 C 135.497 -0.831419 4.42049 0
M  V30 1352 C 136.816 -2.69454 3.47969 0
M  V30 1353 H 133.935 -0.32977 0.659106 0
M  V30 1354 H 136.577 -0.178169 1.89163 0
M  V30 1355 H 134.727 -2.34778 3.09534 0
M  V30 1356 H 136.399 -0.220929 4.60771 0
M  V30 1357 H 134.642 -0.138406 4.33579 0
M  V30 1358 H 135.313 -1.43461 5.33032 0
M  V30 1359 H 137.789 -2.17104 3.54972 0
M  V30 1360 H 136.665 -3.23342 4.43555 0
M  V30 1361 H 136.926 -3.48744 2.71717 0
M  V30 1362 N 135.985 -1.50799 -0.457987 0
M  V30 1363 C 137.401 -1.38515 -0.792819 0
M  V30 1364 C 137.601 -0.451409 -1.96379 0
M  V30 1365 O 136.657 0.10112 -2.52297 0
M  V30 1366 C 137.97 -2.80149 -1.09258 0
M  V30 1367 C 139.518 -2.89156 -1.19825 0
M  V30 1368 C 139.993 -4.31651 -1.53106 0
M  V30 1369 N 141.484 -4.34662 -1.60072 0
M  V30 1370 C 142.219 -5.41928 -1.87354 0
M  V30 1371 N 141.715 -6.59384 -2.12568 0
M  V30 1372 N 143.508 -5.29385 -1.88965 0
M  V30 1373 H 135.659 -2.10073 0.313511 0
M  V30 1374 H 137.922 -0.944803 0.0777862 0
M  V30 1375 H 137.628 -3.50374 -0.305084 0
M  V30 1376 H 137.502 -3.18204 -2.02549 0
M  V30 1377 H 139.889 -2.19141 -1.97639 0
M  V30 1378 H 139.97 -2.54626 -0.244821 0
M  V30 1379 H 139.614 -5.02208 -0.758266 0
M  V30 1380 H 139.544 -4.63678 -2.49621 0
M  V30 1381 H 142.035 -3.49973 -1.42573 0
M  V30 1382 H 142.348 -7.36934 -2.32696 0
M  V30 1383 H 140.693 -6.62535 -2.09933 0
M  V30 1384 H 143.884 -4.36616 -1.68772 0
M  V30 1385 H 144.057 -6.13066 -2.09891 0
M  V30 1386 N 137.463 0.71206 -1.40597 0
M  V30 1387 C 138.703 1.48438 -1.40519 0
M  V30 1388 C 139.067 1.91998 -0.00767611 0
M  V30 1389 O 140.268 2.6854 0.118239 0
M  V30 1390 C 138.539 2.67514 -2.37004 0
M  V30 1391 S 140.098 3.56875 -2.55315 0
M  V30 1392 H 136.916 0.507457 -0.498005 0
M  V30 1393 H 139.518 0.832355 -1.76896 0
M  V30 1394 H 138.222 2.33689 -3.37368 0
M  V30 1395 H 137.753 3.37625 -2.01923 0
M  V30 1396 H 139.768 4.62081 -1.8082 0
M  V30 1397 N 138.941 1.26152 0.944643 0
M  V30 1398 C 140.19 1.10883 1.68487 0
M  V30 1399 C 140.503 -0.348153 1.92477 0
M  V30 1400 O 141.709 -0.621459 2.64292 0
M  V30 1401 C 140.165 1.93624 3.03377 0
M  V30 1402 C 139.773 3.43875 2.87148 0
M  V30 1403 C 141.517 1.86954 3.81115 0
M  V30 1404 C 139.424 4.18875 4.1749 0
M  V30 1405 H 138.354 0.41135 0.631907 0
M  V30 1406 H 141.005 1.50433 1.05082 0
M  V30 1407 H 139.387 1.46904 3.67743 0
M  V30 1408 H 140.561 3.98338 2.31653 0
M  V30 1409 H 138.876 3.51744 2.22856 0
M  V30 1410 H 141.473 2.40275 4.77673 0
M  V30 1411 H 141.816 0.839518 4.07747 0
M  V30 1412 H 142.349 2.31477 3.23517 0
M  V30 1413 H 139.088 5.22332 3.96043 0
M  V30 1414 H 138.608 3.69193 4.72712 0
M  V30 1415 H 140.287 4.27134 4.85968 0
M  V30 1416 N 140.419 -1.14872 1.07899 0
M  V30 1417 C 141.382 -2.17986 0.708161 0
M  V30 1418 C 142.382 -1.58775 -0.25442 0
M  V30 1419 O 143.572 -1.74166 -0.034645 0
M  V30 1420 C 140.704 -3.40871 0.0446929 0
M  V30 1421 H 141.897 -2.52306 1.62116 0
M  V30 1422 H 139.45 -1.2943 0.876218 0
M  V30 1423 H 140.185 -3.12124 -0.880281 0
M  V30 1424 H 139.97 -3.8511 0.737091 0
M  V30 1425 H 141.46 -4.17121 -0.19991 0
M  V30 1426 N 141.898 -0.863906 -1.31812 0
M  V30 1427 C 143.128 -0.485406 -2.00817 0
M  V30 1428 C 143.536 0.925007 -1.65046 0
M  V30 1429 O 142.879 1.61653 -0.872574 0
M  V30 1430 C 142.941 -0.555589 -3.55181 0
M  V30 1431 C 142.605 -1.92654 -4.14407 0
M  V30 1432 C 143.602 -2.89324 -4.31958 0
M  V30 1433 C 141.287 -2.2262 -4.50273 0
M  V30 1434 C 143.281 -4.14108 -4.84555 0
M  V30 1435 C 140.968 -3.47654 -5.02573 0
M  V30 1436 C 141.966 -4.43214 -5.19664 0
M  V30 1437 O 141.654 -5.66033 -5.70843 0
M  V30 1438 H 141.386 -0.188224 -0.649267 0
M  V30 1439 H 143.94 -1.16514 -1.69156 0
M  V30 1440 H 142.17 0.181037 -3.86276 0
M  V30 1441 H 143.859 -0.19138 -4.05449 0
M  V30 1442 H 144.625 -2.6748 -4.04573 0
M  V30 1443 H 140.504 -1.4902 -4.3625 0
M  V30 1444 H 144.048 -4.88703 -4.9781 0
M  V30 1445 H 139.945 -3.69345 -5.29391 0
M  V30 1446 H 140.713 -5.6812 -5.89222 0
M  V30 1447 N 143.376 1.44774 -0.622745 0
M  V30 1448 C 144.787 1.85546 -0.207226 0
M  V30 1449 C 145.138 1.52093 1.23944 0
M  V30 1450 O 144.263 0.95492 1.94191 0
M  V30 1451 C 144.858 3.36781 -0.369313 0
M  V30 1452 C 143.417 3.76399 -0.00836847 0
M  V30 1453 C 142.564 2.68664 -0.686651 0
M  V30 1454 H 145.515 1.3536 -0.828454 0
M  V30 1455 H 145.536 3.78453 0.394162 0
M  V30 1456 H 145.048 3.61098 -1.42231 0
M  V30 1457 H 143.149 3.57698 1.04322 0
M  V30 1458 H 143.262 4.7732 -0.412584 0
M  V30 1459 H 141.626 2.54404 -0.122777 0
M  V30 1460 H 142.409 2.95815 -1.74208 0
M  V30 1461 N 144.854 0.36279 1.53368 0
M  V30 1462 C 146.101 -0.227776 2.01215 0
M  V30 1463 C 146.429 -1.49003 1.25014 0
M  V30 1464 O 145.684 -1.92876 0.331236 0
M  V30 1465 C 145.983 -0.568417 3.52851 0
M  V30 1466 C 145.649 0.59918 4.46901 0
M  V30 1467 C 144.311 0.919559 4.72332 0
M  V30 1468 C 146.663 1.38156 5.02556 0
M  V30 1469 C 143.991 2.02434 5.5067 0
M  V30 1470 C 146.343 2.47674 5.821 0
M  V30 1471 C 145.007 2.8025 6.05819 0
M  V30 1472 H 144.277 -0.083349 0.736297 0
M  V30 1473 H 146.924 0.494677 1.85001 0
M  V30 1474 H 145.229 -1.37185 3.66998 0
M  V30 1475 H 146.926 -1.03756 3.87344 0
M  V30 1476 H 143.516 0.339437 4.27254 0
M  V30 1477 H 147.7 1.14729 4.82857 0
M  V30 1478 H 142.956 2.28075 5.67267 0
M  V30 1479 H 147.13 3.08716 6.24234 0
M  V30 1480 H 144.757 3.65979 6.66306 0
M  V30 1481 N 146.332 -1.57332 0.0918853 0
M  V30 1482 C 147.28 -2.15075 -0.885747 0
M  V30 1483 C 148.274 -1.09277 -1.29441 0
M  V30 1484 O 149.48 -1.27627 -1.26931 0
M  V30 1485 H 145.855 -0.687966 -0.303656 0
M  V30 1486 H 147.826 -2.96047 -0.373995 0
M  V30 1487 C 146.575 -2.74325 -2.13638 0
M  V30 1488 H 145.898 -3.55418 -1.8308 0
M  V30 1489 H 147.338 -3.183 -2.80109 0
M  V30 1490 C 145.797 -1.70062 -2.90827 0
M  V30 1491 O 146.327 -1.13763 -3.85254 0
M  V30 1492 N 144.533 -1.40628 -2.54307 0
M  V30 1493 H 144.08 -1.866 -1.7759 0
M  V30 1494 H 144.038 -0.711043 -3.06254 0
M  V30 1495 N 147.81 0.181792 -1.56548 0
M  V30 1496 C 148.773 1.20894 -1.94724 0
M  V30 1497 C 149.773 1.37738 -0.829747 0
M  V30 1498 O 150.963 1.35323 -1.09697 0
M  V30 1499 C 148.095 2.57593 -2.23291 0
M  V30 1500 H 149.288 0.882275 -2.86629 0
M  V30 1501 H 146.841 0.423838 -1.50444 0
M  V30 1502 H 147.576 2.95291 -1.34067 0
M  V30 1503 H 147.361 2.46735 -3.04736 0
M  V30 1504 H 148.851 3.31637 -2.53785 0
M  V30 1505 N 149.288 1.51039 0.449983 0
M  V30 1506 C 150.235 1.71439 1.54523 0
M  V30 1507 C 151.205 0.555871 1.56522 0
M  V30 1508 O 152.39 0.788871 1.73728 0
M  V30 1509 C 149.53 1.83384 2.92343 0
M  V30 1510 C 148.643 3.10873 2.9997 0
M  V30 1511 C 147.778 3.13488 4.28834 0
M  V30 1512 C 146.817 4.35343 4.30282 0
M  V30 1513 N 145.954 4.35579 5.5065 0
M  V30 1514 H 150.794 2.64934 1.36433 0
M  V30 1515 H 148.331 1.31312 0.662982 0
M  V30 1516 H 150.289 1.88291 3.72293 0
M  V30 1517 H 148.919 0.933086 3.0902 0
M  V30 1518 H 147.971 3.15336 2.12761 0
M  V30 1519 H 149.283 4.00814 2.96901 0
M  V30 1520 H 148.437 3.17241 5.17149 0
M  V30 1521 H 147.176 2.21414 4.34543 0
M  V30 1522 H 146.181 4.3178 3.40362 0
M  V30 1523 H 147.406 5.28668 4.26248 0
M  V30 1524 H 145.352 3.46369 5.57104 0
M  V30 1525 H 145.269 5.19313 5.49409 0
M  V30 1526 H 146.537 4.43507 6.41032 0
M  V30 1527 N 150.766 -0.704594 1.40972 0
M  V30 1528 C 151.698 -1.82974 1.38033 0
M  V30 1529 C 152.711 -1.60305 0.283931 0
M  V30 1530 O 153.9 -1.69975 0.545042 0
M  V30 1531 C 151 -3.19578 1.12795 0
M  V30 1532 C 150.173 -3.69352 2.34302 0
M  V30 1533 C 149.232 -4.84601 2.05058 0
M  V30 1534 O 148.258 -4.96682 2.7802 0
M  V30 1535 N 149.46 -5.71194 1.03528 0
M  V30 1536 H 152.225 -1.85991 2.35005 0
M  V30 1537 H 149.786 -0.886567 1.35468 0
M  V30 1538 H 151.778 -3.9429 0.911987 0
M  V30 1539 H 150.348 -3.11642 0.24452 0
M  V30 1540 H 149.568 -2.85649 2.71659 0
M  V30 1541 H 150.856 -3.99345 3.1528 0
M  V30 1542 H 150.254 -5.64054 0.431217 0
M  V30 1543 H 148.811 -6.45843 0.879205 0
M  V30 1544 N 152.244 -1.26651 -0.937939 0
M  V30 1545 C 153.655 -1.1125 -1.49934 0
M  V30 1546 C 154.006 0.306077 -1.93798 0
M  V30 1547 O 153.131 1.19792 -1.80219 0
M  V30 1548 C 153.726 -2.01339 -2.72485 0
M  V30 1549 C 152.285 -1.90074 -3.24883 0
M  V30 1550 C 151.432 -1.94498 -1.97651 0
M  V30 1551 H 154.383 -1.39693 -0.753091 0
M  V30 1552 H 154.404 -1.56319 -3.46907 0
M  V30 1553 H 153.916 -3.04577 -2.40529 0
M  V30 1554 H 152.017 -0.897827 -3.61621 0
M  V30 1555 H 152.13 -2.75778 -3.9177 0
M  V30 1556 H 150.494 -1.38591 -2.13693 0
M  V30 1557 H 151.277 -2.99372 -1.68022 0
M  V30 1558 N 153.722 1.14298 -1.08507 0
M  V30 1559 C 154.95 1.89219 -0.836876 0
M  V30 1560 C 155.365 1.78638 0.611054 0
M  V30 1561 O 154.722 1.14643 1.41998 0
M  V30 1562 C 154.773 3.39158 -1.25116 0
M  V30 1563 O 154.494 3.49449 -2.64229 0
M  V30 1564 C 155.995 4.31073 -1.03398 0
M  V30 1565 H 153.215 0.599328 -0.301739 0
M  V30 1566 H 155.759 1.44746 -1.44461 0
M  V30 1567 H 153.914 3.81251 -0.687514 0
M  V30 1568 H 154.328 4.42589 -2.81452 0
M  V30 1569 H 155.802 5.34646 -1.37323 0
M  V30 1570 H 156.279 4.3919 0.0289259 0
M  V30 1571 H 156.885 3.94738 -1.58311 0
M  V30 1572 N 155.201 0.870884 1.31352 0
M  V30 1573 C 156.478 0.402907 1.91405 0
M  V30 1574 C 156.858 -1.11512 1.79244 0
M  V30 1575 O 156.206 -1.94411 1.2007 0
M  V30 1576 C 156.416 0.885301 3.37585 0
M  V30 1577 C 157.764 0.911971 4.14691 0
M  V30 1578 O 158.788 0.831016 3.46371 0
M  V30 1579 O 157.647 1.02927 5.3672 0
M  V30 1580 H 154.741 0.120698 0.818145 0
M  V30 1581 H 157.287 0.958857 1.40014 0
M  V30 1582 H 156.059 1.92889 3.40455 0
M  V30 1583 H 155.682 0.307714 3.96407 0
M  V30 1584 N 156.679 -1.44442 0.630414 0
M  V30 1585 C 157.612 -2.27862 -0.124247 0
M  V30 1586 C 158.59 -1.38495 -0.851931 0
M  V30 1587 O 159.774 -1.67935 -0.856166 0
M  V30 1588 C 156.901 -3.17407 -1.18197 0
M  V30 1589 C 155.947 -4.22875 -0.554892 0
M  V30 1590 S 156.78 -5.31485 0.654489 0
M  V30 1591 C 157.936 -6.246 -0.40326 0
M  V30 1592 H 158.169 -2.91519 0.583435 0
M  V30 1593 H 155.702 -1.48618 0.418565 0
M  V30 1594 H 157.66 -3.69549 -1.78728 0
M  V30 1595 H 156.321 -2.52971 -1.86184 0
M  V30 1596 H 155.514 -4.85542 -1.35148 0
M  V30 1597 H 155.116 -3.73992 -0.0242105 0
M  V30 1598 H 157.408 -6.65375 -1.27602 0
M  V30 1599 H 158.351 -7.07851 0.187813 0
M  V30 1600 H 158.759 -5.59775 -0.728837 0
M  V30 1601 N 158.157 -0.370918 -1.53173 0
M  V30 1602 C 159.12 0.460778 -2.24521 0
M  V30 1603 C 160.12 1.00536 -1.25496 0
M  V30 1604 O 161.31 0.890266 -1.49733 0
M  V30 1605 C 158.442 1.64457 -2.98608 0
M  V30 1606 H 159.635 -0.163613 -2.99453 0
M  V30 1607 H 157.188 -0.122699 -1.55818 0
M  V30 1608 H 157.923 2.30691 -2.2793 0
M  V30 1609 H 157.708 1.26099 -3.7127 0
M  V30 1610 H 159.198 2.23384 -3.5283 0
M  V30 1611 N 159.635 1.57281 -0.100228 0
M  V30 1612 C 161.051 1.57527 0.256416 0
M  V30 1613 C 161.251 1.11173 1.68056 0
M  V30 1614 O 160.307 0.79053 2.39806 0
M  V30 1615 C 161.62 3.00673 0.0401747 0
M  V30 1616 C 163.168 3.12815 0.107528 0
M  V30 1617 C 163.643 4.57929 -0.0807834 0
M  V30 1618 N 165.134 4.63193 -0.0261207 0
M  V30 1619 C 165.869 5.73212 -0.146999 0
M  V30 1620 N 165.365 6.92047 -0.322999 0
M  V30 1621 N 167.158 5.62031 -0.0879044 0
M  V30 1622 H 159.309 1.85718 -1.03065 0
M  V30 1623 H 161.572 0.857446 -0.404339 0
M  V30 1624 H 161.278 3.38804 -0.943649 0
M  V30 1625 H 161.152 3.69042 0.780262 0
M  V30 1626 H 163.539 2.74554 1.08186 0
M  V30 1627 H 163.62 2.47028 -0.664134 0
M  V30 1628 H 163.264 4.96886 -1.05201 0
M  V30 1629 H 163.194 5.21783 0.710635 0
M  V30 1630 H 165.685 3.77748 0.107161 0
M  V30 1631 H 165.998 7.7173 -0.406608 0
M  V30 1632 H 164.343 6.94074 -0.358733 0
M  V30 1633 H 167.534 4.68075 0.048498 0
M  V30 1634 H 167.707 6.47734 -0.185557 0
M  V30 1635 N 161.113 -0.173488 1.56642 0
M  V30 1636 C 162.529 -0.525174 1.50712 0
M  V30 1637 C 162.729 -1.8476 0.804107 0
M  V30 1638 O 161.785 -2.49869 0.363574 0
M  V30 1639 C 163.098 -0.559937 2.95441 0
M  V30 1640 C 164.646 -0.647288 3.06234 0
M  V30 1641 C 165.121 -0.712963 4.52417 0
M  V30 1642 N 166.612 -0.775911 4.56655 0
M  V30 1643 C 167.347 -0.847264 5.67106 0
M  V30 1644 N 166.843 -0.879585 6.87194 0
M  V30 1645 N 168.636 -0.886117 5.55071 0
M  V30 1646 H 160.787 0.693681 2.00753 0
M  V30 1647 H 163.05 0.249841 0.914485 0
M  V30 1648 H 162.756 0.343049 3.50023 0
M  V30 1649 H 162.63 -1.40718 3.49969 0
M  V30 1650 H 165.017 -1.5407 2.51687 0
M  V30 1651 H 165.098 0.226586 2.54794 0
M  V30 1652 H 164.742 0.176183 5.07594 0
M  V30 1653 H 164.672 -1.60295 5.0161 0
M  V30 1654 H 167.163 -0.759304 3.70193 0
M  V30 1655 H 167.476 -0.935144 7.67121 0
M  V30 1656 H 165.821 -0.847898 6.89808 0
M  V30 1657 H 169.012 -0.857853 4.60172 0
M  V30 1658 H 169.185 -0.938263 6.41171 0
M  V30 1659 N 162.591 -1.51276 -0.441967 0
M  V30 1660 C 163.523 -1.68444 -1.55433 0
M  V30 1661 C 164.536 -0.565187 -1.52674 0
M  V30 1662 O 165.725 -0.839356 -1.57534 0
M  V30 1663 C 162.825 -1.67966 -2.94348 0
M  V30 1664 C 161.998 -2.964 -3.21661 0
M  V30 1665 C 161.057 -2.88171 -4.40277 0
M  V30 1666 O 160.083 -3.62119 -4.39157 0
M  V30 1667 N 161.285 -2.03706 -5.43584 0
M  V30 1668 H 164.05 -2.644 -1.41112 0
M  V30 1669 H 161.611 -1.49104 -0.630838 0
M  V30 1670 H 163.603 -1.60035 -3.71713 0
M  V30 1671 H 162.173 -0.796225 -3.0229 0
M  V30 1672 H 161.393 -3.18234 -2.32638 0
M  V30 1673 H 162.681 -3.81427 -3.36736 0
M  V30 1674 H 162.079 -1.42995 -5.47329 0
M  V30 1675 H 160.636 -2.01658 -6.1982 0
M  V30 1676 N 164.069 0.697108 -1.41344 0
M  V30 1677 C 165.001 1.8224 -1.39001 0
M  V30 1678 C 166.014 1.60152 -0.292428 0
M  V30 1679 O 167.203 1.69684 -0.554048 0
M  V30 1680 C 164.303 3.18976 -1.14489 0
M  V30 1681 C 163.476 3.68105 -2.36258 0
M  V30 1682 C 162.535 4.83506 -2.07625 0
M  V30 1683 O 161.561 4.95201 -2.8065 0
M  V30 1684 N 162.763 5.70637 -1.06555 0
M  V30 1685 H 165.528 1.84742 -2.35988 0
M  V30 1686 H 163.089 0.87937 -1.35936 0
M  V30 1687 H 165.081 3.93801 -0.932885 0
M  V30 1688 H 163.651 3.11508 -0.261043 0
M  V30 1689 H 162.871 2.84204 -2.7317 0
M  V30 1690 H 164.159 3.97667 -3.17393 0
M  V30 1691 H 163.557 5.63817 -0.461125 0
M  V30 1692 H 162.114 6.45368 -0.913444 0
M  V30 1693 N 165.547 1.27147 0.931209 0
M  V30 1694 C 166.494 1.09568 2.03134 0
M  V30 1695 C 167.464 -0.00222433 1.661 0
M  V30 1696 O 168.649 0.159439 1.90133 0
M  V30 1697 C 165.789 0.745231 3.36957 0
M  V30 1698 C 164.902 1.92041 3.86968 0
M  V30 1699 C 164.037 1.51216 5.09222 0
M  V30 1700 C 163.076 2.65504 5.5152 0
M  V30 1701 N 162.213 2.25291 6.64972 0
M  V30 1702 H 167.053 2.03708 2.17502 0
M  V30 1703 H 164.59 1.01411 1.06556 0
M  V30 1704 H 166.548 0.522878 4.1391 0
M  V30 1705 H 165.178 -0.159202 3.22407 0
M  V30 1706 H 164.23 2.25541 3.06326 0
M  V30 1707 H 165.542 2.77787 4.1429 0
M  V30 1708 H 164.696 1.25084 5.93666 0
M  V30 1709 H 163.435 0.625749 4.83669 0
M  V30 1710 H 162.44 2.92354 4.65628 0
M  V30 1711 H 163.665 3.54761 5.7907 0
M  V30 1712 H 161.611 1.39098 6.41083 0
M  V30 1713 H 161.528 3.04577 6.91931 0
M  V30 1714 H 162.796 2.02398 7.52765 0
M  V30 1715 N 167.025 -1.13721 1.09112 0
M  V30 1716 C 167.955 -2.21148 0.749385 0
M  V30 1717 C 168.936 -1.6792 -0.271475 0
M  V30 1718 O 170.121 -1.93693 -0.140251 0
M  V30 1719 C 167.251 -3.46905 0.165659 0
M  V30 1720 C 166.205 -4.13203 1.11567 0
M  V30 1721 C 165.531 -5.33248 0.393809 0
M  V30 1722 C 166.831 -4.60912 2.45678 0
M  V30 1723 H 168.525 -2.4999 1.64758 0
M  V30 1724 H 166.071 -1.20156 0.793626 0
M  V30 1725 H 168.024 -4.21313 -0.085466 0
M  V30 1726 H 166.748 -3.17449 -0.767714 0
M  V30 1727 H 165.407 -3.40758 1.35202 0
M  V30 1728 H 165.055 -5.00054 -0.543599 0
M  V30 1729 H 164.755 -5.78552 1.02721 0
M  V30 1730 H 166.279 -6.10413 0.150908 0
M  V30 1731 H 167.693 -5.26759 2.26269 0
M  V30 1732 H 166.09 -5.16944 3.04776 0
M  V30 1733 H 167.16 -3.75603 3.06677 0
M  V30 1734 N 168.503 -0.877838 -1.30888 0
M  V30 1735 C 169.451 -0.328662 -2.30266 0
M  V30 1736 C 170.445 0.560496 -1.59859 0
M  V30 1737 O 171.651 0.445722 -1.74394 0
M  V30 1738 H 168.026 -0.0876142 -0.746879 0
M  V30 1739 H 169.997 -1.18061 -2.74051 0
M  V30 1740 C 168.746 0.448071 -3.44801 0
M  V30 1741 H 168.069 -0.226859 -3.99156 0
M  V30 1742 H 169.509 0.797541 -4.16432 0
M  V30 1743 C 167.968 1.64239 -2.94155 0
M  V30 1744 O 168.498 2.74175 -2.93583 0
M  V30 1745 N 166.704 1.47716 -2.50256 0
M  V30 1746 H 166.251 0.582821 -2.5092 0
M  V30 1747 H 166.209 2.27765 -2.16727 0
M  V30 1748 N 169.982 1.44106 -0.638065 0
M  V30 1749 C 170.929 2.30715 0.062701 0
M  V30 1750 C 171.899 1.43882 0.829883 0
M  V30 1751 O 173.084 1.72775 0.809532 0
M  V30 1752 C 170.224 3.29258 1.03358 0
M  V30 1753 C 169.337 4.31192 0.26409 0
M  V30 1754 C 168.472 5.16825 1.22741 0
M  V30 1755 C 167.511 6.10462 0.447475 0
M  V30 1756 N 166.648 6.8877 1.36161 0
M  V30 1757 H 171.488 2.90096 -0.681781 0
M  V30 1758 H 169.025 1.42925 -0.347988 0
M  V30 1759 H 170.983 3.84886 1.60992 0
M  V30 1760 H 169.613 2.71562 1.74511 0
M  V30 1761 H 168.665 3.77981 -0.428295 0
M  V30 1762 H 169.977 4.97619 -0.343052 0
M  V30 1763 H 169.131 5.77004 1.87487 0
M  V30 1764 H 167.87 4.50488 1.86847 0
M  V30 1765 H 166.875 5.49386 -0.213433 0
M  V30 1766 H 168.1 6.78837 -0.188968 0
M  V30 1767 H 166.046 6.25096 1.98975 0
M  V30 1768 H 165.963 7.51663 0.808656 0
M  V30 1769 H 167.231 7.53467 1.99769 0
M  V30 1770 N 171.46 0.379036 1.52974 0
M  V30 1771 C 172.392 -0.495963 2.2377 0
M  V30 1772 C 173.405 -1.03517 1.25651 0
M  V30 1773 O 174.594 -0.939249 1.51791 0
M  V30 1774 C 171.694 -1.69894 2.93239 0
M  V30 1775 C 170.867 -1.2889 4.17979 0
M  V30 1776 C 169.926 -2.35543 4.70538 0
M  V30 1777 O 168.952 -1.97375 5.33883 0
M  V30 1778 N 170.154 -3.67318 4.49508 0
M  V30 1779 H 172.919 0.110523 2.99496 0
M  V30 1780 H 170.48 0.204878 1.60598 0
M  V30 1781 H 172.472 -2.40747 3.25304 0
M  V30 1782 H 171.042 -2.212 2.20883 0
M  V30 1783 H 170.262 -0.409676 3.92065 0
M  V30 1784 H 171.55 -0.991443 4.99047 0
M  V30 1785 H 170.948 -4.01095 3.98923 0
M  V30 1786 H 169.505 -4.34235 4.8609 0
M  V30 1787 N 172.938 -1.57226 0.108567 0
M  V30 1788 C 173.87 -2.11809 -0.875752 0
M  V30 1789 C 174.883 -1.05839 -1.23701 0
M  V30 1790 O 176.072 -1.33245 -1.18778 0
M  V30 1791 C 173.172 -2.59411 -2.18081 0
M  V30 1792 C 172.345 -3.89364 -1.99284 0
M  V30 1793 C 171.404 -4.22672 -3.13424 0
M  V30 1794 O 170.43 -4.91668 -2.86795 0
M  V30 1795 N 171.632 -3.79154 -4.3957 0
M  V30 1796 H 174.397 -2.9689 -0.409477 0
M  V30 1797 H 171.958 -1.61721 -0.076158 0
M  V30 1798 H 173.95 -2.7873 -2.93414 0
M  V30 1799 H 172.52 -1.79268 -2.5609 0
M  V30 1800 H 171.74 -3.79059 -1.08203 0
M  V30 1801 H 173.028 -4.74358 -1.84017 0
M  V30 1802 H 172.426 -3.23486 -4.64083 0
M  V30 1803 H 170.983 -4.03602 -5.11809 0
M  V30 1804 N 174.416 0.165178 -1.56732 0
M  V30 1805 C 175.346 1.20651 -1.99914 0
M  V30 1806 C 176.327 1.45827 -0.875705 0
M  V30 1807 O 177.512 1.57057 -1.14223 0
M  V30 1808 C 174.642 2.54401 -2.36427 0
M  V30 1809 C 173.596 2.43782 -3.51787 0
M  V30 1810 C 172.922 3.82078 -3.7406 0
M  V30 1811 C 174.222 1.93732 -4.85041 0
M  V30 1812 H 175.916 0.847534 -2.87154 0
M  V30 1813 H 173.462 0.40625 -1.38151 0
M  V30 1814 H 175.415 3.27458 -2.65234 0
M  V30 1815 H 174.139 2.92098 -1.46103 0
M  V30 1816 H 172.798 1.73178 -3.23117 0
M  V30 1817 H 172.446 4.17179 -2.81017 0
M  V30 1818 H 172.146 3.7584 -4.51684 0
M  V30 1819 H 173.67 4.56712 -4.05274 0
M  V30 1820 H 175.084 2.56569 -5.12684 0
M  V30 1821 H 173.481 1.98428 -5.66345 0
M  V30 1822 H 174.551 0.891962 -4.76626 0
M  V30 1823 N 175.894 1.51508 0.433938 0
M  V30 1824 C 176.826 1.69266 1.54537 0
M  V30 1825 C 177.839 0.573276 1.52373 0
M  V30 1826 O 179.028 0.847698 1.57087 0
M  V30 1827 C 176.128 1.69524 2.93453 0
M  V30 1828 C 175.301 2.98101 3.20085 0
M  V30 1829 C 174.36 2.90502 4.38742 0
M  V30 1830 O 173.386 3.64442 4.3723 0
M  V30 1831 N 174.588 2.06586 5.42496 0
M  V30 1832 H 177.353 2.65145 1.39708 0
M  V30 1833 H 174.914 1.49437 0.622922 0
M  V30 1834 H 176.906 1.62004 3.70859 0
M  V30 1835 H 175.476 0.812245 3.01863 0
M  V30 1836 H 174.696 3.19464 2.30947 0
M  V30 1837 H 175.984 3.83207 3.34708 0
M  V30 1838 H 175.382 1.45896 5.46563 0
M  V30 1839 H 173.939 2.04943 6.18742 0
M  V30 1840 N 177.372 -0.689602 1.41712 0
M  V30 1841 C 178.302 -1.81577 1.46806 0
M  V30 1842 C 179.283 -1.66945 0.326105 0
M  V30 1843 O 180.468 -1.86588 0.538377 0
M  V30 1844 C 177.598 -3.19762 1.35535 0
M  V30 1845 C 176.552 -3.49107 2.47605 0
M  V30 1846 C 175.878 -4.86711 2.21397 0
M  V30 1847 C 177.178 -3.47483 3.89939 0
M  V30 1848 H 178.872 -1.7757 2.41058 0
M  V30 1849 H 176.418 -0.852887 1.16025 0
M  V30 1850 H 178.371 -3.98263 1.3771 0
M  V30 1851 H 177.095 -3.24409 0.377708 0
M  V30 1852 H 175.754 -2.72959 2.44722 0
M  V30 1853 H 175.402 -4.8799 1.21961 0
M  V30 1854 H 175.102 -5.0731 2.96497 0
M  V30 1855 H 176.626 -5.67515 2.25297 0
M  V30 1856 H 178.04 -4.1598 3.94505 0
M  V30 1857 H 176.437 -3.79615 4.64771 0
M  V30 1858 H 177.507 -2.46341 4.17665 0
M  V30 1859 N 178.85 -1.27639 -0.924453 0
M  V30 1860 C 179.78 -1.13166 -2.04244 0
M  V30 1861 C 180.761 -0.032256 -1.70069 0
M  V30 1862 O 181.946 -0.207328 -1.9309 0
M  V30 1863 C 179.076 -0.781496 -3.38393 0
M  V30 1864 C 178.03 -1.83449 -3.86692 0
M  V30 1865 C 177.356 -1.33822 -5.17683 0
M  V30 1866 C 178.656 -3.23917 -4.09726 0
M  V30 1867 H 180.35 -2.06689 -2.1661 0
M  V30 1868 H 177.896 -0.995136 -1.04082 0
M  V30 1869 H 179.849 -0.667057 -4.16087 0
M  V30 1870 H 178.573 0.189439 -3.2605 0
M  V30 1871 H 177.232 -1.93789 -3.11193 0
M  V30 1872 H 176.88 -0.35665 -5.01734 0
M  V30 1873 H 176.58 -2.04224 -5.50968 0
M  V30 1874 H 178.104 -1.23679 -5.97943 0
M  V30 1875 H 179.518 -3.16559 -4.77978 0
M  V30 1876 H 177.915 -3.92059 -4.54324 0
M  V30 1877 H 178.985 -3.68729 -3.14908 0
M  V30 1878 N 180.328 1.1314 -1.09713 0
M  V30 1879 C 181.275 2.18642 -0.739196 0
M  V30 1880 C 182.245 1.63706 0.280978 0
M  V30 1881 O 183.43 1.90111 0.161946 0
M  V30 1882 C 180.57 3.44685 -0.169102 0
M  V30 1883 C 179.683 4.13711 -1.24367 0
M  V30 1884 C 178.818 5.27379 -0.636019 0
M  V30 1885 C 177.857 5.88259 -1.69169 0
M  V30 1886 N 176.994 6.93352 -1.10485 0
M  V30 1887 H 181.834 2.48607 -1.64312 0
M  V30 1888 H 179.371 1.22066 -0.820875 0
M  V30 1889 H 181.329 4.16815 0.179256 0
M  V30 1890 H 179.959 3.15161 0.698079 0
M  V30 1891 H 179.011 3.39835 -1.70927 0
M  V30 1892 H 180.323 4.55037 -2.04311 0
M  V30 1893 H 179.477 6.06238 -0.236677 0
M  V30 1894 H 178.216 4.8731 0.194928 0
M  V30 1895 H 177.221 5.08092 -2.10055 0
M  V30 1896 H 178.446 6.30399 -2.52536 0
M  V30 1897 H 176.392 6.55335 -0.295234 0
M  V30 1898 H 176.309 7.33236 -1.84121 0
M  V30 1899 H 177.577 7.76057 -0.73181 0
M  V30 1900 N 181.806 0.884767 1.30421 0
M  V30 1901 C 182.716 0.355398 2.31892 0
M  V30 1902 C 183.732 -0.542261 1.65335 0
M  V30 1903 O 184.908 -0.435432 1.96637 0
M  V30 1904 C 181.973 -0.421661 3.44126 0
M  V30 1905 C 181.034 0.505727 4.26311 0
M  V30 1906 C 180.267 -0.234343 5.33185 0
M  V30 1907 O 180.49 -1.46045 5.51386 0
M  V30 1908 O 179.424 0.415443 6.00465 0
M  V30 1909 H 183.25 1.19685 2.79122 0
M  V30 1910 H 180.835 0.648596 1.34587 0
M  V30 1911 H 182.717 -0.861641 4.12497 0
M  V30 1912 H 181.392 -1.23942 2.99032 0
M  V30 1913 H 180.299 0.994513 3.60639 0
M  V30 1914 H 181.632 1.28948 4.75009 0
M  V30 1915 N 183.284 -1.43765 0.645699 0
M  V30 1916 C 184.7 -1.56509 0.312591 0
M  V30 1917 C 184.9 -1.6307 -1.18365 0
M  V30 1918 O 183.956 -1.58167 -1.96824 0
M  V30 1919 C 185.269 -2.82968 1.01733 0
M  V30 1920 C 186.817 -2.96701 0.996865 0
M  V30 1921 C 187.292 -4.25982 1.68236 0
M  V30 1922 N 188.783 -4.32829 1.64964 0
M  V30 1923 C 189.518 -5.31613 2.14885 0
M  V30 1924 N 189.014 -6.36718 2.73061 0
M  V30 1925 N 190.807 -5.23217 2.05428 0
M  V30 1926 H 182.958 -1.3775 1.61675 0
M  V30 1927 H 185.221 -0.661067 0.679481 0
M  V30 1928 H 184.927 -2.84156 2.0724 0
M  V30 1929 H 184.801 -3.72957 0.564177 0
M  V30 1930 H 187.188 -2.95058 -0.0497719 0
M  V30 1931 H 187.269 -2.08022 1.48865 0
M  V30 1932 H 186.913 -4.28386 2.72852 0
M  V30 1933 H 186.843 -5.13545 1.16529 0
M  V30 1934 H 189.334 -3.57493 1.22503 0
M  V30 1935 H 189.647 -7.08401 3.08848 0
M  V30 1936 H 187.992 -6.37362 2.77118 0
M  V30 1937 H 191.183 -4.40019 1.59689 0
M  V30 1938 H 191.356 -6.00045 2.44643 0
M  V30 1939 N 184.763 -0.387143 -1.52771 0
M  V30 1940 C 186.01 0.195735 -2.01552 0
M  V30 1941 C 186.338 1.46995 -1.27369 0
M  V30 1942 O 185.593 1.92325 -0.361879 0
M  V30 1943 C 185.892 0.512209 -3.53711 0
M  V30 1944 C 185.558 -0.670202 -4.45891 0
M  V30 1945 C 184.22 -0.994586 -4.70809 0
M  V30 1946 C 186.572 -1.46134 -5.00294 0
M  V30 1947 C 183.9 -2.11169 -5.4738 0
M  V30 1948 C 186.252 -2.56903 -5.78086 0
M  V30 1949 C 184.916 -2.89852 -6.01284 0
M  V30 1950 H 184.186 0.0716246 -0.73753 0
M  V30 1951 H 186.833 -0.524046 -1.8419 0
M  V30 1952 H 185.138 1.31329 -3.69134 0
M  V30 1953 H 186.835 0.975804 -3.88946 0
M  V30 1954 H 183.425 -0.407366 -4.2666 0
M  V30 1955 H 187.609 -1.22397 -4.80971 0
M  V30 1956 H 182.865 -2.3707 -5.63567 0
M  V30 1957 H 187.039 -3.18608 -6.19243 0
M  V30 1958 H 184.666 -3.76533 -6.60399 0
M  V30 1959 N 186.241 1.57166 -0.116904 0
M  V30 1960 C 187.173 2.12271 0.864507 0
M  V30 1961 C 188.186 1.06494 1.23138 0
M  V30 1962 O 189.375 1.33873 1.18069 0
M  V30 1963 C 186.475 2.60564 2.16702 0
M  V30 1964 C 185.648 3.90416 1.97216 0
M  V30 1965 C 184.707 4.24329 3.11178 0
M  V30 1966 O 183.733 4.93182 2.84184 0
M  V30 1967 N 184.935 3.8148 4.37554 0
M  V30 1968 H 187.7 2.97102 0.393726 0
M  V30 1969 H 185.261 1.61759 0.0675805 0
M  V30 1970 H 187.253 2.80282 2.91932 0
M  V30 1971 H 185.823 1.80623 2.55135 0
M  V30 1972 H 185.043 3.79627 1.06192 0
M  V30 1973 H 186.331 4.75327 1.81499 0
M  V30 1974 H 185.729 3.25943 4.62361 0
M  V30 1975 H 184.286 4.06311 5.09661 0
M  V30 1976 N 187.719 -0.156864 1.56817 0
M  V30 1977 C 188.682 -1.17781 1.96622 0
M  V30 1978 C 189.682 -1.36401 0.851555 0
M  V30 1979 O 190.872 -1.33561 1.11836 0
M  V30 1980 C 188.004 -2.54008 2.27361 0
M  V30 1981 H 189.197 -0.836564 2.87996 0
M  V30 1982 H 186.75 -0.39985 1.51099 0
M  V30 1983 H 187.485 -2.9312 1.38748 0
M  V30 1984 H 187.27 -2.41856 3.08623 0
M  V30 1985 H 188.76 -3.27558 2.59029 0
M  V30 1986 N 189.197 -1.51736 -0.425897 0
M  V30 1987 C 190.444 -1.6497 -1.17436 0
M  V30 1988 C 190.772 -0.371445 -1.9092 0
M  V30 1989 O 190.027 0.644963 -1.84767 0
M  V30 1990 C 190.326 -2.81103 -2.20717 0
M  V30 1991 C 189.992 -4.19954 -1.64162 0
M  V30 1992 C 188.654 -4.57725 -1.48462 0
M  V30 1993 C 191.006 -5.06552 -1.22696 0
M  V30 1994 C 188.334 -5.79789 -0.897873 0
M  V30 1995 C 190.686 -6.29205 -0.654464 0
M  V30 1996 C 189.35 -6.6574 -0.484456 0
M  V30 1997 H 188.62 -0.603668 -0.429727 0
M  V30 1998 H 191.267 -1.85798 -0.463829 0
M  V30 1999 H 189.572 -2.54542 -2.97852 0
M  V30 2000 H 191.269 -2.8854 -2.78471 0
M  V30 2001 H 187.859 -3.90181 -1.77361 0
M  V30 2002 H 192.043 -4.77968 -1.33642 0
M  V30 2003 H 187.299 -6.06733 -0.75402 0
M  V30 2004 H 191.473 -6.95643 -0.324694 0
M  V30 2005 H 189.1 -7.60195 -0.0276833 0
M  V30 2006 N 190.675 0.682077 -1.42076 0
M  V30 2007 C 191.605 1.80796 -1.47767 0
M  V30 2008 C 192.586 1.6677 -0.334954 0
M  V30 2009 O 193.771 1.863 -0.548264 0
M  V30 2010 C 190.901 3.19038 -1.37229 0
M  V30 2011 C 189.855 3.47789 -2.49453 0
M  V30 2012 C 189.181 4.8553 -2.23975 0
M  V30 2013 C 190.481 3.45411 -3.91776 0
M  V30 2014 H 192.175 1.7629 -2.41997 0
M  V30 2015 H 189.721 0.846721 -1.16476 0
M  V30 2016 H 191.674 3.97528 -1.39821 0
M  V30 2017 H 190.398 3.24204 -0.394907 0
M  V30 2018 H 189.057 2.71657 -2.46166 0
M  V30 2019 H 188.705 4.87337 -1.24547 0
M  V30 2020 H 188.405 5.0573 -2.99184 0
M  V30 2021 H 189.929 5.66312 -2.28304 0
M  V30 2022 H 191.343 4.13882 -3.96705 0
M  V30 2023 H 189.74 3.77145 -4.66778 0
M  V30 2024 H 190.81 2.44122 -4.18966 0
M  V30 2025 N 192.153 1.28127 0.917671 0
M  V30 2026 C 193.101 1.11569 2.04096 0
M  V30 2027 C 194.095 0.0360242 1.69362 0
M  V30 2028 O 195.301 0.194501 1.78946 0
M  V30 2029 H 191.676 0.344097 0.668656 0
M  V30 2030 H 193.647 2.06711 2.15205 0
M  V30 2031 C 192.396 0.790197 3.38602 0
M  V30 2032 H 191.719 1.61293 3.6582 0
M  V30 2033 H 193.159 0.714271 4.1794 0
M  V30 2034 C 191.618 -0.505897 3.3308 0
M  V30 2035 O 192.148 -1.53736 3.71117 0
M  V30 2036 N 190.354 -0.505193 2.86175 0
M  V30 2037 H 189.901 0.334621 2.55417 0
M  V30 2038 H 189.859 -1.37243 2.82863 0
M  V30 2039 N 193.631 -1.12557 1.10312 0
M  V30 2040 C 194.879 -1.83675 0.843091 0
M  V30 2041 C 195.2 -1.84435 -0.633131 0
M  V30 2042 O 194.47 -1.30657 -1.45964 0
M  V30 2043 H 193.05 -0.680138 0.308904 0
M  V30 2044 H 195.712 -1.36301 1.39313 0
M  V30 2045 H 194.808 -2.87908 1.2048 0
M  V30 2046 N 195.109 -0.891671 -1.2995 0
M  V30 2047 C 196.019 -0.367691 -2.31701 0
M  V30 2048 C 197.035 0.533486 -1.6562 0
M  V30 2049 O 198.211 0.424997 -1.96865 0
M  V30 2050 C 195.276 0.403406 -3.44345 0
M  V30 2051 C 194.337 -0.528328 -4.26037 0
M  V30 2052 C 193.57 0.206063 -5.33302 0
M  V30 2053 O 193.793 1.43119 -5.52153 0
M  V30 2054 O 192.727 -0.447281 -6.00236 0
M  V30 2055 H 196.553 -1.21163 -2.78484 0
M  V30 2056 H 194.138 -0.655725 -1.34241 0
M  V30 2057 H 196.02 0.839753 -4.12948 0
M  V30 2058 H 194.695 1.22354 -2.99685 0
M  V30 2059 H 193.602 -1.01362 -3.60106 0
M  V30 2060 H 194.935 -1.31465 -4.74318 0
M  V30 2061 N 196.587 1.43421 -0.653314 0
M  V30 2062 C 197.815 2.06163 -0.174491 0
M  V30 2063 C 198.23 1.48969 1.1599 0
M  V30 2064 O 197.587 0.621042 1.71608 0
M  V30 2065 C 197.638 3.61417 -0.0774865 0
M  V30 2066 O 197.359 4.16485 -1.35912 0
M  V30 2067 C 198.86 4.41235 0.427402 0
M  V30 2068 H 196.08 0.664946 -0.0899353 0
M  V30 2069 H 198.624 1.83924 -0.893988 0
M  V30 2070 H 196.779 3.82841 0.59257 0
M  V30 2071 H 197.193 5.10153 -1.21839 0
M  V30 2072 H 198.667 5.5021 0.44423 0
M  V30 2073 H 199.144 4.14268 1.45873 0
M  V30 2074 H 199.75 4.2478 -0.210167 0
M  V30 2075 N 198.065 0.39524 1.52563 0
M  V30 2076 C 198.997 -0.472201 2.24283 0
M  V30 2077 C 200.01 -1.02178 1.26742 0
M  V30 2078 O 201.199 -0.923097 1.52778 0
M  V30 2079 C 198.299 -1.66775 2.95024 0
M  V30 2080 C 197.472 -1.2445 4.19322 0
M  V30 2081 C 196.531 -2.30539 4.7301 0
M  V30 2082 O 195.557 -1.91702 5.35947 0
M  V30 2083 N 196.759 -3.6253 4.53379 0
M  V30 2084 H 199.524 0.142282 2.99362 0
M  V30 2085 H 197.085 0.2219 1.60372 0
M  V30 2086 H 199.077 -2.37283 3.27839 0
M  V30 2087 H 197.647 -2.18845 2.23217 0
M  V30 2088 H 196.867 -0.368069 3.92478 0
M  V30 2089 H 198.155 -0.938457 5.0007 0
M  V30 2090 H 197.553 -3.96841 4.03154 0
M  V30 2091 H 196.11 -4.29055 4.90668 0
M  V30 2092 N 199.544 -1.57102 0.125237 0
M  V30 2093 C 200.793 -1.94582 -0.531095 0
M  V30 2094 C 201.106 -1.01126 -1.6743 0
M  V30 2095 O 202.312 -1.28097 -2.39381 0
M  V30 2096 C 200.768 -3.45839 -0.996164 0
M  V30 2097 C 200.376 -4.47842 0.118926 0
M  V30 2098 C 202.12 -3.92227 -1.62352 0
M  V30 2099 C 200.027 -5.90284 -0.363192 0
M  V30 2100 H 198.957 -0.726391 -0.20217 0
M  V30 2101 H 201.608 -1.82339 0.206092 0
M  V30 2102 H 199.99 -3.53338 -1.78796 0
M  V30 2103 H 201.164 -4.52018 0.895358 0
M  V30 2104 H 199.479 -4.11243 0.653324 0
M  V30 2105 H 202.076 -4.96069 -1.99548 0
M  V30 2106 H 202.419 -3.32552 -2.50429 0
M  V30 2107 H 202.952 -3.87554 -0.897019 0
M  V30 2108 H 199.691 -6.53728 0.481679 0
M  V30 2109 H 199.211 -5.89515 -1.10597 0
M  V30 2110 H 200.89 -6.41752 -0.822377 0
M  V30 2111 N 201.022 0.148545 -1.56898 0
M  V30 2112 C 202.268 0.862694 -1.83536 0
M  V30 2113 C 202.601 1.80889 -0.706604 0
M  V30 2114 O 201.876 1.92328 0.289885 0
M  V30 2115 C 202.159 1.63853 -3.20662 0
M  V30 2116 C 202.012 0.713925 -4.44098 0
M  V30 2117 C 203.331 2.60133 -3.54991 0
M  V30 2118 H 200.45 0.312179 -0.667618 0
M  V30 2119 H 203.092 0.127953 -1.89569 0
M  V30 2120 H 201.242 2.26489 -3.1565 0
M  V30 2121 H 202.914 0.098686 -4.61194 0
M  V30 2122 H 201.157 0.0234019 -4.33794 0
M  V30 2123 H 201.828 1.29278 -5.36648 0
M  V30 2124 H 204.304 2.07616 -3.60603 0
M  V30 2125 H 203.18 3.11468 -4.51972 0
M  V30 2126 H 203.441 3.41417 -2.80868 0
M  V30 2127 N 202.5 1.5196 0.417844 0
M  V30 2128 C 203.463 1.74065 1.49111 0
M  V30 2129 C 204.463 0.610537 1.48758 0
M  V30 2130 O 205.653 0.87832 1.50437 0
M  V30 2131 C 202.785 1.81502 2.88565 0
M  V30 2132 H 203.978 2.69869 1.30807 0
M  V30 2133 H 201.531 1.42244 0.647785 0
M  V30 2134 H 202.266 0.875813 3.1225 0
M  V30 2135 H 202.051 2.63651 2.90225 0
M  V30 2136 H 203.541 2.00376 3.66387 0
M  V30 2137 N 203.978 -0.674533 1.42435 0
M  V30 2138 C 205.255 -1.4305 1.33402 0
M  V30 2139 C 205.635 -2.11081 -0.0284674 0
M  V30 2140 O 204.983 -2.03257 -1.04397 0
M  V30 2141 C 205.193 -2.43272 2.50239 0
M  V30 2142 C 206.541 -3.07907 2.92367 0
M  V30 2143 O 207.565 -2.53599 2.50132 0
M  V30 2144 O 206.424 -4.0632 3.65467 0
M  V30 2145 H 203.518 -0.638076 0.526106 0
M  V30 2146 H 206.064 -0.703235 1.54443 0
M  V30 2147 H 204.836 -1.91803 3.41068 0
M  V30 2148 H 204.459 -3.23479 2.31186 0
M  V30 2149 N 205.456 -1.28612 -0.910864 0
M  V30 2150 C 206.366 -1.14643 -2.0468 0
M  V30 2151 C 207.382 -0.0723121 -1.7385 0
M  V30 2152 O 208.558 -0.282178 -1.99413 0
M  V30 2153 C 205.623 -0.812561 -3.37044 0
M  V30 2154 C 204.684 -1.96935 -3.81465 0
M  V30 2155 C 203.917 -1.65131 -5.07511 0
M  V30 2156 O 204.14 -0.567013 -5.67575 0
M  V30 2157 O 203.074 -2.49585 -5.47714 0
M  V30 2158 H 206.9 -2.1001 -2.19384 0
M  V30 2159 H 204.485 -1.07958 -1.03274 0
M  V30 2160 H 206.367 -0.640441 -4.16505 0
M  V30 2161 H 205.042 0.111426 -3.23508 0
M  V30 2162 H 203.949 -2.19664 -3.02818 0
M  V30 2163 H 205.282 -2.87414 -3.99567 0
M  V30 2164 N 206.934 1.1197 -1.10907 0
M  V30 2165 C 207.897 2.16031 -0.765707 0
M  V30 2166 C 208.897 1.59393 0.212235 0
M  V30 2167 O 210.087 1.74196 -0.0115441 0
M  V30 2168 C 207.219 3.40632 -0.135053 0
M  V30 2169 H 208.412 2.47919 -1.68748 0
M  V30 2170 H 205.965 1.27061 -0.910226 0
M  V30 2171 H 206.7 3.14348 0.797218 0
M  V30 2172 H 206.485 3.8302 -0.838937 0
M  V30 2173 H 207.975 4.17505 0.0892469 0
M  V30 2174 N 208.412 0.89855 1.29475 0
M  V30 2175 C 209.659 0.523882 1.95606 0
M  V30 2176 C 209.987 -0.929608 1.70847 0
M  V30 2177 O 209.242 -1.67401 1.01367 0
M  V30 2178 C 209.541 0.761398 3.49195 0
M  V30 2179 C 209.207 2.19207 3.94029 0
M  V30 2180 C 207.869 2.58326 4.05982 0
M  V30 2181 C 210.221 3.12379 4.17216 0
M  V30 2182 C 207.549 3.898 4.38489 0
M  V30 2183 C 209.901 4.43401 4.51197 0
M  V30 2184 C 208.565 4.82394 4.61359 0
M  V30 2185 H 207.835 0.191702 0.715773 0
M  V30 2186 H 210.482 1.13699 1.54094 0
M  V30 2187 H 208.787 0.0653622 3.91745 0
M  V30 2188 H 210.484 0.450904 3.98457 0
M  V30 2189 H 207.074 1.87846 3.85242 0
M  V30 2190 H 211.258 2.83371 4.07449 0
M  V30 2191 H 206.514 4.19734 4.44559 0
M  V30 2192 H 210.688 5.15623 4.68087 0
M  V30 2193 H 208.315 5.84306 4.86303 0
M  V30 2194 N 209.89 -1.43072 0.660911 0
M  V30 2195 C 211.13 -2.03596 0.181146 0
M  V30 2196 C 211.494 -1.51057 -1.18515 0
M  V30 2197 O 212.695 -2.03275 -1.75877 0
M  V30 2198 C 210.966 -3.56845 0.19911 0
M  V30 2199 S 212.525 -4.38289 -0.211684 0
M  V30 2200 H 209.343 -0.706954 0.0757479 0
M  V30 2201 H 211.945 -1.75027 0.870965 0
M  V30 2202 H 210.649 -3.92583 1.1961 0
M  V30 2203 H 210.18 -3.90067 -0.510996 0
M  V30 2204 H 212.195 -4.74583 -1.44863 0
M  V30 2205 N 211.368 -0.403325 -1.52352 0
M  V30 2206 C 212.316 0.439752 -2.28405 0
M  V30 2207 C 213.31 1.05089 -1.32863 0
M  V30 2208 O 214.516 0.989759 -1.50345 0
M  V30 2209 H 210.891 0.160587 -0.734653 0
M  V30 2210 H 212.862 -0.222983 -2.97566 0
M  V30 2211 C 211.611 1.54736 -3.11371 0
M  V30 2212 H 210.934 1.08643 -3.84755 0
M  V30 2213 H 212.374 2.1112 -3.67701 0
M  V30 2214 C 210.833 2.51141 -2.24566 0
M  V30 2215 O 211.363 3.54887 -1.88196 0
M  V30 2216 N 209.569 2.21213 -1.8845 0
M  V30 2217 H 209.116 1.36878 -2.18225 0
M  V30 2218 H 209.074 2.85963 -1.30662 0
M  V30 2219 N 212.846 1.57033 -0.133567 0
M  V30 2220 C 213.809 2.14897 0.796995 0
M  V30 2221 C 214.809 1.0874 1.18458 0
M  V30 2222 O 215.999 1.34446 1.1077 0
M  V30 2223 C 213.131 2.70112 2.07973 0
M  V30 2224 H 214.324 2.98457 0.293873 0
M  V30 2225 H 211.877 1.55871 0.115787 0
M  V30 2226 H 212.612 1.9018 2.62682 0
M  V30 2227 H 212.397 3.47764 1.81115 0
M  V30 2228 H 213.887 3.14738 2.74462 0
M  V30 2229 N 214.325 -0.140222 1.56975 0
M  V30 2230 C 215.571 -0.852949 1.83991 0
M  V30 2231 C 215.904 -1.80512 0.716187 0
M  V30 2232 O 215.179 -1.92479 -0.279681 0
M  V30 2233 C 215.462 -1.6215 3.21527 0
M  V30 2234 C 215.315 -0.690363 4.4447 0
M  V30 2235 C 216.634 -2.58247 3.56366 0
M  V30 2236 H 213.753 -0.308634 0.669264 0
M  V30 2237 H 216.395 -0.117898 1.89634 0
M  V30 2238 H 214.545 -2.24812 3.16847 0
M  V30 2239 H 216.217 -0.0742264 4.6124 0
M  V30 2240 H 214.46 -0.000396433 4.338 0
M  V30 2241 H 215.131 -1.2643 5.37326 0
M  V30 2242 H 217.607 -2.05701 3.61699 0
M  V30 2243 H 216.483 -3.09067 4.53617 0
M  V30 2244 H 216.744 -3.39923 2.82674 0
M  V30 2245 N 215.803 -1.52179 -0.40978 0
M  V30 2246 C 217.219 -1.40968 -0.74835 0
M  V30 2247 C 217.419 -0.513657 -1.94843 0
M  V30 2248 O 216.475 0.0208026 -2.52491 0
M  V30 2249 C 217.788 -2.83483 -1.0029 0
M  V30 2250 C 219.336 -2.92821 -1.10565 0
M  V30 2251 C 219.811 -4.36303 -1.39296 0
M  V30 2252 N 221.302 -4.39535 -1.46162 0
M  V30 2253 C 222.037 -5.47614 -1.70018 0
M  V30 2254 N 221.533 -6.65812 -1.91483 0
M  V30 2255 N 223.326 -5.35129 -1.72027 0
M  V30 2256 H 215.477 -2.0897 0.380186 0
M  V30 2257 H 217.74 -0.94185 0.107805 0
M  V30 2258 H 217.446 -3.51168 -0.193461 0
M  V30 2259 H 217.32 -3.24487 -1.92323 0
M  V30 2260 H 219.707 -2.25318 -1.90568 0
M  V30 2261 H 219.788 -2.55276 -0.16369 0
M  V30 2262 H 219.432 -5.04366 -0.598109 0
M  V30 2263 H 219.362 -4.71385 -2.34743 0
M  V30 2264 H 221.853 -3.54332 -1.31367 0
M  V30 2265 H 222.166 -7.43964 -2.09134 0
M  V30 2266 H 220.511 -6.68879 -1.88749 0
M  V30 2267 H 223.702 -4.41764 -1.54796 0
M  V30 2268 H 223.875 -6.19433 -1.9028 0
M  V30 2269 N 217.281 0.66697 -1.42791 0
M  V30 2270 C 218.506 1.46004 -1.47301 0
M  V30 2271 C 218.931 1.87894 -0.0880317 0
M  V30 2272 O 218.289 1.56502 0.915253 0
M  V30 2273 C 218.337 2.68031 -2.41229 0
M  V30 2274 O 217.441 3.6659 -1.88906 0
M  V30 2275 H 216.782 0.43832 -0.49877 0
M  V30 2276 H 219.312 0.817391 -1.87563 0
M  V30 2277 H 219.322 3.1601 -2.58073 0
M  V30 2278 H 217.997 2.36883 -3.41847 0
M  V30 2279 H 216.574 3.25661 -1.81656 0
M  V30 2280 N 218.759 1.29093 0.90403 0
M  V30 2281 C 219.989 1.19516 1.68522 0
M  V30 2282 C 220.397 -0.24738 1.87576 0
M  V30 2283 O 219.74 -1.17798 1.40959 0
M  V30 2284 C 219.802 1.83249 3.0929 0
M  V30 2285 C 219.466 3.32531 3.13484 0
M  V30 2286 C 220.463 4.28821 2.93953 0
M  V30 2287 C 218.148 3.73656 3.35688 0
M  V30 2288 C 220.142 5.64212 2.96553 0
M  V30 2289 C 217.829 5.0917 3.37919 0
M  V30 2290 C 218.827 6.04258 3.18373 0
M  V30 2291 O 218.515 7.37298 3.20385 0
M  V30 2292 H 218.247 0.415467 0.533257 0
M  V30 2293 H 220.801 1.70912 1.13922 0
M  V30 2294 H 219.031 1.26358 3.65473 0
M  V30 2295 H 220.72 1.68054 3.69476 0
M  V30 2296 H 221.486 3.98382 2.76616 0
M  V30 2297 H 217.365 3.00101 3.49943 0
M  V30 2298 H 220.909 6.38407 2.81216 0
M  V30 2299 H 216.806 5.39256 3.54787 0
M  V30 2300 H 217.574 7.46048 3.36681 0
M  V30 2301 N 220.237 -1.11381 1.11499 0
M  V30 2302 C 221.467 -1.86663 0.885464 0
M  V30 2303 C 221.875 -1.80464 -0.568281 0
M  V30 2304 O 221.218 -1.18445 -1.40415 0
M  V30 2305 C 221.28 -3.36337 1.26956 0
M  V30 2306 C 220.944 -3.66304 2.73259 0
M  V30 2307 C 221.941 -3.63733 3.71476 0
M  V30 2308 C 219.626 -3.9529 3.09921 0
M  V30 2309 C 221.62 -3.89725 5.04374 0
M  V30 2310 C 219.307 -4.20941 4.43004 0
M  V30 2311 C 220.305 -4.18147 5.40039 0
M  V30 2312 O 219.993 -4.43153 6.70724 0
M  V30 2313 H 219.725 -0.597114 0.316908 0
M  V30 2314 H 222.279 -1.41782 1.48617 0
M  V30 2315 H 220.509 -3.81826 0.611999 0
M  V30 2316 H 222.198 -3.92986 1.01573 0
M  V30 2317 H 222.964 -3.41389 3.44498 0
M  V30 2318 H 218.843 -3.966 2.35009 0
M  V30 2319 H 222.387 -3.8746 5.80104 0
M  V30 2320 H 218.284 -4.42761 4.69716 0
M  V30 2321 H 219.052 -4.60717 6.76522 0
M  V30 2322 N 221.715 -0.905404 -1.28997 0
M  V30 2323 C 222.625 -0.392246 -2.31298 0
M  V30 2324 C 223.641 0.515889 -1.66176 0
M  V30 2325 O 224.817 0.404093 -1.97304 0
M  V30 2326 C 221.882 0.36686 -3.44754 0
M  V30 2327 C 220.943 -0.573485 -4.25452 0
M  V30 2328 C 220.176 0.149488 -5.33491 0
M  V30 2329 O 220.399 1.37255 -5.5364 0
M  V30 2330 O 219.333 -0.510919 -5.99728 0
M  V30 2331 H 223.159 -1.2411 -2.77183 0
M  V30 2332 H 220.744 -0.669926 -1.33538 0
M  V30 2333 H 222.626 0.795907 -4.13816 0
M  V30 2334 H 221.301 1.19169 -3.00966 0
M  V30 2335 H 220.208 -1.05176 -3.59011 0
M  V30 2336 H 221.541 -1.36489 -4.72897 0
M  V30 2337 N 223.193 1.4272 -0.668489 0
M  V30 2338 C 224.439 2.01923 -0.188419 0
M  V30 2339 C 224.772 1.52704 1.19979 0
M  V30 2340 O 224.047 0.726566 1.8042 0
M  V30 2341 C 224.33 3.59451 -0.216085 0
M  V30 2342 C 224.183 4.18864 -1.6393 0
M  V30 2343 C 225.502 4.37903 0.439179 0
M  V30 2344 H 222.621 0.733674 -0.0699412 0
M  V30 2345 H 225.263 1.69822 -0.852076 0
M  V30 2346 H 223.413 3.86929 0.349012 0
M  V30 2347 H 225.085 4.02362 -2.25616 0
M  V30 2348 H 223.328 3.74933 -2.18193 0
M  V30 2349 H 223.999 5.27987 -1.61039 0
M  V30 2350 H 226.475 4.16079 -0.0417878 0
M  V30 2351 H 225.351 5.47519 0.389157 0
M  V30 2352 H 225.612 4.15303 1.51577 0
M  V30 2353 N 224.671 0.411399 1.52136 0
M  V30 2354 C 225.918 -0.163645 2.01838 0
M  V30 2355 C 226.246 -1.4495 1.29691 0
M  V30 2356 O 225.501 -1.91725 0.392431 0
M  V30 2357 C 225.8 -0.455872 3.54481 0
M  V30 2358 C 225.466 0.741055 4.44769 0
M  V30 2359 C 224.128 1.06936 4.69167 0
M  V30 2360 C 226.48 1.54075 4.97906 0
M  V30 2361 C 223.808 2.19851 5.43951 0
M  V30 2362 C 226.16 2.66067 5.73926 0
M  V30 2363 C 224.824 2.99381 5.96596 0
M  V30 2364 H 224.094 -0.0598821 0.738576 0
M  V30 2365 H 226.741 0.553283 1.83333 0
M  V30 2366 H 225.046 -1.2544 3.71177 0
M  V30 2367 H 226.743 -0.913802 3.90449 0
M  V30 2368 H 223.333 0.475192 4.25958 0
M  V30 2369 H 227.517 1.30033 4.78963 0
M  V30 2370 H 222.773 2.46006 5.59724 0
M  V30 2371 H 226.947 3.28419 6.14096 0
M  V30 2372 H 224.574 3.86992 6.54325 0
M  V30 2373 N 226.149 -1.5696 0.141893 0
M  V30 2374 C 227.079 -2.19516 -0.795936 0
M  V30 2375 C 228.06 -1.14187 -1.26077 0
M  V30 2376 O 229.245 -1.42511 -1.31925 0
M  V30 2377 C 226.375 -2.81272 -2.03723 0
M  V30 2378 C 225.329 -3.92384 -1.70936 0
M  V30 2379 C 224.655 -4.41052 -3.02287 0
M  V30 2380 C 225.955 -5.13403 -0.959954 0
M  V30 2381 H 227.649 -2.98138 -0.274596 0
M  V30 2382 H 225.195 -1.43406 -0.130636 0
M  V30 2383 H 227.148 -3.237 -2.69808 0
M  V30 2384 H 225.872 -1.99973 -2.58221 0
M  V30 2385 H 224.531 -3.50566 -1.07232 0
M  V30 2386 H 224.179 -3.56582 -3.54765 0
M  V30 2387 H 223.879 -5.15993 -2.81114 0
M  V30 2388 H 225.403 -4.86146 -3.69451 0
M  V30 2389 H 226.817 -5.52706 -1.52279 0
M  V30 2390 H 225.214 -5.94073 -0.848357 0
M  V30 2391 H 226.284 -4.84875 0.0492434 0
M  V30 2392 N 227.627 0.131896 -1.57047 0
M  V30 2393 C 228.574 1.16236 -1.99393 0
M  V30 2394 C 229.544 1.41863 -0.863943 0
M  V30 2395 O 230.729 1.53946 -1.12718 0
M  V30 2396 C 227.869 2.48708 -2.39245 0
M  V30 2397 C 226.982 2.30127 -3.65603 0
M  V30 2398 C 226.117 3.55738 -3.94492 0
M  V30 2399 C 225.156 3.32259 -5.14073 0
M  V30 2400 N 224.293 4.50039 -5.38896 0
M  V30 2401 H 229.133 0.794251 -2.87221 0
M  V30 2402 H 226.67 0.380707 -1.42088 0
M  V30 2403 H 228.628 3.25969 -2.60384 0
M  V30 2404 H 227.258 2.83437 -1.54478 0
M  V30 2405 H 226.31 1.43845 -3.52154 0
M  V30 2406 H 227.622 2.08746 -4.5302 0
M  V30 2407 H 226.776 4.41423 -4.1621 0
M  V30 2408 H 225.515 3.80138 -3.05526 0
M  V30 2409 H 224.52 2.44963 -4.92212 0
M  V30 2410 H 225.745 3.09242 -6.04604 0
M  V30 2411 H 223.691 4.74584 -4.52886 0
M  V30 2412 H 223.608 4.31716 -6.2061 0
M  V30 2413 H 224.876 5.36895 -5.65123 0
M  V30 2414 N 229.106 1.52395 0.401703 0
M  V30 2415 C 230.331 1.70972 1.17403 0
M  V30 2416 C 230.756 0.421615 1.83314 0
M  V30 2417 O 230.114 -0.621564 1.70312 0
M  V30 2418 C 230.162 2.85151 2.20728 0
M  V30 2419 O 229.266 2.51238 3.27037 0
M  V30 2420 H 228.607 0.568927 0.342372 0
M  V30 2421 H 231.137 1.99131 0.469891 0
M  V30 2422 H 231.147 3.10279 2.64936 0
M  V30 2423 H 229.822 3.78603 1.7214 0
M  V30 2424 H 228.399 2.36808 2.88057 0
M  V30 2425 N 230.584 -0.659388 1.43143 0
M  V30 2426 C 231.861 -1.41627 1.34912 0
M  V30 2427 C 232.241 -2.11099 -0.00607785 0
M  V30 2428 O 231.589 -2.04353 -1.02236 0
M  V30 2429 C 231.799 -2.40604 2.52805 0
M  V30 2430 C 233.147 -3.04789 2.95616 0
M  V30 2431 O 234.171 -2.50932 2.52807 0
M  V30 2432 O 233.03 -4.02421 3.69756 0
M  V30 2433 H 230.124 -0.63246 0.532844 0
M  V30 2434 H 232.67 -0.686814 1.5518 0
M  V30 2435 H 231.442 -1.88174 3.43083 0
M  V30 2436 H 231.065 -3.21009 2.34604 0
M  V30 2437 N 232.062 -1.29571 -0.897171 0
M  V30 2438 C 233.478 -1.07637 -1.17841 0
M  V30 2439 C 233.678 0.170713 -2.00776 0
M  V30 2440 O 232.734 0.867768 -2.3712 0
M  V30 2441 C 234.047 -2.3332 -1.8969 0
M  V30 2442 C 235.595 -2.38664 -2.02505 0
M  V30 2443 C 236.07 -3.64157 -2.77765 0
M  V30 2444 N 237.561 -3.64894 -2.85318 0
M  V30 2445 C 238.296 -4.58679 -3.44094 0
M  V30 2446 N 237.792 -5.62799 -4.04017 0
M  V30 2447 N 239.585 -4.46245 -3.41793 0
M  V30 2448 H 231.736 -2.09598 -0.343883 0
M  V30 2449 H 233.999 -0.923333 -0.214848 0
M  V30 2450 H 233.705 -3.24262 -1.36187 0
M  V30 2451 H 233.579 -2.41025 -2.9015 0
M  V30 2452 H 235.966 -1.48208 -2.55183 0
M  V30 2453 H 236.047 -2.34943 -1.01171 0
M  V30 2454 H 235.691 -4.54965 -2.25763 0
M  V30 2455 H 235.621 -3.65137 -3.7945 0
M  V30 2456 H 238.112 -2.89613 -2.42761 0
M  V30 2457 H 238.425 -6.3048 -4.46895 0
M  V30 2458 H 236.77 -5.66605 -4.02472 0
M  V30 2459 H 239.961 -3.64094 -2.94199 0
M  V30 2460 H 240.134 -5.19518 -3.87304 0
M  V30 2461 N 233.54 1.10788 -1.12088 0
M  V30 2462 C 234.786 1.82942 -0.875226 0
M  V30 2463 C 235.119 1.84779 0.597538 0
M  V30 2464 O 234.394 1.30578 1.44152 0
M  V30 2465 C 234.677 3.29789 -1.44606 0
M  V30 2466 C 234.53 3.36307 -2.98693 0
M  V30 2467 C 235.849 4.26064 -1.10261 0
M  V30 2468 H 232.968 0.664195 -0.319397 0
M  V30 2469 H 235.61 1.29867 -1.38689 0
M  V30 2470 H 233.76 3.75118 -1.01089 0
M  V30 2471 H 235.432 2.99487 -3.50864 0
M  V30 2472 H 233.675 2.76318 -3.34411 0
M  V30 2473 H 234.346 4.39694 -3.33726 0
M  V30 2474 H 236.822 3.88951 -1.4784 0
M  V30 2475 H 235.698 5.27183 -1.52869 0
M  V30 2476 H 235.959 4.42098 -0.0142953 0
M  V30 2477 N 235.018 0.912232 1.28515 0
M  V30 2478 C 235.981 0.404223 2.25607 0
M  V30 2479 C 236.981 -0.468602 1.53821 0
M  V30 2480 O 238.171 -0.271873 1.72065 0
M  V30 2481 C 235.303 -0.420653 3.38295 0
M  V30 2482 H 236.496 1.26188 2.7206 0
M  V30 2483 H 234.049 0.691495 1.40171 0
M  V30 2484 H 234.784 -1.29777 2.97201 0
M  V30 2485 H 234.569 0.204935 3.91564 0
M  V30 2486 H 236.059 -0.766971 4.10496 0
M  V30 2487 N 236.496 -1.42363 0.676048 0
M  V30 2488 C 237.912 -1.55811 0.345718 0
M  V30 2489 C 238.112 -1.65544 -1.14879 0
M  V30 2490 O 237.168 -1.62306 -1.93424 0
M  V30 2491 C 238.481 -2.80746 1.07713 0
M  V30 2492 C 240.029 -2.9452 1.05958 0
M  V30 2493 C 240.504 -4.22318 1.77233 0
M  V30 2494 N 241.995 -4.29233 1.74108 0
M  V30 2495 C 242.73 -5.26935 2.26113 0
M  V30 2496 N 242.226 -6.30783 2.86505 0
M  V30 2497 N 244.019 -5.18741 2.1648 0
M  V30 2498 H 236.17 -1.34289 1.6456 0
M  V30 2499 H 238.433 -0.646506 0.69335 0
M  V30 2500 H 238.139 -2.79696 2.13221 0
M  V30 2501 H 238.013 -3.71676 0.64316 0
M  V30 2502 H 240.4 -2.95097 0.0128255 0
M  V30 2503 H 240.481 -2.04817 1.53244 0
M  V30 2504 H 240.125 -4.22502 2.81877 0
M  V30 2505 H 240.055 -5.10958 1.27396 0
M  V30 2506 H 242.546 -3.54814 1.30059 0
M  V30 2507 H 242.859 -7.01691 3.23805 0
M  V30 2508 H 241.204 -6.31341 2.90575 0
M  V30 2509 H 244.395 -4.36533 1.68987 0
M  V30 2510 H 244.568 -5.94721 2.57316 0
M  V30 2511 N 237.974 -0.419461 -1.51915 0
M  V30 2512 C 238.907 0.445751 -2.23804 0
M  V30 2513 C 239.885 1.03951 -1.25031 0
M  V30 2514 O 241.069 1.08541 -1.54114 0
M  V30 2515 C 238.196 1.61964 -2.97465 0
M  V30 2516 C 237.242 1.14828 -4.10751 0
M  V30 2517 S 238.075 0.104938 -5.35397 0
M  V30 2518 C 239.231 1.28391 -6.1259 0
M  V30 2519 H 239.464 -0.164627 -2.96844 0
M  V30 2520 H 236.997 -0.203833 -1.53049 0
M  V30 2521 H 238.955 2.29271 -3.40507 0
M  V30 2522 H 237.616 2.20139 -2.24048 0
M  V30 2523 H 236.809 2.02561 -4.61503 0
M  V30 2524 H 236.411 0.553712 -3.69878 0
M  V30 2525 H 238.703 2.20563 -6.40592 0
M  V30 2526 H 239.646 0.816724 -7.03374 0
M  V30 2527 H 240.054 1.51439 -5.43807 0
M  V30 2528 N 239.452 1.56882 -0.150215 0
M  V30 2529 C 240.698 1.96518 0.500834 0
M  V30 2530 C 241.031 1.03527 1.64304 0
M  V30 2531 O 240.306 0.0782751 1.94342 0
M  V30 2532 C 240.589 3.45822 1.00395 0
M  V30 2533 C 240.442 4.49591 -0.136983 0
M  V30 2534 C 241.761 3.97704 1.88467 0
M  V30 2535 H 238.88 0.714535 0.18058 0
M  V30 2536 H 241.522 1.88577 -0.232091 0
M  V30 2537 H 239.672 3.5272 1.62851 0
M  V30 2538 H 241.344 4.5477 -0.77343 0
M  V30 2539 H 239.587 4.26441 -0.795652 0
M  V30 2540 H 240.258 5.51402 0.256815 0
M  V30 2541 H 242.734 3.93304 1.35834 0
M  V30 2542 H 241.61 5.0263 2.20578 0
M  V30 2543 H 241.871 3.40252 2.82279 0
M  V30 2544 N 240.93 -0.123565 1.57115 0
M  V30 2545 C 241.862 -1.17739 1.96648 0
M  V30 2546 C 242.875 -1.37906 0.865201 0
M  V30 2547 O 244.064 -1.37062 1.14351 0
M  V30 2548 C 241.164 -2.53821 2.24562 0
M  V30 2549 C 240.337 -2.54317 3.55867 0
M  V30 2550 C 239.396 -3.72112 3.72047 0
M  V30 2551 O 238.422 -3.55907 4.44206 0
M  V30 2552 N 239.624 -4.90498 3.10471 0
M  V30 2553 H 242.389 -0.841147 2.87654 0
M  V30 2554 H 239.95 -0.31289 1.58848 0
M  V30 2555 H 241.942 -3.31175 2.32606 0
M  V30 2556 H 240.512 -2.79645 1.39705 0
M  V30 2557 H 239.732 -1.62711 3.59053 0
M  V30 2558 H 241.02 -2.51701 4.42181 0
M  V30 2559 H 240.418 -5.06567 2.51806 0
M  V30 2560 H 238.975 -5.65544 3.24043 0
M  V30 2561 N 242.408 -1.52605 -0.393616 0
M  V30 2562 C 243.633 -1.71592 -1.16495 0
M  V30 2563 C 244.058 -0.43133 -1.83088 0
M  V30 2564 O 243.416 0.612523 -1.7064 0
M  V30 2565 C 243.464 -2.86318 -2.19213 0
M  V30 2566 O 242.568 -2.52969 -3.257 0
M  V30 2567 H 241.909 -0.570734 -0.33935 0
M  V30 2568 H 244.439 -1.99377 -0.459324 0
M  V30 2569 H 244.449 -3.1168 -2.63286 0
M  V30 2570 H 243.124 -3.79511 -1.7013 0
M  V30 2571 H 241.701 -2.38332 -2.86797 0
M  V30 2572 N 243.887 0.651787 -1.4349 0
M  V30 2573 C 245.135 1.40888 -1.44897 0
M  V30 2574 C 245.456 1.94856 -0.0749086 0
M  V30 2575 O 244.726 1.74518 0.889956 0
M  V30 2576 H 243.306 0.522887 -0.533478 0
M  V30 2577 H 245.968 0.768609 -1.79104 0
M  V30 2578 H 245.064 2.25052 -2.16236 0
M  V30 2579 N 245.365 1.30045 0.890287 0
M  V30 2580 C 246.613 1.18327 1.63839 0
M  V30 2581 C 246.934 -0.263455 1.93212 0
M  V30 2582 O 246.204 -1.17856 1.56482 0
M  V30 2583 H 244.784 0.434933 0.607324 0
M  V30 2584 H 247.446 1.631 1.06698 0
M  V30 2585 H 246.542 1.74024 2.59079 0
M  V30 2586 N 246.843 -1.10192 1.12674 0
M  V30 2587 C 248.083 -1.83825 0.893736 0
M  V30 2588 C 248.447 -1.83341 -0.570082 0
M  V30 2589 O 249.648 -2.52553 -0.920354 0
M  V30 2590 C 247.919 -3.26405 1.45582 0
M  V30 2591 S 249.478 -4.17136 1.36171 0
M  V30 2592 H 246.296 -0.633732 0.322342 0
M  V30 2593 H 248.898 -1.32581 1.43675 0
M  V30 2594 H 247.602 -3.24329 2.51473 0
M  V30 2595 H 247.133 -3.82721 0.910405 0
M  V30 2596 H 249.148 -4.95069 0.334863 0
M  V30 2597 N 248.321 -0.919034 -1.28029 0
M  V30 2598 C 249.546 -0.570357 -1.99403 0
M  V30 2599 C 249.971 0.842486 -1.68178 0
M  V30 2600 O 249.329 1.56391 -0.917141 0
M  V30 2601 C 249.377 -0.792541 -3.51783 0
M  V30 2602 O 248.481 0.145988 -4.12142 0
M  V30 2603 H 247.822 -0.220555 -0.6263 0
M  V30 2604 H 250.352 -1.23592 -1.63053 0
M  V30 2605 H 250.362 -0.704708 -4.01868 0
M  V30 2606 H 249.037 -1.82247 -3.73844 0
M  V30 2607 H 247.614 0.00897528 -3.72899 0
M  V30 2608 N 249.799 1.42003 -0.683588 0
M  V30 2609 C 250.762 2.29191 -0.0198243 0
M  V30 2610 C 251.762 1.43773 0.72013 0
M  V30 2611 O 252.952 1.65061 0.556815 0
M  V30 2612 C 250.084 3.26435 0.982487 0
M  V30 2613 H 251.277 2.8938 -0.787345 0
M  V30 2614 H 248.83 1.49789 -0.446418 0
M  V30 2615 H 249.565 2.71203 1.77819 0
M  V30 2616 H 249.35 3.89449 0.455182 0
M  V30 2617 H 250.84 3.918 1.44508 0
M  V30 2618 N 251.277 0.427512 1.51691 0
M  V30 2619 C 252.225 -0.403359 2.29076 0
M  V30 2620 C 253.219 -1.02962 1.34518 0
M  V30 2621 O 254.425 -0.965715 1.51901 0
M  V30 2622 H 250.8 -0.148879 0.737115 0
M  V30 2623 H 252.771 0.270295 2.97173 0
M  V30 2624 C 251.52 -1.49763 3.13794 0
M  V30 2625 H 250.843 -1.02508 3.86435 0
M  V30 2626 H 252.283 -2.05244 3.71014 0
M  V30 2627 C 250.742 -2.47536 2.28533 0
M  V30 2628 O 251.272 -3.51848 1.93819 0
M  V30 2629 N 249.478 -2.18187 1.91945 0
M  V30 2630 H 249.025 -1.33389 2.20375 0
M  V30 2631 H 248.983 -2.83848 1.35195 0
M  V30 2632 N 252.755 -1.56801 0.158532 0
M  V30 2633 C 254.032 -1.88131 -0.535357 0
M  V30 2634 C 254.412 -1.06638 -1.82186 0
M  V30 2635 O 253.76 -0.156533 -2.27963 0
M  V30 2636 C 253.97 -3.39949 -0.789653 0
M  V30 2637 C 255.318 -4.09416 -1.12533 0
M  V30 2638 O 256.342 -3.45194 -0.878622 0
M  V30 2639 O 255.201 -5.22855 -1.59014 0
M  V30 2640 H 252.295 -0.780143 -0.27442 0
M  V30 2641 H 254.841 -1.68564 0.19601 0
M  V30 2642 H 253.613 -3.91115 0.120353 0
M  V30 2643 H 253.236 -3.65084 -1.57479 0
M  V30 2644 N 254.233 0.115231 -1.57178 0
M  V30 2645 C 255.48 0.822351 -1.8505 0
M  V30 2646 C 255.808 1.79701 -0.744168 0
M  V30 2647 O 255.063 1.93909 0.26414 0
M  V30 2648 C 255.362 1.60324 -3.19423 0
M  V30 2649 C 255.028 0.772536 -4.44233 0
M  V30 2650 C 253.69 0.543468 -4.78121 0
M  V30 2651 C 256.042 0.193746 -5.2084 0
M  V30 2652 C 253.37 -0.274583 -5.86057 0
M  V30 2653 C 255.722 -0.611517 -6.29637 0
M  V30 2654 C 254.386 -0.850867 -6.62055 0
M  V30 2655 H 253.656 0.30092 -0.677147 0
M  V30 2656 H 256.303 0.0845802 -1.91313 0
M  V30 2657 H 254.608 2.41203 -3.08753 0
M  V30 2658 H 256.305 2.1544 -3.38211 0
M  V30 2659 H 252.895 0.96117 -4.17683 0
M  V30 2660 H 257.079 0.357926 -4.95008 0
M  V30 2661 H 252.335 -0.469206 -6.09597 0
M  V30 2662 H 256.509 -1.06697 -6.88178 0
M  V30 2663 H 254.136 -1.48657 -7.45523 0
M  V30 2664 N 255.711 1.52812 0.385517 0
M  V30 2665 C 257.127 1.4214 0.725829 0
M  V30 2666 C 257.327 0.544589 1.94001 0
M  V30 2667 O 256.383 0.0193693 2.52493 0
M  V30 2668 C 257.696 2.85042 0.957668 0
M  V30 2669 C 259.244 2.94543 1.05892 0
M  V30 2670 C 259.719 4.38464 1.32337 0
M  V30 2671 N 261.21 4.41804 1.39151 0
M  V30 2672 C 261.945 5.5025 1.61285 0
M  V30 2673 N 261.441 6.68775 1.80866 0
M  V30 2674 N 263.234 5.37798 1.63492 0
M  V30 2675 H 255.385 2.08338 -0.413383 0
M  V30 2676 H 257.648 0.940016 -0.122775 0
M  V30 2677 H 257.354 3.51431 0.137568 0
M  V30 2678 H 257.228 3.27505 1.87137 0
M  V30 2679 H 259.615 2.28321 1.86959 0
M  V30 2680 H 259.696 2.55504 0.123057 0
M  V30 2681 H 259.34 5.05254 0.517793 0
M  V30 2682 H 259.27 4.75059 2.27214 0
M  V30 2683 H 261.761 3.56377 1.25713 0
M  V30 2684 H 262.074 7.47197 1.97271 0
M  V30 2685 H 260.419 6.71797 1.78083 0
M  V30 2686 H 263.61 4.44171 1.47749 0
M  V30 2687 H 263.783 6.22382 1.80402 0
M  V30 2688 N 257.189 -0.644168 1.43834 0
M  V30 2689 C 258.099 -1.78563 1.52159 0
M  V30 2690 C 259.115 -1.69147 0.408069 0
M  V30 2691 O 260.291 -1.90156 0.663524 0
M  V30 2692 C 257.356 -3.14888 1.45073 0
M  V30 2693 C 256.417 -3.36034 2.6717 0
M  V30 2694 C 255.65 -4.65855 2.60413 0
M  V30 2695 O 255.873 -5.45805 1.65689 0
M  V30 2696 O 254.807 -4.88918 3.5106 0
M  V30 2697 H 258.633 -1.74494 2.48567 0
M  V30 2698 H 256.218 -0.80378 1.25935 0
M  V30 2699 H 258.1 -3.96179 1.43597 0
M  V30 2700 H 256.775 -3.19528 0.518037 0
M  V30 2701 H 255.682 -2.54472 2.74217 0
M  V30 2702 H 257.015 -3.36247 3.59442 0
M  V30 2703 N 258.668 -1.30515 -0.883378 0
M  V30 2704 C 259.914 -1.19607 -1.63774 0
M  V30 2705 C 260.247 0.248314 -1.92606 0
M  V30 2706 O 259.522 1.17742 -1.54813 0
M  V30 2707 C 259.805 -2.02669 -2.97653 0
M  V30 2708 C 259.658 -3.55335 -2.75784 0
M  V30 2709 C 260.977 -1.86573 -3.98596 0
M  V30 2710 H 258.096 -0.435856 -0.594305 0
M  V30 2711 H 260.738 -1.60165 -1.02212 0
M  V30 2712 H 258.888 -1.68208 -3.50197 0
M  V30 2713 H 260.56 -3.99863 -2.30016 0
M  V30 2714 H 258.803 -3.79438 -2.1026 0
M  V30 2715 H 259.474 -4.08745 -3.70988 0
M  V30 2716 H 261.95 -2.16703 -3.55217 0
M  V30 2717 H 260.826 -2.47014 -4.90179 0
M  V30 2718 H 261.087 -0.825321 -4.34328 0
M  V30 2719 N 260.146 1.09593 -1.13257 0
M  V30 2720 C 261.393 1.81734 -0.893257 0
M  V30 2721 C 261.721 1.8563 0.580656 0
M  V30 2722 O 260.976 1.31906 1.44566 0
M  V30 2723 C 261.275 3.27802 -1.42411 0
M  V30 2724 C 260.941 3.44041 -2.91456 0
M  V30 2725 C 259.603 3.48181 -3.3215 0
M  V30 2726 C 261.955 3.48719 -3.87356 0
M  V30 2727 C 259.283 3.54575 -4.67433 0
M  V30 2728 C 261.635 3.56648 -5.2248 0
M  V30 2729 C 260.299 3.59055 -5.62704 0
M  V30 2730 H 259.569 0.665011 -0.326866 0
M  V30 2731 H 262.216 1.2912 -1.41422 0
M  V30 2732 H 260.521 3.83042 -0.823795 0
M  V30 2733 H 262.218 3.82149 -1.21503 0
M  V30 2734 H 258.808 3.41502 -2.58987 0
M  V30 2735 H 262.992 3.44763 -3.57004 0
M  V30 2736 H 258.248 3.54725 -4.97976 0
M  V30 2737 H 262.422 3.59212 -5.96607 0
M  V30 2738 H 260.049 3.63763 -6.67518 0
M  V30 2739 N 261.624 0.925811 1.2754 0
M  V30 2740 C 262.571 0.422045 2.26908 0
M  V30 2741 C 263.541 -0.510029 1.58076 0
M  V30 2742 O 264.726 -0.429599 1.85901 0
M  V30 2743 C 261.866 -0.320837 3.43605 0
M  V30 2744 C 260.979 0.64513 4.27156 0
M  V30 2745 C 260.114 -0.117405 5.3107 0
M  V30 2746 C 259.153 0.841391 6.0629 0
M  V30 2747 N 258.29 0.111604 7.02011 0
M  V30 2748 H 263.13 1.27441 2.69375 0
M  V30 2749 H 260.667 0.639697 1.32462 0
M  V30 2750 H 262.625 -0.76785 4.10073 0
M  V30 2751 H 261.255 -1.13745 3.02096 0
M  V30 2752 H 260.307 1.21067 3.6062 0
M  V30 2753 H 261.619 1.37797 4.79389 0
M  V30 2754 H 260.773 -0.624422 6.03478 0
M  V30 2755 H 259.512 -0.883219 4.79636 0
M  V30 2756 H 258.517 1.35967 5.32722 0
M  V30 2757 H 259.742 1.60696 6.59813 0
M  V30 2758 H 257.688 -0.635999 6.5291 0
M  V30 2759 H 257.605 0.784044 7.51923 0
M  V30 2760 H 258.873 -0.374823 7.78598 0
M  V30 2761 N 263.102 -1.41638 0.69111 0
M  V30 2762 C 264.049 -2.30789 0.0229705 0
M  V30 2763 C 265.019 -1.46863 -0.775911 0
M  V30 2764 O 266.204 -1.75661 -0.74485 0
M  V30 2765 C 263.344 -3.32868 -0.910666 0
M  V30 2766 C 262.457 -4.31875 -0.103874 0
M  V30 2767 C 261.592 -5.21024 -1.03475 0
M  V30 2768 C 260.631 -6.11702 -0.220598 0
M  V30 2769 N 259.768 -6.93349 -1.10504 0
M  V30 2770 H 264.608 -2.87366 0.788978 0
M  V30 2771 H 262.145 -1.41535 0.400794 0
M  V30 2772 H 264.103 -3.90596 -1.46597 0
M  V30 2773 H 262.733 -2.77851 -1.64312 0
M  V30 2774 H 261.785 -3.76131 0.568285 0
M  V30 2775 H 263.097 -4.96003 0.527504 0
M  V30 2776 H 262.251 -5.83565 -1.65943 0
M  V30 2777 H 260.99 -4.57112 -1.69999 0
M  V30 2778 H 259.995 -5.48215 0.417187 0
M  V30 2779 H 261.22 -6.77668 0.440784 0
M  V30 2780 H 259.166 -6.3205 -1.75638 0
M  V30 2781 H 259.083 -7.54146 -0.529125 0
M  V30 2782 H 260.351 -7.60362 -1.71667 0
M  V30 2783 N 264.58 -0.43555 -1.51462 0
M  V30 2784 C 265.528 0.391205 -2.29287 0
M  V30 2785 C 266.522 1.02247 -1.35062 0
M  V30 2786 O 267.728 0.957646 -1.52411 0
M  V30 2787 H 264.103 0.144968 -0.737895 0
M  V30 2788 H 266.074 -0.286051 -2.97026 0
M  V30 2789 C 264.823 1.48096 -3.14583 0
M  V30 2790 H 264.146 1.00457 -3.86973 0
M  V30 2791 H 265.586 2.03273 -3.72097 0
M  V30 2792 C 264.045 2.46321 -2.29843 0
M  V30 2793 O 264.575 3.50815 -1.95682 0
M  V30 2794 N 262.781 2.17166 -1.931 0
M  V30 2795 H 262.328 1.32218 -2.21079 0
M  V30 2796 H 262.286 2.83127 -1.36698 0
M  V30 2797 N 266.058 1.56714 -0.166846 0
M  V30 2798 C 267.307 1.95922 0.479318 0
M  V30 2799 C 267.62 1.05529 1.6469 0
M  V30 2800 O 268.826 1.34399 2.35901 0
M  V30 2801 C 267.282 3.48359 0.90412 0
M  V30 2802 C 266.89 4.47369 -0.237621 0
M  V30 2803 C 268.634 3.96394 1.51896 0
M  V30 2804 C 266.541 5.91039 0.206561 0
M  V30 2805 H 265.471 0.731495 0.18284 0
M  V30 2806 H 268.122 1.81728 -0.254363 0
M  V30 2807 H 266.504 3.57955 1.69365 0
M  V30 2808 H 267.678 4.49485 -1.01489 0
M  V30 2809 H 265.993 4.09366 -0.762128 0
M  V30 2810 H 268.59 5.01186 1.86325 0
M  V30 2811 H 268.933 3.39075 2.41524 0
M  V30 2812 H 269.466 3.89796 0.79395 0
M  V30 2813 H 266.205 6.52221 -0.654834 0
M  V30 2814 H 265.725 5.9224 0.949282 0
M  V30 2815 H 267.404 6.43707 0.651939 0
M  V30 2816 N 267.536 -0.106894 1.57237 0
M  V30 2817 C 268.446 -1.14911 2.0453 0
M  V30 2818 C 269.462 -1.44592 0.96795 0
M  V30 2819 O 270.638 -1.55468 1.2803 0
M  V30 2820 C 267.703 -2.45272 2.45036 0
M  V30 2821 C 266.764 -2.22879 3.66911 0
M  V30 2822 C 265.997 -3.47024 4.05475 0
M  V30 2823 O 266.22 -4.54804 3.44252 0
M  V30 2824 O 265.154 -3.3731 4.98504 0
M  V30 2825 H 268.98 -0.777461 2.9358 0
M  V30 2826 H 266.565 -0.318563 1.45964 0
M  V30 2827 H 268.447 -3.22055 2.71769 0
M  V30 2828 H 267.122 -2.81886 1.59129 0
M  V30 2829 H 266.029 -1.43915 3.45311 0
M  V30 2830 H 267.362 -1.91163 4.53561 0
M  V30 2831 N 269.014 -1.53014 -0.377408 0
M  V30 2832 C 269.961 -1.78616 -1.46168 0
M  V30 2833 C 270.931 -0.629917 -1.53692 0
M  V30 2834 O 272.116 -0.870861 -1.69766 0
M  V30 2835 C 269.256 -1.97123 -2.8326 0
M  V30 2836 C 268.369 -3.24831 -2.84796 0
M  V30 2837 C 267.504 -3.33591 -4.13389 0
M  V30 2838 C 266.543 -4.55377 -4.09021 0
M  V30 2839 N 265.68 -4.61355 -5.29241 0
M  V30 2840 H 270.52 -2.71142 -1.23637 0
M  V30 2841 H 268.057 -1.34326 -0.599577 0
M  V30 2842 H 270.015 -2.05839 -3.62886 0
M  V30 2843 H 268.645 -1.07946 -3.04216 0
M  V30 2844 H 267.697 -3.25128 -1.97474 0
M  V30 2845 H 269.009 -4.14523 -2.77439 0
M  V30 2846 H 268.163 -3.41554 -5.01424 0
M  V30 2847 H 266.902 -2.41894 -4.23484 0
M  V30 2848 H 265.907 -4.47527 -3.19373 0
M  V30 2849 H 267.132 -5.48402 -4.00539 0
M  V30 2850 H 265.078 -3.72554 -5.39944 0
M  V30 2851 H 264.995 -5.44935 -5.24006 0
M  V30 2852 H 266.263 -4.73586 -6.19141 0
M  V30 2853 N 270.492 0.636531 -1.44174 0
M  V30 2854 C 271.908 0.954104 -1.27941 0
M  V30 2855 C 272.108 2.0039 -0.211248 0
M  V30 2856 O 271.164 2.49236 0.404695 0
M  V30 2857 C 272.477 1.4225 -2.64925 0
M  V30 2858 C 274.025 1.53827 -2.72592 0
M  V30 2859 C 274.5 2.04053 -4.10032 0
M  V30 2860 N 275.991 2.11331 -4.12182 0
M  V30 2861 C 276.726 2.51352 -5.15374 0
M  V30 2862 N 276.222 2.90549 -6.2893 0
M  V30 2863 N 278.015 2.51438 -5.02728 0
M  V30 2864 H 270.166 -0.0578386 -2.12321 0
M  V30 2865 H 272.429 0.0367406 -0.947288 0
M  V30 2866 H 272.135 0.725466 -3.44136 0
M  V30 2867 H 272.009 2.39451 -2.9145 0
M  V30 2868 H 274.396 2.22628 -1.93702 0
M  V30 2869 H 274.477 0.550154 -2.49814 0
M  V30 2870 H 274.121 1.35848 -4.89395 0
M  V30 2871 H 274.051 3.03726 -4.30184 0
M  V30 2872 H 276.542 1.83745 -3.30222 0
M  V30 2873 H 276.855 3.19884 -7.03487 0
M  V30 2874 H 275.2 2.88313 -6.32377 0
M  V30 2875 H 278.391 2.20203 -4.13072 0
M  V30 2876 H 278.564 2.82304 -5.83274 0
M  V30 2877 N 271.97 1.30982 0.876444 0
M  V30 2878 C 273.216 1.20474 1.63138 0
M  V30 2879 C 273.549 -0.238096 1.92735 0
M  V30 2880 O 272.824 -1.1692 1.55435 0
M  V30 2881 C 273.107 2.04244 2.96574 0
M  V30 2882 C 272.96 3.56793 2.73896 0
M  V30 2883 C 274.279 1.88684 3.97601 0
M  V30 2884 H 271.398 0.439001 0.591985 0
M  V30 2885 H 274.04 1.60704 1.01361 0
M  V30 2886 H 272.19 1.70063 3.493 0
M  V30 2887 H 273.862 4.01077 2.27892 0
M  V30 2888 H 272.105 3.80548 2.08245 0
M  V30 2889 H 272.776 4.10706 3.68815 0
M  V30 2890 H 275.252 2.18584 3.54062 0
M  V30 2891 H 274.128 2.4961 4.88862 0
M  V30 2892 H 274.389 0.848343 4.33884 0
M  V30 2893 N 273.449 -1.08991 1.13837 0
M  V30 2894 C 274.865 -1.33312 0.877506 0
M  V30 2895 C 275.065 -1.95587 -0.48456 0
M  V30 2896 O 274.121 -2.20509 -1.23013 0
M  V30 2897 C 275.434 -2.24045 2.0056 0
M  V30 2898 C 276.982 -2.37542 2.03821 0
M  V30 2899 C 277.457 -3.31614 3.15905 0
M  V30 2900 N 278.948 -3.39189 3.15445 0
M  V30 2901 C 279.683 -4.11992 3.98811 0
M  V30 2902 N 279.179 -4.87553 4.92203 0
M  V30 2903 N 280.972 -4.07762 3.86894 0
M  V30 2904 H 273.123 -0.669456 2.01574 0
M  V30 2905 H 275.386 -0.357482 0.878015 0
M  V30 2906 H 275.092 -1.85521 2.98789 0
M  V30 2907 H 274.966 -3.24466 1.92359 0
M  V30 2908 H 277.353 -2.75327 1.06202 0
M  V30 2909 H 277.434 -1.36884 2.16093 0
M  V30 2910 H 277.078 -2.94551 4.13766 0
M  V30 2911 H 277.008 -4.32186 3.0087 0
M  V30 2912 H 279.499 -2.85314 2.47799 0
M  V30 2913 H 279.812 -5.40549 5.52292 0
M  V30 2914 H 278.157 -4.86627 4.96205 0
M  V30 2915 H 281.348 -3.47833 3.13257 0
M  V30 2916 H 281.521 -4.64238 4.52092 0
M  V30 2917 N 274.927 -0.932562 -1.27047 0
M  V30 2918 C 276.152 -0.591474 -1.98787 0
M  V30 2919 C 276.577 0.824601 -1.69062 0
M  V30 2920 O 275.935 1.5541 -0.933677 0
M  V30 2921 C 275.983 -0.829808 -3.50922 0
M  V30 2922 O 275.087 0.102266 -4.12273 0
M  V30 2923 H 274.428 -0.227185 -0.623926 0
M  V30 2924 H 276.958 -1.25314 -1.61733 0
M  V30 2925 H 276.968 -0.747292 -4.01098 0
M  V30 2926 H 275.643 -1.86201 -3.7189 0
M  V30 2927 H 274.22 -0.0305761 -3.72887 0
M  V30 2928 N 276.405 1.4127 -0.698611 0
M  V30 2929 C 277.335 2.33447 -0.049629 0
M  V30 2930 C 278.316 1.51982 0.763898 0
M  V30 2931 O 279.501 1.80509 0.716257 0
M  V30 2932 C 276.631 3.35828 0.885267 0
M  V30 2933 C 275.585 4.27627 0.178613 0
M  V30 2934 C 274.911 5.20406 1.22807 0
M  V30 2935 C 276.211 5.13459 -0.956933 0
M  V30 2936 H 277.905 2.87966 -0.81951 0
M  V30 2937 H 275.451 1.38461 -0.395538 0
M  V30 2938 H 277.404 3.9924 1.34854 0
M  V30 2939 H 276.128 2.79666 1.68685 0
M  V30 2940 H 274.787 3.65643 -0.26466 0
M  V30 2941 H 274.435 4.60558 2.02226 0
M  V30 2942 H 274.135 5.82661 0.760239 0
M  V30 2943 H 275.659 5.86695 1.69179 0
M  V30 2944 H 277.073 5.70421 -0.573805 0
M  V30 2945 H 275.47 5.8467 -1.35205 0
M  V30 2946 H 276.54 4.50443 -1.79524 0
M  V30 2947 N 277.883 0.443576 1.51229 0
M  V30 2948 C 279.294 -0.0180867 1.86691 0
M  V30 2949 C 279.645 -1.41384 1.36033 0
M  V30 2950 O 278.77 -2.04291 0.713722 0
M  V30 2951 C 279.365 -0.039597 3.38777 0
M  V30 2952 C 277.924 -0.445692 3.73752 0
M  V30 2953 C 277.071 0.357584 2.74985 0
M  V30 2954 H 280.022 0.659138 1.44364 0
M  V30 2955 H 280.043 -0.847761 3.70936 0
M  V30 2956 H 279.555 0.976382 3.75617 0
M  V30 2957 H 277.656 -1.46704 3.42503 0
M  V30 2958 H 277.769 -0.166155 4.78812 0
M  V30 2959 H 276.133 -0.184973 2.54027 0
M  V30 2960 H 276.916 1.37256 3.14668 0
M  V30 2961 N 279.361 -1.56624 0.175154 0
M  V30 2962 C 280.271 -2.21741 -0.766042 0
M  V30 2963 C 281.287 -1.21023 -1.25018 0
M  V30 2964 O 282.463 -1.53697 -1.3015 0
M  V30 2965 C 279.528 -2.84839 -1.97655 0
M  V30 2966 C 278.589 -4.00769 -1.53892 0
M  V30 2967 C 277.822 -4.60849 -2.69173 0
M  V30 2968 O 278.045 -4.19823 -3.86141 0
M  V30 2969 O 276.979 -5.50655 -2.43028 0
M  V30 2970 H 280.805 -3.02738 -0.241585 0
M  V30 2971 H 278.39 -1.49305 -0.053222 0
M  V30 2972 H 280.272 -3.24834 -2.68442 0
M  V30 2973 H 278.947 -2.06836 -2.48999 0
M  V30 2974 H 277.854 -3.65436 -0.80044 0
M  V30 2975 H 279.187 -4.80376 -1.07236 0
M  V30 2976 N 280.839 0.0985539 -1.57292 0
M  V30 2977 C 282.088 0.801358 -1.85098 0
M  V30 2978 C 282.401 1.80066 -0.763902 0
M  V30 2979 O 283.607 2.55112 -0.928981 0
M  V30 2980 C 282.063 1.47599 -3.28242 0
M  V30 2981 C 281.671 0.516624 -4.45011 0
M  V30 2982 C 283.415 2.16272 -3.65276 0
M  V30 2983 C 281.322 1.19564 -5.79188 0
M  V30 2984 H 280.252 0.303022 -0.69043 0
M  V30 2985 H 282.903 0.0542623 -1.8342 0
M  V30 2986 H 281.285 2.27042 -3.2445 0
M  V30 2987 H 282.459 -0.246065 -4.60143 0
M  V30 2988 H 280.774 -0.064227 -4.1635 0
M  V30 2989 H 283.371 2.67802 -4.62803 0
M  V30 2990 H 283.714 2.95009 -2.93727 0
M  V30 2991 H 284.247 1.43693 -3.70941 0
M  V30 2992 H 280.986 0.449157 -6.53959 0
M  V30 2993 H 280.506 1.92984 -5.67906 0
M  V30 2994 H 282.185 1.7231 -6.23633 0
M  V30 2995 N 282.317 1.53212 0.369288 0
M  V30 2996 C 283.594 1.59815 1.12776 0
M  V30 2997 C 283.974 0.403402 2.0721 0
M  V30 2998 O 283.322 -0.606667 2.20299 0
M  V30 2999 C 283.532 2.94664 1.87013 0
M  V30 3000 C 284.88 3.49109 2.41677 0
M  V30 3001 O 285.904 2.96669 1.97144 0
M  V30 3002 O 284.763 4.40775 3.23079 0
M  V30 3003 H 281.857 0.645376 0.517125 0
M  V30 3004 H 284.403 1.65553 0.37285 0
M  V30 3005 H 283.175 3.73061 1.18071 0
M  V30 3006 H 282.798 2.92401 2.69421 0
M  V30 3007 N 283.795 -0.628877 1.44509 0
M  V30 3008 C 285.043 -1.38565 1.4712 0
M  V30 3009 C 285.364 -1.94712 0.105899 0
M  V30 3010 O 284.634 -1.75912 -0.862079 0
M  V30 3011 H 283.214 -0.514333 0.541729 0
M  V30 3012 H 285.876 -0.740018 1.80305 0
M  V30 3013 H 284.972 -2.21583 2.19789 0
M  V30 3014 N 285.273 -1.31445 -0.869486 0
M  V30 3015 C 286.203 -1.21727 -1.99261 0
M  V30 3016 C 287.184 -0.104359 -1.6978 0
M  V30 3017 O 288.369 -0.289038 -1.92037 0
M  V30 3018 C 285.499 -0.924317 -3.34774 0
M  V30 3019 C 284.453 -1.99685 -3.78563 0
M  V30 3020 C 283.779 -1.55658 -5.11541 0
M  V30 3021 C 285.079 -3.41003 -3.95619 0
M  V30 3022 H 286.773 -2.1569 -2.07649 0
M  V30 3023 H 284.319 -1.03839 -0.997675 0
M  V30 3024 H 286.272 -0.842934 -4.12883 0
M  V30 3025 H 284.996 0.0509793 -3.2656 0
M  V30 3026 H 283.655 -2.06813 -3.02694 0
M  V30 3027 H 283.303 -0.569132 -4.9977 0
M  V30 3028 H 283.003 -2.27409 -5.41811 0
M  V30 3029 H 284.527 -1.48928 -5.92159 0
M  V30 3030 H 285.941 -3.36547 -4.64122 0
M  V30 3031 H 284.338 -4.10975 -4.37286 0
M  V30 3032 H 285.408 -3.81754 -2.98985 0
M  V30 3033 N 286.751 1.08385 -1.14413 0
M  V30 3034 C 287.976 1.85057 -0.936413 0
M  V30 3035 C 288.401 1.81055 0.509971 0
M  V30 3036 O 287.759 1.1958 1.36273 0
M  V30 3037 C 287.807 3.30505 -1.44217 0
M  V30 3038 O 286.911 4.07491 -0.634409 0
M  V30 3039 H 286.252 0.573425 -0.334784 0
M  V30 3040 H 288.782 1.36799 -1.52142 0
M  V30 3041 H 288.792 3.81348 -1.45043 0
M  V30 3042 H 287.467 3.32734 -2.49522 0
M  V30 3043 H 286.044 3.66368 -0.694902 0
M  V30 3044 N 288.23 0.939286 1.26551 0
M  V30 3045 C 289.177 0.446088 2.26448 0
M  V30 3046 C 290.147 -0.493234 1.58608 0
M  V30 3047 O 291.332 -0.409857 1.86346 0
M  V30 3048 C 288.472 -0.284375 3.43926 0
M  V30 3049 C 287.585 0.690399 4.26448 0
M  V30 3050 C 286.72 -0.0610712 5.31165 0
M  V30 3051 C 285.759 0.905649 6.05363 0
M  V30 3052 N 284.896 0.186055 7.01853 0
M  V30 3053 H 289.736 1.30291 2.68008 0
M  V30 3054 H 287.273 0.65371 1.31776 0
M  V30 3055 H 289.231 -0.724313 4.10864 0
M  V30 3056 H 287.861 -1.10535 3.03285 0
M  V30 3057 H 286.913 1.24885 3.59316 0
M  V30 3058 H 288.225 1.42873 4.779 0
M  V30 3059 H 287.379 -0.56038 6.04106 0
M  V30 3060 H 286.118 -0.832297 4.80546 0
M  V30 3061 H 285.123 1.4161 5.3125 0
M  V30 3062 H 286.348 1.67685 6.58072 0
M  V30 3063 H 284.294 -0.566714 6.53548 0
M  V30 3064 H 284.211 0.863752 7.51049 0
M  V30 3065 H 285.479 -0.292221 7.78952 0
M  V30 3066 N 289.708 -1.40897 0.706093 0
M  V30 3067 C 290.618 -2.3455 0.0482286 0
M  V30 3068 C 291.634 -1.56796 -0.754396 0
M  V30 3069 O 292.81 -1.89228 -0.689538 0
M  V30 3070 C 289.875 -3.35625 -0.869303 0
M  V30 3071 C 288.936 -4.29261 -0.0576994 0
M  V30 3072 C 288.169 -5.25508 -0.931531 0
M  V30 3073 O 288.392 -5.27472 -2.17092 0
M  V30 3074 O 287.326 -6.00727 -0.375587 0
M  V30 3075 H 291.152 -2.92407 0.820476 0
M  V30 3076 H 288.737 -1.4193 0.4665 0
M  V30 3077 H 290.619 -3.97635 -1.39514 0
M  V30 3078 H 289.294 -2.80196 -1.62086 0
M  V30 3079 H 288.201 -3.70566 0.512988 0
M  V30 3080 H 289.534 -4.87817 0.655426 0
M  V30 3081 N 291.186 -0.45159 -1.50991 0
M  V30 3082 C 292.414 0.108334 -2.06616 0
M  V30 3083 C 292.829 1.35224 -1.31757 0
M  V30 3084 O 292.186 1.78475 -0.381174 0
M  V30 3085 C 292.237 0.41619 -3.59096 0
M  V30 3086 O 291.958 -0.778361 -4.3113 0
M  V30 3087 C 293.459 1.02523 -4.31282 0
M  V30 3088 H 290.679 0.00159995 -0.670998 0
M  V30 3089 H 293.223 -0.634771 -1.94399 0
M  V30 3090 H 291.378 1.10921 -3.71181 0
M  V30 3091 H 291.792 -0.511181 -5.22003 0
M  V30 3092 H 293.266 1.19053 -5.39009 0
M  V30 3093 H 293.743 2.01013 -3.905 0
M  V30 3094 H 294.349 0.371173 -4.23677 0
M  V30 3095 N 292.664 1.56529 -0.183458 0
M  V30 3096 C 293.91 1.97537 0.459036 0
M  V30 3097 C 294.243 1.06989 1.62071 0
M  V30 3098 O 293.518 0.11948 1.94133 0
M  V30 3099 C 293.801 3.47874 0.930368 0
M  V30 3100 C 293.654 4.492 -0.232317 0
M  V30 3101 C 294.973 4.01612 1.79989 0
M  V30 3102 H 292.092 0.718204 0.165383 0
M  V30 3103 H 294.734 1.88042 -0.272038 0
M  V30 3104 H 292.884 3.56095 1.55333 0
M  V30 3105 H 294.556 4.53027 -0.86972 0
M  V30 3106 H 292.799 4.24657 -0.885928 0
M  V30 3107 H 293.47 5.51823 0.139796 0
M  V30 3108 H 295.946 3.96097 1.27461 0
M  V30 3109 H 294.822 5.07195 2.09867 0
M  V30 3110 H 295.083 3.46163 2.74998 0
M  V30 3111 N 294.142 -0.090211 1.57342 0
M  V30 3112 C 295.072 -1.10976 2.05443 0
M  V30 3113 C 296.053 -1.41482 0.944284 0
M  V30 3114 O 297.238 -1.51428 1.21586 0
M  V30 3115 C 294.368 -2.42831 2.48295 0
M  V30 3116 C 293.322 -2.26721 3.63018 0
M  V30 3117 C 292.648 -3.63796 3.91863 0
M  V30 3118 C 293.948 -1.7037 4.93732 0
M  V30 3119 H 295.642 -0.709564 2.9087 0
M  V30 3120 H 293.188 -0.339874 1.39932 0
M  V30 3121 H 295.141 -3.14431 2.80555 0
M  V30 3122 H 293.865 -2.84795 1.59873 0
M  V30 3123 H 292.524 -1.57565 3.31012 0
M  V30 3124 H 292.172 -4.03297 3.00601 0
M  V30 3125 H 291.872 -3.53861 4.69101 0
M  V30 3126 H 293.396 -4.36855 4.26603 0
M  V30 3127 H 294.81 -2.31816 5.24342 0
M  V30 3128 H 293.207 -1.71181 5.75167 0
M  V30 3129 H 294.277 -0.663542 4.80339 0
M  V30 3130 N 295.62 -1.53406 -0.361157 0
M  V30 3131 C 296.845 -1.74024 -1.12829 0
M  V30 3132 C 297.27 -0.470069 -1.82132 0
M  V30 3133 O 296.628 0.57619 -1.719 0
M  V30 3134 C 296.676 -2.90903 -2.13091 0
M  V30 3135 O 295.78 -2.59821 -3.20261 0
M  V30 3136 H 295.121 -0.577804 -0.327168 0
M  V30 3137 H 297.651 -2.00307 -0.41693 0
M  V30 3138 H 297.661 -3.17194 -2.56616 0
M  V30 3139 H 296.336 -3.83034 -1.62042 0
M  V30 3140 H 294.913 -2.44362 -2.81677 0
M  V30 3141 N 297.098 0.621204 -1.44841 0
M  V30 3142 C 298.323 1.41244 -1.51871 0
M  V30 3143 C 298.748 1.87519 -0.147764 0
M  V30 3144 O 298.106 1.59334 0.865 0
M  V30 3145 C 298.154 2.60221 -2.49634 0
M  V30 3146 O 297.258 3.60395 -2.00473 0
M  V30 3147 H 296.599 0.42223 -0.512463 0
M  V30 3148 H 299.129 0.757305 -1.90069 0
M  V30 3149 H 299.139 3.0764 -2.67996 0
M  V30 3150 H 297.814 2.25887 -3.4921 0
M  V30 3151 H 296.391 3.19717 -1.91925 0
M  V30 3152 N 298.576 1.31904 0.862503 0
M  V30 3153 C 299.822 1.23207 1.61838 0
M  V30 3154 C 300.177 -0.206062 1.91293 0
M  V30 3155 O 299.47 -1.14162 1.53875 0
M  V30 3156 C 299.664 2.01713 2.95037 0
M  V30 3157 C 299.493 3.53014 2.78588 0
M  V30 3158 C 298.263 4.22359 2.77382 0
M  V30 3159 C 300.461 4.47819 2.52909 0
M  V30 3160 N 298.443 5.59766 2.52062 0
M  V30 3161 C 299.814 5.72947 2.36922 0
M  V30 3162 C 301.869 4.37162 2.38314 0
M  V30 3163 C 300.572 6.88623 2.07823 0
M  V30 3164 C 302.598 5.5263 2.10604 0
M  V30 3165 C 301.96 6.76752 1.95411 0
M  V30 3166 H 298.059 0.505984 0.596242 0
M  V30 3167 H 300.643 1.66179 1.01452 0
M  V30 3168 H 298.814 1.61098 3.53415 0
M  V30 3169 H 300.546 1.84975 3.59953 0
M  V30 3170 H 297.301 3.74401 2.90036 0
M  V30 3171 H 297.725 6.32135 2.42352 0
M  V30 3172 H 302.367 3.41857 2.48784 0
M  V30 3173 H 300.085 7.83948 1.9609 0
M  V30 3174 H 303.671 5.46307 2.00101 0
M  V30 3175 H 302.551 7.6459 1.74274 0
M  V30 3176 N 300.054 -1.07777 1.14986 0
M  V30 3177 C 301.303 -1.79669 0.916617 0
M  V30 3178 C 301.616 -1.87474 -0.557917 0
M  V30 3179 O 302.822 -2.55845 -0.908617 0
M  V30 3180 C 301.278 -3.22848 1.59051 0
M  V30 3181 C 300.886 -3.23257 3.10176 0
M  V30 3182 C 302.63 -3.99379 1.43864 0
M  V30 3183 C 300.537 -4.61063 3.70372 0
M  V30 3184 H 299.467 -0.673349 0.33929 0
M  V30 3185 H 302.118 -1.21003 1.37951 0
M  V30 3186 H 300.5 -3.8168 1.0553 0
M  V30 3187 H 301.674 -2.74095 3.70417 0
M  V30 3188 H 299.989 -2.60222 3.25074 0
M  V30 3189 H 302.586 -5.0122 1.86232 0
M  V30 3190 H 302.929 -4.14511 0.385564 0
M  V30 3191 H 303.462 -3.47032 1.94457 0
M  V30 3192 H 300.201 -4.51135 4.7556 0
M  V30 3193 H 299.721 -5.1048 3.14913 0
M  V30 3194 H 301.4 -5.30034 3.71043 0
M  V30 3195 N 301.532 -0.945985 -1.26051 0
M  V30 3196 C 302.495 -0.463897 -2.24456 0
M  V30 3197 C 303.495 0.427655 -1.55009 0
M  V30 3198 O 304.685 0.226157 -1.72726 0
M  V30 3199 C 301.817 0.330812 -3.39291 0
M  V30 3200 H 303.01 -1.33357 -2.68619 0
M  V30 3201 H 300.563 -0.728416 -1.38289 0
M  V30 3202 H 301.298 1.21852 -3.00537 0
M  V30 3203 H 301.083 -0.308679 -3.90883 0
M  V30 3204 H 302.573 0.657865 -4.12386 0
M  V30 3205 N 303.011 1.40521 -0.713556 0
M  V30 3206 C 303.958 2.30723 -0.059684 0
M  V30 3207 C 304.928 1.48079 0.752448 0
M  V30 3208 O 306.113 1.76823 0.71681 0
M  V30 3209 C 303.253 3.34274 0.857594 0
M  V30 3210 C 302.366 4.31986 0.0351536 0
M  V30 3211 C 301.501 5.22605 0.951724 0
M  V30 3212 C 300.54 6.11976 0.123253 0
M  V30 3213 N 299.677 6.9502 0.99459 0
M  V30 3214 H 304.517 2.86074 -0.834596 0
M  V30 3215 H 302.054 1.40879 -0.42326 0
M  V30 3216 H 304.012 3.92879 1.40364 0
M  V30 3217 H 302.642 2.8043 1.59871 0
M  V30 3218 H 301.694 3.7518 -0.628052 0
M  V30 3219 H 303.006 4.95101 -0.606347 0
M  V30 3220 H 302.16 5.86131 1.56638 0
M  V30 3221 H 300.899 4.59759 1.62705 0
M  V30 3222 H 299.904 5.47482 -0.50435 0
M  V30 3223 H 301.129 6.76881 -0.548539 0
M  V30 3224 H 299.075 6.34764 1.6556 0
M  V30 3225 H 298.992 7.54892 0.40908 0
M  V30 3226 H 300.26 7.62997 1.59549 0
M  V30 3227 N 304.489 0.459591 1.5075 0
M  V30 3228 C 305.719 -0.0972338 2.06371 0
M  V30 3229 C 306.127 -1.35074 1.32483 0
M  V30 3230 O 305.47 -1.79637 0.384226 0
M  V30 3231 C 305.532 -0.462759 3.56509 0
M  V30 3232 C 305.196 0.687084 4.51805 0
M  V30 3233 C 306.193 1.56578 4.95761 0
M  V30 3234 C 303.878 0.874144 4.94635 0
M  V30 3235 C 305.872 2.61604 5.81242 0
M  V30 3236 C 303.559 1.92765 5.79901 0
M  V30 3237 C 304.557 2.79697 6.23104 0
M  V30 3238 O 304.245 3.83235 7.06673 0
M  V30 3239 H 303.977 -0.00140687 0.675999 0
M  V30 3240 H 306.531 0.644011 1.95043 0
M  V30 3241 H 304.761 -1.25703 3.65699 0
M  V30 3242 H 306.45 -0.953323 3.94546 0
M  V30 3243 H 307.216 1.4329 4.6335 0
M  V30 3244 H 303.095 0.207006 4.60535 0
M  V30 3245 H 306.639 3.29489 6.14884 0
M  V30 3246 H 302.536 2.06064 6.11725 0
M  V30 3247 H 303.304 3.80084 7.24899 0
M  V30 3248 N 305.967 -1.56429 0.191757 0
M  V30 3249 C 307.244 -1.89224 -0.495332 0
M  V30 3250 C 307.624 -1.10478 -1.79883 0
M  V30 3251 O 306.972 -0.204852 -2.2758 0
M  V30 3252 C 307.182 -3.41548 -0.717367 0
M  V30 3253 C 308.53 -4.11711 -1.03823 0
M  V30 3254 O 309.554 -3.4698 -0.805204 0
M  V30 3255 O 308.413 -5.2611 -1.47887 0
M  V30 3256 H 305.507 -0.785788 -0.25781 0
M  V30 3257 H 308.053 -1.68111 0.231721 0
M  V30 3258 H 306.825 -3.90772 0.203287 0
M  V30 3259 H 306.448 -3.68342 -1.497 0
M  V30 3260 N 307.445 0.0818655 -1.57387 0
M  V30 3261 C 308.408 1.08265 -2.02018 0
M  V30 3262 C 309.408 1.32183 -0.915664 0
M  V30 3263 O 310.598 1.28073 -1.18081 0
M  V30 3264 C 307.73 2.42871 -2.39221 0
M  V30 3265 H 308.923 0.698204 -2.91659 0
M  V30 3266 H 306.476 0.327303 -1.52835 0
M  V30 3267 H 307.211 2.86167 -1.52575 0
M  V30 3268 H 306.996 2.26855 -3.19811 0
M  V30 3269 H 308.486 3.14826 -2.74362 0
M  V30 3270 N 308.923 1.53595 0.353017 0
M  V30 3271 C 310.172 1.69603 1.09168 0
M  V30 3272 C 310.485 0.460925 1.90092 0
M  V30 3273 O 311.691 0.501774 2.66823 0
M  V30 3274 C 310.147 2.99872 1.9901 0
M  V30 3275 C 309.755 4.30687 1.23339 0
M  V30 3276 C 311.499 3.25246 2.72792 0
M  V30 3277 C 309.406 5.52036 2.12156 0
M  V30 3278 H 308.336 0.631966 0.411261 0
M  V30 3279 H 310.987 1.80096 0.351802 0
M  V30 3280 H 309.369 2.83212 2.7678 0
M  V30 3281 H 310.543 4.58019 0.505456 0
M  V30 3282 H 308.858 4.11853 0.613663 0
M  V30 3283 H 311.455 4.13095 3.39495 0
M  V30 3284 H 311.798 2.41846 3.38846 0
M  V30 3285 H 312.331 3.42638 2.021 0
M  V30 3286 H 309.07 6.37951 1.50659 0
M  V30 3287 H 308.59 5.28966 2.82764 0
M  V30 3288 H 310.269 5.87313 2.71427 0
M  V30 3289 N 310.401 -0.613514 1.45168 0
M  V30 3290 C 311.631 -1.39743 1.52169 0
M  V30 3291 C 312.039 -1.88596 0.151086 0
M  V30 3292 O 311.382 -1.6251 -0.856521 0
M  V30 3293 C 311.444 -2.64035 2.43979 0
M  V30 3294 C 311.108 -2.36861 3.90827 0
M  V30 3295 C 312.105 -1.97591 4.80889 0
M  V30 3296 C 309.79 -2.49956 4.35692 0
M  V30 3297 C 311.784 -1.71768 6.1382 0
M  V30 3298 C 309.471 -2.23747 5.68665 0
M  V30 3299 C 310.469 -1.84714 6.57548 0
M  V30 3300 O 310.157 -1.58809 7.88058 0
M  V30 3301 H 309.889 -0.434382 0.517966 0
M  V30 3302 H 312.443 -0.75587 1.90986 0
M  V30 3303 H 310.673 -3.3089 2.00122 0
M  V30 3304 H 312.362 -3.26069 2.41731 0
M  V30 3305 H 313.128 -1.87015 4.47493 0
M  V30 3306 H 309.007 -2.79305 3.66756 0
M  V30 3307 H 312.551 -1.41227 6.83155 0
M  V30 3308 H 308.448 -2.33938 6.01617 0
M  V30 3309 H 309.216 -1.7291 8.00028 0
M  V30 3310 N 311.879 -1.3236 -0.855495 0
M  V30 3311 C 313.295 -1.11332 -1.14356 0
M  V30 3312 C 313.495 0.106751 -2.01217 0
M  V30 3313 O 312.551 0.791891 -2.39761 0
M  V30 3314 C 313.864 -2.39237 -1.82171 0
M  V30 3315 C 315.412 -2.44986 -1.9481 0
M  V30 3316 C 315.887 -3.7281 -2.66039 0
M  V30 3317 N 317.378 -3.73787 -2.73565 0
M  V30 3318 C 318.113 -4.69394 -3.29327 0
M  V30 3319 N 317.609 -5.75367 -3.85907 0
M  V30 3320 N 319.402 -4.56893 -3.27423 0
M  V30 3321 H 311.553 -2.10586 -0.277027 0
M  V30 3322 H 313.816 -0.929701 -0.185364 0
M  V30 3323 H 313.522 -3.28431 -1.25802 0
M  V30 3324 H 313.396 -2.50134 -2.82335 0
M  V30 3325 H 315.783 -1.56252 -2.50338 0
M  V30 3326 H 315.864 -2.38043 -0.936448 0
M  V30 3327 H 315.508 -4.61918 -2.11174 0
M  V30 3328 H 315.438 -3.77024 -3.67642 0
M  V30 3329 H 317.929 -2.97189 -2.33424 0
M  V30 3330 H 318.242 -6.44378 -4.26611 0
M  V30 3331 H 316.587 -5.79123 -3.84242 0
M  V30 3332 H 319.778 -3.73269 -2.82467 0
M  V30 3333 H 319.951 -5.31577 -3.7058 0
M  V30 3334 N 313.357 1.07166 -1.15556 0
M  V30 3335 C 314.605 1.79443 -0.929764 0
M  V30 3336 C 314.926 1.87246 0.544414 0
M  V30 3337 O 314.196 1.37473 1.39564 0
M  V30 3338 H 312.776 0.664625 -0.341003 0
M  V30 3339 H 315.438 1.29499 -1.45657 0
M  V30 3340 H 314.534 2.81832 -1.34079 0
M  V30 3341 N 314.835 0.952656 1.25548 0
M  V30 3342 C 315.745 0.47782 2.29682 0
M  V30 3343 C 316.761 -0.453859 1.67977 0
M  V30 3344 O 317.937 -0.330587 1.98668 0
M  V30 3345 C 315.002 -0.238655 3.45878 0
M  V30 3346 C 314.063 0.730994 4.23031 0
M  V30 3347 C 313.296 0.0486165 5.33678 0
M  V30 3348 O 313.519 -1.16612 5.58353 0
M  V30 3349 O 312.453 0.733152 5.97418 0
M  V30 3350 H 316.279 1.34312 2.72386 0
M  V30 3351 H 313.864 0.719026 1.30959 0
M  V30 3352 H 315.746 -0.641774 4.16484 0
M  V30 3353 H 314.421 -1.07916 3.05181 0
M  V30 3354 H 313.328 1.18428 3.5486 0
M  V30 3355 H 314.661 1.53946 4.67506 0
M  V30 3356 N 316.313 -1.40141 0.720998 0
M  V30 3357 C 317.223 -2.34486 0.0731031 0
M  V30 3358 C 318.239 -1.57587 -0.737723 0
M  V30 3359 O 319.415 -1.89949 -0.669429 0
M  V30 3360 C 316.48 -3.36528 -0.833656 0
M  V30 3361 C 315.541 -4.29298 -0.0121673 0
M  V30 3362 C 314.774 -5.26466 -0.875742 0
M  V30 3363 O 314.997 -5.29745 -2.11485 0
M  V30 3364 O 313.931 -6.01092 -0.31185 0
M  V30 3365 H 317.757 -2.9152 0.851444 0
M  V30 3366 H 315.342 -1.41427 0.481527 0
M  V30 3367 H 317.224 -3.99093 -1.35289 0
M  V30 3368 H 315.899 -2.81899 -1.59105 0
M  V30 3369 H 314.806 -3.70001 0.552262 0
M  V30 3370 H 316.139 -4.87094 0.707129 0
M  V30 3371 N 317.792 -0.46758 -1.50504 0
M  V30 3372 C 319.069 0.15003 -1.95024 0
M  V30 3373 C 319.449 1.57304 -1.40779 0
M  V30 3374 O 318.797 2.20281 -0.607319 0
M  V30 3375 C 319.007 0.0969324 -3.48865 0
M  V30 3376 C 320.355 0.287565 -4.23625 0
M  V30 3377 O 321.379 0.173678 -3.55776 0
M  V30 3378 O 320.238 0.517186 -5.44047 0
M  V30 3379 H 317.332 0.113582 -0.819163 0
M  V30 3380 H 319.878 -0.52773 -1.61286 0
M  V30 3381 H 318.65 -0.896732 -3.80886 0
M  V30 3382 H 318.273 0.816303 -3.8913 0
M  V30 3383 N 319.27 1.56325 -0.20005 0
M  V30 3384 C 320.2 2.22318 0.713916 0
M  V30 3385 C 321.181 1.18788 1.21752 0
M  V30 3386 O 322.366 1.47309 1.26545 0
M  V30 3387 C 319.496 2.88639 1.93144 0
M  V30 3388 C 318.45 3.98457 1.56255 0
M  V30 3389 C 317.776 4.51967 2.85709 0
M  V30 3390 C 319.076 5.16612 0.768747 0
M  V30 3391 H 320.77 2.98952 0.163755 0
M  V30 3392 H 318.316 1.43792 0.0773219 0
M  V30 3393 H 320.269 3.33491 2.57608 0
M  V30 3394 H 318.993 2.09419 2.50621 0
M  V30 3395 H 317.652 3.54305 0.941471 0
M  V30 3396 H 317.3 3.69503 3.41287 0
M  V30 3397 H 317 5.26071 2.6177 0
M  V30 3398 H 318.524 4.99523 3.51154 0
M  V30 3399 H 319.938 5.57977 1.3166 0
M  V30 3400 H 318.335 5.96812 0.627286 0
M  V30 3401 H 319.405 4.84358 -0.229168 0
M  V30 3402 N 320.748 -0.0735177 1.57428 0
M  V30 3403 C 321.988 -0.778363 1.89 0
M  V30 3404 C 322.352 -1.7483 0.793634 0
M  V30 3405 O 323.553 -2.49811 0.992367 0
M  V30 3406 C 321.824 -1.46929 3.25802 0
M  V30 3407 S 323.383 -2.20943 3.79117 0
M  V30 3408 H 320.201 -0.258874 0.662197 0
M  V30 3409 H 322.803 -0.0345338 1.95469 0
M  V30 3410 H 321.507 -0.749532 4.03497 0
M  V30 3411 H 321.038 -2.25258 3.22525 0
M  V30 3412 H 323.053 -3.47435 3.54265 0
M  V30 3413 N 322.226 -1.5378 -0.344866 0
M  V30 3414 C 323.173 -1.81676 -1.42346 0
M  V30 3415 C 324.143 -0.662376 -1.52321 0
M  V30 3416 O 325.328 -0.906675 -1.67881 0
M  V30 3417 C 322.468 -2.03087 -2.79015 0
M  V30 3418 C 321.581 -3.30799 -2.77842 0
M  V30 3419 C 320.716 -3.42285 -4.0622 0
M  V30 3420 C 319.755 -4.6395 -3.9927 0
M  V30 3421 N 318.892 -4.72477 -5.19336 0
M  V30 3422 H 323.732 -2.73703 -1.17858 0
M  V30 3423 H 321.269 -1.35568 -0.570949 0
M  V30 3424 H 323.227 -2.1349 -3.58438 0
M  V30 3425 H 321.857 -1.14375 -3.01858 0
M  V30 3426 H 320.909 -3.29244 -1.90533 0
M  V30 3427 H 322.221 -4.20314 -2.68584 0
M  V30 3428 H 321.375 -3.52113 -4.94066 0
M  V30 3429 H 320.114 -2.50823 -4.18258 0
M  V30 3430 H 319.119 -4.54201 -3.09809 0
M  V30 3431 H 320.344 -5.56775 -3.88817 0
M  V30 3432 H 318.29 -3.83924 -5.3192 0
M  V30 3433 H 318.207 -5.55927 -5.12329 0
M  V30 3434 H 319.475 -4.86613 -6.08957 0
M  V30 3435 N 323.704 0.605807 -1.45491 0
M  V30 3436 C 324.636 1.73031 -1.5031 0
M  V30 3437 C 325.649 1.57968 -0.393687 0
M  V30 3438 O 326.838 1.65817 -0.660839 0
M  V30 3439 C 323.938 3.11049 -1.34543 0
M  V30 3440 C 323.111 3.52334 -2.59189 0
M  V30 3441 C 322.17 4.69323 -2.37954 0
M  V30 3442 O 321.196 4.7635 -3.11575 0
M  V30 3443 N 322.398 5.62705 -1.4263 0
M  V30 3444 H 325.163 1.6936 -2.4726 0
M  V30 3445 H 322.724 0.79114 -1.41254 0
M  V30 3446 H 324.716 3.87071 -1.18144 0
M  V30 3447 H 323.286 3.09217 -0.458623 0
M  V30 3448 H 322.506 2.66256 -2.90691 0
M  V30 3449 H 323.794 3.76677 -3.42041 0
M  V30 3450 H 323.192 5.59744 -0.818758 0
M  V30 3451 H 321.749 6.38252 -1.32202 0
M  V30 3452 N 325.182 1.32811 0.848464 0
M  V30 3453 C 326.593 1.21315 1.41914 0
M  V30 3454 C 326.944 -0.171847 1.95446 0
M  V30 3455 O 326.069 -1.07093 1.88043 0
M  V30 3456 C 326.664 2.19631 2.57968 0
M  V30 3457 C 325.223 2.12003 3.11017 0
M  V30 3458 C 324.37 2.07651 1.83783 0
M  V30 3459 H 327.321 1.44549 0.655071 0
M  V30 3460 H 327.342 1.79845 3.35315 0
M  V30 3461 H 326.854 3.20423 2.18976 0
M  V30 3462 H 324.955 1.14481 3.54577 0
M  V30 3463 H 325.068 3.02111 3.71841 0
M  V30 3464 H 323.432 1.52983 2.03638 0
M  V30 3465 H 324.215 3.10235 1.47 0
M  V30 3466 N 326.66 -1.06551 1.16123 0
M  V30 3467 C 327.608 -2.16063 0.861371 0
M  V30 3468 C 328.602 -1.6856 -0.168517 0
M  V30 3469 O 329.808 -1.79986 -0.0227579 0
M  V30 3470 H 326.183 -0.705278 0.260934 0
M  V30 3471 H 328.154 -2.38567 1.79244 0
M  V30 3472 C 326.903 -3.45661 0.376018 0
M  V30 3473 H 326.226 -3.82604 1.15992 0
M  V30 3474 H 327.666 -4.23504 0.204951 0
M  V30 3475 C 326.125 -3.24546 -0.903954 0
M  V30 3476 O 326.655 -3.49865 -1.97377 0
M  V30 3477 N 324.861 -2.77992 -0.846679 0
M  V30 3478 H 324.408 -2.57589 0.0241017 0
M  V30 3479 H 324.366 -2.64244 -1.70359 0
M  V30 3480 N 328.138 -0.959301 -1.25041 0
M  V30 3481 C 329.554 -0.664474 -1.4511 0
M  V30 3482 C 329.754 0.776481 -1.85938 0
M  V30 3483 O 328.81 1.55128 -1.99227 0
M  V30 3484 C 330.123 -1.64139 -2.5195 0
M  V30 3485 C 331.671 -1.65309 -2.65786 0
M  V30 3486 C 332.146 -2.61777 -3.75815 0
M  V30 3487 N 333.637 -2.60169 -3.83231 0
M  V30 3488 C 334.372 -3.31489 -4.6787 0
M  V30 3489 N 333.868 -4.12298 -5.56761 0
M  V30 3490 N 335.661 -3.20354 -4.61876 0
M  V30 3491 H 327.812 -1.89043 -0.968332 0
M  V30 3492 H 330.075 -0.813408 -0.4869 0
M  V30 3493 H 329.781 -2.67086 -2.28819 0
M  V30 3494 H 329.655 -1.40756 -3.49954 0
M  V30 3495 H 332.042 -0.630778 -2.8828 0
M  V30 3496 H 332.123 -1.92753 -1.68167 0
M  V30 3497 H 331.767 -3.64137 -3.54071 0
M  V30 3498 H 331.697 -2.31616 -4.72929 0
M  V30 3499 H 334.188 -2.01507 -3.19692 0
M  V30 3500 H 334.501 -4.63625 -6.18281 0
M  V30 3501 H 332.846 -4.16395 -5.56454 0
M  V30 3502 H 336.037 -2.56692 -3.91442 0
M  V30 3503 H 336.21 -3.76201 -5.27614 0
M  V30 3504 N 329.616 1.39756 -0.72842 0
M  V30 3505 C 330.549 2.28176 -0.0330172 0
M  V30 3506 C 331.527 1.44035 0.754501 0
M  V30 3507 O 332.711 1.73434 0.738445 0
M  V30 3508 C 329.838 3.24795 0.960504 0
M  V30 3509 C 328.884 4.25693 0.262264 0
M  V30 3510 S 329.717 5.25714 -1.01906 0
M  V30 3511 C 330.873 6.25894 -0.0279717 0
M  V30 3512 H 331.106 2.86807 -0.78287 0
M  V30 3513 H 328.639 1.45382 -0.519951 0
M  V30 3514 H 330.597 3.80983 1.52846 0
M  V30 3515 H 329.258 2.65196 1.68315 0
M  V30 3516 H 328.451 4.93699 1.01379 0
M  V30 3517 H 328.053 3.7327 -0.233482 0
M  V30 3518 H 330.345 6.72585 0.814621 0
M  V30 3519 H 331.288 7.04876 -0.67499 0
M  V30 3520 H 331.696 5.63466 0.341489 0
M  V30 3521 N 331.094 0.475555 1.50254 0
M  V30 3522 C 332.057 -0.305016 2.27161 0
M  V30 3523 C 333.057 -0.916519 1.32123 0
M  V30 3524 O 334.247 -0.785003 1.5551 0
M  V30 3525 C 331.379 -1.43496 3.09227 0
M  V30 3526 H 332.572 0.369511 2.97615 0
M  V30 3527 H 330.125 0.229747 1.54602 0
M  V30 3528 H 330.86 -2.14441 2.43281 0
M  V30 3529 H 330.645 -1.00223 3.79075 0
M  V30 3530 H 332.135 -1.98548 3.67381 0
M  V30 3531 N 332.573 -1.56217 0.208337 0
M  V30 3532 C 333.503 -2.22694 -0.702116 0
M  V30 3533 C 334.484 -1.19432 -1.2112 0
M  V30 3534 O 335.669 -1.47978 -1.25762 0
M  V30 3535 C 332.799 -2.8966 -1.9161 0
M  V30 3536 C 331.753 -3.9928 -1.5414 0
M  V30 3537 C 331.079 -4.53476 -2.83308 0
M  V30 3538 C 332.379 -5.17012 -0.741339 0
M  V30 3539 H 334.073 -2.99034 -0.147898 0
M  V30 3540 H 331.619 -1.43831 -0.0696951 0
M  V30 3541 H 333.572 -3.34852 -2.55836 0
M  V30 3542 H 332.296 -2.10746 -2.49507 0
M  V30 3543 H 330.955 -3.54799 -0.922668 0
M  V30 3544 H 330.603 -3.71308 -3.39322 0
M  V30 3545 H 330.303 -5.27451 -2.58976 0
M  V30 3546 H 331.827 -5.01378 -3.485 0
M  V30 3547 H 333.241 -5.58667 -1.28699 0
M  V30 3548 H 331.638 -5.97137 -0.595627 0
M  V30 3549 H 332.708 -4.8423 0.254851 0
M  V30 3550 N 334.051 0.0651679 -1.57465 0
M  V30 3551 C 335.276 0.779605 -1.9219 0
M  V30 3552 C 335.701 1.69988 -0.805333 0
M  V30 3553 O 335.059 1.79685 0.241435 0
M  V30 3554 C 335.107 1.54364 -3.2589 0
M  V30 3555 O 334.211 2.65474 -3.1559 0
M  V30 3556 H 333.552 0.212249 -0.629163 0
M  V30 3557 H 336.082 0.0314294 -2.04576 0
M  V30 3558 H 336.092 1.92146 -3.59922 0
M  V30 3559 H 334.767 0.868457 -4.06732 0
M  V30 3560 H 333.344 2.30501 -2.93128 0
M  V30 3561 N 335.529 1.53961 0.336706 0
M  V30 3562 C 336.492 1.81724 1.39675 0
M  V30 3563 C 337.492 0.688532 1.45313 0
M  V30 3564 O 338.682 0.956829 1.45569 0
M  V30 3565 C 335.814 1.96543 2.78538 0
M  V30 3566 H 337.007 2.76424 1.16318 0
M  V30 3567 H 334.56 1.45478 0.571474 0
M  V30 3568 H 335.295 1.0401 3.07168 0
M  V30 3569 H 335.08 2.78665 2.75841 0
M  V30 3570 H 336.57 2.19516 3.5525 0
M  V30 3571 N 337.007 -0.598083 1.45811 0
M  V30 3572 C 338.253 -1.35882 1.50545 0
M  V30 3573 C 338.586 -1.93616 0.150445 0
M  V30 3574 O 337.861 -1.75604 -0.83628 0
M  V30 3575 C 338.144 -2.49966 2.59208 0
M  V30 3576 C 337.997 -1.97367 4.04186 0
M  V30 3577 C 339.316 -3.52068 2.64076 0
M  V30 3578 H 336.435 -0.492717 0.548087 0
M  V30 3579 H 339.077 -0.673319 1.77669 0
M  V30 3580 H 337.227 -3.08443 2.3621 0
M  V30 3581 H 338.899 -1.43466 4.38423 0
M  V30 3582 H 337.142 -1.283 4.14393 0
M  V30 3583 H 337.813 -2.79649 4.75921 0
M  V30 3584 H 340.289 -3.03448 2.84708 0
M  V30 3585 H 339.165 -4.2937 3.41954 0
M  V30 3586 H 339.426 -4.08304 1.69531 0
M  V30 3587 N 338.485 -1.33259 -0.841409 0
M  V30 3588 C 339.71 -1.2775 -1.63385 0
M  V30 3589 C 340.135 0.149188 -1.87507 0
M  V30 3590 O 339.493 1.10498 -1.43736 0
M  V30 3591 C 339.541 -2.05571 -2.96265 0
M  V30 3592 O 338.645 -1.41257 -3.87453 0
M  V30 3593 H 337.986 -0.439627 -0.497618 0
M  V30 3594 H 340.516 -1.75782 -1.04699 0
M  V30 3595 H 340.526 -2.16241 -3.45982 0
M  V30 3596 H 339.201 -3.09309 -2.7803 0
M  V30 3597 H 337.778 -1.39217 -3.45938 0
M  V30 3598 N 339.963 1.05934 -1.16686 0
M  V30 3599 C 340.873 2.17014 -0.891183 0
M  V30 3600 C 341.889 1.73453 0.137907 0
M  V30 3601 O 343.065 2.01361 -0.039592 0
M  V30 3602 C 340.13 3.44384 -0.400099 0
M  V30 3603 C 339.191 4.02433 -1.49486 0
M  V30 3604 C 338.424 5.23723 -1.02711 0
M  V30 3605 O 338.647 5.7027 0.121716 0
M  V30 3606 O 337.581 5.7382 -1.81699 0
M  V30 3607 H 341.407 2.43113 -1.82015 0
M  V30 3608 H 338.992 1.15541 -0.947132 0
M  V30 3609 H 340.874 4.21189 -0.133392 0
M  V30 3610 H 339.549 3.19802 0.500817 0
M  V30 3611 H 338.456 3.27102 -1.81535 0
M  V30 3612 H 339.789 4.31317 -2.37121 0
M  V30 3613 N 341.441 0.965919 1.2453 0
M  V30 3614 C 342.371 0.513476 2.27784 0
M  V30 3615 C 343.352 -0.445974 1.6415 0
M  V30 3616 O 344.537 -0.342485 1.91156 0
M  V30 3617 C 341.667 -0.198839 3.4673 0
M  V30 3618 C 340.621 0.676456 4.2262 0
M  V30 3619 C 339.947 -0.167248 5.34438 0
M  V30 3620 C 341.247 1.96017 4.84123 0
M  V30 3621 H 342.941 1.3765 2.65881 0
M  V30 3622 H 340.487 0.663321 1.27813 0
M  V30 3623 H 342.44 -0.526567 4.18097 0
M  V30 3624 H 341.164 -1.0962 3.07654 0
M  V30 3625 H 339.823 0.98743 3.53052 0
M  V30 3626 H 339.471 -1.0647 4.91603 0
M  V30 3627 H 339.171 0.415181 5.86131 0
M  V30 3628 H 340.695 -0.489688 6.08633 0
M  V30 3629 H 342.109 1.69814 5.47573 0
M  V30 3630 H 340.506 2.48918 5.4604 0
M  V30 3631 H 341.576 2.65622 4.05676 0
M  V30 3632 N 342.919 -1.39368 0.735821 0
M  V30 3633 C 344.168 -1.99733 0.281004 0
M  V30 3634 C 344.481 -1.59055 -1.13846 0
M  V30 3635 O 345.687 -2.12262 -1.69284 0
M  V30 3636 C 344.143 -3.57057 0.451462 0
M  V30 3637 C 343.751 -4.06697 1.87886 0
M  V30 3638 C 345.495 -4.2446 0.0584616 0
M  V30 3639 C 343.402 -5.56598 1.99883 0
M  V30 3640 H 342.332 -0.747163 0.101311 0
M  V30 3641 H 344.983 -1.59357 0.909819 0
M  V30 3642 H 343.365 -3.95234 -0.246263 0
M  V30 3643 H 344.539 -3.79853 2.60861 0
M  V30 3644 H 342.854 -3.5196 2.22515 0
M  V30 3645 H 345.451 -5.34549 0.127099 0
M  V30 3646 H 345.794 -4.04444 -0.986433 0
M  V30 3647 H 346.327 -3.9146 0.707374 0
M  V30 3648 H 343.066 -5.81494 3.02564 0
M  V30 3649 H 342.586 -5.85242 1.31346 0
M  V30 3650 H 344.265 -6.22022 1.78039 0
M  V30 3651 N 344.397 -0.483516 -1.5 0
M  V30 3652 C 345.327 0.293829 -2.31644 0
M  V30 3653 C 346.308 0.978864 -1.39112 0
M  V30 3654 O 347.493 0.973644 -1.68029 0
M  V30 3655 C 344.623 1.36897 -3.19181 0
M  V30 3656 C 343.577 0.804833 -4.20365 0
M  V30 3657 C 342.903 1.9792 -4.96721 0
M  V30 3658 C 344.203 -0.192313 -5.21946 0
M  V30 3659 H 345.897 -0.387616 -2.9688 0
M  V30 3660 H 343.443 -0.187856 -1.42769 0
M  V30 3661 H 345.396 1.92037 -3.751 0
M  V30 3662 H 344.12 2.07936 -2.51853 0
M  V30 3663 H 342.779 0.275319 -3.65565 0
M  V30 3664 H 342.427 2.67686 -4.25856 0
M  V30 3665 H 342.127 1.60789 -5.65173 0
M  V30 3666 H 343.651 2.53526 -5.55479 0
M  V30 3667 H 345.065 0.270333 -5.72662 0
M  V30 3668 H 343.462 -0.478543 -5.98189 0
M  V30 3669 H 344.532 -1.11409 -4.71928 0
M  V30 3670 N 345.875 1.56104 -0.216619 0
M  V30 3671 C 347.1 2.0301 0.424462 0
M  V30 3672 C 347.525 1.0955 1.52907 0
M  V30 3673 O 346.883 0.0827914 1.81111 0
M  V30 3674 C 346.931 3.4819 0.937883 0
M  V30 3675 O 346.035 3.57865 2.04955 0
M  V30 3676 H 345.376 0.656925 0.0966755 0
M  V30 3677 H 347.906 2.01859 -0.33381 0
M  V30 3678 H 347.916 3.88413 1.24897 0
M  V30 3679 H 346.591 4.15699 0.129387 0
M  V30 3680 H 345.168 3.29527 1.74546 0
M  V30 3681 N 347.353 -0.0568162 1.57498 0
M  V30 3682 C 348.3 -1.06591 2.04712 0
M  V30 3683 C 349.27 -1.3758 0.930644 0
M  V30 3684 O 350.455 -1.48392 1.19935 0
M  V30 3685 C 347.595 -2.3701 2.50839 0
M  V30 3686 C 346.708 -2.12421 3.76167 0
M  V30 3687 C 345.843 -3.36511 4.11015 0
M  V30 3688 C 344.882 -3.07353 5.2934 0
M  V30 3689 N 344.019 -4.23816 5.59754 0
M  V30 3690 H 348.859 -0.65631 2.90683 0
M  V30 3691 H 346.396 -0.312481 1.43743 0
M  V30 3692 H 348.354 -3.13175 2.7564 0
M  V30 3693 H 346.984 -2.75744 1.67825 0
M  V30 3694 H 346.036 -1.2688 3.58616 0
M  V30 3695 H 347.348 -1.86894 4.62463 0
M  V30 3696 H 346.502 -4.21062 4.36797 0
M  V30 3697 H 345.241 -3.65128 3.23315 0
M  V30 3698 H 344.246 -2.212 5.03339 0
M  V30 3699 H 345.471 -2.80043 6.1867 0
M  V30 3700 H 343.417 -4.52436 4.75014 0
M  V30 3701 H 343.334 -4.01614 6.40501 0
M  V30 3702 H 344.602 -5.0932 5.90096 0
M  V30 3703 N 348.832 -1.54138 -0.328536 0
M  V30 3704 C 349.742 -1.86192 -1.42723 0
M  V30 3705 C 350.758 -0.753382 -1.56844 0
M  V30 3706 O 351.934 -1.04718 -1.72035 0
M  V30 3707 C 348.999 -2.07824 -2.77507 0
M  V30 3708 C 348.06 -3.31641 -2.72603 0
M  V30 3709 C 347.293 -3.52232 -4.00959 0
M  V30 3710 O 347.516 -2.7636 -4.9898 0
M  V30 3711 O 346.45 -4.45699 -4.0452 0
M  V30 3712 H 350.276 -2.79608 -1.18547 0
M  V30 3713 H 347.861 -1.3998 -0.522104 0
M  V30 3714 H 349.743 -2.23411 -3.57303 0
M  V30 3715 H 348.418 -1.17596 -3.01584 0
M  V30 3716 H 347.325 -3.21444 -1.91376 0
M  V30 3717 H 348.658 -4.2191 -2.53481 0
M  V30 3718 N 350.31 0.590341 -1.46126 0
M  V30 3719 C 351.242 1.71427 -1.52136 0
M  V30 3720 C 352.255 1.57542 -0.41042 0
M  V30 3721 O 353.444 1.65106 -0.678389 0
M  V30 3722 C 350.544 3.09605 -1.37834 0
M  V30 3723 C 349.717 3.49566 -2.62912 0
M  V30 3724 C 348.776 4.66773 -2.42918 0
M  V30 3725 O 347.802 4.73019 -3.1661 0
M  V30 3726 N 349.004 5.61161 -1.4859 0
M  V30 3727 H 351.769 1.66728 -2.49042 0
M  V30 3728 H 349.33 0.776113 -1.42085 0
M  V30 3729 H 351.322 3.85796 -1.22243 0
M  V30 3730 H 349.892 3.08714 -0.491393 0
M  V30 3731 H 349.112 2.63158 -2.93499 0
M  V30 3732 H 350.4 3.73028 -3.46017 0
M  V30 3733 H 349.798 5.58844 -0.87808 0
M  V30 3734 H 348.355 6.36814 -1.38965 0
M  V30 3735 N 351.788 1.33704 0.83433 0
M  V30 3736 C 352.718 1.26967 1.95963 0
M  V30 3737 C 353.699 0.149337 1.69443 0
M  V30 3738 O 354.884 0.339852 1.91203 0
M  V30 3739 C 352.014 1.01275 3.32206 0
M  V30 3740 C 350.968 2.09652 3.73136 0
M  V30 3741 C 350.294 1.69166 5.07235 0
M  V30 3742 C 351.594 3.51372 3.86439 0
M  V30 3743 H 353.288 2.2112 2.01857 0
M  V30 3744 H 350.834 1.06447 0.969793 0
M  V30 3745 H 352.787 0.952106 4.10503 0
M  V30 3746 H 351.511 0.0356203 3.26581 0
M  V30 3747 H 350.17 2.14766 2.97104 0
M  V30 3748 H 349.818 0.701437 4.98085 0
M  V30 3749 H 349.518 2.41694 5.35591 0
M  V30 3750 H 351.042 1.64576 5.88003 0
M  V30 3751 H 352.456 3.48734 4.55036 0
M  V30 3752 H 350.853 4.22425 4.26236 0
M  V30 3753 H 351.923 3.89546 2.88759 0
M  V30 3754 N 353.266 -1.05314 1.17247 0
M  V30 3755 C 354.496 -1.81707 0.983166 0
M  V30 3756 C 354.904 -1.83222 -0.471822 0
M  V30 3757 O 354.247 -1.25721 -1.3394 0
M  V30 3758 C 354.309 -3.29134 1.44606 0
M  V30 3759 C 353.973 -3.51304 2.92292 0
M  V30 3760 C 354.97 -3.4353 3.90235 0
M  V30 3761 C 352.655 -3.78306 3.30439 0
M  V30 3762 C 354.649 -3.62442 5.24323 0
M  V30 3763 C 352.336 -3.96866 4.64694 0
M  V30 3764 C 353.334 -3.88933 5.61445 0
M  V30 3765 O 353.022 -4.06976 6.93272 0
M  V30 3766 H 352.754 -0.579476 0.348114 0
M  V30 3767 H 355.308 -1.33705 1.55924 0
M  V30 3768 H 353.538 -3.78046 0.813537 0
M  V30 3769 H 355.227 -3.87049 1.22262 0
M  V30 3770 H 355.993 -3.22648 3.62109 0
M  V30 3771 H 351.872 -3.83585 2.55702 0
M  V30 3772 H 355.416 -3.56165 5.99827 0
M  V30 3773 H 351.313 -4.1724 4.92525 0
M  V30 3774 H 352.081 -4.24209 6.99992 0
M  V30 3775 N 354.744 -0.972509 -1.24016 0
M  V30 3776 C 355.654 -0.5143 -2.28893 0
M  V30 3777 C 356.67 0.427078 -1.68677 0
M  V30 3778 O 357.846 0.298939 -1.99169 0
M  V30 3779 C 354.911 0.183598 -3.46214 0
M  V30 3780 C 353.972 -0.798202 -4.21814 0
M  V30 3781 C 353.205 -0.133514 -5.33533 0
M  V30 3782 O 353.428 1.07714 -5.60137 0
M  V30 3783 O 352.362 -0.828103 -5.96176 0
M  V30 3784 H 356.188 -1.38629 -2.70214 0
M  V30 3785 H 353.773 -0.739769 -1.29799 0
M  V30 3786 H 355.655 0.575433 -4.17453 0
M  V30 3787 H 354.33 1.03048 -3.0686 0
M  V30 3788 H 353.237 -1.24059 -3.52931 0
M  V30 3789 H 354.57 -1.61364 -4.64997 0
M  V30 3790 N 356.222 1.38976 -0.743202 0
M  V30 3791 C 357.155 2.28128 -0.0572165 0
M  V30 3792 C 358.133 1.44827 0.739182 0
M  V30 3793 O 359.317 1.74207 0.720009 0
M  V30 3794 C 356.444 3.25796 0.926001 0
M  V30 3795 C 355.49 4.25947 0.217099 0
M  V30 3796 S 356.323 5.24604 -1.07477 0
M  V30 3797 C 357.479 6.25829 -0.0943545 0
M  V30 3798 H 357.712 2.85961 -0.813246 0
M  V30 3799 H 355.245 1.44822 -0.535341 0
M  V30 3800 H 357.203 3.82583 1.48797 0
M  V30 3801 H 355.864 2.66966 1.65493 0
M  V30 3802 H 355.057 4.94746 0.961372 0
M  V30 3803 H 354.659 3.73002 -0.273059 0
M  V30 3804 H 356.951 6.73411 0.743239 0
M  V30 3805 H 357.894 7.0412 -0.749713 0
M  V30 3806 H 358.302 5.63797 0.281706 0
M  V30 3807 N 357.7 0.491464 1.49741 0
M  V30 3808 C 358.947 -0.0564256 2.02421 0
M  V30 3809 C 359.275 -1.37872 1.37192 0
M  V30 3810 O 358.53 -1.89375 0.493508 0
M  V30 3811 C 358.829 -0.267329 3.56399 0
M  V30 3812 C 358.495 0.975775 4.40215 0
M  V30 3813 C 357.157 1.31655 4.62839 0
M  V30 3814 C 359.509 1.80251 4.89039 0
M  V30 3815 C 356.837 2.48375 5.31532 0
M  V30 3816 C 359.189 2.96116 5.59015 0
M  V30 3817 C 357.853 3.30585 5.79888 0
M  V30 3818 H 357.123 -0.0206476 0.740712 0
M  V30 3819 H 359.77 0.649686 1.80143 0
M  V30 3820 H 358.075 -1.05588 3.77304 0
M  V30 3821 H 359.772 -0.705549 3.94744 0
M  V30 3822 H 356.362 0.700315 4.2284 0
M  V30 3823 H 360.546 1.55239 4.71396 0
M  V30 3824 H 355.802 2.7533 5.45897 0
M  V30 3825 H 359.976 3.60509 5.95824 0
M  V30 3826 H 357.603 4.21132 6.32892 0
M  V30 3827 N 359.178 -1.55987 0.224894 0
M  V30 3828 C 360.11 -2.17722 -0.716224 0
M  V30 3829 C 361.123 -1.14723 -1.15509 0
M  V30 3830 O 362.312 -1.41688 -1.08567 0
M  V30 3831 C 359.412 -2.74873 -1.98238 0
M  V30 3832 C 358.585 -4.03074 -1.69853 0
M  V30 3833 C 357.644 -4.44757 -2.81208 0
M  V30 3834 O 356.67 -5.11587 -2.49534 0
M  V30 3835 N 357.872 -4.10716 -4.10235 0
M  V30 3836 H 360.637 -2.99109 -0.188123 0
M  V30 3837 H 358.198 -1.6184 0.0440123 0
M  V30 3838 H 360.19 -2.99727 -2.7193 0
M  V30 3839 H 358.76 -1.9777 -2.42086 0
M  V30 3840 H 357.98 -3.86041 -0.797875 0
M  V30 3841 H 359.268 -4.86701 -1.48324 0
M  V30 3842 H 358.666 -3.57019 -4.38809 0
M  V30 3843 H 357.223 -4.40455 -4.80461 0
M  V30 3844 N 360.656 0.0484629 -1.57525 0
M  V30 3845 C 361.588 1.08222 -2.02041 0
M  V30 3846 C 362.601 1.33621 -0.930012 0
M  V30 3847 O 363.79 1.3145 -1.20761 0
M  V30 3848 C 360.89 2.42818 -2.36416 0
M  V30 3849 C 360.063 2.37049 -3.67596 0
M  V30 3850 C 359.122 3.53937 -3.89378 0
M  V30 3851 O 358.148 3.34308 -4.60681 0
M  V30 3852 N 359.35 4.75126 -3.3352 0
M  V30 3853 H 362.115 0.702946 -2.9134 0
M  V30 3854 H 359.676 0.236745 -1.6016 0
M  V30 3855 H 361.668 3.197 -2.48141 0
M  V30 3856 H 360.238 2.72661 -1.52888 0
M  V30 3857 H 359.458 1.45395 -3.66407 0
M  V30 3858 H 360.746 2.30318 -4.53686 0
M  V30 3859 H 360.144 4.93976 -2.75688 0
M  V30 3860 H 358.701 5.49439 -3.50656 0
M  V30 3861 N 362.134 1.5431 0.320358 0
M  V30 3862 C 363.383 1.7188 1.05546 0
M  V30 3863 C 363.696 0.501143 1.89071 0
M  V30 3864 O 364.902 0.558258 2.65699 0
M  V30 3865 C 363.358 3.04025 1.92605 0
M  V30 3866 C 362.966 4.33207 1.14176 0
M  V30 3867 C 364.71 3.30959 2.65832 0
M  V30 3868 C 362.617 5.56412 2.00399 0
M  V30 3869 H 361.547 0.640547 0.397763 0
M  V30 3870 H 364.198 1.80802 0.313522 0
M  V30 3871 H 362.58 2.89019 2.7071 0
M  V30 3872 H 363.754 4.58989 0.40819 0
M  V30 3873 H 362.069 4.13062 0.526165 0
M  V30 3874 H 364.666 4.20203 3.30656 0
M  V30 3875 H 365.009 2.48979 3.33639 0
M  V30 3876 H 365.542 3.46847 1.94787 0
M  V30 3877 H 362.281 6.41004 1.37094 0
M  V30 3878 H 361.801 5.34844 2.7148 0
M  V30 3879 H 363.48 5.92938 2.58908 0
M  V30 3880 N 363.613 -0.582584 1.46437 0
M  V30 3881 C 364.543 -1.70187 1.59871 0
M  V30 3882 C 365.524 -1.64066 0.449042 0
M  V30 3883 O 366.709 -1.82081 0.6753 0
M  V30 3884 C 363.839 -3.08827 1.58881 0
M  V30 3885 C 362.793 -3.29779 2.72819 0
M  V30 3886 C 362.119 -4.68947 2.5689 0
M  V30 3887 C 363.419 -3.17601 4.1464 0
M  V30 3888 H 365.113 -1.592 2.53566 0
M  V30 3889 H 362.659 -0.764472 1.22032 0
M  V30 3890 H 364.612 -3.86951 1.66873 0
M  V30 3891 H 363.336 -3.20713 0.617306 0
M  V30 3892 H 361.995 -2.54054 2.64296 0
M  V30 3893 H 361.643 -4.77599 1.57823 0
M  V30 3894 H 361.343 -4.83919 3.33312 0
M  V30 3895 H 362.867 -5.4924 2.66773 0
M  V30 3896 H 364.281 -3.8557 4.24274 0
M  V30 3897 H 362.678 -3.44094 4.9165 0
M  V30 3898 H 363.748 -2.14681 4.34788 0
M  V30 3899 N 365.091 -1.34144 -0.827227 0
M  V30 3900 C 366.339 -1.26009 -1.58007 0
M  V30 3901 C 366.66 0.170971 -1.94249 0
M  V30 3902 O 365.93 1.10256 -1.61927 0
M  V30 3903 H 364.51 -0.463414 -0.585881 0
M  V30 3904 H 367.172 -1.68005 -0.987951 0
M  V30 3905 H 366.268 -1.86187 -2.50481 0
M  V30 3906 N 366.569 1.04691 -1.17803 0
M  V30 3907 C 367.818 1.77176 -0.963931 0
M  V30 3908 C 368.131 1.88888 0.508015 0
M  V30 3909 O 369.337 2.58164 0.840465 0
M  V30 3910 C 367.793 3.18518 -1.67555 0
M  V30 3911 C 367.401 3.14919 -3.18637 0
M  V30 3912 C 369.145 3.95424 -1.54402 0
M  V30 3913 C 367.052 4.51081 -3.82466 0
M  V30 3914 H 365.982 0.664116 -0.357023 0
M  V30 3915 H 368.633 1.17303 -1.4111 0
M  V30 3916 H 367.015 3.78748 -1.15613 0
M  V30 3917 H 368.189 2.64178 -3.77554 0
M  V30 3918 H 366.504 2.51512 -3.31859 0
M  V30 3919 H 369.101 4.96106 -1.99456 0
M  V30 3920 H 369.444 4.13343 -0.495329 0
M  V30 3921 H 369.977 3.41754 -2.0359 0
M  V30 3922 H 366.716 4.38368 -4.87354 0
M  V30 3923 H 366.236 5.01951 -3.28337 0
M  V30 3924 H 367.915 5.2001 -3.84965 0
M  V30 3925 N 368.047 0.979072 1.23499 0
M  V30 3926 C 368.994 0.517904 2.24914 0
M  V30 3927 C 369.964 -0.442525 1.60097 0
M  V30 3928 O 371.149 -0.350365 1.87556 0
M  V30 3929 C 368.289 -0.174813 3.44657 0
M  V30 3930 C 367.402 0.825721 4.24035 0
M  V30 3931 C 366.537 0.107946 5.3109 0
M  V30 3932 C 365.576 1.09778 6.02175 0
M  V30 3933 N 364.713 0.40925 7.00906 0
M  V30 3934 H 369.553 1.38751 2.63727 0
M  V30 3935 H 367.09 0.695303 1.2963 0
M  V30 3936 H 369.048 -0.593233 4.12961 0
M  V30 3937 H 367.678 -1.0083 3.06648 0
M  V30 3938 H 366.73 1.36253 3.55161 0
M  V30 3939 H 368.042 1.58005 4.73113 0
M  V30 3940 H 367.196 -0.367904 6.05583 0
M  V30 3941 H 365.935 -0.678994 4.8295 0
M  V30 3942 H 364.94 1.5844 5.26476 0
M  V30 3943 H 366.165 1.88536 6.52404 0
M  V30 3944 H 364.111 -0.358506 6.5502 0
M  V30 3945 H 364.028 1.10226 7.47921 0
M  V30 3946 H 365.296 -0.0442557 7.79487 0
M  V30 3947 N 369.525 -1.3858 0.750561 0
M  V30 3948 C 370.472 -2.30483 0.120835 0
M  V30 3949 C 371.442 -1.50022 -0.712923 0
M  V30 3950 O 372.627 -1.78662 -0.669676 0
M  V30 3951 C 369.767 -3.36431 -0.768666 0
M  V30 3952 C 368.88 -4.31927 0.0793922 0
M  V30 3953 C 368.015 -5.24944 -0.81283 0
M  V30 3954 C 367.054 -6.12088 0.0390447 0
M  V30 3955 N 366.191 -6.97412 -0.809969 0
M  V30 3956 H 371.031 -2.83761 0.91015 0
M  V30 3957 H 368.568 -1.39707 0.460463 0
M  V30 3958 H 370.526 -3.96462 -1.29898 0
M  V30 3959 H 369.156 -2.8457 -1.5238 0
M  V30 3960 H 368.208 -3.73382 0.727303 0
M  V30 3961 H 369.52 -4.93319 0.737401 0
M  V30 3962 H 368.674 -5.90078 -1.41042 0
M  V30 3963 H 367.413 -4.63911 -1.50458 0
M  V30 3964 H 366.418 -5.45952 0.649328 0
M  V30 3965 H 367.643 -6.75189 0.727809 0
M  V30 3966 H 365.589 -6.38931 -1.48672 0
M  V30 3967 H 365.506 -7.55712 -0.208789 0
M  V30 3968 H 366.774 -7.66959 -1.39263 0
M  V30 3969 N 371.003 -0.499398 -1.49478 0
M  V30 3970 C 371.933 0.269244 -2.31943 0
M  V30 3971 C 372.914 0.964054 -1.40143 0
M  V30 3972 O 374.099 0.955767 -1.69052 0
M  V30 3973 C 371.229 1.33504 -3.20615 0
M  V30 3974 C 370.183 0.760202 -4.21195 0
M  V30 3975 C 369.509 1.9264 -4.98792 0
M  V30 3976 C 370.809 -0.247661 -5.21712 0
M  V30 3977 H 372.503 -0.419082 -2.96452 0
M  V30 3978 H 370.049 -0.202988 -1.42562 0
M  V30 3979 H 372.002 1.88048 -3.77115 0
M  V30 3980 H 370.726 2.05253 -2.54045 0
M  V30 3981 H 369.385 0.23653 -3.65836 0
M  V30 3982 H 369.033 2.63154 -4.28671 0
M  V30 3983 H 368.733 1.54785 -5.66847 0
M  V30 3984 H 370.257 2.4762 -5.58137 0
M  V30 3985 H 371.671 0.209579 -5.72917 0
M  V30 3986 H 370.068 -0.541962 -5.97648 0
M  V30 3987 H 371.138 -1.16409 -4.7072 0
M  V30 3988 N 372.481 1.55866 -0.233164 0
M  V30 3989 C 373.391 2.24431 0.683217 0
M  V30 3990 C 374.407 1.2558 1.2044 0
M  V30 3991 O 375.583 1.58422 1.24356 0
M  V30 3992 C 372.648 2.91979 1.86947 0
M  V30 3993 C 371.709 4.06204 1.38912 0
M  V30 3994 C 370.942 4.70522 2.51883 0
M  V30 3995 O 371.165 4.33865 3.70293 0
M  V30 3996 O 370.099 5.59296 2.22423 0
M  V30 3997 H 373.925 3.03426 0.129059 0
M  V30 3998 H 371.51 1.494 -0.0022283 0
M  V30 3999 H 373.392 3.34573 2.56201 0
M  V30 4000 H 372.067 2.15935 2.41151 0
M  V30 4001 H 370.974 3.68155 0.664259 0
M  V30 4002 H 372.307 4.84025 0.893328 0
M  V30 4003 N 373.959 -0.0401083 1.57549 0
M  V30 4004 C 374.909 -1.05175 2.02292 0
M  V30 4005 C 375.893 -1.32674 0.910294 0
M  V30 4006 O 377.085 -1.32444 1.17421 0
M  V30 4007 C 374.214 -2.35622 2.49674 0
M  V30 4008 C 373.3 -2.11261 3.67736 0
M  V30 4009 N 373.691 -1.56923 4.80842 0
M  V30 4010 C 371.989 -2.41596 3.74897 0
M  V30 4011 C 372.69 -1.48111 5.62528 0
M  V30 4012 N 371.666 -1.95282 5.07312 0
M  V30 4013 H 375.468 -0.625455 2.87168 0
M  V30 4014 H 372.982 -0.246624 1.60516 0
M  V30 4015 H 374.979 -3.08893 2.79983 0
M  V30 4016 H 373.639 -2.7894 1.662 0
M  V30 4017 H 374.65 -1.25345 5.02503 0
M  V30 4018 H 371.327 -2.88064 3.02201 0
M  V30 4019 H 372.717 -1.06683 6.63377 0
M  V30 4020 N 375.437 -1.54477 -0.31217 0
M  V30 4021 C 376.369 -1.81011 -1.40598 0
M  V30 4022 C 377.382 -0.692546 -1.47335 0
M  V30 4023 O 378.571 -0.969847 -1.49854 0
M  V30 4024 C 375.671 -1.92307 -2.79054 0
M  V30 4025 C 374.844 -3.22594 -2.95384 0
M  V30 4026 C 373.903 -3.24448 -4.1427 0
M  V30 4027 O 372.929 -3.98035 -4.06887 0
M  V30 4028 N 374.131 -2.49042 -5.24365 0
M  V30 4029 H 376.896 -2.75408 -1.18196 0
M  V30 4030 H 374.457 -1.53914 -0.502202 0
M  V30 4031 H 376.449 -1.90962 -3.56813 0
M  V30 4032 H 375.019 -1.04955 -2.94454 0
M  V30 4033 H 374.239 -3.36806 -2.04831 0
M  V30 4034 H 375.527 -4.08593 -3.03198 0
M  V30 4035 H 374.925 -1.88867 -5.33241 0
M  V30 4036 H 373.482 -2.53463 -6.005 0
M  V30 4037 N 376.915 0.57481 -1.46744 0
M  V30 4038 C 377.845 1.69337 -1.60771 0
M  V30 4039 C 378.826 1.63825 -0.457736 0
M  V30 4040 O 380.011 1.8172 -0.684947 0
M  V30 4041 C 377.141 3.0798 -1.60517 0
M  V30 4042 C 376.095 3.28327 -2.74564 0
M  V30 4043 C 375.421 4.67578 -2.59373 0
M  V30 4044 C 376.721 3.15398 -4.16319 0
M  V30 4045 H 378.415 1.57853 -2.54407 0
M  V30 4046 H 375.961 0.75799 -1.22436 0
M  V30 4047 H 377.914 3.86061 -1.68923 0
M  V30 4048 H 376.638 3.20381 -0.634305 0
M  V30 4049 H 375.297 2.52649 -2.65639 0
M  V30 4050 H 374.945 4.76755 -1.60353 0
M  V30 4051 H 374.645 4.82144 -3.35873 0
M  V30 4052 H 376.169 5.47817 -2.69682 0
M  V30 4053 H 377.583 3.83315 -4.26313 0
M  V30 4054 H 375.98 3.41482 -4.93468 0
M  V30 4055 H 377.05 2.12372 -4.3592 0
M  V30 4056 N 378.394 1.34581 0.820102 0
M  V30 4057 C 379.324 1.29038 1.94606 0
M  V30 4058 C 380.305 0.1673 1.69275 0
M  V30 4059 O 381.49 0.360112 1.90832 0
M  V30 4060 C 378.62 1.04793 3.31113 0
M  V30 4061 C 377.574 2.13597 3.70891 0
M  V30 4062 C 376.9 1.74537 5.05412 0
M  V30 4063 C 378.2 3.55451 3.8269 0
M  V30 4064 H 379.894 2.23248 1.99501 0
M  V30 4065 H 377.44 1.0747 0.958449 0
M  V30 4066 H 379.393 0.995592 4.0947 0
M  V30 4067 H 378.117 0.0702565 3.26524 0
M  V30 4068 H 376.776 2.17905 2.9481 0
M  V30 4069 H 376.424 0.754226 4.97313 0
M  V30 4070 H 376.124 2.47361 5.32997 0
M  V30 4071 H 377.648 1.70803 5.86224 0
M  V30 4072 H 379.062 3.5354 4.51312 0
M  V30 4073 H 377.459 4.26922 4.21732 0
M  V30 4074 H 378.529 3.92587 2.84611 0
M  V30 4075 N 379.872 -1.04064 1.18357 0
M  V30 4076 C 381.102 -1.80654 1.00238 0
M  V30 4077 C 381.51 -1.83713 -0.452362 0
M  V30 4078 O 380.853 -1.27135 -1.32599 0
M  V30 4079 C 380.915 -3.27582 1.48088 0
M  V30 4080 C 380.579 -3.48184 2.96002 0
M  V30 4081 C 381.576 -3.39372 3.93856 0
M  V30 4082 C 379.261 -3.7478 3.34433 0
M  V30 4083 C 381.255 -3.5686 5.28138 0
M  V30 4084 C 378.942 -3.91915 4.68877 0
M  V30 4085 C 379.94 -3.82956 5.65539 0
M  V30 4086 O 379.628 -3.996 6.97549 0
M  V30 4087 H 379.36 -0.575751 0.354241 0
M  V30 4088 H 381.914 -1.32044 1.57333 0
M  V30 4089 H 380.144 -3.77161 0.853588 0
M  V30 4090 H 381.833 -3.8573 1.2636 0
M  V30 4091 H 382.599 -3.18789 3.65511 0
M  V30 4092 H 378.478 -3.80852 2.59756 0
M  V30 4093 H 382.022 -3.49783 6.03571 0
M  V30 4094 H 377.919 -4.11992 4.96923 0
M  V30 4095 H 378.687 -4.1676 7.04452 0
M  V30 4096 N 381.35 -0.985608 -1.22978 0
M  V30 4097 C 382.298 -0.522631 -2.26652 0
M  V30 4098 C 383.292 0.422998 -1.64034 0
M  V30 4099 O 384.498 0.296319 -1.77544 0
M  V30 4100 H 380.873 -0.150597 -0.736766 0
M  V30 4101 H 382.844 -1.40863 -2.63059 0
M  V30 4102 C 381.593 0.154238 -3.47358 0
M  V30 4103 H 380.916 -0.564329 -3.95797 0
M  V30 4104 H 382.356 0.441744 -4.21693 0
M  V30 4105 C 380.815 1.38719 -3.07016 0
M  V30 4106 O 381.345 2.48307 -3.15764 0
M  V30 4107 N 379.551 1.25975 -2.61875 0
M  V30 4108 H 379.098 0.368068 -2.54957 0
M  V30 4109 H 379.056 2.08578 -2.3525 0
M  V30 4110 N 382.828 1.3818 -0.7579 0
M  V30 4111 C 383.791 2.28764 -0.141286 0
M  V30 4112 C 384.791 1.47388 0.642907 0
M  V30 4113 O 385.981 1.67781 0.468536 0
M  V30 4114 C 383.113 3.31184 0.808069 0
M  V30 4115 H 384.306 2.848 -0.939633 0
M  V30 4116 H 381.859 1.47212 -0.525191 0
M  V30 4117 H 382.594 2.80247 1.63193 0
M  V30 4118 H 382.379 3.91314 0.248104 0
M  V30 4119 H 383.869 3.98909 1.23536 0
M  V30 4120 N 384.306 0.507319 1.49211 0
M  V30 4121 C 385.546 -0.0332372 2.04373 0
M  V30 4122 C 385.91 -1.33694 1.37804 0
M  V30 4123 O 387.111 -1.96213 1.83722 0
M  V30 4124 C 385.382 -0.17599 3.56966 0
M  V30 4125 S 386.941 -0.669882 4.33657 0
M  V30 4126 H 383.759 0.00123603 0.710999 0
M  V30 4127 H 386.361 0.682725 1.83191 0
M  V30 4128 H 385.065 0.778053 4.02957 0
M  V30 4129 H 384.596 -0.917005 3.82563 0
M  V30 4130 H 386.611 -1.93806 4.56786 0
M  V30 4131 N 385.784 -1.5574 0.241426 0
M  V30 4132 C 386.716 -2.18469 -0.693091 0
M  V30 4133 C 387.729 -1.15942 -1.14286 0
M  V30 4134 O 388.918 -1.42832 -1.07058 0
M  V30 4135 C 386.018 -2.7696 -1.95311 0
M  V30 4136 C 385.191 -4.04853 -1.65568 0
M  V30 4137 C 384.25 -4.47715 -2.76474 0
M  V30 4138 O 383.276 -5.14205 -2.44094 0
M  V30 4139 N 384.478 -4.15044 -4.05855 0
M  V30 4140 H 387.243 -2.99292 -0.156388 0
M  V30 4141 H 384.804 -1.61784 0.0611752 0
M  V30 4142 H 386.796 -3.02594 -2.68736 0
M  V30 4143 H 385.366 -2.00326 -2.39975 0
M  V30 4144 H 384.586 -3.86865 -0.756886 0
M  V30 4145 H 385.874 -4.88246 -1.43153 0
M  V30 4146 H 385.272 -3.61654 -4.34998 0
M  V30 4147 H 383.829 -4.45526 -4.75762 0
M  V30 4148 N 387.262 0.0317525 -1.57568 0
M  V30 4149 C 388.192 1.03274 -2.0942 0
M  V30 4150 C 389.173 1.3788 -0.996143 0
M  V30 4151 O 390.358 1.46811 -1.27122 0
M  V30 4152 C 387.488 2.33448 -2.57137 0
M  V30 4153 C 386.442 2.13091 -3.71182 0
M  V30 4154 C 385.768 3.49001 -4.05095 0
M  V30 4155 C 387.068 1.51928 -4.99715 0
M  V30 4156 H 388.762 0.60112 -2.93303 0
M  V30 4157 H 386.308 0.287705 -1.41097 0
M  V30 4158 H 388.261 3.03802 -2.92032 0
M  V30 4159 H 386.985 2.78665 -1.70333 0
M  V30 4160 H 385.644 1.45171 -3.36632 0
M  V30 4161 H 385.292 3.91862 -3.15362 0
M  V30 4162 H 384.992 3.36207 -4.81911 0
M  V30 4163 H 386.516 4.20721 -4.42522 0
M  V30 4164 H 387.93 2.12196 -5.32584 0
M  V30 4165 H 386.327 1.49716 -5.81124 0
M  V30 4166 H 387.397 0.484811 -4.8247 0
M  V30 4167 N 388.74 1.54641 0.303973 0
M  V30 4168 C 390.017 1.64455 1.05896 0
M  V30 4169 C 390.397 0.490923 2.05312 0
M  V30 4170 O 389.745 -0.512685 2.22674 0
M  V30 4171 C 389.955 3.02331 1.74347 0
M  V30 4172 C 391.303 3.59045 2.26653 0
M  V30 4173 O 392.327 3.04764 1.84384 0
M  V30 4174 O 391.186 4.54081 3.04093 0
M  V30 4175 H 388.28 0.666729 0.489287 0
M  V30 4176 H 390.826 1.66986 0.302298 0
M  V30 4177 H 389.598 3.77734 1.02142 0
M  V30 4178 H 389.221 3.03565 2.56777 0
M  V30 4179 N 390.218 -0.567019 1.47046 0
M  V30 4180 C 391.166 -1.69593 1.59188 0
M  V30 4181 C 392.16 -1.63046 0.459609 0
M  V30 4182 O 393.366 -1.6835 0.637058 0
M  V30 4183 H 389.741 -0.560993 0.500791 0
M  V30 4184 H 391.712 -1.56488 2.54075 0
M  V30 4185 C 390.461 -3.07964 1.61411 0
M  V30 4186 H 389.784 -3.13679 2.47881 0
M  V30 4187 H 391.224 -3.86671 1.73958 0
M  V30 4188 C 389.683 -3.35123 0.34559 0
M  V30 4189 O 390.213 -3.97812 -0.557521 0
M  V30 4190 N 388.419 -2.89699 0.22864 0
M  V30 4191 H 387.966 -2.38863 0.964479 0
M  V30 4192 H 387.924 -3.08242 -0.619192 0
M  V30 4193 N 391.696 -1.35014 -0.812953 0
M  V30 4194 C 392.659 -1.27292 -1.90602 0
M  V30 4195 C 393.659 -0.185817 -1.59723 0
M  V30 4196 O 394.849 -0.439102 -1.68575 0
M  V30 4197 C 391.981 -0.967676 -3.26877 0
M  V30 4198 H 393.174 -2.24479 -1.9887 0
M  V30 4199 H 390.727 -1.19446 -1.00808 0
M  V30 4200 H 391.462 0.0005954 -3.243 0
M  V30 4201 H 391.247 -1.75412 -3.50675 0
M  V30 4202 H 392.737 -0.939085 -4.06904 0
M  V30 4203 N 393.175 1.03435 -1.18907 0
M  V30 4204 C 394.452 1.73778 -0.89781 0
M  V30 4205 C 394.832 2.02458 0.597832 0
M  V30 4206 O 394.18 1.67482 1.55441 0
M  V30 4207 C 394.39 3.01845 -1.75187 0
M  V30 4208 C 395.738 3.7546 -1.9828 0
M  V30 4209 O 396.762 3.11759 -1.72293 0
M  V30 4210 O 395.621 4.89966 -2.42065 0
M  V30 4211 H 392.715 0.75651 -0.334098 0
M  V30 4212 H 395.261 1.09444 -1.29693 0
M  V30 4213 H 394.033 2.76836 -2.76545 0
M  V30 4214 H 393.656 3.73919 -1.35167 0
M  V30 4215 N 394.653 0.992116 1.22453 0
M  V30 4216 C 395.563 0.55065 2.28046 0
M  V30 4217 C 396.579 -0.400189 1.69335 0
M  V30 4218 O 397.755 -0.267215 1.99619 0
M  V30 4219 C 394.82 -0.128496 3.46462 0
M  V30 4220 C 393.881 0.865208 4.20491 0
M  V30 4221 C 393.114 0.218377 5.33253 0
M  V30 4222 O 393.337 -0.987894 5.6178 0
M  V30 4223 O 392.271 0.922845 5.94783 0
M  V30 4224 H 396.097 1.4291 2.67975 0
M  V30 4225 H 393.682 0.760326 1.28606 0
M  V30 4226 H 395.564 -0.508947 4.18315 0
M  V30 4227 H 394.239 -0.981526 3.0846 0
M  V30 4228 H 393.146 1.29658 3.50913 0
M  V30 4229 H 394.479 1.68741 4.62371 0
M  V30 4230 N 396.131 -1.37776 0.765217 0
M  V30 4231 C 397.063 -2.28958 0.105361 0
M  V30 4232 C 398.076 -1.48316 -0.67128 0
M  V30 4233 O 399.265 -1.71046 -0.51045 0
M  V30 4234 C 396.365 -3.27421 -0.874569 0
M  V30 4235 C 395.538 -4.37132 -0.153123 0
M  V30 4236 C 394.597 -5.1571 -1.04547 0
M  V30 4237 O 393.623 -5.66896 -0.511672 0
M  V30 4238 N 394.825 -5.29808 -2.37243 0
M  V30 4239 H 397.59 -2.86227 0.888495 0
M  V30 4240 H 395.151 -1.49682 0.617 0
M  V30 4241 H 397.143 -3.7687 -1.47483 0
M  V30 4242 H 395.713 -2.70967 -1.55871 0
M  V30 4243 H 394.933 -3.89166 0.627975 0
M  V30 4244 H 396.221 -5.07625 0.345643 0
M  V30 4245 H 395.619 -4.89793 -2.83054 0
M  V30 4246 H 394.176 -5.82589 -2.9229 0
M  V30 4247 N 397.609 -0.515225 -1.4894 0
M  V30 4248 C 398.572 0.244681 -2.2789 0
M  V30 4249 C 399.572 0.881166 -1.34507 0
M  V30 4250 O 400.762 0.743497 -1.57537 0
M  V30 4251 C 397.894 1.35247 -3.12923 0
M  V30 4252 H 399.087 -0.448289 -2.96531 0
M  V30 4253 H 396.64 -0.270656 -1.53939 0
M  V30 4254 H 397.375 2.07916 -2.48881 0
M  V30 4255 H 397.16 0.901374 -3.81599 0
M  V30 4256 H 398.65 1.88737 -3.72516 0
M  V30 4257 N 399.087 1.5561 -0.249682 0
M  V30 4258 C 400.05 2.20217 0.635394 0
M  V30 4259 C 401.05 1.17227 1.10066 0
M  V30 4260 O 402.24 1.42292 1.00492 0
M  V30 4261 C 399.372 2.84794 1.87363 0
M  V30 4262 H 400.565 2.99814 0.0716752 0
M  V30 4263 H 398.118 1.563 -0.000153234 0
M  V30 4264 H 398.853 2.09142 2.47851 0
M  V30 4265 H 398.638 3.60241 1.5482 0
M  V30 4266 H 400.128 3.3423 2.5036 0
M  V30 4267 N 400.565 -0.0233959 1.57583 0
M  V30 4268 C 401.497 -1.04994 2.03737 0
M  V30 4269 C 402.51 -1.32125 0.951152 0
M  V30 4270 O 403.699 -1.29512 1.22837 0
M  V30 4271 C 400.799 -2.39026 2.40249 0
M  V30 4272 C 399.972 -2.31171 3.7132 0
M  V30 4273 C 399.031 -3.47698 3.94959 0
M  V30 4274 O 398.057 -3.26937 4.65941 0
M  V30 4275 N 399.259 -4.6976 3.41037 0
M  V30 4276 H 402.024 -0.656507 2.92421 0
M  V30 4277 H 399.585 -0.211235 1.60516 0
M  V30 4278 H 401.577 -3.15712 2.53196 0
M  V30 4279 H 400.147 -2.70194 1.57207 0
M  V30 4280 H 399.367 -1.39547 3.68674 0
M  V30 4281 H 400.655 -2.23071 4.57293 0
M  V30 4282 H 400.053 -4.89528 2.83512 0
M  V30 4283 H 398.61 -5.43791 3.59353 0
M  V30 4284 N 402.043 -1.548 -0.295768 0
M  V30 4285 C 403.292 -1.73538 -1.02798 0
M  V30 4286 C 403.605 -0.531159 -1.8825 0
M  V30 4287 O 404.811 -0.600458 -2.64777 0
M  V30 4288 C 403.267 -3.07051 -1.87744 0
M  V30 4289 C 402.875 -4.34968 -1.07269 0
M  V30 4290 C 404.619 -3.35146 -2.60533 0
M  V30 4291 C 402.526 -5.5953 -1.91521 0
M  V30 4292 H 401.456 -0.646794 -0.387522 0
M  V30 4293 H 404.107 -1.81278 -0.284718 0
M  V30 4294 H 402.489 -2.93289 -2.66078 0
M  V30 4295 H 403.663 -4.5958 -0.335117 0
M  V30 4296 H 401.978 -4.13847 -0.460384 0
M  V30 4297 H 404.575 -4.2541 -3.23929 0
M  V30 4298 H 404.918 -2.54255 -3.29636 0
M  V30 4299 H 405.451 -3.49902 -1.89244 0
M  V30 4300 H 402.19 -6.43103 -1.26878 0
M  V30 4301 H 401.71 -5.39096 -2.62937 0
M  V30 4302 H 403.389 -5.96982 -2.49442 0
M  V30 4303 N 403.521 0.559213 -1.47345 0
M  V30 4304 C 404.937 0.884943 -1.32819 0
M  V30 4305 C 405.137 1.98988 -0.317173 0
M  V30 4306 O 404.193 2.51031 0.272011 0
M  V30 4307 C 405.506 1.28007 -2.72093 0
M  V30 4308 C 407.054 1.39161 -2.80363 0
M  V30 4309 C 407.529 1.82031 -4.20272 0
M  V30 4310 N 409.02 1.89185 -4.22804 0
M  V30 4311 C 409.755 2.2368 -5.27973 0
M  V30 4312 N 409.251 2.56802 -6.43447 0
M  V30 4313 N 411.044 2.24436 -5.15349 0
M  V30 4314 H 403.195 -0.170304 -2.11716 0
M  V30 4315 H 405.458 -0.0135247 -0.947904 0
M  V30 4316 H 405.164 0.542027 -3.47498 0
M  V30 4317 H 405.038 2.23665 -3.03733 0
M  V30 4318 H 407.425 2.12048 -2.05231 0
M  V30 4319 H 407.506 0.41696 -2.52379 0
M  V30 4320 H 407.15 1.09715 -4.95908 0
M  V30 4321 H 407.08 2.80495 -4.45679 0
M  V30 4322 H 409.571 1.65982 -3.39497 0
M  V30 4323 H 409.884 2.82144 -7.19454 0
M  V30 4324 H 408.229 2.54387 -6.46771 0
M  V30 4325 H 411.42 1.97998 -4.24163 0
M  V30 4326 H 411.593 2.50989 -5.97418 0
M  V30 4327 N 404.999 1.35443 0.805782 0
M  V30 4328 C 406.415 1.15499 1.10146 0
M  V30 4329 C 406.615 -0.0319975 2.01475 0
M  V30 4330 O 405.671 -0.70236 2.42535 0
M  V30 4331 C 406.984 2.45833 1.73166 0
M  V30 4332 C 408.532 2.52047 1.85583 0
M  V30 4333 C 409.007 3.82427 2.52019 0
M  V30 4334 N 410.498 3.83682 2.59504 0
M  V30 4335 C 411.233 4.81294 3.11679 0
M  V30 4336 N 410.729 5.89294 3.64287 0
M  V30 4337 N 412.522 4.6873 3.1024 0
M  V30 4338 H 404.673 2.11469 0.198678 0
M  V30 4339 H 406.936 0.93594 0.150731 0
M  V30 4340 H 406.642 3.32874 1.13526 0
M  V30 4341 H 406.516 2.6044 2.72857 0
M  V30 4342 H 408.903 1.65435 2.44367 0
M  V30 4343 H 408.984 2.41354 0.847455 0
M  V30 4344 H 408.628 4.69437 1.93885 0
M  V30 4345 H 408.558 3.90409 3.53395 0
M  V30 4346 H 411.049 3.05648 2.22234 0
M  V30 4347 H 411.362 6.59768 4.02401 0
M  V30 4348 H 409.707 5.92985 3.62483 0
M  V30 4349 H 412.898 3.83496 2.68419 0
M  V30 4350 H 413.071 5.44965 3.50596 0
M  V30 4351 N 406.477 -1.02803 1.19454 0
M  V30 4352 C 407.387 -2.14575 0.948408 0
M  V30 4353 C 408.403 -1.73757 -0.091871 0
M  V30 4354 O 409.579 -2.01185 0.0929654 0
M  V30 4355 C 406.644 -3.43202 0.491265 0
M  V30 4356 C 405.705 -3.98328 1.60103 0
M  V30 4357 C 404.938 -5.20816 1.16561 0
M  V30 4358 O 405.161 -5.70392 0.0295238 0
M  V30 4359 O 404.095 -5.68801 1.96849 0
M  V30 4360 H 407.921 -2.38202 1.88397 0
M  V30 4361 H 405.506 -1.12989 0.977433 0
M  V30 4362 H 407.388 -4.20687 0.245015 0
M  V30 4363 H 406.063 -3.21018 -0.415851 0
M  V30 4364 H 404.97 -3.22174 1.90144 0
M  V30 4365 H 406.303 -4.24879 2.48473 0
M  V30 4366 N 407.956 -0.998596 -1.21925 0
M  V30 4367 C 408.886 -0.573688 -2.26343 0
M  V30 4368 C 409.867 0.402296 -1.65274 0
M  V30 4369 O 411.052 0.291683 -1.91997 0
M  V30 4370 C 408.182 0.106839 -3.47136 0
M  V30 4371 C 407.136 -0.788269 -4.20678 0
M  V30 4372 C 406.462 0.0254927 -5.34694 0
M  V30 4373 C 407.762 -2.08784 -4.78755 0
M  V30 4374 H 409.456 -1.44651 -2.62138 0
M  V30 4375 H 407.002 -0.696975 -1.26009 0
M  V30 4376 H 408.955 0.415531 -4.19346 0
M  V30 4377 H 407.679 1.01424 -3.10452 0
M  V30 4378 H 406.338 -1.08069 -3.50309 0
M  V30 4379 H 405.986 0.933989 -4.94253 0
M  V30 4380 H 405.686 -0.570437 -5.84825 0
M  V30 4381 H 407.21 0.328147 -6.09718 0
M  V30 4382 H 408.624 -1.84272 -5.42878 0
M  V30 4383 H 407.021 -2.63307 -5.39249 0
M  V30 4384 H 408.091 -2.76284 -3.98491 0
M  V30 4385 N 409.434 1.37368 -0.772513 0
M  V30 4386 C 410.711 1.93839 -0.26188 0
M  V30 4387 C 411.091 1.7061 1.24319 0
M  V30 4388 O 410.439 1.05534 2.02669 0
M  V30 4389 C 410.649 3.43154 -0.636102 0
M  V30 4390 C 411.997 4.20249 -0.606324 0
M  V30 4391 O 413.021 3.5152 -0.575538 0
M  V30 4392 O 411.88 5.42809 -0.634086 0
M  V30 4393 H 408.974 0.82478 -0.0605555 0
M  V30 4394 H 411.52 1.4665 -0.853917 0
M  V30 4395 H 410.292 3.53647 -1.6748 0
M  V30 4396 H 409.915 3.97596 -0.0170516 0
M  V30 4397 N 410.912 0.523116 1.48665 0
M  V30 4398 C 412.16 -0.0134497 2.02096 0
M  V30 4399 C 412.481 -1.35418 1.40311 0
M  V30 4400 O 411.751 -1.87543 0.566074 0
M  V30 4401 H 410.331 -0.00795915 0.746958 0
M  V30 4402 H 412.993 0.685388 1.82451 0
M  V30 4403 H 412.089 -0.126849 3.11842 0
M  V30 4404 N 412.39 -1.55475 0.257931 0
M  V30 4405 C 413.806 -1.59307 -0.0966563 0
M  V30 4406 C 414.006 -1.27514 -1.5602 0
M  V30 4407 O 413.062 -1.02774 -2.30637 0
M  V30 4408 C 414.375 -2.99552 0.262481 0
M  V30 4409 C 415.923 -3.1231 0.207683 0
M  V30 4410 C 416.398 -4.54793 0.541012 0
M  V30 4411 N 417.889 -4.6058 0.491921 0
M  V30 4412 C 418.624 -5.68825 0.722857 0
M  V30 4413 N 418.12 -6.85287 1.0175 0
M  V30 4414 N 419.913 -5.58296 0.652815 0
M  V30 4415 H 412.064 -1.74409 1.21224 0
M  V30 4416 H 414.327 -0.812424 0.48854 0
M  V30 4417 H 414.033 -3.27593 1.27967 0
M  V30 4418 H 413.907 -3.75019 -0.40508 0
M  V30 4419 H 416.294 -2.84044 -0.800195 0
M  V30 4420 H 416.375 -2.39095 0.909255 0
M  V30 4421 H 416.019 -4.83783 1.5465 0
M  V30 4422 H 415.949 -5.26285 -0.18216 0
M  V30 4423 H 418.44 -3.7691 0.273366 0
M  V30 4424 H 418.753 -7.63725 1.18084 0
M  V30 4425 H 417.098 -6.86945 1.05509 0
M  V30 4426 H 420.289 -4.66189 0.422592 0
M  V30 4427 H 420.462 -6.42582 0.836182 0
M  V30 4428 N 413.868 0.0150385 -1.57593 0
M  V30 4429 C 414.798 1.01047 -2.10503 0
M  V30 4430 C 415.779 1.36816 -1.01071 0
M  V30 4431 O 416.964 1.45455 -1.28672 0
M  V30 4432 C 414.094 2.30708 -2.59598 0
M  V30 4433 C 413.048 2.09142 -3.73421 0
M  V30 4434 C 412.374 3.44685 -4.08774 0
M  V30 4435 C 413.674 1.46619 -5.01298 0
M  V30 4436 H 415.368 0.569978 -2.93925 0
M  V30 4437 H 412.914 0.272724 -1.41394 0
M  V30 4438 H 414.867 3.00687 -2.95238 0
M  V30 4439 H 413.591 2.76843 -1.73279 0
M  V30 4440 H 412.25 1.41592 -3.38153 0
M  V30 4441 H 411.898 3.88495 -3.195 0
M  V30 4442 H 411.598 3.31077 -4.8545 0
M  V30 4443 H 413.122 4.16004 -4.4696 0
M  V30 4444 H 414.536 2.06535 -5.34805 0
M  V30 4445 H 412.933 1.43544 -5.82679 0
M  V30 4446 H 414.003 0.433611 -4.82957 0
M  V30 4447 N 415.346 1.54954 0.287554 0
M  V30 4448 C 416.278 1.83224 1.37701 0
M  V30 4449 C 417.291 0.715898 1.46215 0
M  V30 4450 O 418.48 0.993565 1.48292 0
M  V30 4451 C 415.58 1.96723 2.75959 0
M  V30 4452 C 414.753 3.27253 2.90215 0
M  V30 4453 C 413.812 3.30998 4.09056 0
M  V30 4454 O 412.838 4.04457 4.00503 0
M  V30 4455 N 414.04 2.57353 5.20336 0
M  V30 4456 H 416.805 2.77254 1.138 0
M  V30 4457 H 414.366 1.54694 0.477652 0
M  V30 4458 H 416.358 1.96615 3.5373 0
M  V30 4459 H 414.928 1.09626 2.92747 0
M  V30 4460 H 414.148 3.40022 1.99447 0
M  V30 4461 H 415.436 4.13365 2.96659 0
M  V30 4462 H 414.834 1.97327 5.30169 0
M  V30 4463 H 413.391 2.62984 5.96391 0
M  V30 4464 N 416.824 -0.551391 1.4764 0
M  V30 4465 C 417.754 -1.66757 1.63445 0
M  V30 4466 C 418.735 -1.63077 0.483742 0
M  V30 4467 O 419.92 -1.80607 0.71377 0
M  V30 4468 C 417.05 -3.05387 1.65396 0
M  V30 4469 C 416.004 -3.23918 2.79752 0
M  V30 4470 C 415.33 -4.63393 2.66779 0
M  V30 4471 C 416.63 -3.08735 4.21284 0
M  V30 4472 H 418.324 -1.53786 2.56886 0
M  V30 4473 H 415.87 -0.738415 1.23626 0
M  V30 4474 H 417.823 -3.83325 1.75043 0
M  V30 4475 H 416.547 -3.19332 0.685195 0
M  V30 4476 H 415.206 -2.48391 2.69625 0
M  V30 4477 H 414.854 -4.74144 1.67918 0
M  V30 4478 H 414.554 -4.7674 3.43501 0
M  V30 4479 H 416.078 -5.43458 2.78364 0
M  V30 4480 H 417.492 -3.76484 4.32357 0
M  V30 4481 H 415.889 -3.33588 4.98838 0
M  V30 4482 H 416.959 -2.0541 4.39243 0
M  V30 4483 N 418.302 -1.35869 -0.798587 0
M  V30 4484 C 419.265 -1.29307 -1.89242 0
M  V30 4485 C 420.265 -0.202747 -1.59517 0
M  V30 4486 O 421.455 -0.456957 -1.681 0
M  V30 4487 C 418.587 -1.00229 -3.25833 0
M  V30 4488 H 419.78 -2.26576 -1.96478 0
M  V30 4489 H 417.333 -1.20509 -0.995358 0
M  V30 4490 H 418.068 -0.033801 -3.24282 0
M  V30 4491 H 417.853 -1.79121 -3.48795 0
M  V30 4492 H 419.343 -0.98219 -4.05885 0
M  V30 4493 N 419.78 1.02168 -1.19998 0
M  V30 4494 C 421.057 1.72816 -0.916191 0
M  V30 4495 C 421.437 2.03081 0.576325 0
M  V30 4496 O 420.785 1.69122 1.53656 0
M  V30 4497 C 420.995 2.9997 -1.78378 0
M  V30 4498 C 422.343 3.73336 -2.02251 0
M  V30 4499 O 423.367 3.09914 -1.75589 0
M  V30 4500 O 422.226 4.87371 -2.47249 0
M  V30 4501 H 419.32 0.752924 -0.342103 0
M  V30 4502 H 421.866 1.08062 -1.30846 0
M  V30 4503 H 420.638 2.73888 -2.79466 0
M  V30 4504 H 420.261 3.72464 -1.39126 0
M  V30 4505 N 421.258 1.00505 1.21394 0
M  V30 4506 C 422.205 0.565496 2.23765 0
M  V30 4507 C 423.175 -0.408466 1.60999 0
M  V30 4508 O 424.36 -0.310503 1.88257 0
M  V30 4509 C 421.5 -0.101667 3.4495 0
M  V30 4510 C 420.613 0.915479 4.22188 0
M  V30 4511 C 419.748 0.220574 5.30742 0
M  V30 4512 C 418.787 1.22527 5.99711 0
M  V30 4513 N 417.924 0.557831 6.9988 0
M  V30 4514 H 422.764 1.44314 2.60725 0
M  V30 4515 H 420.301 0.722643 1.28126 0
M  V30 4516 H 422.259 -0.505504 4.14126 0
M  V30 4517 H 420.889 -0.94303 3.08718 0
M  V30 4518 H 419.941 1.43756 3.52191 0
M  V30 4519 H 421.253 1.68005 4.69655 0
M  V30 4520 H 420.407 -0.239368 6.06228 0
M  V30 4521 H 419.146 -0.576401 4.84282 0
M  V30 4522 H 418.151 1.69571 5.22997 0
M  V30 4523 H 419.376 2.02332 6.48258 0
M  V30 4524 H 417.322 -0.219486 6.55633 0
M  V30 4525 H 417.239 1.26065 7.45415 0
M  V30 4526 H 418.507 0.121095 7.79406 0
M  V30 4527 N 422.737 -1.36956 0.779787 0
M  V30 4528 C 423.67 -2.27896 0.117681 0
M  V30 4529 C 424.648 -1.46736 -0.700523 0
M  V30 4530 O 425.832 -1.76055 -0.673568 0
M  V30 4531 C 422.959 -3.28136 -0.839296 0
M  V30 4532 C 422.005 -4.26373 -0.10409 0
M  V30 4533 S 422.838 -5.2157 1.21348 0
M  V30 4534 C 423.994 -6.25359 0.260249 0
M  V30 4535 H 424.227 -2.83704 0.888778 0
M  V30 4536 H 421.76 -1.43352 0.57355 0
M  V30 4537 H 423.718 -3.86394 -1.38601 0
M  V30 4538 H 422.379 -2.7126 -1.58356 0
M  V30 4539 H 421.572 -4.97121 -0.82986 0
M  V30 4540 H 421.174 -3.72147 0.371858 0
M  V30 4541 H 423.466 -6.75145 -0.564435 0
M  V30 4542 H 424.409 -7.01885 0.936135 0
M  V30 4543 H 424.817 -5.64345 -0.132127 0
M  V30 4544 N 424.215 -0.530993 -1.48385 0
M  V30 4545 C 425.178 0.220497 -2.28137 0
M  V30 4546 C 426.178 0.866851 -1.35434 0
M  V30 4547 O 427.368 0.726746 -1.58316 0
M  V30 4548 C 424.5 1.31921 -3.1434 0
M  V30 4549 H 425.693 -0.479714 -2.96038 0
M  V30 4550 H 423.246 -0.286968 -1.53643 0
M  V30 4551 H 423.981 2.05264 -2.51072 0
M  V30 4552 H 423.766 0.86085 -3.82533 0
M  V30 4553 H 425.256 1.84776 -3.74497 0
M  V30 4554 N 425.693 1.55336 -0.266172 0
M  V30 4555 C 426.64 2.22172 0.625165 0
M  V30 4556 C 427.61 1.19211 1.15663 0
M  V30 4557 O 428.795 1.47723 1.20758 0
M  V30 4558 C 425.935 2.93972 1.8076 0
M  V30 4559 C 425.048 4.11632 1.31084 0
M  V30 4560 C 424.183 4.71099 2.45436 0
M  V30 4561 C 423.222 5.8097 1.92718 0
M  V30 4562 N 422.359 6.34538 3.00509 0
M  V30 4563 H 427.199 2.9796 0.0485582 0
M  V30 4564 H 424.736 1.47095 0.0122024 0
M  V30 4565 H 426.694 3.33811 2.50251 0
M  V30 4566 H 425.324 2.20623 2.35638 0
M  V30 4567 H 424.376 3.76975 0.509326 0
M  V30 4568 H 425.688 4.90893 0.884633 0
M  V30 4569 H 424.842 5.13612 3.22936 0
M  V30 4570 H 423.581 3.91096 2.91368 0
M  V30 4571 H 422.586 5.37916 1.13695 0
M  V30 4572 H 423.811 6.62836 1.47733 0
M  V30 4573 H 421.757 5.57433 3.45839 0
M  V30 4574 H 421.674 7.09046 2.62279 0
M  V30 4575 H 422.942 6.81709 3.78011 0
M  V30 4576 N 427.171 -0.0066808 1.57599 0
M  V30 4577 C 428.081 -1.01671 2.11424 0
M  V30 4578 C 429.097 -1.38143 1.05795 0
M  V30 4579 O 430.273 -1.47011 1.37658 0
M  V30 4580 C 427.338 -2.29192 2.60139 0
M  V30 4581 C 426.399 -1.99094 3.80342 0
M  V30 4582 C 425.632 -3.20535 4.26724 0
M  V30 4583 O 425.855 -4.3199 3.72479 0
M  V30 4584 O 424.789 -3.04924 5.18946 0
M  V30 4585 H 428.615 -0.589181 2.9793 0
M  V30 4586 H 426.2 -0.225091 1.47695 0
M  V30 4587 H 428.082 -3.0412 2.917 0
M  V30 4588 H 426.757 -2.71195 1.76733 0
M  V30 4589 H 425.664 -1.21663 3.53764 0
M  V30 4590 H 426.997 -1.61931 4.648 0
M  V30 4591 N 428.649 -1.55105 -0.279332 0
M  V30 4592 C 430.065 -1.46803 -0.626187 0
M  V30 4593 C 430.265 -0.676939 -1.89789 0
M  V30 4594 O 429.321 -0.19326 -2.51759 0
M  V30 4595 C 430.634 -2.90962 -0.759034 0
M  V30 4596 C 432.182 -3.01138 -0.853504 0
M  V30 4597 C 432.657 -4.46539 -1.01818 0
M  V30 4598 N 434.148 -4.50341 -1.08386 0
M  V30 4599 C 434.883 -5.60053 -1.22996 0
M  V30 4600 N 434.379 -6.79645 -1.34366 0
M  V30 4601 N 436.172 -5.47783 -1.26056 0
M  V30 4602 H 428.323 -2.04996 0.555921 0
M  V30 4603 H 430.586 -0.929325 0.187239 0
M  V30 4604 H 430.292 -3.51544 0.104852 0
M  V30 4605 H 430.166 -3.39619 -1.64131 0
M  V30 4606 H 432.553 -2.40658 -1.70786 0
M  V30 4607 H 432.634 -2.55745 0.0532466 0
M  V30 4608 H 432.278 -5.0762 -0.168504 0
M  V30 4609 H 432.208 -4.89583 -1.93948 0
M  V30 4610 H 434.699 -3.64191 -1.00864 0
M  V30 4611 H 435.012 -7.59012 -1.4533 0
M  V30 4612 H 433.357 -6.82469 -1.31382 0
M  V30 4613 H 436.548 -4.53294 -1.168 0
M  V30 4614 H 436.721 -6.33331 -1.37098 0
M  V30 4615 N 430.127 0.543554 -1.4793 0
M  V30 4616 C 431.074 1.64942 -1.6144 0
M  V30 4617 C 432.044 1.59692 -0.456903 0
M  V30 4618 O 433.229 1.78321 -0.678688 0
M  V30 4619 C 430.369 3.03238 -1.64744 0
M  V30 4620 C 429.482 3.18823 -2.91506 0
M  V30 4621 C 428.617 4.47599 -2.86057 0
M  V30 4622 C 427.656 4.56664 -4.07584 0
M  V30 4623 N 426.793 5.76811 -4.00292 0
M  V30 4624 H 431.633 1.52733 -2.55884 0
M  V30 4625 H 429.17 0.7438 -1.2691 0
M  V30 4626 H 431.128 3.83339 -1.64641 0
M  V30 4627 H 429.758 3.1425 -0.738017 0
M  V30 4628 H 428.81 2.32064 -3.01414 0
M  V30 4629 H 430.122 3.21384 -3.81463 0
M  V30 4630 H 429.276 5.35975 -2.84281 0
M  V30 4631 H 428.015 4.47538 -1.93807 0
M  V30 4632 H 427.02 3.66697 -4.09651 0
M  V30 4633 H 428.245 4.58474 -5.00978 0
M  V30 4634 H 426.191 5.77673 -3.10853 0
M  V30 4635 H 426.108 5.80808 -4.8394 0
M  V30 4636 H 427.376 6.67512 -4.02553 0
M  V30 4637 N 431.605 1.3629 0.791371 0
M  V30 4638 C 432.852 1.30412 1.54916 0
M  V30 4639 C 433.18 -0.117162 1.94147 0
M  V30 4640 O 432.435 -1.08599 1.62803 0
M  V30 4641 C 432.734 2.17068 2.8393 0
M  V30 4642 C 432.4 3.65645 2.63846 0
M  V30 4643 C 431.062 4.0614 2.58077 0
M  V30 4644 C 433.414 4.59855 2.45322 0
M  V30 4645 C 430.742 5.3899 2.31748 0
M  V30 4646 C 433.094 5.9292 2.2052 0
M  V30 4647 C 431.758 6.32542 2.13183 0
M  V30 4648 H 431.028 0.47721 0.566879 0
M  V30 4649 H 433.675 1.68325 0.913172 0
M  V30 4650 H 431.98 1.72085 3.51986 0
M  V30 4651 H 433.677 2.09846 3.4171 0
M  V30 4652 H 430.267 3.33518 2.69191 0
M  V30 4653 H 434.451 4.29443 2.48782 0
M  V30 4654 H 429.707 5.68672 2.24548 0
M  V30 4655 H 433.881 6.65487 2.05182 0
M  V30 4656 H 431.508 7.35412 1.92544 0
M  V30 4657 N 433.083 -1.0153 1.20538 0
M  V30 4658 C 434.494 -1.56598 1.01657 0
M  V30 4659 C 434.845 -1.91505 -0.426668 0
M  V30 4660 O 433.97 -1.72375 -1.30827 0
M  V30 4661 C 434.565 -2.84542 1.83905 0
M  V30 4662 C 433.124 -3.36133 1.69386 0
M  V30 4663 C 432.271 -2.09427 1.81757 0
M  V30 4664 H 435.222 -0.838974 1.34711 0
M  V30 4665 H 435.243 -3.56004 1.34319 0
M  V30 4666 H 434.755 -2.59105 2.8894 0
M  V30 4667 H 432.856 -3.66528 0.669933 0
M  V30 4668 H 432.969 -4.08248 2.50739 0
M  V30 4669 H 431.333 -2.21941 1.24957 0
M  V30 4670 H 432.116 -1.86414 2.88279 0
M  V30 4671 N 434.561 -1.01147 -1.20859 0
M  V30 4672 C 435.508 -0.577354 -2.23462 0
M  V30 4673 C 436.478 0.399922 -1.61214 0
M  V30 4674 O 437.663 0.300515 -1.88419 0
M  V30 4675 C 434.803 0.083372 -3.44999 0
M  V30 4676 C 433.916 -0.937856 -4.21697 0
M  V30 4677 C 433.051 -0.248717 -5.30617 0
M  V30 4678 C 432.09 -1.25705 -5.99053 0
M  V30 4679 N 431.227 -0.594939 -6.99575 0
M  V30 4680 H 436.067 -1.45695 -2.59956 0
M  V30 4681 H 433.604 -0.729428 -1.27741 0
M  V30 4682 H 435.562 0.483535 -4.14388 0
M  V30 4683 H 434.192 0.926645 -3.09214 0
M  V30 4684 H 433.244 -1.45622 -3.51423 0
M  V30 4685 H 434.556 -1.70493 -4.68757 0
M  V30 4686 H 433.71 0.207215 -6.06346 0
M  V30 4687 H 432.449 0.55071 -4.84581 0
M  V30 4688 H 431.454 -1.72343 -5.2209 0
M  V30 4689 H 432.679 -2.05767 -6.47176 0
M  V30 4690 H 430.625 0.184713 -6.5574 0
M  V30 4691 H 430.542 -1.30017 -7.44736 0
M  V30 4692 H 431.81 -0.162427 -7.79331 0
M  V30 4693 N 436.039 1.36541 -0.78704 0
M  V30 4694 C 437.286 1.99304 -0.358341 0
M  V30 4695 C 437.614 1.62467 1.06933 0
M  V30 4696 O 436.869 0.870019 1.75297 0
M  V30 4697 C 437.168 3.54343 -0.466485 0
M  V30 4698 C 436.834 4.10993 -1.85461 0
M  V30 4699 C 435.496 4.26177 -2.23443 0
M  V30 4700 C 437.848 4.41895 -2.76366 0
M  V30 4701 C 435.176 4.69573 -3.51736 0
M  V30 4702 C 437.528 4.86722 -4.04084 0
M  V30 4703 C 436.192 5.00112 -4.42091 0
M  V30 4704 H 435.462 0.729306 -0.131126 0
M  V30 4705 H 438.109 1.63068 -1.00404 0
M  V30 4706 H 436.414 3.90918 0.262719 0
M  V30 4707 H 438.111 4.00833 -0.115854 0
M  V30 4708 H 434.701 3.99612 -1.54946 0
M  V30 4709 H 438.885 4.29735 -2.48277 0
M  V30 4710 H 434.141 4.78127 -3.81057 0
M  V30 4711 H 438.315 5.09598 -4.7464 0
M  V30 4712 H 435.942 5.33498 -5.41557 0
M  V30 4713 N 437.518 0.538854 1.48102 0
M  V30 4714 C 438.767 0.0059532 2.01699 0
M  V30 4715 C 439.08 -1.34476 1.42041 0
M  V30 4716 O 440.286 -1.96653 1.87189 0
M  V30 4717 C 438.742 -0.0397627 3.59878 0
M  V30 4718 C 438.35 1.30659 4.28523 0
M  V30 4719 C 440.094 -0.521024 4.2129 0
M  V30 4720 C 438.001 1.22098 5.78659 0
M  V30 4721 H 436.931 -0.00154456 0.753998 0
M  V30 4722 H 439.582 0.683963 1.70277 0
M  V30 4723 H 437.964 -0.783037 3.88181 0
M  V30 4724 H 439.138 2.06613 4.11883 0
M  V30 4725 H 437.453 1.7243 3.79021 0
M  V30 4726 H 440.05 -0.603184 5.31287 0
M  V30 4727 H 440.393 -1.52885 3.8721 0
M  V30 4728 H 440.926 0.166834 3.9745 0
M  V30 4729 H 437.665 2.20424 6.17328 0
M  V30 4730 H 437.185 0.50295 5.97688 0
M  V30 4731 H 438.864 0.915345 6.40492 0
M  V30 4732 N 438.996 -1.55193 0.274407 0
M  V30 4733 C 439.959 -2.212 -0.600279 0
M  V30 4734 C 440.959 -1.18963 -1.08187 0
M  V30 4735 O 442.149 -1.43873 -0.982158 0
M  V30 4736 C 439.281 -2.87739 -1.82809 0
M  V30 4737 H 440.474 -2.9989 -0.0239682 0
M  V30 4738 H 438.027 -1.5628 0.0250192 0
M  V30 4739 H 438.762 -2.13058 -2.44493 0
M  V30 4740 H 438.547 -3.62658 -1.49069 0
M  V30 4741 H 440.037 -3.38171 -2.45011 0
M  V30 4742 N 440.474 -0.00167713 -1.576 0
M  V30 4743 C 441.421 0.989195 -2.08527 0
M  V30 4744 C 442.391 1.34031 -0.981065 0
M  V30 4745 O 443.576 1.43839 -1.2536 0
M  V30 4746 C 440.716 2.27537 -2.59463 0
M  V30 4747 C 439.829 1.98314 -3.83791 0
M  V30 4748 C 438.964 3.21025 -4.23222 0
M  V30 4749 C 438.003 2.87495 -5.40382 0
M  V30 4750 N 437.14 4.02749 -5.75098 0
M  V30 4751 H 441.98 0.547973 -2.92919 0
M  V30 4752 H 439.517 0.258917 -1.44803 0
M  V30 4753 H 441.475 3.02729 -2.87073 0
M  V30 4754 H 440.105 2.69325 -1.77943 0
M  V30 4755 H 439.157 1.13482 -3.63078 0
M  V30 4756 H 440.469 1.69601 -4.69081 0
M  V30 4757 H 439.623 4.04561 -4.52123 0
M  V30 4758 H 438.362 3.52877 -3.36644 0
M  V30 4759 H 437.367 2.02367 -5.11202 0
M  V30 4760 H 438.592 2.56889 -6.28637 0
M  V30 4761 H 436.538 4.34494 -4.91478 0
M  V30 4762 H 436.455 3.77566 -6.54966 0
M  V30 4763 H 437.723 4.87068 -6.08592 0
M  V30 4764 N 441.952 1.55251 0.271103 0
M  V30 4765 C 443.229 1.66664 1.02384 0
M  V30 4766 C 443.609 0.534363 2.04225 0
M  V30 4767 O 442.957 -0.465337 2.23712 0
M  V30 4768 C 443.167 3.05961 1.67895 0
M  V30 4769 C 444.515 3.63772 2.18986 0
M  V30 4770 O 445.539 3.08606 1.77878 0
M  V30 4771 O 444.398 4.60429 2.94393 0
M  V30 4772 H 441.492 0.676957 0.475035 0
M  V30 4773 H 444.038 1.67589 0.26681 0
M  V30 4774 H 442.81 3.79815 0.941071 0
M  V30 4775 H 442.433 3.08943 2.5028 0
M  V30 4776 N 443.43 -0.535701 1.48216 0
M  V30 4777 C 444.363 -1.65726 1.56876 0
M  V30 4778 C 445.341 -1.57094 0.419542 0
M  V30 4779 O 446.525 -1.77648 0.630352 0
M  V30 4780 C 443.652 -3.04096 1.49142 0
M  V30 4781 C 442.698 -3.31105 2.68834 0
M  V30 4782 S 443.531 -3.18001 4.30854 0
M  V30 4783 C 444.687 -4.58828 4.25709 0
M  V30 4784 H 444.92 -1.58129 2.51759 0
M  V30 4785 H 442.453 -0.718218 1.36678 0
M  V30 4786 H 444.411 -3.839 1.45366 0
M  V30 4787 H 443.072 -3.09139 0.556067 0
M  V30 4788 H 442.265 -4.32033 2.59545 0
M  V30 4789 H 441.867 -2.58961 2.69843 0
M  V30 4790 H 444.159 -5.5023 3.95289 0
M  V30 4791 H 445.102 -4.73172 5.26796 0
M  V30 4792 H 445.51 -4.37883 3.56257 0
M  V30 4793 N 444.908 -1.36708 -0.784132 0
M  V30 4794 C 445.818 -1.3363 -1.92822 0
M  V30 4795 C 446.834 -0.237686 -1.72369 0
M  V30 4796 O 448.01 -0.470962 -1.95816 0
M  V30 4797 C 445.075 -1.13011 -3.27764 0
M  V30 4798 C 444.136 -2.32397 -3.60957 0
M  V30 4799 C 443.369 -2.12752 -4.89461 0
M  V30 4800 O 443.592 -1.10541 -5.59586 0
M  V30 4801 O 442.526 -3.00653 -5.21432 0
M  V30 4802 H 446.352 -2.29964 -1.98369 0
M  V30 4803 H 443.937 -1.1731 -0.925136 0
M  V30 4804 H 445.819 -1.03451 -4.08504 0
M  V30 4805 H 444.494 -0.19743 -3.23097 0
M  V30 4806 H 443.401 -2.47527 -2.80502 0
M  V30 4807 H 444.734 -3.2419 -3.70354 0
M  V30 4808 N 446.386 1.0089 -1.21074 0
M  V30 4809 C 447.334 2.11707 -0.963476 0
M  V30 4810 C 448.328 1.69172 0.0879032 0
M  V30 4811 O 449.534 1.79889 -0.0631415 0
M  V30 4812 H 445.909 0.692026 -0.294287 0
M  V30 4813 H 447.88 2.29743 -1.90422 0
M  V30 4814 C 446.629 3.43473 -0.540509 0
M  V30 4815 H 445.952 3.76634 -1.34114 0
M  V30 4816 H 447.392 4.22044 -0.406777 0
M  V30 4817 C 445.851 3.2849 0.748079 0
M  V30 4818 O 446.381 3.58883 1.8046 0
M  V30 4819 N 444.587 2.81715 0.713081 0
M  V30 4820 H 444.134 2.5718 -0.146973 0
M  V30 4821 H 444.092 2.72071 1.57558 0
M  V30 4822 N 447.864 1.01787 1.20321 0
M  V30 4823 C 448.797 0.533882 2.21867 0
M  V30 4824 C 449.775 -0.419361 1.57099 0
M  V30 4825 O 450.959 -0.339062 1.85426 0
M  V30 4826 C 448.086 -0.222899 3.37966 0
M  V30 4827 C 447.132 0.680091 4.21043 0
M  V30 4828 S 447.965 2.14997 4.90445 0
M  V30 4829 C 449.121 1.40339 6.09964 0
M  V30 4830 H 449.354 1.39429 2.62577 0
M  V30 4831 H 446.887 0.826867 1.30393 0
M  V30 4832 H 448.845 -0.653425 4.05266 0
M  V30 4833 H 447.506 -1.0589 2.95713 0
M  V30 4834 H 446.699 0.0964704 5.03908 0
M  V30 4835 H 446.301 1.04845 3.59004 0
M  V30 4836 H 448.593 0.68407 6.74038 0
M  V30 4837 H 449.536 2.20823 6.72787 0
M  V30 4838 H 449.944 0.905716 5.57187 0
M  V30 4839 N 449.342 -1.36122 0.79427 0
M  V30 4840 C 450.572 -2.03067 0.380437 0
M  V30 4841 C 450.98 -1.60018 -1.00949 0
M  V30 4842 O 450.323 -0.787425 -1.65968 0
M  V30 4843 C 450.385 -3.57587 0.37034 0
M  V30 4844 C 450.049 -4.23855 1.70867 0
M  V30 4845 C 451.046 -4.46404 2.66496 0
M  V30 4846 C 448.731 -4.61229 1.9893 0
M  V30 4847 C 450.725 -5.05412 3.88378 0
M  V30 4848 C 448.412 -5.19953 3.21079 0
M  V30 4849 C 449.41 -5.41985 4.15621 0
M  V30 4850 O 449.098 -5.99475 5.35616 0
M  V30 4851 H 448.83 -0.658168 0.154243 0
M  V30 4852 H 451.384 -1.7498 1.0757 0
M  V30 4853 H 449.614 -3.84814 -0.381444 0
M  V30 4854 H 451.303 -4.05895 -0.0194894 0
M  V30 4855 H 452.069 -4.17921 2.46103 0
M  V30 4856 H 447.948 -4.43402 1.26158 0
M  V30 4857 H 451.492 -5.22524 4.62185 0
M  V30 4858 H 447.389 -5.47862 3.41347 0
M  V30 4859 H 448.157 -6.17937 5.36745 0
M  V30 4860 N 450.82 -0.546701 -1.47814 0
M  V30 4861 C 452.069 -0.0166497 -2.01693 0
M  V30 4862 C 452.382 1.33721 -1.42752 0
M  V30 4863 O 453.588 1.95658 -1.8823 0
M  V30 4864 C 452.044 0.0206769 -3.59894 0
M  V30 4865 C 451.652 -1.3293 -4.27824 0
M  V30 4866 C 453.396 0.498674 -4.21561 0
M  V30 4867 C 451.303 -1.25165 -5.78003 0
M  V30 4868 H 450.233 -0.0024541 -0.753996 0
M  V30 4869 H 452.884 -0.692984 -1.69912 0
M  V30 4870 H 451.266 0.76244 -3.88591 0
M  V30 4871 H 452.44 -2.08795 -4.10781 0
M  V30 4872 H 450.755 -1.74438 -3.78101 0
M  V30 4873 H 453.352 0.575 -5.31599 0
M  V30 4874 H 453.695 1.5083 -3.88016 0
M  V30 4875 H 454.228 -0.18791 -3.97356 0
M  V30 4876 H 450.967 -2.23695 -6.1615 0
M  V30 4877 H 450.487 -0.53464 -5.97412 0
M  V30 4878 H 452.166 -0.949299 -6.39998 0
M  V30 4879 N 452.299 1.55045 -0.282633 0
M  V30 4880 C 453.209 2.26491 0.61147 0
M  V30 4881 C 454.225 1.29348 1.16384 0
M  V30 4882 O 455.401 1.62298 1.19253 0
M  V30 4883 C 452.466 2.97779 1.77563 0
M  V30 4884 C 451.527 4.10418 1.25919 0
M  V30 4885 C 450.76 4.78297 2.36786 0
M  V30 4886 O 450.983 4.45426 3.56303 0
M  V30 4887 O 449.917 5.66089 2.04517 0
M  V30 4888 H 453.743 3.03683 0.0324615 0
M  V30 4889 H 451.328 1.49317 -0.0497576 0
M  V30 4890 H 453.21 3.42554 2.45427 0
M  V30 4891 H 451.885 2.23498 2.34159 0
M  V30 4892 H 450.792 3.70082 0.546797 0
M  V30 4893 H 452.125 4.86622 0.738887 0
M  V30 4894 N 453.777 0.010035 1.57597 0
M  V30 4895 C 454.687 -0.994226 2.12491 0
M  V30 4896 C 455.703 -1.37013 1.07254 0
M  V30 4897 O 456.879 -1.45542 1.3921 0
M  V30 4898 C 453.944 -2.2642 2.62555 0
M  V30 4899 C 453.005 -1.95049 3.82432 0
M  V30 4900 C 452.238 -3.15991 4.30099 0
M  V30 4901 O 452.461 -4.28015 3.7704 0
M  V30 4902 O 451.395 -2.99403 5.22151 0
M  V30 4903 H 455.221 -0.557549 2.98538 0
M  V30 4904 H 452.806 -0.209413 1.47925 0
M  V30 4905 H 454.688 -3.01009 2.9491 0
M  V30 4906 H 453.363 -2.69306 1.796 0
M  V30 4907 H 452.27 -1.17904 3.55034 0
M  V30 4908 H 453.603 -1.56992 4.66491 0
M  V30 4909 N 455.255 -1.55392 -0.262866 0
M  V30 4910 C 456.185 -1.91978 -1.32917 0
M  V30 4911 C 457.166 -0.7828 -1.51017 0
M  V30 4912 O 458.351 -1.04178 -1.63892 0
M  V30 4913 C 455.481 -2.20055 -2.68687 0
M  V30 4914 C 454.435 -3.35854 -2.65304 0
M  V30 4915 C 453.761 -3.49435 -4.04721 0
M  V30 4916 C 455.061 -4.71977 -2.23685 0
M  V30 4917 H 456.755 -2.81292 -1.02544 0
M  V30 4918 H 454.301 -1.3534 -0.491846 0
M  V30 4919 H 456.254 -2.44237 -3.43404 0
M  V30 4920 H 454.978 -1.27551 -3.00663 0
M  V30 4921 H 453.637 -3.11655 -1.93045 0
M  V30 4922 H 453.285 -2.54379 -4.33936 0
M  V30 4923 H 452.985 -4.27297 -4.0335 0
M  V30 4924 H 454.509 -3.7592 -4.81161 0
M  V30 4925 H 455.923 -4.95637 -2.88127 0
M  V30 4926 H 454.32 -5.52828 -2.33456 0
M  V30 4927 H 455.39 -4.70115 -1.18827 0
M  V30 4928 N 456.733 0.527833 -1.48498 0
M  V30 4929 C 458.149 0.856571 -1.34666 0
M  V30 4930 C 458.349 1.98271 -0.35931 0
M  V30 4931 O 457.405 2.51551 0.218703 0
M  V30 4932 C 458.718 1.22207 -2.74747 0
M  V30 4933 C 460.266 1.33183 -2.83251 0
M  V30 4934 C 460.741 1.73075 -4.24039 0
M  V30 4935 N 462.232 1.80174 -4.26722 0
M  V30 4936 C 462.967 2.1243 -5.32598 0
M  V30 4937 N 462.463 2.43096 -6.4875 0
M  V30 4938 N 464.256 2.13454 -5.19994 0
M  V30 4939 H 456.407 -0.215174 -2.11307 0
M  V30 4940 H 458.67 -0.0336281 -0.947403 0
M  V30 4941 H 458.376 0.468195 -3.4857 0
M  V30 4942 H 458.25 2.17173 -3.08409 0
M  V30 4943 H 460.637 2.07647 -2.09683 0
M  V30 4944 H 460.718 0.363333 -2.53206 0
M  V30 4945 H 460.362 0.991712 -4.98124 0
M  V30 4946 H 460.292 2.70979 -4.51529 0
M  V30 4947 H 462.783 1.58744 -3.42942 0
M  V30 4948 H 463.096 2.6682 -7.25277 0
M  V30 4949 H 461.441 2.40611 -6.52021 0
M  V30 4950 H 464.632 1.88956 -4.28268 0
M  V30 4951 H 464.805 2.38261 -6.02608 0
M  V30 4952 N 458.211 1.37122 0.776871 0
M  V30 4953 C 459.436 1.354 1.57104 0
M  V30 4954 C 459.861 -0.0595562 1.88006 0
M  V30 4955 O 459.219 -1.03514 1.48844 0
M  V30 4956 C 459.267 2.19472 2.8612 0
M  V30 4957 O 458.371 1.59582 3.80273 0
M  V30 4958 H 457.712 0.462869 0.476076 0
M  V30 4959 H 460.242 1.80577 0.961932 0
M  V30 4960 H 460.252 2.32502 3.35271 0
M  V30 4961 H 458.927 3.22222 2.62956 0
M  V30 4962 H 457.504 1.55564 3.38902 0
M  V30 4963 N 459.689 -1.00246 1.21608 0
M  V30 4964 C 460.914 -1.78167 1.06167 0
M  V30 4965 C 461.339 -1.84138 -0.384035 0
M  V30 4966 O 460.697 -1.28683 -1.27712 0
M  V30 4967 C 460.745 -3.19786 1.66642 0
M  V30 4968 O 459.849 -4.02153 0.913613 0
M  V30 4969 H 459.19 -0.549 0.37349 0
M  V30 4970 H 461.72 -1.25994 1.61204 0
M  V30 4971 H 461.73 -3.70451 1.70969 0
M  V30 4972 H 460.405 -3.14754 2.7185 0
M  V30 4973 H 458.982 -3.60711 0.945635 0
M  V30 4974 N 461.167 -1.02423 -1.1978 0
M  V30 4975 C 462.413 -0.719051 -1.89625 0
M  V30 4976 C 462.746 0.750083 -1.7913 0
M  V30 4977 O 462.021 1.54574 -1.18056 0
M  V30 4978 C 462.304 -1.16499 -3.40735 0
M  V30 4979 C 462.157 -2.695 -3.60125 0
M  V30 4980 C 463.476 -0.742166 -4.33797 0
M  V30 4981 H 460.595 -0.26269 -0.688595 0
M  V30 4982 H 463.237 -1.27333 -1.41018 0
M  V30 4983 H 461.387 -0.69341 -3.82262 0
M  V30 4984 H 463.059 -3.24569 -3.278 0
M  V30 4985 H 461.302 -3.10113 -3.03336 0
M  V30 4986 H 461.973 -2.95757 -4.66081 0
M  V30 4987 H 464.449 -1.1477 -3.99959 0
M  V30 4988 H 463.325 -1.08213 -5.38127 0
M  V30 4989 H 463.586 0.355747 -4.40666 0
M  V30 4990 N 462.645 1.35699 -0.801477 0
M  V30 4991 C 463.593 2.3177 -0.196317 0
M  V30 4992 C 464.587 1.56388 0.651081 0
M  V30 4993 O 465.793 1.71557 0.544815 0
M  V30 4994 H 462.168 0.750669 -0.0447189 0
M  V30 4995 H 464.139 2.8036 -1.02181 0
M  V30 4996 C 462.888 3.41671 0.644702 0
M  V30 4997 H 462.211 3.998 0.0019921 0
M  V30 4998 H 463.651 4.11184 1.0346 0
M  V30 4999 C 462.11 2.84271 1.80808 0
M  V30 5000 O 462.64 2.77408 2.9053 0
M  V30 5001 N 460.846 2.41391 1.61799 0
M  V30 5002 H 460.393 2.47173 0.725493 0
M  V30 5003 H 460.351 2.03334 2.39797 0
M  V30 5004 N 464.123 0.554532 1.47522 0
M  V30 5005 C 465.053 -0.182974 2.32782 0
M  V30 5006 C 466.034 -0.911377 1.43624 0
M  V30 5007 O 467.219 -0.892366 1.72483 0
M  V30 5008 C 464.349 -1.21513 3.25349 0
M  V30 5009 C 463.303 -0.603355 4.23726 0
M  V30 5010 C 462.629 -1.73995 5.05598 0
M  V30 5011 C 463.929 0.441121 5.20434 0
M  V30 5012 H 465.623 0.52882 2.94693 0
M  V30 5013 H 463.169 0.255759 1.41711 0
M  V30 5014 H 465.122 -1.73922 3.83835 0
M  V30 5015 H 463.846 -1.95683 2.61487 0
M  V30 5016 H 462.505 -0.10059 3.66462 0
M  V30 5017 H 462.153 -2.47063 4.38143 0
M  V30 5018 H 461.853 -1.3364 5.72201 0
M  V30 5019 H 463.377 -2.26735 5.66942 0
M  V30 5020 H 464.791 0.00319931 5.733 0
M  V30 5021 H 463.188 0.763402 5.95224 0
M  V30 5022 H 464.258 1.33799 4.66075 0
M  V30 5023 N 465.601 -1.54893 0.290851 0
M  V30 5024 C 466.531 -2.26103 -0.583084 0
M  V30 5025 C 467.512 -1.25684 -1.14619 0
M  V30 5026 O 468.697 -1.54436 -1.17741 0
M  V30 5027 C 465.827 -2.99409 -1.75987 0
M  V30 5028 C 464.781 -4.0689 -1.32758 0
M  V30 5029 C 464.107 -4.67856 -2.58872 0
M  V30 5030 C 465.407 -5.20215 -0.46624 0
M  V30 5031 H 467.101 -2.99398 0.0108214 0
M  V30 5032 H 464.647 -1.43998 0.00664468 0
M  V30 5033 H 466.6 -3.47943 -2.37727 0
M  V30 5034 H 465.324 -2.23675 -2.37985 0
M  V30 5035 H 463.983 -3.59191 -0.733299 0
M  V30 5036 H 463.631 -3.88772 -3.19163 0
M  V30 5037 H 463.331 -5.40438 -2.30653 0
M  V30 5038 H 464.855 -5.19147 -3.21433 0
M  V30 5039 H 466.269 -5.64704 -0.989047 0
M  V30 5040 H 464.666 -5.99455 -0.27826 0
M  V30 5041 H 465.736 -4.82198 0.511173 0
M  V30 5042 N 467.08 -0.0183926 -1.57589 0
M  V30 5043 C 468.013 1.00148 -2.0505 0
M  V30 5044 C 468.991 1.32387 -0.944058 0
M  V30 5045 O 470.175 1.44237 -1.21358 0
M  V30 5046 C 467.302 2.32435 -2.46357 0
M  V30 5047 C 466.348 2.15731 -3.67916 0
M  V30 5048 S 467.181 1.46613 -5.15039 0
M  V30 5049 C 468.337 2.80293 -5.59631 0
M  V30 5050 H 468.57 0.597429 -2.91235 0
M  V30 5051 H 466.103 0.193002 -1.53189 0
M  V30 5052 H 468.061 3.0849 -2.70822 0
M  V30 5053 H 466.722 2.69975 -1.60537 0
M  V30 5054 H 465.915 3.13502 -3.9463 0
M  V30 5055 H 465.517 1.4782 -3.43548 0
M  V30 5056 H 467.809 3.76557 -5.63215 0
M  V30 5057 H 468.752 2.58256 -6.59325 0
M  V30 5058 H 469.16 2.85047 -4.87246 0
M  V30 5059 N 468.558 1.5553 0.254621 0
M  V30 5060 C 469.521 1.88872 1.29846 0
M  V30 5061 C 470.521 0.764591 1.41459 0
M  V30 5062 O 471.711 1.03265 1.40293 0
M  V30 5063 C 468.843 2.11032 2.67728 0
M  V30 5064 H 470.036 2.82201 1.01502 0
M  V30 5065 H 467.589 1.48303 0.493556 0
M  V30 5066 H 468.324 1.20146 3.01223 0
M  V30 5067 H 468.109 2.92895 2.60682 0
M  V30 5068 H 469.599 2.38038 3.43115 0
M  V30 5069 N 470.036 -0.519951 1.48776 0
M  V30 5070 C 470.984 -1.64443 1.64503 0
M  V30 5071 C 471.978 -1.61501 0.511248 0
M  V30 5072 O 473.184 -1.66238 0.690294 0
M  V30 5073 H 469.559 -0.544776 0.518385 0
M  V30 5074 H 471.53 -1.48325 2.58925 0
M  V30 5075 C 470.279 -3.02673 1.71127 0
M  V30 5076 H 469.602 -3.05635 2.57735 0
M  V30 5077 H 471.042 -3.80941 1.86172 0
M  V30 5078 C 469.501 -3.33854 0.452032 0
M  V30 5079 O 470.031 -3.99385 -0.430678 0
M  V30 5080 N 468.237 -2.88825 0.32069 0
M  V30 5081 H 467.784 -2.35674 1.03998 0
M  V30 5082 H 467.742 -3.10056 -0.520814 0
M  V30 5083 N 471.514 -1.37532 -0.769588 0
M  V30 5084 C 472.444 -1.36172 -1.89682 0
M  V30 5085 C 473.425 -0.23001 -1.68538 0
M  V30 5086 O 474.61 -0.43069 -1.89364 0
M  V30 5087 C 471.74 -1.1701 -3.26995 0
M  V30 5088 C 470.694 -2.27216 -3.62708 0
M  V30 5089 C 470.02 -1.93174 -4.98586 0
M  V30 5090 C 471.32 -3.6941 -3.69234 0
M  V30 5091 H 473.014 -2.30499 -1.91078 0
M  V30 5092 H 470.56 -1.10953 -0.917902 0
M  V30 5093 H 472.513 -1.14688 -4.05493 0
M  V30 5094 H 471.237 -0.191395 -3.26039 0
M  V30 5095 H 469.896 -2.28697 -2.86519 0
M  V30 5096 H 469.544 -0.938281 -4.94171 0
M  V30 5097 H 469.244 -2.66973 -5.23449 0
M  V30 5098 H 470.768 -1.92443 -5.79481 0
M  V30 5099 H 472.182 -3.70047 -4.37879 0
M  V30 5100 H 470.579 -4.4228 -4.05597 0
M  V30 5101 H 471.649 -4.0288 -2.69844 0
M  V30 5102 N 472.992 0.995999 -1.22138 0
M  V30 5103 C 473.902 2.11985 -1.00496 0
M  V30 5104 C 474.918 1.7394 0.0457701 0
M  V30 5105 O 476.094 2.00868 -0.146273 0
M  V30 5106 C 473.159 3.41779 -0.582086 0
M  V30 5107 C 472.22 3.93943 -1.70608 0
M  V30 5108 C 471.453 5.17542 -1.30328 0
M  V30 5109 O 471.676 5.70114 -0.180743 0
M  V30 5110 O 470.61 5.63382 -2.11861 0
M  V30 5111 H 474.436 2.33123 -1.94647 0
M  V30 5112 H 472.021 1.10358 -1.00705 0
M  V30 5113 H 473.903 4.1989 -0.356467 0
M  V30 5114 H 472.578 3.22007 0.330592 0
M  V30 5115 H 471.485 3.17019 -1.98619 0
M  V30 5116 H 472.818 4.18141 -2.59651 0
M  V30 5117 N 474.47 1.03057 1.19235 0
M  V30 5118 C 475.695 0.74757 1.93458 0
M  V30 5119 C 476.12 -0.687648 1.7508 0
M  V30 5120 O 475.478 -1.47499 1.05422 0
M  V30 5121 C 475.526 1.10604 3.43219 0
M  V30 5122 O 474.63 0.225671 4.11782 0
M  V30 5123 H 473.971 0.276047 0.603899 0
M  V30 5124 H 476.501 1.3777 1.51263 0
M  V30 5125 H 476.511 1.06366 3.93891 0
M  V30 5126 H 475.186 2.15165 3.55917 0
M  V30 5127 H 473.763 0.326795 3.71465 0
M  V30 5128 N 475.948 -1.35272 0.808662 0
M  V30 5129 C 476.878 -2.32315 0.234981 0
M  V30 5130 C 477.859 -1.57572 -0.64071 0
M  V30 5131 O 479.044 -1.8563 -0.570551 0
M  V30 5132 C 476.174 -3.41801 -0.615601 0
M  V30 5133 C 475.128 -4.27694 0.161767 0
M  V30 5134 C 474.454 -5.28519 -0.810649 0
M  V30 5135 C 475.754 -5.04231 1.36193 0
M  V30 5136 H 477.448 -2.80543 1.04575 0
M  V30 5137 H 474.994 -1.3488 0.504315 0
M  V30 5138 H 476.947 -4.08693 -1.02702 0
M  V30 5139 H 475.671 -2.92186 -1.45928 0
M  V30 5140 H 474.33 -3.62384 0.554382 0
M  V30 5141 H 473.978 -4.75171 -1.64988 0
M  V30 5142 H 473.678 -5.8686 -0.294822 0
M  V30 5143 H 475.202 -5.98283 -1.22023 0
M  V30 5144 H 476.616 -5.64058 1.02528 0
M  V30 5145 H 475.013 -5.72077 1.81239 0
M  V30 5146 H 476.083 -4.34753 2.14751 0
M  V30 5147 N 477.426 -0.562348 -1.47226 0
M  V30 5148 C 478.837 -0.130325 -1.86245 0
M  V30 5149 C 479.188 1.30128 -1.46838 0
M  V30 5150 O 478.313 1.97974 -0.873805 0
M  V30 5151 C 478.908 -0.229738 -3.3802 0
M  V30 5152 C 477.467 0.14728 -3.76112 0
M  V30 5153 C 476.614 -0.574971 -2.71274 0
M  V30 5154 H 479.565 -0.771773 -1.3867 0
M  V30 5155 H 479.586 0.550316 -3.76499 0
M  V30 5156 H 479.098 -1.27178 -3.66671 0
M  V30 5157 H 477.199 1.19023 -3.53078 0
M  V30 5158 H 477.312 -0.214858 -4.78618 0
M  V30 5159 H 475.676 -0.0174756 -2.54694 0
M  V30 5160 H 476.459 -1.61827 -3.02766 0
M  V30 5161 N 478.904 1.54736 -0.299062 0
M  V30 5162 C 480.15 2.00397 0.311244 0
M  V30 5163 C 480.483 1.18716 1.53688 0
M  V30 5164 O 479.758 0.263154 1.92712 0
M  V30 5165 C 480.041 3.53817 0.669761 0
M  V30 5166 C 479.894 4.46239 -0.564882 0
M  V30 5167 C 481.213 4.13856 1.49702 0
M  V30 5168 H 478.332 0.728493 0.111653 0
M  V30 5169 H 480.974 1.85506 -0.410774 0
M  V30 5170 H 479.124 3.66637 1.28491 0
M  V30 5171 H 480.796 4.45328 -1.20337 0
M  V30 5172 H 479.039 4.16916 -1.19849 0
M  V30 5173 H 479.71 5.5134 -0.269918 0
M  V30 5174 H 482.186 4.04461 0.977284 0
M  V30 5175 H 481.062 5.21365 1.71666 0
M  V30 5176 H 481.323 3.65608 2.48563 0
M  V30 5177 N 480.382 0.0267497 1.57577 0
M  V30 5178 C 481.607 -0.666227 1.96408 0
M  V30 5179 C 482.032 -1.65004 0.903071 0
M  V30 5180 O 481.39 -1.80787 -0.136263 0
M  V30 5181 C 481.438 -1.35101 3.34335 0
M  V30 5182 O 480.542 -2.46623 3.30531 0
M  V30 5183 H 479.883 -0.175206 0.640468 0
M  V30 5184 H 482.413 0.0878977 2.04411 0
M  V30 5185 H 482.423 -1.70834 3.70513 0
M  V30 5186 H 481.098 -0.629844 4.11103 0
M  V30 5187 H 479.675 -2.13019 3.06068 0
M  V30 5188 N 481.861 -1.55662 -0.24637 0
M  V30 5189 C 482.808 -1.90361 -1.30504 0
M  V30 5190 C 483.778 -0.757905 -1.47801 0
M  V30 5191 O 484.963 -1.01161 -1.61775 0
M  V30 5192 C 482.103 -2.2042 -2.65535 0
M  V30 5193 C 481.216 -3.47799 -2.56242 0
M  V30 5194 C 480.351 -3.67426 -3.8363 0
M  V30 5195 C 479.39 -4.88403 -3.68956 0
M  V30 5196 N 478.527 -5.04548 -4.88237 0
M  V30 5197 H 483.367 -2.80645 -1.00213 0
M  V30 5198 H 480.904 -1.38924 -0.483577 0
M  V30 5199 H 482.862 -2.35853 -3.44135 0
M  V30 5200 H 481.492 -1.3334 -2.93973 0
M  V30 5201 H 480.544 -3.40694 -1.69208 0
M  V30 5202 H 481.856 -4.36544 -2.4131 0
M  V30 5203 H 481.01 -3.82821 -4.70673 0
M  V30 5204 H 479.749 -2.76914 -4.01459 0
M  V30 5205 H 478.754 -4.72984 -2.80296 0
M  V30 5206 H 479.979 -5.80375 -3.52621 0
M  V30 5207 H 477.925 -4.16974 -5.06427 0
M  V30 5208 H 477.842 -5.87384 -4.75937 0
M  V30 5209 H 479.11 -5.24355 -5.76777 0
M  V30 5210 N 483.339 0.512053 -1.4905 0
M  V30 5211 C 484.587 1.26436 -1.57665 0
M  V30 5212 C 484.908 1.93255 -0.260293 0
M  V30 5213 O 484.178 1.82206 0.719564 0
M  V30 5214 H 482.758 0.469658 -0.580888 0
M  V30 5215 H 485.42 0.594398 -1.85615 0
M  V30 5216 H 484.516 2.03417 -2.36702 0
M  V30 5217 N 484.817 1.37938 0.762283 0
M  V30 5218 C 486.065 1.33404 1.51815 0
M  V30 5219 C 486.386 -0.0780975 1.94844 0
M  V30 5220 O 485.656 -1.02405 1.67003 0
M  V30 5221 H 484.236 0.490839 0.563104 0
M  V30 5222 H 486.898 1.72527 0.906669 0
M  V30 5223 H 485.994 1.97926 2.41313 0
M  V30 5224 N 486.295 -0.989507 1.22664 0
M  V30 5225 C 487.706 -1.54406 1.04955 0
M  V30 5226 C 488.057 -1.92366 -0.385951 0
M  V30 5227 O 487.182 -1.75111 -1.27142 0
M  V30 5228 C 487.777 -2.80578 1.89899 0
M  V30 5229 C 486.336 -3.32464 1.76478 0
M  V30 5230 C 485.483 -2.05524 1.86159 0
M  V30 5231 H 488.434 -0.810211 1.3646 0
M  V30 5232 H 488.455 -3.53075 1.4184 0
M  V30 5233 H 487.967 -2.52918 2.94371 0
M  V30 5234 H 486.068 -3.65024 0.747528 0
M  V30 5235 H 486.181 -4.02838 2.59342 0
M  V30 5236 H 484.545 -2.19241 1.29636 0
M  V30 5237 H 485.328 -1.80258 2.92168 0
M  V30 5238 N 487.773 -1.03688 -1.18687 0
M  V30 5239 C 488.683 -0.634908 -2.25845 0
M  V30 5240 C 489.699 0.337065 -1.70704 0
M  V30 5241 O 490.875 0.192943 -2.00474 0
M  V30 5242 C 487.94 -0.000180054 -3.467 0
M  V30 5243 C 487.001 -1.02067 -4.1699 0
M  V30 5244 C 486.234 -0.41614 -5.32075 0
M  V30 5245 O 486.457 0.778712 -5.65059 0
M  V30 5246 O 485.391 -1.14296 -5.90948 0
M  V30 5247 H 489.217 -1.52757 -2.62486 0
M  V30 5248 H 486.802 -0.807533 -1.25695 0
M  V30 5249 H 488.684 0.353342 -4.19916 0
M  V30 5250 H 487.359 0.866367 -3.11891 0
M  V30 5251 H 486.266 -1.42592 -3.45859 0
M  V30 5252 H 487.599 -1.85786 -4.5579 0
M  V30 5253 N 489.251 1.34841 -0.815825 0
M  V30 5254 C 490.498 1.98499 -0.400535 0
M  V30 5255 C 490.826 1.64699 1.03463 0
M  V30 5256 O 490.081 0.907006 1.73412 0
M  V30 5257 C 490.38 3.53273 -0.541541 0
M  V30 5258 C 490.046 4.06966 -1.94138 0
M  V30 5259 C 488.708 4.21341 -2.32433 0
M  V30 5260 C 491.06 4.35933 -2.85677 0
M  V30 5261 C 488.388 4.62007 -3.61617 0
M  V30 5262 C 490.74 4.78042 -4.14317 0
M  V30 5263 C 489.404 4.90622 -4.52599 0
M  V30 5264 H 488.674 0.72636 -0.146566 0
M  V30 5265 H 491.321 1.60902 -1.0384 0
M  V30 5266 H 489.626 3.91387 0.179741 0
M  V30 5267 H 491.323 4.00497 -0.20085 0
M  V30 5268 H 487.913 3.96235 -1.63388 0
M  V30 5269 H 492.097 4.24372 -2.57337 0
M  V30 5270 H 487.353 4.69937 -3.91113 0
M  V30 5271 H 491.527 4.99415 -4.85342 0
M  V30 5272 H 489.154 5.2189 -5.52752 0
M  V30 5273 N 490.729 0.570148 1.46925 0
M  V30 5274 C 491.676 -0.170257 2.30171 0
M  V30 5275 C 492.646 -0.896099 1.39855 0
M  V30 5276 O 493.831 -0.889248 1.68811 0
M  V30 5277 C 490.971 -1.18605 3.24079 0
M  V30 5278 C 490.084 -0.464947 4.29491 0
M  V30 5279 C 489.219 -1.46716 5.10537 0
M  V30 5280 C 488.258 -0.731758 6.0771 0
M  V30 5281 N 487.395 -1.68142 6.81669 0
M  V30 5282 H 492.235 0.545713 2.92961 0
M  V30 5283 H 489.772 0.280938 1.44392 0
M  V30 5284 H 491.73 -1.78771 3.76957 0
M  V30 5285 H 490.36 -1.86989 2.63125 0
M  V30 5286 H 489.412 0.251506 3.79568 0
M  V30 5287 H 490.724 0.110548 4.98677 0
M  V30 5288 H 489.878 -2.14199 5.6763 0
M  V30 5289 H 488.617 -2.07658 4.41282 0
M  V30 5290 H 487.622 -0.0430787 5.49783 0
M  V30 5291 H 488.847 -0.127904 6.7898 0
M  V30 5292 H 486.793 -2.27918 6.15134 0
M  V30 5293 H 486.71 -1.15841 7.47072 0
M  V30 5294 H 487.978 -2.347 7.43328 0
M  V30 5295 N 492.207 -1.54576 0.307264 0
M  V30 5296 C 493.137 -2.26708 -0.55907 0
M  V30 5297 C 494.118 -1.26893 -1.1328 0
M  V30 5298 O 495.303 -1.55677 -1.16097 0
M  V30 5299 C 492.433 -3.01259 -1.72801 0
M  V30 5300 C 491.387 -4.08275 -1.28435 0
M  V30 5301 C 490.713 -4.70575 -2.53895 0
M  V30 5302 C 492.013 -5.2068 -0.411038 0
M  V30 5303 H 493.707 -2.9937 0.042576 0
M  V30 5304 H 491.253 -1.43983 0.0219173 0
M  V30 5305 H 493.206 -3.50444 -2.34023 0
M  V30 5306 H 491.93 -2.26187 -2.356 0
M  V30 5307 H 490.589 -3.59949 -0.695161 0
M  V30 5308 H 490.237 -3.92136 -3.15021 0
M  V30 5309 H 489.937 -5.42854 -2.24908 0
M  V30 5310 H 491.461 -5.22527 -3.15908 0
M  V30 5311 H 492.875 -5.65721 -0.929097 0
M  V30 5312 H 491.272 -5.99716 -0.214664 0
M  V30 5313 H 492.342 -4.81629 0.562287 0
M  V30 5314 N 493.685 -0.035106 -1.57561 0
M  V30 5315 C 494.617 0.973604 -2.07494 0
M  V30 5316 C 495.63 1.28504 -0.999534 0
M  V30 5317 O 496.819 1.24864 -1.27559 0
M  V30 5318 C 493.919 2.29945 -2.48955 0
M  V30 5319 C 493.092 2.1723 -3.79644 0
M  V30 5320 C 492.151 3.328 -4.07592 0
M  V30 5321 O 491.177 3.09418 -4.77754 0
M  V30 5322 N 492.379 4.56779 -3.58236 0
M  V30 5323 H 495.144 0.547525 -2.94656 0
M  V30 5324 H 492.705 0.151515 -1.61189 0
M  V30 5325 H 494.697 3.06097 -2.64739 0
M  V30 5326 H 493.267 2.64173 -1.67126 0
M  V30 5327 H 492.487 1.25768 -3.73599 0
M  V30 5328 H 493.775 2.05945 -4.65257 0
M  V30 5329 H 493.173 4.78668 -3.01485 0
M  V30 5330 H 491.73 5.30079 -3.79288 0
M  V30 5331 N 495.163 1.55791 0.238111 0
M  V30 5332 C 496.11 1.9105 1.29493 0
M  V30 5333 C 497.08 0.765733 1.47397 0
M  V30 5334 O 498.265 1.02017 1.61236 0
M  V30 5335 C 495.405 2.21826 2.64362 0
M  V30 5336 C 494.518 3.49153 2.54394 0
M  V30 5337 C 493.653 3.69455 3.81676 0
M  V30 5338 C 492.692 4.90353 3.66361 0
M  V30 5339 N 491.829 5.07131 4.85554 0
M  V30 5340 H 496.669 2.81172 0.987233 0
M  V30 5341 H 494.206 1.39179 0.476203 0
M  V30 5342 H 496.164 2.37675 3.4288 0
M  V30 5343 H 494.794 1.34897 2.93262 0
M  V30 5344 H 493.846 3.41587 1.67399 0
M  V30 5345 H 495.158 4.37818 2.38991 0
M  V30 5346 H 494.312 3.85311 4.68636 0
M  V30 5347 H 493.051 2.7904 3.99985 0
M  V30 5348 H 492.056 4.74464 2.77784 0
M  V30 5349 H 493.281 5.82237 3.49538 0
M  V30 5350 H 491.227 4.19654 5.04209 0
M  V30 5351 H 491.144 5.89899 4.72816 0
M  V30 5352 H 492.412 5.27407 5.73988 0
M  V30 5353 N 496.642 -0.504142 1.49319 0
M  V30 5354 C 497.572 -1.61473 1.68667 0
M  V30 5355 C 498.553 -1.61455 0.535378 0
M  V30 5356 O 499.738 -1.78245 0.770868 0
M  V30 5357 C 496.868 -2.99971 1.75028 0
M  V30 5358 C 495.822 -3.14854 2.89916 0
M  V30 5359 C 495.148 -4.54671 2.81387 0
M  V30 5360 C 496.448 -2.95176 4.30893 0
M  V30 5361 H 498.142 -1.45535 2.61648 0
M  V30 5362 H 495.688 -0.698711 1.25913 0
M  V30 5363 H 497.641 -3.77562 1.8715 0
M  V30 5364 H 496.365 -3.1699 0.786441 0
M  V30 5365 H 495.024 -2.39687 2.77391 0
M  V30 5366 H 494.672 -4.68562 1.82917 0
M  V30 5367 H 494.372 -4.6557 3.58494 0
M  V30 5368 H 495.896 -5.34327 2.95512 0
M  V30 5369 H 497.31 -3.62538 4.44116 0
M  V30 5370 H 495.707 -3.17549 5.09198 0
M  V30 5371 H 496.777 -1.91332 4.45556 0
M  V30 5372 N 498.12 -1.38341 -0.754957 0
M  V30 5373 C 499.067 -1.3546 -1.86867 0
M  V30 5374 C 500.037 -0.217369 -1.64672 0
M  V30 5375 O 501.222 -0.409383 -1.86356 0
M  V30 5376 C 498.362 -1.18413 -3.24149 0
M  V30 5377 C 497.475 -2.41511 -3.58185 0
M  V30 5378 C 496.61 -2.17205 -4.84763 0
M  V30 5379 C 495.649 -3.36081 -5.11582 0
M  V30 5380 N 494.786 -3.11219 -6.29354 0
M  V30 5381 H 499.626 -2.30672 -1.88664 0
M  V30 5382 H 497.163 -1.14607 -0.922154 0
M  V30 5383 H 499.121 -1.06545 -4.03366 0
M  V30 5384 H 497.751 -0.268397 -3.21682 0
M  V30 5385 H 496.803 -2.64056 -2.73822 0
M  V30 5386 H 498.115 -3.30115 -3.73932 0
M  V30 5387 H 497.269 -2.02465 -5.7192 0
M  V30 5388 H 496.008 -1.25964 -4.71152 0
M  V30 5389 H 495.013 -3.51341 -4.22894 0
M  V30 5390 H 496.238 -4.28196 -5.27091 0
M  V30 5391 H 494.184 -2.22624 -6.17069 0
M  V30 5392 H 494.101 -3.93373 -6.45596 0
M  V30 5393 H 495.369 -3.00132 -7.19403 0
M  V30 5394 N 499.598 0.982988 -1.23187 0
M  V30 5395 C 501.014 1.2487 -0.993967 0
M  V30 5396 C 501.214 1.99155 0.306498 0
M  V30 5397 O 500.27 2.30688 1.0266 0
M  V30 5398 C 501.583 2.05078 -2.19917 0
M  V30 5399 C 503.131 2.18227 -2.2438 0
M  V30 5400 C 503.606 3.01825 -3.44479 0
M  V30 5401 N 505.097 3.09411 -3.44702 0
M  V30 5402 C 505.832 3.74412 -4.34285 0
M  V30 5403 N 505.328 4.41259 -5.341 0
M  V30 5404 N 507.121 3.71273 -4.22035 0
M  V30 5405 H 499.272 0.485253 -2.06783 0
M  V30 5406 H 501.535 0.276979 -0.906635 0
M  V30 5407 H 501.241 1.57867 -3.14279 0
M  V30 5408 H 501.115 3.05829 -2.2079 0
M  V30 5409 H 503.502 2.64648 -1.30559 0
M  V30 5410 H 503.583 1.16873 -2.2754 0
M  V30 5411 H 503.227 2.56102 -4.38605 0
M  V30 5412 H 503.157 4.03342 -3.38559 0
M  V30 5413 H 505.648 2.61845 -2.7248 0
M  V30 5414 H 505.961 4.88629 -5.98717 0
M  V30 5415 H 504.306 4.39975 -5.38002 0
M  V30 5416 H 507.497 3.18217 -3.43301 0
M  V30 5417 H 507.67 4.21649 -4.92053 0
M  V30 5418 N 501.076 1.04316 1.18135 0
M  V30 5419 C 502.301 0.768047 1.92655 0
M  V30 5420 C 502.726 -0.66904 1.758 0
M  V30 5421 O 502.084 -1.46372 1.06981 0
M  V30 5422 C 502.132 1.14239 3.42026 0
M  V30 5423 O 501.236 0.269333 4.1152 0
M  V30 5424 H 500.577 0.282436 0.600937 0
M  V30 5425 H 503.107 1.39367 1.49793 0
M  V30 5426 H 503.117 1.10538 3.92741 0
M  V30 5427 H 501.792 2.18928 3.53615 0
M  V30 5428 H 500.369 0.366175 3.71098 0
M  V30 5429 N 502.554 -1.34406 0.822964 0
M  V30 5430 C 503.486 -2.28305 0.202375 0
M  V30 5431 C 504.499 -1.5103 -0.60777 0
M  V30 5432 O 505.688 -1.73057 -0.437444 0
M  V30 5433 C 502.788 -3.30836 -0.734911 0
M  V30 5434 C 501.961 -4.37388 0.0324177 0
M  V30 5435 C 501.02 -5.1968 -0.825803 0
M  V30 5436 O 500.046 -5.68556 -0.270771 0
M  V30 5437 N 501.248 -5.39393 -2.14558 0
M  V30 5438 H 504.013 -2.82201 1.00909 0
M  V30 5439 H 501.574 -1.4693 0.67993 0
M  V30 5440 H 503.566 -3.82786 -1.31365 0
M  V30 5441 H 502.136 -2.77334 -1.44238 0
M  V30 5442 H 501.356 -3.86152 0.792469 0
M  V30 5443 H 502.644 -5.05702 0.560633 0
M  V30 5444 H 502.042 -5.01357 -2.62025 0
M  V30 5445 H 500.599 -5.94461 -2.67318 0
M  V30 5446 N 504.032 -0.577932 -1.46621 0
M  V30 5447 C 504.98 0.170882 -2.31971 0
M  V30 5448 C 505.974 0.889086 -1.44193 0
M  V30 5449 O 507.18 0.808017 -1.60845 0
M  V30 5450 H 503.555 0.0739763 -0.748353 0
M  V30 5451 H 505.526 -0.567856 -2.92947 0
M  V30 5452 C 504.275 1.17438 -3.27267 0
M  V30 5453 H 503.598 0.63116 -3.94787 0
M  V30 5454 H 505.038 1.66882 -3.89778 0
M  V30 5455 C 503.497 2.23292 -2.52274 0
M  V30 5456 O 504.027 3.30567 -2.28229 0
M  V30 5457 N 502.233 1.97772 -2.12919 0
M  V30 5458 H 501.78 1.10545 -2.32675 0
M  V30 5459 H 501.738 2.68809 -1.63062 0
M  V30 5460 N 505.51 1.54411 -0.315457 0
M  V30 5461 C 506.735 2.05299 0.294496 0
M  V30 5462 C 507.16 1.19052 1.4563 0
M  V30 5463 O 506.518 0.197804 1.80218 0
M  V30 5464 C 506.566 3.5345 0.714549 0
M  V30 5465 O 505.67 3.70175 1.81781 0
M  V30 5466 H 505.011 0.661743 0.0547019 0
M  V30 5467 H 507.541 1.99327 -0.461508 0
M  V30 5468 H 507.551 3.9557 0.999426 0
M  V30 5469 H 506.226 4.1568 -0.135244 0
M  V30 5470 H 504.803 3.3996 1.53236 0
M  V30 5471 N 506.988 0.0434614 1.5754 0
M  V30 5472 C 507.951 -0.918696 2.09982 0
M  V30 5473 C 508.951 -1.24488 1.01781 0
M  V30 5474 O 510.141 -1.18284 1.27885 0
M  V30 5475 C 507.273 -2.23093 2.57764 0
M  V30 5476 H 508.466 -0.464229 2.96285 0
M  V30 5477 H 506.019 -0.204818 1.54952 0
M  V30 5478 H 506.754 -2.73137 1.74832 0
M  V30 5479 H 506.539 -2.00724 3.36827 0
M  V30 5480 H 508.029 -2.92028 2.98512 0
M  V30 5481 N 508.466 -1.55915 -0.229846 0
M  V30 5482 C 509.713 -1.78542 -0.955452 0
M  V30 5483 C 510.041 -0.610785 -1.84661 0
M  V30 5484 O 509.296 0.405213 -1.91459 0
M  V30 5485 C 509.595 -3.06845 -1.8325 0
M  V30 5486 C 509.261 -4.37395 -1.09528 0
M  V30 5487 C 507.923 -4.72868 -0.891598 0
M  V30 5488 C 510.275 -5.18029 -0.574046 0
M  V30 5489 C 507.603 -5.86496 -0.154655 0
M  V30 5490 C 509.955 -6.32423 0.149513 0
M  V30 5491 C 508.619 -6.66504 0.364519 0
M  V30 5492 H 507.889 -0.653333 -0.349625 0
M  V30 5493 H 510.536 -1.90183 -0.224235 0
M  V30 5494 H 508.841 -2.90291 -2.63132 0
M  V30 5495 H 510.538 -3.21553 -2.39592 0
M  V30 5496 H 507.128 -4.09538 -1.26399 0
M  V30 5497 H 511.312 -4.91066 -0.718899 0
M  V30 5498 H 506.568 -6.11396 0.0222356 0
M  V30 5499 H 510.742 -6.94137 0.560947 0
M  V30 5500 H 508.369 -7.54397 0.937495 0
M  V30 5501 N 509.944 0.496216 -1.49584 0
M  V30 5502 C 510.874 1.60576 -1.69521 0
M  V30 5503 C 511.855 1.61169 -0.543933 0
M  V30 5504 O 513.04 1.77834 -0.78031 0
M  V30 5505 C 510.17 2.99038 -1.76616 0
M  V30 5506 C 509.124 3.13312 -2.91581 0
M  V30 5507 C 508.45 4.53172 -2.83794 0
M  V30 5508 C 509.75 2.92886 -4.32452 0
M  V30 5509 H 511.444 1.44146 -2.62416 0
M  V30 5510 H 508.99 0.692024 -1.26282 0
M  V30 5511 H 510.943 3.76564 -1.8915 0
M  V30 5512 H 509.667 3.16568 -0.80324 0
M  V30 5513 H 508.326 2.38213 -2.78658 0
M  V30 5514 H 507.974 4.67585 -1.854 0
M  V30 5515 H 507.674 4.63662 -3.60958 0
M  V30 5516 H 509.198 5.32752 -2.98342 0
M  V30 5517 H 510.612 3.60178 -4.46032 0
M  V30 5518 H 509.009 3.14844 -5.10875 0
M  V30 5519 H 510.079 1.88966 -4.46565 0
M  V30 5520 N 511.423 1.38739 0.74761 0
M  V30 5521 C 512.7 1.25791 1.49786 0
M  V30 5522 C 513.08 -0.138075 2.10648 0
M  V30 5523 O 512.428 -1.14815 1.9756 0
M  V30 5524 C 512.638 2.37265 2.55942 0
M  V30 5525 C 513.986 2.75978 3.22679 0
M  V30 5526 O 515.01 2.36621 2.6625 0
M  V30 5527 O 513.869 3.43867 4.24756 0
M  V30 5528 H 510.963 0.492251 0.664543 0
M  V30 5529 H 513.509 1.50582 0.782511 0
M  V30 5530 H 512.281 3.30644 2.0926 0
M  V30 5531 H 511.904 2.14071 3.35051 0
M  V30 5532 N 512.901 -0.976442 1.23707 0
M  V30 5533 C 514.15 -1.71254 1.06559 0
M  V30 5534 C 514.463 -1.91528 -0.397024 0
M  V30 5535 O 515.669 -2.62625 -0.688518 0
M  V30 5536 C 514.125 -3.08207 1.8584 0
M  V30 5537 C 513.733 -2.95806 3.36456 0
M  V30 5538 C 515.477 -3.85749 1.77194 0
M  V30 5539 C 513.384 -4.28015 4.08114 0
M  V30 5540 H 512.314 -0.642171 0.395136 0
M  V30 5541 H 514.965 -1.08877 1.4771 0
M  V30 5542 H 513.347 -3.71363 1.37498 0
M  V30 5543 H 514.521 -2.41716 3.92314 0
M  V30 5544 H 512.836 -2.31736 3.45959 0
M  V30 5545 H 515.433 -4.83633 2.28041 0
M  V30 5546 H 515.776 -4.09752 0.735477 0
M  V30 5547 H 516.309 -3.29303 2.23169 0
M  V30 5548 H 513.048 -4.09208 5.12083 0
M  V30 5549 H 512.568 -4.81955 3.57043 0
M  V30 5550 H 514.247 -4.96681 4.14629 0
M  V30 5551 N 514.379 -1.04941 -1.1758 0
M  V30 5552 C 515.627 -0.756492 -1.87408 0
M  V30 5553 C 515.948 0.718478 -1.81281 0
M  V30 5554 O 515.218 1.519 -1.23706 0
M  V30 5555 H 513.798 -0.276841 -0.693807 0
M  V30 5556 H 516.46 -1.32803 -1.42652 0
M  V30 5557 H 515.556 -1.06918 -2.93215 0
M  V30 5558 N 515.857 1.33968 -0.830081 0
M  V30 5559 C 517.134 1.92554 -0.343858 0
M  V30 5560 C 517.514 1.7573 1.16971 0
M  V30 5561 O 516.862 1.14035 1.98011 0
M  V30 5562 C 517.072 3.40147 -0.781073 0
M  V30 5563 C 518.42 4.17299 -0.78402 0
M  V30 5564 O 519.444 3.48762 -0.724112 0
M  V30 5565 O 518.303 5.39631 -0.863739 0
M  V30 5566 H 515.397 0.821469 -0.0954827 0
M  V30 5567 H 517.943 1.42897 -0.915348 0
M  V30 5568 H 516.715 3.46225 -1.82329 0
M  V30 5569 H 516.338 3.97166 -0.18567 0
M  V30 5570 N 517.335 0.585699 1.46312 0
M  V30 5571 C 518.245 -0.148236 2.34131 0
M  V30 5572 C 519.261 -0.882972 1.49932 0
M  V30 5573 O 520.437 -0.845484 1.82794 0
M  V30 5574 C 517.502 -1.14714 3.27172 0
M  V30 5575 C 516.563 -0.416746 4.27272 0
M  V30 5576 C 515.796 -1.36806 5.15868 0
M  V30 5577 O 516.019 -2.60475 5.07454 0
M  V30 5578 O 514.953 -0.877018 5.95476 0
M  V30 5579 H 518.779 0.572882 2.98248 0
M  V30 5580 H 516.364 0.346082 1.45336 0
M  V30 5581 H 518.246 -1.72303 3.84564 0
M  V30 5582 H 516.921 -1.84967 2.65648 0
M  V30 5583 H 515.828 0.201061 3.73559 0
M  V30 5584 H 517.161 0.244872 4.9159 0
M  V30 5585 N 518.813 -1.54241 0.323641 0
M  V30 5586 C 519.761 -2.25813 -0.557804 0
M  V30 5587 C 520.755 -1.27225 -1.11849 0
M  V30 5588 O 521.961 -1.45001 -1.06652 0
M  V30 5589 H 518.336 -0.72532 -0.198532 0
M  V30 5590 H 520.307 -2.98322 0.0681112 0
M  V30 5591 C 519.056 -3.02913 -1.70701 0
M  V30 5592 H 518.379 -3.78593 -1.28482 0
M  V30 5593 H 519.819 -3.56238 -2.29935 0
M  V30 5594 C 518.278 -2.11217 -2.62467 0
M  V30 5595 O 518.808 -1.69508 -3.64184 0
M  V30 5596 N 517.014 -1.76704 -2.30703 0
M  V30 5597 H 516.561 -2.1082 -1.48029 0
M  V30 5598 H 516.519 -1.15631 -2.92364 0
M  V30 5599 N 520.291 -0.0518155 -1.57515 0
M  V30 5600 C 521.201 0.937539 -2.15052 0
M  V30 5601 C 522.217 1.34121 -1.10849 0
M  V30 5602 O 523.393 1.418 -1.4302 0
M  V30 5603 C 520.458 2.19379 -2.68466 0
M  V30 5604 C 519.519 1.84841 -3.87469 0
M  V30 5605 C 518.752 3.04477 -4.38326 0
M  V30 5606 O 518.975 4.17868 -3.88256 0
M  V30 5607 O 517.909 2.85453 -5.29906 0
M  V30 5608 H 521.735 0.478201 -2.99912 0
M  V30 5609 H 519.32 0.17012 -1.48428 0
M  V30 5610 H 521.202 2.93084 -3.02787 0
M  V30 5611 H 519.877 2.64449 -1.86677 0
M  V30 5612 H 518.784 1.08449 -3.58036 0
M  V30 5613 H 520.117 1.44569 -4.7049 0
M  V30 5614 N 521.769 1.56035 0.221574 0
M  V30 5615 C 523.018 1.78245 0.944016 0
M  V30 5616 C 523.331 0.620371 1.85501 0
M  V30 5617 O 524.537 0.726103 2.6161 0
M  V30 5618 C 522.993 3.15659 1.7288 0
M  V30 5619 C 522.601 4.39591 0.863942 0
M  V30 5620 C 524.345 3.47195 2.44246 0
M  V30 5621 C 522.252 5.6803 1.64607 0
M  V30 5622 H 521.182 0.664547 0.356222 0
M  V30 5623 H 523.833 1.8243 0.197904 0
M  V30 5624 H 522.215 3.0565 2.51781 0
M  V30 5625 H 523.389 4.60655 0.115464 0
M  V30 5626 H 521.704 4.15572 0.262407 0
M  V30 5627 H 524.301 4.40381 3.03263 0
M  V30 5628 H 524.644 2.69693 3.1713 0
M  V30 5629 H 525.177 3.58533 1.72334 0
M  V30 5630 H 521.916 6.48425 0.960507 0
M  V30 5631 H 521.436 5.51027 2.36917 0
M  V30 5632 H 523.115 6.08203 2.20675 0
M  V30 5633 N 523.247 -0.488276 1.49845 0
M  V30 5634 C 524.179 -1.60539 1.63584 0
M  V30 5635 C 525.192 -1.5434 0.517972 0
M  V30 5636 O 526.381 -1.60041 0.790516 0
M  V30 5637 C 523.481 -2.99374 1.58835 0
M  V30 5638 C 522.654 -3.30624 2.86368 0
M  V30 5639 C 521.713 -4.4893 2.74496 0
M  V30 5640 O 520.739 -4.50085 3.48443 0
M  V30 5641 N 521.941 -5.49591 1.86894 0
M  V30 5642 H 524.706 -1.49176 2.59936 0
M  V30 5643 H 522.267 -0.67639 1.47094 0
M  V30 5644 H 524.259 -3.76459 1.48529 0
M  V30 5645 H 522.829 -3.04595 0.702892 0
M  V30 5646 H 522.049 -2.42314 3.1093 0
M  V30 5647 H 523.337 -3.48305 3.70892 0
M  V30 5648 H 522.735 -5.51467 1.26097 0
M  V30 5649 H 521.292 -6.25728 1.82503 0
M  V30 5650 N 524.725 -1.39134 -0.740242 0
M  V30 5651 C 525.655 -1.40165 -1.86751 0
M  V30 5652 C 526.636 -0.265708 -1.68012 0
M  V30 5653 O 527.821 -0.47076 -1.88408 0
M  V30 5654 C 524.951 -1.2392 -3.2444 0
M  V30 5655 C 523.905 -2.34858 -3.57807 0
M  V30 5656 C 523.231 -2.03707 -4.94376 0
M  V30 5657 C 524.531 -3.77159 -3.61315 0
M  V30 5658 H 526.225 -2.345 -1.86145 0
M  V30 5659 H 523.771 -1.12875 -0.89416 0
M  V30 5660 H 525.724 -1.23263 -4.02969 0
M  V30 5661 H 524.448 -0.26051 -3.25559 0
M  V30 5662 H 523.107 -2.34723 -2.81604 0
M  V30 5663 H 522.755 -1.04289 -4.9207 0
M  V30 5664 H 522.455 -2.78016 -5.17669 0
M  V30 5665 H 523.979 -2.04691 -5.75268 0
M  V30 5666 H 525.393 -3.79252 -4.29931 0
M  V30 5667 H 523.79 -4.50784 -3.96124 0
M  V30 5668 H 524.86 -4.08513 -2.61238 0
M  V30 5669 N 526.204 0.969867 -1.24223 0
M  V30 5670 C 527.429 1.75289 -1.10853 0
M  V30 5671 C 527.854 1.85091 0.335079 0
M  V30 5672 O 527.212 1.32024 1.24255 0
M  V30 5673 C 527.26 3.15255 -1.75062 0
M  V30 5674 O 526.364 3.99589 -1.01992 0
M  V30 5675 H 525.705 0.538904 -0.387915 0
M  V30 5676 H 528.235 1.21675 -1.64488 0
M  V30 5677 H 528.245 3.65787 -1.80731 0
M  V30 5678 H 526.92 3.07436 -2.801 0
M  V30 5679 H 525.497 3.58077 -1.04094 0
M  V30 5680 N 527.682 1.05563 1.17022 0
M  V30 5681 C 528.629 0.659893 2.21165 0
M  V30 5682 C 529.599 -0.339813 1.62587 0
M  V30 5683 O 530.784 -0.230378 1.89404 0
M  V30 5684 C 527.924 0.0447297 3.45071 0
M  V30 5685 C 527.037 1.09372 4.17926 0
M  V30 5686 C 526.172 0.445481 5.29329 0
M  V30 5687 C 525.211 1.47852 5.93975 0
M  V30 5688 N 524.348 0.854172 6.96885 0
M  V30 5689 H 529.188 1.55243 2.54369 0
M  V30 5690 H 526.725 0.776336 1.24946 0
M  V30 5691 H 528.683 -0.329404 4.15898 0
M  V30 5692 H 527.313 -0.811244 3.1244 0
M  V30 5693 H 526.365 1.58564 3.45777 0
M  V30 5694 H 527.677 1.87773 4.62107 0
M  V30 5695 H 526.831 0.0179688 6.06697 0
M  V30 5696 H 525.57 -0.370481 4.86291 0
M  V30 5697 H 524.575 1.91601 5.15334 0
M  V30 5698 H 525.8 2.29645 6.39093 0
M  V30 5699 H 523.746 0.0587882 6.55974 0
M  V30 5700 H 523.663 1.57567 7.39397 0
M  V30 5701 H 524.931 0.451559 7.78191 0
M  V30 5702 N 529.16 -1.33526 0.837174 0
M  V30 5703 C 530.385 -2.0258 0.444545 0
M  V30 5704 C 530.81 -1.6258 -0.946006 0
M  V30 5705 O 530.168 -0.817548 -1.6182 0
M  V30 5706 C 530.216 -3.5605 0.571006 0
M  V30 5707 O 529.32 -4.10422 -0.403431 0
M  V30 5708 H 528.661 -0.638866 0.180958 0
M  V30 5709 H 531.191 -1.70462 1.13154 0
M  V30 5710 H 531.201 -4.05488 0.452024 0
M  V30 5711 H 529.876 -3.84509 1.58512 0
M  V30 5712 H 528.453 -3.72113 -0.242147 0
M  V30 5713 N 530.638 -0.59345 -1.46 0
M  V30 5714 C 531.915 -0.0157933 -1.95594 0
M  V30 5715 C 532.295 1.44807 -1.53604 0
M  V30 5716 O 531.643 2.14342 -0.791824 0
M  V30 5717 C 531.853 -0.199081 -3.48432 0
M  V30 5718 C 533.201 -0.0724943 -4.24538 0
M  V30 5719 O 534.225 -0.128469 -3.55968 0
M  V30 5720 O 533.084 0.0542426 -5.46473 0
M  V30 5721 H 530.178 0.043749 -0.825842 0
M  V30 5722 H 532.724 -0.662522 -1.56233 0
M  V30 5723 H 531.496 -1.21631 -3.71916 0
M  V30 5724 H 531.119 0.483576 -3.94648 0
M  V30 5725 N 532.116 1.54067 -0.331816 0
M  V30 5726 C 533.362 2.01012 0.268667 0
M  V30 5727 C 533.695 1.2195 1.51136 0
M  V30 5728 O 532.97 0.303972 1.9211 0
M  V30 5729 C 533.253 3.55158 0.59456 0
M  V30 5730 C 533.106 4.4494 -0.659409 0
M  V30 5731 C 534.425 4.16939 1.4089 0
M  V30 5732 H 531.544 0.730698 0.0961756 0
M  V30 5733 H 534.186 1.84593 -0.450031 0
M  V30 5734 H 532.336 3.6928 1.20685 0
M  V30 5735 H 534.008 4.42675 -1.29756 0
M  V30 5736 H 532.251 4.1428 -1.28665 0
M  V30 5737 H 532.922 5.50643 -0.386804 0
M  V30 5738 H 535.398 4.06443 0.891272 0
M  V30 5739 H 534.274 5.24889 1.60569 0
M  V30 5740 H 534.535 3.70798 2.40752 0
M  V30 5741 N 533.594 0.0601682 1.57485 0
M  V30 5742 C 534.84 -0.612501 1.93329 0
M  V30 5743 C 535.173 -1.6996 0.939526 0
M  V30 5744 O 534.448 -1.94472 -0.0330957 0
M  V30 5745 C 534.731 -1.20025 3.39508 0
M  V30 5746 C 534.584 -0.12059 4.49638 0
M  V30 5747 C 535.903 -2.10923 3.86264 0
M  V30 5748 H 533.022 -0.221185 0.703027 0
M  V30 5749 H 535.664 0.123768 1.89596 0
M  V30 5750 H 533.814 -1.82774 3.42821 0
M  V30 5751 H 535.486 0.51185 4.58452 0
M  V30 5752 H 533.729 0.550251 4.30296 0
M  V30 5753 H 534.4 -0.572019 5.49028 0
M  V30 5754 H 536.876 -1.58124 3.84884 0
M  V30 5755 H 535.752 -2.48987 4.8918 0
M  V30 5756 H 536.013 -3.01292 3.23536 0
M  V30 5757 N 535.072 -1.5615 -0.213296 0
M  V30 5758 C 536.002 -1.96109 -1.26742 0
M  V30 5759 C 536.983 -0.830448 -1.48451 0
M  V30 5760 O 538.168 -1.09339 -1.60495 0
M  V30 5761 C 535.298 -2.28492 -2.61551 0
M  V30 5762 C 534.252 -3.44124 -2.54485 0
M  V30 5763 C 533.578 -3.62134 -3.93399 0
M  V30 5764 C 534.878 -4.78855 -2.08556 0
M  V30 5765 H 536.572 -2.84412 -0.935434 0
M  V30 5766 H 534.118 -1.36836 -0.44854 0
M  V30 5767 H 536.071 -2.55039 -3.3546 0
M  V30 5768 H 534.795 -1.37052 -2.96453 0
M  V30 5769 H 533.454 -3.17639 -1.83033 0
M  V30 5770 H 533.102 -2.68055 -4.25623 0
M  V30 5771 H 532.802 -4.39913 -3.89551 0
M  V30 5772 H 534.326 -3.91038 -4.68958 0
M  V30 5773 H 535.74 -5.04552 -2.72213 0
M  V30 5774 H 534.137 -5.59975 -2.1575 0
M  V30 5775 H 535.207 -4.73657 -1.03811 0
M  V30 5776 N 536.55 0.480323 -1.50102 0
M  V30 5777 C 537.775 1.26126 -1.64642 0
M  V30 5778 C 538.2 1.85257 -0.325823 0
M  V30 5779 O 537.558 1.66854 0.709194 0
M  V30 5780 C 537.606 2.35243 -2.73301 0
M  V30 5781 O 536.71 3.39646 -2.33911 0
M  V30 5782 H 536.051 0.371463 -0.550374 0
M  V30 5783 H 538.581 0.572696 -1.96421 0
M  V30 5784 H 538.591 2.80695 -2.96098 0
M  V30 5785 H 537.266 1.91574 -3.6915 0
M  V30 5786 H 535.843 2.99969 -2.21525 0
M  V30 5787 N 538.028 1.39524 0.732853 0
M  V30 5788 C 539.275 1.36865 1.49246 0
M  V30 5789 C 539.603 -0.0347118 1.94469 0
M  V30 5790 O 538.858 -1.01596 1.67262 0
M  V30 5791 C 539.157 2.28916 2.74468 0
M  V30 5792 C 538.823 3.76506 2.481 0
M  V30 5793 C 537.485 4.16721 2.40619 0
M  V30 5794 C 539.837 4.69846 2.25598 0
M  V30 5795 C 537.165 5.48334 2.08679 0
M  V30 5796 C 539.517 6.01739 1.95174 0
M  V30 5797 C 538.181 6.41015 1.86163 0
M  V30 5798 H 537.451 0.500824 0.546129 0
M  V30 5799 H 540.098 1.72047 0.840958 0
M  V30 5800 H 538.403 1.86859 3.4437 0
M  V30 5801 H 540.1 2.2415 3.32502 0
M  V30 5802 H 536.69 3.44635 2.54803 0
M  V30 5803 H 540.874 4.39608 2.30344 0
M  V30 5804 H 536.13 5.77685 2.00226 0
M  V30 5805 H 540.304 6.73591 1.76771 0
M  V30 5806 H 537.931 7.42917 1.61179 0
M  V30 5807 N 539.506 -0.963266 1.24736 0
M  V30 5808 C 540.734 -1.74166 1.11686 0
M  V30 5809 C 541.149 -1.8589 -0.330187 0
M  V30 5810 O 540.506 -1.35042 -1.2276 0
M  V30 5811 C 540.557 -3.15989 1.75595 0
M  V30 5812 O 540.278 -3.04847 3.14642 0
M  V30 5813 C 541.779 -4.10145 1.68213 0
M  V30 5814 H 538.999 -0.546031 0.389989 0
M  V30 5815 H 541.543 -1.20907 1.64929 0
M  V30 5816 H 539.698 -3.66219 1.26343 0
M  V30 5817 H 540.112 -3.9425 3.4593 0
M  V30 5818 H 541.586 -5.07299 2.17604 0
M  V30 5819 H 542.063 -4.3445 0.644208 0
M  V30 5820 H 542.669 -3.65827 2.16912 0
M  V30 5821 N 540.985 -1.06182 -1.16461 0
M  V30 5822 C 541.915 -0.692861 -2.22984 0
M  V30 5823 C 542.896 0.314122 -1.67174 0
M  V30 5824 O 544.081 0.189499 -1.93273 0
M  V30 5825 C 541.211 -0.07732 -3.47214 0
M  V30 5826 C 540.165 -1.01015 -4.15909 0
M  V30 5827 C 539.491 -0.257973 -5.34077 0
M  V30 5828 C 540.791 -2.33868 -4.67015 0
M  V30 5829 H 542.485 -1.58343 -2.54102 0
M  V30 5830 H 540.031 -0.76279 -1.22137 0
M  V30 5831 H 541.984 0.19266 -4.20959 0
M  V30 5832 H 540.708 0.848254 -3.15392 0
M  V30 5833 H 539.367 -1.26486 -3.44088 0
M  V30 5834 H 539.015 0.670684 -4.98509 0
M  V30 5835 H 538.715 -0.879638 -5.80979 0
M  V30 5836 H 540.239 0.00448788 -6.106 0
M  V30 5837 H 541.653 -2.1279 -5.32347 0
M  V30 5838 H 540.05 -2.91522 -5.24533 0
M  V30 5839 H 541.12 -2.97019 -3.83286 0
M  V30 5840 N 542.463 1.3308 -0.844243 0
M  V30 5841 C 543.373 2.32876 -0.283922 0
M  V30 5842 C 544.389 1.63589 0.592846 0
M  V30 5843 O 545.565 1.95205 0.495693 0
M  V30 5844 C 542.63 3.42667 0.527283 0
M  V30 5845 C 541.691 4.27664 -0.374394 0
M  V30 5846 C 540.924 5.32212 0.39819 0
M  V30 5847 O 541.147 5.46635 1.62932 0
M  V30 5848 O 540.081 6.01458 -0.2306 0
M  V30 5849 H 543.907 2.82671 -1.11045 0
M  V30 5850 H 541.492 1.36518 -0.606903 0
M  V30 5851 H 543.374 4.09652 0.988078 0
M  V30 5852 H 542.049 2.95079 1.33078 0
M  V30 5853 H 540.956 3.63526 -0.883144 0
M  V30 5854 H 542.289 4.78749 -1.1428 0
M  V30 5855 N 543.941 0.601185 1.45683 0
M  V30 5856 C 545.19 0.0914953 2.01492 0
M  V30 5857 C 545.503 -1.28331 1.47616 0
M  V30 5858 O 546.709 -1.88537 1.95362 0
M  V30 5859 C 545.165 0.11291 3.59723 0
M  V30 5860 C 544.773 1.48717 4.22596 0
M  V30 5861 C 546.517 -0.341871 4.23121 0
M  V30 5862 C 544.424 1.46531 5.7296 0
M  V30 5863 H 543.354 0.0304365 0.753385 0
M  V30 5864 H 546.005 0.755568 1.67223 0
M  V30 5865 H 544.387 -0.617692 3.91153 0
M  V30 5866 H 545.561 2.23897 4.02749 0
M  V30 5867 H 543.876 1.88351 3.71366 0
M  V30 5868 H 546.473 -0.377304 5.33367 0
M  V30 5869 H 546.816 -1.36325 3.93346 0
M  V30 5870 H 547.349 0.335256 3.96385 0
M  V30 5871 H 544.088 2.46408 6.07423 0
M  V30 5872 H 543.608 0.755997 5.95017 0
M  V30 5873 H 545.287 1.18618 6.36034 0
M  V30 5874 N 545.419 -1.53889 0.339982 0
M  V30 5875 C 546.665 -2.01152 -0.258003 0
M  V30 5876 C 546.998 -1.22749 -1.50487 0
M  V30 5877 O 546.273 -0.314156 -1.91946 0
M  V30 5878 C 546.556 -3.55468 -0.575717 0
M  V30 5879 C 546.409 -4.44584 0.682996 0
M  V30 5880 C 547.728 -4.1768 -1.38677 0
M  V30 5881 H 544.847 -0.731198 -0.0922992 0
M  V30 5882 H 547.489 -1.84352 0.459814 0
M  V30 5883 H 545.639 -3.69914 -1.18725 0
M  V30 5884 H 547.311 -4.41981 1.32102 0
M  V30 5885 H 545.554 -4.13592 1.3086 0
M  V30 5886 H 546.225 -5.5043 0.416001 0
M  V30 5887 H 548.701 -4.0691 -0.869705 0
M  V30 5888 H 547.577 -5.25734 -1.57783 0
M  V30 5889 H 547.838 -3.72069 -2.38782 0
M  V30 5890 N 546.897 -0.0685191 -1.57451 0
M  V30 5891 C 548.146 0.600898 -1.92541 0
M  V30 5892 C 548.459 1.70967 -0.950239 0
M  V30 5893 O 549.665 2.43844 -1.19384 0
M  V30 5894 C 548.121 1.12019 -3.42023 0
M  V30 5895 C 547.729 0.0426028 -4.4798 0
M  V30 5896 C 549.473 1.76386 -3.86119 0
M  V30 5897 C 547.38 0.575759 -5.88591 0
M  V30 5898 H 546.31 0.228225 -0.71863 0
M  V30 5899 H 548.961 -0.140223 -1.82963 0
M  V30 5900 H 547.343 1.91418 -3.46663 0
M  V30 5901 H 548.517 -0.73182 -4.54952 0
M  V30 5902 H 546.832 -0.504642 -4.13331 0
M  V30 5903 H 549.429 2.17302 -4.88553 0
M  V30 5904 H 549.772 2.62255 -3.23308 0
M  V30 5905 H 550.305 1.03615 -3.84069 0
M  V30 5906 H 547.044 -0.245691 -6.55039 0
M  V30 5907 H 546.564 1.31778 -5.85145 0
M  V30 5908 H 548.243 1.0532 -6.3837 0
M  V30 5909 N 548.375 1.56261 0.205012 0
M  V30 5910 C 549.308 1.88797 1.28183 0
M  V30 5911 C 550.286 0.747018 1.44424 0
M  V30 5912 O 551.47 0.997039 1.59973 0
M  V30 5913 C 548.597 2.10949 2.64987 0
M  V30 5914 C 547.643 3.33649 2.6567 0
M  V30 5915 S 548.476 4.89078 2.18088 0
M  V30 5916 C 549.632 5.14286 3.56736 0
M  V30 5917 H 549.865 2.79837 1.00393 0
M  V30 5918 H 547.398 1.48911 0.408042 0
M  V30 5919 H 549.356 2.24395 3.4374 0
M  V30 5920 H 548.017 1.20678 2.89993 0
M  V30 5921 H 547.21 3.46245 3.66239 0
M  V30 5922 H 546.812 3.19146 1.94992 0
M  V30 5923 H 549.104 5.04198 4.52537 0
M  V30 5924 H 550.047 6.16096 3.49043 0
M  V30 5925 H 550.455 4.41957 3.51189 0
M  V30 5926 N 549.853 -0.472356 1.50355 0
M  V30 5927 C 550.763 -1.59637 1.7191 0
M  V30 5928 C 551.779 -1.63247 0.602195 0
M  V30 5929 O 552.955 -1.81139 0.880369 0
M  V30 5930 C 550.02 -2.9586 1.80742 0
M  V30 5931 C 549.081 -3.02649 3.04471 0
M  V30 5932 C 548.314 -4.32374 3.12872 0
M  V30 5933 O 548.537 -5.22807 2.28099 0
M  V30 5934 O 547.471 -4.44728 4.05587 0
M  V30 5935 H 551.297 -1.44373 2.67189 0
M  V30 5936 H 548.882 -0.651717 1.34436 0
M  V30 5937 H 550.764 -3.7677 1.88739 0
M  V30 5938 H 549.439 -3.11325 0.88647 0
M  V30 5939 H 548.346 -2.20821 3.01975 0
M  V30 5940 H 549.679 -2.92119 3.9614 0
M  V30 5941 N 551.331 -1.39911 -0.725443 0
M  V30 5942 C 552.577 -1.37858 -1.48738 0
M  V30 5943 C 552.91 0.0224187 -1.94187 0
M  V30 5944 O 552.185 0.989204 -1.67466 0
M  V30 5945 C 552.468 -2.3594 -2.72038 0
M  V30 5946 C 552.321 -3.85023 -2.32546 0
M  V30 5947 C 553.64 -2.31704 -3.74167 0
M  V30 5948 H 550.759 -0.502074 -0.539528 0
M  V30 5949 H 553.401 -1.70974 -0.828728 0
M  V30 5950 H 551.551 -2.0783 -3.28236 0
M  V30 5951 H 553.223 -4.2392 -1.81905 0
M  V30 5952 H 551.466 -4.01334 -1.64661 0
M  V30 5953 H 552.137 -4.49152 -3.20884 0
M  V30 5954 H 554.613 -2.5658 -3.27576 0
M  V30 5955 H 553.489 -3.02395 -4.58092 0
M  V30 5956 H 553.75 -1.3253 -4.21768 0
M  V30 5957 N 552.809 0.956637 -1.25245 0
M  V30 5958 C 553.741 2.05628 -1.01242 0
M  V30 5959 C 554.754 1.62785 0.0219579 0
M  V30 5960 O 555.943 1.77184 -0.216365 0
M  V30 5961 C 553.043 3.35069 -0.508161 0
M  V30 5962 C 552.216 4.06761 -1.60823 0
M  V30 5963 C 551.275 5.14473 -1.1047 0
M  V30 5964 O 550.301 5.40033 -1.79868 0
M  V30 5965 N 551.503 5.80474 0.0550773 0
M  V30 5966 H 554.268 2.2679 -1.95925 0
M  V30 5967 H 551.829 1.12505 -1.16423 0
M  V30 5968 H 553.821 4.044 -0.155819 0
M  V30 5969 H 552.391 3.10694 0.344683 0
M  V30 5970 H 551.611 3.31555 -2.13224 0
M  V30 5971 H 552.899 4.51418 -2.34733 0
M  V30 5972 H 552.297 5.62125 0.635004 0
M  V30 5973 H 550.854 6.50868 0.348469 0
M  V30 5974 N 554.287 1.06798 1.15896 0
M  V30 5975 C 555.535 0.786211 1.8618 0
M  V30 5976 C 555.856 -0.689547 1.82401 0
M  V30 5977 O 555.126 -1.49913 1.26107 0
M  V30 5978 H 553.706 0.287843 0.689315 0
M  V30 5979 H 556.368 1.35055 1.40521 0
M  V30 5980 H 555.464 1.1157 2.91477 0
M  V30 5981 N 555.766 -1.3263 0.851289 0
M  V30 5982 C 556.696 -2.31449 0.308771 0
M  V30 5983 C 557.677 -1.59531 -0.590255 0
M  V30 5984 O 558.862 -1.87351 -0.511205 0
M  V30 5985 C 555.992 -3.43586 -0.506548 0
M  V30 5986 C 554.946 -4.26963 0.297753 0
M  V30 5987 C 554.272 -5.30831 -0.642094 0
M  V30 5988 C 555.572 -4.99643 1.52166 0
M  V30 5989 H 557.266 -2.77074 1.13447 0
M  V30 5990 H 554.812 -1.33207 0.546971 0
M  V30 5991 H 556.765 -4.11754 -0.896474 0
M  V30 5992 H 555.489 -2.96681 -1.36558 0
M  V30 5993 H 554.148 -3.60437 0.669391 0
M  V30 5994 H 553.796 -4.8018 -1.49788 0
M  V30 5995 H 553.496 -5.87501 -0.107968 0
M  V30 5996 H 555.02 -6.01862 -1.02927 0
M  V30 5997 H 556.434 -5.6051 1.20421 0
M  V30 5998 H 554.831 -5.66022 1.99347 0
M  V30 5999 H 555.901 -4.27701 2.28474 0
M  V30 6000 N 557.244 -0.608902 -1.45362 0
M  V30 6001 C 558.191 0.109172 -2.30542 0
M  V30 6002 C 559.161 0.858704 -1.42181 0
M  V30 6003 O 560.346 0.844178 -1.71109 0
M  V30 6004 C 557.486 1.09971 -3.27109 0
M  V30 6005 C 556.599 0.350911 -4.30572 0
M  V30 6006 C 555.734 1.33129 -5.14247 0
M  V30 6007 C 554.773 0.570377 -6.09437 0
M  V30 6008 N 553.91 1.5001 -6.85887 0
M  V30 6009 H 558.75 -0.623195 -2.91411 0
M  V30 6010 H 556.287 -0.319122 -1.43597 0
M  V30 6011 H 558.245 1.68714 -3.81564 0
M  V30 6012 H 556.875 1.79947 -2.67991 0
M  V30 6013 H 555.927 -0.352054 -3.78767 0
M  V30 6014 H 557.239 -0.242725 -4.98209 0
M  V30 6015 H 556.393 1.99074 -5.73109 0
M  V30 6016 H 555.132 1.95885 -4.46632 0
M  V30 6017 H 554.137 -0.102702 -5.49704 0
M  V30 6018 H 555.362 -0.0521607 -6.7908 0
M  V30 6019 H 553.308 2.11529 -6.2096 0
M  V30 6020 H 553.225 0.959934 -7.49881 0
M  V30 6021 H 554.493 2.14909 -7.49289 0
M  V30 6022 N 558.722 1.53707 -0.348139 0
M  V30 6023 C 559.947 2.05877 0.250883 0
M  V30 6024 C 560.372 1.22115 1.43072 0
M  V30 6025 O 559.73 0.235986 1.79758 0
M  V30 6026 C 559.778 3.54886 0.639416 0
M  V30 6027 O 558.882 3.73948 1.73888 0
M  V30 6028 H 558.223 0.662754 0.040653 0
M  V30 6029 H 560.753 1.98303 -0.503685 0
M  V30 6030 H 560.763 3.97601 0.915295 0
M  V30 6031 H 559.438 4.153 -0.223386 0
M  V30 6032 H 558.015 3.43134 1.45991 0
M  V30 6033 N 560.2 0.0768682 1.57412 0
M  V30 6034 C 561.446 -0.591961 1.93968 0
M  V30 6035 C 561.779 -1.68954 0.9575 0
M  V30 6036 O 561.054 -1.94496 -0.0124675 0
M  V30 6037 C 561.337 -1.16418 3.40762 0
M  V30 6038 C 561.19 -0.0728933 4.49741 0
M  V30 6039 C 562.509 -2.06814 3.88479 0
M  V30 6040 H 559.628 -0.213716 0.705333 0
M  V30 6041 H 562.27 0.14387 1.89455 0
M  V30 6042 H 560.42 -1.79128 3.4474 0
M  V30 6043 H 562.092 0.560446 4.57883 0
M  V30 6044 H 560.335 0.595859 4.29688 0
M  V30 6045 H 561.006 -0.513755 5.49604 0
M  V30 6046 H 563.482 -1.54033 3.8654 0
M  V30 6047 H 562.358 -2.43785 4.91793 0
M  V30 6048 H 562.619 -2.97844 3.26713 0
M  V30 6049 N 561.678 -1.56367 -0.196722 0
M  V30 6050 C 562.641 -1.93561 -1.22746 0
M  V30 6051 C 563.641 -0.816566 -1.38524 0
M  V30 6052 O 564.831 -1.084 -1.36363 0
M  V30 6053 C 561.963 -2.20823 -2.59712 0
M  V30 6054 H 563.156 -2.85774 -0.909586 0
M  V30 6055 H 560.709 -1.50032 -0.438174 0
M  V30 6056 H 561.444 -1.31243 -2.96557 0
M  V30 6057 H 561.229 -3.02368 -2.49632 0
M  V30 6058 H 562.719 -2.50608 -3.34044 0
M  V30 6059 N 563.156 0.464375 -1.50603 0
M  V30 6060 C 564.567 1.04507 -1.5471 0
M  V30 6061 C 564.918 1.9297 -0.354542 0
M  V30 6062 O 564.043 2.09763 0.531812 0
M  V30 6063 C 564.638 1.90207 -2.80369 0
M  V30 6064 C 563.197 2.43373 -2.87135 0
M  V30 6065 C 562.344 1.21886 -2.49076 0
M  V30 6066 H 565.295 0.246716 -1.56771 0
M  V30 6067 H 565.316 2.75353 -2.62604 0
M  V30 6068 H 564.828 1.25796 -3.67147 0
M  V30 6069 H 562.929 3.11318 -2.04724 0
M  V30 6070 H 563.042 2.7802 -3.90181 0
M  V30 6071 H 561.406 1.55575 -2.01664 0
M  V30 6072 H 562.189 0.591268 -3.3817 0
M  V30 6073 N 564.634 1.40294 0.718013 0
M  V30 6074 C 565.582 1.40536 1.85344 0
M  V30 6075 C 566.576 0.286192 1.66965 0
M  V30 6076 O 567.782 0.457105 1.74099 0
M  V30 6077 H 564.157 0.439236 0.61039 0
M  V30 6078 H 566.128 2.36275 1.82255 0
M  V30 6079 C 564.877 1.28245 3.23185 0
M  V30 6080 H 564.2 2.1364 3.37932 0
M  V30 6081 H 565.64 1.32474 4.02774 0
M  V30 6082 C 564.099 -0.0075503 3.36899 0
M  V30 6083 O 564.629 -0.971391 3.89778 0
M  V30 6084 N 562.835 -0.0762479 2.905 0
M  V30 6085 H 562.382 0.708819 2.47656 0
M  V30 6086 H 562.34 -0.938846 3.00055 0
M  V30 6087 N 566.112 -0.949982 1.2575 0
M  V30 6088 C 567.528 -1.22191 1.02672 0
M  V30 6089 C 567.728 -1.99898 -0.253588 0
M  V30 6090 O 566.784 -2.33329 -0.965076 0
M  V30 6091 C 568.097 -1.99175 2.25277 0
M  V30 6092 C 569.645 -2.12201 2.30087 0
M  V30 6093 C 570.12 -2.92586 3.5236 0
M  V30 6094 N 571.611 -3.00163 3.52784 0
M  V30 6095 C 572.346 -3.62766 4.44059 0
M  V30 6096 N 571.842 -4.26943 5.45611 0
M  V30 6097 N 573.635 -3.59953 4.3173 0
M  V30 6098 H 565.786 -0.430258 2.07996 0
M  V30 6099 H 568.049 -0.252844 0.91366 0
M  V30 6100 H 567.755 -1.49479 3.18354 0
M  V30 6101 H 567.629 -2.99868 2.28821 0
M  V30 6102 H 570.016 -2.61093 1.3753 0
M  V30 6103 H 570.097 -1.10799 2.30559 0
M  V30 6104 H 569.741 -2.44383 4.45241 0
M  V30 6105 H 569.671 -3.94224 3.49134 0
M  V30 6106 H 572.162 -2.54529 2.79327 0
M  V30 6107 H 572.475 -4.72583 6.11461 0
M  V30 6108 H 570.82 -4.25557 5.49478 0
M  V30 6109 H 574.011 -3.09003 3.51617 0
M  V30 6110 H 574.184 -4.08455 5.03059 0
M  V30 6111 N 567.59 -1.07411 -1.15328 0
M  V30 6112 C 568.839 -0.792643 -1.85473 0
M  V30 6113 C 569.152 0.683789 -1.83259 0
M  V30 6114 O 570.358 1.08005 -2.49093 0
M  V30 6115 C 568.814 -1.36787 -3.32892 0
M  V30 6116 C 568.422 -2.87536 -3.43551 0
M  V30 6117 C 570.166 -1.16444 -4.08217 0
M  V30 6118 C 568.073 -3.38247 -4.85122 0
M  V30 6119 H 567.003 -0.292838 -0.694811 0
M  V30 6120 H 569.654 -1.29426 -1.30082 0
M  V30 6121 H 568.036 -0.793993 -3.87958 0
M  V30 6122 H 569.21 -3.50973 -2.98588 0
M  V30 6123 H 567.525 -3.06676 -2.81672 0
M  V30 6124 H 570.122 -1.51808 -5.12697 0
M  V30 6125 H 570.465 -0.10353 -4.16171 0
M  V30 6126 H 570.998 -1.70472 -3.59422 0
M  V30 6127 H 567.737 -4.43866 -4.82351 0
M  V30 6128 H 567.257 -2.79564 -5.30664 0
M  V30 6129 H 568.936 -3.34238 -5.5398 0
M  V30 6130 N 569.068 1.32177 -0.85831 0
M  V30 6131 C 570.314 1.97417 -0.46417 0
M  V30 6132 C 570.647 1.67746 0.978514 0
M  V30 6133 O 569.922 0.967654 1.68721 0
M  V30 6134 C 570.205 3.53069 -0.708094 0
M  V30 6135 C 570.058 3.92357 -2.19946 0
M  V30 6136 C 571.377 4.39783 -0.166881 0
M  V30 6137 H 568.496 0.717097 -0.17012 0
M  V30 6138 H 571.138 1.56499 -1.07741 0
M  V30 6139 H 569.288 3.88054 -0.186128 0
M  V30 6140 H 570.96 3.67533 -2.78779 0
M  V30 6141 H 569.203 3.41384 -2.67656 0
M  V30 6142 H 569.874 5.00841 -2.32082 0
M  V30 6143 H 572.35 4.11556 -0.613285 0
M  V30 6144 H 571.226 5.47671 -0.367093 0
M  V30 6145 H 571.487 4.32196 0.930559 0
M  V30 6146 N 570.547 0.616602 1.45037 0
M  V30 6147 C 571.777 0.121791 2.06241 0
M  V30 6148 C 572.185 -1.20289 1.46038 0
M  V30 6149 O 571.528 -1.7456 0.572242 0
M  V30 6150 C 571.59 -0.0827345 3.59405 0
M  V30 6151 C 571.254 1.16153 4.41993 0
M  V30 6152 C 572.251 2.08183 4.76399 0
M  V30 6153 C 569.936 1.39288 4.82601 0
M  V30 6154 C 571.93 3.21668 5.5028 0
M  V30 6155 C 569.617 2.53073 5.56235 0
M  V30 6156 C 570.615 3.44091 5.89992 0
M  V30 6157 O 570.303 4.55894 6.6213 0
M  V30 6158 H 570.035 0.0701667 0.672349 0
M  V30 6159 H 572.589 0.846877 1.87129 0
M  V30 6160 H 570.819 -0.862812 3.76952 0
M  V30 6161 H 572.508 -0.530273 4.02421 0
M  V30 6162 H 573.274 1.91538 4.45576 0
M  V30 6163 H 569.153 0.693396 4.55755 0
M  V30 6164 H 572.697 3.92733 5.76547 0
M  V30 6165 H 568.594 2.69667 5.86472 0
M  V30 6166 H 569.362 4.5469 6.80587 0
M  V30 6167 N 572.025 -1.5352 0.356285 0
M  V30 6168 C 573.265 -2.03027 -0.23649 0
M  V30 6169 C 573.629 -1.23813 -1.46746 0
M  V30 6170 O 574.83 -1.63281 -2.13525 0
M  V30 6171 C 573.101 -3.53442 -0.530415 0
M  V30 6172 S 574.66 -4.24836 -1.09819 0
M  V30 6173 H 571.478 -0.707591 -0.0695378 0
M  V30 6174 H 574.08 -1.89077 0.496999 0
M  V30 6175 H 572.784 -4.087 0.373114 0
M  V30 6176 H 572.315 -3.71536 -1.29323 0
M  V30 6177 H 574.33 -4.35228 -2.38309 0
M  V30 6178 N 573.503 -0.0852151 -1.57369 0
M  V30 6179 C 574.731 0.58946 -1.98325 0
M  V30 6180 C 575.146 1.62333 -0.96403 0
M  V30 6181 O 574.503 1.82438 0.0476395 0
M  V30 6182 C 574.554 1.24604 -3.39347 0
M  V30 6183 O 574.275 0.253532 -4.37366 0
M  V30 6184 C 575.776 2.00726 -3.95252 0
M  V30 6185 H 572.996 0.158783 -0.651942 0
M  V30 6186 H 575.54 -0.161584 -2.03861 0
M  V30 6187 H 573.695 1.94808 -3.34856 0
M  V30 6188 H 574.109 0.726207 -5.19448 0
M  V30 6189 H 575.583 2.42039 -4.96106 0
M  V30 6190 H 576.06 2.86919 -3.32527 0
M  V30 6191 H 576.666 1.3536 -4.03185 0
M  V30 6192 N 574.981 1.5647 0.188427 0
M  V30 6193 C 575.914 1.90146 1.26173 0
M  V30 6194 C 576.892 0.762294 1.43624 0
M  V30 6195 O 578.076 1.01395 1.58907 0
M  V30 6196 C 575.203 2.13748 2.62735 0
M  V30 6197 C 574.249 3.36448 2.62116 0
M  V30 6198 S 575.082 4.91364 2.12889 0
M  V30 6199 C 576.238 5.18041 3.51261 0
M  V30 6200 H 576.471 2.80886 0.974192 0
M  V30 6201 H 574.004 1.49335 0.392226 0
M  V30 6202 H 575.962 2.28028 3.41341 0
M  V30 6203 H 574.623 1.23747 2.88696 0
M  V30 6204 H 573.816 3.50109 3.62546 0
M  V30 6205 H 573.418 3.21196 1.91596 0
M  V30 6206 H 575.71 5.0897 4.47164 0
M  V30 6207 H 576.653 6.19764 3.42489 0
M  V30 6208 H 577.061 4.45657 3.46482 0
M  V30 6209 N 576.459 -0.456382 1.50847 0
M  V30 6210 C 577.369 -1.57805 1.73594 0
M  V30 6211 C 578.385 -1.62599 0.619476 0
M  V30 6212 O 579.561 -1.80195 0.899532 0
M  V30 6213 C 576.626 -2.93926 1.8387 0
M  V30 6214 C 575.687 -2.99402 3.07663 0
M  V30 6215 C 574.92 -4.29031 3.1744 0
M  V30 6216 O 575.143 -5.20358 2.33631 0
M  V30 6217 O 574.077 -4.40401 4.10281 0
M  V30 6218 H 577.903 -1.41531 2.68705 0
M  V30 6219 H 575.488 -0.637422 1.3512 0
M  V30 6220 H 577.37 -3.74747 1.92725 0
M  V30 6221 H 576.045 -3.10368 0.91944 0
M  V30 6222 H 574.952 -2.17606 3.043 0
M  V30 6223 H 576.285 -2.87901 3.99216 0
M  V30 6224 N 577.937 -1.40673 -0.710563 0
M  V30 6225 C 579.183 -1.39428 -1.47267 0
M  V30 6226 C 579.516 0.00182129 -1.942 0
M  V30 6227 O 578.791 0.971387 -1.68506 0
M  V30 6228 C 579.074 -2.38812 -2.6952 0
M  V30 6229 C 578.927 -3.87467 -2.28449 0
M  V30 6230 C 580.246 -2.3566 -3.71689 0
M  V30 6231 H 577.365 -0.507768 -0.534173 0
M  V30 6232 H 580.007 -1.71843 -0.810547 0
M  V30 6233 H 578.157 -2.113 -3.26013 0
M  V30 6234 H 579.829 -4.25825 -1.77399 0
M  V30 6235 H 578.072 -4.03058 -1.60395 0
M  V30 6236 H 578.743 -4.5253 -3.16103 0
M  V30 6237 H 581.219 -2.6004 -3.24836 0
M  V30 6238 H 580.095 -3.07237 -4.54859 0
M  V30 6239 H 580.356 -1.36996 -4.20339 0
M  V30 6240 N 579.415 0.9433 -1.26252 0
M  V30 6241 C 580.325 2.07532 -1.09397 0
M  V30 6242 C 581.341 1.73977 -0.0280449 0
M  V30 6243 O 582.517 2.00067 -0.231337 0
M  V30 6244 C 579.582 3.39002 -0.726523 0
M  V30 6245 C 578.643 3.86353 -1.87163 0
M  V30 6246 C 577.876 5.11549 -1.52162 0
M  V30 6247 O 578.099 5.68834 -0.422385 0
M  V30 6248 O 577.033 5.53889 -2.35565 0
M  V30 6249 H 580.859 2.24658 -2.04359 0
M  V30 6250 H 578.444 1.05988 -1.05295 0
M  V30 6251 H 580.326 4.18 -0.534236 0
M  V30 6252 H 579.001 3.2312 0.193721 0
M  V30 6253 H 577.908 3.0831 -2.11886 0
M  V30 6254 H 579.241 4.06752 -2.77152 0
M  V30 6255 N 580.893 1.08022 1.14757 0
M  V30 6256 C 582.141 0.805913 1.85336 0
M  V30 6257 C 582.462 -0.670162 1.83122 0
M  V30 6258 O 581.732 -1.48567 1.2769 0
M  V30 6259 H 580.312 0.295138 0.686223 0
M  V30 6260 H 582.974 1.36538 1.3908 0
M  V30 6261 H 582.07 1.14655 2.90277 0
M  V30 6262 N 582.371 -1.3172 0.865308 0
M  V30 6263 C 583.281 -2.32394 0.320935 0
M  V30 6264 C 584.297 -1.64511 -0.566746 0
M  V30 6265 O 585.473 -1.95969 -0.464575 0
M  V30 6266 C 582.538 -3.43462 -0.472701 0
M  V30 6267 C 581.599 -4.27015 0.442385 0
M  V30 6268 C 580.832 -5.32779 -0.313469 0
M  V30 6269 O 581.055 -5.49158 -1.54214 0
M  V30 6270 O 579.989 -6.01015 0.326257 0
M  V30 6271 H 583.815 -2.80868 1.15528 0
M  V30 6272 H 581.4 -1.35535 0.628545 0
M  V30 6273 H 583.282 -4.11172 -0.922781 0
M  V30 6274 H 581.957 -2.97159 -1.28367 0
M  V30 6275 H 580.864 -3.62075 0.940866 0
M  V30 6276 H 582.197 -4.76871 1.21882 0
M  V30 6277 N 583.85 -0.624285 -1.44708 0
M  V30 6278 C 584.797 0.0847135 -2.30644 0
M  V30 6279 C 585.767 0.843575 -1.43084 0
M  V30 6280 O 586.952 0.825982 -1.71995 0
M  V30 6281 C 584.091 1.06495 -3.28257 0
M  V30 6282 C 583.205 0.305224 -4.3092 0
M  V30 6283 C 582.34 1.27667 -5.1563 0
M  V30 6284 C 581.379 0.505706 -6.10007 0
M  V30 6285 N 580.516 1.42727 -6.8744 0
M  V30 6286 H 585.356 -0.654068 -2.90733 0
M  V30 6287 H 582.893 -0.334334 -1.4325 0
M  V30 6288 H 584.851 1.64658 -3.83332 0
M  V30 6289 H 583.481 1.77094 -2.69884 0
M  V30 6290 H 582.533 -0.392207 -3.78373 0
M  V30 6291 H 583.845 -0.295553 -4.97924 0
M  V30 6292 H 582.999 1.92984 -5.75189 0
M  V30 6293 H 581.738 1.91137 -4.48685 0
M  V30 6294 H 580.743 -0.160999 -5.49564 0
M  V30 6295 H 581.968 -0.124183 -6.78986 0
M  V30 6296 H 579.913 2.04931 -6.23169 0
M  V30 6297 H 579.831 0.880345 -7.50857 0
M  V30 6298 H 581.099 2.0695 -7.51526 0
M  V30 6299 N 585.328 1.53329 -0.364422 0
M  V30 6300 C 586.258 2.28627 0.474543 0
M  V30 6301 C 587.239 1.31009 1.08492 0
M  V30 6302 O 588.424 1.59878 1.10239 0
M  V30 6303 C 585.554 3.07465 1.61501 0
M  V30 6304 C 584.508 4.1276 1.13194 0
M  V30 6305 C 583.834 4.79674 2.36255 0
M  V30 6306 C 585.134 5.21847 0.217507 0
M  V30 6307 H 586.828 2.99005 -0.153656 0
M  V30 6308 H 584.374 1.43803 -0.0753406 0
M  V30 6309 H 586.327 3.58889 2.20855 0
M  V30 6310 H 585.051 2.34775 2.27042 0
M  V30 6311 H 583.71 3.62281 0.56109 0
M  V30 6312 H 583.358 4.03557 3.00251 0
M  V30 6313 H 583.058 5.50827 2.04606 0
M  V30 6314 H 584.582 5.33892 2.96297 0
M  V30 6315 H 585.996 5.6878 0.718493 0
M  V30 6316 H 584.393 6.00099 -0.00806408 0
M  V30 6317 H 585.463 4.7921 -0.740653 0
M  V30 6318 N 586.806 0.0935595 1.57322 0
M  V30 6319 C 587.738 -0.895923 2.10964 0
M  V30 6320 C 588.751 -1.24705 1.04654 0
M  V30 6321 O 589.94 -1.20044 1.32105 0
M  V30 6322 C 587.04 -2.20546 2.57318 0
M  V30 6323 C 586.213 -2.0299 3.87445 0
M  V30 6324 C 585.272 -3.17443 4.19662 0
M  V30 6325 O 584.298 -2.91474 4.88909 0
M  V30 6326 N 585.5 -4.43168 3.74943 0
M  V30 6327 H 588.265 -0.437788 2.96485 0
M  V30 6328 H 585.826 -0.0915863 1.61641 0
M  V30 6329 H 587.818 -2.9606 2.75917 0
M  V30 6330 H 586.388 -2.57789 1.76816 0
M  V30 6331 H 585.608 -1.11815 3.78009 0
M  V30 6332 H 586.896 -1.88535 4.7258 0
M  V30 6333 H 586.294 -4.67149 3.19043 0
M  V30 6334 H 584.851 -5.15637 3.987 0
M  V30 6335 N 588.284 -1.56567 -0.180126 0
M  V30 6336 C 589.512 -1.85618 -0.913972 0
M  V30 6337 C 589.927 -0.677892 -1.7621 0
M  V30 6338 O 589.284 0.353171 -1.7905 0
M  V30 6339 C 589.335 -3.13619 -1.79793 0
M  V30 6340 O 589.056 -4.26906 -0.98402 0
M  V30 6341 C 590.557 -3.55954 -2.64219 0
M  V30 6342 H 587.777 -0.616043 -0.265954 0
M  V30 6343 H 590.321 -2.03681 -0.182872 0
M  V30 6344 H 588.476 -2.97409 -2.48247 0
M  V30 6345 H 588.89 -4.9989 -1.58776 0
M  V30 6346 H 590.364 -4.48444 -3.21873 0
M  V30 6347 H 590.841 -2.79653 -3.38661 0
M  V30 6348 H 591.447 -3.74746 -2.01111 0
M  V30 6349 N 589.762 0.448376 -1.51087 0
M  V30 6350 C 591.039 1.20926 -1.53741 0
M  V30 6351 C 591.419 2.09025 -0.295222 0
M  V30 6352 O 590.767 2.16851 0.720283 0
M  V30 6353 C 590.977 2.02067 -2.84552 0
M  V30 6354 C 592.325 2.59486 -3.36084 0
M  V30 6355 O 593.349 2.12289 -2.86028 0
M  V30 6356 O 592.208 3.45539 -4.23397 0
M  V30 6357 H 589.302 0.549951 -0.617643 0
M  V30 6358 H 591.848 0.458344 -1.63393 0
M  V30 6359 H 590.62 1.37291 -3.66425 0
M  V30 6360 H 590.243 2.84246 -2.78011 0
M  V30 6361 N 591.24 1.41047 0.703093 0
M  V30 6362 C 592.172 1.38228 1.82827 0
M  V30 6363 C 593.185 0.285637 1.60275 0
M  V30 6364 O 594.374 0.54685 1.69917 0
M  V30 6365 C 591.474 1.13136 3.19458 0
M  V30 6366 C 590.647 2.34695 3.69103 0
M  V30 6367 C 589.706 2.05574 4.84382 0
M  V30 6368 O 588.732 2.78549 4.96386 0
M  V30 6369 N 589.934 1.04135 5.71083 0
M  V30 6370 H 592.699 2.35203 1.85741 0
M  V30 6371 H 590.26 1.35562 0.885125 0
M  V30 6372 H 592.252 0.916183 3.94193 0
M  V30 6373 H 590.822 0.247836 3.11616 0
M  V30 6374 H 590.042 2.71963 2.85359 0
M  V30 6375 H 591.33 3.15705 3.99009 0
M  V30 6376 H 590.728 0.43722 5.64008 0
M  V30 6377 H 589.285 0.886078 6.45749 0
M  V30 6378 N 592.718 -0.936591 1.26751 0
M  V30 6379 C 593.681 -2.01752 1.08761 0
M  V30 6380 C 594.681 -1.60763 0.0344435 0
M  V30 6381 O 595.871 -1.71963 0.278258 0
M  V30 6382 C 593.003 -3.34543 0.655271 0
M  V30 6383 H 594.196 -2.19143 2.04735 0
M  V30 6384 H 591.749 -1.11618 1.09413 0
M  V30 6385 H 592.484 -3.22851 -0.30626 0
M  V30 6386 H 592.269 -3.65647 1.41578 0
M  V30 6387 H 593.759 -4.13944 0.551378 0
M  V30 6388 N 594.196 -1.08629 -1.14182 0
M  V30 6389 C 595.106 -0.730126 -2.22949 0
M  V30 6390 C 596.122 0.26436 -1.7198 0
M  V30 6391 O 597.298 0.107742 -2.01112 0
M  V30 6392 C 594.363 -0.147227 -3.46387 0
M  V30 6393 C 593.424 -1.19662 -4.12286 0
M  V30 6394 C 592.657 -0.641437 -5.29831 0
M  V30 6395 O 592.88 0.538351 -5.67854 0
M  V30 6396 O 591.814 -1.39257 -5.85569 0
M  V30 6397 H 595.64 -1.63753 -2.55771 0
M  V30 6398 H 593.225 -0.860118 -1.22157 0
M  V30 6399 H 595.107 0.174923 -4.21037 0
M  V30 6400 H 593.782 0.733304 -3.15285 0
M  V30 6401 H 592.689 -1.57133 -3.395 0
M  V30 6402 H 594.022 -2.0495 -4.475 0
M  V30 6403 N 595.674 1.31259 -0.872281 0
M  V30 6404 C 596.637 2.26744 -0.334656 0
M  V30 6405 C 597.637 1.52307 0.515681 0
M  V30 6406 O 598.827 1.71148 0.324656 0
M  V30 6407 C 595.959 3.36841 0.524482 0
M  V30 6408 H 597.152 2.75812 -1.17762 0
M  V30 6409 H 594.705 1.42232 -0.648064 0
M  V30 6410 H 595.44 2.93069 1.38855 0
M  V30 6411 H 595.225 3.92009 -0.0844299 0
M  V30 6412 H 596.715 4.07944 0.892838 0
M  V30 6413 N 597.152 0.631951 1.44375 0
M  V30 6414 C 598.377 0.142146 2.06912 0
M  V30 6415 C 598.802 -1.17456 1.4692 0
M  V30 6416 O 598.16 -1.72074 0.570975 0
M  V30 6417 C 598.208 0.0417952 3.60576 0
M  V30 6418 O 597.312 -1.00194 4.00044 0
M  V30 6419 H 596.653 0.0851491 0.658518 0
M  V30 6420 H 599.183 0.868863 1.85235 0
M  V30 6421 H 599.193 -0.148517 4.0773 0
M  V30 6422 H 597.868 1.0031 4.03622 0
M  V30 6423 H 596.445 -0.786131 3.64519 0
M  V30 6424 N 598.631 -1.53133 0.372548 0
M  V30 6425 C 600.047 -1.59585 0.02178 0
M  V30 6426 C 600.247 -1.38736 -1.46132 0
M  V30 6427 O 599.303 -1.19599 -2.22379 0
M  V30 6428 C 600.616 -2.9678 0.483959 0
M  V30 6429 C 602.164 -3.09909 0.438775 0
M  V30 6430 C 602.639 -4.49527 0.876876 0
M  V30 6431 N 604.13 -4.55663 0.832214 0
M  V30 6432 C 604.865 -5.61896 1.14281 0
M  V30 6433 N 604.361 -6.75852 1.52303 0
M  V30 6434 N 606.154 -5.51916 1.06515 0
M  V30 6435 H 598.305 -1.64936 1.33827 0
M  V30 6436 H 600.568 -0.773947 0.547458 0
M  V30 6437 H 600.274 -3.17198 1.51915 0
M  V30 6438 H 600.148 -3.7699 -0.125784 0
M  V30 6439 H 602.535 -2.89197 -0.587294 0
M  V30 6440 H 602.616 -2.31691 1.0841 0
M  V30 6441 H 602.26 -4.70979 1.90109 0
M  V30 6442 H 602.19 -5.26186 0.208727 0
M  V30 6443 H 604.681 -3.73844 0.552195 0
M  V30 6444 H 604.994 -7.52862 1.7441 0
M  V30 6445 H 603.339 -6.77226 1.56175 0
M  V30 6446 H 606.53 -4.6177 0.767235 0
M  V30 6447 H 606.703 -6.34609 1.31053 0
M  V30 6448 N 600.109 -0.101901 -1.5727 0
M  V30 6449 C 601.52 0.426173 -1.81771 0
M  V30 6450 C 601.871 1.67725 -1.01797 0
M  V30 6451 O 600.996 2.14958 -0.249386 0
M  V30 6452 C 601.591 0.779962 -3.297 0
M  V30 6453 C 600.15 1.25275 -3.54941 0
M  V30 6454 C 599.297 0.252814 -2.76145 0
M  V30 6455 H 602.248 -0.32726 -1.55289 0
M  V30 6456 H 602.269 1.63891 -3.43395 0
M  V30 6457 H 601.781 -0.130778 -3.8788 0
M  V30 6458 H 599.882 2.18097 -3.021 0
M  V30 6459 H 599.995 1.20988 -4.63572 0
M  V30 6460 H 598.359 0.736362 -2.43823 0
M  V30 6461 H 599.142 -0.650724 -3.37076 0
M  V30 6462 N 601.587 1.56661 0.17182 0
M  V30 6463 C 602.519 1.92934 1.2373 0
M  V30 6464 C 603.532 0.822385 1.40502 0
M  V30 6465 O 604.721 1.10083 1.40514 0
M  V30 6466 C 601.821 2.16651 2.60607 0
M  V30 6467 C 600.994 3.47878 2.6514 0
M  V30 6468 C 600.053 3.60429 3.83377 0
M  V30 6469 O 599.079 4.33051 3.69398 0
M  V30 6470 N 600.281 2.95241 4.99813 0
M  V30 6471 H 603.046 2.84931 0.929205 0
M  V30 6472 H 600.607 1.5781 0.361588 0
M  V30 6473 H 602.599 2.22312 3.38171 0
M  V30 6474 H 601.169 1.3104 2.83809 0
M  V30 6475 H 600.389 3.53879 1.73675 0
M  V30 6476 H 601.677 4.34232 2.6518 0
M  V30 6477 H 601.075 2.3611 5.14071 0
M  V30 6478 H 599.632 3.06499 5.75241 0
M  V30 6479 N 603.065 -0.440357 1.51323 0
M  V30 6480 C 604.311 -1.18874 1.65047 0
M  V30 6481 C 604.666 -1.88988 0.360742 0
M  V30 6482 O 603.959 -1.80479 -0.643272 0
M  V30 6483 C 604.153 -2.2339 2.78984 0
M  V30 6484 C 603.982 -1.63534 4.18911 0
M  V30 6485 C 602.752 -1.42158 4.84891 0
M  V30 6486 C 604.95 -1.11324 5.02107 0
M  V30 6487 N 602.932 -0.778679 6.08942 0
M  V30 6488 C 604.303 -0.595421 6.17134 0
M  V30 6489 C 606.358 -1.00471 4.87658 0
M  V30 6490 C 605.061 0.0202557 7.19297 0
M  V30 6491 C 607.087 -0.402928 5.90026 0
M  V30 6492 C 606.449 0.10436 7.04323 0
M  V30 6493 H 602.548 -0.422771 0.657866 0
M  V30 6494 H 605.132 -0.485814 1.88542 0
M  V30 6495 H 603.303 -2.91074 2.57158 0
M  V30 6496 H 605.035 -2.90366 2.81904 0
M  V30 6497 H 601.79 -1.68247 4.42707 0
M  V30 6498 H 602.214 -0.474755 6.75333 0
M  V30 6499 H 606.856 -1.38278 3.99548 0
M  V30 6500 H 604.574 0.410468 8.07057 0
M  V30 6501 H 608.16 -0.320897 5.80914 0
M  V30 6502 H 607.04 0.562697 7.82179 0
M  V30 6503 N 604.543 -1.41418 -0.695603 0
M  V30 6504 C 605.791 -1.40496 -1.45277 0
M  V30 6505 C 606.112 -0.0149538 -1.94994 0
M  V30 6506 O 605.382 0.9432 -1.71699 0
M  V30 6507 H 603.962 -0.517147 -0.539044 0
M  V30 6508 H 606.624 -1.76656 -0.823321 0
M  V30 6509 H 605.72 -2.09214 -2.31595 0
M  V30 6510 N 606.021 0.929856 -1.27246 0
M  V30 6511 C 607.249 1.71144 -1.16265 0
M  V30 6512 C 607.664 1.867 0.280786 0
M  V30 6513 O 607.021 1.38249 1.19136 0
M  V30 6514 C 607.072 3.11222 -1.83911 0
M  V30 6515 O 606.793 2.96398 -3.22614 0
M  V30 6516 C 608.294 4.05541 -1.79028 0
M  V30 6517 H 605.514 0.535499 -0.404328 0
M  V30 6518 H 608.058 1.16492 -1.68077 0
M  V30 6519 H 606.213 3.6274 -1.36009 0
M  V30 6520 H 606.627 3.8494 -3.56261 0
M  V30 6521 H 608.101 5.01351 -2.30978 0
M  V30 6522 H 608.578 4.32589 -0.759168 0
M  V30 6523 H 609.184 3.59947 -2.26535 0
M  V30 6524 N 607.499 1.09233 1.13605 0
M  V30 6525 C 608.431 0.687794 2.18637 0
M  V30 6526 C 609.444 -0.26936 1.60556 0
M  V30 6527 O 610.633 -0.0557162 1.78413 0
M  V30 6528 C 607.733 -0.00751901 3.38899 0
M  V30 6529 C 606.906 0.97067 4.26494 0
M  V30 6530 C 605.965 0.309129 5.25291 0
M  V30 6531 O 604.991 0.956149 5.61112 0
M  V30 6532 N 606.193 -0.937555 5.72879 0
M  V30 6533 H 608.958 1.59141 2.53957 0
M  V30 6534 H 606.519 0.979515 1.28907 0
M  V30 6535 H 608.511 -0.461238 4.02063 0
M  V30 6536 H 607.081 -0.813353 3.01833 0
M  V30 6537 H 606.301 1.603 3.60135 0
M  V30 6538 H 607.589 1.63323 4.81875 0
M  V30 6539 H 606.987 -1.48281 5.4592 0
M  V30 6540 H 605.544 -1.33463 6.3799 0
M  V30 6541 N 608.977 -1.30795 0.87923 0
M  V30 6542 C 610.225 -1.95974 0.493809 0
M  V30 6543 C 610.546 -1.69787 -0.959021 0
M  V30 6544 O 609.816 -1.01832 -1.67353 0
M  V30 6545 H 608.396 -0.725083 0.179622 0
M  V30 6546 H 611.058 -1.59432 1.12105 0
M  V30 6547 H 610.154 -3.05058 0.659263 0
M  V30 6548 N 610.455 -0.639598 -1.44038 0
M  V30 6549 C 611.732 -0.078012 -1.95444 0
M  V30 6550 C 612.112 1.39847 -1.58133 0
M  V30 6551 O 611.46 2.11714 -0.859614 0
M  V30 6552 C 611.67 -0.309832 -3.47622 0
M  V30 6553 C 613.018 -0.207521 -4.24093 0
M  V30 6554 O 614.042 -0.241653 -3.55379 0
M  V30 6555 O 612.901 -0.119641 -5.46369 0
M  V30 6556 H 609.995 0.0174534 -0.826816 0
M  V30 6557 H 612.541 -0.711891 -1.54046 0
M  V30 6558 H 611.313 -1.33401 -3.67858 0
M  V30 6559 H 610.936 0.357777 -3.95987 0
M  V30 6560 N 611.933 1.52934 -0.380664 0
M  V30 6561 C 613.18 2.01467 0.204278 0
M  V30 6562 C 613.508 1.26744 1.47533 0
M  V30 6563 O 612.763 0.353723 1.92477 0
M  V30 6564 C 613.062 3.5349 0.527199 0
M  V30 6565 C 612.728 4.46171 -0.651295 0
M  V30 6566 C 611.39 4.71227 -0.974619 0
M  V30 6567 C 613.742 5.00909 -1.44012 0
M  V30 6568 C 611.07 5.4827 -2.08847 0
M  V30 6569 C 613.422 5.7917 -2.5445 0
M  V30 6570 C 612.086 6.02507 -2.87301 0
M  V30 6571 H 611.356 0.73722 0.0747504 0
M  V30 6572 H 614.003 1.84411 -0.516234 0
M  V30 6573 H 612.308 3.68574 1.32892 0
M  V30 6574 H 614.005 3.88529 0.992283 0
M  V30 6575 H 610.595 4.26829 -0.389276 0
M  V30 6576 H 614.779 4.81485 -1.20357 0
M  V30 6577 H 610.035 5.64567 -2.34679 0
M  V30 6578 H 614.209 6.20588 -3.1598 0
M  V30 6579 H 611.836 6.61989 -3.7373 0
M  V30 6580 N 613.412 0.11024 1.57214 0
M  V30 6581 C 614.64 -0.557834 1.99238 0
M  V30 6582 C 615.055 -1.60778 0.989734 0
M  V30 6583 O 614.412 -1.82491 -0.0186092 0
M  V30 6584 C 614.463 -1.19189 3.41286 0
M  V30 6585 O 614.184 -0.183919 4.37714 0
M  V30 6586 C 615.685 -1.94413 3.98395 0
M  V30 6587 H 612.905 -0.148392 0.654386 0
M  V30 6588 H 615.449 0.193996 2.03578 0
M  V30 6589 H 613.604 -1.89456 3.37913 0
M  V30 6590 H 614.018 -0.643475 5.20538 0
M  V30 6591 H 615.492 -2.34116 4.99894 0
M  V30 6592 H 615.969 -2.81592 3.3705 0
M  V30 6593 H 616.575 -1.28928 4.05287 0
M  V30 6594 N 614.89 -1.56749 -0.16351 0
M  V30 6595 C 616.118 -1.86577 -0.894233 0
M  V30 6596 C 616.533 -0.696543 -1.75481 0
M  V30 6597 O 615.89 0.334161 -1.79415 0
M  V30 6598 C 615.941 -3.15508 -1.76456 0
M  V30 6599 O 615.662 -4.27926 -0.938685 0
M  V30 6600 C 617.163 -3.58737 -2.60428 0
M  V30 6601 H 614.383 -0.618829 -0.259405 0
M  V30 6602 H 616.927 -2.03863 -0.161259 0
M  V30 6603 H 615.082 -3.00025 -2.45079 0
M  V30 6604 H 615.496 -5.01546 -1.53465 0
M  V30 6605 H 616.97 -4.51832 -3.17099 0
M  V30 6606 H 617.447 -2.83229 -3.35675 0
M  V30 6607 H 618.053 -3.76858 -1.97125 0
M  V30 6608 N 616.368 0.432326 -1.51554 0
M  V30 6609 C 617.596 1.20364 -1.68286 0
M  V30 6610 C 618.011 1.84888 -0.38233 0
M  V30 6611 O 617.368 1.70924 0.639627 0
M  V30 6612 C 617.419 2.28398 -2.80208 0
M  V30 6613 O 617.14 1.66512 -4.05223 0
M  V30 6614 C 618.641 3.18584 -3.08251 0
M  V30 6615 H 615.861 0.36259 -0.564596 0
M  V30 6616 H 618.405 0.511647 -1.97996 0
M  V30 6617 H 616.56 2.93305 -2.53083 0
M  V30 6618 H 616.974 2.37951 -4.67418 0
M  V30 6619 H 618.448 3.90511 -3.90135 0
M  V30 6620 H 618.925 3.79628 -2.2086 0
M  V30 6621 H 619.531 2.59372 -3.37055 0
M  V30 6622 N 617.846 1.41785 0.688094 0
M  V30 6623 C 618.796 1.40684 1.79421 0
M  V30 6624 C 619.78 0.280096 1.58443 0
M  V30 6625 O 620.972 0.521332 1.69148 0
M  V30 6626 C 618.101 1.29874 3.17785 0
M  V30 6627 C 617.187 2.47442 3.44432 0
M  V30 6628 N 617.578 3.72895 3.41736 0
M  V30 6629 C 615.876 2.41416 3.75013 0
M  V30 6630 C 616.577 4.50912 3.67496 0
M  V30 6631 N 615.553 3.81131 3.87608 0
M  V30 6632 H 619.355 2.35591 1.7571 0
M  V30 6633 H 616.869 1.35946 0.888393 0
M  V30 6634 H 618.866 1.27168 3.97031 0
M  V30 6635 H 617.526 0.359587 3.22703 0
M  V30 6636 H 618.537 4.05676 3.21943 0
M  V30 6637 H 615.214 1.56011 3.87256 0
M  V30 6638 H 616.604 5.59865 3.71484 0
M  V30 6639 N 619.324 -0.923095 1.27737 0
M  V30 6640 C 620.735 -1.48626 1.12993 0
M  V30 6641 C 621.086 -1.94142 -0.283439 0
M  V30 6642 O 620.211 -1.81605 -1.17681 0
M  V30 6643 C 620.806 -2.70117 2.04505 0
M  V30 6644 C 619.365 -3.22642 1.93853 0
M  V30 6645 C 618.512 -1.95368 1.96791 0
M  V30 6646 H 621.463 -0.736737 1.40563 0
M  V30 6647 H 621.484 -3.4506 1.60356 0
M  V30 6648 H 620.996 -2.36959 3.07363 0
M  V30 6649 H 619.097 -3.60549 0.939968 0
M  V30 6650 H 619.21 -3.88525 2.80331 0
M  V30 6651 H 617.574 -2.12061 1.41076 0
M  V30 6652 H 618.357 -1.64517 3.01312 0
M  V30 6653 N 620.802 -1.09834 -1.13024 0
M  V30 6654 C 622.218 -0.828875 -1.36388 0
M  V30 6655 C 622.418 0.554756 -1.93713 0
M  V30 6656 O 621.474 1.30882 -2.15931 0
M  V30 6657 C 622.787 -1.92352 -2.3113 0
M  V30 6658 C 624.335 -1.95124 -2.44735 0
M  V30 6659 C 624.81 -3.03745 -3.42787 0
M  V30 6660 N 626.301 -3.03012 -3.5034 0
M  V30 6661 C 627.036 -3.83699 -4.26101 0
M  V30 6662 N 626.532 -4.74306 -5.04981 0
M  V30 6663 N 628.325 -3.71942 -4.21445 0
M  V30 6664 H 620.476 -1.99029 -0.74169 0
M  V30 6665 H 622.739 -0.864557 -0.388903 0
M  V30 6666 H 622.445 -2.91906 -1.96172 0
M  V30 6667 H 622.319 -1.80536 -3.3119 0
M  V30 6668 H 624.706 -0.962069 -2.78977 0
M  V30 6669 H 624.787 -2.11018 -1.44586 0
M  V30 6670 H 624.431 -4.02878 -3.09276 0
M  V30 6671 H 624.361 -2.85094 -4.42752 0
M  V30 6672 H 626.852 -2.37352 -2.94062 0
M  V30 6673 H 627.165 -5.32446 -5.60108 0
M  V30 6674 H 625.51 -4.78339 -5.04199 0
M  V30 6675 H 628.701 -3.00513 -3.589 0
M  V30 6676 H 628.874 -4.35062 -4.80235 0
M  V30 6677 N 622.28 1.30327 -0.886154 0
M  V30 6678 C 623.691 1.78243 -0.555554 0
M  V30 6679 C 624.042 1.72849 0.928314 0
M  V30 6680 O 623.167 1.30607 1.72542 0
M  V30 6681 C 623.762 3.23654 -1.00168 0
M  V30 6682 C 622.321 3.69401 -0.722471 0
M  V30 6683 C 621.468 2.50753 -1.18399 0
M  V30 6684 H 624.419 1.1718 -1.07026 0
M  V30 6685 H 624.44 3.79056 -0.331152 0
M  V30 6686 H 623.952 3.27548 -2.08169 0
M  V30 6687 H 622.053 3.70995 0.345496 0
M  V30 6688 H 622.166 4.60818 -1.31085 0
M  V30 6689 H 620.53 2.47452 -0.603303 0
M  V30 6690 H 621.313 2.57383 -2.27176 0
M  V30 6691 N 623.758 0.647228 1.43697 0
M  V30 6692 C 625.004 0.158422 2.0218 0
M  V30 6693 C 625.337 -1.22233 1.50907 0
M  V30 6694 O 624.612 -1.81478 0.699702 0
M  V30 6695 C 624.895 0.1627 3.59732 0
M  V30 6696 C 624.748 1.57694 4.21251 0
M  V30 6697 C 626.067 -0.504138 4.37203 0
M  V30 6698 H 623.186 0.059042 0.734631 0
M  V30 6699 H 625.828 0.826772 1.71069 0
M  V30 6700 H 623.978 -0.406414 3.86368 0
M  V30 6701 H 625.65 2.19618 4.05667 0
M  V30 6702 H 623.893 2.12603 3.7813 0
M  V30 6703 H 624.564 1.53183 5.3032 0
M  V30 6704 H 627.04 -0.0199841 4.16095 0
M  V30 6705 H 625.916 -0.470394 5.46881 0
M  V30 6706 H 626.177 -1.57726 4.13007 0
M  V30 6707 N 625.236 -1.5273 0.388769 0
M  V30 6708 C 626.482 -2.01871 -0.193877 0
M  V30 6709 C 626.815 -1.27475 -1.46505 0
M  V30 6710 O 626.09 -0.375063 -1.90849 0
M  V30 6711 C 626.373 -3.5712 -0.462336 0
M  V30 6712 C 626.226 -4.42186 0.824091 0
M  V30 6713 C 627.545 -4.21881 -1.25319 0
M  V30 6714 H 624.664 -0.733764 -0.0689899 0
M  V30 6715 H 627.306 -1.82796 0.518231 0
M  V30 6716 H 625.456 -3.73504 -1.06896 0
M  V30 6717 H 627.128 -4.37554 1.46096 0
M  V30 6718 H 625.371 -4.09219 1.43952 0
M  V30 6719 H 626.042 -5.48828 0.590905 0
M  V30 6720 H 628.518 -4.0947 -0.73981 0
M  V30 6721 H 627.394 -5.30487 -1.40977 0
M  V30 6722 H 627.655 -3.79478 -2.26824 0
M  V30 6723 N 626.714 -0.118576 -1.57153 0
M  V30 6724 C 627.661 0.831789 -2.1529 0
M  V30 6725 C 628.631 1.26385 -1.07778 0
M  V30 6726 O 629.816 1.34144 -1.35684 0
M  V30 6727 C 626.956 2.07664 -2.75626 0
M  V30 6728 C 626.069 1.69298 -3.97444 0
M  V30 6729 C 625.204 2.88747 -4.45868 0
M  V30 6730 C 624.243 2.46619 -5.60219 0
M  V30 6731 N 623.38 3.5898 -6.03389 0
M  V30 6732 H 628.22 0.329183 -2.96176 0
M  V30 6733 H 625.757 0.150792 -1.46325 0
M  V30 6734 H 627.715 2.80601 -3.08738 0
M  V30 6735 H 626.345 2.55384 -1.97431 0
M  V30 6736 H 625.397 0.862374 -3.70496 0
M  V30 6737 H 626.709 1.34338 -4.80369 0
M  V30 6738 H 625.863 3.69909 -4.80887 0
M  V30 6739 H 624.602 3.26933 -3.61892 0
M  V30 6740 H 623.607 1.63889 -5.24805 0
M  V30 6741 H 624.832 2.0955 -6.45961 0
M  V30 6742 H 622.778 3.9684 -5.22354 0
M  V30 6743 H 622.695 3.27942 -6.81168 0
M  V30 6744 H 623.963 4.40583 -6.43045 0
M  V30 6745 N 628.193 1.56834 0.155195 0
M  V30 6746 C 629.439 1.83169 0.870467 0
M  V30 6747 C 629.772 0.698929 1.81187 0
M  V30 6748 O 629.047 -0.298035 1.92203 0
M  V30 6749 C 629.33 3.19965 1.65211 0
M  V30 6750 C 629.183 4.43792 0.732744 0
M  V30 6751 C 630.502 3.53885 2.61636 0
M  V30 6752 H 627.621 0.666288 0.315006 0
M  V30 6753 H 630.263 1.89513 0.135988 0
M  V30 6754 H 628.413 3.14687 2.27825 0
M  V30 6755 H 630.085 4.61148 0.118236 0
M  V30 6756 H 628.328 4.3378 0.0417906 0
M  V30 6757 H 628.999 5.36095 1.31552 0
M  V30 6758 H 631.475 3.5972 2.09143 0
M  V30 6759 H 630.351 4.50648 3.13381 0
M  V30 6760 H 630.612 2.79418 3.42605 0
M  V30 6761 N 629.671 -0.424282 1.51781 0
M  V30 6762 C 630.618 -1.51591 1.74037 0
M  V30 6763 C 631.588 -1.55556 0.582358 0
M  V30 6764 O 632.773 -1.72364 0.818245 0
M  V30 6765 C 629.913 -2.89188 1.8832 0
M  V30 6766 C 629.026 -2.9465 3.1592 0
M  V30 6767 C 628.161 -4.23452 3.20721 0
M  V30 6768 C 627.2 -4.22831 4.42584 0
M  V30 6769 N 626.337 -5.43178 4.44862 0
M  V30 6770 H 631.177 -1.31917 2.67212 0
M  V30 6771 H 628.714 -0.640599 1.32419 0
M  V30 6772 H 630.672 -3.69044 1.94583 0
M  V30 6773 H 629.302 -3.07392 0.985402 0
M  V30 6774 H 628.354 -2.07378 3.18902 0
M  V30 6775 H 629.666 -2.90055 4.05795 0
M  V30 6776 H 628.82 -5.1169 3.25973 0
M  V30 6777 H 627.559 -4.30722 2.28757 0
M  V30 6778 H 626.564 -3.32984 4.37495 0
M  V30 6779 H 627.789 -4.17213 5.35826 0
M  V30 6780 H 625.735 -5.51145 3.55775 0
M  V30 6781 H 625.652 -5.40515 5.28563 0
M  V30 6782 H 626.92 -6.33412 4.54324 0
M  V30 6783 N 631.149 -1.42148 -0.680565 0
M  V30 6784 C 632.079 -1.4796 -1.80638 0
M  V30 6785 C 633.06 -0.336728 -1.66734 0
M  V30 6786 O 634.245 -0.550247 -1.86242 0
M  V30 6787 C 631.375 -1.37569 -3.18892 0
M  V30 6788 C 630.329 -2.49823 -3.47524 0
M  V30 6789 C 629.655 -2.24491 -4.85291 0
M  V30 6790 C 630.955 -3.92144 -3.44994 0
M  V30 6791 H 632.649 -2.42184 -1.76032 0
M  V30 6792 H 630.195 -1.16566 -0.845481 0
M  V30 6793 H 632.148 -1.40243 -3.97379 0
M  V30 6794 H 630.872 -0.398357 -3.24162 0
M  V30 6795 H 629.531 -2.46455 -2.71395 0
M  V30 6796 H 629.179 -1.25066 -4.87204 0
M  V30 6797 H 628.879 -2.99722 -5.05411 0
M  V30 6798 H 630.403 -2.28906 -5.66069 0
M  V30 6799 H 631.817 -3.97145 -4.13459 0
M  V30 6800 H 630.214 -4.67179 -3.76648 0
M  V30 6801 H 631.284 -4.19225 -2.43676 0
M  V30 6802 N 632.627 0.916307 -1.28225 0
M  V30 6803 C 633.874 1.66518 -1.1523 0
M  V30 6804 C 634.202 1.92178 0.299632 0
M  V30 6805 O 633.457 1.51842 1.2346 0
M  V30 6806 C 633.756 3.03125 -1.8934 0
M  V30 6807 C 633.422 2.97135 -3.39148 0
M  V30 6808 C 632.084 2.95208 -3.80007 0
M  V30 6809 C 634.436 2.87574 -4.34685 0
M  V30 6810 C 631.764 2.81518 -5.14747 0
M  V30 6811 C 634.116 2.75424 -5.69495 0
M  V30 6812 C 632.78 2.71854 -6.09632 0
M  V30 6813 H 632.05 0.609334 -0.421655 0
M  V30 6814 H 634.697 1.06776 -1.58969 0
M  V30 6815 H 633.002 3.66639 -1.38143 0
M  V30 6816 H 634.699 3.59968 -1.76704 0
M  V30 6817 H 631.289 2.99428 -3.06661 0
M  V30 6818 H 635.473 2.88152 -4.04082 0
M  V30 6819 H 630.729 2.77148 -5.44976 0
M  V30 6820 H 634.903 2.66993 -6.43185 0
M  V30 6821 H 632.53 2.61003 -7.1399 0
M  V30 6822 N 634.105 1.10431 1.1244 0
M  V30 6823 C 635.333 0.868872 1.87772 0
M  V30 6824 C 635.748 -0.580645 1.7965 0
M  V30 6825 O 635.105 -1.40031 1.17036 0
M  V30 6826 C 635.156 1.30855 3.36986 0
M  V30 6827 O 634.877 2.70123 3.44914 0
M  V30 6828 C 636.378 1.107 4.29256 0
M  V30 6829 H 633.598 0.311868 0.59412 0
M  V30 6830 H 636.142 1.46897 1.42273 0
M  V30 6831 H 634.297 0.752126 3.80029 0
M  V30 6832 H 634.711 2.88923 4.37748 0
M  V30 6833 H 636.185 1.46378 5.32238 0
M  V30 6834 H 636.662 0.0456228 4.39176 0
M  V30 6835 H 637.268 1.64988 3.91994 0
M  V30 6836 N 635.583 -1.29855 0.893053 0
M  V30 6837 C 636.493 -2.31661 0.370157 0
M  V30 6838 C 637.509 -1.65677 -0.531723 0
M  V30 6839 O 638.685 -1.9691 -0.422902 0
M  V30 6840 C 635.75 -3.44388 -0.399741 0
M  V30 6841 C 634.811 -4.2598 0.532861 0
M  V30 6842 C 634.044 -5.33324 -0.200388 0
M  V30 6843 O 634.267 -5.52305 -1.42531 0
M  V30 6844 O 633.201 -6.00188 0.453668 0
M  V30 6845 H 637.027 -2.78354 1.2146 0
M  V30 6846 H 634.612 -1.34171 0.657153 0
M  V30 6847 H 636.494 -4.13037 -0.835358 0
M  V30 6848 H 635.169 -2.99815 -1.22035 0
M  V30 6849 H 634.076 -3.59998 1.01746 0
M  V30 6850 H 635.409 -4.74178 1.3197 0
M  V30 6851 N 637.061 -0.65484 -1.43351 0
M  V30 6852 C 638.286 -0.175046 -2.0666 0
M  V30 6853 C 638.711 1.15104 -1.4877 0
M  V30 6854 O 638.069 1.71144 -0.598279 0
M  V30 6855 C 638.117 -0.0991544 -3.60464 0
M  V30 6856 O 637.221 0.938169 -4.01587 0
M  V30 6857 H 636.562 -0.0956148 -0.65708 0
M  V30 6858 H 639.092 -0.898222 -1.83829 0
M  V30 6859 H 639.102 0.083632 -4.07914 0
M  V30 6860 H 637.777 -1.06719 -4.01975 0
M  V30 6861 H 636.354 0.72804 -3.65724 0
M  V30 6862 N 638.539 1.52521 -0.396863 0
M  V30 6863 C 639.767 2.06091 0.18275 0
M  V30 6864 C 640.182 1.26796 1.39886 0
M  V30 6865 O 639.539 0.316585 1.79733 0
M  V30 6866 C 639.59 3.57362 0.545377 0
M  V30 6867 O 639.311 4.33656 -0.622428 0
M  V30 6868 C 640.812 4.27305 1.18004 0
M  V30 6869 H 638.032 0.670504 0.025789 0
M  V30 6870 H 640.576 1.96561 -0.564276 0
M  V30 6871 H 638.731 3.66941 1.2423 0
M  V30 6872 H 639.145 5.23507 -0.322662 0
M  V30 6873 H 640.619 5.34366 1.38408 0
M  V30 6874 H 641.096 3.83 2.1496 0
M  V30 6875 H 641.702 4.22064 0.523671 0
M  V30 6876 N 640.017 0.126909 1.57088 0
M  V30 6877 C 641.265 -0.528123 1.95078 0
M  V30 6878 C 641.586 -1.66708 1.0116 0
M  V30 6879 O 640.856 -1.95777 0.0693527 0
M  V30 6880 H 639.436 -0.198087 0.720257 0
M  V30 6881 H 642.098 0.197703 1.93895 0
M  V30 6882 H 641.194 -0.917507 2.98309 0
M  V30 6883 N 641.495 -1.56914 -0.146875 0
M  V30 6884 C 642.741 -1.83628 -0.860741 0
M  V30 6885 C 643.074 -0.708528 -1.80813 0
M  V30 6886 O 642.349 0.287838 -1.92358 0
M  V30 6887 C 642.632 -3.20836 -1.63511 0
M  V30 6888 C 642.485 -4.44174 -0.709199 0
M  V30 6889 C 643.804 -3.55268 -2.59756 0
M  V30 6890 H 640.923 -0.667949 -0.311468 0
M  V30 6891 H 643.565 -1.89582 -0.125936 0
M  V30 6892 H 641.715 -3.15891 -2.26153 0
M  V30 6893 H 643.387 -4.61205 -0.0937781 0
M  V30 6894 H 641.63 -4.33796 -0.0187856 0
M  V30 6895 H 642.301 -5.36785 -1.28707 0
M  V30 6896 H 644.777 -3.60824 -2.07232 0
M  V30 6897 H 643.653 -4.52303 -3.10987 0
M  V30 6898 H 643.914 -2.81231 -3.41118 0
M  V30 6899 N 642.974 0.416227 -1.52004 0
M  V30 6900 C 643.904 1.51365 -1.77795 0
M  V30 6901 C 644.885 1.58059 -0.628601 0
M  V30 6902 O 646.07 1.73447 -0.873478 0
M  V30 6903 C 643.2 2.89256 -1.92219 0
M  V30 6904 C 642.154 2.97415 -3.0778 0
M  V30 6905 C 641.48 4.37492 -3.07417 0
M  V30 6906 C 642.78 2.69551 -4.47369 0
M  V30 6907 H 644.474 1.30033 -2.69688 0
M  V30 6908 H 642.02 0.624112 -1.29772 0
M  V30 6909 H 643.973 3.66008 -2.08845 0
M  V30 6910 H 642.697 3.11866 -0.969917 0
M  V30 6911 H 641.356 2.23107 -2.90893 0
M  V30 6912 H 641.004 4.571 -2.09925 0
M  V30 6913 H 640.704 4.43877 -3.85029 0
M  V30 6914 H 642.228 5.16188 -3.26162 0
M  V30 6915 H 643.642 3.36028 -4.64497 0
M  V30 6916 H 642.039 2.87321 -5.26846 0
M  V30 6917 H 643.109 1.65029 -4.55953 0
M  V30 6918 N 644.452 1.42507 0.673017 0
M  V30 6919 C 645.415 1.4582 1.76831 0
M  V30 6920 C 646.415 0.345542 1.57043 0
M  V30 6921 O 647.605 0.606447 1.63303 0
M  V30 6922 C 644.737 1.29158 3.15485 0
M  V30 6923 H 645.93 2.43345 1.7528 0
M  V30 6924 H 643.483 1.28981 0.882817 0
M  V30 6925 H 644.218 0.325626 3.22661 0
M  V30 6926 H 644.003 2.09797 3.31252 0
M  V30 6927 H 645.493 1.34363 3.95394 0
M  V30 6928 N 645.93 -0.909495 1.28709 0
M  V30 6929 C 646.86 -2.0291 1.15542 0
M  V30 6930 C 647.841 -1.7002 0.0521017 0
M  V30 6931 O 649.026 -1.92835 0.229849 0
M  V30 6932 C 646.156 -3.37458 0.820935 0
M  V30 6933 C 645.11 -3.84524 1.87949 0
M  V30 6934 C 644.436 -5.16086 1.39854 0
M  V30 6935 C 645.736 -4.05918 3.28676 0
M  V30 6936 H 647.43 -2.14183 2.09203 0
M  V30 6937 H 644.976 -1.02913 1.00722 0
M  V30 6938 H 646.929 -4.1528 0.715571 0
M  V30 6939 H 645.653 -3.26249 -0.151374 0
M  V30 6940 H 644.312 -3.08911 1.97408 0
M  V30 6941 H 643.96 -5.01284 0.41518 0
M  V30 6942 H 643.66 -5.48547 2.1064 0
M  V30 6943 H 645.184 -5.96459 1.30649 0
M  V30 6944 H 646.598 -4.74252 3.22115 0
M  V30 6945 H 644.995 -4.49717 3.97334 0
M  V30 6946 H 646.065 -3.10583 3.72379 0
M  V30 6947 N 647.408 -1.11026 -1.11852 0
M  V30 6948 C 648.318 -0.777252 -2.2135 0
M  V30 6949 C 649.334 0.227821 -1.72502 0
M  V30 6950 O 650.51 0.0650587 -2.01295 0
M  V30 6951 C 647.575 -0.220668 -3.45997 0
M  V30 6952 C 646.636 -1.2838 -4.09655 0
M  V30 6953 C 645.869 -0.753678 -5.28352 0
M  V30 6954 O 646.092 0.417779 -5.68868 0
M  V30 6955 O 645.026 -1.51647 -5.82483 0
M  V30 6956 H 648.852 -1.69141 -2.5224 0
M  V30 6957 H 646.437 -0.885836 -1.20305 0
M  V30 6958 H 648.319 0.0855756 -4.21313 0
M  V30 6959 H 646.994 0.666262 -3.16769 0
M  V30 6960 H 645.901 -1.64299 -3.3609 0
M  V30 6961 H 647.234 -2.14396 -4.43052 0
M  V30 6962 N 648.886 1.2938 -0.899927 0
M  V30 6963 C 650.163 1.9046 -0.445443 0
M  V30 6964 C 650.543 1.81683 1.07492 0
M  V30 6965 O 649.891 1.24371 1.91688 0
M  V30 6966 C 650.101 3.35529 -0.960279 0
M  V30 6967 C 651.449 4.12556 -1.00412 0
M  V30 6968 O 652.473 3.44434 -0.907965 0
M  V30 6969 O 651.332 5.34294 -1.14857 0
M  V30 6970 H 648.426 0.815253 -0.138893 0
M  V30 6971 H 650.972 1.37844 -0.989808 0
M  V30 6972 H 649.744 3.36074 -2.00425 0
M  V30 6973 H 649.367 3.95624 -0.395939 0
M  V30 6974 N 650.364 0.662433 1.43002 0
M  V30 6975 C 651.311 -0.0235324 2.30788 0
M  V30 6976 C 652.281 -0.805342 1.4527 0
M  V30 6977 O 653.466 -0.78009 1.74124 0
M  V30 6978 C 650.606 -0.977545 3.30965 0
M  V30 6979 C 649.719 -0.190865 4.31578 0
M  V30 6980 C 648.854 -1.13951 5.18834 0
M  V30 6981 C 647.893 -0.343796 6.11134 0
M  V30 6982 N 647.03 -1.2445 6.90982 0
M  V30 6983 H 651.87 0.730921 2.88897 0
M  V30 6984 H 649.407 0.372197 1.42313 0
M  V30 6985 H 651.365 -1.54437 3.87563 0
M  V30 6986 H 649.995 -1.69877 2.74484 0
M  V30 6987 H 649.047 0.492388 3.772 0
M  V30 6988 H 650.359 0.427464 4.96965 0
M  V30 6989 H 649.513 -1.77666 5.80103 0
M  V30 6990 H 648.252 -1.79174 4.53595 0
M  V30 6991 H 647.257 0.30665 5.48944 0
M  V30 6992 H 648.482 0.304161 6.78419 0
M  V30 6993 H 646.428 -1.88336 6.28383 0
M  V30 6994 H 646.345 -0.680959 7.52927 0
M  V30 6995 H 647.613 -1.86952 7.56749 0
M  V30 6996 N 651.842 -1.52309 0.404946 0
M  V30 6997 C 652.752 -2.30634 -0.429555 0
M  V30 6998 C 653.768 -1.38187 -1.05737 0
M  V30 6999 O 654.944 -1.71261 -1.05979 0
M  V30 7000 C 652.009 -3.10947 -1.53339 0
M  V30 7001 C 651.07 -4.19126 -0.929065 0
M  V30 7002 C 650.303 -4.95601 -1.9803 0
M  V30 7003 O 650.526 -4.72331 -3.1978 0
M  V30 7004 O 649.46 -5.80551 -1.58886 0
M  V30 7005 H 653.286 -3.0298 0.208963 0
M  V30 7006 H 650.871 -1.4845 0.168255 0
M  V30 7007 H 652.753 -3.60974 -2.1743 0
M  V30 7008 H 651.428 -2.41399 -2.15658 0
M  V30 7009 H 650.335 -3.73257 -0.250982 0
M  V30 7010 H 651.668 -4.90955 -0.349855 0
M  V30 7011 N 653.32 -0.135238 -1.57019 0
M  V30 7012 C 654.25 0.805235 -2.19176 0
M  V30 7013 C 655.231 1.2656 -1.13651 0
M  V30 7014 O 656.416 1.32528 -1.4195 0
M  V30 7015 C 653.546 2.04914 -2.80406 0
M  V30 7016 C 652.5 1.72598 -3.91655 0
M  V30 7017 C 651.826 3.04154 -4.39766 0
M  V30 7018 C 653.126 0.981709 -5.12991 0
M  V30 7019 H 654.82 0.287232 -2.98019 0
M  V30 7020 H 652.366 0.136714 -1.4335 0
M  V30 7021 H 654.319 2.71178 -3.22553 0
M  V30 7022 H 653.043 2.59067 -1.98877 0
M  V30 7023 H 651.702 1.08717 -3.50109 0
M  V30 7024 H 651.35 3.56274 -3.55075 0
M  V30 7025 H 651.05 2.83299 -5.14796 0
M  V30 7026 H 652.574 3.71509 -4.84576 0
M  V30 7027 H 653.988 1.5462 -5.52056 0
M  V30 7028 H 652.385 0.873533 -5.93708 0
M  V30 7029 H 653.455 -0.0286887 -4.84892 0
M  V30 7030 N 654.798 1.5699 0.138552 0
M  V30 7031 C 656.046 1.83446 0.848053 0
M  V30 7032 C 656.367 0.71744 1.81322 0
M  V30 7033 O 655.637 -0.260228 1.94164 0
M  V30 7034 H 654.217 0.676792 0.316166 0
M  V30 7035 H 656.879 1.94462 0.130538 0
M  V30 7036 H 655.975 2.78677 1.40518 0
M  V30 7037 N 656.276 -0.40816 1.52223 0
M  V30 7038 C 657.692 -0.74685 1.41047 0
M  V30 7039 C 657.892 -1.94788 0.51573 0
M  V30 7040 O 656.948 -2.52494 -0.0181156 0
M  V30 7041 C 658.261 -0.999878 2.83589 0
M  V30 7042 C 659.809 -1.10253 2.92939 0
M  V30 7043 C 660.284 -1.38832 4.36451 0
M  V30 7044 N 661.775 -1.45694 4.3969 0
M  V30 7045 C 662.51 -1.69435 5.47795 0
M  V30 7046 N 662.006 -1.90774 6.66016 0
M  V30 7047 N 663.799 -1.71458 5.35312 0
M  V30 7048 H 655.95 0.382409 2.08929 0
M  V30 7049 H 658.213 0.108807 0.941735 0
M  V30 7050 H 657.919 -0.189723 3.51188 0
M  V30 7051 H 657.793 -1.91978 3.24691 0
M  V30 7052 H 660.18 -1.90328 2.2552 0
M  V30 7053 H 660.261 -0.160973 2.55293 0
M  V30 7054 H 659.905 -0.592741 5.04429 0
M  V30 7055 H 659.835 -2.34241 4.71634 0
M  V30 7056 H 662.326 -1.3099 3.54472 0
M  V30 7057 H 662.639 -2.08342 7.44186 0
M  V30 7058 H 660.984 -1.88037 6.69079 0
M  V30 7059 H 664.175 -1.54326 4.41929 0
M  V30 7060 H 664.348 -1.89621 6.19635 0
M  V30 7061 N 657.755 -1.42862 -0.66545 0
M  V30 7062 C 659.001 -1.44043 -1.42757 0
M  V30 7063 C 659.334 -0.0599629 -1.94107 0
M  V30 7064 O 658.609 0.917286 -1.71511 0
M  V30 7065 C 658.892 -2.47266 -2.61786 0
M  V30 7066 C 658.745 -3.94539 -2.16007 0
M  V30 7067 C 660.064 -2.47365 -3.64003 0
M  V30 7068 H 657.183 -0.524506 -0.517748 0
M  V30 7069 H 659.825 -1.74335 -0.755466 0
M  V30 7070 H 657.975 -2.21565 -3.19126 0
M  V30 7071 H 659.647 -4.31254 -1.63762 0
M  V30 7072 H 657.89 -4.07957 -1.47491 0
M  V30 7073 H 658.561 -4.62357 -3.01546 0
M  V30 7074 H 661.037 -2.70243 -3.16399 0
M  V30 7075 H 659.913 -3.21552 -4.44854 0
M  V30 7076 H 660.174 -1.50299 -4.15767 0
M  V30 7077 N 659.233 0.902656 -1.29189 0
M  V30 7078 C 660.482 1.6475 -1.16362 0
M  V30 7079 C 660.795 1.93517 0.284682 0
M  V30 7080 O 662.001 2.66192 0.534229 0
M  V30 7081 C 660.457 2.96848 -2.03493 0
M  V30 7082 C 660.065 2.75687 -3.5313 0
M  V30 7083 C 661.809 3.74762 -1.99383 0
M  V30 7084 C 659.716 4.03492 -4.32375 0
M  V30 7085 H 658.646 0.618041 -0.431904 0
M  V30 7086 H 661.297 1.0008 -1.53806 0
M  V30 7087 H 659.679 3.62715 -1.58916 0
M  V30 7088 H 660.853 2.18431 -4.05739 0
M  V30 7089 H 659.168 2.11171 -3.58881 0
M  V30 7090 H 661.765 4.69515 -2.5585 0
M  V30 7091 H 662.108 4.04767 -0.973123 0
M  V30 7092 H 662.641 3.15732 -2.41988 0
M  V30 7093 H 659.38 3.78656 -5.3507 0
M  V30 7094 H 658.9 4.60318 -3.84535 0
M  V30 7095 H 660.579 4.71662 -4.42881 0
M  V30 7096 N 660.711 1.11618 1.11262 0
M  V30 7097 C 661.641 0.79846 2.19424 0
M  V30 7098 C 662.622 -0.234003 1.68483 0
M  V30 7099 O 663.807 -0.0970704 1.93957 0
M  V30 7100 C 660.937 0.242892 3.4645 0
M  V30 7101 C 659.891 1.20744 4.10615 0
M  V30 7102 C 659.217 0.512494 5.32238 0
M  V30 7103 C 660.517 2.55884 4.55325 0
M  V30 7104 H 662.211 1.70286 2.46258 0
M  V30 7105 H 659.757 0.820195 1.18359 0
M  V30 7106 H 661.71 0.00840447 4.21399 0
M  V30 7107 H 660.434 -0.696811 3.1908 0
M  V30 7108 H 659.093 1.42759 3.37662 0
M  V30 7109 H 658.741 -0.432075 5.01141 0
M  V30 7110 H 658.441 1.15583 5.7612 0
M  V30 7111 H 659.965 0.286842 6.09926 0
M  V30 7112 H 661.379 2.37946 5.21588 0
M  V30 7113 H 659.776 3.16216 5.10027 0
M  V30 7114 H 660.846 3.14968 3.68678 0
M  V30 7115 N 662.189 -1.289 0.906776 0
M  V30 7116 C 663.419 -1.99112 0.551168 0
M  V30 7117 C 663.827 -1.67998 -0.870243 0
M  V30 7118 O 663.17 -0.92525 -1.58697 0
M  V30 7119 C 663.232 -3.53162 0.672065 0
M  V30 7120 C 662.896 -4.07849 2.06174 0
M  V30 7121 C 663.893 -4.22212 3.0337 0
M  V30 7122 C 661.578 -4.4271 2.37304 0
M  V30 7123 C 663.572 -4.70678 4.29815 0
M  V30 7124 C 661.259 -4.90871 3.6399 0
M  V30 7125 C 662.257 -5.04811 4.6006 0
M  V30 7126 O 661.945 -5.51925 5.84495 0
M  V30 7127 H 661.677 -0.642728 0.209469 0
M  V30 7128 H 664.231 -1.65234 1.22012 0
M  V30 7129 H 662.461 -3.86662 -0.05394 0
M  V30 7130 H 664.15 -4.046 0.324579 0
M  V30 7131 H 664.916 -3.9556 2.80637 0
M  V30 7132 H 660.795 -4.31114 1.63283 0
M  V30 7133 H 664.339 -4.81474 5.04806 0
M  V30 7134 H 660.236 -5.16961 3.86551 0
M  V30 7135 H 661.004 -5.70225 5.87185 0
M  V30 7136 N 663.667 -0.670007 -1.42649 0
M  V30 7137 C 665.078 -0.268118 -1.84765 0
M  V30 7138 C 665.429 1.18877 -1.56086 0
M  V30 7139 O 664.554 1.90947 -1.01825 0
M  V30 7140 C 665.149 -0.47984 -3.35385 0
M  V30 7141 C 663.708 -0.132116 -3.76168 0
M  V30 7142 C 662.855 -0.774611 -2.66261 0
M  V30 7143 H 665.806 -0.872509 -1.32563 0
M  V30 7144 H 665.827 0.269522 -3.79544 0
M  V30 7145 H 665.339 -1.54026 -3.56227 0
M  V30 7146 H 663.44 0.92505 -3.60934 0
M  V30 7147 H 663.553 -0.569294 -4.75706 0
M  V30 7148 H 661.917 -0.206353 -2.53863 0
M  V30 7149 H 662.7 -1.83839 -2.89928 0
M  V30 7150 N 665.145 1.52092 -0.413018 0
M  V30 7151 C 666.373 2.06274 0.160881 0
M  V30 7152 C 666.788 1.28273 1.38533 0
M  V30 7153 O 666.145 0.33563 1.79387 0
M  V30 7154 C 666.196 3.57921 0.507443 0
M  V30 7155 O 665.917 4.32971 -0.668388 0
M  V30 7156 C 667.418 4.28533 1.13465 0
M  V30 7157 H 664.638 0.67074 0.0186759 0
M  V30 7158 H 667.182 1.95951 -0.585092 0
M  V30 7159 H 665.337 3.68238 1.20331 0
M  V30 7160 H 665.751 5.23135 -0.378169 0
M  V30 7161 H 667.225 5.35804 1.32732 0
M  V30 7162 H 667.702 3.85258 2.10886 0
M  V30 7163 H 668.308 4.22595 0.478876 0
M  V30 7164 N 666.623 0.143563 1.56945 0
M  V30 7165 C 667.848 -0.518701 2.00809 0
M  V30 7166 C 668.273 -1.5785 1.02298 0
M  V30 7167 O 667.631 -1.813 -0.0017839 0
M  V30 7168 C 667.679 -1.09929 3.43436 0
M  V30 7169 O 666.783 -2.21425 3.47915 0
M  V30 7170 H 666.124 -0.127215 0.6517 0
M  V30 7171 H 668.654 0.239283 2.03196 0
M  V30 7172 H 668.664 -1.4288 3.82164 0
M  V30 7173 H 667.339 -0.323162 4.14643 0
M  V30 7174 H 665.916 -1.89728 3.21026 0
M  V30 7175 N 668.101 -1.57061 -0.130224 0
M  V30 7176 C 669.049 -2.00486 -1.17933 0
M  V30 7177 C 670.043 -0.899933 -1.43519 0
M  V30 7178 O 671.249 -1.08514 -1.43613 0
M  V30 7179 H 667.624 -0.638441 -0.397363 0
M  V30 7180 H 669.595 -2.87848 -0.786501 0
M  V30 7181 C 668.344 -2.41565 -2.50084 0
M  V30 7182 H 667.667 -3.26148 -2.31231 0
M  V30 7183 H 669.107 -2.75757 -3.22078 0
M  V30 7184 C 667.566 -1.27485 -3.11848 0
M  V30 7185 O 668.096 -0.584688 -3.97422 0
M  V30 7186 N 666.302 -1.03478 -2.71552 0
M  V30 7187 H 665.849 -1.59779 -2.02061 0
M  V30 7188 H 665.807 -0.27341 -3.13209 0
M  V30 7189 N 669.579 0.400081 -1.52437 0
M  V30 7190 C 670.804 1.17221 -1.71096 0
M  V30 7191 C 671.229 1.83269 -0.423565 0
M  V30 7192 O 670.587 1.70378 0.619751 0
M  V30 7193 C 670.635 2.20425 -2.85386 0
M  V30 7194 O 669.739 3.26769 -2.51586 0
M  V30 7195 H 669.08 0.341766 -0.569291 0
M  V30 7196 H 671.61 0.467772 -1.99181 0
M  V30 7197 H 671.62 2.64605 -3.10561 0
M  V30 7198 H 670.295 1.71737 -3.78786 0
M  V30 7199 H 668.872 2.87804 -2.37114 0
M  V30 7200 N 671.057 1.43213 0.657864 0
M  V30 7201 C 672.282 1.48227 1.45064 0
M  V30 7202 C 672.707 0.0999939 1.87834 0
M  V30 7203 O 672.065 -0.905269 1.57081 0
M  V30 7204 C 672.113 2.42931 2.6649 0
M  V30 7205 O 671.217 1.91237 3.6538 0
M  V30 7206 H 670.558 0.501551 0.435135 0
M  V30 7207 H 673.088 1.8808 0.805431 0
M  V30 7208 H 673.098 2.6008 3.1436 0
M  V30 7209 H 671.773 3.43348 2.34701 0
M  V30 7210 H 670.35 1.83726 3.24498 0
M  V30 7211 N 672.536 -0.895792 1.29666 0
M  V30 7212 C 673.483 -2.00035 1.15129 0
M  V30 7213 C 674.453 -1.66043 0.0435819 0
M  V30 7214 O 675.638 -1.89621 0.211811 0
M  V30 7215 C 672.778 -3.34774 0.83787 0
M  V30 7216 C 671.891 -3.81525 2.0264 0
M  V30 7217 C 671.026 -5.04858 1.65201 0
M  V30 7218 C 670.065 -5.43988 2.80612 0
M  V30 7219 N 669.202 -6.58507 2.43544 0
M  V30 7220 H 674.042 -2.11802 2.09628 0
M  V30 7221 H 671.579 -1.03719 1.04311 0
M  V30 7222 H 673.537 -4.12311 0.636824 0
M  V30 7223 H 672.167 -3.22724 -0.0702314 0
M  V30 7224 H 671.219 -2.9999 2.33903 0
M  V30 7225 H 672.531 -4.06472 2.89106 0
M  V30 7226 H 671.685 -5.8999 1.41408 0
M  V30 7227 H 670.424 -4.81759 0.758893 0
M  V30 7228 H 669.429 -4.57388 3.05083 0
M  V30 7229 H 670.654 -5.69066 3.70595 0
M  V30 7230 H 668.6 -6.37004 1.56724 0
M  V30 7231 H 668.517 -6.83269 3.23542 0
M  V30 7232 H 669.785 -7.46897 2.2308 0
M  V30 7233 N 674.014 -1.12206 -1.10668 0
M  V30 7234 C 675.239 -0.898938 -1.86906 0
M  V30 7235 C 675.664 0.546346 -1.79991 0
M  V30 7236 O 675.022 1.38655 -1.1681 0
M  V30 7237 C 675.07 -1.37529 -3.33344 0
M  V30 7238 O 674.174 -0.55218 -4.08687 0
M  V30 7239 H 673.515 -0.323163 -0.580053 0
M  V30 7240 H 676.045 -1.49355 -1.39837 0
M  V30 7241 H 676.055 -1.3733 -3.84193 0
M  V30 7242 H 674.73 -2.42767 -3.37693 0
M  V30 7243 H 673.307 -0.620947 -3.67694 0
M  V30 7244 N 675.492 1.28418 -0.913599 0
M  V30 7245 C 676.455 2.25564 -0.406624 0
M  V30 7246 C 677.455 1.5387 0.466965 0
M  V30 7247 O 678.645 1.72094 0.270042 0
M  V30 7248 C 675.777 3.38339 0.417053 0
M  V30 7249 H 676.97 2.71926 -1.26477 0
M  V30 7250 H 674.523 1.40098 -0.692986 0
M  V30 7251 H 675.258 2.97339 1.29461 0
M  V30 7252 H 675.043 3.91542 -0.209102 0
M  V30 7253 H 676.533 4.10578 0.762602 0
M  V30 7254 N 676.97 0.677563 1.42291 0
M  V30 7255 C 677.88 0.000962654 2.346 0
M  V30 7256 C 678.896 -0.785833 1.55244 0
M  V30 7257 O 680.072 -0.727523 1.87801 0
M  V30 7258 C 677.137 -0.936746 3.33805 0
M  V30 7259 C 676.198 -0.144173 4.29058 0
M  V30 7260 C 675.431 -1.03722 5.23524 0
M  V30 7261 O 675.654 -2.27675 5.22992 0
M  V30 7262 O 674.588 -0.496542 5.99848 0
M  V30 7263 H 678.414 0.761397 2.94001 0
M  V30 7264 H 675.999 0.43781 1.42841 0
M  V30 7265 H 677.881 -1.47497 3.94744 0
M  V30 7266 H 676.556 -1.67698 2.76874 0
M  V30 7267 H 675.463 0.438224 3.71524 0
M  V30 7268 H 676.796 0.55701 4.89038 0
M  V30 7269 N 678.448 -1.51871 0.421078 0
M  V30 7270 C 679.378 -2.30231 -0.389363 0
M  V30 7271 C 680.359 -1.34946 -1.03555 0
M  V30 7272 O 681.544 -1.63859 -1.04229 0
M  V30 7273 C 678.674 -3.13247 -1.49979 0
M  V30 7274 C 677.628 -4.16677 -0.977966 0
M  V30 7275 C 676.954 -4.88112 -2.1829 0
M  V30 7276 C 678.254 -5.22295 -0.0236775 0
M  V30 7277 H 679.948 -2.98229 0.264524 0
M  V30 7278 H 677.494 -1.43424 0.12866 0
M  V30 7279 H 679.447 -3.66838 -2.07383 0
M  V30 7280 H 678.171 -2.4304 -2.18173 0
M  V30 7281 H 676.83 -3.64114 -0.426245 0
M  V30 7282 H 676.478 -4.14423 -2.85066 0
M  V30 7283 H 676.178 -5.58041 -1.84021 0
M  V30 7284 H 677.702 -5.44521 -2.76278 0
M  V30 7285 H 679.116 -5.71055 -0.506899 0
M  V30 7286 H 677.513 -5.99656 0.230782 0
M  V30 7287 H 678.583 -4.76131 0.917999 0
M  V30 7288 N 679.926 -0.151884 -1.56866 0
M  V30 7289 C 680.876 0.797799 -2.13586 0
M  V30 7290 C 681.86 1.20613 -1.06496 0
M  V30 7291 O 683.052 1.17173 -1.32663 0
M  V30 7292 C 680.181 2.03493 -2.76488 0
M  V30 7293 C 679.267 1.64948 -3.90708 0
M  V30 7294 N 679.658 0.972513 -4.96363 0
M  V30 7295 C 677.956 1.94186 -4.01507 0
M  V30 7296 C 678.657 0.785661 -5.7637 0
M  V30 7297 N 677.633 1.32105 -5.27304 0
M  V30 7298 H 681.435 0.271403 -2.92644 0
M  V30 7299 H 678.949 0.049487 -1.62325 0
M  V30 7300 H 680.946 2.72532 -3.15487 0
M  V30 7301 H 679.606 2.56646 -1.98904 0
M  V30 7302 H 680.617 0.632724 -5.1402 0
M  V30 7303 H 677.294 2.49154 -3.35005 0
M  V30 7304 H 678.684 0.251749 -6.71428 0
M  V30 7305 N 681.404 1.57128 0.121893 0
M  V30 7306 C 682.82 1.52357 0.47534 0
M  V30 7307 C 683.02 0.864417 1.82017 0
M  V30 7308 O 682.076 0.445529 2.48538 0
M  V30 7309 C 683.389 2.97122 0.4625 0
M  V30 7310 C 684.937 3.08196 0.546255 0
M  V30 7311 C 685.412 4.54516 0.563833 0
M  V30 7312 N 686.903 4.58959 0.625353 0
M  V30 7313 C 687.638 5.69585 0.660354 0
M  V30 7314 N 687.134 6.89714 0.653175 0
M  V30 7315 N 688.927 5.57685 0.703143 0
M  V30 7316 H 681.078 1.98364 -0.75931 0
M  V30 7317 H 683.341 0.905777 -0.279772 0
M  V30 7318 H 683.047 3.48706 -0.457943 0
M  V30 7319 H 682.921 3.54406 1.29136 0
M  V30 7320 H 685.308 2.56617 1.45712 0
M  V30 7321 H 685.389 2.53912 -0.310234 0
M  V30 7322 H 685.033 5.06741 -0.342974 0
M  V30 7323 H 684.963 5.06609 1.43716 0
M  V30 7324 H 687.454 3.72489 0.637182 0
M  V30 7325 H 687.767 7.69781 0.682425 0
M  V30 7326 H 686.112 6.92223 0.620646 0
M  V30 7327 H 689.303 4.62744 0.706095 0
M  V30 7328 H 689.476 6.43909 0.726952 0
M  V30 7329 N 682.882 -0.391992 1.52647 0
M  V30 7330 C 683.815 -1.50019 1.71958 0
M  V30 7331 C 684.793 -1.5238 0.567365 0
M  V30 7332 O 685.977 -1.70831 0.796806 0
M  V30 7333 C 683.104 -2.88496 1.77447 0
M  V30 7334 C 682.15 -3.03974 2.99169 0
M  V30 7335 S 682.983 -2.75487 4.59203 0
M  V30 7336 C 684.139 -4.16163 4.67503 0
M  V30 7337 H 684.372 -1.33413 2.65685 0
M  V30 7338 H 681.905 -0.584674 1.42902 0
M  V30 7339 H 683.863 -3.68296 1.81296 0
M  V30 7340 H 682.524 -3.02431 0.848188 0
M  V30 7341 H 681.717 -4.05328 2.99542 0
M  V30 7342 H 681.319 -2.32062 2.93297 0
M  V30 7343 H 683.611 -5.10048 4.45934 0
M  V30 7344 H 684.554 -4.20806 5.69498 0
M  V30 7345 H 684.962 -4.01933 3.96371 0
M  V30 7346 N 684.36 -1.4356 -0.65026 0
M  V30 7347 C 685.606 -1.45549 -1.41221 0
M  V30 7348 C 685.939 -0.0805472 -1.94033 0
M  V30 7349 O 685.214 0.899043 -1.72475 0
M  V30 7350 C 685.497 -2.50028 -2.59148 0
M  V30 7351 C 685.35 -3.96808 -2.1181 0
M  V30 7352 C 686.669 -2.51212 -3.61359 0
M  V30 7353 H 683.788 -0.529967 -0.512156 0
M  V30 7354 H 686.43 -1.75127 -0.736933 0
M  V30 7355 H 684.58 -2.24937 -3.16758 0
M  V30 7356 H 686.252 -4.32966 -1.59178 0
M  V30 7357 H 684.495 -4.09498 -1.43156 0
M  V30 7358 H 685.166 -4.6553 -2.96625 0
M  V30 7359 H 687.642 -2.73583 -3.13515 0
M  V30 7360 H 686.518 -3.26252 -4.41419 0
M  V30 7361 H 686.779 -1.54701 -4.1415 0
M  V30 7362 N 685.838 0.888903 -1.30139 0
M  V30 7363 C 687.084 1.6428 -1.18912 0
M  V30 7364 C 687.417 1.92499 0.256477 0
M  V30 7365 O 686.692 1.54312 1.18397 0
M  V30 7366 C 686.975 2.9851 -2.01405 0
M  V30 7367 C 686.828 2.77288 -3.54163 0
M  V30 7368 C 688.147 3.99383 -1.84882 0
M  V30 7369 H 685.266 0.596148 -0.433333 0
M  V30 7370 H 687.908 1.0289 -1.5973 0
M  V30 7371 H 686.058 3.50907 -1.66722 0
M  V30 7372 H 687.73 2.31709 -3.98884 0
M  V30 7373 H 685.973 2.11867 -3.78543 0
M  V30 7374 H 686.644 3.72717 -4.07168 0
M  V30 7375 H 689.12 3.56132 -2.15196 0
M  V30 7376 H 687.996 4.91222 -2.44934 0
M  V30 7377 H 688.257 4.34674 -0.806902 0
M  V30 7378 N 687.317 1.12792 1.10072 0
M  V30 7379 C 688.728 0.899346 1.63611 0
M  V30 7380 C 689.079 -0.565547 1.87872 0
M  V30 7381 O 688.204 -1.43081 1.62348 0
M  V30 7382 C 688.799 1.62608 2.97227 0
M  V30 7383 C 687.358 1.44356 3.47618 0
M  V30 7384 C 686.505 1.65958 2.22156 0
M  V30 7385 H 689.456 1.28216 0.935223 0
M  V30 7386 H 689.477 1.0793 3.64872 0
M  V30 7387 H 688.989 2.69221 2.79538 0
M  V30 7388 H 687.09 0.400148 3.70445 0
M  V30 7389 H 687.203 2.20218 4.25489 0
M  V30 7390 H 685.567 1.08395 2.30484 0
M  V30 7391 H 686.35 2.73877 2.06993 0
M  V30 7392 N 688.795 -1.27931 0.920396 0
M  V30 7393 C 689.742 -2.27085 0.412422 0
M  V30 7394 C 690.712 -1.57858 -0.516725 0
M  V30 7395 O 691.897 -1.85717 -0.437475 0
M  V30 7396 C 689.037 -3.43466 -0.335399 0
M  V30 7397 C 688.15 -4.27425 0.627017 0
M  V30 7398 C 687.285 -5.31016 -0.139916 0
M  V30 7399 C 686.324 -6.06641 0.815683 0
M  V30 7400 N 685.461 -7.02052 0.0818439 0
M  V30 7401 H 690.301 -2.69913 1.26298 0
M  V30 7402 H 687.838 -1.32732 0.634076 0
M  V30 7403 H 689.796 -4.09744 -0.785226 0
M  V30 7404 H 688.426 -3.01611 -1.15025 0
M  V30 7405 H 687.478 -3.6113 1.19537 0
M  V30 7406 H 688.79 -4.79969 1.35763 0
M  V30 7407 H 687.944 -6.03208 -0.649998 0
M  V30 7408 H 686.683 -4.79257 -0.903543 0
M  V30 7409 H 685.688 -5.33294 1.33708 0
M  V30 7410 H 686.913 -6.60489 1.57897 0
M  V30 7411 H 684.859 -6.52634 -0.663671 0
M  V30 7412 H 684.776 -7.52249 0.752163 0
M  V30 7413 H 686.044 -7.78432 -0.407825 0
M  V30 7414 N 690.273 -0.685099 -1.4193 0
M  V30 7415 C 691.221 -0.00165985 -2.326 0
M  V30 7416 C 692.215 0.779678 -1.50391 0
M  V30 7417 O 693.421 0.68648 -1.66395 0
M  V30 7418 H 689.796 0.0182616 -0.751778 0
M  V30 7419 H 691.767 -0.783592 -2.87928 0
M  V30 7420 C 690.516 0.928385 -3.35077 0
M  V30 7421 H 689.839 0.336578 -3.98381 0
M  V30 7422 H 691.279 1.37509 -4.01083 0
M  V30 7423 C 689.738 2.03964 -2.68142 0
M  V30 7424 O 690.268 3.12727 -2.5212 0
M  V30 7425 N 688.474 1.81433 -2.27003 0
M  V30 7426 H 688.021 0.929807 -2.40234 0
M  V30 7427 H 687.979 2.55973 -1.82552 0
M  V30 7428 N 691.751 1.51645 -0.429126 0
M  V30 7429 C 692.976 2.06917 0.141399 0
M  V30 7430 C 693.401 1.29527 1.36398 0
M  V30 7431 O 692.759 0.33094 1.78254 0
M  V30 7432 C 692.807 3.57776 0.4504 0
M  V30 7433 O 691.911 3.82639 1.53821 0
M  V30 7434 H 691.252 0.663978 0.0054647 0
M  V30 7435 H 693.782 1.95355 -0.608093 0
M  V30 7436 H 693.792 4.01894 0.703249 0
M  V30 7437 H 692.467 4.13532 -0.443213 0
M  V30 7438 H 691.044 3.5039 1.27597 0
M  V30 7439 N 693.229 0.160201 1.56784 0
M  V30 7440 C 694.161 -0.80564 2.14574 0
M  V30 7441 C 695.174 -1.20154 1.09849 0
M  V30 7442 O 696.363 -1.14333 1.37078 0
M  V30 7443 C 693.463 -2.09434 2.6644 0
M  V30 7444 C 692.636 -1.86375 3.95706 0
M  V30 7445 C 691.695 -2.99358 4.32749 0
M  V30 7446 O 690.721 -2.70475 5.00831 0
M  V30 7447 N 691.923 -4.26867 3.93402 0
M  V30 7448 H 694.688 -0.311644 2.98075 0
M  V30 7449 H 692.249 -0.0229465 1.61884 0
M  V30 7450 H 694.241 -2.84091 2.88226 0
M  V30 7451 H 692.811 -2.50057 1.8759 0
M  V30 7452 H 692.031 -0.956821 3.82412 0
M  V30 7453 H 693.319 -1.68322 4.80151 0
M  V30 7454 H 692.717 -4.53197 3.38569 0
M  V30 7455 H 691.274 -4.98263 4.20211 0
M  V30 7456 N 694.707 -1.5719 -0.113559 0
M  V30 7457 C 695.984 -1.76117 -0.850999 0
M  V30 7458 C 696.364 -0.737085 -1.97814 0
M  V30 7459 O 695.712 0.237942 -2.27258 0
M  V30 7460 C 695.922 -3.21298 -1.36266 0
M  V30 7461 C 697.27 -3.83955 -1.81283 0
M  V30 7462 O 698.294 -3.24934 -1.45933 0
M  V30 7463 O 697.153 -4.87707 -2.46585 0
M  V30 7464 H 694.247 -0.721308 -0.404529 0
M  V30 7465 H 696.793 -1.69423 -0.0968756 0
M  V30 7466 H 695.565 -3.87355 -0.554235 0
M  V30 7467 H 695.188 -3.32552 -2.17933 0
M  V30 7468 N 696.185 0.383891 -1.52853 0
M  V30 7469 C 697.41 1.154 -1.7233 0
M  V30 7470 C 697.835 1.82809 -0.44298 0
M  V30 7471 O 697.193 1.71026 0.601645 0
M  V30 7472 C 697.241 2.17386 -2.87708 0
M  V30 7473 O 696.345 3.24082 -2.55038 0
M  V30 7474 H 695.686 0.335709 -0.572883 0
M  V30 7475 H 698.216 0.44662 -1.99666 0
M  V30 7476 H 698.226 2.61296 -3.1335 0
M  V30 7477 H 696.901 1.6771 -3.80587 0
M  V30 7478 H 695.478 2.85273 -2.40153 0
M  V30 7479 N 697.663 1.43903 0.642637 0
M  V30 7480 C 698.94 1.36556 1.40043 0
M  V30 7481 C 699.32 0.0185588 2.11092 0
M  V30 7482 O 698.668 -0.998438 2.05532 0
M  V30 7483 C 698.878 2.55596 2.37638 0
M  V30 7484 C 700.226 2.99153 3.01318 0
M  V30 7485 O 701.25 2.55719 2.47965 0
M  V30 7486 O 700.109 3.74427 3.98078 0
M  V30 7487 H 697.203 0.540189 0.626198 0
M  V30 7488 H 699.749 1.55971 0.668657 0
M  V30 7489 H 698.521 3.45256 1.84158 0
M  V30 7490 H 698.144 2.38334 3.18249 0
M  V30 7491 N 699.141 -0.881989 1.30609 0
M  V30 7492 C 700.071 -2.00413 1.1982 0
M  V30 7493 C 701.052 -1.69871 0.0881538 0
M  V30 7494 O 702.237 -1.92304 0.2707 0
M  V30 7495 C 699.367 -3.35641 0.89233 0
M  V30 7496 C 698.321 -3.80451 1.96064 0
M  V30 7497 C 697.647 -5.13003 1.5077 0
M  V30 7498 C 698.947 -3.98855 3.37213 0
M  V30 7499 H 700.641 -2.09698 2.13699 0
M  V30 7500 H 698.187 -1.00754 1.02882 0
M  V30 7501 H 700.14 -4.13669 0.803497 0
M  V30 7502 H 698.864 -3.26497 -0.0821381 0
M  V30 7503 H 697.523 -3.04654 2.03916 0
M  V30 7504 H 697.171 -5.0029 0.521417 0
M  V30 7505 H 696.871 -5.43956 2.22229 0
M  V30 7506 H 698.395 -5.93554 1.43271 0
M  V30 7507 H 699.809 -4.67312 3.32103 0
M  V30 7508 H 698.206 -4.41188 4.06784 0
M  V30 7509 H 699.276 -3.02614 3.78883 0
M  V30 7510 N 700.619 -1.13374 -1.09472 0
M  V30 7511 C 701.566 -0.810682 -2.16094 0
M  V30 7512 C 702.536 0.227003 -1.64541 0
M  V30 7513 O 703.721 0.0993538 -1.90541 0
M  V30 7514 C 700.861 -0.282336 -3.43943 0
M  V30 7515 C 699.974 -1.37902 -4.09398 0
M  V30 7516 C 699.109 -0.809066 -5.25002 0
M  V30 7517 C 698.148 -1.88419 -5.82379 0
M  V30 7518 N 697.285 -1.33221 -6.89345 0
M  V30 7519 H 702.125 -1.72397 -2.43071 0
M  V30 7520 H 699.662 -0.860564 -1.19301 0
M  V30 7521 H 701.62 0.0421189 -4.17179 0
M  V30 7522 H 700.25 0.594083 -3.17286 0
M  V30 7523 H 699.302 -1.82008 -3.34032 0
M  V30 7524 H 700.614 -2.19161 -4.48074 0
M  V30 7525 H 699.768 -0.435867 -6.05132 0
M  V30 7526 H 698.507 0.0346058 -4.87688 0
M  V30 7527 H 697.512 -2.26646 -5.00911 0
M  V30 7528 H 698.737 -2.73125 -6.21755 0
M  V30 7529 H 696.683 -0.510535 -6.5401 0
M  V30 7530 H 696.6 -2.08129 -7.26786 0
M  V30 7531 H 697.868 -0.986565 -7.73232 0
M  V30 7532 N 702.098 1.27442 -0.927168 0
M  V30 7533 C 703.347 1.93679 -0.563146 0
M  V30 7534 C 703.66 1.73673 0.899837 0
M  V30 7535 O 704.866 2.34247 1.37262 0
M  V30 7536 C 703.322 3.46961 -0.95636 0
M  V30 7537 C 702.93 3.75724 -2.43999 0
M  V30 7538 C 704.674 4.19282 -0.663565 0
M  V30 7539 C 702.581 5.22378 -2.77263 0
M  V30 7540 H 701.511 0.725059 -0.206894 0
M  V30 7541 H 704.162 1.44743 -1.12791 0
M  V30 7542 H 702.544 3.94703 -0.320254 0
M  V30 7543 H 703.718 3.38741 -3.12396 0
M  V30 7544 H 702.033 3.16605 -2.70463 0
M  V30 7545 H 704.63 5.27265 -0.888596 0
M  V30 7546 H 704.973 4.14382 0.399198 0
M  V30 7547 H 705.506 3.7736 -1.25875 0
M  V30 7548 H 702.245 5.32367 -3.82446 0
M  V30 7549 H 701.765 5.6051 -2.13516 0
M  V30 7550 H 703.444 5.9025 -2.64979 0
M  V30 7551 N 703.576 0.692616 1.41565 0
M  V30 7552 C 704.523 0.0254264 2.30786 0
M  V30 7553 C 705.493 -0.774347 1.46946 0
M  V30 7554 O 706.678 -0.742981 1.7574 0
M  V30 7555 C 703.818 -0.907123 3.32964 0
M  V30 7556 C 702.931 -0.0992784 4.31886 0
M  V30 7557 C 702.066 -1.0292 5.21134 0
M  V30 7558 C 701.105 -0.214088 6.11725 0
M  V30 7559 N 700.242 -1.09766 6.93467 0
M  V30 7560 H 705.082 0.792036 2.87282 0
M  V30 7561 H 702.619 0.4023 1.41492 0
M  V30 7562 H 704.577 -1.46181 3.90752 0
M  V30 7563 H 703.207 -1.64016 2.78026 0
M  V30 7564 H 702.259 0.572287 3.76071 0
M  V30 7565 H 703.571 0.532782 4.95946 0
M  V30 7566 H 702.725 -1.65321 5.83741 0
M  V30 7567 H 701.464 -1.69512 4.57293 0
M  V30 7568 H 700.469 0.42302 5.4817 0
M  V30 7569 H 701.694 0.447995 6.77621 0
M  V30 7570 H 699.64 -1.74965 6.32237 0
M  V30 7571 H 699.557 -0.521099 7.54202 0
M  V30 7572 H 700.825 -1.70858 7.60544 0
M  V30 7573 N 705.054 -1.51416 0.437162 0
M  V30 7574 C 705.984 -2.30631 -0.364922 0
M  V30 7575 C 706.965 -1.36037 -1.02118 0
M  V30 7576 O 708.15 -1.64956 -1.02485 0
M  V30 7577 C 705.28 -3.1482 -1.46648 0
M  V30 7578 C 704.234 -4.17691 -0.933717 0
M  V30 7579 C 703.56 -4.904 -2.13101 0
M  V30 7580 C 704.86 -5.2229 0.0317201 0
M  V30 7581 H 706.554 -2.97932 0.29614 0
M  V30 7582 H 704.1 -1.4328 0.143865 0
M  V30 7583 H 706.053 -3.69017 -2.03481 0
M  V30 7584 H 704.777 -2.4534 -2.15583 0
M  V30 7585 H 703.436 -3.64545 -0.387602 0
M  V30 7586 H 703.084 -4.17423 -2.80654 0
M  V30 7587 H 702.784 -5.59962 -1.78092 0
M  V30 7588 H 704.308 -5.4742 -2.70487 0
M  V30 7589 H 705.722 -5.7156 -0.446302 0
M  V30 7590 H 704.119 -5.99378 0.29437 0
M  V30 7591 H 705.189 -4.75131 0.968447 0
M  V30 7592 N 706.532 -0.168513 -1.56696 0
M  V30 7593 C 707.495 0.748928 -2.16619 0
M  V30 7594 C 708.495 1.16007 -1.11351 0
M  V30 7595 O 709.685 1.07748 -1.3688 0
M  V30 7596 C 706.817 2.01904 -2.74677 0
M  V30 7597 H 708.01 0.227317 -2.99037 0
M  V30 7598 H 705.563 0.0810372 -1.5609 0
M  V30 7599 H 706.298 2.58381 -1.95985 0
M  V30 7600 H 706.083 1.73323 -3.51712 0
M  V30 7601 H 707.573 2.67383 -3.20774 0
M  V30 7602 N 708.01 1.57248 0.105221 0
M  V30 7603 C 709.256 1.85845 0.811753 0
M  V30 7604 C 709.589 0.756219 1.78871 0
M  V30 7605 O 708.864 -0.236736 1.93054 0
M  V30 7606 C 709.147 3.25059 1.54947 0
M  V30 7607 C 709 4.45898 0.591185 0
M  V30 7608 C 710.319 3.6203 2.50245 0
M  V30 7609 H 707.438 0.675973 0.293649 0
M  V30 7610 H 710.08 1.89849 0.0756269 0
M  V30 7611 H 708.23 3.21776 2.17698 0
M  V30 7612 H 709.902 4.61291 -0.0285352 0
M  V30 7613 H 708.145 4.33693 -0.0962343 0
M  V30 7614 H 708.816 5.40009 1.1443 0
M  V30 7615 H 711.292 3.66192 1.97593 0
M  V30 7616 H 710.168 4.60389 2.98886 0
M  V30 7617 H 710.429 2.90176 3.33542 0
M  V30 7618 N 709.488 -0.375779 1.53054 0
M  V30 7619 C 710.904 -0.716764 1.426 0
M  V30 7620 C 711.104 -1.93651 0.556931 0
M  V30 7621 O 710.16 -2.52475 0.0354461 0
M  V30 7622 C 711.473 -0.939499 2.85646 0
M  V30 7623 C 713.021 -1.04015 2.95212 0
M  V30 7624 C 713.496 -1.29543 4.39298 0
M  V30 7625 N 714.987 -1.36335 4.42682 0
M  V30 7626 C 715.722 -1.57778 5.51266 0
M  V30 7627 N 715.218 -1.76604 6.69913 0
M  V30 7628 N 717.011 -1.60065 5.38828 0
M  V30 7629 H 709.162 0.42664 2.08071 0
M  V30 7630 H 711.425 0.128758 0.939215 0
M  V30 7631 H 711.131 -0.115189 3.51511 0
M  V30 7632 H 711.005 -1.85048 3.2869 0
M  V30 7633 H 713.392 -1.85501 2.29507 0
M  V30 7634 H 713.473 -0.106785 2.55577 0
M  V30 7635 H 713.117 -0.485611 5.05573 0
M  V30 7636 H 713.047 -2.24184 4.76497 0
M  V30 7637 H 715.538 -1.23441 3.5717 0
M  V30 7638 H 715.851 -1.9251 7.48438 0
M  V30 7639 H 714.196 -1.73802 6.72917 0
M  V30 7640 H 717.387 -1.44917 4.45103 0
M  V30 7641 H 717.56 -1.76435 6.23518 0
M  V30 7642 N 710.966 -1.44241 -0.634997 0
M  V30 7643 C 711.899 -1.45274 -1.75985 0
M  V30 7644 C 712.877 -0.312025 -1.59578 0
M  V30 7645 O 714.061 -0.508409 -1.81514 0
M  V30 7646 C 711.188 -1.28173 -3.13511 0
M  V30 7647 C 710.234 -2.45757 -3.48576 0
M  V30 7648 S 711.067 -4.08293 -3.46492 0
M  V30 7649 C 712.223 -3.93608 -4.86645 0
M  V30 7650 H 712.456 -2.40454 -1.74841 0
M  V30 7651 H 709.989 -1.31492 -0.809268 0
M  V30 7652 H 711.947 -1.18993 -3.92875 0
M  V30 7653 H 710.608 -0.34511 -3.12198 0
M  V30 7654 H 709.801 -2.29644 -4.48642 0
M  V30 7655 H 709.403 -2.51657 -2.76667 0
M  V30 7656 H 711.695 -3.57059 -5.75774 0
M  V30 7657 H 712.638 -4.9349 -5.07813 0
M  V30 7658 H 713.046 -3.25737 -4.61038 0
M  V30 7659 N 712.444 0.87505 -1.31075 0
M  V30 7660 C 713.721 1.60976 -1.11113 0
M  V30 7661 C 714.101 2.08409 0.336006 0
M  V30 7662 O 713.449 1.85858 1.32924 0
M  V30 7663 C 713.659 2.77166 -2.12085 0
M  V30 7664 C 715.007 3.47254 -2.44335 0
M  V30 7665 O 716.031 2.87367 -2.10472 0
M  V30 7666 O 714.89 4.55276 -3.02301 0
M  V30 7667 H 711.984 0.707982 -0.427424 0
M  V30 7668 H 714.53 0.920957 -1.42536 0
M  V30 7669 H 713.302 2.39494 -3.09449 0
M  V30 7670 H 712.925 3.53737 -1.81538 0
M  V30 7671 N 713.922 1.13953 1.08869 0
M  V30 7672 C 714.869 0.82213 2.15661 0
M  V30 7673 C 715.839 -0.218274 1.6466 0
M  V30 7674 O 717.024 -0.0892475 1.90591 0
M  V30 7675 C 714.164 0.300572 3.43789 0
M  V30 7676 C 713.277 1.40071 4.08661 0
M  V30 7677 C 712.412 0.836897 5.24566 0
M  V30 7678 C 711.451 1.91504 5.81371 0
M  V30 7679 N 710.588 1.36875 6.88629 0
M  V30 7680 H 715.428 1.73683 2.42153 0
M  V30 7681 H 712.965 0.866879 1.18843 0
M  V30 7682 H 714.923 -0.0199943 4.17195 0
M  V30 7683 H 713.553 -0.577248 3.17597 0
M  V30 7684 H 712.605 1.83776 3.33062 0
M  V30 7685 H 713.917 2.21534 4.46905 0
M  V30 7686 H 713.071 0.467953 6.04893 0
M  V30 7687 H 711.81 -0.00874207 4.87699 0
M  V30 7688 H 710.815 2.29299 4.99702 0
M  V30 7689 H 712.04 2.76419 6.20298 0
M  V30 7690 H 709.986 0.545211 6.5373 0
M  V30 7691 H 709.903 2.1198 7.25672 0
M  V30 7692 H 711.171 1.02756 7.72698 0
M  V30 7693 N 715.4 -1.26948 0.933913 0
M  V30 7694 C 716.811 -1.76058 0.621324 0
M  V30 7695 C 717.162 -1.76175 -0.863522 0
M  V30 7696 O 716.287 -1.36921 -1.67576 0
M  V30 7697 C 716.882 -3.19713 1.12111 0
M  V30 7698 C 715.441 -3.66465 0.859074 0
M  V30 7699 C 714.588 -2.46186 1.27624 0
M  V30 7700 H 717.539 -1.13127 1.11301 0
M  V30 7701 H 717.56 -3.77566 0.471608 0
M  V30 7702 H 717.072 -3.19596 2.20182 0
M  V30 7703 H 715.173 -3.72021 -0.207566 0
M  V30 7704 H 715.286 -4.55636 1.48098 0
M  V30 7705 H 713.65 -2.45042 0.694727 0
M  V30 7706 H 714.433 -2.48774 2.36572 0
M  V30 7707 N 716.879 -0.700114 -1.41195 0
M  V30 7708 C 717.842 -0.0465706 -2.29153 0
M  V30 7709 C 718.842 0.703302 -1.44604 0
M  V30 7710 O 720.032 0.537513 -1.657 0
M  V30 7711 C 717.164 0.944324 -3.2756 0
M  V30 7712 H 718.357 -0.821064 -2.88442 0
M  V30 7713 H 715.91 -0.463869 -1.49258 0
M  V30 7714 H 716.645 1.74642 -2.73259 0
M  V30 7715 H 716.43 0.409701 -3.89954 0
M  V30 7716 H 717.92 1.39925 -3.9346 0
M  V30 7717 N 718.357 1.51182 -0.445186 0
M  V30 7718 C 719.307 2.24804 0.380394 0
M  V30 7719 C 720.291 1.27344 0.983482 0
M  V30 7720 O 721.483 1.52392 0.900322 0
M  V30 7721 C 718.612 3.09922 1.4766 0
M  V30 7722 C 717.698 4.14816 0.882517 0
M  V30 7723 N 718.089 5.05797 0.0183278 0
M  V30 7724 C 716.387 4.30938 1.14927 0
M  V30 7725 C 717.088 5.8084 -0.316152 0
M  V30 7726 N 716.064 5.42759 0.302214 0
M  V30 7727 H 719.866 2.92508 -0.285737 0
M  V30 7728 H 717.38 1.60342 -0.257733 0
M  V30 7729 H 719.377 3.61249 2.08098 0
M  V30 7730 H 718.037 2.43763 2.14498 0
M  V30 7731 H 719.048 5.16725 -0.348679 0
M  V30 7732 H 715.725 3.76005 1.81457 0
M  V30 7733 H 717.115 6.64115 -1.01986 0
M  V30 7734 N 719.835 0.176821 1.56605 0
M  V30 7735 C 720.768 -0.790135 2.14084 0
M  V30 7736 C 721.746 -1.22219 1.07244 0
M  V30 7737 O 722.93 -1.31298 1.35252 0
M  V30 7738 C 720.057 -2.06475 2.68488 0
M  V30 7739 C 719.103 -1.77628 3.87751 0
M  V30 7740 S 719.936 -0.940612 5.27174 0
M  V30 7741 C 721.092 -2.22577 5.84988 0
M  V30 7742 H 721.325 -0.30144 2.95768 0
M  V30 7743 H 718.858 -0.0379279 1.54353 0
M  V30 7744 H 720.816 -2.79683 3.00479 0
M  V30 7745 H 719.477 -2.52457 1.8688 0
M  V30 7746 H 718.67 -2.72215 4.24164 0
M  V30 7747 H 718.272 -1.12512 3.56675 0
M  V30 7748 H 720.564 -3.17992 5.98237 0
M  V30 7749 H 721.507 -1.90624 6.81959 0
M  V30 7750 H 721.915 -2.34588 5.13448 0
M  V30 7751 N 721.313 -1.57302 -0.09688 0
M  V30 7752 C 722.26 -2.01933 -1.11766 0
M  V30 7753 C 723.23 -0.895329 -1.39904 0
M  V30 7754 O 724.415 -1.16119 -1.51397 0
M  V30 7755 C 721.555 -2.44726 -2.43317 0
M  V30 7756 C 720.668 -3.70639 -2.21925 0
M  V30 7757 C 719.803 -4.02318 -3.46862 0
M  V30 7758 C 718.842 -5.21346 -3.20725 0
M  V30 7759 N 717.979 -5.48787 -4.37924 0
M  V30 7760 H 722.819 -2.88919 -0.730075 0
M  V30 7761 H 720.356 -1.42901 -0.348962 0
M  V30 7762 H 722.314 -2.6758 -3.20088 0
M  V30 7763 H 720.944 -1.60753 -2.79926 0
M  V30 7764 H 719.996 -3.55271 -1.35965 0
M  V30 7765 H 721.308 -4.57557 -1.98603 0
M  V30 7766 H 720.462 -4.25939 -4.32042 0
M  V30 7767 H 719.201 -3.13918 -3.73238 0
M  V30 7768 H 718.206 -4.97547 -2.33938 0
M  V30 7769 H 719.431 -6.11343 -2.95697 0
M  V30 7770 H 717.377 -4.63346 -4.64378 0
M  V30 7771 H 717.294 -6.30073 -4.17785 0
M  V30 7772 H 718.562 -5.76943 -5.24173 0
M  V30 7773 N 722.791 0.367657 -1.53252 0
M  V30 7774 C 723.741 1.45035 -1.75923 0
M  V30 7775 C 724.725 1.48736 -0.613719 0
M  V30 7776 O 725.917 1.54012 -0.872313 0
M  V30 7777 C 723.046 2.82493 -1.9507 0
M  V30 7778 C 722.132 2.83279 -3.15617 0
M  V30 7779 N 722.523 2.53712 -4.37566 0
M  V30 7780 C 720.821 3.1444 -3.16297 0
M  V30 7781 C 721.522 2.62123 -5.19294 0
M  V30 7782 N 720.498 2.96747 -4.55458 0
M  V30 7783 H 724.3 1.21035 -2.6782 0
M  V30 7784 H 721.814 0.575822 -1.51849 0
M  V30 7785 H 723.811 3.60473 -2.0944 0
M  V30 7786 H 722.471 3.07459 -1.044 0
M  V30 7787 H 723.482 2.27344 -4.65333 0
M  V30 7788 H 720.159 3.44733 -2.35511 0
M  V30 7789 H 721.549 2.42628 -6.26563 0
M  V30 7790 N 724.269 1.44576 0.627338 0
M  V30 7791 C 725.494 1.51271 1.41887 0
M  V30 7792 C 725.919 0.139814 1.8758 0
M  V30 7793 O 725.277 -0.871746 1.58966 0
M  V30 7794 C 725.325 2.48529 2.61277 0
M  V30 7795 O 724.429 1.98944 3.61241 0
M  V30 7796 H 723.77 0.510668 0.424399 0
M  V30 7797 H 726.3 1.89746 0.765356 0
M  V30 7798 H 726.31 2.66689 3.08773 0
M  V30 7799 H 724.985 3.48249 2.27366 0
M  V30 7800 H 723.562 1.90568 3.20528 0
M  V30 7801 N 725.747 -0.868086 1.31537 0
M  V30 7802 C 726.995 -1.61807 1.21091 0
M  V30 7803 C 727.316 -1.93631 -0.230623 0
M  V30 7804 O 726.586 -1.5846 -1.15183 0
M  V30 7805 H 725.166 -0.599854 0.445178 0
M  V30 7806 H 727.828 -1.03915 1.64887 0
M  V30 7807 H 726.924 -2.56088 1.78396 0
M  V30 7808 N 727.225 -1.14528 -1.08264 0
M  V30 7809 C 728.455 -0.936604 -1.8415 0
M  V30 7810 C 728.863 0.518298 -1.81962 0
M  V30 7811 O 728.206 1.37096 -1.22272 0
M  V30 7812 C 728.268 -1.36182 -3.32708 0
M  V30 7813 C 727.932 -2.83257 -3.58629 0
M  V30 7814 C 728.929 -3.81366 -3.5335 0
M  V30 7815 C 726.614 -3.20704 -3.86593 0
M  V30 7816 C 728.608 -5.14929 -3.75668 0
M  V30 7817 C 726.295 -4.54443 -4.08564 0
M  V30 7818 C 727.293 -5.51365 -4.03095 0
M  V30 7819 O 726.981 -6.8269 -4.24488 0
M  V30 7820 H 726.713 -0.333254 -0.588148 0
M  V30 7821 H 729.267 -1.5247 -1.3763 0
M  V30 7822 H 727.497 -0.717063 -3.79994 0
M  V30 7823 H 729.186 -1.12372 -3.90035 0
M  V30 7824 H 729.952 -3.53781 -3.31759 0
M  V30 7825 H 725.831 -2.45857 -3.89969 0
M  V30 7826 H 729.375 -5.90568 -3.71315 0
M  V30 7827 H 725.272 -4.81747 -4.29639 0
M  V30 7828 H 726.04 -6.8897 -4.41886 0
M  V30 7829 N 728.703 1.26451 -0.940633 0
M  V30 7830 C 729.633 2.28773 -0.467479 0
M  V30 7831 C 730.614 1.63218 0.478955 0
M  V30 7832 O 731.799 1.90427 0.380929 0
M  V30 7833 C 728.929 3.46259 0.268656 0
M  V30 7834 C 727.883 4.23898 -0.591171 0
M  V30 7835 C 727.209 5.33993 0.274891 0
M  V30 7836 C 728.509 4.87974 -1.86223 0
M  V30 7837 H 730.203 2.68601 -1.32265 0
M  V30 7838 H 727.749 1.29123 -0.637436 0
M  V30 7839 H 729.702 4.16951 0.610696 0
M  V30 7840 H 728.426 3.05383 1.15796 0
M  V30 7841 H 727.085 3.54969 -0.916098 0
M  V30 7842 H 726.733 4.89358 1.16353 0
M  V30 7843 H 726.433 5.86849 -0.297006 0
M  V30 7844 H 727.957 6.07523 0.612213 0
M  V30 7845 H 729.371 5.50883 -1.58747 0
M  V30 7846 H 727.768 5.50945 -2.37866 0
M  V30 7847 H 728.838 4.10945 -2.57394 0
M  V30 7848 N 730.181 0.707592 1.40822 0
M  V30 7849 C 731.411 0.252706 2.05049 0
M  V30 7850 C 731.819 -1.10758 1.53393 0
M  V30 7851 O 731.162 -1.70567 0.682097 0
M  V30 7852 C 731.224 0.146001 3.59203 0
M  V30 7853 C 730.888 1.44027 4.33711 0
M  V30 7854 C 731.885 2.38058 4.62195 0
M  V30 7855 C 729.57 1.69698 4.72766 0
M  V30 7856 C 731.564 3.56013 5.28709 0
M  V30 7857 C 729.251 2.87936 5.39014 0
M  V30 7858 C 730.249 3.80915 5.66915 0
M  V30 7859 O 729.937 4.9708 6.31796 0
M  V30 7860 H 729.669 0.112784 0.666525 0
M  V30 7861 H 732.223 0.96417 1.81364 0
M  V30 7862 H 730.453 -0.621338 3.81676 0
M  V30 7863 H 732.142 -0.273275 4.04979 0
M  V30 7864 H 732.908 2.19487 4.32493 0
M  V30 7865 H 728.787 0.981835 4.50423 0
M  V30 7866 H 732.331 4.28604 5.50404 0
M  V30 7867 H 728.228 3.06419 5.68135 0
M  V30 7868 H 728.996 4.97053 6.50293 0
M  V30 7869 N 731.66 -1.50943 0.453197 0
M  V30 7870 C 732.623 -2.26684 -0.338705 0
M  V30 7871 C 733.623 -1.30748 -0.936032 0
M  V30 7872 O 734.813 -1.54327 -0.808002 0
M  V30 7873 C 731.945 -3.07063 -1.48071 0
M  V30 7874 H 733.138 -2.98131 0.325289 0
M  V30 7875 H 730.691 -1.54926 0.206771 0
M  V30 7876 H 731.426 -2.4007 -2.18029 0
M  V30 7877 H 731.211 -3.77545 -1.0584 0
M  V30 7878 H 732.701 -3.64393 -2.0398 0
M  V30 7879 N 733.138 -0.185124 -1.56509 0
M  V30 7880 C 734.068 0.735098 -2.21627 0
M  V30 7881 C 735.049 1.2288 -1.1762 0
M  V30 7882 O 736.234 1.27945 -1.46095 0
M  V30 7883 C 733.364 1.95889 -2.86783 0
M  V30 7884 C 732.318 1.6005 -3.96948 0
M  V30 7885 C 731.644 2.90009 -4.4922 0
M  V30 7886 C 732.944 0.818008 -5.15855 0
M  V30 7887 H 734.638 0.192274 -2.98782 0
M  V30 7888 H 732.184 0.0910393 -1.43712 0
M  V30 7889 H 734.137 2.60779 -3.31017 0
M  V30 7890 H 732.861 2.52608 -2.07018 0
M  V30 7891 H 731.52 0.975237 -3.5339 0
M  V30 7892 H 731.168 3.44797 -3.6623 0
M  V30 7893 H 730.868 2.66778 -5.23549 0
M  V30 7894 H 732.392 3.55904 -4.9615 0
M  V30 7895 H 733.806 1.36979 -5.56695 0
M  V30 7896 H 732.203 0.684207 -5.96187 0
M  V30 7897 H 733.273 -0.182939 -4.84555 0
M  V30 7898 N 734.616 1.57351 0.0885366 0
M  V30 7899 C 735.864 1.86051 0.789262 0
M  V30 7900 C 736.185 0.774763 1.78948 0
M  V30 7901 O 735.455 -0.198324 1.94894 0
M  V30 7902 H 734.035 0.686508 0.294475 0
M  V30 7903 H 736.697 1.94779 0.0686055 0
M  V30 7904 H 735.793 2.83007 1.31581 0
M  V30 7905 N 736.094 -0.359525 1.53444 0
M  V30 7906 C 737.026 -1.46098 1.76602 0
M  V30 7907 C 738.039 -1.49395 0.646912 0
M  V30 7908 O 739.228 -1.52765 0.923307 0
M  V30 7909 C 736.328 -2.84836 1.83635 0
M  V30 7910 C 735.501 -3.05164 3.13358 0
M  V30 7911 C 734.56 -4.24051 3.11556 0
M  V30 7912 O 733.586 -4.18935 3.85334 0
M  V30 7913 N 734.788 -5.31775 2.328 0
M  V30 7914 H 737.553 -1.2661 2.71643 0
M  V30 7915 H 735.114 -0.549294 1.52297 0
M  V30 7916 H 737.106 -3.62516 1.799 0
M  V30 7917 H 735.676 -2.97542 0.958509 0
M  V30 7918 H 734.896 -2.15091 3.30348 0
M  V30 7919 H 736.184 -3.15619 3.99076 0
M  V30 7920 H 735.582 -5.38796 1.7238 0
M  V30 7921 H 734.139 -6.0801 2.34877 0
M  V30 7922 N 737.572 -1.44907 -0.619662 0
M  V30 7923 C 738.519 -1.52654 -1.73105 0
M  V30 7924 C 739.489 -0.373334 -1.6185 0
M  V30 7925 O 740.674 -0.585143 -1.81606 0
M  V30 7926 C 737.814 -1.48769 -3.11387 0
M  V30 7927 C 736.927 -2.74551 -3.33535 0
M  V30 7928 C 736.062 -2.62421 -4.61854 0
M  V30 7929 C 735.101 -3.83312 -4.77219 0
M  V30 7930 N 734.238 -3.69789 -5.96826 0
M  V30 7931 H 739.078 -2.47605 -1.65819 0
M  V30 7932 H 736.615 -1.22875 -0.808719 0
M  V30 7933 H 738.573 -1.44507 -3.91374 0
M  V30 7934 H 737.203 -0.573783 -3.1766 0
M  V30 7935 H 736.255 -2.88953 -2.47408 0
M  V30 7936 H 737.567 -3.64253 -3.40765 0
M  V30 7937 H 736.721 -2.56056 -5.50019 0
M  V30 7938 H 735.46 -1.70298 -4.57001 0
M  V30 7939 H 734.465 -3.90049 -3.87481 0
M  V30 7940 H 735.69 -4.76486 -4.83878 0
M  V30 7941 H 733.636 -2.80426 -5.93041 0
M  V30 7942 H 733.553 -4.53116 -6.05163 0
M  V30 7943 H 734.821 -3.67335 -6.87521 0
M  V30 7944 N 739.05 0.861098 -1.31996 0
M  V30 7945 C 740.296 1.61721 -1.22369 0
M  V30 7946 C 740.629 1.93 0.215587 0
M  V30 7947 O 739.904 1.56789 1.15098 0
M  V30 7948 C 740.187 2.9417 -2.07691 0
M  V30 7949 C 740.04 2.69714 -3.59965 0
M  V30 7950 C 741.359 3.95372 -1.93312 0
M  V30 7951 H 738.478 0.586822 -0.44588 0
M  V30 7952 H 741.12 0.994788 -1.61876 0
M  V30 7953 H 739.27 3.47292 -1.74128 0
M  V30 7954 H 740.942 2.23196 -4.03709 0
M  V30 7955 H 739.185 2.03789 -3.82952 0
M  V30 7956 H 739.856 3.63996 -4.14983 0
M  V30 7957 H 742.332 3.51487 -2.22701 0
M  V30 7958 H 741.208 4.85916 -2.55298 0
M  V30 7959 H 741.469 4.32865 -0.898922 0
M  V30 7960 N 740.528 1.15101 1.07655 0
M  V30 7961 C 741.774 0.935313 1.8062 0
M  V30 7962 C 742.129 -0.532052 1.84897 0
M  V30 7963 O 741.422 -1.3893 1.31943 0
M  V30 7964 C 741.616 1.47954 3.25337 0
M  V30 7965 C 741.445 2.99829 3.35161 0
M  V30 7966 C 740.215 3.68348 3.45902 0
M  V30 7967 C 742.413 3.97638 3.26173 0
M  V30 7968 N 740.395 5.08062 3.44596 0
M  V30 7969 C 741.766 5.23651 3.31949 0
M  V30 7970 C 743.821 3.89651 3.09962 0
M  V30 7971 C 742.524 6.42609 3.23182 0
M  V30 7972 C 744.55 5.08164 3.02528 0
M  V30 7973 C 743.912 6.3305 3.08913 0
M  V30 7974 H 740.011 0.395876 0.674393 0
M  V30 7975 H 742.595 1.4625 1.28526 0
M  V30 7976 H 740.766 0.979022 3.75859 0
M  V30 7977 H 742.498 1.20298 3.86407 0
M  V30 7978 H 739.253 3.18928 3.50117 0
M  V30 7979 H 739.677 5.81023 3.47479 0
M  V30 7980 H 744.319 2.93966 3.03881 0
M  V30 7981 H 742.037 7.38531 3.28022 0
M  V30 7982 H 745.623 5.03742 2.91093 0
M  V30 7983 H 744.503 7.23214 3.03201 0
M  V30 7984 N 742.006 -1.2595 0.947325 0
M  V30 7985 C 742.953 -2.26159 0.460497 0
M  V30 7986 C 743.923 -1.58919 -0.483125 0
M  V30 7987 O 745.108 -1.86603 -0.397983 0
M  V30 7988 C 742.248 -3.441 -0.26247 0
M  V30 7989 C 741.361 -4.25999 0.717539 0
M  V30 7990 C 740.496 -5.31193 -0.0272486 0
M  V30 7991 C 739.535 -6.04774 0.944177 0
M  V30 7992 N 738.672 -7.01721 0.230741 0
M  V30 7993 H 743.512 -2.67173 1.31995 0
M  V30 7994 H 741.049 -1.31358 0.662088 0
M  V30 7995 H 743.007 -4.11317 -0.698137 0
M  V30 7996 H 741.637 -3.03983 -1.08602 0
M  V30 7997 H 740.689 -3.58513 1.27171 0
M  V30 7998 H 742.001 -4.76981 1.45913 0
M  V30 7999 H 741.155 -6.04451 -0.521903 0
M  V30 8000 H 739.894 -4.81066 -0.801682 0
M  V30 8001 H 738.899 -5.30338 1.4499 0
M  V30 8002 H 740.124 -6.56991 1.71872 0
M  V30 8003 H 738.07 -6.53895 -0.525088 0
M  V30 8004 H 737.987 -7.50484 0.911556 0
M  V30 8005 H 739.255 -7.79122 -0.242616 0
M  V30 8006 N 743.484 -0.715051 -1.40445 0
M  V30 8007 C 744.9 -0.388555 -1.54798 0
M  V30 8008 C 745.1 1.10271 -1.68649 0
M  V30 8009 O 744.156 1.88875 -1.67578 0
M  V30 8010 C 745.469 -1.15414 -2.77669 0
M  V30 8011 C 747.017 -1.14039 -2.91486 0
M  V30 8012 C 747.492 -1.88812 -4.1727 0
M  V30 8013 N 748.983 -1.85878 -4.24268 0
M  V30 8014 C 749.718 -2.40558 -5.20499 0
M  V30 8015 N 749.214 -3.03791 -6.22642 0
M  V30 8016 N 751.007 -2.30703 -5.12574 0
M  V30 8017 H 743.158 -1.68201 -1.297 0
M  V30 8018 H 745.421 -0.710915 -0.627139 0
M  V30 8019 H 745.127 -2.20853 -2.7371 0
M  V30 8020 H 745.001 -0.745412 -3.69761 0
M  V30 8021 H 747.388 -0.0941996 -2.9495 0
M  V30 8022 H 747.469 -1.58834 -2.00513 0
M  V30 8023 H 747.113 -2.93422 -4.14568 0
M  V30 8024 H 747.043 -1.41438 -5.0725 0
M  V30 8025 H 749.534 -1.39794 -3.51093 0
M  V30 8026 H 749.847 -3.43032 -6.92495 0
M  V30 8027 H 748.192 -3.07875 -6.23087 0
M  V30 8028 H 751.383 -1.80961 -4.31707 0
M  V30 8029 H 751.556 -2.73618 -5.87398 0
M  V30 8030 N 744.962 1.50701 -0.461195 0
M  V30 8031 C 746.208 2.03203 0.0895017 0
M  V30 8032 C 746.563 1.33768 1.38289 0
M  V30 8033 O 745.856 0.451304 1.86209 0
M  V30 8034 C 746.05 3.55788 0.33908 0
M  V30 8035 C 745.879 4.40009 -0.928571 0
M  V30 8036 C 744.649 4.83475 -1.46903 0
M  V30 8037 C 746.847 4.80972 -1.82129 0
M  V30 8038 N 744.829 5.51985 -2.68673 0
M  V30 8039 C 746.2 5.48792 -2.88491 0
M  V30 8040 C 748.255 4.62937 -1.83285 0
M  V30 8041 C 746.958 6.00489 -3.95987 0
M  V30 8042 C 748.984 5.15568 -2.89731 0
M  V30 8043 C 748.346 5.83355 -3.94812 0
M  V30 8044 H 744.445 0.781968 -0.00702462 0
M  V30 8045 H 747.029 1.84321 -0.627195 0
M  V30 8046 H 745.2 3.74636 1.02481 0
M  V30 8047 H 746.932 3.94944 0.883242 0
M  V30 8048 H 743.687 4.62495 -1.01959 0
M  V30 8049 H 744.111 5.90854 -3.30486 0
M  V30 8050 H 748.753 4.0997 -1.03366 0
M  V30 8051 H 746.471 6.52499 -4.7673 0
M  V30 8052 H 750.057 5.0345 -2.91597 0
M  V30 8053 H 748.937 6.23347 -4.75824 0
M  V30 8054 N 746.441 0.193421 1.56409 0
M  V30 8055 C 747.388 -0.728124 2.19014 0
M  V30 8056 C 748.358 -1.21098 1.13686 0
M  V30 8057 O 749.543 -1.27517 1.4193 0
M  V30 8058 C 746.683 -1.94277 2.8522 0
M  V30 8059 C 745.796 -1.50143 4.05069 0
M  V30 8060 C 744.931 -2.67145 4.59137 0
M  V30 8061 C 743.97 -2.19609 5.71348 0
M  V30 8062 N 743.107 -3.29782 6.19829 0
M  V30 8063 H 747.947 -0.187499 2.9741 0
M  V30 8064 H 745.484 -0.0808064 1.46878 0
M  V30 8065 H 747.442 -2.65551 3.21774 0
M  V30 8066 H 746.072 -2.45673 2.09391 0
M  V30 8067 H 745.124 -0.684624 3.74189 0
M  V30 8068 H 746.436 -1.11266 4.86232 0
M  V30 8069 H 745.59 -3.46544 4.97988 0
M  V30 8070 H 744.329 -3.09295 3.77078 0
M  V30 8071 H 743.334 -1.38664 5.32027 0
M  V30 8072 H 744.559 -1.78492 6.55223 0
M  V30 8073 H 742.505 -3.71466 5.40693 0
M  V30 8074 H 742.422 -2.95069 6.96039 0
M  V30 8075 H 743.69 -4.094 6.63334 0
M  V30 8076 N 747.919 -1.57396 -0.0801906 0
M  V30 8077 C 748.866 -2.03107 -1.09618 0
M  V30 8078 C 749.836 -0.910118 -1.38946 0
M  V30 8079 O 751.021 -1.17719 -1.50156 0
M  V30 8080 C 748.161 -2.47293 -2.40708 0
M  V30 8081 C 747.274 -3.72972 -2.17982 0
M  V30 8082 C 746.409 -4.05975 -3.42576 0
M  V30 8083 C 745.448 -5.24719 -3.15177 0
M  V30 8084 N 744.585 -5.53401 -4.32078 0
M  V30 8085 H 749.425 -2.89677 -0.69939 0
M  V30 8086 H 746.962 -1.43263 -0.333785 0
M  V30 8087 H 748.92 -2.7096 -3.17232 0
M  V30 8088 H 747.55 -1.63713 -2.78205 0
M  V30 8089 H 746.602 -3.56693 -1.32189 0
M  V30 8090 H 747.914 -4.59638 -1.93738 0
M  V30 8091 H 747.068 -4.30498 -4.275 0
M  V30 8092 H 745.807 -3.17859 -3.69887 0
M  V30 8093 H 744.812 -5 -2.28648 0
M  V30 8094 H 746.037 -6.14445 -2.89197 0
M  V30 8095 H 743.983 -4.68245 -4.59437 0
M  V30 8096 H 743.9 -6.34469 -4.11078 0
M  V30 8097 H 745.168 -5.8247 -5.18024 0
M  V30 8098 N 749.397 0.351382 -1.53633 0
M  V30 8099 C 750.813 0.693987 -1.43722 0
M  V30 8100 C 751.013 1.9274 -0.587669 0
M  V30 8101 O 750.069 2.52387 -0.0756082 0
M  V30 8102 C 751.382 0.893937 -2.87105 0
M  V30 8103 C 752.93 0.993051 -2.96829 0
M  V30 8104 C 753.405 1.22537 -4.41303 0
M  V30 8105 N 754.896 1.29275 -4.44795 0
M  V30 8106 C 755.631 1.48988 -5.53706 0
M  V30 8107 N 755.127 1.65924 -6.72637 0
M  V30 8108 N 756.92 1.51472 -5.41306 0
M  V30 8109 H 749.071 -0.459688 -2.07366 0
M  V30 8110 H 751.334 -0.143684 -0.937048 0
M  V30 8111 H 751.04 0.0592517 -3.5165 0
M  V30 8112 H 750.914 1.79795 -3.31592 0
M  V30 8113 H 753.301 1.81827 -2.32429 0
M  V30 8114 H 753.382 0.0661119 -2.55715 0
M  V30 8115 H 753.026 0.405117 -5.06282 0
M  V30 8116 H 752.956 2.16575 -4.80003 0
M  V30 8117 H 755.447 1.17743 -3.59089 0
M  V30 8118 H 755.76 1.80578 -7.51406 0
M  V30 8119 H 754.105 1.63075 -6.75597 0
M  V30 8120 H 757.296 1.37818 -4.47352 0
M  V30 8121 H 757.469 1.66493 -6.26246 0
M  V30 8122 N 750.875 1.45233 0.611969 0
M  V30 8123 C 752.105 1.52318 1.39581 0
M  V30 8124 C 752.513 0.153093 1.8858 0
M  V30 8125 O 751.856 -0.854792 1.62601 0
M  V30 8126 C 751.918 2.4426 2.63775 0
M  V30 8127 C 751.582 3.91079 2.36445 0
M  V30 8128 C 752.579 4.81099 1.97079 0
M  V30 8129 C 750.264 4.35958 2.49492 0
M  V30 8130 C 752.258 6.14002 1.71115 0
M  V30 8131 C 749.945 5.68903 2.23142 0
M  V30 8132 C 750.943 6.57744 1.84015 0
M  V30 8133 O 750.631 7.88226 1.5797 0
M  V30 8134 H 750.363 0.518428 0.43383 0
M  V30 8135 H 752.917 1.91067 0.753837 0
M  V30 8136 H 751.147 2.00474 3.30677 0
M  V30 8137 H 752.836 2.42077 3.25812 0
M  V30 8138 H 753.602 4.47692 1.86539 0
M  V30 8139 H 749.481 3.67053 2.78914 0
M  V30 8140 H 753.025 6.83305 1.405 0
M  V30 8141 H 748.922 6.01866 2.33297 0
M  V30 8142 H 749.69 8.00211 1.72058 0
M  V30 8143 N 752.353 -0.854086 1.3245 0
M  V30 8144 C 753.6 -1.60831 1.23043 0
M  V30 8145 C 753.928 -1.93389 -0.2076 0
M  V30 8146 O 753.183 -1.5756 -1.16075 0
M  V30 8147 C 753.482 -2.93746 2.03587 0
M  V30 8148 C 753.148 -2.80615 3.52939 0
M  V30 8149 C 751.81 -2.76742 3.93659 0
M  V30 8150 C 754.162 -2.66507 4.4791 0
M  V30 8151 C 751.49 -2.56638 5.27592 0
M  V30 8152 C 753.842 -2.47939 5.81987 0
M  V30 8153 C 752.506 -2.42458 6.21909 0
M  V30 8154 H 751.776 -0.588523 0.450247 0
M  V30 8155 H 754.423 -0.990699 1.63882 0
M  V30 8156 H 752.728 -3.5963 1.55478 0
M  V30 8157 H 754.425 -3.51127 1.93677 0
M  V30 8158 H 751.015 -2.84456 3.20598 0
M  V30 8159 H 755.199 -2.68544 4.1737 0
M  V30 8160 H 750.455 -2.50831 5.57579 0
M  V30 8161 H 754.629 -2.36002 6.55192 0
M  V30 8162 H 752.256 -2.2664 7.2563 0
M  V30 8163 N 753.831 -1.1567 -1.07043 0
M  V30 8164 C 755.077 -0.9349 -1.79965 0
M  V30 8165 C 755.41 0.536464 -1.86643 0
M  V30 8166 O 754.685 1.39781 -1.35247 0
M  V30 8167 C 754.968 -1.55371 -3.24857 0
M  V30 8168 C 754.821 -3.09589 -3.26305 0
M  V30 8169 C 756.14 -1.24209 -4.22209 0
M  V30 8170 H 753.259 -0.341061 -0.653335 0
M  V30 8171 H 755.901 -1.42883 -1.25237 0
M  V30 8172 H 754.051 -1.13368 -3.71591 0
M  V30 8173 H 755.723 -3.60521 -2.87789 0
M  V30 8174 H 753.966 -3.43315 -2.65174 0
M  V30 8175 H 754.637 -3.48002 -4.28484 0
M  V30 8176 H 757.113 -1.60548 -3.8388 0
M  V30 8177 H 755.989 -1.70119 -5.21872 0
M  V30 8178 H 756.25 -0.15964 -4.41812 0
M  V30 8179 N 755.309 1.25446 -0.953992 0
M  V30 8180 C 756.239 2.28264 -0.491717 0
M  V30 8181 C 757.22 1.63717 0.461617 0
M  V30 8182 O 758.405 1.90821 0.36071 0
M  V30 8183 C 755.535 3.46525 0.231915 0
M  V30 8184 C 754.489 4.23247 -0.636098 0
M  V30 8185 C 753.815 5.34254 0.218238 0
M  V30 8186 C 755.115 4.85971 -1.91389 0
M  V30 8187 H 756.809 2.67183 -1.35106 0
M  V30 8188 H 754.355 1.2844 -0.651095 0
M  V30 8189 H 756.308 4.17576 0.566439 0
M  V30 8190 H 755.032 3.06594 1.12551 0
M  V30 8191 H 753.691 3.53978 -0.953696 0
M  V30 8192 H 753.339 4.90564 1.11156 0
M  V30 8193 H 753.039 5.86501 -0.359232 0
M  V30 8194 H 754.563 6.08138 0.547743 0
M  V30 8195 H 755.977 5.49168 -1.64581 0
M  V30 8196 H 754.374 5.48391 -2.43696 0
M  V30 8197 H 755.444 4.08192 -2.61738 0
M  V30 8198 N 756.787 0.722489 1.40064 0
M  V30 8199 C 758.033 0.265371 2.01056 0
M  V30 8200 C 758.366 -1.14062 1.57174 0
M  V30 8201 O 757.641 -1.77514 0.794916 0
M  V30 8202 C 757.924 0.353157 3.58364 0
M  V30 8203 C 757.777 1.79802 4.123 0
M  V30 8204 C 759.096 -0.271677 4.39261 0
M  V30 8205 H 756.215 0.0979002 0.730469 0
M  V30 8206 H 758.857 0.916289 1.66446 0
M  V30 8207 H 757.007 -0.201037 3.87979 0
M  V30 8208 H 758.679 2.40813 3.93455 0
M  V30 8209 H 756.922 2.32348 3.66329 0
M  V30 8210 H 757.593 1.81079 5.21454 0
M  V30 8211 H 760.069 0.200607 4.15616 0
M  V30 8212 H 758.945 -0.179843 5.48605 0
M  V30 8213 H 759.206 -1.35611 4.20787 0
M  V30 8214 N 758.265 -1.50454 0.469181 0
M  V30 8215 C 759.197 -2.26319 -0.362247 0
M  V30 8216 C 760.21 -1.31574 -0.958751 0
M  V30 8217 O 761.399 -1.57099 -0.847482 0
M  V30 8218 C 758.499 -3.02808 -1.52187 0
M  V30 8219 C 757.672 -4.24893 -1.03849 0
M  V30 8220 C 756.731 -4.83691 -2.07194 0
M  V30 8221 O 755.757 -5.44659 -1.65333 0
M  V30 8222 N 756.959 -4.70522 -3.39985 0
M  V30 8223 H 759.724 -2.98312 0.288124 0
M  V30 8224 H 757.285 -1.59099 0.299856 0
M  V30 8225 H 759.277 -3.39023 -2.21011 0
M  V30 8226 H 757.847 -2.33625 -2.07697 0
M  V30 8227 H 757.067 -3.93806 -0.176203 0
M  V30 8228 H 758.355 -5.04053 -0.693435 0
M  V30 8229 H 757.753 -4.2203 -3.76706 0
M  V30 8230 H 756.31 -5.11011 -4.04612 0
M  V30 8231 N 759.743 -0.201713 -1.56304 0
M  V30 8232 C 760.989 0.435952 -1.98059 0
M  V30 8233 C 761.322 1.60811 -1.08873 0
M  V30 8234 O 760.597 1.9398 -0.142128 0
M  V30 8235 C 760.88 0.889706 -3.48936 0
M  V30 8236 C 760.733 -0.284725 -4.48898 0
M  V30 8237 C 762.052 1.7529 -4.03685 0
M  V30 8238 H 759.171 0.15699 -0.720085 0
M  V30 8239 H 761.813 -0.293965 -1.87712 0
M  V30 8240 H 759.963 1.51166 -3.57884 0
M  V30 8241 H 761.635 -0.922531 -4.51981 0
M  V30 8242 H 759.878 -0.935427 -4.23594 0
M  V30 8243 H 760.549 0.0753865 -5.51949 0
M  V30 8244 H 763.025 1.2283 -3.97558 0
M  V30 8245 H 761.901 2.03933 -5.0961 0
M  V30 8246 H 762.162 2.70939 -3.49348 0
M  V30 8247 N 761.222 1.57436 0.0718424 0
M  V30 8248 C 762.447 1.91858 0.787745 0
M  V30 8249 C 762.872 0.798119 1.70328 0
M  V30 8250 O 762.23 -0.24905 1.79581 0
M  V30 8251 C 762.278 3.25232 1.55744 0
M  V30 8252 O 761.382 3.14462 2.6681 0
M  V30 8253 H 760.723 0.628258 0.214914 0
M  V30 8254 H 763.253 2.04561 0.0401012 0
M  V30 8255 H 763.263 3.59105 1.9367 0
M  V30 8256 H 761.938 4.0636 0.885691 0
M  V30 8257 H 760.515 2.92148 2.31741 0
M  V30 8258 N 762.7 -0.34323 1.53817 0
M  V30 8259 C 763.632 -1.44216 1.78141 0
M  V30 8260 C 764.645 -1.48701 0.662721 0
M  V30 8261 O 765.834 -1.51778 0.939458 0
M  V30 8262 C 762.934 -2.82872 1.86646 0
M  V30 8263 C 762.107 -3.01824 3.16577 0
M  V30 8264 C 761.166 -4.20723 3.16036 0
M  V30 8265 O 760.192 -4.14824 3.89756 0
M  V30 8266 N 761.394 -5.29276 2.38427 0
M  V30 8267 H 764.159 -1.23721 2.72971 0
M  V30 8268 H 761.72 -0.53311 1.52871 0
M  V30 8269 H 763.712 -3.60588 1.83735 0
M  V30 8270 H 762.282 -2.96509 0.990014 0
M  V30 8271 H 761.502 -2.11575 3.3261 0
M  V30 8272 H 762.79 -3.11369 4.02402 0
M  V30 8273 H 762.188 -5.36938 1.78085 0
M  V30 8274 H 760.745 -6.05484 2.41313 0
M  V30 8275 N 764.178 -1.45556 -0.604258 0
M  V30 8276 C 765.408 -1.53056 -1.38771 0
M  V30 8277 C 765.816 -0.163092 -1.88496 0
M  V30 8278 O 765.159 0.846157 -1.63052 0
M  V30 8279 C 765.221 -2.45656 -2.62476 0
M  V30 8280 C 764.885 -3.92328 -2.34367 0
M  V30 8281 C 765.882 -4.82137 -1.94525 0
M  V30 8282 C 763.567 -4.37275 -2.47177 0
M  V30 8283 C 765.561 -6.14901 -1.67856 0
M  V30 8284 C 763.248 -5.70079 -2.20122 0
M  V30 8285 C 764.246 -6.58711 -1.80524 0
M  V30 8286 O 763.934 -7.89053 -1.53788 0
M  V30 8287 H 763.666 -0.520721 -0.431075 0
M  V30 8288 H 766.22 -1.91464 -0.743693 0
M  V30 8289 H 764.45 -2.02225 -3.29609 0
M  V30 8290 H 766.139 -2.43802 -3.24523 0
M  V30 8291 H 766.905 -4.48675 -1.84162 0
M  V30 8292 H 762.784 -3.68527 -2.76964 0
M  V30 8293 H 766.328 -6.8404 -1.36874 0
M  V30 8294 H 762.225 -6.03095 -2.30102 0
M  V30 8295 H 762.993 -8.01113 -1.67812 0
M  V30 8296 N 765.656 0.84705 -1.32902 0
M  V30 8297 C 766.884 1.63403 -1.26913 0
M  V30 8298 C 767.299 1.88108 0.161483 0
M  V30 8299 O 766.656 1.45546 1.10103 0
M  V30 8300 C 766.707 2.98896 -2.03331 0
M  V30 8301 O 766.428 2.75281 -3.40811 0
M  V30 8302 C 767.929 3.93335 -2.04457 0
M  V30 8303 H 765.149 0.508701 -0.437566 0
M  V30 8304 H 767.693 1.05567 -1.75145 0
M  V30 8305 H 765.848 3.53356 -1.58802 0
M  V30 8306 H 766.262 3.61504 -3.8002 0
M  V30 8307 H 767.736 4.85647 -2.62394 0
M  V30 8308 H 768.213 4.26885 -1.03274 0
M  V30 8309 H 768.819 3.44812 -2.48967 0
M  V30 8310 N 767.134 1.16236 1.06428 0
M  V30 8311 C 768.381 0.943034 1.79201 0
M  V30 8312 C 768.709 -0.529243 1.87161 0
M  V30 8313 O 767.964 -1.40874 1.35842 0
M  V30 8314 C 768.263 1.51396 3.2375 0
M  V30 8315 C 767.929 3.00833 3.35873 0
M  V30 8316 C 766.591 3.41626 3.38888 0
M  V30 8317 C 768.943 3.96825 3.37904 0
M  V30 8318 C 766.271 4.77033 3.4155 0
M  V30 8319 C 768.623 5.32116 3.42104 0
M  V30 8320 C 767.287 5.72392 3.43401 0
M  V30 8321 H 766.557 0.34508 0.655744 0
M  V30 8322 H 769.204 1.44929 1.25171 0
M  V30 8323 H 767.509 0.929114 3.80624 0
M  V30 8324 H 769.206 1.31996 3.78653 0
M  V30 8325 H 765.796 2.68306 3.3423 0
M  V30 8326 H 769.98 3.66376 3.34787 0
M  V30 8327 H 765.236 5.07569 3.40858 0
M  V30 8328 H 769.41 6.06286 3.42623 0
M  V30 8329 H 767.037 6.77296 3.45216 0
M  V30 8330 N 768.612 -1.24939 0.960631 0
M  V30 8331 C 769.575 -2.239 0.49006 0
M  V30 8332 C 770.575 -1.55497 -0.409535 0
M  V30 8333 O 771.765 -1.72978 -0.205984 0
M  V30 8334 C 768.897 -3.39654 -0.291193 0
M  V30 8335 H 770.09 -2.67044 1.36482 0
M  V30 8336 H 767.643 -1.37429 0.744505 0
M  V30 8337 H 768.378 -3.01939 -1.18336 0
M  V30 8338 H 768.163 -3.90496 0.354276 0
M  V30 8339 H 769.653 -4.13125 -0.609693 0
M  V30 8340 N 770.09 -0.729906 -1.39679 0
M  V30 8341 C 771.023 -0.0354454 -2.28172 0
M  V30 8342 C 772.001 0.752968 -1.44115 0
M  V30 8343 O 773.185 0.736599 -1.73512 0
M  V30 8344 C 770.312 0.957047 -3.24897 0
M  V30 8345 C 769.358 0.257734 -4.25721 0
M  V30 8346 S 770.191 -1.02466 -5.25605 0
M  V30 8347 C 771.347 -0.0346322 -6.2589 0
M  V30 8348 H 771.58 -0.785922 -2.86724 0
M  V30 8349 H 769.113 -0.521497 -1.45326 0
M  V30 8350 H 771.071 1.52441 -3.81146 0
M  V30 8351 H 769.732 1.68033 -2.65375 0
M  V30 8352 H 768.925 1.00854 -4.93806 0
M  V30 8353 H 768.527 -0.237454 -3.73245 0
M  V30 8354 H 770.819 0.807464 -6.72671 0
M  V30 8355 H 771.762 -0.682491 -7.04803 0
M  V30 8356 H 772.17 0.335492 -5.63502 0
M  V30 8357 N 771.568 1.50203 -0.477153 0
M  V30 8358 C 772.808 2.04265 0.0744065 0
M  V30 8359 C 773.172 1.35082 1.36443 0
M  V30 8360 O 774.373 1.79732 1.99875 0
M  V30 8361 C 772.644 3.56539 0.247874 0
M  V30 8362 S 774.203 4.32219 0.757117 0
M  V30 8363 H 771.021 0.71088 0.0130891 0
M  V30 8364 H 773.623 1.8453 -0.645678 0
M  V30 8365 H 772.327 4.04443 -0.696709 0
M  V30 8366 H 771.858 3.80638 0.993896 0
M  V30 8367 H 773.873 4.52789 2.0297 0
M  V30 8368 N 773.046 0.209999 1.56195 0
M  V30 8369 C 774.271 -0.433064 2.02828 0
M  V30 8370 C 774.696 -1.5337 1.08901 0
M  V30 8371 O 774.054 -1.81144 0.0751132 0
M  V30 8372 C 774.102 -0.952635 3.47789 0
M  V30 8373 O 773.206 -2.0647 3.56993 0
M  V30 8374 H 772.547 -0.0994594 0.656509 0
M  V30 8375 H 775.077 0.32525 2.01998 0
M  V30 8376 H 775.087 -1.26542 3.8788 0
M  V30 8377 H 773.762 -0.147007 4.1564 0
M  V30 8378 H 772.339 -1.75942 3.28784 0
M  V30 8379 N 774.524 -1.57472 -0.0634922 0
M  V30 8380 C 775.754 -1.91608 -0.772645 0
M  V30 8381 C 776.162 -0.805019 -1.71219 0
M  V30 8382 O 775.505 0.229941 -1.82255 0
M  V30 8383 C 775.567 -3.21281 -1.61304 0
M  V30 8384 C 775.231 -4.49177 -0.841973 0
M  V30 8385 C 776.228 -5.19661 -0.157494 0
M  V30 8386 C 773.913 -4.9578 -0.80669 0
M  V30 8387 C 775.907 -6.35006 0.551948 0
M  V30 8388 C 773.594 -6.11028 -0.0934812 0
M  V30 8389 C 774.592 -6.80493 0.58463 0
M  V30 8390 O 774.28 -7.93542 1.28633 0
M  V30 8391 H 774.012 -0.637685 -0.224352 0
M  V30 8392 H 776.566 -2.05369 -0.0355279 0
M  V30 8393 H 774.796 -3.03752 -2.39315 0
M  V30 8394 H 776.485 -3.41003 -2.20162 0
M  V30 8395 H 777.251 -4.84681 -0.176006 0
M  V30 8396 H 773.13 -4.41579 -1.32397 0
M  V30 8397 H 776.674 -6.89161 1.0818 0
M  V30 8398 H 772.571 -6.45459 -0.0729258 0
M  V30 8399 H 773.339 -8.09708 1.19646 0
M  V30 8400 N 776.003 0.335068 -1.53997 0
M  V30 8401 C 777.419 0.678704 -1.4445 0
M  V30 8402 C 777.619 1.92106 -0.608078 0
M  V30 8403 O 776.675 2.52292 -0.102373 0
M  V30 8404 C 777.988 0.863435 -2.88037 0
M  V30 8405 C 779.536 0.961513 -2.97866 0
M  V30 8406 C 780.011 1.1785 -4.42578 0
M  V30 8407 N 781.502 1.2455 -4.46141 0
M  V30 8408 C 782.237 1.43106 -5.55255 0
M  V30 8409 N 781.733 1.5878 -6.74359 0
M  V30 8410 N 783.526 1.45722 -5.42883 0
M  V30 8411 H 775.677 -0.481656 -2.06867 0
M  V30 8412 H 777.94 -0.153615 -0.935471 0
M  V30 8413 H 777.646 0.0219511 -3.51693 0
M  V30 8414 H 777.52 1.76268 -3.33481 0
M  V30 8415 H 779.907 1.79351 -2.34344 0
M  V30 8416 H 779.988 0.0389862 -2.5577 0
M  V30 8417 H 779.632 0.351397 -5.06683 0
M  V30 8418 H 779.562 2.11472 -4.82273 0
M  V30 8419 H 782.053 1.13928 -3.60318 0
M  V30 8420 H 782.366 1.72599 -7.53279 0
M  V30 8421 H 780.711 1.559 -6.77289 0
M  V30 8422 H 783.902 1.33065 -4.48789 0
M  V30 8423 H 784.075 1.59841 -6.27977 0
M  V30 8424 N 777.481 1.45874 0.596531 0
M  V30 8425 C 778.391 1.57947 1.73464 0
M  V30 8426 C 779.407 0.463461 1.67714 0
M  V30 8427 O 780.583 0.725685 1.87872 0
M  V30 8428 C 777.648 1.55348 3.09948 0
M  V30 8429 C 776.709 2.78074 3.27068 0
M  V30 8430 C 775.942 2.75589 4.57041 0
M  V30 8431 O 776.165 1.83545 5.40063 0
M  V30 8432 O 775.099 3.66945 4.77111 0
M  V30 8433 H 778.925 2.54169 1.66228 0
M  V30 8434 H 776.51 1.2851 0.76194 0
M  V30 8435 H 778.392 1.56545 3.91244 0
M  V30 8436 H 777.067 0.622811 3.17652 0
M  V30 8437 H 775.974 2.82435 2.45319 0
M  V30 8438 H 777.307 3.70303 3.24248 0
M  V30 8439 N 778.959 -0.83999 1.33349 0
M  V30 8440 C 779.906 -1.94972 1.23509 0
M  V30 8441 C 780.876 -1.65709 0.113967 0
M  V30 8442 O 782.061 -1.88552 0.292045 0
M  V30 8443 C 779.201 -3.30919 0.979105 0
M  V30 8444 C 778.314 -3.72587 2.18639 0
M  V30 8445 C 777.449 -4.97397 1.86465 0
M  V30 8446 C 776.488 -5.31597 3.03432 0
M  V30 8447 N 775.625 -6.47584 2.71254 0
M  V30 8448 H 780.465 -2.0272 2.18423 0
M  V30 8449 H 778.002 -0.992017 1.08616 0
M  V30 8450 H 779.96 -4.09239 0.811126 0
M  V30 8451 H 778.59 -3.22731 0.0667099 0
M  V30 8452 H 777.642 -2.89799 2.46416 0
M  V30 8453 H 778.954 -3.93844 3.06086 0
M  V30 8454 H 778.108 -5.83462 1.66305 0
M  V30 8455 H 776.847 -4.78107 0.96254 0
M  V30 8456 H 775.852 -4.44037 3.24208 0
M  V30 8457 H 777.077 -5.52836 3.94397 0
M  V30 8458 H 775.023 -6.29783 1.836 0
M  V30 8459 H 774.94 -6.68931 3.52231 0
M  V30 8460 H 776.208 -7.36764 2.54558 0
M  V30 8461 N 780.437 -1.16799 -1.0581 0
M  V30 8462 C 781.384 -0.87902 -2.13405 0
M  V30 8463 C 782.354 0.174541 -1.6518 0
M  V30 8464 O 783.539 0.0386843 -1.90761 0
M  V30 8465 C 780.679 -0.391616 -3.42871 0
M  V30 8466 C 779.792 -1.50857 -4.04804 0
M  V30 8467 C 778.927 -0.975682 -5.22163 0
M  V30 8468 C 777.966 -2.06851 -5.76089 0
M  V30 8469 N 777.103 -1.55085 -6.84758 0
M  V30 8470 H 781.943 -1.80043 -2.37463 0
M  V30 8471 H 779.48 -0.898083 -1.16503 0
M  V30 8472 H 781.438 -0.0906247 -4.17102 0
M  V30 8473 H 780.068 0.49284 -3.19016 0
M  V30 8474 H 779.12 -1.92542 -3.28073 0
M  V30 8475 H 780.432 -2.33305 -4.40874 0
M  V30 8476 H 779.586 -0.628165 -6.03439 0
M  V30 8477 H 778.325 -0.120566 -4.87551 0
M  V30 8478 H 777.33 -2.42467 -4.93447 0
M  V30 8479 H 778.555 -2.92768 -6.12751 0
M  V30 8480 H 776.501 -0.718345 -6.52055 0
M  V30 8481 H 776.418 -2.31145 -7.19797 0
M  V30 8482 H 777.686 -1.23206 -7.69702 0
M  V30 8483 N 781.915 1.24427 -0.967243 0
M  V30 8484 C 783.14 1.9708 -0.646069 0
M  V30 8485 C 783.565 1.71272 0.777665 0
M  V30 8486 O 782.923 0.976179 1.52776 0
M  V30 8487 C 782.971 3.48501 -0.926266 0
M  V30 8488 O 782.075 4.12398 -0.0114653 0
M  V30 8489 H 781.416 0.617423 -0.244304 0
M  V30 8490 H 783.946 1.58215 -1.29727 0
M  V30 8491 H 783.956 3.98885 -0.857619 0
M  V30 8492 H 782.631 3.66613 -1.96386 0
M  V30 8493 H 781.208 3.72661 -0.133396 0
M  V30 8494 N 783.393 0.737304 1.3929 0
M  V30 8495 C 784.303 0.100464 2.34385 0
M  V30 8496 C 785.319 -0.719282 1.58437 0
M  V30 8497 O 786.495 -0.647216 1.90717 0
M  V30 8498 C 783.56 -0.794325 3.37478 0
M  V30 8499 C 782.621 0.0379345 4.29283 0
M  V30 8500 C 781.854 -0.814241 5.27452 0
M  V30 8501 O 782.077 -2.05288 5.32177 0
M  V30 8502 O 781.011 -0.241679 6.01415 0
M  V30 8503 H 784.837 0.885407 2.90507 0
M  V30 8504 H 782.422 0.497999 1.40856 0
M  V30 8505 H 784.304 -1.30622 4.00644 0
M  V30 8506 H 782.979 -1.55804 2.83737 0
M  V30 8507 H 781.886 0.595405 3.69331 0
M  V30 8508 H 783.219 0.763926 4.86236 0
M  V30 8509 N 784.871 -1.49948 0.485112 0
M  V30 8510 C 786.282 -1.8667 0.0334041 0
M  V30 8511 C 786.633 -1.3988 -1.37579 0
M  V30 8512 O 785.758 -0.769788 -2.02245 0
M  V30 8513 C 786.353 -3.38757 0.0538426 0
M  V30 8514 C 784.912 -3.74839 -0.342453 0
M  V30 8515 C 784.059 -2.73894 0.433281 0
M  V30 8516 H 787.01 -1.42492 0.698699 0
M  V30 8517 H 787.031 -3.73132 -0.745146 0
M  V30 8518 H 786.543 -3.72782 1.07959 0
M  V30 8519 H 784.644 -3.46419 -1.37203 0
M  V30 8520 H 784.757 -4.79088 -0.0340503 0
M  V30 8521 H 783.121 -2.54441 -0.114849 0
M  V30 8522 H 783.904 -3.10763 1.45881 0
M  V30 8523 N 786.349 -0.21828 -1.56081 0
M  V30 8524 C 787.281 0.725447 -2.17416 0
M  V30 8525 C 788.294 1.15995 -1.14233 0
M  V30 8526 O 789.483 1.09166 -1.41227 0
M  V30 8527 C 786.583 1.99401 -2.7403 0
M  V30 8528 C 785.756 1.7156 -4.02351 0
M  V30 8529 C 784.815 2.8309 -4.43561 0
M  V30 8530 O 783.841 2.51701 -5.10525 0
M  V30 8531 N 785.043 4.11972 -4.08973 0
M  V30 8532 H 787.808 0.200801 -2.99027 0
M  V30 8533 H 785.369 -0.0371514 -1.61857 0
M  V30 8534 H 787.361 2.73198 -2.98571 0
M  V30 8535 H 785.931 2.42923 -1.96742 0
M  V30 8536 H 785.151 0.814233 -3.85699 0
M  V30 8537 H 786.439 1.50385 -4.86068 0
M  V30 8538 H 785.837 4.40319 -3.55156 0
M  V30 8539 H 784.394 4.82323 -4.38415 0
M  V30 8540 N 787.827 1.57504 0.0551401 0
M  V30 8541 C 788.737 2.08198 1.08124 0
M  V30 8542 C 789.753 1.01496 1.41331 0
M  V30 8543 O 790.929 1.33073 1.51174 0
M  V30 8544 C 787.994 2.52968 2.37083 0
M  V30 8545 C 787.055 3.7404 2.10696 0
M  V30 8546 C 786.288 4.16665 3.33505 0
M  V30 8547 O 786.511 3.59019 4.4324 0
M  V30 8548 O 785.445 5.09324 3.20737 0
M  V30 8549 H 789.271 2.95977 0.680518 0
M  V30 8550 H 786.856 1.46933 0.270401 0
M  V30 8551 H 788.738 2.82211 3.12946 0
M  V30 8552 H 787.413 1.6831 2.76502 0
M  V30 8553 H 786.32 3.49855 1.32484 0
M  V30 8554 H 787.653 4.59601 1.76148 0
M  V30 8555 N 789.305 -0.326896 1.54172 0
M  V30 8556 C 790.235 -1.40741 1.86317 0
M  V30 8557 C 791.216 -1.54125 0.719684 0
M  V30 8558 O 792.401 -1.6806 0.973117 0
M  V30 8559 C 789.531 -2.77557 2.08757 0
M  V30 8560 C 788.485 -2.78965 3.24596 0
M  V30 8561 C 787.811 -4.18824 3.32401 0
M  V30 8562 C 789.111 -2.4301 4.62324 0
M  V30 8563 H 790.805 -1.14088 2.76811 0
M  V30 8564 H 788.351 -0.547389 1.3319 0
M  V30 8565 H 790.304 -3.53209 2.29829 0
M  V30 8566 H 789.028 -3.0568 1.15009 0
M  V30 8567 H 787.687 -2.05767 3.03406 0
M  V30 8568 H 787.335 -4.44083 2.36218 0
M  V30 8569 H 787.035 -4.20673 4.10253 0
M  V30 8570 H 788.559 -4.96294 3.55703 0
M  V30 8571 H 789.973 -3.08375 4.83299 0
M  V30 8572 H 788.37 -2.56116 5.42701 0
M  V30 8573 H 789.44 -1.38165 4.64799 0
M  V30 8574 N 790.784 -1.46188 -0.588786 0
M  V30 8575 C 791.717 -1.508 -1.71274 0
M  V30 8576 C 792.695 -0.362635 -1.58505 0
M  V30 8577 O 793.879 -0.565899 -1.79805 0
M  V30 8578 C 791.006 -1.38082 -3.09275 0
M  V30 8579 C 790.052 -2.56723 -3.40581 0
M  V30 8580 S 790.885 -4.1911 -3.33327 0
M  V30 8581 C 792.041 -4.08891 -4.73877 0
M  V30 8582 H 792.274 -2.45895 -1.67102 0
M  V30 8583 H 789.807 -1.34 -0.767025 0
M  V30 8584 H 791.765 -1.31432 -3.88891 0
M  V30 8585 H 790.426 -0.444259 -3.10942 0
M  V30 8586 H 789.619 -2.43801 -4.41109 0
M  V30 8587 H 789.221 -2.60332 -2.68521 0
M  V30 8588 H 791.513 -3.75196 -5.64123 0
M  V30 8589 H 792.456 -5.09395 -4.91856 0
M  V30 8590 H 792.864 -3.40239 -4.50441 0
M  V30 8591 N 792.262 0.832906 -1.33792 0
M  V30 8592 C 793.194 1.95042 -1.2038 0
M  V30 8593 C 794.207 1.62253 -0.133299 0
M  V30 8594 O 795.396 1.74315 -0.384261 0
M  V30 8595 C 792.496 3.287 -0.825215 0
M  V30 8596 C 791.669 3.89581 -1.98861 0
M  V30 8597 C 790.728 5.01602 -1.59003 0
M  V30 8598 O 789.754 5.20431 -2.30522 0
M  V30 8599 N 790.956 5.78356 -0.498446 0
M  V30 8600 H 793.721 2.07083 -2.16649 0
M  V30 8601 H 791.282 1.00896 -1.26616 0
M  V30 8602 H 793.274 4.01074 -0.540559 0
M  V30 8603 H 791.844 3.12565 0.0469796 0
M  V30 8604 H 791.064 3.09723 -2.43856 0
M  V30 8605 H 792.352 4.26989 -2.76691 0
M  V30 8606 H 791.75 5.65618 0.0963297 0
M  V30 8607 H 790.307 6.51226 -0.273485 0
M  V30 8608 N 793.74 1.17359 1.05189 0
M  V30 8609 C 794.67 0.91365 2.14883 0
M  V30 8610 C 795.651 -0.144365 1.69486 0
M  V30 8611 O 796.836 0.00587861 1.94199 0
M  V30 8612 C 793.966 0.426196 3.44675 0
M  V30 8613 C 792.92 1.4234 4.03638 0
M  V30 8614 C 792.246 0.793902 5.28773 0
M  V30 8615 C 793.546 2.7966 4.41121 0
M  V30 8616 H 795.24 1.831 2.36885 0
M  V30 8617 H 792.786 0.881781 1.13845 0
M  V30 8618 H 794.739 0.231767 4.20762 0
M  V30 8619 H 793.463 -0.526693 3.22325 0
M  V30 8620 H 792.122 1.60457 3.2962 0
M  V30 8621 H 791.77 -0.165824 5.02727 0
M  V30 8622 H 791.47 1.45959 5.69183 0
M  V30 8623 H 792.994 0.609747 6.07548 0
M  V30 8624 H 794.408 2.6526 5.08242 0
M  V30 8625 H 792.805 3.42807 4.92548 0
M  V30 8626 H 793.875 3.34068 3.51464 0
M  V30 8627 N 795.218 -1.23913 0.973828 0
M  V30 8628 C 796.128 -2.28838 0.516735 0
M  V30 8629 C 797.144 -1.68723 -0.425282 0
M  V30 8630 O 798.32 -1.99201 -0.296819 0
M  V30 8631 C 795.385 -3.46233 -0.179914 0
M  V30 8632 C 794.446 -4.21729 0.80269 0
M  V30 8633 C 793.679 -5.33518 0.139191 0
M  V30 8634 O 793.902 -5.60252 -1.07118 0
M  V30 8635 O 792.836 -5.96088 0.834447 0
M  V30 8636 H 796.662 -2.70067 1.38916 0
M  V30 8637 H 794.247 -1.2972 0.74115 0
M  V30 8638 H 796.129 -4.17514 -0.570991 0
M  V30 8639 H 794.804 -3.06969 -1.02721 0
M  V30 8640 H 793.711 -3.52799 1.24434 0
M  V30 8641 H 795.044 -4.64825 1.61859 0
M  V30 8642 N 796.696 -0.74468 -1.38897 0
M  V30 8643 C 797.944 -0.296298 -1.99916 0
M  V30 8644 C 798.265 1.12325 -1.59399 0
M  V30 8645 O 797.535 1.76658 -0.846689 0
M  V30 8646 H 796.115 -0.106561 -0.73936 0
M  V30 8647 H 798.777 -0.956793 -1.69798 0
M  V30 8648 H 797.873 -0.352356 -3.10105 0
M  V30 8649 N 798.174 1.49689 -0.493057 0
M  V30 8650 C 799.404 2.06536 0.0512397 0
M  V30 8651 C 799.812 1.35459 1.32089 0
M  V30 8652 O 799.155 0.424145 1.78736 0
M  V30 8653 C 799.217 3.57452 0.383231 0
M  V30 8654 C 798.881 4.50163 -0.787555 0
M  V30 8655 C 799.878 4.92151 -1.67582 0
M  V30 8656 C 797.563 4.92565 -0.984109 0
M  V30 8657 C 799.557 5.7527 -2.74487 0
M  V30 8658 C 797.244 5.75463 -2.05634 0
M  V30 8659 C 798.242 6.16719 -2.93507 0
M  V30 8660 O 797.93 6.97961 -3.98881 0
M  V30 8661 H 797.662 0.675862 -0.0136516 0
M  V30 8662 H 800.216 1.9356 -0.687298 0
M  V30 8663 H 798.446 3.68408 1.17526 0
M  V30 8664 H 800.135 3.96572 0.8652 0
M  V30 8665 H 800.901 4.60043 -1.53575 0
M  V30 8666 H 796.78 4.5996 -0.309541 0
M  V30 8667 H 800.324 6.07392 -3.43104 0
M  V30 8668 H 796.221 6.06983 -2.19639 0
M  V30 8669 H 796.989 7.16253 -3.96137 0
M  V30 8670 N 799.652 0.226554 1.55963 0
M  V30 8671 C 800.88 -0.408507 2.02827 0
M  V30 8672 C 801.295 -1.52994 1.10627 0
M  V30 8673 O 800.652 -1.82126 0.116809 0
M  V30 8674 C 800.703 -0.93545 3.49187 0
M  V30 8675 O 800.424 0.141273 4.37872 0
M  V30 8676 C 801.925 -1.64325 4.11719 0
M  V30 8677 H 799.145 -0.099442 0.66359 0
M  V30 8678 H 801.689 0.344471 2.01578 0
M  V30 8679 H 799.844 -1.63868 3.51036 0
M  V30 8680 H 800.258 -0.25558 5.23877 0
M  V30 8681 H 801.732 -1.9639 5.15883 0
M  V30 8682 H 802.209 -2.55815 3.57009 0
M  V30 8683 H 802.815 -0.9851 4.13734 0
M  V30 8684 N 801.13 -1.57531 -0.0467866 0
M  V30 8685 C 802.376 -1.8873 -0.742218 0
M  V30 8686 C 802.709 -0.822084 -1.75941 0
M  V30 8687 O 801.984 0.164922 -1.938 0
M  V30 8688 C 802.267 -3.30586 -1.42776 0
M  V30 8689 C 802.12 -4.47785 -0.425285 0
M  V30 8690 C 803.439 -3.71068 -2.36636 0
M  V30 8691 H 800.558 -0.686406 -0.268359 0
M  V30 8692 H 803.2 -1.89999 -0.00511341 0
M  V30 8693 H 801.35 -3.29634 -2.05605 0
M  V30 8694 H 803.022 -4.60867 0.199721 0
M  V30 8695 H 801.265 -4.33037 0.25713 0
M  V30 8696 H 801.936 -5.43884 -0.943086 0
M  V30 8697 H 804.412 -3.73273 -1.83866 0
M  V30 8698 H 803.288 -4.71165 -2.81593 0
M  V30 8699 H 803.549 -3.02355 -3.22542 0
M  V30 8700 N 802.608 0.318715 -1.54344 0
M  V30 8701 C 803.885 1.07461 -1.63437 0
M  V30 8702 C 804.265 2.05771 -0.47131 0
M  V30 8703 O 803.613 2.22175 0.53391 0
M  V30 8704 C 803.823 1.77224 -3.00654 0
M  V30 8705 C 805.171 2.30069 -3.56866 0
M  V30 8706 O 806.195 1.87284 -3.0299 0
M  V30 8707 O 805.054 3.08412 -4.51159 0
M  V30 8708 H 802.148 0.495627 -0.66203 0
M  V30 8709 H 804.694 0.318218 -1.6669 0
M  V30 8710 H 803.466 1.05742 -3.76742 0
M  V30 8711 H 803.089 2.59662 -3.01101 0
M  V30 8712 N 804.086 1.46499 0.581025 0
M  V30 8713 C 805.316 1.55244 1.36319 0
M  V30 8714 C 805.724 0.193059 1.88212 0
M  V30 8715 O 805.067 -0.820109 1.64377 0
M  V30 8716 C 805.129 2.498 2.58535 0
M  V30 8717 C 804.793 3.96007 2.28096 0
M  V30 8718 C 805.79 4.85171 1.8683 0
M  V30 8719 C 803.475 4.41152 2.40189 0
M  V30 8720 C 805.469 6.17493 1.58053 0
M  V30 8721 C 803.156 5.73508 2.11024 0
M  V30 8722 C 804.154 6.615 1.70021 0
M  V30 8723 O 803.842 7.914 1.41215 0
M  V30 8724 H 803.574 0.527513 0.422736 0
M  V30 8725 H 806.128 1.92623 0.713139 0
M  V30 8726 H 804.358 2.07443 3.2635 0
M  V30 8727 H 806.047 2.48934 3.20604 0
M  V30 8728 H 806.813 4.51548 1.77001 0
M  V30 8729 H 802.692 3.72886 2.71066 0
M  V30 8730 H 806.236 6.86131 1.25974 0
M  V30 8731 H 802.133 6.06679 2.20478 0
M  V30 8732 H 802.901 8.03681 1.55046 0
M  V30 8733 N 805.565 -0.825799 1.34232 0
M  V30 8734 C 806.793 -1.61363 1.29497 0
M  V30 8735 C 807.208 -1.88341 -0.131536 0
M  V30 8736 O 806.565 -1.47279 -1.07773 0
M  V30 8737 C 806.616 -2.95623 2.08061 0
M  V30 8738 O 806.337 -2.69824 3.45147 0
M  V30 8739 C 807.838 -3.90032 2.10688 0
M  V30 8740 H 805.058 -0.501676 0.445603 0
M  V30 8741 H 807.602 -1.02767 1.76803 0
M  V30 8742 H 805.757 -3.50785 1.64404 0
M  V30 8743 H 806.171 -3.55412 3.85723 0
M  V30 8744 H 807.645 -4.81411 2.70087 0
M  V30 8745 H 808.122 -4.25188 1.10052 0
M  V30 8746 H 808.728 -3.40807 2.54422 0
M  V30 8747 N 807.043 -1.17915 -1.04565 0
M  V30 8748 C 808.32 -0.881187 -1.74627 0
M  V30 8749 C 808.7 0.617123 -2.01878 0
M  V30 8750 O 808.048 1.57032 -1.65991 0
M  V30 8751 C 808.258 -1.72299 -3.03503 0
M  V30 8752 C 809.606 -1.94688 -3.77335 0
M  V30 8753 O 810.63 -1.6931 -3.13389 0
M  V30 8754 O 809.489 -2.37379 -4.92253 0
M  V30 8755 H 806.583 -0.326864 -0.759664 0
M  V30 8756 H 809.129 -1.28642 -1.10676 0
M  V30 8757 H 807.901 -2.73891 -2.79462 0
M  V30 8758 H 807.524 -1.31593 -3.75192 0
M  V30 8759 N 808.521 1.23394 -0.980386 0
M  V30 8760 C 809.932 1.73631 -0.686239 0
M  V30 8761 C 810.283 1.79259 0.797541 0
M  V30 8762 O 809.408 1.43046 1.62379 0
M  V30 8763 C 810.003 3.15332 -1.239 0
M  V30 8764 C 808.562 3.63024 -0.994494 0
M  V30 8765 C 807.709 2.41279 -1.36673 0
M  V30 8766 H 810.66 1.08918 -1.15423 0
M  V30 8767 H 810.681 3.75556 -0.611414 0
M  V30 8768 H 810.193 3.11204 -2.31892 0
M  V30 8769 H 808.294 3.72535 0.0693492 0
M  V30 8770 H 808.407 4.49825 -1.64906 0
M  V30 8771 H 806.771 2.42295 -0.785195 0
M  V30 8772 H 807.554 2.39822 -2.45642 0
M  V30 8773 N 809.999 0.752036 1.385 0
M  V30 8774 C 810.949 0.0990189 2.27785 0
M  V30 8775 C 811.933 -0.694867 1.45122 0
M  V30 8776 O 813.125 -0.561077 1.67872 0
M  V30 8777 C 810.254 -0.794531 3.33979 0
M  V30 8778 C 809.34 0.00611984 4.241 0
M  V30 8779 N 809.731 1.04174 4.94956 0
M  V30 8780 C 808.029 -0.220934 4.45452 0
M  V30 8781 C 808.73 1.52601 5.61327 0
M  V30 8782 N 807.706 0.84159 5.37046 0
M  V30 8783 H 811.508 0.892208 2.8003 0
M  V30 8784 H 809.022 0.587934 1.51384 0
M  V30 8785 H 811.019 -1.27797 3.96829 0
M  V30 8786 H 809.679 -1.58669 2.83292 0
M  V30 8787 H 810.69 1.42349 4.97953 0
M  V30 8788 H 807.367 -0.986556 4.05676 0
M  V30 8789 H 808.757 2.38857 6.2801 0
M  V30 8790 N 811.477 -1.49425 0.500989 0
M  V30 8791 C 812.888 -1.86624 0.0532011 0
M  V30 8792 C 813.239 -1.41331 -1.36088 0
M  V30 8793 O 812.364 -0.791195 -2.01418 0
M  V30 8794 C 812.959 -3.38681 0.0897693 0
M  V30 8795 C 811.518 -3.75181 -0.302677 0
M  V30 8796 C 810.665 -2.73419 0.462307 0
M  V30 8797 H 813.616 -1.41743 0.713773 0
M  V30 8798 H 813.637 -3.73902 -0.705528 0
M  V30 8799 H 813.149 -3.71616 1.11907 0
M  V30 8800 H 811.25 -3.47855 -1.33521 0
M  V30 8801 H 811.363 -4.79097 0.0167653 0
M  V30 8802 H 809.727 -2.54548 -0.0878557 0
M  V30 8803 H 810.51 -3.09198 1.49169 0
M  V30 8804 N 812.955 -0.234822 -1.55841 0
M  V30 8805 C 814.203 0.392483 -1.98252 0
M  V30 8806 C 814.524 1.59344 -1.12404 0
M  V30 8807 O 813.794 1.94834 -0.204055 0
M  V30 8808 H 812.374 0.147999 -0.732192 0
M  V30 8809 H 815.036 -0.330804 -1.92072 0
M  V30 8810 H 814.132 0.709829 -3.03921 0
M  V30 8811 N 814.433 1.57553 0.0384317 0
M  V30 8812 C 815.363 2.0898 1.04161 0
M  V30 8813 C 816.344 0.99029 1.38301 0
M  V30 8814 O 817.529 1.26499 1.47349 0
M  V30 8815 C 814.659 2.56145 2.34536 0
M  V30 8816 C 813.613 3.70275 2.14663 0
M  V30 8817 C 812.939 4.03612 3.50715 0
M  V30 8818 C 814.239 4.99067 1.54045 0
M  V30 8819 H 815.933 2.93046 0.613548 0
M  V30 8820 H 813.479 1.40973 0.293684 0
M  V30 8821 H 815.432 2.90741 3.05037 0
M  V30 8822 H 814.156 1.6915 2.79385 0
M  V30 8823 H 812.815 3.36013 1.46597 0
M  V30 8824 H 812.463 3.13698 3.93195 0
M  V30 8825 H 812.163 4.80482 3.38247 0
M  V30 8826 H 813.687 4.40735 4.22593 0
M  V30 8827 H 815.101 5.3168 2.14451 0
M  V30 8828 H 813.498 5.80484 1.52178 0
M  V30 8829 H 814.568 4.8226 0.505259 0
M  V30 8830 N 815.911 -0.310526 1.54511 0
M  V30 8831 C 816.843 -1.40405 1.8116 0
M  V30 8832 C 817.856 -1.47261 0.694114 0
M  V30 8833 O 819.045 -1.49751 0.971441 0
M  V30 8834 C 816.145 -2.78849 1.92604 0
M  V30 8835 C 815.318 -2.95041 3.22908 0
M  V30 8836 C 814.377 -4.13925 3.24889 0
M  V30 8837 O 813.403 -4.06463 3.98467 0
M  V30 8838 N 814.605 -5.24099 2.496 0
M  V30 8839 H 817.37 -1.17903 2.75534 0
M  V30 8840 H 814.931 -0.500564 1.53967 0
M  V30 8841 H 816.923 -3.5661 1.91342 0
M  V30 8842 H 815.493 -2.94342 1.05268 0
M  V30 8843 H 814.713 -2.04472 3.37023 0
M  V30 8844 H 816.001 -3.02763 4.08916 0
M  V30 8845 H 815.399 -5.33039 1.89435 0
M  V30 8846 H 813.956 -6.0023 2.54102 0
M  V30 8847 N 817.389 -1.46805 -0.573248 0
M  V30 8848 C 818.637 -1.52302 -1.32847 0
M  V30 8849 C 818.958 -0.180159 -1.94166 0
M  V30 8850 O 818.228 0.794291 -1.79075 0
M  V30 8851 H 816.808 -0.56097 -0.493276 0
M  V30 8852 H 819.47 -1.82998 -0.670642 0
M  V30 8853 H 818.566 -2.28089 -2.13031 0
M  V30 8854 N 818.867 0.818669 -1.34668 0
M  V30 8855 C 820.115 1.57201 -1.27013 0
M  V30 8856 C 820.436 1.94354 0.158599 0
M  V30 8857 O 819.706 1.62626 1.09223 0
M  V30 8858 H 818.286 0.582919 -0.467135 0
M  V30 8859 H 820.948 0.977234 -1.6863 0
M  V30 8860 H 820.044 2.49291 -1.87778 0
M  V30 8861 N 820.346 1.18468 1.03938 0
M  V30 8862 C 821.586 0.991823 1.78724 0
M  V30 8863 C 821.95 -0.470115 1.86156 0
M  V30 8864 O 823.151 -0.782451 2.5716 0
M  V30 8865 C 821.422 1.63018 3.18056 0
M  V30 8866 S 822.981 1.58527 4.09163 0
M  V30 8867 H 819.799 0.356137 0.615376 0
M  V30 8868 H 822.401 1.50634 1.24618 0
M  V30 8869 H 821.105 2.68642 3.10258 0
M  V30 8870 H 820.636 1.11601 3.77238 0
M  V30 8871 H 822.651 0.602059 4.92534 0
M  V30 8872 N 821.824 -1.22873 0.986916 0
M  V30 8873 C 822.757 -2.23154 0.477245 0
M  V30 8874 C 823.735 -1.55981 -0.459206 0
M  V30 8875 O 824.919 -1.84503 -0.386141 0
M  V30 8876 C 822.046 -3.37289 -0.308838 0
M  V30 8877 C 821.092 -4.22637 0.572717 0
M  V30 8878 S 821.925 -4.95758 2.02446 0
M  V30 8879 C 823.081 -6.13338 1.2477 0
M  V30 8880 H 823.314 -2.6604 1.32702 0
M  V30 8881 H 820.847 -1.32455 0.793415 0
M  V30 8882 H 822.805 -4.03472 -0.756351 0
M  V30 8883 H 821.466 -2.92922 -1.13381 0
M  V30 8884 H 820.659 -5.0399 -0.0318024 0
M  V30 8885 H 820.261 -3.61555 0.956746 0
M  V30 8886 H 822.553 -6.7556 0.51231 0
M  V30 8887 H 823.496 -6.78189 2.03629 0
M  V30 8888 H 823.904 -5.59311 0.763622 0
M  V30 8889 N 823.302 -0.75937 -1.38099 0
M  V30 8890 C 824.549 -0.318113 -1.99986 0
M  V30 8891 C 824.877 1.10184 -1.6028 0
M  V30 8892 O 824.132 1.77015 -0.834524 0
M  V30 8893 C 824.431 -0.394999 -3.55211 0
M  V30 8894 C 824.097 -1.77143 -4.14646 0
M  V30 8895 C 822.759 -2.14811 -4.30592 0
M  V30 8896 C 825.111 -2.67407 -4.47373 0
M  V30 8897 C 822.439 -3.42203 -4.76565 0
M  V30 8898 C 824.791 -3.94196 -4.94765 0
M  V30 8899 C 823.455 -4.31925 -5.08918 0
M  V30 8900 H 822.725 -0.116406 -0.7318 0
M  V30 8901 H 825.372 -0.97098 -1.65058 0
M  V30 8902 H 823.677 0.341426 -3.9031 0
M  V30 8903 H 825.374 -0.0350722 -4.00985 0
M  V30 8904 H 821.964 -1.46864 -4.02652 0
M  V30 8905 H 826.148 -2.39569 -4.3465 0
M  V30 8906 H 821.404 -3.71346 -4.85708 0
M  V30 8907 H 825.578 -4.64276 -5.19057 0
M  V30 8908 H 823.205 -5.30699 -5.443 0
M  V30 8909 N 824.78 1.49157 -0.508906 0
M  V30 8910 C 826.027 2.02473 0.0327983 0
M  V30 8911 C 826.355 1.38792 1.36261 0
M  V30 8912 O 825.61 0.515576 1.88786 0
M  V30 8913 C 825.909 3.56687 0.225717 0
M  V30 8914 C 825.575 4.39046 -1.02708 0
M  V30 8915 C 824.237 4.61271 -1.37048 0
M  V30 8916 C 826.589 4.86902 -1.85946 0
M  V30 8917 C 823.917 5.28598 -2.54562 0
M  V30 8918 C 826.269 5.55521 -3.0262 0
M  V30 8919 C 824.933 5.7599 -3.3733 0
M  V30 8920 H 824.203 0.740903 0.0120017 0
M  V30 8921 H 826.85 1.79372 -0.670665 0
M  V30 8922 H 825.155 3.78511 1.01177 0
M  V30 8923 H 826.852 3.95541 0.659433 0
M  V30 8924 H 823.442 4.21994 -0.749615 0
M  V30 8925 H 827.626 4.69553 -1.6073 0
M  V30 8926 H 822.882 5.42646 -2.81682 0
M  V30 8927 H 827.056 5.91576 -3.67438 0
M  V30 8928 H 824.683 6.27934 -4.2849 0
M  V30 8929 N 826.258 0.243083 1.55714 0
M  V30 8930 C 827.206 -0.674349 2.2261 0
M  V30 8931 C 828.2 -1.18307 1.21243 0
M  V30 8932 O 829.406 -1.1404 1.39265 0
M  V30 8933 H 825.781 -0.235941 0.714028 0
M  V30 8934 H 827.752 -0.0869446 2.98273 0
M  V30 8935 C 826.501 -1.86206 2.93637 0
M  V30 8936 H 825.824 -1.47975 3.71407 0
M  V30 8937 H 827.264 -2.4813 3.43813 0
M  V30 8938 C 825.723 -2.73084 1.97298 0
M  V30 8939 O 826.253 -3.72497 1.50361 0
M  V30 8940 N 824.459 -2.39571 1.64482 0
M  V30 8941 H 824.006 -1.5878 2.02846 0
M  V30 8942 H 823.964 -2.97976 1.00288 0
M  V30 8943 N 827.736 -1.57571 -0.0300757 0
M  V30 8944 C 828.699 -2.05468 -1.01565 0
M  V30 8945 C 829.699 -0.958628 -1.29101 0
M  V30 8946 O 830.889 -1.22228 -1.24121 0
M  V30 8947 C 828.021 -2.47077 -2.34874 0
M  V30 8948 H 829.214 -2.93797 -0.601936 0
M  V30 8949 H 826.767 -1.53828 -0.276878 0
M  V30 8950 H 827.502 -1.61901 -2.80996 0
M  V30 8951 H 827.287 -3.27097 -2.16218 0
M  V30 8952 H 828.777 -2.84564 -3.05635 0
M  V30 8953 N 829.214 0.302327 -1.54673 0
M  V30 8954 C 830.46 1.03924 -1.74149 0
M  V30 8955 C 830.793 1.86968 -0.525041 0
M  V30 8956 O 830.068 1.88538 0.477868 0
M  V30 8957 C 830.351 1.94633 -3.02969 0
M  V30 8958 C 830.204 1.14778 -4.34909 0
M  V30 8959 C 831.523 2.93826 -3.27649 0
M  V30 8960 H 828.642 0.376405 -0.633631 0
M  V30 8961 H 831.284 0.314007 -1.87387 0
M  V30 8962 H 829.434 2.56471 -2.91813 0
M  V30 8963 H 831.106 0.552363 -4.57981 0
M  V30 8964 H 829.349 0.450462 -4.31455 0
M  V30 8965 H 830.02 1.81495 -5.21309 0
M  V30 8966 H 832.496 2.42117 -3.38406 0
M  V30 8967 H 831.372 3.54462 -4.19104 0
M  V30 8968 H 831.633 3.67416 -2.45882 0
M  V30 8969 N 830.692 1.47107 0.565454 0
M  V30 8970 C 831.639 1.58974 1.6732 0
M  V30 8971 C 832.609 0.433146 1.60353 0
M  V30 8972 O 833.794 0.652141 1.79309 0
M  V30 8973 C 830.934 1.60224 3.05651 0
M  V30 8974 C 830.047 2.86741 3.23116 0
M  V30 8975 C 829.182 2.79381 4.51796 0
M  V30 8976 C 828.221 4.0076 4.62664 0
M  V30 8977 N 827.358 3.91685 5.8269 0
M  V30 8978 H 832.198 2.53588 1.56515 0
M  V30 8979 H 829.735 1.25791 0.762558 0
M  V30 8980 H 831.693 1.58933 3.85741 0
M  V30 8981 H 830.323 0.691285 3.15311 0
M  V30 8982 H 829.375 2.97936 2.36513 0
M  V30 8983 H 830.687 3.7665 3.27011 0
M  V30 8984 H 829.841 2.76293 5.40136 0
M  V30 8985 H 828.58 1.87142 4.50366 0
M  V30 8986 H 827.585 4.04162 3.72738 0
M  V30 8987 H 828.81 4.94117 4.6586 0
M  V30 8988 H 826.756 3.02243 5.82224 0
M  V30 8989 H 826.673 4.75264 5.87929 0
M  V30 8990 H 827.941 3.92599 6.73414 0
M  V30 8991 N 832.17 -0.811516 1.35101 0
M  V30 8992 C 833.08 -1.95475 1.29718 0
M  V30 8993 C 834.096 -1.72813 0.202909 0
M  V30 8994 O 835.272 -1.96725 0.431414 0
M  V30 8995 C 832.337 -3.29975 1.06385 0
M  V30 8996 C 831.398 -3.65566 2.25077 0
M  V30 8997 C 830.631 -4.93648 2.02848 0
M  V30 8998 O 830.854 -5.617 0.992442 0
M  V30 8999 O 829.788 -5.27384 2.90087 0
M  V30 9000 H 833.614 -2.02961 2.25921 0
M  V30 9001 H 831.199 -0.948583 1.15422 0
M  V30 9002 H 833.081 -4.10506 0.951999 0
M  V30 9003 H 831.756 -3.2343 0.132294 0
M  V30 9004 H 830.663 -2.85432 2.41825 0
M  V30 9005 H 831.996 -3.7681 3.16662 0
M  V30 9006 N 833.648 -1.19017 -1.03309 0
M  V30 9007 C 834.896 -0.988258 -1.76289 0
M  V30 9008 C 835.217 0.482557 -1.88935 0
M  V30 9009 O 834.487 1.34969 -1.41987 0
M  V30 9010 H 833.067 -0.36267 -0.653054 0
M  V30 9011 H 835.729 -1.49836 -1.2464 0
M  V30 9012 H 834.825 -1.43273 -2.77271 0
M  V30 9013 N 835.127 1.22348 -0.993418 0
M  V30 9014 C 836.404 1.86632 -0.585495 0
M  V30 9015 C 836.784 1.89156 0.937187 0
M  V30 9016 O 836.132 1.38247 1.81934 0
M  V30 9017 C 836.342 3.27481 -1.20652 0
M  V30 9018 C 837.69 4.03971 -1.30738 0
M  V30 9019 O 838.714 3.3675 -1.16096 0
M  V30 9020 O 837.573 5.24302 -1.54173 0
M  V30 9021 H 834.667 0.802704 -0.198984 0
M  V30 9022 H 837.213 1.30122 -1.08933 0
M  V30 9023 H 835.985 3.20281 -2.24802 0
M  V30 9024 H 835.608 3.91597 -0.688312 0
M  V30 9025 N 836.605 0.766683 1.37694 0
M  V30 9026 C 837.833 0.339939 2.04088 0
M  V30 9027 C 838.248 -1.03617 1.57826 0
M  V30 9028 O 837.605 -1.6605 0.757214 0
M  V30 9029 C 837.656 0.368269 3.59619 0
M  V30 9030 O 837.377 1.69009 4.04188 0
M  V30 9031 C 838.878 -0.0707053 4.43244 0
M  V30 9032 H 836.098 0.143189 0.655544 0
M  V30 9033 H 838.642 1.03919 1.76128 0
M  V30 9034 H 836.797 -0.282359 3.8637 0
M  V30 9035 H 837.211 1.62523 4.98685 0
M  V30 9036 H 838.685 0.000273538 5.52 0
M  V30 9037 H 839.162 -1.1204 4.24669 0
M  V30 9038 H 839.768 0.551543 4.21709 0
M  V30 9039 N 838.083 -1.48885 0.516809 0
M  V30 9040 C 839.329 -2.02788 -0.0220928 0
M  V30 9041 C 839.662 -1.39433 -1.35175 0
M  V30 9042 O 838.937 -0.535459 -1.86984 0
M  V30 9043 C 839.22 -3.59753 -0.158012 0
M  V30 9044 C 839.073 -4.33611 1.19588 0
M  V30 9045 C 840.392 -4.30984 -0.891133 0
M  V30 9046 H 837.511 -0.736971 -0.00655488 0
M  V30 9047 H 840.153 -1.77746 0.671287 0
M  V30 9048 H 838.303 -3.8122 -0.748568 0
M  V30 9049 H 839.975 -4.23598 1.82653 0
M  V30 9050 H 838.218 -3.95547 1.78116 0
M  V30 9051 H 838.889 -5.41846 1.05391 0
M  V30 9052 H 841.365 -4.14267 -0.39012 0
M  V30 9053 H 840.241 -5.40527 -0.955107 0
M  V30 9054 H 840.502 -3.97336 -1.93847 0
M  V30 9055 N 839.561 -0.251338 -1.55583 0
M  V30 9056 C 840.81 0.372681 -1.98227 0
M  V30 9057 C 841.123 1.58743 -1.1428 0
M  V30 9058 O 842.329 2.28289 -1.46957 0
M  V30 9059 C 840.785 0.714439 -3.52738 0
M  V30 9060 C 840.393 -0.479168 -4.4543 0
M  V30 9061 C 842.137 1.3024 -4.04027 0
M  V30 9062 C 840.044 -0.113318 -5.91291 0
M  V30 9063 H 838.974 0.14302 -0.740312 0
M  V30 9064 H 841.625 -0.352253 -1.80087 0
M  V30 9065 H 840.007 1.49762 -3.66589 0
M  V30 9066 H 841.181 -1.25644 -4.4334 0
M  V30 9067 H 839.496 -0.982359 -4.04646 0
M  V30 9068 H 842.093 1.58953 -5.10527 0
M  V30 9069 H 842.436 2.22837 -3.51638 0
M  V30 9070 H 842.969 0.582024 -3.93519 0
M  V30 9071 H 839.708 -1.00654 -6.47726 0
M  V30 9072 H 839.228 0.627666 -5.96507 0
M  V30 9073 H 840.907 0.30293 -6.4629 0
M  V30 9074 N 841.039 1.57585 0.0217189 0
M  V30 9075 C 842.286 1.89606 0.711045 0
M  V30 9076 C 842.614 0.849535 1.74966 0
M  V30 9077 O 841.869 -0.14856 1.95135 0
M  V30 9078 C 842.168 3.28377 1.41079 0
M  V30 9079 C 841.834 4.48035 0.507454 0
M  V30 9080 C 840.496 4.80504 0.258672 0
M  V30 9081 C 842.848 5.21071 -0.115793 0
M  V30 9082 C 840.176 5.83393 -0.622013 0
M  V30 9083 C 842.528 6.24897 -0.984224 0
M  V30 9084 C 841.192 6.55836 -1.2424 0
M  V30 9085 H 840.462 0.693817 0.26019 0
M  V30 9086 H 843.109 1.91478 -0.0291424 0
M  V30 9087 H 841.414 3.22528 2.22448 0
M  V30 9088 H 843.111 3.50404 1.94982 0
M  V30 9089 H 839.701 4.22653 0.711516 0
M  V30 9090 H 843.885 4.96259 0.0634327 0
M  V30 9091 H 839.141 6.05736 -0.830267 0
M  V30 9092 H 843.315 6.8063 -1.47363 0
M  V30 9093 H 840.942 7.35383 -1.92653 0
M  V30 9094 N 842.517 -0.29412 1.54831 0
M  V30 9095 C 843.48 -1.3461 1.85507 0
M  V30 9096 C 844.48 -1.43359 0.728343 0
M  V30 9097 O 845.67 -1.42875 0.996609 0
M  V30 9098 C 842.802 -2.73012 2.0415 0
M  V30 9099 H 843.995 -1.08651 2.79526 0
M  V30 9100 H 841.548 -0.531138 1.46999 0
M  V30 9101 H 842.283 -3.04183 1.12441 0
M  V30 9102 H 842.068 -2.68051 2.86166 0
M  V30 9103 H 843.558 -3.49061 2.29229 0
M  V30 9104 N 843.995 -1.47404 -0.557645 0
M  V30 9105 C 845.22 -1.57868 -1.34508 0
M  V30 9106 C 845.645 -0.229151 -1.86699 0
M  V30 9107 O 845.003 0.794908 -1.62944 0
M  V30 9108 C 845.051 -2.60712 -2.49122 0
M  V30 9109 O 844.155 -2.15952 -3.51338 0
M  V30 9110 H 843.496 -0.530335 -0.399551 0
M  V30 9111 H 846.026 -1.93181 -0.673954 0
M  V30 9112 H 846.036 -2.81118 -2.95697 0
M  V30 9113 H 844.711 -3.58701 -2.10491 0
M  V30 9114 H 843.288 -2.05644 -3.11071 0
M  V30 9115 N 845.473 0.80434 -1.35529 0
M  V30 9116 C 846.75 1.5486 -1.1949 0
M  V30 9117 C 847.13 2.09897 0.22506 0
M  V30 9118 O 846.478 1.92643 1.22886 0
M  V30 9119 C 846.688 2.65535 -2.26478 0
M  V30 9120 C 848.036 3.33814 -2.62399 0
M  V30 9121 O 849.06 2.75807 -2.25409 0
M  V30 9122 O 847.919 4.38612 -3.26009 0
M  V30 9123 H 845.013 0.68433 -0.464351 0
M  V30 9124 H 847.559 0.844107 -1.47217 0
M  V30 9125 H 846.331 2.22754 -3.21709 0
M  V30 9126 H 845.954 3.43617 -2.00033 0
M  V30 9127 N 846.951 1.19563 1.02676 0
M  V30 9128 C 848.228 0.908857 1.73203 0
M  V30 9129 C 848.608 -0.584928 2.02834 0
M  V30 9130 O 847.956 -1.54372 1.68469 0
M  V30 9131 C 848.166 1.77105 3.00724 0
M  V30 9132 C 849.514 2.00667 3.7419 0
M  V30 9133 O 850.538 1.74274 3.10656 0
M  V30 9134 O 849.397 2.4518 4.88415 0
M  V30 9135 H 846.491 0.338909 0.754367 0
M  V30 9136 H 849.037 1.30387 1.08616 0
M  V30 9137 H 847.809 2.78303 2.7507 0
M  V30 9138 H 847.432 1.37546 3.73051 0
M  V30 9139 N 848.429 -1.21819 0.999893 0
M  V30 9140 C 849.339 -2.27691 0.565159 0
M  V30 9141 C 850.355 -1.69587 -0.389398 0
M  V30 9142 O 851.531 -1.99786 -0.254499 0
M  V30 9143 C 848.596 -3.46537 -0.106432 0
M  V30 9144 C 847.657 -4.19932 0.891964 0
M  V30 9145 C 846.89 -5.33103 0.252327 0
M  V30 9146 O 847.113 -5.62398 -0.952103 0
M  V30 9147 O 846.047 -5.94184 0.960698 0
M  V30 9148 H 849.873 -2.67059 1.44613 0
M  V30 9149 H 847.458 -1.28119 0.768499 0
M  V30 9150 H 849.34 -4.18631 -0.482301 0
M  V30 9151 H 848.015 -3.09079 -0.961865 0
M  V30 9152 H 846.922 -3.5008 1.3189 0
M  V30 9153 H 848.255 -4.61287 1.71682 0
M  V30 9154 N 849.908 -0.773975 -1.37286 0
M  V30 9155 C 850.84 -0.119938 -2.28886 0
M  V30 9156 C 851.853 0.661822 -1.48741 0
M  V30 9157 O 853.042 0.499548 -1.71367 0
M  V30 9158 C 850.142 0.853703 -3.27971 0
M  V30 9159 C 849.315 0.125286 -4.37221 0
M  V30 9160 C 848.374 1.01261 -5.16365 0
M  V30 9161 O 847.4 0.475565 -5.6721 0
M  V30 9162 N 848.602 2.33864 -5.31308 0
M  V30 9163 H 851.367 -0.906702 -2.85655 0
M  V30 9164 H 848.928 -0.626519 -1.49286 0
M  V30 9165 H 850.92 1.4508 -3.77801 0
M  V30 9166 H 849.49 1.54142 -2.71954 0
M  V30 9167 H 848.71 -0.652742 -3.88758 0
M  V30 9168 H 849.998 -0.377959 -5.07394 0
M  V30 9169 H 849.396 2.79929 -4.91585 0
M  V30 9170 H 847.953 2.88575 -5.84438 0
M  V30 9171 N 851.386 1.48609 -0.524698 0
M  V30 9172 C 852.663 1.95454 0.075465 0
M  V30 9173 C 853.043 1.46682 1.51814 0
M  V30 9174 O 852.391 0.690975 2.17802 0
M  V30 9175 C 852.601 3.48981 -0.0363273 0
M  V30 9176 C 853.949 4.24414 0.125624 0
M  V30 9177 O 854.973 3.5618 0.0377239 0
M  V30 9178 O 853.832 5.45625 0.309104 0
M  V30 9179 H 850.926 0.822902 0.0822256 0
M  V30 9180 H 853.472 1.59153 -0.588921 0
M  V30 9181 H 852.244 3.77185 -1.04149 0
M  V30 9182 H 851.867 3.91963 0.667146 0
M  V30 9183 N 852.864 0.259585 1.55447 0
M  V30 9184 C 854.28 -0.094961 1.59317 0
M  V30 9185 C 854.48 -1.55884 1.2768 0
M  V30 9186 O 853.536 -2.30528 1.0302 0
M  V30 9187 C 854.849 0.265669 2.99524 0
M  V30 9188 C 856.397 0.211007 3.12288 0
M  V30 9189 C 856.872 0.545851 4.54736 0
M  V30 9190 N 858.363 0.496823 4.60528 0
M  V30 9191 C 859.098 0.728909 5.68748 0
M  V30 9192 N 858.594 1.02479 6.85179 0
M  V30 9193 N 860.387 0.658756 5.58226 0
M  V30 9194 H 852.538 1.2141 1.7428 0
M  V30 9195 H 854.801 0.489404 0.811904 0
M  V30 9196 H 854.507 1.28316 3.27457 0
M  V30 9197 H 854.381 -0.401089 3.75061 0
M  V30 9198 H 856.768 -0.797172 2.84129 0
M  V30 9199 H 856.849 0.911799 2.38998 0
M  V30 9200 H 856.493 1.55164 4.83618 0
M  V30 9201 H 856.423 -0.17656 5.26304 0
M  V30 9202 H 858.914 0.277376 3.76881 0
M  V30 9203 H 859.227 1.18897 7.63599 0
M  V30 9204 H 857.572 1.0624 6.86832 0
M  V30 9205 H 860.763 0.427553 4.66143 0
M  V30 9206 H 860.936 0.84302 6.42493 0
M  V30 9207 N 854.342 -1.57594 -0.0133615 0
M  V30 9208 C 855.591 -1.8916 -0.700103 0
M  V30 9209 C 855.904 -0.860147 -1.75673 0
M  V30 9210 O 857.11 -1.06556 -2.49716 0
M  V30 9211 C 855.566 -3.35742 -1.29635 0
M  V30 9212 C 855.174 -4.47154 -0.275249 0
M  V30 9213 C 856.918 -3.76436 -1.96205 0
M  V30 9214 C 854.825 -5.84805 -0.880726 0
M  V30 9215 H 853.755 -0.705805 -0.265247 0
M  V30 9216 H 856.406 -1.83445 0.044993 0
M  V30 9217 H 854.788 -3.36252 -2.09167 0
M  V30 9218 H 855.962 -4.58139 0.494506 0
M  V30 9219 H 854.277 -4.15394 0.289256 0
M  V30 9220 H 856.874 -4.76606 -2.42386 0
M  V30 9221 H 857.217 -3.09249 -2.78695 0
M  V30 9222 H 857.75 -3.78168 -1.23426 0
M  V30 9223 H 854.489 -6.55431 -0.0949013 0
M  V30 9224 H 854.009 -5.7751 -1.61995 0
M  V30 9225 H 855.688 -6.32038 -1.38338 0
M  V30 9226 N 855.82 0.285905 -1.54985 0
M  V30 9227 C 856.75 1.35752 -1.89983 0
M  V30 9228 C 857.731 1.52163 -0.760295 0
M  V30 9229 O 858.916 1.65421 -1.01733 0
M  V30 9230 C 856.046 2.71925 -2.16042 0
M  V30 9231 C 855 2.70261 -3.31878 0
M  V30 9232 C 854.326 4.09864 -3.43388 0
M  V30 9233 C 855.626 2.30667 -4.68604 0
M  V30 9234 H 857.32 1.06709 -2.79738 0
M  V30 9235 H 854.866 0.511884 -1.34595 0
M  V30 9236 H 856.819 3.46992 -2.39113 0
M  V30 9237 H 855.543 3.02523 -1.23074 0
M  V30 9238 H 854.202 1.97651 -3.08755 0
M  V30 9239 H 853.85 4.37664 -2.47909 0
M  V30 9240 H 853.55 4.09648 -4.21262 0
M  V30 9241 H 855.074 4.86689 -3.68736 0
M  V30 9242 H 856.488 2.95453 -4.91305 0
M  V30 9243 H 854.885 2.41637 -5.49301 0
M  V30 9244 H 855.955 1.25793 -4.68299 0
M  V30 9245 N 857.298 1.47698 0.54982 0
M  V30 9246 C 858.544 1.55914 1.30624 0
M  V30 9247 C 858.899 0.221596 1.9112 0
M  V30 9248 O 858.192 -0.77351 1.75292 0
M  V30 9249 C 858.386 2.61903 2.4319 0
M  V30 9250 C 858.215 4.05833 1.93725 0
M  V30 9251 C 856.985 4.73199 1.77231 0
M  V30 9252 C 859.183 4.92624 1.47738 0
M  V30 9253 N 857.165 6.01618 1.22183 0
M  V30 9254 C 858.536 6.11129 1.04505 0
M  V30 9255 C 860.591 4.79006 1.35857 0
M  V30 9256 C 859.294 7.1752 0.505722 0
M  V30 9257 C 861.32 5.85501 0.833254 0
M  V30 9258 C 860.682 7.03201 0.410894 0
M  V30 9259 H 856.781 0.625194 0.469741 0
M  V30 9260 H 859.365 1.84485 0.622369 0
M  V30 9261 H 857.536 2.35188 3.09098 0
M  V30 9262 H 859.268 2.59919 3.102 0
M  V30 9263 H 856.023 4.29221 2.00166 0
M  V30 9264 H 856.447 6.70054 0.967263 0
M  V30 9265 H 861.089 3.88369 1.67122 0
M  V30 9266 H 858.807 8.07898 0.180721 0
M  V30 9267 H 862.393 5.77013 0.744781 0
M  V30 9268 H 861.273 7.84199 0.0107086 0
M  V30 9269 N 858.776 -0.797141 1.35954 0
M  V30 9270 C 860.022 -1.55698 1.29946 0
M  V30 9271 C 860.355 -1.93808 -0.123259 0
M  V30 9272 O 859.63 -1.62102 -1.07486 0
M  V30 9273 C 859.913 -2.83926 2.2149 0
M  V30 9274 C 859.766 -2.52232 3.72423 0
M  V30 9275 C 861.085 -3.85698 2.11955 0
M  V30 9276 H 858.204 -0.56488 0.47337 0
M  V30 9277 H 860.846 -0.916421 1.66438 0
M  V30 9278 H 858.996 -3.38588 1.905 0
M  V30 9279 H 860.668 -2.0368 4.13899 0
M  V30 9280 H 858.911 -1.85286 3.92239 0
M  V30 9281 H 859.582 -3.43782 4.31877 0
M  V30 9282 H 862.058 -3.40462 2.39218 0
M  V30 9283 H 860.934 -4.73182 2.78191 0
M  V30 9284 H 861.195 -4.28083 1.10442 0
M  V30 9285 N 860.254 -1.20106 -1.0204 0
M  V30 9286 C 861.186 -0.904236 -2.10609 0
M  V30 9287 C 862.199 0.106487 -1.62451 0
M  V30 9288 O 863.388 -0.124035 -1.78069 0
M  V30 9289 C 860.488 -0.333423 -3.37256 0
M  V30 9290 C 859.661 -1.39476 -4.14566 0
M  V30 9291 C 858.72 -0.835961 -5.19517 0
M  V30 9292 O 857.746 -1.51573 -5.48648 0
M  V30 9293 N 858.948 0.356531 -5.79404 0
M  V30 9294 H 861.713 -1.8388 -2.36661 0
M  V30 9295 H 859.274 -1.10422 -1.184 0
M  V30 9296 H 861.266 0.0544571 -4.04663 0
M  V30 9297 H 859.836 0.505608 -3.08484 0
M  V30 9298 H 859.056 -1.95714 -3.42184 0
M  V30 9299 H 860.344 -2.10967 -4.63001 0
M  V30 9300 H 859.742 0.926143 -5.58067 0
M  V30 9301 H 858.299 0.686093 -6.48179 0
M  V30 9302 N 861.732 1.21287 -1.00634 0
M  V30 9303 C 862.695 2.21927 -0.572821 0
M  V30 9304 C 863.695 1.5691 0.351541 0
M  V30 9305 O 864.885 1.73623 0.141643 0
M  V30 9306 C 862.017 3.40501 0.164932 0
M  V30 9307 H 863.21 2.61795 -1.463 0
M  V30 9308 H 860.763 1.34571 -0.794998 0
M  V30 9309 H 861.498 3.06123 1.07049 0
M  V30 9310 H 861.283 3.88912 -0.498962 0
M  V30 9311 H 862.773 4.15103 0.455945 0
M  V30 9312 N 863.21 0.781244 1.36873 0
M  V30 9313 C 864.143 0.120106 2.27884 0
M  V30 9314 C 865.121 -0.698961 1.4681 0
M  V30 9315 O 866.305 -0.671694 1.76126 0
M  V30 9316 C 863.432 -0.835804 3.28226 0
M  V30 9317 C 862.478 -0.0995527 4.26384 0
M  V30 9318 S 863.311 1.21903 5.2144 0
M  V30 9319 C 864.467 0.266904 6.25331 0
M  V30 9320 H 864.7 0.891796 2.83609 0
M  V30 9321 H 862.233 0.575075 1.43291 0
M  V30 9322 H 864.191 -1.3819 3.86541 0
M  V30 9323 H 862.852 -1.58068 2.71428 0
M  V30 9324 H 862.045 -0.82457 4.97209 0
M  V30 9325 H 861.647 0.375818 3.72107 0
M  V30 9326 H 863.939 -0.55725 6.75204 0
M  V30 9327 H 864.882 0.943603 7.01785 0
M  V30 9328 H 865.29 -0.126121 5.64359 0
M  V30 9329 N 864.689 -1.48329 0.532571 0
M  V30 9330 C 865.919 -2.066 0.00353785 0
M  V30 9331 C 866.327 -1.38913 -1.28451 0
M  V30 9332 O 865.67 -0.471385 -1.77549 0
M  V30 9333 C 865.732 -3.58342 -0.288324 0
M  V30 9334 C 865.396 -4.47917 0.906631 0
M  V30 9335 C 866.393 -4.87534 1.80572 0
M  V30 9336 C 864.078 -4.89783 1.11436 0
M  V30 9337 C 866.072 -5.6779 2.89642 0
M  V30 9338 C 863.759 -5.69809 2.20819 0
M  V30 9339 C 864.757 -6.08721 3.09755 0
M  V30 9340 O 864.445 -6.8714 4.17246 0
M  V30 9341 H 864.177 -0.675263 0.0315661 0
M  V30 9342 H 866.731 -1.91669 0.738375 0
M  V30 9343 H 864.961 -3.71395 -1.07717 0
M  V30 9344 H 866.65 -3.98726 -0.759752 0
M  V30 9345 H 867.416 -4.5581 1.65719 0
M  V30 9346 H 863.295 -4.58977 0.431382 0
M  V30 9347 H 866.839 -5.98082 3.59087 0
M  V30 9348 H 862.736 -6.00947 2.35655 0
M  V30 9349 H 863.504 -7.05498 4.14988 0
M  V30 9350 N 866.167 -0.267825 -1.55308 0
M  V30 9351 C 867.583 0.0865107 -1.59365 0
M  V30 9352 C 867.783 1.55205 -1.28505 0
M  V30 9353 O 866.839 2.29978 -1.04241 0
M  V30 9354 C 868.152 -0.28155 -2.99379 0
M  V30 9355 C 869.7 -0.227565 -3.12172 0
M  V30 9356 C 870.175 -0.569959 -4.5444 0
M  V30 9357 N 871.666 -0.521238 -4.60258 0
M  V30 9358 C 872.401 -0.759061 -5.68354 0
M  V30 9359 N 871.897 -1.06112 -6.84626 0
M  V30 9360 N 873.69 -0.688351 -5.57869 0
M  V30 9361 H 865.841 -1.22332 -1.73633 0
M  V30 9362 H 868.104 -0.493703 -0.809297 0
M  V30 9363 H 867.81 -1.3005 -3.26772 0
M  V30 9364 H 867.684 0.381192 -3.75269 0
M  V30 9365 H 870.071 0.782093 -2.84548 0
M  V30 9366 H 870.152 -0.924461 -2.38511 0
M  V30 9367 H 869.796 -1.57727 -4.82788 0
M  V30 9368 H 869.726 0.148646 -5.2639 0
M  V30 9369 H 872.217 -0.297359 -3.76728 0
M  V30 9370 H 872.53 -1.22945 -7.62958 0
M  V30 9371 H 870.875 -1.09881 -6.86259 0
M  V30 9372 H 874.066 -0.452268 -4.6591 0
M  V30 9373 H 874.239 -0.877081 -6.42037 0
M  V30 9374 N 867.645 1.57599 0.00500368 0
M  V30 9375 C 868.608 2.07058 0.982832 0
M  V30 9376 C 869.608 0.979045 1.27559 0
M  V30 9377 O 870.798 1.24187 1.22161 0
M  V30 9378 C 867.93 2.50782 2.30914 0
M  V30 9379 H 869.123 2.94718 0.555119 0
M  V30 9380 H 866.676 1.54249 0.25237 0
M  V30 9381 H 867.411 1.66351 2.78385 0
M  V30 9382 H 867.196 3.30495 2.10987 0
M  V30 9383 H 868.686 2.89391 3.0107 0
M  V30 9384 N 869.123 -0.277682 1.55134 0
M  V30 9385 C 870.351 -1.02826 1.7954 0
M  V30 9386 C 870.766 -1.80105 0.566373 0
M  V30 9387 O 870.123 -1.76491 -0.464448 0
M  V30 9388 C 870.174 -1.99053 3.01762 0
M  V30 9389 O 869.895 -1.24906 4.19917 0
M  V30 9390 C 871.396 -2.85961 3.38735 0
M  V30 9391 H 868.616 -0.303958 0.598206 0
M  V30 9392 H 871.16 -0.309884 2.02138 0
M  V30 9393 H 869.315 -2.66359 2.81303 0
M  V30 9394 H 869.729 -1.89725 4.88983 0
M  V30 9395 H 871.203 -3.49286 4.27438 0
M  V30 9396 H 871.68 -3.55486 2.57928 0
M  V30 9397 H 872.286 -2.24152 3.61436 0
M  V30 9398 N 870.601 -1.47988 -0.541979 0
M  V30 9399 C 871.849 -1.55086 -1.29587 0
M  V30 9400 C 872.17 -0.221304 -1.9374 0
M  V30 9401 O 871.44 0.756128 -1.80719 0
M  V30 9402 H 870.02 -0.571307 -0.481266 0
M  V30 9403 H 872.682 -1.8438 -0.631675 0
M  V30 9404 H 871.778 -2.32556 -2.08144 0
M  V30 9405 N 872.079 0.78992 -1.36375 0
M  V30 9406 C 873.011 1.91113 -1.26524 0
M  V30 9407 C 874.024 1.61747 -0.184851 0
M  V30 9408 O 875.213 1.73004 -0.439524 0
M  V30 9409 C 872.313 3.25908 -0.92937 0
M  V30 9410 C 871.486 3.83057 -2.11154 0
M  V30 9411 C 870.545 4.96289 -1.74881 0
M  V30 9412 O 869.571 5.12834 -2.46962 0
M  V30 9413 N 870.773 5.76478 -0.682193 0
M  V30 9414 H 873.538 2.00085 -2.23128 0
M  V30 9415 H 871.099 0.968165 -1.29762 0
M  V30 9416 H 873.091 3.99151 -0.667884 0
M  V30 9417 H 871.661 3.12556 -0.0524843 0
M  V30 9418 H 870.881 3.01808 -2.53586 0
M  V30 9419 H 872.169 4.1797 -2.90135 0
M  V30 9420 H 871.567 5.65638 -0.0836661 0
M  V30 9421 H 870.124 6.50026 -0.480529 0
M  V30 9422 N 873.557 1.20646 1.01402 0
M  V30 9423 C 874.782 1.04462 1.79172 0
M  V30 9424 C 875.207 -0.401588 1.83763 0
M  V30 9425 O 874.565 -1.28934 1.27459 0
M  V30 9426 C 874.613 1.63583 3.21361 0
M  V30 9427 O 873.717 0.875198 4.03006 0
M  V30 9428 H 873.058 0.368235 0.552539 0
M  V30 9429 H 875.588 1.59994 1.27526 0
M  V30 9430 H 875.598 1.67426 3.72065 0
M  V30 9431 H 874.273 2.68835 3.17334 0
M  V30 9432 H 872.85 0.911172 3.61597 0
M  V30 9433 N 875.035 -1.20752 1.01276 0
M  V30 9434 C 876.265 -1.93725 0.717934 0
M  V30 9435 C 876.673 -1.74769 -0.724732 0
M  V30 9436 O 876.016 -1.05642 -1.50285 0
M  V30 9437 C 876.078 -3.46196 0.968954 0
M  V30 9438 C 875.742 -3.88909 2.39998 0
M  V30 9439 C 876.739 -3.94982 3.38061 0
M  V30 9440 C 874.424 -4.21006 2.7397 0
M  V30 9441 C 876.418 -4.32558 4.68159 0
M  V30 9442 C 874.105 -4.58257 4.04282 0
M  V30 9443 C 875.103 -4.64004 5.01187 0
M  V30 9444 O 874.791 -5.00403 6.29168 0
M  V30 9445 H 874.523 -0.622663 0.263186 0
M  V30 9446 H 877.077 -1.54299 1.35577 0
M  V30 9447 H 875.307 -3.85728 0.273952 0
M  V30 9448 H 876.996 -4.00394 0.666312 0
M  V30 9449 H 877.762 -3.70353 3.13151 0
M  V30 9450 H 873.641 -4.15725 1.99233 0
M  V30 9451 H 877.185 -4.36959 5.43795 0
M  V30 9452 H 873.082 -4.82341 4.28973 0
M  V30 9453 H 873.85 -5.18409 6.33399 0
M  V30 9454 N 876.513 -0.788492 -1.36457 0
M  V30 9455 C 877.46 -0.18435 -2.30063 0
M  V30 9456 C 878.43 0.67128 -1.51931 0
M  V30 9457 O 879.615 0.620152 -1.8044 0
M  V30 9458 C 876.755 0.675596 -3.38422 0
M  V30 9459 C 875.868 -0.198475 -4.31544 0
M  V30 9460 C 875.003 0.667757 -5.26986 0
M  V30 9461 C 874.042 -0.207825 -6.11747 0
M  V30 9462 N 873.179 0.617335 -6.99381 0
M  V30 9463 H 878.019 -0.988056 -2.81143 0
M  V30 9464 H 875.556 -0.498815 -1.38384 0
M  V30 9465 H 877.514 1.18916 -3.99894 0
M  V30 9466 H 876.144 1.44474 -2.88664 0
M  V30 9467 H 875.196 -0.829995 -3.71235 0
M  V30 9468 H 876.508 -0.873163 -4.91098 0
M  V30 9469 H 875.662 1.24716 -5.93743 0
M  V30 9470 H 874.401 1.37607 -4.67884 0
M  V30 9471 H 873.406 -0.799638 -5.43954 0
M  V30 9472 H 874.631 -0.913729 -6.72925 0
M  V30 9473 H 872.577 1.30996 -6.42788 0
M  V30 9474 H 872.494 0.000307255 -7.56 0
M  V30 9475 H 873.762 1.1806 -7.70508 0
M  V30 9476 N 877.991 1.48044 -0.54043 0
M  V30 9477 C 879.402 1.86418 -0.102662 0
M  V30 9478 C 879.753 1.4489 1.32293 0
M  V30 9479 O 878.878 0.844319 1.99249 0
M  V30 9480 C 879.473 3.38324 -0.179533 0
M  V30 9481 C 878.032 3.75852 0.203098 0
M  V30 9482 C 877.179 2.72097 -0.534637 0
M  V30 9483 H 880.13 1.398 -0.751103 0
M  V30 9484 H 880.151 3.75641 0.606147 0
M  V30 9485 H 879.663 3.68518 -1.21721 0
M  V30 9486 H 877.764 3.51272 1.24252 0
M  V30 9487 H 877.877 4.78884 -0.143784 0
M  V30 9488 H 876.241 2.54692 0.0203358 0
M  V30 9489 H 877.024 3.05135 -1.57314 0
M  V30 9490 N 879.47 0.276058 1.55163 0
M  V30 9491 C 880.716 -0.340959 1.99913 0
M  V30 9492 C 881.049 -1.55434 1.16422 0
M  V30 9493 O 880.324 -1.93081 0.234517 0
M  V30 9494 C 880.607 -0.722211 3.52783 0
M  V30 9495 C 880.46 0.498575 4.47028 0
M  V30 9496 C 881.779 -1.5583 4.11589 0
M  V30 9497 H 878.898 -0.122455 0.726756 0
M  V30 9498 H 881.54 0.38319 1.86096 0
M  V30 9499 H 879.69 -1.33919 3.64689 0
M  V30 9500 H 881.362 1.13713 4.47065 0
M  V30 9501 H 879.605 1.13646 4.18649 0
M  V30 9502 H 880.276 0.188041 5.5168 0
M  V30 9503 H 882.752 -1.03722 4.02965 0
M  V30 9504 H 881.628 -1.79387 5.1876 0
M  V30 9505 H 881.889 -2.53963 3.61877 0
M  V30 9506 N 880.948 -1.576 0.00335426 0
M  V30 9507 C 882.359 -1.7875 -0.539008 0
M  V30 9508 C 882.71 -0.911097 -1.73763 0
M  V30 9509 O 881.835 -0.114476 -2.16097 0
M  V30 9510 C 882.43 -3.24177 -0.984611 0
M  V30 9511 C 880.989 -3.46412 -1.47226 0
M  V30 9512 C 880.136 -2.74024 -0.425004 0
M  V30 9513 H 883.087 -1.57032 0.229511 0
M  V30 9514 H 883.108 -3.32474 -1.85044 0
M  V30 9515 H 882.62 -3.87938 -0.112035 0
M  V30 9516 H 880.721 -2.8787 -2.36562 0
M  V30 9517 H 880.834 -4.55098 -1.49741 0
M  V30 9518 H 879.198 -2.38741 -0.887394 0
M  V30 9519 H 879.981 -3.40486 0.438662 0
M  V30 9520 N 882.426 0.269451 -1.5528 0
M  V30 9521 C 883.389 1.31642 -1.87625 0
M  V30 9522 C 884.389 1.42182 -0.751058 0
M  V30 9523 O 885.579 1.41272 -1.01921 0
M  V30 9524 C 882.711 2.6973 -2.08467 0
M  V30 9525 H 883.904 1.0419 -2.81219 0
M  V30 9526 H 881.457 0.507685 -1.47825 0
M  V30 9527 H 882.192 3.02356 -1.17266 0
M  V30 9528 H 881.977 2.63465 -2.90394 0
M  V30 9529 H 883.467 3.4537 -2.34753 0
M  V30 9530 N 883.904 1.48273 0.534124 0
M  V30 9531 C 885.153 1.55334 1.28663 0
M  V30 9532 C 885.466 0.230345 1.94239 0
M  V30 9533 O 886.672 0.179161 2.70908 0
M  V30 9534 C 885.128 2.73927 2.33435 0
M  V30 9535 C 884.736 4.12852 1.73947 0
M  V30 9536 C 886.48 2.90298 3.09722 0
M  V30 9537 C 884.387 5.22711 2.76636 0
M  V30 9538 H 883.317 0.578262 0.483869 0
M  V30 9539 H 885.968 1.74598 0.564602 0
M  V30 9540 H 884.35 2.48089 3.08655 0
M  V30 9541 H 885.524 4.48691 1.04944 0
M  V30 9542 H 883.839 4.01562 1.10167 0
M  V30 9543 H 886.436 3.69542 3.86449 0
M  V30 9544 H 886.779 1.99598 3.6533 0
M  V30 9545 H 887.312 3.16017 2.41616 0
M  V30 9546 H 884.051 6.15362 2.25852 0
M  V30 9547 H 883.571 4.91364 3.43979 0
M  V30 9548 H 885.25 5.50648 3.39699 0
M  V30 9549 N 885.382 -0.782676 1.36792 0
M  V30 9550 C 886.314 -1.9044 1.27536 0
M  V30 9551 C 887.327 -1.61647 0.193426 0
M  V30 9552 O 888.516 -1.72769 0.448692 0
M  V30 9553 C 885.616 -3.2541 0.946641 0
M  V30 9554 C 884.789 -3.81932 2.13183 0
M  V30 9555 C 883.848 -4.95355 1.7751 0
M  V30 9556 O 882.874 -5.11517 2.49678 0
M  V30 9557 N 884.076 -5.76108 0.712755 0
M  V30 9558 H 886.841 -1.98899 2.24186 0
M  V30 9559 H 884.402 -0.96127 1.30274 0
M  V30 9560 H 886.394 -3.98791 0.689043 0
M  V30 9561 H 884.964 -3.12524 0.0690591 0
M  V30 9562 H 884.184 -3.00459 2.55183 0
M  V30 9563 H 885.472 -4.16426 2.92347 0
M  V30 9564 H 884.87 -5.65586 0.113662 0
M  V30 9565 H 883.427 -6.49762 0.514995 0
M  V30 9566 N 886.86 -1.21182 -1.00761 0
M  V30 9567 C 888.088 -1.05335 -1.78079 0
M  V30 9568 C 888.503 0.396988 -1.84579 0
M  V30 9569 O 887.86 1.27548 -1.30529 0
M  V30 9570 C 887.911 -1.64089 -3.22113 0
M  V30 9571 O 887.632 -3.03448 -3.15992 0
M  V30 9572 C 889.133 -1.53318 -4.15943 0
M  V30 9573 H 886.353 -0.37005 -0.559736 0
M  V30 9574 H 888.897 -1.60463 -1.26775 0
M  V30 9575 H 887.052 -1.13059 -3.70535 0
M  V30 9576 H 887.466 -3.31492 -4.06465 0
M  V30 9577 H 888.94 -1.99174 -5.14814 0
M  V30 9578 H 889.417 -0.487166 -4.3649 0
M  V30 9579 H 890.023 -2.03582 -3.73409 0
M  V30 9580 N 888.338 1.20213 -1.01915 0
M  V30 9581 C 889.27 2.2251 -0.549725 0
M  V30 9582 C 890.283 1.58558 0.369235 0
M  V30 9583 O 891.472 1.77715 0.167176 0
M  V30 9584 C 888.572 3.38189 0.219432 0
M  V30 9585 C 887.745 4.31729 -0.702066 0
M  V30 9586 C 886.804 5.26196 0.0199624 0
M  V30 9587 O 885.83 5.65993 -0.60339 0
M  V30 9588 N 887.032 5.65895 1.29397 0
M  V30 9589 H 889.797 2.63412 -1.42948 0
M  V30 9590 H 887.358 1.3478 -0.896987 0
M  V30 9591 H 889.35 3.98392 0.711763 0
M  V30 9592 H 887.92 2.96156 1.00051 0
M  V30 9593 H 887.14 3.69455 -1.37466 0
M  V30 9594 H 888.428 4.91145 -1.3287 0
M  V30 9595 H 887.826 5.35579 1.8213 0
M  V30 9596 H 886.383 6.28395 1.73098 0
M  V30 9597 N 889.816 0.795718 1.36037 0
M  V30 9598 C 890.763 0.196548 2.29962 0
M  V30 9599 C 891.733 -0.663213 1.52285 0
M  V30 9600 O 892.918 -0.610574 1.80767 0
M  V30 9601 C 890.058 -0.657639 3.38776 0
M  V30 9602 C 889.171 0.221358 4.31433 0
M  V30 9603 C 888.306 -0.6398 5.27333 0
M  V30 9604 C 887.345 0.240265 6.11628 0
M  V30 9605 N 886.482 -0.580237 6.99698 0
M  V30 9606 H 891.322 1.00295 2.80615 0
M  V30 9607 H 888.859 0.506147 1.38118 0
M  V30 9608 H 890.817 -1.16793 4.00519 0
M  V30 9609 H 889.447 -1.42941 2.89426 0
M  V30 9610 H 888.499 0.84967 3.70789 0
M  V30 9611 H 889.811 0.899195 4.90628 0
M  V30 9612 H 888.965 -1.21566 5.94396 0
M  V30 9613 H 887.704 -1.35124 4.68607 0
M  V30 9614 H 886.709 0.828474 5.43522 0
M  V30 9615 H 887.934 0.949403 6.72431 0
M  V30 9616 H 885.88 -1.27585 6.43473 0
M  V30 9617 H 885.797 0.0397853 7.5599 0
M  V30 9618 H 887.065 -1.13972 7.71123 0
M  V30 9619 N 891.294 -1.47756 0.548274 0
M  V30 9620 C 892.224 -2.32702 -0.19284 0
M  V30 9621 C 893.205 -1.43237 -0.917457 0
M  V30 9622 O 894.39 -1.72103 -0.89967 0
M  V30 9623 C 891.52 -3.24831 -1.22891 0
M  V30 9624 C 890.474 -4.23466 -0.621312 0
M  V30 9625 C 889.8 -5.04856 -1.76137 0
M  V30 9626 C 891.1 -5.20616 0.419055 0
M  V30 9627 H 892.794 -2.94914 0.516323 0
M  V30 9628 H 890.34 -1.41818 0.24975 0
M  V30 9629 H 892.293 -3.83094 -1.75547 0
M  V30 9630 H 891.017 -2.60656 -1.9679 0
M  V30 9631 H 889.676 -3.66416 -0.116123 0
M  V30 9632 H 889.324 -4.37091 -2.48918 0
M  V30 9633 H 889.024 -5.71629 -1.36065 0
M  V30 9634 H 890.548 -5.65976 -2.29136 0
M  V30 9635 H 891.962 -5.73296 -0.0211034 0
M  V30 9636 H 890.359 -5.95543 0.738163 0
M  V30 9637 H 891.429 -4.66638 1.31822 0
M  V30 9638 N 892.772 -0.284283 -1.55015 0
M  V30 9639 C 893.72 0.615091 -2.2432 0
M  V30 9640 C 894.714 1.15051 -1.24337 0
M  V30 9641 O 895.92 1.10308 -1.4224 0
M  V30 9642 H 892.295 0.216927 -0.720033 0
M  V30 9643 H 894.266 0.00783216 -2.98399 0
M  V30 9644 C 893.015 1.78355 -2.98471 0
M  V30 9645 H 892.338 1.38076 -3.752 0
M  V30 9646 H 893.778 2.38927 -3.50271 0
M  V30 9647 C 892.237 2.67757 -2.04469 0
M  V30 9648 O 892.767 3.6838 -1.60185 0
M  V30 9649 N 890.973 2.35125 -1.70776 0
M  V30 9650 H 890.52 1.53346 -2.06985 0
M  V30 9651 H 890.478 2.95212 -1.08153 0
M  V30 9652 N 894.251 1.57596 -0.0117121 0
M  V30 9653 C 895.662 1.79033 0.529521 0
M  V30 9654 C 896.013 0.920299 1.73277 0
M  V30 9655 O 895.138 0.125934 2.16033 0
M  V30 9656 C 895.733 3.24695 0.967405 0
M  V30 9657 C 894.292 3.47188 1.45387 0
M  V30 9658 C 893.439 2.74245 0.410466 0
M  V30 9659 H 896.39 1.56908 -0.237836 0
M  V30 9660 H 896.411 3.33451 1.83278 0
M  V30 9661 H 895.923 3.87992 0.0914605 0
M  V30 9662 H 894.024 2.89121 2.35032 0
M  V30 9663 H 894.137 4.55886 1.47325 0
M  V30 9664 H 892.501 2.39209 0.874721 0
M  V30 9665 H 893.284 3.40248 -0.456713 0
M  V30 9666 N 895.729 -0.261212 1.5542 0
M  V30 9667 C 896.676 -1.32315 1.89107 0
M  V30 9668 C 897.646 -1.48517 0.743767 0
M  V30 9669 O 898.831 -1.62733 0.996123 0
M  V30 9670 C 895.971 -2.67626 2.17877 0
M  V30 9671 C 895.084 -2.59549 3.45338 0
M  V30 9672 C 894.219 -3.87118 3.63748 0
M  V30 9673 C 893.258 -3.736 4.8486 0
M  V30 9674 N 892.395 -4.93029 4.99867 0
M  V30 9675 H 897.235 -1.02886 2.79675 0
M  V30 9676 H 894.772 -0.496812 1.38456 0
M  V30 9677 H 896.73 -3.4637 2.32559 0
M  V30 9678 H 895.36 -2.95232 1.30529 0
M  V30 9679 H 894.412 -1.72452 3.39064 0
M  V30 9680 H 895.724 -2.45465 4.34222 0
M  V30 9681 H 894.878 -4.74305 3.78312 0
M  V30 9682 H 893.617 -4.04084 2.73071 0
M  V30 9683 H 892.622 -2.84797 4.70288 0
M  V30 9684 H 893.847 -3.58143 5.76984 0
M  V30 9685 H 891.793 -5.10383 4.12123 0
M  V30 9686 H 891.71 -4.81521 5.82815 0
M  V30 9687 H 892.978 -5.81754 5.18828 0
M  V30 9688 N 897.207 -1.48554 -0.526253 0
M  V30 9689 C 898.455 -1.56452 -1.27935 0
M  V30 9690 C 898.776 -0.24184 -1.93495 0
M  V30 9691 O 898.046 0.736917 -1.81511 0
M  V30 9692 H 896.626 -0.576379 -0.47518 0
M  V30 9693 H 899.288 -1.85039 -0.612083 0
M  V30 9694 H 898.384 -2.34751 -2.05666 0
M  V30 9695 N 898.685 0.775411 -1.37205 0
M  V30 9696 C 899.933 1.53081 -1.3195 0
M  V30 9697 C 900.254 1.9476 0.0966864 0
M  V30 9698 O 899.524 1.66019 1.03993 0
M  V30 9699 H 898.104 0.567762 -0.485444 0
M  V30 9700 H 900.766 0.92309 -1.71654 0
M  V30 9701 H 899.862 2.4319 -1.95614 0
M  V30 9702 N 900.163 1.21714 1.00117 0
M  V30 9703 C 901.391 1.06278 1.77518 0
M  V30 9704 C 901.806 -0.387193 1.84787 0
M  V30 9705 O 901.163 -1.26854 1.31203 0
M  V30 9706 C 901.214 1.65795 3.21239 0
M  V30 9707 O 900.935 3.05119 3.14378 0
M  V30 9708 C 902.436 1.55521 4.15124 0
M  V30 9709 H 899.656 0.373013 0.557765 0
M  V30 9710 H 902.2 1.61133 1.25922 0
M  V30 9711 H 900.355 1.15022 3.69931 0
M  V30 9712 H 900.769 3.33643 4.04701 0
M  V30 9713 H 902.243 2.01902 5.13751 0
M  V30 9714 H 902.72 0.510307 4.36225 0
M  V30 9715 H 903.326 2.0556 3.72324 0
M  V30 9716 N 901.641 -1.19671 1.02551 0
M  V30 9717 C 902.571 -2.25009 0.623965 0
M  V30 9718 C 903.552 -1.66129 -0.36538 0
M  V30 9719 O 904.737 -1.92599 -0.248842 0
M  V30 9720 C 901.867 -3.47287 -0.0294869 0
M  V30 9721 C 900.821 -4.18818 0.881781 0
M  V30 9722 C 900.147 -5.34618 0.0936189 0
M  V30 9723 C 901.447 -4.73986 2.19396 0
M  V30 9724 H 903.141 -2.58851 1.50454 0
M  V30 9725 H 900.687 -1.24425 0.724872 0
M  V30 9726 H 902.64 -4.20168 -0.322016 0
M  V30 9727 H 901.364 -3.12635 -0.944838 0
M  V30 9728 H 900.023 -3.47815 1.15845 0
M  V30 9729 H 899.671 -4.9621 -0.823661 0
M  V30 9730 H 899.371 -5.83409 0.700568 0
M  V30 9731 H 900.895 -6.10297 -0.192249 0
M  V30 9732 H 902.309 -5.38639 1.96319 0
M  V30 9733 H 900.706 -5.3325 2.75254 0
M  V30 9734 H 901.776 -3.92238 2.85092 0
M  V30 9735 N 903.119 -0.802921 -1.35613 0
M  V30 9736 C 904.069 -0.183492 -2.2726 0
M  V30 9737 C 905.053 0.640527 -1.47601 0
M  V30 9738 O 906.245 0.498386 -1.69838 0
M  V30 9739 C 903.374 0.67003 -3.36698 0
M  V30 9740 C 902.46 -0.163517 -4.23785 0
M  V30 9741 N 902.851 -1.22472 -4.90749 0
M  V30 9742 C 901.149 0.0554547 -4.45966 0
M  V30 9743 C 901.85 -1.73329 -5.55276 0
M  V30 9744 N 900.826 -1.04033 -5.33552 0
M  V30 9745 H 904.628 -0.995525 -2.76526 0
M  V30 9746 H 902.142 -0.643714 -1.49098 0
M  V30 9747 H 904.139 1.12981 -4.01299 0
M  V30 9748 H 902.799 1.48045 -2.88986 0
M  V30 9749 H 903.81 -1.60733 -4.92327 0
M  V30 9750 H 900.487 0.835312 -4.09058 0
M  V30 9751 H 901.877 -2.62 -6.18713 0
M  V30 9752 N 904.597 1.47463 -0.556102 0
M  V30 9753 C 905.56 2.28478 0.181743 0
M  V30 9754 C 906.56 1.36886 0.843738 0
M  V30 9755 O 907.75 1.59527 0.69977 0
M  V30 9756 C 904.882 3.16534 1.26566 0
M  V30 9757 H 906.075 2.95182 -0.529892 0
M  V30 9758 H 903.628 1.53134 -0.313005 0
M  V30 9759 H 904.363 2.5452 2.00973 0
M  V30 9760 H 904.148 3.83939 0.795798 0
M  V30 9761 H 905.638 3.77579 1.78393 0
M  V30 9762 N 906.075 0.2925 1.54862 0
M  V30 9763 C 907.352 -0.371946 1.92031 0
M  V30 9764 C 907.732 -1.72363 1.21878 0
M  V30 9765 O 907.08 -2.25779 0.351573 0
M  V30 9766 C 907.29 -0.495027 3.45471 0
M  V30 9767 C 908.638 -0.769855 4.17562 0
M  V30 9768 O 909.662 -0.579168 3.5146 0
M  V30 9769 O 908.521 -1.13561 5.34571 0
M  V30 9770 H 905.615 -0.206463 0.800813 0
M  V30 9771 H 908.161 0.339933 1.6626 0
M  V30 9772 H 906.933 0.455528 3.88639 0
M  V30 9773 H 906.556 -1.2557 3.7725 0
M  V30 9774 N 907.553 -1.57587 0.0200696 0
M  V30 9775 C 908.516 -2.08595 -0.949767 0
M  V30 9776 C 909.516 -0.999215 -1.25985 0
M  V30 9777 O 910.706 -1.26115 -1.2017 0
M  V30 9778 C 907.838 -2.54424 -2.26895 0
M  V30 9779 H 909.031 -2.95563 -0.508161 0
M  V30 9780 H 906.584 -1.54631 -0.227798 0
M  V30 9781 H 907.319 -1.70758 -2.75703 0
M  V30 9782 H 907.104 -3.3381 -2.05702 0
M  V30 9783 H 908.594 -2.94144 -2.96427 0
M  V30 9784 N 909.032 0.252966 -1.55557 0
M  V30 9785 C 909.964 1.33585 -1.86246 0
M  V30 9786 C 910.977 1.44584 -0.748291 0
M  V30 9787 O 912.166 1.46042 -1.02635 0
M  V30 9788 C 909.266 2.71509 -2.02821 0
M  V30 9789 C 908.439 2.82853 -3.33636 0
M  V30 9790 C 907.498 4.01581 -3.40028 0
M  V30 9791 O 906.524 3.91394 -4.13278 0
M  V30 9792 N 907.726 5.14474 -2.6888 0
M  V30 9793 H 910.491 1.07596 -2.7972 0
M  V30 9794 H 908.052 0.443075 -1.55719 0
M  V30 9795 H 910.044 3.49262 -2.04445 0
M  V30 9796 H 908.614 2.90232 -1.1612 0
M  V30 9797 H 907.834 1.91823 -3.4438 0
M  V30 9798 H 909.122 2.87378 -4.19871 0
M  V30 9799 H 908.52 5.25641 -2.09087 0
M  V30 9800 H 907.077 5.90385 -2.76204 0
M  V30 9801 N 910.51 1.48831 0.518367 0
M  V30 9802 C 911.44 1.67119 1.63075 0
M  V30 9803 C 912.421 0.519948 1.61958 0
M  V30 9804 O 913.606 0.753824 1.78972 0
M  V30 9805 C 910.736 1.72158 3.01627 0
M  V30 9806 C 909.69 2.86898 3.17606 0
M  V30 9807 C 909.016 2.77035 4.57335 0
M  V30 9808 C 910.316 4.28057 2.99274 0
M  V30 9809 H 912.01 2.60248 1.48025 0
M  V30 9810 H 909.556 1.2524 0.710694 0
M  V30 9811 H 911.509 1.83539 3.7933 0
M  V30 9812 H 910.233 0.756157 3.17726 0
M  V30 9813 H 908.892 2.75091 2.42323 0
M  V30 9814 H 908.54 1.78438 4.70286 0
M  V30 9815 H 908.24 3.54036 4.6897 0
M  V30 9816 H 909.764 2.904 5.37122 0
M  V30 9817 H 911.178 4.40636 3.6676 0
M  V30 9818 H 909.575 5.06145 3.22393 0
M  V30 9819 H 910.645 4.4371 1.95574 0
M  V30 9820 N 911.988 -0.768124 1.37614 0
M  V30 9821 C 913.213 -1.56239 1.36397 0
M  V30 9822 C 913.638 -1.8804 -0.0475839 0
M  V30 9823 O 912.996 -1.495 -1.02564 0
M  V30 9824 C 913.044 -2.84716 2.21289 0
M  V30 9825 O 912.148 -3.79249 1.62001 0
M  V30 9826 H 911.489 -0.473119 0.465891 0
M  V30 9827 H 914.019 -0.950415 1.81186 0
M  V30 9828 H 914.029 -3.33784 2.34632 0
M  V30 9829 H 912.704 -2.60899 3.2389 0
M  V30 9830 H 911.281 -3.37904 1.57719 0
M  V30 9831 N 913.466 -1.22244 -0.994698 0
M  V30 9832 C 914.714 -1.04384 -1.73056 0
M  V30 9833 C 915.035 0.422204 -1.90374 0
M  V30 9834 O 914.305 1.30383 -1.46209 0
M  V30 9835 H 912.885 -0.383263 -0.641185 0
M  V30 9836 H 915.547 -1.53725 -1.1981 0
M  V30 9837 H 914.643 -1.52021 -2.72573 0
M  V30 9838 N 914.944 1.19125 -1.03184 0
M  V30 9839 C 915.891 2.2245 -0.6152 0
M  V30 9840 C 916.861 1.61869 0.372502 0
M  V30 9841 O 918.046 1.88901 0.268491 0
M  V30 9842 C 915.186 3.45091 0.0248027 0
M  V30 9843 C 914.299 4.20044 -1.0093 0
M  V30 9844 C 913.434 5.30119 -0.338744 0
M  V30 9845 C 912.473 5.96833 -1.35855 0
M  V30 9846 N 911.61 6.98464 -0.713594 0
M  V30 9847 H 916.45 2.57445 -1.50086 0
M  V30 9848 H 913.987 1.26485 -0.751005 0
M  V30 9849 H 915.945 4.15149 0.413131 0
M  V30 9850 H 914.575 3.10742 0.874028 0
M  V30 9851 H 913.627 3.48901 -1.51566 0
M  V30 9852 H 914.939 4.65796 -1.78425 0
M  V30 9853 H 914.093 6.0661 0.104269 0
M  V30 9854 H 912.832 4.85446 0.468382 0
M  V30 9855 H 911.837 5.1909 -1.81179 0
M  V30 9856 H 913.062 6.4359 -2.16722 0
M  V30 9857 H 911.008 6.55959 0.0733863 0
M  V30 9858 H 910.925 7.42422 -1.42638 0
M  V30 9859 H 912.193 7.78943 -0.294681 0
M  V30 9860 N 916.422 0.810101 1.35185 0
M  V30 9861 C 917.699 0.315235 1.93043 0
M  V30 9862 C 918.079 -1.19567 1.73974 0
M  V30 9863 O 917.427 -1.99682 1.11083 0
M  V30 9864 C 917.637 0.730492 3.41269 0
M  V30 9865 C 918.985 0.721985 4.18417 0
M  V30 9866 O 920.009 0.672258 3.49799 0
M  V30 9867 O 918.868 0.783535 5.40854 0
M  V30 9868 H 915.962 0.0832774 0.822796 0
M  V30 9869 H 918.508 0.894034 1.4424 0
M  V30 9870 H 917.28 1.77169 3.48894 0
M  V30 9871 H 916.903 0.12669 3.97398 0
M  V30 9872 N 917.9 -1.47166 0.563914 0
M  V30 9873 C 918.863 -2.28571 -0.169624 0
M  V30 9874 C 919.863 -1.37331 -0.836467 0
M  V30 9875 O 921.053 -1.59896 -0.6913 0
M  V30 9876 C 918.185 -3.17201 -1.24886 0
M  V30 9877 H 919.378 -2.94896 0.545539 0
M  V30 9878 H 916.931 -1.52966 0.321121 0
M  V30 9879 H 917.666 -2.55582 -1.99621 0
M  V30 9880 H 917.451 -3.84356 -0.775426 0
M  V30 9881 H 918.941 -3.7852 -1.76388 0
M  V30 9882 N 919.378 -0.300708 -1.54705 0
M  V30 9883 C 920.655 0.361757 -1.92226 0
M  V30 9884 C 921.035 1.71714 -1.2279 0
M  V30 9885 O 920.383 2.2559 -0.363542 0
M  V30 9886 C 920.593 0.476699 -3.45729 0
M  V30 9887 C 921.941 0.7477 -4.17965 0
M  V30 9888 O 922.965 0.560521 -3.51762 0
M  V30 9889 O 921.824 1.10724 -5.35166 0
M  V30 9890 H 918.918 0.202213 -0.801897 0
M  V30 9891 H 921.464 -0.348746 -1.66078 0
M  V30 9892 H 920.236 -0.476132 -3.88392 0
M  V30 9893 H 919.859 1.23568 -3.77911 0
M  V30 9894 N 920.856 1.57574 -0.0284266 0
M  V30 9895 C 922.272 1.56194 0.327958 0
M  V30 9896 C 922.472 1.03397 1.72949 0
M  V30 9897 O 921.528 0.680392 2.4316 0
M  V30 9898 C 922.841 3.00177 0.177196 0
M  V30 9899 C 924.389 3.12 0.250014 0
M  V30 9900 C 924.864 4.57821 0.128049 0
M  V30 9901 N 926.355 4.6283 0.185054 0
M  V30 9902 C 927.09 5.73286 0.114454 0
M  V30 9903 N 926.586 6.928 -0.00719225 0
M  V30 9904 N 928.379 5.61848 0.16839 0
M  V30 9905 H 920.53 1.90224 -0.944921 0
M  V30 9906 H 922.793 0.874987 -0.364832 0
M  V30 9907 H 922.499 3.42753 -0.788224 0
M  V30 9908 H 922.373 3.65101 0.94768 0
M  V30 9909 H 924.76 2.69337 1.20589 0
M  V30 9910 H 924.841 2.49799 -0.550835 0
M  V30 9911 H 924.485 5.01165 -0.824407 0
M  V30 9912 H 924.415 5.18001 0.947753 0
M  V30 9913 H 926.906 3.76867 0.279247 0
M  V30 9914 H 927.219 7.72781 -0.0543903 0
M  V30 9915 H 925.564 6.94987 -0.0419648 0
M  V30 9916 H 928.755 4.67367 0.261821 0
M  V30 9917 H 928.928 6.47907 0.109908 0
M  V30 9918 N 922.334 -0.244713 1.55689 0
M  V30 9919 C 923.581 -0.972446 1.77622 0
M  V30 9920 C 923.909 -1.85235 0.593137 0
M  V30 9921 O 923.164 -1.91064 -0.423464 0
M  V30 9922 C 923.463 -1.8617 3.05083 0
M  V30 9923 C 923.129 -1.13696 4.3633 0
M  V30 9924 C 921.791 -0.936679 4.71996 0
M  V30 9925 C 924.143 -0.623451 5.17458 0
M  V30 9926 C 921.471 -0.210612 5.86322 0
M  V30 9927 C 923.823 0.0891587 6.32537 0
M  V30 9928 C 922.487 0.300904 6.66821 0
M  V30 9929 H 921.757 -0.355843 0.649967 0
M  V30 9930 H 924.404 -0.242372 1.8996 0
M  V30 9931 H 922.709 -2.6589 2.87767 0
M  V30 9932 H 924.406 -2.4265 3.19253 0
M  V30 9933 H 920.996 -1.30301 4.08313 0
M  V30 9934 H 925.18 -0.765725 4.90357 0
M  V30 9935 H 920.436 -0.0361062 6.11389 0
M  V30 9936 H 924.61 0.494685 6.94641 0
M  V30 9937 H 922.237 0.865466 7.55257 0
M  V30 9938 N 923.813 -1.49104 -0.510467 0
M  V30 9939 C 924.745 -1.61183 -1.6295 0
M  V30 9940 C 925.758 -0.495003 -1.55092 0
M  V30 9941 O 926.947 -0.766671 -1.61197 0
M  V30 9942 C 924.047 -1.54373 -3.01699 0
M  V30 9943 C 923.22 -2.81428 -3.34838 0
M  V30 9944 C 922.279 -2.67802 -4.52956 0
M  V30 9945 O 921.305 -3.41723 -4.55208 0
M  V30 9946 N 922.507 -1.78715 -5.52305 0
M  V30 9947 H 925.272 -2.57693 -1.53018 0
M  V30 9948 H 922.833 -1.46073 -0.698152 0
M  V30 9949 H 924.825 -1.42924 -3.78622 0
M  V30 9950 H 923.395 -0.657597 -3.05605 0
M  V30 9951 H 922.615 -3.07299 -2.46903 0
M  V30 9952 H 923.903 -3.6568 -3.53773 0
M  V30 9953 H 923.301 -1.17897 -5.53278 0
M  V30 9954 H 921.858 -1.73194 -6.28369 0
M  V30 9955 N 925.291 0.760815 -1.38019 0
M  V30 9956 C 926.238 1.8744 -1.34666 0
M  V30 9957 C 927.208 1.64762 -0.210386 0
M  V30 9958 O 928.393 1.86528 -0.401479 0
M  V30 9959 C 925.533 3.24648 -1.17037 0
M  V30 9960 C 924.646 3.59206 -2.3999 0
M  V30 9961 C 923.781 4.8568 -2.15148 0
M  V30 9962 C 922.82 5.13002 -3.3391 0
M  V30 9963 N 921.957 6.30668 -3.08549 0
M  V30 9964 H 926.797 1.8964 -2.29871 0
M  V30 9965 H 924.334 0.927004 -1.14215 0
M  V30 9966 H 926.292 4.03814 -1.04834 0
M  V30 9967 H 924.922 3.21793 -0.254758 0
M  V30 9968 H 923.974 2.74939 -2.62893 0
M  V30 9969 H 925.286 3.75328 -3.28527 0
M  V30 9970 H 924.44 5.72773 -2.00039 0
M  V30 9971 H 923.179 4.71682 -1.23965 0
M  V30 9972 H 922.184 4.2438 -3.49545 0
M  V30 9973 H 923.409 5.28901 -4.25958 0
M  V30 9974 H 921.355 6.18008 -2.20006 0
M  V30 9975 H 921.272 6.47257 -3.90633 0
M  V30 9976 H 922.54 7.20669 -2.9708 0
M  V30 9977 N 926.769 1.22769 0.988202 0
M  V30 9978 C 927.719 0.969202 2.06375 0
M  V30 9979 C 928.703 -0.0819274 1.60691 0
M  V30 9980 O 929.895 0.129201 1.76528 0
M  V30 9981 C 927.024 0.553919 3.38802 0
M  V30 9982 C 926.11 1.64003 3.91106 0
M  V30 9983 N 926.501 2.86872 4.16579 0
M  V30 9984 C 924.799 1.5128 4.1956 0
M  V30 9985 C 925.5 3.57137 4.5916 0
M  V30 9986 N 924.476 2.84624 4.63131 0
M  V30 9987 H 928.278 1.90247 2.24017 0
M  V30 9988 H 925.792 1.12592 1.17033 0
M  V30 9989 H 927.789 0.350033 4.15428 0
M  V30 9990 H 926.449 -0.37239 3.22558 0
M  V30 9991 H 927.46 3.23254 4.04632 0
M  V30 9992 H 924.137 0.653032 4.12361 0
M  V30 9993 H 925.527 4.62428 4.87452 0
M  V30 9994 N 928.247 -1.18576 1.03814 0
M  V30 9995 C 929.495 -1.88121 0.738574 0
M  V30 9996 C 929.816 -1.80587 -0.735744 0
M  V30 9997 O 929.086 -1.22251 -1.53074 0
M  V30 9998 H 927.666 -0.696417 0.270208 0
M  V30 9999 H 930.328 -1.43912 1.31435 0
M  V30 10000 H 929.424 -2.94222 1.04115 0
M  V30 10001 N 929.725 -0.817259 -1.34754 0
M  V30 10002 C 930.658 -0.180483 -2.27485 0
M  V30 10003 C 931.636 0.659792 -1.48612 0
M  V30 10004 O 932.82 0.624761 -1.77845 0
M  V30 10005 C 929.947 0.748487 -3.30326 0
M  V30 10006 C 928.993 -0.0135304 -4.26498 0
M  V30 10007 S 929.826 -1.35685 -5.18025 0
M  V30 10008 C 930.982 -0.432605 -6.24403 0
M  V30 10009 H 931.215 -0.966677 -2.81145 0
M  V30 10010 H 928.748 -0.612864 -1.41716 0
M  V30 10011 H 930.706 1.27893 -3.90069 0
M  V30 10012 H 929.367 1.50816 -2.75524 0
M  V30 10013 H 928.56 0.692454 -4.9922 0
M  V30 10014 H 928.162 -0.474344 -3.7098 0
M  V30 10015 H 930.454 0.378035 -6.76444 0
M  V30 10016 H 931.397 -1.12934 -6.99036 0
M  V30 10017 H 931.805 -0.0235533 -5.64495 0
M  V30 10018 N 931.203 1.46865 -0.571711 0
M  V30 10019 C 932.48 1.95596 0.0132445 0
M  V30 10020 C 932.86 1.51438 1.47071 0
M  V30 10021 O 932.208 0.759917 2.15494 0
M  V30 10022 C 932.418 3.48689 -0.147335 0
M  V30 10023 C 933.766 4.24599 -0.00946329 0
M  V30 10024 O 934.79 3.5612 -0.0756112 0
M  V30 10025 O 933.649 5.46332 0.135361 0
M  V30 10026 H 930.743 0.825102 0.0560039 0
M  V30 10027 H 933.289 1.57199 -0.639256 0
M  V30 10028 H 932.061 3.73681 -1.16096 0
M  V30 10029 H 931.684 3.93887 0.542109 0
M  V30 10030 N 932.681 0.308908 1.54543 0
M  V30 10031 C 933.591 -0.572939 2.27496 0
M  V30 10032 C 934.607 -1.14171 1.31305 0
M  V30 10033 O 935.783 -1.16481 1.64299 0
M  V30 10034 C 932.848 -1.72483 3.0075 0
M  V30 10035 C 931.909 -1.18934 4.12496 0
M  V30 10036 C 931.142 -2.28634 4.82247 0
M  V30 10037 O 931.365 -3.48691 4.5141 0
M  V30 10038 O 930.299 -1.94879 5.69478 0
M  V30 10039 H 934.125 0.0190877 3.03694 0
M  V30 10040 H 931.71 0.0750943 1.49211 0
M  V30 10041 H 933.592 -2.39578 3.46671 0
M  V30 10042 H 932.267 -2.30332 2.2744 0
M  V30 10043 H 931.174 -0.483904 3.70957 0
M  V30 10044 H 932.507 -0.656185 4.87806 0
M  V30 10045 N 934.159 -1.57557 0.0367827 0
M  V30 10046 C 935.406 -1.92114 -0.640185 0
M  V30 10047 C 935.734 -0.913887 -1.71693 0
M  V30 10048 O 934.989 0.0760343 -1.95552 0
M  V30 10049 C 935.288 -3.33387 -1.28794 0
M  V30 10050 C 934.954 -4.4961 -0.340819 0
M  V30 10051 C 933.616 -4.81133 -0.0801574 0
M  V30 10052 C 935.968 -5.20283 0.309106 0
M  V30 10053 C 933.296 -5.80683 0.838107 0
M  V30 10054 C 935.648 -6.20813 1.21547 0
M  V30 10055 C 934.312 -6.50773 1.48495 0
M  V30 10056 H 933.582 -0.702996 -0.23426 0
M  V30 10057 H 936.229 -1.91238 0.100188 0
M  V30 10058 H 934.534 -3.30561 -2.10324 0
M  V30 10059 H 936.231 -3.57399 -1.81843 0
M  V30 10060 H 932.821 -4.25002 -0.554161 0
M  V30 10061 H 937.005 -4.96153 0.120794 0
M  V30 10062 H 932.261 -6.02238 1.05451 0
M  V30 10063 H 936.435 -6.74692 1.72522 0
M  V30 10064 H 934.062 -7.27727 2.19814 0
M  V30 10065 N 935.637 0.236453 -1.55816 0
M  V30 10066 C 936.886 0.960981 -1.77336 0
M  V30 10067 C 937.199 1.86085 -0.602641 0
M  V30 10068 O 938.405 2.62291 -0.701106 0
M  V30 10069 C 936.861 1.75884 -3.13995 0
M  V30 10070 C 936.469 0.905849 -4.38746 0
M  V30 10071 C 938.213 2.47548 -3.44848 0
M  V30 10072 C 936.12 1.7002 -5.66434 0
M  V30 10073 H 935.05 0.362547 -0.661117 0
M  V30 10074 H 937.701 0.215303 -1.82233 0
M  V30 10075 H 936.083 2.54687 -3.03234 0
M  V30 10076 H 937.257 0.159415 -4.60524 0
M  V30 10077 H 935.572 0.30205 -4.15303 0
M  V30 10078 H 938.169 3.07452 -4.37467 0
M  V30 10079 H 938.512 3.19689 -2.66655 0
M  V30 10080 H 939.045 1.75747 -3.56872 0
M  V30 10081 H 935.784 1.02234 -6.47479 0
M  V30 10082 H 935.304 2.42164 -5.48741 0
M  V30 10083 H 936.983 2.26469 -6.0607 0
M  V30 10084 N 937.115 1.49373 0.502552 0
M  V30 10085 C 938.34 1.62752 1.28556 0
M  V30 10086 C 938.765 0.298285 1.8572 0
M  V30 10087 O 938.123 -0.733885 1.65782 0
M  V30 10088 C 938.171 2.69778 2.39274 0
M  V30 10089 O 937.275 2.28843 3.43081 0
M  V30 10090 H 936.616 0.544799 0.379592 0
M  V30 10091 H 939.146 1.9555 0.601792 0
M  V30 10092 H 939.156 2.91899 2.8506 0
M  V30 10093 H 937.831 3.66266 1.97033 0
M  V30 10094 H 936.408 2.17047 3.03224 0
M  V30 10095 N 938.594 -0.753485 1.38421 0
M  V30 10096 C 939.557 -1.84888 1.35459 0
M  V30 10097 C 940.557 -1.58764 0.255083 0
M  V30 10098 O 941.747 -1.66507 0.511978 0
M  V30 10099 C 938.879 -3.22361 1.10888 0
M  V30 10100 H 940.072 -1.88922 2.32913 0
M  V30 10101 H 937.625 -0.955199 1.23716 0
M  V30 10102 H 938.36 -3.23996 0.1404 0
M  V30 10103 H 938.145 -3.42717 1.90492 0
M  V30 10104 H 939.635 -4.02437 1.1151 0
M  V30 10105 N 940.072 -1.23292 -0.981677 0
M  V30 10106 C 941.02 -1.0104 -2.09508 0
M  V30 10107 C 942.014 0.0501977 -1.69326 0
M  V30 10108 O 943.22 -0.103197 -1.79704 0
M  V30 10109 H 939.595 -0.309629 -0.685298 0
M  V30 10110 H 941.566 -1.95493 -2.25444 0
M  V30 10111 C 940.315 -0.616885 -3.42184 0
M  V30 10112 H 939.638 -1.4247 -3.73554 0
M  V30 10113 H 941.078 -0.500688 -4.21033 0
M  V30 10114 C 939.537 0.674721 -3.30074 0
M  V30 10115 O 940.067 1.72421 -3.62814 0
M  V30 10116 N 938.273 0.650151 -2.83234 0
M  V30 10117 H 937.82 -0.204225 -2.56789 0
M  V30 10118 H 937.778 1.51458 -2.75514 0
M  V30 10119 N 941.55 1.18024 -1.04442 0
M  V30 10120 C 942.961 1.69749 -0.777312 0
M  V30 10121 C 943.312 1.83234 0.701399 0
M  V30 10122 O 942.437 1.51452 1.54568 0
M  V30 10123 C 943.032 3.08321 -1.40441 0
M  V30 10124 C 941.591 3.57243 -1.18553 0
M  V30 10125 C 940.738 2.33695 -1.49271 0
M  V30 10126 H 943.689 1.02647 -1.21035 0
M  V30 10127 H 943.71 3.71787 -0.809628 0
M  V30 10128 H 943.222 2.98474 -2.48062 0
M  V30 10129 H 941.323 3.72379 -0.128221 0
M  V30 10130 H 941.436 4.40451 -1.88519 0
M  V30 10131 H 939.8 2.37792 -0.912526 0
M  V30 10132 H 940.583 2.26464 -2.5801 0
M  V30 10133 N 943.028 0.824394 1.34319 0
M  V30 10134 C 944.268 0.419044 2.00058 0
M  V30 10135 C 944.632 -0.999504 1.63933 0
M  V30 10136 O 945.833 -1.50781 2.22527 0
M  V30 10137 C 944.104 0.616897 3.52036 0
M  V30 10138 S 945.663 0.304614 4.37741 0
M  V30 10139 H 942.481 0.158265 0.693162 0
M  V30 10140 H 945.083 1.07053 1.63585 0
M  V30 10141 H 943.787 1.64896 3.75816 0
M  V30 10142 H 943.318 -0.0492693 3.93369 0
M  V30 10143 H 945.333 -0.88114 4.88314 0
M  V30 10144 N 944.506 -1.46559 0.579492 0
M  V30 10145 C 945.453 -2.30275 -0.155598 0
M  V30 10146 C 946.423 -1.40422 -0.887175 0
M  V30 10147 O 947.608 -1.69373 -0.878481 0
M  V30 10148 C 944.748 -3.24827 -1.16539 0
M  V30 10149 C 943.861 -4.29778 -0.43759 0
M  V30 10150 C 942.996 -5.11461 -1.43462 0
M  V30 10151 C 942.035 -6.08164 -0.693048 0
M  V30 10152 N 941.172 -6.82726 -1.63799 0
M  V30 10153 H 946.012 -2.92607 0.564356 0
M  V30 10154 H 943.549 -1.44211 0.290126 0
M  V30 10155 H 945.507 -3.78088 -1.76368 0
M  V30 10156 H 944.137 -2.64311 -1.8531 0
M  V30 10157 H 943.189 -3.794 0.27567 0
M  V30 10158 H 944.501 -4.98597 0.142298 0
M  V30 10159 H 943.655 -5.68982 -2.1058 0
M  V30 10160 H 942.394 -4.42595 -2.04844 0
M  V30 10161 H 941.399 -5.49799 -0.00807093 0
M  V30 10162 H 942.624 -6.79047 -0.0846678 0
M  V30 10163 H 940.57 -6.16572 -2.23997 0
M  V30 10164 H 940.487 -7.47795 -1.11082 0
M  V30 10165 H 941.755 -7.44807 -2.29962 0
M  V30 10166 N 945.984 -0.3171 -1.54377 0
M  V30 10167 C 946.914 0.544623 -2.2706 0
M  V30 10168 C 947.895 1.12469 -1.27611 0
M  V30 10169 O 949.08 1.15103 -1.56413 0
M  V30 10170 C 946.21 1.70879 -3.02353 0
M  V30 10171 C 945.164 1.25833 -4.09084 0
M  V30 10172 C 944.49 2.50894 -4.72182 0
M  V30 10173 C 945.79 0.377876 -5.20931 0
M  V30 10174 H 947.484 -0.0616372 -2.99337 0
M  V30 10175 H 945.03 -0.0310848 -1.43966 0
M  V30 10176 H 946.983 2.31787 -3.51927 0
M  V30 10177 H 945.707 2.34155 -2.27682 0
M  V30 10178 H 944.366 0.672228 -3.60384 0
M  V30 10179 H 944.014 3.12518 -3.94134 0
M  V30 10180 H 943.714 2.21447 -5.44275 0
M  V30 10181 H 945.238 3.12575 -5.24528 0
M  V30 10182 H 946.652 0.893056 -5.66302 0
M  V30 10183 H 945.049 0.176474 -5.9984 0
M  V30 10184 H 946.119 -0.592943 -4.81261 0
M  V30 10185 N 947.462 1.57535 -0.0451378 0
M  V30 10186 C 948.739 1.83785 0.669523 0
M  V30 10187 C 949.119 0.932331 1.89396 0
M  V30 10188 O 948.467 -0.00813229 2.28499 0
M  V30 10189 C 948.677 3.33376 1.03255 0
M  V30 10190 C 950.025 4.00243 1.41741 0
M  V30 10191 O 951.049 3.37965 1.12507 0
M  V30 10192 O 949.908 5.10038 1.96275 0
M  V30 10193 H 947.002 0.758342 0.329919 0
M  V30 10194 H 949.548 1.69538 -0.0740415 0
M  V30 10195 H 948.32 3.90965 0.161777 0
M  V30 10196 H 947.943 3.52787 1.83376 0
M  V30 10197 N 948.94 -0.228186 1.55939 0
M  V30 10198 C 949.89 -1.28607 1.88267 0
M  V30 10199 C 950.874 -1.42606 0.745139 0
M  V30 10200 O 952.066 -1.45533 1.00743 0
M  V30 10201 C 949.195 -2.63783 2.19712 0
M  V30 10202 C 948.281 -2.53712 3.3984 0
M  V30 10203 N 948.672 -2.13287 4.58631 0
M  V30 10204 C 946.97 -2.84686 3.43322 0
M  V30 10205 C 947.671 -2.14305 5.40785 0
M  V30 10206 N 946.647 -2.54536 4.80325 0
M  V30 10207 H 950.449 -0.964307 2.7763 0
M  V30 10208 H 947.963 -0.436769 1.56416 0
M  V30 10209 H 949.96 -3.40152 2.41044 0
M  V30 10210 H 948.62 -2.9681 1.31657 0
M  V30 10211 H 949.631 -1.84525 4.83912 0
M  V30 10212 H 946.308 -3.22129 2.65592 0
M  V30 10213 H 947.698 -1.85231 6.45863 0
M  V30 10214 N 950.418 -1.49637 -0.494624 0
M  V30 10215 C 951.381 -1.66252 -1.57775 0
M  V30 10216 C 952.381 -0.534054 -1.51672 0
M  V30 10217 O 953.571 -0.800637 -1.54711 0
M  V30 10218 C 950.703 -1.66584 -2.97426 0
M  V30 10219 H 951.896 -2.62864 -1.4437 0
M  V30 10220 H 949.449 -1.38764 -0.719323 0
M  V30 10221 H 950.184 -0.715798 -3.16302 0
M  V30 10222 H 949.969 -2.48543 -3.03264 0
M  V30 10223 H 951.459 -1.81474 -3.76108 0
M  V30 10224 N 951.896 0.746133 -1.38819 0
M  V30 10225 C 953.143 1.50545 -1.35434 0
M  V30 10226 C 953.471 1.94427 0.0532669 0
M  V30 10227 O 952.726 1.66285 1.03188 0
M  V30 10228 C 953.025 2.76639 -2.26286 0
M  V30 10229 C 952.691 2.51682 -3.74122 0
M  V30 10230 C 951.353 2.44584 -4.14406 0
M  V30 10231 C 953.705 2.30071 -4.67672 0
M  V30 10232 C 951.033 2.13902 -5.46318 0
M  V30 10233 C 953.385 2.00907 -5.99849 0
M  V30 10234 C 952.049 1.92271 -6.39209 0
M  V30 10235 H 951.319 0.550883 -0.49559 0
M  V30 10236 H 953.966 0.857337 -1.71237 0
M  V30 10237 H 952.271 3.46138 -1.83564 0
M  V30 10238 H 953.968 3.34626 -2.20967 0
M  V30 10239 H 950.558 2.5808 -3.42188 0
M  V30 10240 H 954.742 2.34528 -4.3739 0
M  V30 10241 H 949.998 2.0573 -5.75748 0
M  V30 10242 H 954.172 1.83191 -6.71874 0
M  V30 10243 H 951.799 1.68261 -7.41345 0
M  V30 10244 N 953.375 1.23811 0.975125 0
M  V30 10245 C 954.305 1.04846 2.08638 0
M  V30 10246 C 955.286 -0.0362859 1.70061 0
M  V30 10247 O 956.471 0.12937 1.93769 0
M  V30 10248 C 953.601 0.644534 3.41267 0
M  V30 10249 C 952.555 1.67722 3.93768 0
M  V30 10250 C 951.881 1.12857 5.22654 0
M  V30 10251 C 953.181 3.07147 4.22443 0
M  V30 10252 H 954.875 1.97795 2.24761 0
M  V30 10253 H 952.421 0.952397 1.08006 0
M  V30 10254 H 954.374 0.498887 4.18436 0
M  V30 10255 H 953.098 -0.320641 3.25022 0
M  V30 10256 H 951.757 1.81095 3.18748 0
M  V30 10257 H 951.405 0.154227 5.02764 0
M  V30 10258 H 951.105 1.81862 5.58749 0
M  V30 10259 H 952.629 0.994891 6.0244 0
M  V30 10260 H 954.043 2.97045 4.90344 0
M  V30 10261 H 952.44 3.73437 4.6975 0
M  V30 10262 H 953.51 3.55743 3.29507 0
M  V30 10263 N 954.853 -1.17469 1.05066 0
M  V30 10264 C 956.1 -1.87698 0.759987 0
M  V30 10265 C 956.428 -1.80964 -0.712902 0
M  V30 10266 O 955.683 -1.21146 -1.53695 0
M  V30 10267 C 955.982 -3.37211 1.18421 0
M  V30 10268 C 955.648 -3.64148 2.65909 0
M  V30 10269 C 954.31 -3.71209 3.06199 0
M  V30 10270 C 956.662 -3.75724 3.61222 0
M  V30 10271 C 953.99 -3.87334 4.40669 0
M  V30 10272 C 956.342 -3.93368 4.95424 0
M  V30 10273 C 955.006 -3.98667 5.3537 0
M  V30 10274 H 954.276 -0.686835 0.278099 0
M  V30 10275 H 956.923 -1.38975 1.31751 0
M  V30 10276 H 955.228 -3.87982 0.545654 0
M  V30 10277 H 956.925 -3.89911 0.936518 0
M  V30 10278 H 953.515 -3.59276 2.33707 0
M  V30 10279 H 957.699 -3.69591 3.31235 0
M  V30 10280 H 952.955 -3.89685 4.71122 0
M  V30 10281 H 957.129 -4.01267 5.69173 0
M  V30 10282 H 954.756 -4.10915 6.39572 0
M  V30 10283 N 956.331 -0.831506 -1.3388 0
M  V30 10284 C 957.747 -0.518349 -1.50948 0
M  V30 10285 C 957.947 0.955807 -1.77388 0
M  V30 10286 O 957.003 1.73993 -1.82983 0
M  V30 10287 C 958.316 -1.38531 -2.66889 0
M  V30 10288 C 959.864 -1.38332 -2.80772 0
M  V30 10289 C 960.339 -2.23497 -3.99766 0
M  V30 10290 N 961.83 -2.21167 -4.06988 0
M  V30 10291 C 962.565 -2.83805 -4.98239 0
M  V30 10292 N 962.061 -3.55468 -5.94655 0
M  V30 10293 N 963.854 -2.73314 -4.91178 0
M  V30 10294 H 956.005 -1.78588 -1.14978 0
M  V30 10295 H 958.268 -0.761508 -0.564633 0
M  V30 10296 H 957.974 -2.43255 -2.54007 0
M  V30 10297 H 957.848 -1.05611 -3.62114 0
M  V30 10298 H 960.235 -0.343832 -2.9309 0
M  V30 10299 H 960.316 -1.75256 -1.86331 0
M  V30 10300 H 959.96 -3.27501 -3.88208 0
M  V30 10301 H 959.89 -1.83919 -4.93438 0
M  V30 10302 H 962.381 -1.69046 -3.37982 0
M  V30 10303 H 962.694 -4.00487 -6.60931 0
M  V30 10304 H 961.039 -3.59575 -5.94753 0
M  V30 10305 H 964.23 -2.16897 -4.14817 0
M  V30 10306 H 964.403 -3.22416 -5.62096 0
M  V30 10307 N 957.809 1.4625 -0.587256 0
M  V30 10308 C 959.058 2.01571 -0.0722643 0
M  V30 10309 C 959.371 1.46385 1.29733 0
M  V30 10310 O 960.577 1.93554 1.90392 0
M  V30 10311 C 959.033 3.59814 -0.078579 0
M  V30 10312 C 958.641 4.23996 -1.44678 0
M  V30 10313 C 960.385 4.22776 0.382231 0
M  V30 10314 C 958.292 5.74332 -1.41057 0
M  V30 10315 H 957.222 0.753642 -0.0232461 0
M  V30 10316 H 959.873 1.67936 -0.739577 0
M  V30 10317 H 958.255 3.90546 0.654988 0
M  V30 10318 H 959.429 4.04867 -2.20043 0
M  V30 10319 H 957.744 3.73147 -1.84799 0
M  V30 10320 H 960.341 5.32983 0.428182 0
M  V30 10321 H 960.684 3.92027 1.40072 0
M  V30 10322 H 961.217 3.96687 -0.297417 0
M  V30 10323 H 957.956 6.09747 -2.40601 0
M  V30 10324 H 957.476 5.95711 -0.699185 0
M  V30 10325 H 959.155 6.37137 -1.12543 0
M  V30 10326 N 959.287 0.325282 1.54207 0
M  V30 10327 C 960.217 -0.532574 2.27345 0
M  V30 10328 C 961.198 -1.11791 1.28206 0
M  V30 10329 O 962.383 -1.14272 1.57021 0
M  V30 10330 C 959.513 -1.69274 3.03255 0
M  V30 10331 C 958.467 -1.23662 4.09746 0
M  V30 10332 C 957.793 -2.48386 4.73506 0
M  V30 10333 C 959.093 -0.350244 5.21124 0
M  V30 10334 H 960.787 0.0775108 2.993 0
M  V30 10335 H 958.333 0.0387193 1.43948 0
M  V30 10336 H 960.286 -2.29917 3.53152 0
M  V30 10337 H 959.01 -2.32944 2.28921 0
M  V30 10338 H 957.669 -0.653106 3.60735 0
M  V30 10339 H 957.317 -3.10424 3.95786 0
M  V30 10340 H 957.017 -2.18558 5.45441 0
M  V30 10341 H 958.541 -3.09789 5.26178 0
M  V30 10342 H 959.955 -0.863011 5.66767 0
M  V30 10343 H 958.352 -0.14466 5.99926 0
M  V30 10344 H 959.422 0.618457 4.8094 0
M  V30 10345 N 960.765 -1.57509 0.0534917 0
M  V30 10346 C 961.697 -2.08616 -0.949322 0
M  V30 10347 C 962.71 -1.01446 -1.27328 0
M  V30 10348 O 963.899 -1.29007 -1.23367 0
M  V30 10349 C 960.999 -2.51622 -2.27024 0
M  V30 10350 C 960.172 -3.82154 -2.12785 0
M  V30 10351 C 959.231 -4.11448 -3.2802 0
M  V30 10352 O 958.257 -4.81333 -3.03822 0
M  V30 10353 N 959.459 -3.63543 -4.52567 0
M  V30 10354 H 962.224 -2.95275 -0.5131 0
M  V30 10355 H 959.785 -1.61355 -0.132693 0
M  V30 10356 H 961.777 -2.68293 -3.02986 0
M  V30 10357 H 960.347 -1.70198 -2.62205 0
M  V30 10358 H 959.567 -3.75041 -1.21399 0
M  V30 10359 H 960.855 -4.67629 -2.00501 0
M  V30 10360 H 960.253 -3.07051 -4.75117 0
M  V30 10361 H 958.81 -3.85448 -5.25617 0
M  V30 10362 N 962.243 0.219913 -1.56058 0
M  V30 10363 C 963.659 0.569685 -1.49086 0
M  V30 10364 C 963.859 1.87066 -0.748903 0
M  V30 10365 O 962.915 2.50838 -0.289235 0
M  V30 10366 C 964.228 0.647397 -2.93648 0
M  V30 10367 C 965.776 0.737914 -3.04177 0
M  V30 10368 C 966.251 0.846957 -4.50101 0
M  V30 10369 N 967.742 0.911136 -4.5415 0
M  V30 10370 C 968.477 1.01525 -5.64341 0
M  V30 10371 N 967.973 1.0832 -6.8428 0
M  V30 10372 N 969.766 1.05051 -5.52196 0
M  V30 10373 H 961.917 -0.633778 -2.02724 0
M  V30 10374 H 964.18 -0.222583 -0.921499 0
M  V30 10375 H 963.886 -0.238987 -3.50887 0
M  V30 10376 H 963.76 1.51046 -3.45637 0
M  V30 10377 H 966.147 1.61474 -2.47002 0
M  V30 10378 H 966.228 -0.150845 -2.55355 0
M  V30 10379 H 965.872 -0.0254166 -5.07894 0
M  V30 10380 H 965.802 1.75116 -4.96631 0
M  V30 10381 H 968.293 0.868869 -3.67776 0
M  V30 10382 H 968.606 1.16247 -7.64007 0
M  V30 10383 H 966.951 1.05231 -6.86987 0
M  V30 10384 H 970.142 0.994086 -4.57423 0
M  V30 10385 H 970.315 1.12819 -6.38103 0
M  V30 10386 N 963.721 1.49897 0.486681 0
M  V30 10387 C 964.653 1.63755 1.60365 0
M  V30 10388 C 965.666 0.519614 1.54285 0
M  V30 10389 O 966.855 0.792219 1.59957 0
M  V30 10390 C 963.955 1.59153 2.99205 0
M  V30 10391 C 963.128 2.8672 3.30319 0
M  V30 10392 C 962.187 2.74974 4.48638 0
M  V30 10393 O 961.213 3.48922 4.49714 0
M  V30 10394 N 962.415 1.87479 5.49392 0
M  V30 10395 H 965.18 2.60094 1.48899 0
M  V30 10396 H 962.741 1.47166 0.674825 0
M  V30 10397 H 964.733 1.4893 3.76301 0
M  V30 10398 H 963.303 0.706133 3.0452 0
M  V30 10399 H 962.523 3.11188 2.41983 0
M  V30 10400 H 963.811 3.71262 3.47911 0
M  V30 10401 H 963.209 1.26684 5.51333 0
M  V30 10402 H 961.766 1.83169 6.25534 0
M  V30 10403 N 965.199 -0.738761 1.39212 0
M  V30 10404 C 966.427 -1.52801 1.39497 0
M  V30 10405 C 966.842 -1.88797 -0.0114917 0
M  V30 10406 O 966.199 -1.53835 -0.981887 0
M  V30 10407 C 966.25 -2.81793 2.2644 0
M  V30 10408 O 965.971 -2.47328 3.61608 0
M  V30 10409 C 967.472 -3.75844 2.35067 0
M  V30 10410 H 964.692 -0.472322 0.476606 0
M  V30 10411 H 967.236 -0.913153 1.8298 0
M  V30 10412 H 965.391 -3.3962 1.8638 0
M  V30 10413 H 965.805 -3.30162 4.07545 0
M  V30 10414 H 967.279 -4.6326 3.00157 0
M  V30 10415 H 967.756 -4.17329 1.3687 0
M  V30 10416 H 968.362 -3.23937 2.75581 0
M  V30 10417 N 966.677 -1.24326 -0.968545 0
M  V30 10418 C 967.607 -1.05951 -2.08079 0
M  V30 10419 C 968.588 0.0272666 -1.70078 0
M  V30 10420 O 969.773 -0.139644 -1.93697 0
M  V30 10421 C 966.903 -0.662623 -3.4092 0
M  V30 10422 C 965.857 -1.69807 -3.92873 0
M  V30 10423 C 965.183 -1.15628 -5.22048 0
M  V30 10424 C 966.483 -3.09383 -4.20808 0
M  V30 10425 H 968.177 -1.98984 -2.23709 0
M  V30 10426 H 965.723 -0.958112 -1.075 0
M  V30 10427 H 967.676 -0.521071 -4.18166 0
M  V30 10428 H 966.4 0.303399 -3.25188 0
M  V30 10429 H 965.059 -1.82783 -3.17783 0
M  V30 10430 H 964.707 -0.180888 -5.02675 0
M  V30 10431 H 964.407 -1.84822 -5.57776 0
M  V30 10432 H 965.931 -1.02683 -6.01904 0
M  V30 10433 H 967.345 -2.99642 -4.88761 0
M  V30 10434 H 965.742 -3.75923 -4.67763 0
M  V30 10435 H 966.812 -3.57486 -3.27616 0
M  V30 10436 N 968.156 1.1691 -1.05688 0
M  V30 10437 C 969.433 1.83266 -0.683601 0
M  V30 10438 C 969.813 1.93858 0.835602 0
M  V30 10439 O 969.161 1.47696 1.7435 0
M  V30 10440 C 969.371 3.20625 -1.37842 0
M  V30 10441 C 970.719 3.96473 -1.51967 0
M  V30 10442 O 971.743 3.30122 -1.33783 0
M  V30 10443 O 970.602 5.15393 -1.81749 0
M  V30 10444 H 967.696 0.791028 -0.241254 0
M  V30 10445 H 970.242 1.24165 -1.15677 0
M  V30 10446 H 969.014 3.07914 -2.41463 0
M  V30 10447 H 968.637 3.87398 -0.894921 0
M  V30 10448 N 969.634 0.838594 1.33437 0
M  V30 10449 C 970.584 0.243681 2.26694 0
M  V30 10450 C 971.568 -0.601168 1.49247 0
M  V30 10451 O 972.76 -0.453181 1.711 0
M  V30 10452 C 969.889 -0.580525 3.38356 0
M  V30 10453 C 968.975 0.275819 4.23202 0
M  V30 10454 N 969.366 1.3544 4.87329 0
M  V30 10455 C 967.664 0.0628047 4.45956 0
M  V30 10456 C 968.365 1.87991 5.50486 0
M  V30 10457 N 967.341 1.18143 5.30607 0
M  V30 10458 H 971.143 1.06849 2.73789 0
M  V30 10459 H 968.657 0.683019 1.47338 0
M  V30 10460 H 970.654 -1.02301 4.04153 0
M  V30 10461 H 969.314 -1.40331 2.92809 0
M  V30 10462 H 970.325 1.73729 4.87892 0
M  V30 10463 H 967.002 -0.726563 4.11129 0
M  V30 10464 H 968.392 2.78312 6.11549 0
M  V30 10465 N 971.112 -1.45937 0.595003 0
M  V30 10466 C 972.528 -1.57507 0.257641 0
M  V30 10467 C 972.728 -1.58829 -1.23998 0
M  V30 10468 O 971.784 -1.51183 -2.02237 0
M  V30 10469 C 973.097 -2.86354 0.917708 0
M  V30 10470 C 974.645 -3.00007 0.892446 0
M  V30 10471 C 975.12 -4.31607 1.53229 0
M  V30 10472 N 976.611 -4.38336 1.49719 0
M  V30 10473 C 977.346 -5.38805 1.96154 0
M  V30 10474 N 976.842 -6.45882 2.50617 0
M  V30 10475 N 978.635 -5.30084 1.86997 0
M  V30 10476 H 970.786 -1.43322 1.56756 0
M  V30 10477 H 973.049 -0.684436 0.655936 0
M  V30 10478 H 972.755 -2.91233 1.97171 0
M  V30 10479 H 972.629 -3.74703 0.433344 0
M  V30 10480 H 975.016 -2.94703 -0.152975 0
M  V30 10481 H 975.097 -2.13103 1.41495 0
M  V30 10482 H 974.741 -4.3767 2.57697 0
M  V30 10483 H 974.671 -5.17308 0.984903 0
M  V30 10484 H 977.162 -3.6156 1.09921 0
M  V30 10485 H 977.475 -7.18774 2.83874 0
M  V30 10486 H 975.82 -6.46668 2.54649 0
M  V30 10487 H 979.011 -4.45337 1.44196 0
M  V30 10488 H 979.184 -6.08237 2.23499 0
M  V30 10489 N 972.59 -0.333456 -1.54032 0
M  V30 10490 C 973.52 0.52051 -2.27625 0
M  V30 10491 C 974.501 1.1111 -1.28797 0
M  V30 10492 O 975.686 1.13438 -1.57625 0
M  V30 10493 C 972.816 1.67663 -3.04149 0
M  V30 10494 C 971.77 1.21487 -4.10396 0
M  V30 10495 C 971.096 2.45872 -4.74817 0
M  V30 10496 C 972.396 0.322603 -5.21303 0
M  V30 10497 H 974.09 -0.0933823 -2.99254 0
M  V30 10498 H 971.636 -0.0463526 -1.43925 0
M  V30 10499 H 973.589 2.28041 -3.54366 0
M  V30 10500 H 972.313 2.31727 -2.30153 0
M  V30 10501 H 970.972 0.633966 -3.61077 0
M  V30 10502 H 970.62 3.0832 -3.97426 0
M  V30 10503 H 970.32 2.15662 -5.46593 0
M  V30 10504 H 971.844 3.06994 -5.27814 0
M  V30 10505 H 973.258 0.832942 -5.67217 0
M  V30 10506 H 971.655 0.112843 -5.99994 0
M  V30 10507 H 972.725 -0.643954 -4.80605 0
M  V30 10508 N 974.068 1.57479 -0.061844 0
M  V30 10509 C 975.016 2.13346 0.926629 0
M  V30 10510 C 976.01 1.06787 1.31502 0
M  V30 10511 O 977.216 1.25181 1.29343 0
M  V30 10512 H 973.591 0.682046 0.316729 0
M  V30 10513 H 975.562 2.95279 0.430424 0
M  V30 10514 C 974.311 2.70198 2.18834 0
M  V30 10515 H 973.634 3.51859 1.89829 0
M  V30 10516 H 975.074 3.12897 2.86132 0
M  V30 10517 C 973.533 1.64481 2.9402 0
M  V30 10518 O 974.063 1.0639 3.87355 0
M  V30 10519 N 972.269 1.35749 2.56944 0
M  V30 10520 H 971.816 1.83177 1.81119 0
M  V30 10521 H 971.774 0.652469 3.07555 0
M  V30 10522 N 975.546 -0.211634 1.56173 0
M  V30 10523 C 976.823 -0.959467 1.70451 0
M  V30 10524 C 977.203 -2.02036 0.611942 0
M  V30 10525 O 976.551 -2.25325 -0.37959 0
M  V30 10526 C 976.761 -1.56092 3.12148 0
M  V30 10527 C 978.109 -2.04939 3.71867 0
M  V30 10528 O 979.133 -1.65966 3.15172 0
M  V30 10529 O 977.992 -2.766 4.71333 0
M  V30 10530 H 975.086 -0.448844 0.6946 0
M  V30 10531 H 977.632 -0.202633 1.68486 0
M  V30 10532 H 976.404 -0.79538 3.83131 0
M  V30 10533 H 976.027 -2.38303 3.18273 0
M  V30 10534 N 977.024 -1.50153 -0.478725 0
M  V30 10535 C 978.249 -1.64776 -1.2595 0
M  V30 10536 C 978.674 -0.327794 -1.85222 0
M  V30 10537 O 978.032 0.707418 -1.66929 0
M  V30 10538 C 978.08 -2.73551 -2.34952 0
M  V30 10539 O 977.184 -2.34273 -3.39397 0
M  V30 10540 H 976.525 -0.550769 -0.370877 0
M  V30 10541 H 979.055 -1.96482 -0.570605 0
M  V30 10542 H 979.065 -2.96397 -2.8038 0
M  V30 10543 H 977.74 -3.69354 -1.91181 0
M  V30 10544 H 976.317 -2.21844 -2.99733 0
M  V30 10545 N 978.502 0.731368 -1.39602 0
M  V30 10546 C 979.732 1.51839 -1.40102 0
M  V30 10547 C 980.14 1.89199 0.00526634 0
M  V30 10548 O 979.483 1.54877 0.987874 0
M  V30 10549 C 979.545 2.83292 -2.21328 0
M  V30 10550 C 979.209 2.68345 -3.69919 0
M  V30 10551 C 980.206 2.36651 -4.62917 0
M  V30 10552 C 977.891 2.85102 -4.13548 0
M  V30 10553 C 979.885 2.21901 -5.97527 0
M  V30 10554 C 977.572 2.69971 -5.48233 0
M  V30 10555 C 978.57 2.38416 -6.40037 0
M  V30 10556 O 978.258 2.23383 -7.72241 0
M  V30 10557 H 977.99 0.475695 -0.480302 0
M  V30 10558 H 980.544 0.911096 -1.84087 0
M  V30 10559 H 978.774 3.46294 -1.72096 0
M  V30 10560 H 980.463 3.44928 -2.13961 0
M  V30 10561 H 981.229 2.23352 -4.3051 0
M  V30 10562 H 977.108 3.08655 -3.42423 0
M  V30 10563 H 980.652 1.97193 -6.69149 0
M  V30 10564 H 976.549 2.82849 -5.8023 0
M  V30 10565 H 977.317 2.38425 -7.83004 0
M  V30 10566 N 979.98 1.24838 0.961938 0
M  V30 10567 C 981.205 1.11967 1.7458 0
M  V30 10568 C 981.63 -0.323287 1.85301 0
M  V30 10569 O 980.988 -1.23412 1.32812 0
M  V30 10570 C 981.036 1.77066 3.14134 0
M  V30 10571 O 980.14 1.04534 3.98932 0
M  V30 10572 H 979.481 0.391338 0.536424 0
M  V30 10573 H 982.011 1.65259 1.20626 0
M  V30 10574 H 982.021 1.83056 3.64629 0
M  V30 10575 H 980.696 2.82052 3.05646 0
M  V30 10576 H 979.273 1.06372 3.57407 0
M  V30 10577 N 981.458 -1.16348 1.06306 0
M  V30 10578 C 982.698 -1.88556 0.789055 0
M  V30 10579 C 983.062 -1.79849 -0.672179 0
M  V30 10580 O 984.263 -2.46984 -1.06078 0
M  V30 10581 C 982.534 -3.34069 1.27016 0
M  V30 10582 S 984.093 -4.24128 1.12522 0
M  V30 10583 H 980.911 -0.65084 0.286232 0
M  V30 10584 H 983.513 -1.40443 1.36 0
M  V30 10585 H 982.217 -3.37944 2.32856 0
M  V30 10586 H 981.748 -3.87231 0.693963 0
M  V30 10587 H 983.763 -4.96168 0.0562142 0
M  V30 10588 N 982.937 -0.845659 -1.3299 0
M  V30 10589 C 983.867 -0.298957 -2.31578 0
M  V30 10590 C 984.848 0.597012 -1.59279 0
M  V30 10591 O 986.033 0.519142 -1.87132 0
M  V30 10592 C 983.163 0.521109 -3.43368 0
M  V30 10593 C 982.117 -0.279651 -4.27085 0
M  V30 10594 C 981.443 0.664591 -5.30554 0
M  V30 10595 C 982.743 -1.50046 -5.00283 0
M  V30 10596 H 984.437 -1.12272 -2.77552 0
M  V30 10597 H 981.983 -0.54132 -1.33438 0
M  V30 10598 H 983.936 0.913921 -4.1137 0
M  V30 10599 H 982.66 1.37815 -2.96099 0
M  V30 10600 H 981.319 -0.654106 -3.60717 0
M  V30 10601 H 980.967 1.51822 -4.79541 0
M  V30 10602 H 980.667 0.132871 -5.8745 0
M  V30 10603 H 982.191 1.05477 -6.01421 0
M  V30 10604 H 983.605 -1.18044 -5.61016 0
M  V30 10605 H 982.002 -1.96946 -5.66862 0
M  V30 10606 H 983.072 -2.26659 -4.28665 0
M  V30 10607 N 984.415 1.45619 -0.602734 0
M  V30 10608 C 985.663 2.01873 -0.095844 0
M  V30 10609 C 985.984 1.47427 1.27633 0
M  V30 10610 O 985.254 0.666652 1.84208 0
M  V30 10611 H 983.834 0.746295 -0.0324408 0
M  V30 10612 H 986.496 1.78478 -0.783037 0
M  V30 10613 H 985.592 3.12072 -0.0419507 0
M  V30 10614 N 985.893 0.34162 1.53853 0
M  V30 10615 C 987.139 -0.248546 2.01876 0
M  V30 10616 C 987.494 -1.48352 1.22513 0
M  V30 10617 O 986.787 -1.89174 0.303919 0
M  V30 10618 C 986.981 -0.616989 3.52034 0
M  V30 10619 C 986.81 0.580727 4.45935 0
M  V30 10620 C 985.58 1.08544 4.93504 0
M  V30 10621 C 987.778 1.43858 4.93771 0
M  V30 10622 N 985.76 2.24568 5.71351 0
M  V30 10623 C 987.131 2.44575 5.69722 0
M  V30 10624 C 989.186 1.46425 4.75882 0
M  V30 10625 C 987.889 3.47687 6.29688 0
M  V30 10626 C 989.915 2.48416 5.36697 0
M  V30 10627 C 989.277 3.4786 6.12514 0
M  V30 10628 H 985.376 -0.0543067 0.780112 0
M  V30 10629 H 987.96 0.480749 1.88671 0
M  V30 10630 H 986.131 -1.31539 3.65448 0
M  V30 10631 H 987.863 -1.19018 3.86803 0
M  V30 10632 H 984.618 0.653832 4.69065 0
M  V30 10633 H 985.042 2.83143 6.14946 0
M  V30 10634 H 989.684 0.709044 4.16812 0
M  V30 10635 H 987.402 4.24103 6.87868 0
M  V30 10636 H 990.988 2.51227 5.24763 0
M  V30 10637 H 989.868 4.25486 6.58734 0
M  V30 10638 N 987.371 -1.57444 0.0701946 0
M  V30 10639 C 988.618 -1.93429 -0.59929 0
M  V30 10640 C 988.946 -0.9501 -1.69715 0
M  V30 10641 O 988.201 0.0345377 -1.9567 0
M  V30 10642 C 988.5 -3.36044 -1.21694 0
M  V30 10643 C 988.166 -4.50232 -0.245374 0
M  V30 10644 C 986.828 -4.81195 0.0219161 0
M  V30 10645 C 989.18 -5.1951 0.419396 0
M  V30 10646 C 986.508 -5.78775 0.96109 0
M  V30 10647 C 988.86 -6.18095 1.34688 0
M  V30 10648 C 987.524 -6.47477 1.62265 0
M  V30 10649 H 986.794 -0.707807 -0.219296 0
M  V30 10650 H 989.441 -1.90982 0.14073 0
M  V30 10651 H 987.746 -3.34948 -2.03265 0
M  V30 10652 H 989.443 -3.61176 -1.74221 0
M  V30 10653 H 986.033 -4.26082 -0.463887 0
M  V30 10654 H 990.217 -4.95785 0.226009 0
M  V30 10655 H 985.473 -5.99865 1.18202 0
M  V30 10656 H 989.647 -6.7088 1.86795 0
M  V30 10657 H 987.274 -7.229 2.352 0
M  V30 10658 N 988.849 0.203349 -1.56283 0
M  V30 10659 C 990.074 0.945548 -1.84592 0
M  V30 10660 C 990.499 1.7641 -0.652772 0
M  V30 10661 O 989.857 1.76867 0.398468 0
M  V30 10662 C 989.905 1.82416 -3.11057 0
M  V30 10663 O 989.009 2.92191 -2.9103 0
M  V30 10664 H 988.35 0.266739 -0.608068 0
M  V30 10665 H 990.88 0.211158 -2.03507 0
M  V30 10666 H 990.89 2.23044 -3.41636 0
M  V30 10667 H 989.565 1.22267 -3.97522 0
M  V30 10668 H 988.142 2.55378 -2.71728 0
M  V30 10669 N 990.327 1.50405 0.470755 0
M  V30 10670 C 991.738 1.54266 1.05162 0
M  V30 10671 C 992.089 0.346359 1.93119 0
M  V30 10672 O 991.214 -0.540699 2.09536 0
M  V30 10673 C 991.809 2.7956 1.91394 0
M  V30 10674 C 990.368 2.86101 2.44588 0
M  V30 10675 C 989.515 2.48557 1.22941 0
M  V30 10676 H 992.466 1.56665 0.253359 0
M  V30 10677 H 992.487 2.61434 2.76464 0
M  V30 10678 H 991.999 3.66611 1.27351 0
M  V30 10679 H 990.1 2.03403 3.12183 0
M  V30 10680 H 990.213 3.88999 2.79672 0
M  V30 10681 H 988.577 2.01003 1.56429 0
M  V30 10682 H 989.36 3.37916 0.605598 0
M  V30 10683 N 991.805 -0.723954 1.39988 0
M  V30 10684 C 993.053 -1.48078 1.3754 0
M  V30 10685 C 993.374 -1.94985 -0.0243358 0
M  V30 10686 O 992.644 -1.69764 -0.977602 0
M  V30 10687 H 991.224 -0.549354 0.506181 0
M  V30 10688 H 993.886 -0.858746 1.74962 0
M  V30 10689 H 992.982 -2.35763 2.04505 0
M  V30 10690 N 993.283 -1.25346 -0.955304 0
M  V30 10691 C 994.215 -1.0146 -2.0552 0
M  V30 10692 C 995.228 0.0202256 -1.62787 0
M  V30 10693 O 996.417 -0.218251 -1.77161 0
M  V30 10694 C 993.517 -0.511727 -3.35014 0
M  V30 10695 C 992.69 -1.61256 -4.0659 0
M  V30 10696 C 991.749 -1.11017 -5.14356 0
M  V30 10697 O 990.775 -1.80443 -5.39842 0
M  V30 10698 N 991.977 0.0489001 -5.80479 0
M  V30 10699 H 994.742 -1.96166 -2.26581 0
M  V30 10700 H 992.303 -1.16543 -1.12381 0
M  V30 10701 H 994.295 -0.160123 -4.04383 0
M  V30 10702 H 992.865 0.341377 -3.1073 0
M  V30 10703 H 992.085 -2.13577 -3.31328 0
M  V30 10704 H 993.373 -2.35213 -4.51168 0
M  V30 10705 H 992.771 0.629021 -5.62192 0
M  V30 10706 H 991.328 0.341542 -6.50905 0
M  V30 10707 N 994.761 1.15782 -1.06922 0
M  V30 10708 C 996.007 1.86741 -0.790922 0
M  V30 10709 C 996.34 1.81863 0.681149 0
M  V30 10710 O 995.615 1.23871 1.49954 0
M  V30 10711 C 995.898 3.36038 -1.29422 0
M  V30 10712 C 995.751 3.49573 -2.83052 0
M  V30 10713 C 997.07 4.30647 -0.907239 0
M  V30 10714 H 994.189 0.678064 -0.288787 0
M  V30 10715 H 996.831 1.36054 -1.32624 0
M  V30 10716 H 994.981 3.79336 -0.838843 0
M  V30 10717 H 996.653 3.1517 -3.36847 0
M  V30 10718 H 994.896 2.91275 -3.21467 0
M  V30 10719 H 995.567 4.5445 -3.13335 0
M  V30 10720 H 998.043 3.95286 -1.29956 0
M  V30 10721 H 996.919 5.33604 -1.28679 0
M  V30 10722 H 997.18 4.41703 0.187251 0
M  V30 10723 N 996.239 0.8527 1.3254 0
M  V30 10724 C 997.486 0.455123 1.97319 0
M  V30 10725 C 997.814 -0.988814 1.67489 0
M  V30 10726 O 997.069 -1.70845 0.954483 0
M  V30 10727 C 997.368 0.638757 3.51646 0
M  V30 10728 C 997.034 2.05287 4.01458 0
M  V30 10729 C 995.696 2.43963 4.14771 0
M  V30 10730 C 998.048 2.9759 4.27889 0
M  V30 10731 C 995.376 3.7422 4.51859 0
M  V30 10732 C 997.728 4.27343 4.66434 0
M  V30 10733 C 996.392 4.65957 4.77954 0
M  V30 10734 H 995.662 0.166541 0.722042 0
M  V30 10735 H 998.309 1.08238 1.57977 0
M  V30 10736 H 996.614 -0.0717394 3.91734 0
M  V30 10737 H 998.311 0.311219 3.9979 0
M  V30 10738 H 994.901 1.74253 3.91579 0
M  V30 10739 H 999.085 2.68942 4.17114 0
M  V30 10740 H 994.341 4.03923 4.58973 0
M  V30 10741 H 998.515 4.9893 4.85841 0
M  V30 10742 H 996.142 5.66934 5.06449 0
M  V30 10743 N 997.718 -1.45297 0.610449 0
M  V30 10744 C 998.964 -2.02518 0.106917 0
M  V30 10745 C 999.297 -1.47747 -1.26034 0
M  V30 10746 O 998.572 -0.65329 -1.832 0
M  V30 10747 C 998.855 -3.6003 0.0710975 0
M  V30 10748 C 998.708 -4.25128 1.46922 0
M  V30 10749 C 1000.03 -4.35778 -0.61524 0
M  V30 10750 H 997.146 -0.735896 0.040327 0
M  V30 10751 H 999.788 -1.73117 0.782968 0
M  V30 10752 H 997.938 -3.85209 -0.504611 0
M  V30 10753 H 999.61 -4.11125 2.09223 0
M  V30 10754 H 997.853 -3.83418 2.02911 0
M  V30 10755 H 998.524 -5.34046 1.39637 0
M  V30 10756 H 1001 -4.1591 -0.125871 0
M  V30 10757 H 999.876 -5.45506 -0.609419 0
M  V30 10758 H 1000.14 -4.08859 -1.68186 0
M  V30 10759 N 999.196 -0.349774 -1.5367 0
M  V30 10760 C 1000.13 0.496338 -2.28164 0
M  V30 10761 C 1001.11 1.09737 -1.29968 0
M  V30 10762 O 1002.29 1.11759 -1.58819 0
M  V30 10763 C 999.422 1.64428 -3.0591 0
M  V30 10764 C 998.376 1.17127 -4.11661 0
M  V30 10765 C 997.702 2.40822 -4.77398 0
M  V30 10766 C 999.002 0.267293 -5.21616 0
M  V30 10767 H 1000.7 -0.125117 -2.99138 0
M  V30 10768 H 998.242 -0.0616152 -1.43868 0
M  V30 10769 H 1000.19 2.2427 -3.56765 0
M  V30 10770 H 998.919 2.29272 -2.32598 0
M  V30 10771 H 997.578 0.595634 -3.61729 0
M  V30 10772 H 997.226 3.04088 -4.00674 0
M  V30 10773 H 996.926 2.09852 -5.48849 0
M  V30 10774 H 998.45 3.01378 -5.3104 0
M  V30 10775 H 999.864 0.772734 -5.68068 0
M  V30 10776 H 998.261 0.0491991 -6.0008 0
M  V30 10777 H 999.331 -0.694892 -4.79895 0
M  V30 10778 N 1000.67 1.57404 -0.0785433 0
M  V30 10779 C 1001.95 1.85163 0.630389 0
M  V30 10780 C 1002.33 0.972295 1.87376 0
M  V30 10781 O 1001.68 0.0403375 2.28464 0
M  V30 10782 C 1001.89 3.35491 0.961604 0
M  V30 10783 C 1003.24 4.0316 1.33219 0
M  V30 10784 O 1004.26 3.40276 1.05313 0
M  V30 10785 O 1003.12 5.14086 1.85412 0
M  V30 10786 H 1000.21 0.765169 0.31376 0
M  V30 10787 H 1002.76 1.69343 -0.109986 0
M  V30 10788 H 1001.53 3.91221 0.0788113 0
M  V30 10789 H 1001.15 3.56598 1.75852 0
M  V30 10790 N 1002.15 -0.195058 1.56388 0
M  V30 10791 C 1003.06 -1.26219 1.97752 0
M  V30 10792 C 1004.08 -1.49801 0.885192 0
M  V30 10793 O 1005.25 -1.62415 1.19094 0
M  V30 10794 C 1002.32 -2.5865 2.3087 0
M  V30 10795 C 1001.38 -2.4314 3.5381 0
M  V30 10796 C 1000.61 -3.69255 3.85339 0
M  V30 10797 O 1000.84 -4.73425 3.18159 0
M  V30 10798 O 999.77 -3.64782 4.78767 0
M  V30 10799 H 1003.6 -0.941161 2.88749 0
M  V30 10800 H 1001.18 -0.40006 1.43944 0
M  V30 10801 H 1003.06 -3.36814 2.53247 0
M  V30 10802 H 1001.74 -2.9038 1.43042 0
M  V30 10803 H 1000.64 -1.63086 3.3668 0
M  V30 10804 H 1001.98 -2.16341 4.42105 0
M  V30 10805 N 1003.63 -1.50653 -0.462772 0
M  V30 10806 C 1004.86 -1.65586 -1.23551 0
M  V30 10807 C 1005.27 -0.342012 -1.86083 0
M  V30 10808 O 1004.61 0.686893 -1.70374 0
M  V30 10809 C 1004.67 -2.69555 -2.37867 0
M  V30 10810 C 1004.34 -4.1288 -1.95906 0
M  V30 10811 C 1005.33 -4.98483 -1.47685 0
M  V30 10812 C 1003.02 -4.58843 -2.04373 0
M  V30 10813 C 1005.01 -6.281 -1.08484 0
M  V30 10814 C 1002.7 -5.88464 -1.64783 0
M  V30 10815 C 1003.7 -6.72918 -1.16918 0
M  V30 10816 O 1003.39 -8.00119 -0.778798 0
M  V30 10817 H 1003.12 -0.559438 -0.37948 0
M  V30 10818 H 1005.67 -1.9768 -0.557816 0
M  V30 10819 H 1003.9 -2.3272 -3.08834 0
M  V30 10820 H 1005.59 -2.73624 -2.99808 0
M  V30 10821 H 1006.36 -4.64186 -1.40558 0
M  V30 10822 H 1002.24 -3.93247 -2.40577 0
M  V30 10823 H 1005.78 -6.93972 -0.710524 0
M  V30 10824 H 1001.68 -6.22281 -1.71571 0
M  V30 10825 H 1002.44 -8.1346 -0.906911 0
M  V30 10826 N 1005.11 0.71652 -1.4037 0
M  V30 10827 C 1006.35 1.48883 -1.40047 0
M  V30 10828 C 1006.71 1.92 -0.00158027 0
M  V30 10829 O 1007.91 2.68501 0.126765 0
M  V30 10830 C 1006.18 2.68265 -2.36154 0
M  V30 10831 S 1007.74 3.57684 -2.5418 0
M  V30 10832 H 1004.56 0.509035 -0.496391 0
M  V30 10833 H 1007.16 0.837967 -1.76631 0
M  V30 10834 H 1005.87 2.34759 -3.36625 0
M  V30 10835 H 1005.4 3.38264 -2.0085 0
M  V30 10836 H 1007.41 4.62653 -1.79352 0
M  V30 10837 N 1006.59 1.25851 0.948643 0
M  V30 10838 C 1007.55 1.0683 2.0278 0
M  V30 10839 C 1008.55 0.0191016 1.60789 0
M  V30 10840 O 1009.74 0.261836 1.72221 0
M  V30 10841 C 1006.87 0.623318 3.35153 0
M  V30 10842 H 1008.06 2.02635 2.21086 0
M  V30 10843 H 1005.62 1.08343 1.12657 0
M  V30 10844 H 1006.35 -0.337053 3.22544 0
M  V30 10845 H 1006.14 1.38082 3.66982 0
M  V30 10846 H 1007.63 0.511854 4.14451 0
M  V30 10847 N 1008.06 -1.15214 1.07534 0
M  V30 10848 C 1009.48 -1.38031 0.801228 0
M  V30 10849 C 1009.68 -1.92556 -0.593672 0
M  V30 10850 O 1008.74 -2.1325 -1.35206 0
M  V30 10851 C 1010.05 -2.34958 1.87657 0
M  V30 10852 C 1011.6 -2.48617 1.90154 0
M  V30 10853 C 1012.07 -3.48837 2.96777 0
M  V30 10854 N 1013.56 -3.56374 2.95892 0
M  V30 10855 C 1014.3 -4.33746 3.75036 0
M  V30 10856 N 1013.79 -5.14435 4.64036 0
M  V30 10857 N 1015.59 -4.28853 3.63375 0
M  V30 10858 H 1007.74 -0.781639 1.97495 0
M  V30 10859 H 1010 -0.406243 0.856546 0
M  V30 10860 H 1009.71 -2.02013 2.87895 0
M  V30 10861 H 1009.58 -3.3476 1.73827 0
M  V30 10862 H 1011.97 -2.80859 0.905666 0
M  V30 10863 H 1012.05 -1.48808 2.08062 0
M  V30 10864 H 1011.69 -3.1733 3.96565 0
M  V30 10865 H 1011.62 -4.48406 2.76116 0
M  V30 10866 H 1014.11 -2.98784 2.31379 0
M  V30 10867 H 1014.43 -5.70722 5.21053 0
M  V30 10868 H 1012.77 -5.13734 4.68084 0
M  V30 10869 H 1015.96 -3.64882 2.93221 0
M  V30 10870 H 1016.14 -4.88903 4.25298 0
M  V30 10871 N 1009.54 -0.859717 -1.32086 0
M  V30 10872 C 1010.77 -0.479028 -2.0097 0
M  V30 10873 C 1011.18 0.930242 -1.64752 0
M  V30 10874 O 1010.52 1.6193 -0.867437 0
M  V30 10875 C 1010.59 -0.54431 -3.55355 0
M  V30 10876 C 1010.25 -1.91337 -4.15017 0
M  V30 10877 C 1011.25 -2.87951 -4.32874 0
M  V30 10878 C 1008.93 -2.21189 -4.50977 0
M  V30 10879 C 1010.93 -4.12567 -4.85867 0
M  V30 10880 C 1008.61 -3.46057 -5.03674 0
M  V30 10881 C 1009.61 -4.41562 -5.21068 0
M  V30 10882 O 1009.3 -5.64218 -5.72637 0
M  V30 10883 H 1009.03 -0.186161 -0.649861 0
M  V30 10884 H 1011.58 -1.15976 -1.69525 0
M  V30 10885 H 1009.81 0.1933 -3.86217 0
M  V30 10886 H 1011.5 -0.178506 -4.05507 0
M  V30 10887 H 1012.27 -2.66194 -4.05421 0
M  V30 10888 H 1008.15 -1.47635 -4.36721 0
M  V30 10889 H 1011.69 -4.8712 -4.99359 0
M  V30 10890 H 1007.59 -3.67662 -5.30561 0
M  V30 10891 H 1008.36 -5.66246 -5.91023 0
M  V30 10892 N 1011.02 1.44971 -0.618145 0
M  V30 10893 C 1012.27 2.0176 -0.11725 0
M  V30 10894 C 1012.59 1.48773 1.26062 0
M  V30 10895 O 1011.86 0.686152 1.83491 0
M  V30 10896 H 1010.44 0.745909 -0.0403545 0
M  V30 10897 H 1013.1 1.77638 -0.801923 0
M  V30 10898 H 1012.2 3.1201 -0.0750477 0
M  V30 10899 N 1012.5 0.357919 1.53482 0
M  V30 10900 C 1013.74 -0.23451 2.0144 0
M  V30 10901 C 1014.08 -1.49044 1.24497 0
M  V30 10902 O 1013.35 -1.91566 0.336535 0
M  V30 10903 C 1013.64 -0.534193 3.56116 0
M  V30 10904 C 1013.49 0.734834 4.43757 0
M  V30 10905 C 1014.81 -1.33793 4.1927 0
M  V30 10906 H 1011.93 -0.0837595 0.732225 0
M  V30 10907 H 1014.57 0.481297 1.83803 0
M  V30 10908 H 1012.72 -1.144 3.71275 0
M  V30 10909 H 1014.39 1.37251 4.40409 0
M  V30 10910 H 1012.63 1.35678 4.12036 0
M  V30 10911 H 1013.3 0.48021 5.49907 0
M  V30 10912 H 1015.78 -0.822158 4.07897 0
M  V30 10913 H 1014.66 -1.51636 5.27539 0
M  V30 10914 H 1014.92 -2.34423 3.74831 0
M  V30 10915 N 1013.98 -1.5736 0.0868897 0
M  V30 10916 C 1015.39 -1.57304 -0.269762 0
M  V30 10917 C 1015.59 -1.09745 -1.68992 0
M  V30 10918 O 1014.65 -0.77017 -2.40468 0
M  V30 10919 C 1015.96 -3.00628 -0.0656646 0
M  V30 10920 C 1017.51 -3.12713 -0.134045 0
M  V30 10921 C 1017.98 -4.57981 0.0419569 0
M  V30 10922 N 1019.48 -4.63198 -0.0131501 0
M  V30 10923 C 1020.21 -5.73316 0.0983964 0
M  V30 10924 N 1019.71 -6.92296 0.264315 0
M  V30 10925 N 1021.5 -5.62086 0.0402517 0
M  V30 10926 H 1013.65 -1.86585 1.01487 0
M  V30 10927 H 1015.91 -0.860843 0.397055 0
M  V30 10928 H 1015.62 -3.39592 0.914891 0
M  V30 10929 H 1015.49 -3.68367 -0.811522 0
M  V30 10930 H 1017.88 -2.73627 -1.1051 0
M  V30 10931 H 1017.96 -2.47582 0.643167 0
M  V30 10932 H 1017.61 -4.9776 1.00984 0
M  V30 10933 H 1017.54 -5.21162 -0.754847 0
M  V30 10934 H 1020.03 -3.77644 -0.139183 0
M  V30 10935 H 1020.34 -7.72047 0.341165 0
M  V30 10936 H 1018.68 -6.94353 0.299876 0
M  V30 10937 H 1021.88 -4.68017 -0.0881801 0
M  V30 10938 H 1022.05 -6.47868 0.130635 0
M  V30 10939 N 1015.45 0.186762 -1.56489 0
M  V30 10940 C 1016.7 0.904063 -1.80752 0
M  V30 10941 C 1017.02 1.83443 -0.661343 0
M  V30 10942 O 1016.29 1.93272 0.319811 0
M  V30 10943 H 1014.87 0.336828 -0.66675 0
M  V30 10944 H 1017.54 0.190275 -1.93969 0
M  V30 10945 H 1016.63 1.49021 -2.74225 0
M  V30 10946 N 1016.93 1.50896 0.454776 0
M  V30 10947 C 1018.17 1.64347 1.21529 0
M  V30 10948 C 1018.54 0.343869 1.88896 0
M  V30 10949 O 1019.74 0.353973 2.66459 0
M  V30 10950 C 1018.01 2.80199 2.21864 0
M  V30 10951 S 1019.57 3.13879 3.06636 0
M  V30 10952 H 1016.39 0.579193 0.412379 0
M  V30 10953 H 1018.99 1.88741 0.509629 0
M  V30 10954 H 1017.69 3.73086 1.70982 0
M  V30 10955 H 1017.22 2.57941 2.97036 0
M  V30 10956 H 1019.24 2.58964 4.23264 0
M  V30 10957 N 1018.41 -0.709066 1.40748 0
M  V30 10958 C 1019.36 -1.8149 1.38005 0
M  V30 10959 C 1020.34 -1.58842 0.256544 0
M  V30 10960 O 1021.54 -1.69904 0.496164 0
M  V30 10961 C 1018.67 -3.19678 1.25143 0
M  V30 10962 C 1017.75 -3.48067 2.42301 0
M  V30 10963 N 1018.14 -3.47234 3.6778 0
M  V30 10964 C 1016.44 -3.78555 2.35822 0
M  V30 10965 C 1017.14 -3.74149 4.45407 0
M  V30 10966 N 1016.12 -3.93224 3.75335 0
M  V30 10967 H 1019.92 -1.79188 2.32957 0
M  V30 10968 H 1017.43 -0.908477 1.34612 0
M  V30 10969 H 1019.43 -3.98875 1.2126 0
M  V30 10970 H 1018.09 -3.23201 0.311642 0
M  V30 10971 H 1019.1 -3.2793 4.00852 0
M  V30 10972 H 1015.78 -3.89529 1.50245 0
M  V30 10973 H 1017.17 -3.79755 5.54289 0
M  V30 10974 N 1019.89 -1.26353 -0.941956 0
M  V30 10975 C 1021.31 -1.03448 -1.21534 0
M  V30 10976 C 1021.51 0.240855 -2.00055 0
M  V30 10977 O 1020.56 0.950199 -2.33939 0
M  V30 10978 C 1021.87 -2.2654 -1.97737 0
M  V30 10979 C 1023.42 -2.31433 -2.10731 0
M  V30 10980 C 1023.9 -3.54216 -2.90336 0
M  V30 10981 N 1025.39 -3.54688 -2.9791 0
M  V30 10982 C 1026.12 -4.4636 -3.59931 0
M  V30 10983 N 1025.62 -5.48319 -4.2346 0
M  V30 10984 N 1027.41 -4.34013 -3.57196 0
M  V30 10985 H 1019.56 -2.08266 -0.417005 0
M  V30 10986 H 1021.83 -0.915251 -0.247021 0
M  V30 10987 H 1021.53 -3.19299 -1.47449 0
M  V30 10988 H 1021.41 -2.30726 -2.98405 0
M  V30 10989 H 1023.79 -1.3919 -2.60212 0
M  V30 10990 H 1023.87 -2.31259 -1.09329 0
M  V30 10991 H 1023.52 -4.46788 -2.41543 0
M  V30 10992 H 1023.45 -3.51637 -3.91993 0
M  V30 10993 H 1025.94 -2.80942 -2.52745 0
M  V30 10994 H 1026.25 -6.14458 -4.6868 0
M  V30 10995 H 1024.6 -5.52177 -4.22049 0
M  V30 10996 H 1027.79 -3.53578 -3.06758 0
M  V30 10997 H 1027.96 -5.0565 -4.05244 0
M  V30 10998 N 1021.37 1.14642 -1.08144 0
M  V30 10999 C 1022.32 2.17665 -0.678661 0
M  V30 11000 C 1023.3 1.58072 0.300336 0
M  V30 11001 O 1024.49 1.7664 0.112781 0
M  V30 11002 C 1021.62 3.43191 -0.0866362 0
M  V30 11003 C 1020.71 4.0982 -1.09126 0
M  V30 11004 N 1021.1 4.51814 -2.27372 0
M  V30 11005 C 1019.4 4.36272 -0.926411 0
M  V30 11006 C 1020.1 5.03581 -2.91172 0
M  V30 11007 N 1019.07 4.97624 -2.18795 0
M  V30 11008 H 1022.88 2.47872 -1.57914 0
M  V30 11009 H 1020.39 1.31296 -0.955772 0
M  V30 11010 H 1022.39 4.1632 0.219859 0
M  V30 11011 H 1021.05 3.14464 0.80886 0
M  V30 11012 H 1022.06 4.44941 -2.65044 0
M  V30 11013 H 1018.74 4.17414 -0.084492 0
M  V30 11014 H 1020.13 5.45969 -3.91621 0
M  V30 11015 N 1022.85 0.866709 1.31628 0
M  V30 11016 C 1023.78 0.335762 2.31073 0
M  V30 11017 C 1024.76 -0.571597 1.60209 0
M  V30 11018 O 1025.94 -0.489306 1.87935 0
M  V30 11019 C 1023.07 -0.466416 3.44154 0
M  V30 11020 C 1022.03 0.347561 4.26586 0
M  V30 11021 C 1021.35 -0.5801 5.31544 0
M  V30 11022 C 1022.65 1.57986 4.97833 0
M  V30 11023 H 1024.35 1.16673 2.75731 0
M  V30 11024 H 1021.89 0.56248 1.3256 0
M  V30 11025 H 1023.84 -0.84836 4.12772 0
M  V30 11026 H 1022.57 -1.33086 2.98254 0
M  V30 11027 H 1021.23 0.71141 3.59631 0
M  V30 11028 H 1020.88 -1.44174 4.81895 0
M  V30 11029 H 1020.58 -0.0393965 5.87587 0
M  V30 11030 H 1022.1 -0.958958 6.03023 0
M  V30 11031 H 1023.51 1.26954 5.59067 0
M  V30 11032 H 1021.91 2.05939 5.63657 0
M  V30 11033 H 1022.98 2.3345 4.25005 0
M  V30 11034 N 1024.32 -1.44642 0.625825 0
M  V30 11035 C 1025.56 -2.03977 0.131444 0
M  V30 11036 C 1025.93 -1.48122 -1.22163 0
M  V30 11037 O 1027.13 -1.98926 -1.80781 0
M  V30 11038 C 1025.4 -3.57224 0.112032 0
M  V30 11039 S 1026.96 -4.37643 -0.318501 0
M  V30 11040 H 1023.78 -0.70859 0.0584859 0
M  V30 11041 H 1026.38 -1.77099 0.828024 0
M  V30 11042 H 1025.08 -3.95383 1.10001 0
M  V30 11043 H 1024.61 -3.88705 -0.605965 0
M  V30 11044 H 1026.63 -4.70909 -1.56393 0
M  V30 11045 N 1025.8 -0.366053 -1.5329 0
M  V30 11046 C 1027.03 0.22391 -2.05383 0
M  V30 11047 C 1027.44 1.42962 -1.23929 0
M  V30 11048 O 1026.78 1.81659 -0.273072 0
M  V30 11049 C 1026.84 0.681038 -3.5299 0
M  V30 11050 C 1026.51 -0.40805 -4.55175 0
M  V30 11051 C 1027.51 -1.25806 -5.04449 0
M  V30 11052 C 1025.19 -0.568428 -4.99073 0
M  V30 11053 C 1027.18 -2.25379 -5.96224 0
M  V30 11054 C 1024.87 -1.56752 -5.90654 0
M  V30 11055 C 1025.87 -2.40864 -6.39119 0
M  V30 11056 O 1025.56 -3.39069 -7.28895 0
M  V30 11057 H 1025.29 0.0429593 -0.674634 0
M  V30 11058 H 1027.84 -0.522897 -1.98633 0
M  V30 11059 H 1026.07 1.47945 -3.5728 0
M  V30 11060 H 1027.76 1.19406 -3.8794 0
M  V30 11061 H 1028.53 -1.14536 -4.71282 0
M  V30 11062 H 1024.41 0.0764858 -4.60937 0
M  V30 11063 H 1027.95 -2.91068 -6.33976 0
M  V30 11064 H 1023.85 -1.6807 -6.23236 0
M  V30 11065 H 1024.62 -3.34804 -7.46893 0
M  V30 11066 N 1027.28 1.57312 -0.0952337 0
M  V30 11067 C 1028.21 2.17056 0.860753 0
M  V30 11068 C 1029.19 1.10394 1.29411 0
M  V30 11069 O 1030.38 1.38532 1.36098 0
M  V30 11070 C 1027.51 2.751 2.11984 0
M  V30 11071 C 1026.46 3.87136 1.8251 0
M  V30 11072 C 1025.79 4.31883 3.15247 0
M  V30 11073 C 1027.09 5.10326 1.11194 0
M  V30 11074 H 1028.78 2.97192 0.362983 0
M  V30 11075 H 1026.33 1.42955 0.173151 0
M  V30 11076 H 1028.28 3.15547 2.79299 0
M  V30 11077 H 1027 1.92219 2.64044 0
M  V30 11078 H 1025.66 3.47229 1.17592 0
M  V30 11079 H 1025.31 3.45893 3.65195 0
M  V30 11080 H 1025.01 5.0742 2.96309 0
M  V30 11081 H 1026.53 4.74964 3.83721 0
M  V30 11082 H 1027.95 5.47942 1.6862 0
M  V30 11083 H 1026.34 5.91293 1.02435 0
M  V30 11084 H 1027.41 4.84807 0.0947227 0
M  V30 11085 N 1028.76 -0.17846 1.56586 0
M  V30 11086 C 1029.72 -1.20479 1.94981 0
M  V30 11087 C 1030.72 -1.37561 0.832677 0
M  V30 11088 O 1031.91 -1.35089 1.09984 0
M  V30 11089 C 1029.04 -2.57117 2.23839 0
M  V30 11090 H 1030.24 -0.876173 2.86816 0
M  V30 11091 H 1027.79 -0.420635 1.50534 0
M  V30 11092 H 1028.52 -2.95005 1.34695 0
M  V30 11093 H 1028.31 -2.46086 3.05261 0
M  V30 11094 H 1029.8 -3.31096 2.5449 0
M  V30 11095 N 1030.24 -1.51135 -0.446768 0
M  V30 11096 C 1031.15 -1.74595 -1.56696 0
M  V30 11097 C 1032.16 -0.629816 -1.62201 0
M  V30 11098 O 1033.34 -0.910987 -1.79619 0
M  V30 11099 C 1030.4 -1.85738 -2.9275 0
M  V30 11100 C 1029.46 -3.09564 -2.97437 0
M  V30 11101 C 1028.7 -3.20165 -4.27001 0
M  V30 11102 O 1028.92 -2.36939 -5.1886 0
M  V30 11103 O 1027.85 -4.13077 -4.3778 0
M  V30 11104 H 1031.68 -2.69601 -1.39817 0
M  V30 11105 H 1029.26 -1.35523 -0.628805 0
M  V30 11106 H 1031.15 -1.95107 -3.73512 0
M  V30 11107 H 1029.82 -0.939184 -3.09776 0
M  V30 11108 H 1028.73 -3.05679 -2.15664 0
M  V30 11109 H 1030.06 -4.01041 -2.85353 0
M  V30 11110 N 1031.71 0.701592 -1.41122 0
M  V30 11111 C 1032.64 1.82815 -1.45262 0
M  V30 11112 C 1033.62 1.67215 -0.311939 0
M  V30 11113 O 1034.81 1.87038 -0.522538 0
M  V30 11114 C 1031.94 3.20899 -1.32819 0
M  V30 11115 C 1030.89 3.51194 -2.44636 0
M  V30 11116 C 1030.22 4.8857 -2.17263 0
M  V30 11117 C 1031.52 3.50777 -3.86979 0
M  V30 11118 H 1033.21 1.79608 -2.39544 0
M  V30 11119 H 1030.76 0.862693 -1.15298 0
M  V30 11120 H 1032.71 3.99417 -1.34329 0
M  V30 11121 H 1031.44 3.24717 -0.350191 0
M  V30 11122 H 1030.1 2.75024 -2.42399 0
M  V30 11123 H 1029.74 4.89007 -1.17819 0
M  V30 11124 H 1029.44 5.09805 -2.92186 0
M  V30 11125 H 1030.97 5.69405 -2.20478 0
M  V30 11126 H 1032.38 4.19309 -3.90964 0
M  V30 11127 H 1030.78 3.83542 -4.61536 0
M  V30 11128 H 1031.85 2.49873 -4.15562 0
M  V30 11129 N 1033.19 1.2685 0.935242 0
M  V30 11130 C 1034.12 1.03244 2.03509 0
M  V30 11131 C 1035.1 -0.0447323 1.62538 0
M  V30 11132 O 1036.29 0.0988905 1.8824 0
M  V30 11133 C 1033.41 0.564626 3.33961 0
M  V30 11134 C 1032.46 1.63524 3.93906 0
M  V30 11135 S 1033.29 3.22577 4.27439 0
M  V30 11136 C 1034.45 2.77579 5.60982 0
M  V30 11137 H 1034.68 1.96367 2.2322 0
M  V30 11138 H 1032.21 1.10597 1.07739 0
M  V30 11139 H 1034.17 0.301388 4.09392 0
M  V30 11140 H 1032.83 -0.346419 3.12184 0
M  V30 11141 H 1032.03 1.25905 4.8802 0
M  V30 11142 H 1031.63 1.85017 3.25031 0
M  V30 11143 H 1033.92 2.22412 6.39952 0
M  V30 11144 H 1034.86 3.70408 6.03493 0
M  V30 11145 H 1035.27 2.16956 5.21143 0
M  V30 11146 N 1034.67 -1.14067 1.0875 0
M  V30 11147 C 1035.58 -2.22871 0.732498 0
M  V30 11148 C 1036.6 -1.72008 -0.26253 0
M  V30 11149 O 1037.77 -2.01123 -0.105601 0
M  V30 11150 C 1034.84 -3.46371 0.150913 0
M  V30 11151 C 1033.9 -4.12158 1.201 0
M  V30 11152 C 1033.13 -5.29763 0.647075 0
M  V30 11153 O 1033.35 -5.67911 -0.532307 0
M  V30 11154 O 1032.29 -5.8542 1.3988 0
M  V30 11155 H 1036.11 -2.55596 1.64025 0
M  V30 11156 H 1033.7 -1.22065 0.861417 0
M  V30 11157 H 1035.58 -4.21055 -0.170442 0
M  V30 11158 H 1034.26 -3.15362 -0.729948 0
M  V30 11159 H 1033.16 -3.39332 1.57494 0
M  V30 11160 H 1034.5 -4.47282 2.05426 0
M  V30 11161 N 1036.15 -0.873678 -1.31166 0
M  V30 11162 C 1037.1 -0.303699 -2.25968 0
M  V30 11163 C 1038.08 0.561387 -1.50789 0
M  V30 11164 O 1039.27 0.407658 -1.72242 0
M  V30 11165 C 1036.4 0.490612 -3.39776 0
M  V30 11166 C 1035.49 -0.387927 -4.22322 0
M  V30 11167 N 1035.88 -1.48313 -4.83567 0
M  V30 11168 C 1034.18 -0.18102 -4.45632 0
M  V30 11169 C 1034.88 -2.0252 -5.45308 0
M  V30 11170 N 1033.86 -1.32169 -5.27288 0
M  V30 11171 H 1037.66 -1.14071 -2.7086 0
M  V30 11172 H 1035.17 -0.721843 -1.45476 0
M  V30 11173 H 1037.17 0.9155 -4.06724 0
M  V30 11174 H 1035.83 1.32519 -2.96427 0
M  V30 11175 H 1036.84 -1.86604 -4.83114 0
M  V30 11176 H 1033.52 0.617304 -4.12911 0
M  V30 11177 H 1034.91 -2.94429 -6.03955 0
M  V30 11178 N 1037.63 1.44308 -0.633487 0
M  V30 11179 C 1038.85 2.06897 -0.144347 0
M  V30 11180 C 1039.28 1.47045 1.173 0
M  V30 11181 O 1038.63 0.572806 1.72013 0
M  V30 11182 C 1038.68 3.60571 -0.0456324 0
M  V30 11183 O 1037.79 4.0015 0.997682 0
M  V30 11184 H 1037.13 0.658427 -0.0858499 0
M  V30 11185 H 1039.66 1.85142 -0.870833 0
M  V30 11186 H 1039.67 4.07745 0.144178 0
M  V30 11187 H 1038.34 4.03515 -1.0074 0
M  V30 11188 H 1036.92 3.64603 0.782252 0
M  V30 11189 N 1039.1 0.374177 1.53094 0
M  V30 11190 C 1040.01 -0.475935 2.29722 0
M  V30 11191 C 1041.03 -1.085 1.36029 0
M  V30 11192 O 1042.21 -1.09408 1.69091 0
M  V30 11193 C 1039.27 -1.59572 3.07795 0
M  V30 11194 C 1038.33 -1.01332 4.17169 0
M  V30 11195 C 1037.57 -2.07975 4.9151 0
M  V30 11196 O 1037.79 -3.29232 4.65793 0
M  V30 11197 O 1036.72 -1.7055 5.77232 0
M  V30 11198 H 1040.55 0.147877 3.0334 0
M  V30 11199 H 1038.13 0.138312 1.48758 0
M  V30 11200 H 1040.02 -2.24658 3.5652 0
M  V30 11201 H 1038.69 -2.20478 2.37005 0
M  V30 11202 H 1037.6 -0.326133 3.72676 0
M  V30 11203 H 1038.93 -0.4487 4.90151 0
M  V30 11204 N 1040.58 -1.57259 0.103575 0
M  V30 11205 C 1041.53 -2.15727 -0.869739 0
M  V30 11206 C 1042.52 -1.10236 -1.28625 0
M  V30 11207 O 1043.73 -1.28567 -1.25979 0
M  V30 11208 H 1040.11 -0.690204 -0.298535 0
M  V30 11209 H 1042.08 -2.96317 -0.351984 0
M  V30 11210 C 1040.83 -2.75905 -2.11593 0
M  V30 11211 H 1040.15 -3.56768 -1.80434 0
M  V30 11212 H 1041.59 -3.20373 -2.77736 0
M  V30 11213 C 1040.05 -1.72218 -2.89556 0
M  V30 11214 O 1040.58 -1.16623 -3.84398 0
M  V30 11215 N 1038.78 -1.42514 -2.53255 0
M  V30 11216 H 1038.33 -1.87914 -1.76198 0
M  V30 11217 H 1038.29 -0.733782 -3.05717 0
M  V30 11218 N 1042.06 0.170153 -1.56679 0
M  V30 11219 C 1043.31 0.884841 -1.817 0
M  V30 11220 C 1043.63 1.82731 -0.680763 0
M  V30 11221 O 1042.9 1.936 0.299294 0
M  V30 11222 H 1041.48 0.329738 -0.670285 0
M  V30 11223 H 1044.14 0.169691 -1.9416 0
M  V30 11224 H 1043.24 1.46104 -2.7579 0
M  V30 11225 N 1043.54 1.5137 0.438746 0
M  V30 11226 C 1044.5 1.71993 1.51496 0
M  V30 11227 C 1045.5 0.589978 1.49586 0
M  V30 11228 O 1046.69 0.857505 1.51633 0
M  V30 11229 C 1043.82 1.77508 2.91039 0
M  V30 11230 H 1045.02 2.68041 1.34514 0
M  V30 11231 H 1042.57 1.41338 0.667326 0
M  V30 11232 H 1043.3 0.832698 3.13427 0
M  V30 11233 H 1043.09 2.59627 2.9383 0
M  V30 11234 H 1044.58 1.95308 3.69113 0
M  V30 11235 N 1045.02 -0.694098 1.41492 0
M  V30 11236 C 1046.26 -1.4563 1.41137 0
M  V30 11237 C 1046.6 -1.94189 0.0208428 0
M  V30 11238 O 1045.87 -1.69628 -0.951655 0
M  V30 11239 C 1046.15 -2.66714 2.41941 0
M  V30 11240 C 1046.01 -2.23912 3.90107 0
M  V30 11241 C 1047.33 -3.68913 2.39981 0
M  V30 11242 H 1044.44 -0.52821 0.513968 0
M  V30 11243 H 1047.09 -0.790437 1.72778 0
M  V30 11244 H 1045.24 -3.23525 2.1509 0
M  V30 11245 H 1046.91 -1.72417 4.27867 0
M  V30 11246 H 1045.15 -1.5568 4.04903 0
M  V30 11247 H 1045.82 -3.108 4.56188 0
M  V30 11248 H 1048.3 -3.21779 2.63813 0
M  V30 11249 H 1047.17 -4.51242 3.12524 0
M  V30 11250 H 1047.44 -4.18711 1.41892 0
M  V30 11251 N 1046.49 -1.27344 -0.928501 0
M  V30 11252 C 1047.74 -1.13019 -1.67061 0
M  V30 11253 C 1048.06 0.323614 -1.92904 0
M  V30 11254 O 1049.26 0.587752 -2.65062 0
M  V30 11255 C 1047.72 -1.97471 -3.00887 0
M  V30 11256 C 1047.33 -3.47504 -2.82746 0
M  V30 11257 C 1049.07 -1.91792 -3.78703 0
M  V30 11258 C 1046.98 -4.24158 -4.12122 0
M  V30 11259 H 1045.91 -0.419364 -0.626618 0
M  V30 11260 H 1048.56 -1.51759 -1.03158 0
M  V30 11261 H 1046.94 -1.51576 -3.65843 0
M  V30 11262 H 1048.11 -4.01256 -2.26562 0
M  V30 11263 H 1046.43 -3.54554 -2.18359 0
M  V30 11264 H 1049.03 -2.46339 -4.74575 0
M  V30 11265 H 1049.37 -0.891375 -4.06645 0
M  V30 11266 H 1049.9 -2.35578 -3.20543 0
M  V30 11267 H 1046.64 -5.27333 -3.89359 0
M  V30 11268 H 1046.16 -3.75183 -4.67972 0
M  V30 11269 H 1047.84 -4.33288 -4.80489 0
M  V30 11270 N 1047.97 1.13488 -1.09353 0
M  V30 11271 C 1049.25 1.80998 -0.741559 0
M  V30 11272 C 1049.63 1.96418 0.773505 0
M  V30 11273 O 1048.98 1.53168 1.69563 0
M  V30 11274 C 1049.19 3.16078 -1.47972 0
M  V30 11275 C 1050.54 3.91438 -1.64504 0
M  V30 11276 O 1051.56 3.25699 -1.44218 0
M  V30 11277 O 1050.42 5.0935 -1.98054 0
M  V30 11278 H 1047.51 0.782953 -0.266297 0
M  V30 11279 H 1050.06 1.20422 -1.19569 0
M  V30 11280 H 1048.83 3.00076 -2.51137 0
M  V30 11281 H 1048.45 3.84354 -1.01772 0
M  V30 11282 N 1049.45 0.880621 1.30701 0
M  V30 11283 C 1050.86 0.547993 1.78477 0
M  V30 11284 C 1051.21 -0.935633 1.72454 0
M  V30 11285 O 1050.34 -1.73094 1.29874 0
M  V30 11286 C 1050.93 0.98795 3.24076 0
M  V30 11287 C 1049.49 0.706805 3.69704 0
M  V30 11288 C 1048.64 1.17335 2.51252 0
M  V30 11289 H 1051.59 1.06528 1.17633 0
M  V30 11290 H 1051.61 0.31508 3.79193 0
M  V30 11291 H 1051.12 2.06778 3.28427 0
M  V30 11292 H 1049.22 -0.36122 3.70845 0
M  V30 11293 H 1049.34 1.2913 4.6137 0
M  V30 11294 H 1047.7 0.592808 2.47705 0
M  V30 11295 H 1048.48 2.26083 2.58343 0
M  V30 11296 N 1050.93 -1.4397 0.641131 0
M  V30 11297 C 1052.16 -2.06303 0.157006 0
M  V30 11298 C 1052.57 -1.47981 -1.17248 0
M  V30 11299 O 1051.93 -0.606471 -1.72128 0
M  V30 11300 C 1051.98 -3.6147 0.0468425 0
M  V30 11301 O 1051.7 -4.17622 1.32376 0
M  V30 11302 C 1053.2 -4.40857 -0.464795 0
M  V30 11303 H 1050.42 -0.665684 0.0842946 0
M  V30 11304 H 1052.97 -1.84675 0.878363 0
M  V30 11305 H 1051.12 -3.82325 -0.625006 0
M  V30 11306 H 1051.54 -5.11167 1.17509 0
M  V30 11307 H 1053.01 -5.49813 -0.490862 0
M  V30 11308 H 1053.49 -4.13016 -1.4938 0
M  V30 11309 H 1054.09 -4.24943 0.174146 0
M  V30 11310 N 1052.41 -0.382291 -1.52893 0
M  V30 11311 C 1053.34 0.447829 -2.29165 0
M  V30 11312 C 1054.32 1.06956 -1.32267 0
M  V30 11313 O 1055.5 1.08365 -1.61154 0
M  V30 11314 C 1052.63 1.57902 -3.09329 0
M  V30 11315 C 1051.59 1.08369 -4.14053 0
M  V30 11316 C 1050.91 2.30641 -4.82399 0
M  V30 11317 C 1052.21 0.156591 -5.22065 0
M  V30 11318 H 1053.91 -0.188541 -2.98806 0
M  V30 11319 H 1051.45 -0.0921179 -1.43705 0
M  V30 11320 H 1053.41 2.16652 -3.61442 0
M  V30 11321 H 1052.13 2.24287 -2.37409 0
M  V30 11322 H 1050.79 0.518772 -3.62911 0
M  V30 11323 H 1050.44 2.9552 -4.07034 0
M  V30 11324 H 1050.14 1.98163 -5.53177 0
M  V30 11325 H 1051.66 2.90047 -5.37313 0
M  V30 11326 H 1053.08 0.652065 -5.6958 0
M  V30 11327 H 1051.47 -0.0780978 -6.00049 0
M  V30 11328 H 1052.54 -0.796529 -4.78313 0
M  V30 11329 N 1053.89 1.57202 -0.111913 0
M  V30 11330 C 1054.82 2.17957 0.837683 0
M  V30 11331 C 1055.8 1.1176 1.28233 0
M  V30 11332 O 1056.98 1.39967 1.34621 0
M  V30 11333 C 1054.11 2.77333 2.09054 0
M  V30 11334 C 1053.07 3.8905 1.78393 0
M  V30 11335 C 1052.39 4.35203 3.10649 0
M  V30 11336 C 1053.69 5.11477 1.05775 0
M  V30 11337 H 1055.39 2.9756 0.331441 0
M  V30 11338 H 1052.93 1.43131 0.157979 0
M  V30 11339 H 1054.88 3.18492 2.75936 0
M  V30 11340 H 1053.61 1.95009 2.6199 0
M  V30 11341 H 1052.27 3.48456 1.13903 0
M  V30 11342 H 1051.92 3.49747 3.61506 0
M  V30 11343 H 1051.62 5.10534 2.9091 0
M  V30 11344 H 1053.14 4.79007 3.78661 0
M  V30 11345 H 1054.55 5.497 1.62798 0
M  V30 11346 H 1052.95 5.92346 0.961573 0
M  V30 11347 H 1054.02 4.84881 0.043297 0
M  V30 11348 N 1055.36 -0.161842 1.56767 0
M  V30 11349 C 1056.31 -1.20506 1.93552 0
M  V30 11350 C 1057.3 -1.39317 0.804952 0
M  V30 11351 O 1058.49 -1.41129 1.06825 0
M  V30 11352 C 1055.62 -2.54227 2.30702 0
M  V30 11353 C 1054.7 -2.3907 3.50295 0
M  V30 11354 N 1055.1 -1.93642 4.67265 0
M  V30 11355 C 1053.39 -2.69868 3.55088 0
M  V30 11356 C 1054.09 -1.91175 5.49388 0
M  V30 11357 N 1053.07 -2.33935 4.90689 0
M  V30 11358 H 1056.87 -0.845687 2.8147 0
M  V30 11359 H 1054.39 -0.370034 1.58128 0
M  V30 11360 H 1056.38 -3.29623 2.55254 0
M  V30 11361 H 1055.04 -2.90959 1.44128 0
M  V30 11362 H 1056.05 -1.63834 4.91303 0
M  V30 11363 H 1052.73 -3.10574 2.79016 0
M  V30 11364 H 1054.12 -1.57671 6.53138 0
M  V30 11365 N 1056.84 -1.516 -0.430713 0
M  V30 11366 C 1058.07 -1.68169 -1.20011 0
M  V30 11367 C 1058.48 -0.381406 -1.85316 0
M  V30 11368 O 1057.82 0.6506 -1.71793 0
M  V30 11369 C 1057.88 -2.7454 -2.32095 0
M  V30 11370 C 1057.55 -4.16942 -1.87104 0
M  V30 11371 C 1058.55 -5.01503 -1.37078 0
M  V30 11372 C 1056.23 -4.63075 -1.94594 0
M  V30 11373 C 1058.22 -6.3026 -0.951362 0
M  V30 11374 C 1055.91 -5.91827 -1.52264 0
M  V30 11375 C 1056.91 -6.75247 -1.02618 0
M  V30 11376 O 1056.6 -8.01591 -0.608905 0
M  V30 11377 H 1056.33 -0.567361 -0.367528 0
M  V30 11378 H 1058.88 -1.98819 -0.515759 0
M  V30 11379 H 1057.11 -2.39219 -3.03828 0
M  V30 11380 H 1058.8 -2.79921 -2.93937 0
M  V30 11381 H 1059.57 -4.67063 -1.30681 0
M  V30 11382 H 1055.45 -3.98262 -2.32182 0
M  V30 11383 H 1058.99 -6.95323 -0.563163 0
M  V30 11384 H 1054.89 -6.2578 -1.58333 0
M  V30 11385 H 1055.66 -8.15201 -0.73416 0
M  V30 11386 N 1058.32 0.686584 -1.41858 0
M  V30 11387 C 1059.54 1.4802 -1.45275 0
M  V30 11388 C 1059.97 1.87997 -0.0621297 0
M  V30 11389 O 1059.33 1.55226 0.936733 0
M  V30 11390 C 1059.38 2.7133 -2.37513 0
M  V30 11391 O 1058.48 3.69159 -1.83836 0
M  V30 11392 H 1057.82 0.445152 -0.492682 0
M  V30 11393 H 1060.35 0.843161 -1.86419 0
M  V30 11394 H 1060.36 3.19537 -2.53693 0
M  V30 11395 H 1059.04 2.41571 -3.3855 0
M  V30 11396 H 1057.61 3.28134 -1.77151 0
M  V30 11397 N 1059.8 1.27835 0.921735 0
M  V30 11398 C 1061.04 1.14523 1.67005 0
M  V30 11399 C 1061.37 -0.307776 1.92049 0
M  V30 11400 O 1060.63 -1.24103 1.51317 0
M  V30 11401 C 1060.93 1.88054 3.03925 0
M  V30 11402 C 1060.59 3.37886 2.9857 0
M  V30 11403 C 1059.25 3.78752 2.96817 0
M  V30 11404 C 1061.61 4.33462 2.89414 0
M  V30 11405 C 1058.93 5.13549 2.83698 0
M  V30 11406 C 1061.29 5.68322 2.77836 0
M  V30 11407 C 1059.95 6.08475 2.74436 0
M  V30 11408 H 1059.22 0.419068 0.611116 0
M  V30 11409 H 1061.87 1.58515 1.07449 0
M  V30 11410 H 1060.17 1.36587 3.67221 0
M  V30 11411 H 1061.87 1.75176 3.60714 0
M  V30 11412 H 1058.46 3.05389 3.00725 0
M  V30 11413 H 1062.64 4.02857 2.89862 0
M  V30 11414 H 1057.9 5.43796 2.79456 0
M  V30 11415 H 1062.07 6.42048 2.69717 0
M  V30 11416 H 1059.7 7.12877 2.64027 0
M  V30 11417 N 1061.28 -1.12907 1.09954 0
M  V30 11418 C 1062.24 -2.16673 0.747364 0
M  V30 11419 C 1063.24 -1.59208 -0.225741 0
M  V30 11420 O 1064.43 -1.742 -0.00322482 0
M  V30 11421 C 1061.56 -3.40735 0.106169 0
M  V30 11422 H 1062.75 -2.49341 1.6664 0
M  V30 11423 H 1060.31 -1.27828 0.899421 0
M  V30 11424 H 1061.04 -3.13661 -0.82384 0
M  V30 11425 H 1060.83 -3.83717 0.806434 0
M  V30 11426 H 1062.32 -4.17414 -0.12464 0
M  V30 11427 N 1062.75 -0.88754 -1.30232 0
M  V30 11428 C 1064 -0.507279 -1.96043 0
M  V30 11429 C 1064.33 0.944059 -1.70052 0
M  V30 11430 O 1063.58 1.68255 -0.999444 0
M  V30 11431 C 1063.88 -0.731765 -3.49828 0
M  V30 11432 C 1063.55 -2.15858 -3.95874 0
M  V30 11433 C 1062.21 -2.54875 -4.08157 0
M  V30 11434 C 1064.56 -3.0883 -4.19849 0
M  V30 11435 C 1061.89 -3.86069 -4.41778 0
M  V30 11436 C 1064.24 -4.39559 -4.5494 0
M  V30 11437 C 1062.91 -4.78465 -4.65432 0
M  V30 11438 H 1062.18 -0.185627 -0.717373 0
M  V30 11439 H 1064.82 -1.12388 -1.55052 0
M  V30 11440 H 1063.13 -0.0321473 -3.91787 0
M  V30 11441 H 1064.83 -0.417107 -3.98825 0
M  V30 11442 H 1061.42 -1.84574 -3.86821 0
M  V30 11443 H 1065.6 -2.79906 -4.09837 0
M  V30 11444 H 1060.86 -4.1595 -4.48102 0
M  V30 11445 H 1065.03 -5.11636 -4.72442 0
M  V30 11446 H 1062.66 -5.80162 -4.91239 0
M  V30 11447 N 1064.23 1.43628 -0.648757 0
M  V30 11448 C 1065.47 2.03742 -0.163878 0
M  V30 11449 C 1065.84 1.50047 1.19791 0
M  V30 11450 O 1067.04 2.01777 1.77594 0
M  V30 11451 C 1065.31 3.57001 -0.168849 0
M  V30 11452 S 1066.87 4.38094 0.248835 0
M  V30 11453 H 1063.69 0.70757 -0.0697515 0
M  V30 11454 H 1066.29 1.75759 -0.856094 0
M  V30 11455 H 1064.99 3.93583 -1.16277 0
M  V30 11456 H 1064.52 3.8962 0.544048 0
M  V30 11457 H 1066.54 4.73338 1.48882 0
M  V30 11458 N 1065.71 0.390394 1.52688 0
M  V30 11459 C 1066.67 -0.432149 2.25089 0
M  V30 11460 C 1067.67 -0.989296 1.26766 0
M  V30 11461 O 1068.86 -0.871126 1.50854 0
M  V30 11462 C 1066 -1.60642 3.00678 0
M  V30 11463 H 1067.19 0.201734 2.99221 0
M  V30 11464 H 1064.74 0.142531 1.55649 0
M  V30 11465 H 1065.48 -2.2777 2.3085 0
M  V30 11466 H 1065.26 -1.21361 3.72846 0
M  V30 11467 H 1066.75 -2.18873 3.55647 0
M  V30 11468 N 1067.19 -1.57141 0.120249 0
M  V30 11469 C 1068.41 -2.00017 -0.548454 0
M  V30 11470 C 1068.84 -0.999433 -1.59352 0
M  V30 11471 O 1068.2 0.0286978 -1.81277 0
M  V30 11472 C 1068.24 -3.41766 -1.15015 0
M  V30 11473 O 1067.35 -3.44589 -2.26566 0
M  V30 11474 H 1066.69 -0.649739 -0.136875 0
M  V30 11475 H 1069.22 -2.03529 0.209092 0
M  V30 11476 H 1069.23 -3.80001 -1.48537 0
M  V30 11477 H 1067.9 -4.14117 -0.384681 0
M  V30 11478 H 1066.48 -3.18174 -1.94473 0
M  V30 11479 N 1068.67 0.153526 -1.5685 0
M  V30 11480 C 1069.62 1.19478 -1.94188 0
M  V30 11481 C 1070.6 1.38889 -0.812329 0
M  V30 11482 O 1071.79 1.4056 -1.07572 0
M  V30 11483 C 1068.92 2.53 -2.32047 0
M  V30 11484 C 1068.01 2.37209 -3.51557 0
M  V30 11485 N 1068.4 1.91162 -4.68285 0
M  V30 11486 C 1066.7 2.67981 -3.56514 0
M  V30 11487 C 1067.4 1.88259 -5.50394 0
M  V30 11488 N 1066.37 2.31329 -4.91923 0
M  V30 11489 H 1070.18 0.830748 -2.81915 0
M  V30 11490 H 1067.69 0.361643 -1.58322 0
M  V30 11491 H 1069.69 3.28264 -2.56998 0
M  V30 11492 H 1068.35 2.90191 -1.45669 0
M  V30 11493 H 1069.36 1.61227 -4.92165 0
M  V30 11494 H 1066.03 3.0909 -2.80659 0
M  V30 11495 H 1067.42 1.54205 -6.53965 0
M  V30 11496 N 1070.14 1.51827 0.422667 0
M  V30 11497 C 1071.39 1.65464 1.17258 0
M  V30 11498 C 1071.72 0.376834 1.90509 0
M  V30 11499 O 1071 -0.624219 1.84211 0
M  V30 11500 C 1071.28 2.86776 2.17788 0
M  V30 11501 C 1071.13 4.24571 1.48523 0
M  V30 11502 C 1072.45 3.03603 3.18611 0
M  V30 11503 H 1069.57 0.602169 0.424925 0
M  V30 11504 H 1072.21 1.84349 0.45996 0
M  V30 11505 H 1070.36 2.70806 2.78561 0
M  V30 11506 H 1072.04 4.5224 0.909739 0
M  V30 11507 H 1070.28 4.26595 0.787354 0
M  V30 11508 H 1070.95 5.05475 2.2181 0
M  V30 11509 H 1073.43 3.18381 2.67904 0
M  V30 11510 H 1072.3 3.90022 3.8623 0
M  V30 11511 H 1072.56 2.16318 3.85563 0
M  V30 11512 N 1071.62 -0.679052 1.4222 0
M  V30 11513 C 1072.57 -1.78522 1.41824 0
M  V30 11514 C 1073.56 -1.58262 0.290179 0
M  V30 11515 O 1074.75 -1.68813 0.532092 0
M  V30 11516 C 1071.88 -3.16952 1.31895 0
M  V30 11517 C 1070.96 -3.42849 2.4963 0
M  V30 11518 N 1071.35 -3.39354 3.75063 0
M  V30 11519 C 1069.65 -3.73468 2.43799 0
M  V30 11520 C 1070.35 -3.64617 4.53243 0
M  V30 11521 N 1069.33 -3.85174 3.83591 0
M  V30 11522 H 1073.13 -1.74206 2.36705 0
M  V30 11523 H 1070.65 -0.879719 1.36509 0
M  V30 11524 H 1072.64 -3.96214 1.29693 0
M  V30 11525 H 1071.3 -3.22467 0.380127 0
M  V30 11526 H 1072.31 -3.19354 4.07718 0
M  V30 11527 H 1068.99 -3.86254 1.58474 0
M  V30 11528 H 1070.38 -3.67912 5.62219 0
M  V30 11529 N 1073.1 -1.28322 -0.914942 0
M  V30 11530 C 1074.35 -1.15179 -1.66067 0
M  V30 11531 C 1074.67 0.300279 -1.92674 0
M  V30 11532 O 1073.94 1.20821 -1.54205 0
M  V30 11533 H 1072.52 -0.423264 -0.615513 0
M  V30 11534 H 1075.18 -1.61034 -1.09791 0
M  V30 11535 H 1074.28 -1.69048 -2.62353 0
M  V30 11536 N 1074.58 1.12322 -1.10551 0
M  V30 11537 C 1075.53 2.20166 -0.750317 0
M  V30 11538 C 1076.52 1.67484 0.254066 0
M  V30 11539 O 1077.73 1.79637 0.114309 0
M  V30 11540 H 1074.1 0.717642 -0.22471 0
M  V30 11541 H 1076.07 2.47378 -1.66873 0
M  V30 11542 C 1074.82 3.47126 -0.199651 0
M  V30 11543 H 1074.14 3.88011 -0.963735 0
M  V30 11544 H 1075.58 4.23999 0.0108033 0
M  V30 11545 C 1074.04 3.19526 1.06792 0
M  V30 11546 O 1074.57 3.39368 2.14923 0
M  V30 11547 N 1072.78 2.73324 0.987032 0
M  V30 11548 H 1072.33 2.57378 0.106997 0
M  V30 11549 H 1072.28 2.55234 1.83584 0
M  V30 11550 N 1076.06 0.894434 1.2976 0
M  V30 11551 C 1077.47 0.589778 1.48303 0
M  V30 11552 C 1077.67 -0.870085 1.81746 0
M  V30 11553 O 1076.73 -1.65065 1.91076 0
M  V30 11554 C 1078.04 1.51107 2.59975 0
M  V30 11555 C 1079.59 1.51571 2.73853 0
M  V30 11556 C 1080.06 2.42316 3.88648 0
M  V30 11557 N 1081.56 2.40333 3.95973 0
M  V30 11558 C 1082.29 3.07254 4.84131 0
M  V30 11559 N 1081.79 3.83435 5.77018 0
M  V30 11560 N 1083.58 2.96438 4.77578 0
M  V30 11561 H 1075.73 1.83871 1.06327 0
M  V30 11562 H 1077.99 0.78758 0.527657 0
M  V30 11563 H 1077.7 2.55097 2.42112 0
M  V30 11564 H 1077.57 1.22767 3.56662 0
M  V30 11565 H 1079.96 0.483277 2.91116 0
M  V30 11566 H 1080.04 1.83946 1.77757 0
M  V30 11567 H 1079.69 3.4565 3.72141 0
M  V30 11568 H 1079.62 2.07252 4.84101 0
M  V30 11569 H 1082.11 1.84979 3.29532 0
M  V30 11570 H 1082.42 4.31565 6.4107 0
M  V30 11571 H 1080.76 3.87542 5.7692 0
M  V30 11572 H 1083.96 2.36442 4.03996 0
M  V30 11573 H 1084.13 3.48867 5.46073 0
M  V30 11574 N 1077.53 -1.43282 0.656365 0
M  V30 11575 C 1078.95 -1.85012 0.250475 0
M  V30 11576 C 1079.3 -1.54944 -1.20361 0
M  V30 11577 O 1078.42 -0.999983 -1.9191 0
M  V30 11578 C 1079.02 -3.35827 0.447815 0
M  V30 11579 C 1077.58 -3.76277 0.0962151 0
M  V30 11580 C 1076.72 -2.66988 0.749168 0
M  V30 11581 H 1079.67 -1.3339 0.85982 0
M  V30 11582 H 1079.69 -3.7927 -0.305726 0
M  V30 11583 H 1079.21 -3.5768 1.5062 0
M  V30 11584 H 1077.31 -3.60035 -0.959449 0
M  V30 11585 H 1077.42 -4.76227 0.523875 0
M  V30 11586 H 1075.78 -2.54048 0.18212 0
M  V30 11587 H 1076.57 -2.91669 1.81064 0
M  V30 11588 N 1079.01 -0.398486 -1.52479 0
M  V30 11589 C 1080.29 0.238776 -1.94137 0
M  V30 11590 C 1080.67 1.63558 -1.33462 0
M  V30 11591 O 1080.02 2.22821 -0.506272 0
M  V30 11592 C 1080.23 0.255863 -3.48061 0
M  V30 11593 C 1081.58 0.480376 -4.21874 0
M  V30 11594 O 1082.6 0.335679 -3.54615 0
M  V30 11595 O 1081.46 0.764654 -5.41124 0
M  V30 11596 H 1078.55 0.150806 -0.813134 0
M  V30 11597 H 1081.1 -0.453659 -1.63524 0
M  V30 11598 H 1079.87 -0.722171 -3.84578 0
M  V30 11599 H 1079.49 0.99284 -3.85004 0
M  V30 11600 N 1080.49 1.57075 -0.12858 0
M  V30 11601 C 1081.74 1.95134 0.526046 0
M  V30 11602 C 1082.06 1.01337 1.66601 0
M  V30 11603 O 1081.33 0.0714361 1.9577 0
M  V30 11604 H 1079.91 0.720468 0.19732 0
M  V30 11605 H 1082.57 1.93874 -0.199767 0
M  V30 11606 H 1081.67 2.98406 0.914332 0
M  V30 11607 N 1081.97 -0.145205 1.5693 0
M  V30 11608 C 1083.22 -0.855955 1.82637 0
M  V30 11609 C 1083.53 -1.82255 0.710109 0
M  V30 11610 O 1084.74 -2.57758 0.852837 0
M  V30 11611 C 1083.19 -1.57278 3.23715 0
M  V30 11612 C 1082.8 -0.648507 4.43281 0
M  V30 11613 C 1084.55 -2.27021 3.58695 0
M  V30 11614 C 1082.45 -1.36706 5.75383 0
M  V30 11615 H 1081.38 -0.323385 0.68113 0
M  V30 11616 H 1084.03 -0.10869 1.83178 0
M  V30 11617 H 1082.42 -2.36574 3.17567 0
M  V30 11618 H 1083.59 0.109355 4.6067 0
M  V30 11619 H 1081.9 -0.0594029 4.16358 0
M  V30 11620 H 1084.5 -2.81423 4.54648 0
M  V30 11621 H 1084.84 -3.03598 2.8484 0
M  V30 11622 H 1085.38 -1.54642 3.66512 0
M  V30 11623 H 1082.12 -0.6431 6.52338 0
M  V30 11624 H 1081.64 -2.09759 5.61926 0
M  V30 11625 H 1083.32 -1.90748 6.18243 0
M  V30 11626 N 1083.45 -1.52049 -0.414609 0
M  V30 11627 C 1084.7 -1.65511 -1.15977 0
M  V30 11628 C 1085.02 -0.384703 -1.91168 0
M  V30 11629 O 1084.29 0.600247 -1.86477 0
M  V30 11630 H 1082.87 -0.610039 -0.431116 0
M  V30 11631 H 1085.53 -1.8907 -0.473139 0
M  V30 11632 H 1084.62 -2.4936 -1.87686 0
M  V30 11633 N 1084.93 0.6715 -1.42579 0
M  V30 11634 C 1086.15 1.45972 -1.46628 0
M  V30 11635 C 1086.57 1.88636 -0.0785986 0
M  V30 11636 O 1085.93 1.58345 0.907372 0
M  V30 11637 C 1085.98 2.70668 -2.39627 0
M  V30 11638 O 1085.7 2.29793 -3.72997 0
M  V30 11639 C 1087.2 3.64201 -2.52731 0
M  V30 11640 H 1084.42 0.449044 -0.498598 0
M  V30 11641 H 1086.96 0.824811 -1.87129 0
M  V30 11642 H 1085.12 3.3034 -2.02371 0
M  V30 11643 H 1085.53 3.10341 -4.22834 0
M  V30 11644 H 1087.01 4.48412 -3.21918 0
M  V30 11645 H 1087.48 4.10323 -1.56626 0
M  V30 11646 H 1088.09 3.1042 -2.90722 0
M  V30 11647 N 1086.4 1.28806 0.908124 0
M  V30 11648 C 1087.65 1.1646 1.66027 0
M  V30 11649 C 1087.98 -0.285025 1.92097 0
M  V30 11650 O 1087.26 -1.20675 1.52538 0
M  V30 11651 C 1087.54 1.96951 3.01467 0
M  V30 11652 C 1087.39 3.50007 2.82515 0
M  V30 11653 C 1088.71 1.78932 4.02084 0
M  V30 11654 H 1085.83 0.424435 0.602515 0
M  V30 11655 H 1088.47 1.58185 1.0525 0
M  V30 11656 H 1086.62 1.61495 3.53344 0
M  V30 11657 H 1088.3 3.95401 2.37605 0
M  V30 11658 H 1086.54 3.75356 2.17463 0
M  V30 11659 H 1087.21 4.01591 3.7872 0
M  V30 11660 H 1089.69 2.09885 3.59287 0
M  V30 11661 H 1088.56 2.37615 4.94803 0
M  V30 11662 H 1088.82 0.742286 4.35824 0
M  V30 11663 N 1087.88 -1.11734 1.11145 0
M  V30 11664 C 1089.11 -1.87755 0.881062 0
M  V30 11665 C 1089.53 -1.79461 -0.563496 0
M  V30 11666 O 1088.89 -1.15481 -1.39763 0
M  V30 11667 C 1088.94 -3.34641 1.34342 0
M  V30 11668 O 1088.04 -4.09195 0.513157 0
M  V30 11669 H 1087.38 -0.583111 0.317613 0
M  V30 11670 H 1089.91 -1.41256 1.48013 0
M  V30 11671 H 1089.92 -3.85486 1.33658 0
M  V30 11672 H 1088.6 -3.39994 2.39534 0
M  V30 11673 H 1087.17 -3.68269 0.585833 0
M  V30 11674 N 1089.36 -0.901303 -1.29284 0
M  V30 11675 C 1090.61 -0.528826 -1.95784 0
M  V30 11676 C 1090.94 0.922833 -1.70873 0
M  V30 11677 O 1090.21 1.65448 -1.0226 0
M  V30 11678 C 1090.5 -0.823793 -3.50551 0
M  V30 11679 C 1090.35 -2.32727 -3.84913 0
M  V30 11680 C 1091.67 -0.311382 -4.38997 0
M  V30 11681 H 1088.79 -0.193604 -0.711116 0
M  V30 11682 H 1091.43 -1.12828 -1.52872 0
M  V30 11683 H 1089.58 -0.313612 -3.87232 0
M  V30 11684 H 1091.25 -2.90712 -3.58168 0
M  V30 11685 H 1089.49 -2.78735 -3.32399 0
M  V30 11686 H 1090.17 -2.48423 -4.9294 0
M  V30 11687 H 1092.64 -0.748265 -4.09317 0
M  V30 11688 H 1091.52 -0.546957 -5.46168 0
M  V30 11689 H 1091.78 0.787959 -4.35021 0
M  V30 11690 N 1090.84 1.42931 -0.663954 0
M  V30 11691 C 1091.75 2.3459 0.0214234 0
M  V30 11692 C 1092.76 1.54487 0.800611 0
M  V30 11693 O 1093.94 1.87098 0.74541 0
M  V30 11694 C 1091 3.32896 0.968556 0
M  V30 11695 C 1090.07 4.28901 0.185108 0
M  V30 11696 C 1089.3 5.2251 1.08713 0
M  V30 11697 O 1089.52 5.20795 2.32655 0
M  V30 11698 O 1088.46 5.99347 0.553758 0
M  V30 11699 H 1092.28 2.94714 -0.733308 0
M  V30 11700 H 1089.87 1.43252 -0.424159 0
M  V30 11701 H 1091.75 3.93318 1.51257 0
M  V30 11702 H 1090.42 2.75261 1.70333 0
M  V30 11703 H 1089.33 3.71926 -0.402752 0
M  V30 11704 H 1090.66 4.89547 -0.510319 0
M  V30 11705 N 1092.32 0.406567 1.52266 0
M  V30 11706 C 1093.23 -0.4271 2.30679 0
M  V30 11707 C 1094.24 -1.0559 1.383 0
M  V30 11708 O 1095.42 -1.05797 1.71374 0
M  V30 11709 C 1092.48 -1.53008 3.1111 0
M  V30 11710 C 1091.54 -0.924604 4.19225 0
M  V30 11711 C 1090.78 -1.97502 4.95811 0
M  V30 11712 O 1091 -3.19277 4.72671 0
M  V30 11713 O 1089.93 -1.58268 5.80719 0
M  V30 11714 H 1093.76 0.212187 3.02958 0
M  V30 11715 H 1091.34 0.169835 1.48432 0
M  V30 11716 H 1093.23 -2.17046 3.61205 0
M  V30 11717 H 1091.9 -2.15401 2.41628 0
M  V30 11718 H 1090.81 -0.247009 3.73284 0
M  V30 11719 H 1092.14 -0.34463 4.90992 0
M  V30 11720 N 1093.79 -1.57004 0.136909 0
M  V30 11721 C 1094.74 -2.16246 -0.806607 0
M  V30 11722 C 1095.71 -1.09246 -1.25118 0
M  V30 11723 O 1096.9 -1.3724 -1.32551 0
M  V30 11724 C 1094.04 -2.78031 -2.04433 0
M  V30 11725 C 1093.15 -3.99393 -1.64649 0
M  V30 11726 C 1092.28 -4.49208 -2.83524 0
M  V30 11727 C 1091.32 -5.63059 -2.40064 0
M  V30 11728 N 1090.46 -6.07537 -3.51913 0
M  V30 11729 H 1095.3 -2.9654 -0.294596 0
M  V30 11730 H 1092.84 -1.46491 -0.133705 0
M  V30 11731 H 1094.8 -3.11992 -2.76978 0
M  V30 11732 H 1093.43 -2.00398 -2.53062 0
M  V30 11733 H 1092.48 -3.71477 -0.819077 0
M  V30 11734 H 1093.79 -4.81904 -1.28723 0
M  V30 11735 H 1092.94 -4.85171 -3.64271 0
M  V30 11736 H 1091.68 -3.65683 -3.22688 0
M  V30 11737 H 1090.69 -5.26682 -1.57754 0
M  V30 11738 H 1091.91 -6.48362 -2.01997 0
M  V30 11739 H 1089.86 -5.2695 -3.90717 0
M  V30 11740 H 1089.78 -6.84949 -3.1997 0
M  V30 11741 H 1091.04 -6.48143 -4.33048 0
M  V30 11742 N 1095.27 0.136881 -1.57004 0
M  V30 11743 C 1096.18 1.18793 -2.023 0
M  V30 11744 C 1097.2 1.46412 -0.94018 0
M  V30 11745 O 1098.37 1.57883 -1.2504 0
M  V30 11746 C 1095.44 2.49903 -2.40311 0
M  V30 11747 C 1094.5 2.29841 -3.6259 0
M  V30 11748 C 1093.73 3.54699 -3.98779 0
M  V30 11749 O 1093.96 4.61291 -3.3551 0
M  V30 11750 O 1092.89 3.46761 -4.91976 0
M  V30 11751 H 1096.72 0.833345 -2.92043 0
M  V30 11752 H 1094.3 0.346361 -1.4533 0
M  V30 11753 H 1096.18 3.27183 -2.65574 0
M  V30 11754 H 1094.86 2.84872 -1.5372 0
M  V30 11755 H 1093.77 1.50478 -3.42501 0
M  V30 11756 H 1095.1 1.99784 -4.4983 0
M  V30 11757 N 1096.75 1.52266 0.40654 0
M  V30 11758 C 1098.17 1.41127 0.745348 0
M  V30 11759 C 1098.37 0.517802 1.94733 0
M  V30 11760 O 1097.42 -0.0154286 2.52495 0
M  V30 11761 C 1098.74 2.83696 0.996859 0
M  V30 11762 C 1100.28 2.93056 1.09942 0
M  V30 11763 C 1100.76 4.36599 1.38367 0
M  V30 11764 N 1102.25 4.39845 1.45226 0
M  V30 11765 C 1102.98 5.47975 1.68852 0
M  V30 11766 N 1102.48 6.66219 1.90065 0
M  V30 11767 N 1104.27 5.35494 1.70888 0
M  V30 11768 H 1096.42 2.08888 -0.384632 0
M  V30 11769 H 1098.69 0.941619 -0.109809 0
M  V30 11770 H 1098.39 3.51208 0.185986 0
M  V30 11771 H 1098.27 3.24895 1.91632 0
M  V30 11772 H 1100.65 2.25723 1.90088 0
M  V30 11773 H 1100.74 2.5531 0.158256 0
M  V30 11774 H 1100.38 5.04492 0.587373 0
M  V30 11775 H 1100.31 4.71883 2.33739 0
M  V30 11776 H 1102.8 3.54611 1.30612 0
M  V30 11777 H 1103.11 7.44408 2.0755 0
M  V30 11778 H 1101.46 6.69279 1.87325 0
M  V30 11779 H 1104.65 4.42093 1.53856 0
M  V30 11780 H 1104.82 6.19837 1.88962 0
M  V30 11781 N 1098.23 -0.663929 1.42933 0
M  V30 11782 C 1099.48 -1.42393 1.43981 0
M  V30 11783 C 1099.8 -1.94407 0.0601802 0
M  V30 11784 O 1099.06 -1.72019 -0.933172 0
M  V30 11785 C 1099.36 -2.62976 2.4203 0
M  V30 11786 C 1099.02 -2.29441 3.88159 0
M  V30 11787 C 1097.69 -2.20007 4.27961 0
M  V30 11788 C 1100.04 -2.02413 4.8029 0
M  V30 11789 C 1097.37 -1.81686 5.57859 0
M  V30 11790 C 1099.72 -1.65592 6.10542 0
M  V30 11791 C 1098.38 -1.54676 6.49332 0
M  V30 11792 H 1097.65 -0.521051 0.526865 0
M  V30 11793 H 1100.3 -0.756042 1.75944 0
M  V30 11794 H 1098.6 -3.34847 2.03433 0
M  V30 11795 H 1100.3 -3.21174 2.40101 0
M  V30 11796 H 1096.89 -2.3769 3.56653 0
M  V30 11797 H 1101.07 -2.08628 4.5032 0
M  V30 11798 H 1096.33 -1.71812 5.86763 0
M  V30 11799 H 1100.5 -1.43707 6.81411 0
M  V30 11800 H 1098.13 -1.24752 7.49894 0
M  V30 11801 N 1099.71 -1.29285 -0.901281 0
M  V30 11802 C 1100.62 -1.16161 -2.03823 0
M  V30 11803 C 1101.63 -0.0852298 -1.73791 0
M  V30 11804 O 1102.81 -0.29699 -1.99198 0
M  V30 11805 C 1099.87 -0.837586 -3.3643 0
M  V30 11806 C 1098.93 -1.99764 -3.7999 0
M  V30 11807 C 1098.17 -1.68898 -5.0627 0
M  V30 11808 O 1098.39 -0.609177 -5.67138 0
M  V30 11809 O 1097.32 -2.53648 -5.45845 0
M  V30 11810 H 1101.15 -2.11635 -2.17817 0
M  V30 11811 H 1098.74 -1.08722 -1.02468 0
M  V30 11812 H 1100.62 -0.671376 -4.16017 0
M  V30 11813 H 1099.29 0.0873811 -3.23582 0
M  V30 11814 H 1098.2 -2.21908 -3.01177 0
M  V30 11815 H 1099.53 -2.90376 -3.9742 0
M  V30 11816 N 1101.18 1.11143 -1.11736 0
M  V30 11817 C 1102.09 2.20851 -0.791331 0
M  V30 11818 C 1103.11 1.72644 0.216833 0
M  V30 11819 O 1104.29 2.01332 0.0522401 0
M  V30 11820 C 1101.35 3.4585 -0.242694 0
M  V30 11821 C 1100.41 4.08829 -1.30986 0
M  V30 11822 C 1099.65 5.27861 -0.787305 0
M  V30 11823 O 1099.87 5.69122 0.381549 0
M  V30 11824 O 1098.8 5.81506 -1.55352 0
M  V30 11825 H 1102.63 2.51158 -1.70744 0
M  V30 11826 H 1100.21 1.19739 -0.893478 0
M  V30 11827 H 1102.1 4.21359 0.0587472 0
M  V30 11828 H 1100.77 3.17187 0.646079 0
M  V30 11829 H 1099.68 3.35037 -1.66436 0
M  V30 11830 H 1101.01 4.41678 -2.17213 0
M  V30 11831 N 1102.66 0.908147 1.28804 0
M  V30 11832 C 1103.91 0.534332 1.94494 0
M  V30 11833 C 1104.22 -0.92552 1.72318 0
M  V30 11834 O 1105.43 -1.40724 2.32183 0
M  V30 11835 C 1103.89 0.904748 3.48342 0
M  V30 11836 C 1103.49 2.38394 3.79305 0
M  V30 11837 C 1105.24 0.601249 4.2022 0
M  V30 11838 C 1103.15 2.69478 5.26437 0
M  V30 11839 H 1102.08 0.196107 0.728051 0
M  V30 11840 H 1104.73 1.1063 1.46401 0
M  V30 11841 H 1103.11 0.261624 3.95135 0
M  V30 11842 H 1104.28 3.07333 3.43341 0
M  V30 11843 H 1102.6 2.65733 3.20586 0
M  V30 11844 H 1105.19 0.810225 5.28526 0
M  V30 11845 H 1105.54 -0.460669 4.13743 0
M  V30 11846 H 1106.07 1.20259 3.79187 0
M  V30 11847 H 1102.81 3.74501 5.37986 0
M  V30 11848 H 1102.33 2.05171 5.63618 0
M  V30 11849 H 1104.01 2.56187 5.94119 0
M  V30 11850 N 1104.14 -1.42577 0.671525 0
M  V30 11851 C 1105.09 -2.30798 -0.00883676 0
M  V30 11852 C 1106.06 -1.4578 -0.796076 0
M  V30 11853 O 1107.24 -1.74617 -0.768987 0
M  V30 11854 C 1104.38 -3.31581 -0.956452 0
M  V30 11855 C 1103.5 -4.31691 -0.163381 0
M  V30 11856 C 1102.63 -5.19549 -1.10645 0
M  V30 11857 C 1101.67 -6.1134 -0.304876 0
M  V30 11858 N 1100.81 -6.91761 -1.20048 0
M  V30 11859 H 1105.65 -2.88426 0.749301 0
M  V30 11860 H 1103.18 -1.42074 0.381251 0
M  V30 11861 H 1105.14 -3.88539 -1.51966 0
M  V30 11862 H 1103.77 -2.75561 -1.68126 0
M  V30 11863 H 1102.82 -3.76879 0.516396 0
M  V30 11864 H 1104.14 -4.96683 0.459099 0
M  V30 11865 H 1103.29 -5.81223 -1.73969 0
M  V30 11866 H 1102.03 -4.54726 -1.76282 0
M  V30 11867 H 1101.03 -5.48738 0.341597 0
M  V30 11868 H 1102.26 -6.78211 0.347352 0
M  V30 11869 H 1100.2 -6.2957 -1.84331 0
M  V30 11870 H 1100.12 -7.53345 -0.633003 0
M  V30 11871 H 1101.39 -7.57924 -1.82129 0
M  V30 11872 N 1105.62 -0.414636 -1.52048 0
M  V30 11873 C 1106.53 0.414861 -2.30903 0
M  V30 11874 C 1107.54 1.04855 -1.38858 0
M  V30 11875 O 1108.72 1.04886 -1.71933 0
M  V30 11876 C 1105.79 1.51356 -3.11917 0
M  V30 11877 C 1104.85 0.902359 -4.19709 0
M  V30 11878 C 1104.08 1.9487 -4.96852 0
M  V30 11879 O 1104.3 3.16766 -4.74358 0
M  V30 11880 O 1103.24 1.55186 -5.8155 0
M  V30 11881 H 1107.06 -0.228251 -3.02841 0
M  V30 11882 H 1104.65 -0.177704 -1.48339 0
M  V30 11883 H 1106.53 2.15127 -3.62351 0
M  V30 11884 H 1105.2 2.14117 -2.42767 0
M  V30 11885 H 1104.11 0.22721 -3.73409 0
M  V30 11886 H 1105.44 0.318587 -4.91168 0
M  V30 11887 N 1107.1 1.56929 -0.145233 0
M  V30 11888 C 1108.51 1.58196 0.211194 0
M  V30 11889 C 1108.71 1.15941 1.64803 0
M  V30 11890 O 1107.77 0.858888 2.37443 0
M  V30 11891 C 1109.08 3.00665 -0.0459569 0
M  V30 11892 C 1110.63 3.12995 0.0178913 0
M  V30 11893 C 1111.1 4.5751 -0.211905 0
M  V30 11894 N 1112.6 4.62928 -0.158772 0
M  V30 11895 C 1113.33 5.72555 -0.311111 0
M  V30 11896 N 1112.83 6.90838 -0.521074 0
M  V30 11897 N 1114.62 5.61549 -0.248838 0
M  V30 11898 H 1106.77 1.8269 -1.08342 0
M  V30 11899 H 1109.03 0.845514 -0.428731 0
M  V30 11900 H 1108.74 3.35962 -1.0403 0
M  V30 11901 H 1108.61 3.71125 0.674246 0
M  V30 11902 H 1111 2.7754 1.00278 0
M  V30 11903 H 1111.08 2.45025 -0.734612 0
M  V30 11904 H 1110.73 4.93669 -1.19389 0
M  V30 11905 H 1110.66 5.23604 0.560901 0
M  V30 11906 H 1113.15 3.779 -0.00107283 0
M  V30 11907 H 1113.46 7.70248 -0.62747 0
M  V30 11908 H 1111.8 6.92761 -0.557374 0
M  V30 11909 H 1115 4.68022 -0.0855821 0
M  V30 11910 H 1115.17 6.46937 -0.370997 0
M  V30 11911 N 1108.58 -0.128553 1.57075 0
M  V30 11912 C 1109.51 -1.15953 2.02675 0
M  V30 11913 C 1110.49 -1.43743 0.909501 0
M  V30 11914 O 1111.67 -1.54348 1.17857 0
M  V30 11915 C 1108.8 -2.48813 2.423 0
M  V30 11916 C 1107.76 -2.35506 3.57381 0
M  V30 11917 C 1107.08 -3.73243 3.82875 0
M  V30 11918 C 1108.38 -1.82359 4.89431 0
M  V30 11919 H 1110.08 -0.780283 2.89054 0
M  V30 11920 H 1107.62 -0.373896 1.39061 0
M  V30 11921 H 1109.57 -3.21179 2.72804 0
M  V30 11922 H 1108.3 -2.88609 1.52881 0
M  V30 11923 H 1106.96 -1.6559 3.27071 0
M  V30 11924 H 1106.61 -4.10507 2.90677 0
M  V30 11925 H 1106.31 -3.65195 4.60333 0
M  V30 11926 H 1107.83 -4.47128 4.15823 0
M  V30 11927 H 1109.24 -2.44533 5.18533 0
M  V30 11928 H 1107.64 -1.85156 5.70822 0
M  V30 11929 H 1108.71 -0.780478 4.78578 0
M  V30 11930 N 1110.05 -1.5248 -0.398459 0
M  V30 11931 C 1111.28 -1.71221 -1.17039 0
M  V30 11932 C 1111.7 -0.425515 -1.83224 0
M  V30 11933 O 1111.06 0.617938 -1.70444 0
M  V30 11934 C 1111.11 -2.8562 -2.20121 0
M  V30 11935 O 1110.21 -2.51934 -3.26501 0
M  V30 11936 H 1109.55 -0.569654 -0.34116 0
M  V30 11937 H 1112.08 -1.99231 -0.465652 0
M  V30 11938 H 1112.09 -3.10842 -2.64275 0
M  V30 11939 H 1110.77 -3.78969 -1.71334 0
M  V30 11940 H 1109.35 -2.3742 -2.87552 0
M  V30 11941 N 1111.53 0.65634 -1.43283 0
M  V30 11942 C 1112.76 1.44906 -1.48382 0
M  V30 11943 C 1113.18 1.87823 -0.101993 0
M  V30 11944 O 1112.54 1.57178 0.903597 0
M  V30 11945 C 1112.59 2.66231 -2.43215 0
M  V30 11946 O 1111.69 3.65176 -1.91625 0
M  V30 11947 H 1111.03 0.434601 -0.502014 0
M  V30 11948 H 1113.56 0.803429 -1.88165 0
M  V30 11949 H 1113.57 3.14083 -2.60414 0
M  V30 11950 H 1112.25 2.34336 -3.43598 0
M  V30 11951 H 1110.82 3.24302 -1.84072 0
M  V30 11952 N 1113.01 1.29761 0.894412 0
M  V30 11953 C 1113.94 1.17902 2.01547 0
M  V30 11954 C 1114.92 0.0719402 1.69948 0
M  V30 11955 O 1116.11 0.252338 1.92554 0
M  V30 11956 C 1113.24 0.860262 3.36477 0
M  V30 11957 C 1112.19 1.92424 3.82305 0
M  V30 11958 C 1111.52 1.45868 5.14419 0
M  V30 11959 C 1112.82 3.33391 4.02054 0
M  V30 11960 H 1114.51 2.11688 2.11727 0
M  V30 11961 H 1112.06 1.01916 1.01731 0
M  V30 11962 H 1114.01 0.763987 4.14417 0
M  V30 11963 H 1112.73 -0.113289 3.26403 0
M  V30 11964 H 1111.39 2.00999 3.06586 0
M  V30 11965 H 1111.04 0.473654 5.00765 0
M  V30 11966 H 1110.74 2.17028 5.46052 0
M  V30 11967 H 1112.26 1.37601 5.94894 0
M  V30 11968 H 1113.68 3.27628 4.7046 0
M  V30 11969 H 1112.07 4.02555 4.4505 0
M  V30 11970 H 1113.14 3.75978 3.06216 0
M  V30 11971 N 1114.49 -1.10549 1.12324 0
M  V30 11972 C 1115.42 -2.18911 0.812416 0
M  V30 11973 C 1116.4 -1.68628 -0.22327 0
M  V30 11974 O 1117.58 -1.94015 -0.0847184 0
M  V30 11975 C 1114.71 -3.46288 0.264947 0
M  V30 11976 C 1113.67 -4.09838 1.23356 0
M  V30 11977 C 1112.99 -5.31901 0.546374 0
M  V30 11978 C 1114.29 -4.53686 2.58778 0
M  V30 11979 H 1115.99 -2.45169 1.71851 0
M  V30 11980 H 1113.53 -1.17834 0.827715 0
M  V30 11981 H 1115.49 -4.21385 0.0352364 0
M  V30 11982 H 1114.21 -3.19517 -0.676479 0
M  V30 11983 H 1112.87 -3.36746 1.44906 0
M  V30 11984 H 1112.52 -5.01406 -0.400157 0
M  V30 11985 H 1112.22 -5.75372 1.19249 0
M  V30 11986 H 1113.74 -6.09731 0.325673 0
M  V30 11987 H 1115.16 -5.20063 2.41263 0
M  V30 11988 H 1113.55 -5.08003 3.19457 0
M  V30 11989 H 1114.62 -3.66665 3.17309 0
M  V30 11990 N 1115.97 -0.914965 -1.28321 0
M  V30 11991 C 1116.88 -0.409424 -2.31 0
M  V30 11992 C 1117.89 0.503526 -1.66555 0
M  V30 11993 O 1119.07 0.38942 -1.97599 0
M  V30 11994 C 1116.13 0.34123 -3.45017 0
M  V30 11995 C 1115.19 -0.605087 -4.25014 0
M  V30 11996 C 1114.43 0.109837 -5.33587 0
M  V30 11997 O 1114.65 1.33136 -5.54645 0
M  V30 11998 O 1113.58 -0.555474 -5.99331 0
M  V30 11999 H 1117.41 -1.26167 -2.76253 0
M  V30 12000 H 1114.99 -0.679831 -1.33036 0
M  V30 12001 H 1116.88 0.765132 -4.14396 0
M  V30 12002 H 1115.55 1.16929 -3.01843 0
M  V30 12003 H 1114.46 -1.07841 -3.58219 0
M  V30 12004 H 1115.79 -1.39999 -4.7187 0
M  V30 12005 N 1117.44 1.42219 -0.679077 0
M  V30 12006 C 1118.39 2.32599 0.00820028 0
M  V30 12007 C 1119.39 1.50059 0.786046 0
M  V30 12008 O 1120.59 1.66103 0.693528 0
M  V30 12009 H 1116.97 0.751694 0.0214483 0
M  V30 12010 H 1118.94 2.88257 -0.77138 0
M  V30 12011 C 1117.69 3.3468 0.942581 0
M  V30 12012 H 1117.01 3.98234 0.353463 0
M  V30 12013 H 1118.45 4.00496 1.39208 0
M  V30 12014 C 1116.91 2.67275 2.05099 0
M  V30 12015 O 1117.44 2.50793 3.13793 0
M  V30 12016 N 1115.64 2.26232 1.82394 0
M  V30 12017 H 1115.19 2.39838 0.939983 0
M  V30 12018 H 1115.15 1.81465 2.56744 0
M  V30 12019 N 1118.92 0.422693 1.51826 0
M  V30 12020 C 1119.85 -0.43167 2.25098 0
M  V30 12021 C 1120.87 -0.998758 1.28564 0
M  V30 12022 O 1122.06 -0.89539 1.54418 0
M  V30 12023 C 1119.16 -1.61426 2.97985 0
M  V30 12024 C 1118.33 -1.16866 4.21499 0
M  V30 12025 C 1117.39 -2.2197 4.77091 0
M  V30 12026 O 1116.41 -1.82004 5.39317 0
M  V30 12027 N 1117.62 -3.54293 4.59844 0
M  V30 12028 H 1120.38 0.196255 2.99057 0
M  V30 12029 H 1117.94 0.25079 1.59946 0
M  V30 12030 H 1119.93 -2.31331 3.32066 0
M  V30 12031 H 1118.5 -2.14783 2.27128 0
M  V30 12032 H 1117.72 -0.297217 3.93078 0
M  V30 12033 H 1119.01 -0.848106 5.01682 0
M  V30 12034 H 1118.41 -3.89505 4.10247 0
M  V30 12035 H 1116.97 -4.20135 4.98327 0
M  V30 12036 N 1120.4 -1.5685 0.153553 0
M  V30 12037 C 1121.65 -1.95509 -0.495911 0
M  V30 12038 C 1121.96 -1.04129 -1.65579 0
M  V30 12039 O 1123.17 -1.32394 -2.37032 0
M  V30 12040 C 1121.62 -3.47579 -0.933622 0
M  V30 12041 C 1121.23 -4.47555 0.199684 0
M  V30 12042 C 1122.98 -3.95092 -1.55251 0
M  V30 12043 C 1120.88 -5.90843 -0.256663 0
M  V30 12044 H 1119.81 -0.729919 -0.189035 0
M  V30 12045 H 1122.46 -1.81938 0.238947 0
M  V30 12046 H 1120.85 -3.56506 -1.72394 0
M  V30 12047 H 1122.02 -4.50329 0.976744 0
M  V30 12048 H 1120.33 -4.09997 0.727394 0
M  V30 12049 H 1122.93 -4.99588 -1.90567 0
M  V30 12050 H 1123.27 -3.37015 -2.4439 0
M  V30 12051 H 1123.81 -3.89109 -0.826969 0
M  V30 12052 H 1120.55 -6.52753 0.599515 0
M  V30 12053 H 1120.07 -5.91414 -0.999458 0
M  V30 12054 H 1121.75 -6.43131 -0.70649 0
M  V30 12055 N 1121.88 0.120221 -1.57141 0
M  V30 12056 C 1123.1 0.84637 -1.89344 0
M  V30 12057 C 1123.53 1.72702 -0.745365 0
M  V30 12058 O 1122.89 1.7873 0.304155 0
M  V30 12059 C 1122.93 1.65671 -3.20289 0
M  V30 12060 O 1122.04 2.76353 -3.06109 0
M  V30 12061 H 1121.38 0.234132 -0.621352 0
M  V30 12062 H 1123.91 0.102986 -2.04341 0
M  V30 12063 H 1123.92 2.04621 -3.52979 0
M  V30 12064 H 1122.59 1.01023 -4.03444 0
M  V30 12065 H 1121.17 2.40615 -2.84884 0
M  V30 12066 N 1123.36 1.52689 0.390367 0
M  V30 12067 C 1124.31 1.73751 1.4763 0
M  V30 12068 C 1125.29 0.591572 1.4963 0
M  V30 12069 O 1126.48 0.849354 1.5529 0
M  V30 12070 C 1123.61 1.90855 2.85358 0
M  V30 12071 C 1122.7 3.11377 2.87933 0
M  V30 12072 N 1123.09 4.33751 2.6018 0
M  V30 12073 C 1121.39 3.11594 3.19101 0
M  V30 12074 C 1122.09 5.15346 2.69803 0
M  V30 12075 N 1121.06 4.51002 3.03476 0
M  V30 12076 H 1124.87 2.65994 1.24997 0
M  V30 12077 H 1122.38 1.50977 0.598301 0
M  V30 12078 H 1124.38 2.04065 3.63542 0
M  V30 12079 H 1123.04 0.998241 3.08974 0
M  V30 12080 H 1124.05 4.61907 2.34227 0
M  V30 12081 H 1120.72 2.30368 3.48191 0
M  V30 12082 H 1122.11 6.22892 2.51902 0
M  V30 12083 N 1124.83 -0.648732 1.43629 0
M  V30 12084 C 1126.08 -1.40857 1.45483 0
M  V30 12085 C 1126.41 -1.94332 0.0807963 0
M  V30 12086 O 1125.66 -1.72999 -0.914875 0
M  V30 12087 C 1125.96 -2.60394 2.44806 0
M  V30 12088 C 1125.63 -2.25311 3.90571 0
M  V30 12089 C 1124.29 -2.15456 4.3027 0
M  V30 12090 C 1126.64 -1.97307 4.8241 0
M  V30 12091 C 1123.97 -1.75759 5.59755 0
M  V30 12092 C 1126.32 -1.59108 6.12264 0
M  V30 12093 C 1124.99 -1.47781 6.50936 0
M  V30 12094 H 1124.26 -0.515434 0.532362 0
M  V30 12095 H 1126.9 -0.737339 1.76736 0
M  V30 12096 H 1125.21 -3.3267 2.06973 0
M  V30 12097 H 1126.91 -3.18609 2.43494 0
M  V30 12098 H 1123.5 -2.33894 3.59154 0
M  V30 12099 H 1127.68 -2.0384 4.52507 0
M  V30 12100 H 1122.94 -1.65579 5.88552 0
M  V30 12101 H 1127.11 -1.36472 6.82897 0
M  V30 12102 H 1124.74 -1.16792 7.51175 0
M  V30 12103 N 1126.31 -1.30234 -0.887518 0
M  V30 12104 C 1127.73 -1.0851 -1.17037 0
M  V30 12105 C 1127.93 0.155788 -2.00897 0
M  V30 12106 O 1126.98 0.850123 -2.37759 0
M  V30 12107 C 1128.3 -2.34723 -1.87951 0
M  V30 12108 C 1129.85 -2.40163 -2.00726 0
M  V30 12109 C 1130.32 -3.66211 -2.75051 0
M  V30 12110 N 1131.81 -3.67004 -2.82599 0
M  V30 12111 C 1132.55 -4.61224 -3.40676 0
M  V30 12112 N 1132.04 -5.65786 -3.99823 0
M  V30 12113 N 1133.84 -4.48772 -3.38467 0
M  V30 12114 H 1125.99 -2.09847 -0.328297 0
M  V30 12115 H 1128.25 -0.924904 -0.20798 0
M  V30 12116 H 1127.96 -3.25265 -1.33773 0
M  V30 12117 H 1127.83 -2.43175 -2.8835 0
M  V30 12118 H 1130.22 -1.50101 -2.54074 0
M  V30 12119 H 1130.3 -2.35688 -0.994218 0
M  V30 12120 H 1129.94 -4.56631 -2.22376 0
M  V30 12121 H 1129.87 -3.67947 -3.76726 0
M  V30 12122 H 1132.36 -2.91409 -2.40602 0
M  V30 12123 H 1132.68 -6.33783 -4.42197 0
M  V30 12124 H 1131.02 -5.69581 -3.9825 0
M  V30 12125 H 1134.21 -3.6627 -2.91485 0
M  V30 12126 H 1134.38 -5.22382 -3.83433 0
M  V30 12127 N 1127.79 1.09952 -1.12909 0
M  V30 12128 C 1129.02 1.8552 -0.909163 0
M  V30 12129 C 1129.43 1.81173 0.545253 0
M  V30 12130 O 1128.77 1.20223 1.38896 0
M  V30 12131 C 1128.83 3.34693 -1.31228 0
M  V30 12132 C 1128.5 3.62794 -2.77902 0
M  V30 12133 C 1129.49 3.58973 -3.76078 0
M  V30 12134 C 1127.18 3.91311 -3.1493 0
M  V30 12135 C 1129.17 3.83271 -5.09296 0
M  V30 12136 C 1126.86 4.15265 -4.48328 0
M  V30 12137 C 1127.86 4.11236 -5.4532 0
M  V30 12138 O 1127.55 4.34576 -6.76313 0
M  V30 12139 H 1127.28 0.59303 -0.324486 0
M  V30 12140 H 1129.83 1.39878 -1.5041 0
M  V30 12141 H 1128.06 3.81016 -0.660573 0
M  V30 12142 H 1129.75 3.9166 -1.06569 0
M  V30 12143 H 1130.52 3.36974 -3.48817 0
M  V30 12144 H 1126.4 3.93575 -2.40041 0
M  V30 12145 H 1129.94 3.80041 -5.84991 0
M  V30 12146 H 1125.84 4.36743 -4.75316 0
M  V30 12147 H 1126.61 4.52065 -6.82334 0
M  V30 12148 N 1129.27 0.921757 1.27833 0
M  V30 12149 C 1130.51 0.566288 1.96399 0
M  V30 12150 C 1130.87 -0.875149 1.70895 0
M  V30 12151 O 1132.07 -1.3386 2.33099 0
M  V30 12152 C 1130.34 0.876329 3.4649 0
M  V30 12153 S 1131.9 0.628481 4.34276 0
M  V30 12154 H 1128.72 0.209246 0.679512 0
M  V30 12155 H 1131.32 1.18892 1.55193 0
M  V30 12156 H 1130.03 1.92319 3.62549 0
M  V30 12157 H 1129.56 0.242658 3.92651 0
M  V30 12158 H 1131.57 -0.516493 4.93505 0
M  V30 12159 N 1130.75 -1.41857 0.686609 0
M  V30 12160 C 1131.99 -2.01368 0.213801 0
M  V30 12161 C 1132.32 -1.5434 -1.18361 0
M  V30 12162 O 1131.58 -0.741447 -1.81111 0
M  V30 12163 C 1131.88 -3.56783 0.209951 0
M  V30 12164 C 1131.54 -4.23288 1.55365 0
M  V30 12165 C 1130.2 -4.41169 1.92154 0
M  V30 12166 C 1132.56 -4.6066 2.43807 0
M  V30 12167 C 1129.88 -4.93697 3.16986 0
M  V30 12168 C 1132.24 -5.14573 3.67963 0
M  V30 12169 C 1130.9 -5.30667 4.04906 0
M  V30 12170 H 1130.17 -0.736858 0.0782352 0
M  V30 12171 H 1132.82 -1.69879 0.88393 0
M  V30 12172 H 1131.12 -3.88009 -0.543712 0
M  V30 12173 H 1132.82 -4.00625 -0.173267 0
M  V30 12174 H 1129.41 -4.09738 1.2575 0
M  V30 12175 H 1133.59 -4.46507 2.16668 0
M  V30 12176 H 1128.85 -5.04342 3.45615 0
M  V30 12177 H 1133.02 -5.42473 4.36687 0
M  V30 12178 H 1130.65 -5.71133 5.01709 0
M  V30 12179 N 1132.22 -0.430739 -1.51599 0
M  V30 12180 C 1133.64 0.0339139 -1.86669 0
M  V30 12181 C 1133.99 1.42533 -1.34829 0
M  V30 12182 O 1133.11 2.04889 -0.696376 0
M  V30 12183 C 1133.71 0.0683174 -3.38731 0
M  V30 12184 C 1132.27 0.477363 -3.73361 0
M  V30 12185 C 1131.41 -0.334258 -2.75278 0
M  V30 12186 H 1134.36 -0.646875 -1.44918 0
M  V30 12187 H 1134.38 0.879179 -3.70204 0
M  V30 12188 H 1133.9 -0.944501 -3.76432 0
M  V30 12189 H 1132 1.49603 -3.41247 0
M  V30 12190 H 1132.11 0.206744 -4.78654 0
M  V30 12191 H 1130.47 0.206503 -2.53861 0
M  V30 12192 H 1131.26 -1.34583 -3.1582 0
M  V30 12193 N 1133.7 1.56767 -0.161869 0
M  V30 12194 C 1134.95 1.96594 0.485496 0
M  V30 12195 C 1135.28 1.04743 1.63887 0
M  V30 12196 O 1134.53 0.079602 1.95538 0
M  V30 12197 C 1134.83 3.42567 1.01894 0
M  V30 12198 C 1134.5 4.50897 -0.0175419 0
M  V30 12199 C 1133.16 4.80249 -0.302429 0
M  V30 12200 C 1135.51 5.16181 -0.721572 0
M  V30 12201 C 1132.84 5.72187 -1.2969 0
M  V30 12202 C 1135.19 6.09191 -1.70496 0
M  V30 12203 C 1133.86 6.36915 -1.99739 0
M  V30 12204 H 1133.13 0.719388 0.177656 0
M  V30 12205 H 1135.77 1.89837 -0.251839 0
M  V30 12206 H 1134.08 3.4623 1.83391 0
M  V30 12207 H 1135.77 3.70719 1.52867 0
M  V30 12208 H 1132.36 4.28062 0.21468 0
M  V30 12209 H 1136.55 4.93624 -0.514681 0
M  V30 12210 H 1131.8 5.91953 -1.52974 0
M  V30 12211 H 1135.98 6.58849 -2.25591 0
M  V30 12212 H 1133.61 7.07958 -2.76948 0
M  V30 12213 N 1135.18 -0.111886 1.57202 0
M  V30 12214 C 1136.43 -0.816794 1.84859 0
M  V30 12215 C 1136.75 -1.80079 0.748113 0
M  V30 12216 O 1136.02 -1.94578 -0.227235 0
M  V30 12217 H 1134.6 -0.304633 0.682061 0
M  V30 12218 H 1137.26 -0.097513 1.94656 0
M  V30 12219 H 1136.36 -1.35768 2.81022 0
M  V30 12220 N 1136.66 -1.52894 -0.382264 0
M  V30 12221 C 1138.07 -1.42295 -0.722802 0
M  V30 12222 C 1138.27 -0.548717 -1.93885 0
M  V30 12223 O 1137.33 -0.0247431 -2.52488 0
M  V30 12224 C 1138.64 -2.85246 -0.9516 0
M  V30 12225 C 1140.19 -2.94768 -1.05265 0
M  V30 12226 C 1140.67 -4.38745 -1.31404 0
M  V30 12227 N 1142.16 -4.421 -1.38211 0
M  V30 12228 C 1142.89 -5.50592 -1.60113 0
M  V30 12229 N 1142.39 -6.69158 -1.79442 0
M  V30 12230 N 1144.18 -5.38145 -1.62347 0
M  V30 12231 H 1136.33 -2.0825 0.417816 0
M  V30 12232 H 1138.6 -0.939753 0.124776 0
M  V30 12233 H 1138.3 -3.51459 -0.130088 0
M  V30 12234 H 1138.18 -3.27903 -1.86439 0
M  V30 12235 H 1140.56 -2.28718 -1.86472 0
M  V30 12236 H 1140.64 -2.55529 -0.117619 0
M  V30 12237 H 1140.29 -5.05363 -0.507038 0
M  V30 12238 H 1140.22 -4.75542 -2.26202 0
M  V30 12239 H 1142.71 -3.56644 -1.24954 0
M  V30 12240 H 1143.02 -7.47615 -1.95681 0
M  V30 12241 H 1141.37 -6.72175 -1.76653 0
M  V30 12242 H 1144.56 -4.44485 -1.46803 0
M  V30 12243 H 1144.73 -6.22764 -1.79077 0
M  V30 12244 N 1138.14 0.641106 -1.43971 0
M  V30 12245 C 1139.55 1.22254 -1.41106 0
M  V30 12246 C 1139.9 1.95825 -0.121284 0
M  V30 12247 O 1139.02 2.01901 0.77879 0
M  V30 12248 C 1139.62 2.22364 -2.55617 0
M  V30 12249 C 1138.18 2.75957 -2.55978 0
M  V30 12250 C 1137.33 1.50792 -2.32717 0
M  V30 12251 H 1140.28 0.432381 -1.52696 0
M  V30 12252 H 1140.3 3.04775 -2.27799 0
M  V30 12253 H 1139.81 1.68789 -3.49474 0
M  V30 12254 H 1137.91 3.33562 -1.66034 0
M  V30 12255 H 1138.02 3.22676 -3.54142 0
M  V30 12256 H 1136.39 1.7857 -1.81617 0
M  V30 12257 H 1137.17 0.991343 -3.28675 0
M  V30 12258 N 1139.62 1.30703 0.880598 0
M  V30 12259 C 1140.53 1.19389 2.01949 0
M  V30 12260 C 1141.54 0.112868 1.73634 0
M  V30 12261 O 1142.72 0.328643 1.98701 0
M  V30 12262 C 1139.78 0.891004 3.35055 0
M  V30 12263 C 1138.84 2.05784 3.76764 0
M  V30 12264 C 1138.08 1.76931 5.03519 0
M  V30 12265 O 1138.3 0.699326 5.66097 0
M  V30 12266 O 1137.23 2.623 5.4174 0
M  V30 12267 H 1141.06 2.15073 2.14423 0
M  V30 12268 H 1138.64 1.10339 1.00726 0
M  V30 12269 H 1140.53 0.737476 4.14897 0
M  V30 12270 H 1139.2 -0.0358909 3.2368 0
M  V30 12271 H 1138.11 2.26672 2.97608 0
M  V30 12272 H 1139.44 2.96661 3.9275 0
M  V30 12273 N 1141.09 -1.09351 1.1349 0
M  V30 12274 C 1142.34 -1.81185 0.89535 0
M  V30 12275 C 1142.66 -1.86173 -0.580048 0
M  V30 12276 O 1141.93 -1.34784 -1.42162 0
M  V30 12277 H 1140.51 -0.671011 0.328257 0
M  V30 12278 H 1143.17 -1.32255 1.43159 0
M  V30 12279 H 1142.27 -2.84339 1.28676 0
M  V30 12280 N 1142.57 -0.928524 -1.27343 0
M  V30 12281 C 1143.53 -0.43292 -2.25074 0
M  V30 12282 C 1144.53 0.448976 -1.54405 0
M  V30 12283 O 1145.72 0.249939 -1.72398 0
M  V30 12284 C 1142.86 0.377539 -3.38803 0
M  V30 12285 H 1144.05 -1.29642 -2.70431 0
M  V30 12286 H 1141.6 -0.709289 -1.3928 0
M  V30 12287 H 1142.34 1.25982 -2.98829 0
M  V30 12288 H 1142.12 -0.254782 -3.91271 0
M  V30 12289 H 1143.61 0.714634 -4.1144 0
M  V30 12290 N 1144.05 1.41491 -0.694123 0
M  V30 12291 C 1144.98 2.33462 -0.0422169 0
M  V30 12292 C 1145.96 1.51739 0.76872 0
M  V30 12293 O 1147.15 1.8028 0.721985 0
M  V30 12294 C 1144.28 3.35545 0.895925 0
M  V30 12295 C 1143.23 4.27568 0.192188 0
M  V30 12296 C 1142.56 5.20014 1.24459 0
M  V30 12297 C 1143.86 5.1376 -0.940626 0
M  V30 12298 H 1145.55 2.88225 -0.810363 0
M  V30 12299 H 1143.1 1.38586 -0.39114 0
M  V30 12300 H 1145.05 3.9881 1.36121 0
M  V30 12301 H 1143.77 2.79129 1.69572 0
M  V30 12302 H 1142.43 3.65726 -0.25305 0
M  V30 12303 H 1142.08 4.59913 2.03687 0
M  V30 12304 H 1141.78 5.82417 0.778734 0
M  V30 12305 H 1143.3 5.86155 1.71041 0
M  V30 12306 H 1144.72 5.70601 -0.555692 0
M  V30 12307 H 1143.11 5.85097 -1.33349 0
M  V30 12308 H 1144.18 4.51011 -1.78093 0
M  V30 12309 N 1145.53 0.438773 1.51369 0
M  V30 12310 C 1146.47 -0.37195 2.27783 0
M  V30 12311 C 1147.44 -1.01558 1.31435 0
M  V30 12312 O 1148.63 -1.03421 1.60339 0
M  V30 12313 C 1145.77 -1.46636 3.12397 0
M  V30 12314 C 1144.88 -0.840727 4.2374 0
M  V30 12315 C 1144.02 -1.91031 4.95662 0
M  V30 12316 C 1143.06 -1.26318 5.98924 0
M  V30 12317 N 1142.19 -2.27419 6.64248 0
M  V30 12318 H 1147.03 0.286048 2.96624 0
M  V30 12319 H 1144.57 0.152909 1.46303 0
M  V30 12320 H 1146.53 -2.11219 3.59781 0
M  V30 12321 H 1145.16 -2.09397 2.45668 0
M  V30 12322 H 1144.21 -0.0831588 3.80309 0
M  V30 12323 H 1145.52 -0.328285 4.97719 0
M  V30 12324 H 1144.68 -2.63272 5.46601 0
M  V30 12325 H 1143.42 -2.45649 4.21317 0
M  V30 12326 H 1142.42 -0.526246 5.47276 0
M  V30 12327 H 1143.65 -0.724324 6.75226 0
M  V30 12328 H 1141.59 -2.81114 5.92715 0
M  V30 12329 H 1141.51 -1.81071 7.33996 0
M  V30 12330 H 1142.78 -2.99139 7.19817 0
M  V30 12331 N 1147.01 -1.56678 0.170181 0
M  V30 12332 C 1147.97 -2.16698 -0.746622 0
M  V30 12333 C 1148.97 -1.11475 -1.15888 0
M  V30 12334 O 1150.16 -1.36994 -1.07602 0
M  V30 12335 C 1147.29 -2.74892 -2.01612 0
M  V30 12336 H 1148.48 -2.99061 -0.224135 0
M  V30 12337 H 1146.04 -1.56098 -0.0793761 0
M  V30 12338 H 1146.77 -1.96259 -2.58172 0
M  V30 12339 H 1146.56 -3.51896 -1.72949 0
M  V30 12340 H 1148.05 -3.21058 -2.67042 0
M  V30 12341 N 1148.48 0.103547 -1.57259 0
M  V30 12342 C 1149.71 0.82235 -1.89855 0
M  V30 12343 C 1150.13 1.72694 -0.76303 0
M  V30 12344 O 1149.48 1.8056 0.265421 0
M  V30 12345 C 1149.53 1.64282 -3.22015 0
M  V30 12346 O 1149.26 0.774628 -4.31197 0
M  V30 12347 C 1150.76 2.46543 -3.68418 0
M  V30 12348 H 1147.98 0.235591 -0.628282 0
M  V30 12349 H 1150.52 0.0833106 -2.0433 0
M  V30 12350 H 1148.68 2.33446 -3.09163 0
M  V30 12351 H 1149.09 1.34205 -5.0704 0
M  V30 12352 H 1150.56 2.99618 -4.63609 0
M  V30 12353 H 1151.04 3.24618 -2.95838 0
M  V30 12354 H 1151.65 1.82594 -3.84109 0
M  V30 12355 N 1149.96 1.53094 0.37415 0
M  V30 12356 C 1150.89 1.81901 1.46404 0
M  V30 12357 C 1151.87 0.671949 1.56265 0
M  V30 12358 O 1153.06 0.920978 1.70973 0
M  V30 12359 C 1150.19 2.00123 2.83845 0
M  V30 12360 C 1149.14 3.15864 2.88814 0
M  V30 12361 C 1148.47 3.19364 4.28848 0
M  V30 12362 C 1149.77 4.54633 2.57112 0
M  V30 12363 H 1151.46 2.73172 1.22546 0
M  V30 12364 H 1149.01 1.31444 0.588087 0
M  V30 12365 H 1150.96 2.18859 3.6011 0
M  V30 12366 H 1149.68 1.05555 3.09072 0
M  V30 12367 H 1148.34 2.96935 2.15 0
M  V30 12368 H 1147.99 2.2245 4.51137 0
M  V30 12369 H 1147.69 3.97123 4.3309 0
M  V30 12370 H 1149.22 3.40273 5.06997 0
M  V30 12371 H 1150.63 4.73587 3.23091 0
M  V30 12372 H 1149.03 5.34569 2.72683 0
M  V30 12373 H 1150.1 4.60331 1.52392 0
M  V30 12374 N 1151.44 -0.633461 1.44309 0
M  V30 12375 C 1152.66 -1.42527 1.50668 0
M  V30 12376 C 1153.09 -1.87637 0.131861 0
M  V30 12377 O 1152.45 -1.58595 -0.878477 0
M  V30 12378 C 1152.5 -2.62328 2.47419 0
M  V30 12379 O 1151.6 -3.62081 1.97411 0
M  V30 12380 H 1150.94 -0.426559 0.508864 0
M  V30 12381 H 1153.47 -0.773392 1.8942 0
M  V30 12382 H 1153.48 -3.09901 2.65378 0
M  V30 12383 H 1152.16 -2.2884 3.47283 0
M  V30 12384 H 1150.73 -3.21333 1.89208 0
M  V30 12385 N 1152.92 -1.31168 -0.873655 0
M  V30 12386 C 1153.85 -1.21094 -1.99646 0
M  V30 12387 C 1154.83 -0.0989684 -1.69812 0
M  V30 12388 O 1156.01 -0.282939 -1.92128 0
M  V30 12389 C 1153.14 -0.913684 -3.35066 0
M  V30 12390 C 1152.1 -1.98482 -3.79195 0
M  V30 12391 C 1151.42 -1.54033 -5.12033 0
M  V30 12392 C 1152.72 -3.39745 -3.96699 0
M  V30 12393 H 1154.42 -2.1503 -2.08333 0
M  V30 12394 H 1151.96 -1.03521 -1.00097 0
M  V30 12395 H 1153.92 -0.829821 -4.13149 0
M  V30 12396 H 1152.64 0.0613471 -3.26542 0
M  V30 12397 H 1151.3 -2.05851 -3.03349 0
M  V30 12398 H 1150.95 -0.553261 -4.99948 0
M  V30 12399 H 1150.65 -2.25688 -5.4253 0
M  V30 12400 H 1152.17 -1.47047 -5.92629 0
M  V30 12401 H 1153.59 -3.35071 -4.65188 0
M  V30 12402 H 1151.98 -4.09585 -4.38589 0
M  V30 12403 H 1153.05 -3.80802 -3.00196 0
M  V30 12404 N 1154.4 1.08748 -1.14068 0
M  V30 12405 C 1155.33 2.17591 -0.84714 0
M  V30 12406 C 1156.31 1.68962 0.196415 0
M  V30 12407 O 1157.49 1.94125 0.0538415 0
M  V30 12408 C 1154.62 3.45823 -0.320005 0
M  V30 12409 C 1153.58 4.07824 -1.2986 0
M  V30 12410 C 1152.9 5.30965 -0.630925 0
M  V30 12411 C 1154.2 4.49512 -2.65963 0
M  V30 12412 H 1155.9 2.42404 -1.75729 0
M  V30 12413 H 1153.44 1.16502 -0.846356 0
M  V30 12414 H 1155.4 4.21276 -0.102271 0
M  V30 12415 H 1154.12 3.20553 0.625561 0
M  V30 12416 H 1152.78 3.34398 -1.50245 0
M  V30 12417 H 1152.43 5.01979 0.320337 0
M  V30 12418 H 1152.13 5.73402 -1.28388 0
M  V30 12419 H 1153.65 6.09136 -0.422635 0
M  V30 12420 H 1155.06 5.16159 -2.49506 0
M  V30 12421 H 1153.46 5.02857 -3.27498 0
M  V30 12422 H 1154.53 3.6157 -3.23102 0
M  V30 12423 N 1155.87 0.935264 1.26849 0
M  V30 12424 C 1156.78 0.446122 2.30319 0
M  V30 12425 C 1157.8 -0.476965 1.67335 0
M  V30 12426 O 1158.98 -0.357934 1.98194 0
M  V30 12427 C 1156.04 -0.286297 3.45516 0
M  V30 12428 C 1155.1 0.672626 4.23998 0
M  V30 12429 C 1154.34 -0.0249345 5.33694 0
M  V30 12430 O 1154.56 -1.24296 5.56693 0
M  V30 12431 O 1153.49 0.650752 5.98372 0
M  V30 12432 H 1157.32 1.30546 2.74211 0
M  V30 12433 H 1154.9 0.70091 1.31938 0
M  V30 12434 H 1156.79 -0.699109 4.1556 0
M  V30 12435 H 1155.46 -1.12112 3.03665 0
M  V30 12436 H 1154.37 1.13527 3.56458 0
M  V30 12437 H 1155.7 1.47489 4.69583 0
M  V30 12438 N 1157.35 -1.41121 0.701616 0
M  V30 12439 C 1158.77 -1.55162 0.373766 0
M  V30 12440 C 1158.97 -1.6759 -1.11875 0
M  V30 12441 O 1158.02 -1.65768 -1.90465 0
M  V30 12442 C 1159.34 -2.78758 1.12759 0
M  V30 12443 C 1160.89 -2.92561 1.11253 0
M  V30 12444 C 1161.36 -4.19052 1.84822 0
M  V30 12445 N 1162.85 -4.26023 1.81821 0
M  V30 12446 C 1163.59 -5.22771 2.3558 0
M  V30 12447 N 1163.08 -6.25512 2.97836 0
M  V30 12448 N 1164.88 -5.14752 2.25802 0
M  V30 12449 H 1157.03 -1.31299 1.66956 0
M  V30 12450 H 1159.29 -0.633894 0.704898 0
M  V30 12451 H 1159 -2.75804 2.18231 0
M  V30 12452 H 1158.87 -3.70456 0.710095 0
M  V30 12453 H 1161.26 -2.95026 0.0660506 0
M  V30 12454 H 1161.34 -2.0202 1.56913 0
M  V30 12455 H 1160.98 -4.17349 2.89452 0
M  V30 12456 H 1160.91 -5.08577 1.36592 0
M  V30 12457 H 1163.4 -3.52411 1.36438 0
M  V30 12458 H 1163.72 -6.95736 3.36409 0
M  V30 12459 H 1162.06 -6.25997 3.01916 0
M  V30 12460 H 1165.25 -4.33414 1.76833 0
M  V30 12461 H 1165.42 -5.89983 2.68001 0
M  V30 12462 N 1158.83 -0.446794 -1.51134 0
M  V30 12463 C 1160.08 0.116666 -2.02464 0
M  V30 12464 C 1160.41 1.41532 -1.32975 0
M  V30 12465 O 1159.68 1.89278 -0.447651 0
M  V30 12466 C 1159.97 0.325659 -3.58624 0
M  V30 12467 C 1159.82 -0.992307 -4.38718 0
M  V30 12468 C 1161.14 1.09121 -4.26357 0
M  V30 12469 H 1158.26 0.0409262 -0.735863 0
M  V30 12470 H 1160.9 -0.587641 -1.80684 0
M  V30 12471 H 1159.05 0.925585 -3.77313 0
M  V30 12472 H 1160.72 -1.62694 -4.31658 0
M  V30 12473 H 1158.97 -1.5947 -4.03425 0
M  V30 12474 H 1159.64 -0.800005 -5.46172 0
M  V30 12475 H 1162.11 0.582944 -4.11996 0
M  V30 12476 H 1160.99 1.20621 -5.35483 0
M  V30 12477 H 1161.25 2.12171 -3.87861 0
M  V30 12478 N 1160.31 1.56586 -0.178487 0
M  V30 12479 C 1161.24 2.21313 0.744486 0
M  V30 12480 C 1162.22 1.17098 1.23377 0
M  V30 12481 O 1163.4 1.45551 1.28563 0
M  V30 12482 C 1160.53 2.8595 1.97103 0
M  V30 12483 C 1159.49 3.96266 1.61732 0
M  V30 12484 C 1158.81 4.47987 2.91911 0
M  V30 12485 C 1160.11 5.15503 0.839868 0
M  V30 12486 H 1161.81 2.98698 0.204938 0
M  V30 12487 H 1159.35 1.43672 0.0971306 0
M  V30 12488 H 1161.31 3.29909 2.6218 0
M  V30 12489 H 1160.03 2.05946 2.53484 0
M  V30 12490 H 1158.69 3.52974 0.990208 0
M  V30 12491 H 1158.34 3.64765 3.46346 0
M  V30 12492 H 1158.04 5.22413 2.68995 0
M  V30 12493 H 1159.56 4.94637 3.58004 0
M  V30 12494 H 1160.98 5.5611 1.39337 0
M  V30 12495 H 1159.37 5.95891 0.709473 0
M  V30 12496 H 1160.44 4.84628 -0.162396 0
M  V30 12497 N 1161.79 -0.095206 1.57312 0
M  V30 12498 C 1162.72 -1.14662 1.97301 0
M  V30 12499 C 1163.7 -1.38845 0.846212 0
M  V30 12500 O 1164.88 -1.52607 1.1065 0
M  V30 12501 C 1162.01 -2.49582 2.28968 0
M  V30 12502 C 1161.05 -2.41681 3.51415 0
M  V30 12503 S 1161.89 -1.83343 5.03136 0
M  V30 12504 C 1163.04 -3.19888 5.3798 0
M  V30 12505 H 1163.28 -0.805726 2.86174 0
M  V30 12506 H 1160.81 -0.302881 1.514 0
M  V30 12507 H 1162.77 -3.27202 2.47889 0
M  V30 12508 H 1161.43 -2.80841 1.40667 0
M  V30 12509 H 1160.62 -3.41122 3.71015 0
M  V30 12510 H 1160.22 -1.7219 3.32004 0
M  V30 12511 H 1162.52 -4.16161 5.34618 0
M  V30 12512 H 1163.46 -3.05093 6.39002 0
M  V30 12513 H 1163.87 -3.19414 4.6544 0
M  V30 12514 N 1163.26 -1.53291 -0.366026 0
M  V30 12515 C 1164.21 -1.79697 -1.44836 0
M  V30 12516 C 1165.18 -0.641321 -1.5322 0
M  V30 12517 O 1166.37 -0.883453 -1.69115 0
M  V30 12518 C 1163.51 -1.99223 -2.81788 0
M  V30 12519 C 1162.62 -3.26938 -2.82375 0
M  V30 12520 C 1161.75 -3.36654 -4.10898 0
M  V30 12521 C 1160.79 -4.58404 -4.05626 0
M  V30 12522 N 1159.93 -4.65275 -5.25798 0
M  V30 12523 H 1164.77 -2.72053 -1.21619 0
M  V30 12524 H 1162.31 -1.34768 -0.589577 0
M  V30 12525 H 1164.27 -2.0853 -3.61346 0
M  V30 12526 H 1162.9 -1.10204 -3.03406 0
M  V30 12527 H 1161.95 -3.26587 -1.95052 0
M  V30 12528 H 1163.26 -4.16573 -2.74351 0
M  V30 12529 H 1162.41 -3.4527 -4.98872 0
M  V30 12530 H 1161.15 -2.45035 -4.21674 0
M  V30 12531 H 1160.16 -4.49888 -3.16039 0
M  V30 12532 H 1161.38 -5.51364 -3.96453 0
M  V30 12533 H 1159.33 -3.76557 -5.3716 0
M  V30 12534 H 1159.25 -5.48814 -5.19942 0
M  V30 12535 H 1160.51 -4.78175 -6.15605 0
M  V30 12536 N 1164.74 0.6258 -1.44643 0
M  V30 12537 C 1166.02 1.38439 -1.38181 0
M  V30 12538 C 1166.4 2.11056 -0.0431928 0
M  V30 12539 O 1165.75 2.06683 0.974383 0
M  V30 12540 C 1165.96 2.34639 -2.58352 0
M  V30 12541 C 1167.31 2.97807 -3.02649 0
M  V30 12542 O 1168.33 2.44963 -2.58595 0
M  V30 12543 O 1167.19 3.93682 -3.79048 0
M  V30 12544 H 1164.28 0.619852 -0.54746 0
M  V30 12545 H 1166.83 0.650409 -1.56741 0
M  V30 12546 H 1165.6 1.80116 -3.47382 0
M  V30 12547 H 1165.22 3.15446 -2.42032 0
M  V30 12548 N 1166.22 1.31629 0.866686 0
M  V30 12549 C 1167.47 1.20861 1.61479 0
M  V30 12550 C 1167.78 -0.231208 1.94229 0
M  V30 12551 O 1168.99 -0.460618 2.67564 0
M  V30 12552 C 1167.44 2.11602 2.91123 0
M  V30 12553 C 1167.05 3.60598 2.65844 0
M  V30 12554 C 1168.8 2.09642 3.69121 0
M  V30 12555 C 1166.7 4.43337 3.91415 0
M  V30 12556 H 1165.63 0.448783 0.605896 0
M  V30 12557 H 1168.28 1.56507 0.958001 0
M  V30 12558 H 1166.67 1.68858 3.58194 0
M  V30 12559 H 1167.84 4.11609 2.07159 0
M  V30 12560 H 1166.16 3.64568 2.01194 0
M  V30 12561 H 1168.75 2.68701 4.62281 0
M  V30 12562 H 1169.1 1.08438 4.01929 0
M  V30 12563 H 1169.63 2.50603 3.08938 0
M  V30 12564 H 1166.37 5.45309 3.63756 0
M  V30 12565 H 1165.89 3.97083 4.49539 0
M  V30 12566 H 1167.57 4.5572 4.5927 0
M  V30 12567 N 1167.7 -1.08142 1.14644 0
M  V30 12568 C 1168.66 -2.13308 0.83859 0
M  V30 12569 C 1169.66 -1.60022 -0.158012 0
M  V30 12570 O 1170.85 -1.74057 0.0706621 0
M  V30 12571 C 1167.98 -3.39978 0.250591 0
M  V30 12572 H 1169.18 -2.42049 1.77066 0
M  V30 12573 H 1166.73 -1.23899 0.952828 0
M  V30 12574 H 1167.47 -3.16873 -0.690064 0
M  V30 12575 H 1167.25 -3.79952 0.968456 0
M  V30 12576 H 1168.74 -4.17567 0.0525115 0
M  V30 12577 N 1169.18 -0.941978 -1.26351 0
M  V30 12578 C 1170.41 -0.606748 -1.97803 0
M  V30 12579 C 1170.82 0.818441 -1.70138 0
M  V30 12580 O 1170.18 1.54583 -0.970076 0
M  V30 12581 C 1170.23 -0.840431 -3.51595 0
M  V30 12582 O 1169.95 -2.20957 -3.78299 0
M  V30 12583 C 1171.45 -0.515855 -4.40288 0
M  V30 12584 H 1168.67 -0.228591 -0.630862 0
M  V30 12585 H 1171.21 -1.2629 -1.60845 0
M  V30 12586 H 1169.37 -0.230875 -3.86711 0
M  V30 12587 H 1169.78 -2.2702 -4.72824 0
M  V30 12588 H 1171.26 -0.72998 -5.47152 0
M  V30 12589 H 1171.73 0.549178 -4.35753 0
M  V30 12590 H 1172.34 -1.10417 -4.10717 0
M  V30 12591 N 1170.66 1.40747 -0.709091 0
M  V30 12592 C 1172.07 1.83955 -0.318968 0
M  V30 12593 C 1172.42 1.59304 1.14527 0
M  V30 12594 O 1171.54 1.07052 1.88066 0
M  V30 12595 C 1172.14 3.33934 -0.572147 0
M  V30 12596 C 1170.7 3.75661 -0.235802 0
M  V30 12597 C 1169.84 2.64024 -0.847743 0
M  V30 12598 H 1172.79 1.30107 -0.908734 0
M  V30 12599 H 1172.82 3.80143 0.164752 0
M  V30 12600 H 1172.33 3.51844 -1.63791 0
M  V30 12601 H 1170.43 3.63348 0.825164 0
M  V30 12602 H 1170.54 4.73955 -0.700263 0
M  V30 12603 H 1168.91 2.53197 -0.276283 0
M  V30 12604 H 1169.69 2.84748 -1.91765 0
M  V30 12605 N 1172.13 0.454803 1.50895 0
M  V30 12606 C 1173.38 -0.107367 2.01414 0
M  V30 12607 C 1173.7 -1.42243 1.34262 0
M  V30 12608 O 1174.9 -2.06858 1.75846 0
M  V30 12609 C 1173.36 -0.241872 3.59086 0
M  V30 12610 C 1172.97 1.06379 4.35187 0
M  V30 12611 C 1174.71 -0.756873 4.17698 0
M  V30 12612 C 1172.62 0.893973 5.84604 0
M  V30 12613 H 1171.55 -0.0439003 0.752721 0
M  V30 12614 H 1174.2 0.587225 1.7385 0
M  V30 12615 H 1172.58 -0.999873 3.83169 0
M  V30 12616 H 1173.75 1.83148 4.2284 0
M  V30 12617 H 1172.07 1.50865 3.88109 0
M  V30 12618 H 1174.67 -0.900697 5.27059 0
M  V30 12619 H 1175.01 -1.74397 3.7801 0
M  V30 12620 H 1175.54 -0.0567088 3.9776 0
M  V30 12621 H 1172.28 1.85395 6.28736 0
M  V30 12622 H 1171.8 0.166387 5.99569 0
M  V30 12623 H 1173.48 0.554084 6.44623 0
M  V30 12624 N 1173.61 -1.56489 0.186789 0
M  V30 12625 C 1175.02 -1.83809 -0.327265 0
M  V30 12626 C 1175.37 -1.10718 -1.61976 0
M  V30 12627 O 1174.5 -0.36525 -2.13295 0
M  V30 12628 C 1175.09 -3.33435 -0.600551 0
M  V30 12629 C 1173.65 -3.61195 -1.059 0
M  V30 12630 C 1172.8 -2.77108 -0.103131 0
M  V30 12631 H 1175.75 -1.53292 0.410747 0
M  V30 12632 H 1175.77 -3.51754 -1.45084 0
M  V30 12633 H 1175.28 -3.86605 0.340315 0
M  V30 12634 H 1173.38 -3.13451 -2.01443 0
M  V30 12635 H 1173.5 -4.69435 -0.957458 0
M  V30 12636 H 1171.86 -2.47448 -0.603449 0
M  V30 12637 H 1172.64 -3.33065 0.832031 0
M  V30 12638 N 1175.09 0.086862 -1.5736 0
M  V30 12639 C 1176.05 1.08906 -2.01673 0
M  V30 12640 C 1177.05 1.32473 -0.911463 0
M  V30 12641 O 1178.24 1.28447 -1.17673 0
M  V30 12642 C 1175.37 2.43629 -2.38449 0
M  V30 12643 H 1176.57 0.707461 -2.91436 0
M  V30 12644 H 1174.12 0.332154 -1.5273 0
M  V30 12645 H 1174.86 2.8665 -1.51665 0
M  V30 12646 H 1174.64 2.2787 -3.19089 0
M  V30 12647 H 1176.13 3.15695 -2.73361 0
M  V30 12648 N 1176.57 1.53483 0.357892 0
M  V30 12649 C 1177.48 1.83434 1.4625 0
M  V30 12650 C 1178.49 0.723313 1.58254 0
M  V30 12651 O 1179.67 1.01416 1.74002 0
M  V30 12652 C 1176.73 2.0249 2.81423 0
M  V30 12653 C 1175.8 3.26378 2.78883 0
M  V30 12654 C 1175.03 3.44516 4.07608 0
M  V30 12655 O 1175.25 2.66787 5.04163 0
M  V30 12656 O 1174.19 4.37898 4.12952 0
M  V30 12657 H 1178.01 2.77294 1.23861 0
M  V30 12658 H 1175.6 1.38958 0.548722 0
M  V30 12659 H 1177.48 2.16552 3.61501 0
M  V30 12660 H 1176.15 1.11819 3.03773 0
M  V30 12661 H 1175.06 3.17733 1.97475 0
M  V30 12662 H 1176.39 4.16996 2.61486 0
M  V30 12663 N 1178.05 -0.61812 1.44973 0
M  V30 12664 C 1178.96 -1.7579 1.55355 0
M  V30 12665 C 1179.97 -1.68384 0.438512 0
M  V30 12666 O 1181.15 -1.88928 0.697715 0
M  V30 12667 C 1178.21 -3.1222 1.50729 0
M  V30 12668 C 1177.27 -3.3116 2.73188 0
M  V30 12669 C 1176.51 -4.61082 2.68774 0
M  V30 12670 O 1176.73 -5.42728 1.75507 0
M  V30 12671 O 1175.66 -4.82506 3.59821 0
M  V30 12672 H 1179.49 -1.69983 2.51674 0
M  V30 12673 H 1177.07 -0.780934 1.27365 0
M  V30 12674 H 1178.96 -3.93524 1.5072 0
M  V30 12675 H 1177.63 -3.18541 0.575587 0
M  V30 12676 H 1176.54 -2.49485 2.78762 0
M  V30 12677 H 1177.87 -3.29709 3.65449 0
M  V30 12678 N 1179.52 -1.32087 -0.859693 0
M  V30 12679 C 1180.77 -1.22542 -1.6159 0
M  V30 12680 C 1181.1 0.213533 -1.93022 0
M  V30 12681 O 1180.38 1.14931 -1.56911 0
M  V30 12682 C 1180.66 -2.08004 -2.93949 0
M  V30 12683 C 1180.51 -3.60252 -2.6933 0
M  V30 12684 C 1181.83 -1.93732 -3.95166 0
M  V30 12685 H 1178.95 -0.446504 -0.586347 0
M  V30 12686 H 1181.59 -1.61982 -0.993064 0
M  V30 12687 H 1179.74 -1.74498 -3.47106 0
M  V30 12688 H 1181.42 -4.03947 -2.22766 0
M  V30 12689 H 1179.66 -3.83169 -2.03382 0
M  V30 12690 H 1180.33 -4.1537 -3.63555 0
M  V30 12691 H 1182.81 -2.23075 -3.5125 0
M  V30 12692 H 1181.68 -2.55815 -4.85644 0
M  V30 12693 H 1181.94 -0.903528 -4.32769 0
M  V30 12694 N 1181 1.07532 -1.15215 0
M  V30 12695 C 1181.95 2.14687 -0.847243 0
M  V30 12696 C 1182.92 1.64903 0.199043 0
M  V30 12697 O 1184.1 1.90682 0.0669986 0
M  V30 12698 C 1181.24 3.43414 -0.340673 0
M  V30 12699 C 1180.36 4.06999 -1.44831 0
M  V30 12700 C 1179.49 5.23554 -0.898059 0
M  V30 12701 C 1178.53 5.79097 -1.98276 0
M  V30 12702 N 1177.67 6.86985 -1.44902 0
M  V30 12703 H 1182.51 2.4011 -1.76498 0
M  V30 12704 H 1180.04 1.17823 -0.880689 0
M  V30 12705 H 1182 4.1719 -0.0286956 0
M  V30 12706 H 1180.63 3.18249 0.540144 0
M  V30 12707 H 1179.68 3.30895 -1.87651 0
M  V30 12708 H 1181 4.44289 -2.26735 0
M  V30 12709 H 1180.15 6.04305 -0.538514 0
M  V30 12710 H 1178.89 4.87676 -0.0481752 0
M  V30 12711 H 1177.89 4.96992 -2.35115 0
M  V30 12712 H 1179.12 6.1703 -2.83639 0
M  V30 12713 H 1177.07 6.5305 -0.621468 0
M  V30 12714 H 1176.98 7.23149 -2.20434 0
M  V30 12715 H 1178.25 7.71446 -1.11767 0
M  V30 12716 N 1182.48 0.948665 1.2585 0
M  V30 12717 C 1183.43 0.462904 2.2611 0
M  V30 12718 C 1184.4 -0.481433 1.5897 0
M  V30 12719 O 1185.58 -0.395997 1.86645 0
M  V30 12720 C 1182.72 -0.258808 3.44128 0
M  V30 12721 C 1181.84 0.722072 4.25923 0
M  V30 12722 C 1180.97 -0.0215958 5.31196 0
M  V30 12723 C 1180.01 0.950612 6.04673 0
M  V30 12724 N 1179.15 0.238209 7.01696 0
M  V30 12725 H 1183.99 1.32279 2.67032 0
M  V30 12726 H 1181.52 0.663485 1.31287 0
M  V30 12727 H 1183.48 -0.693759 4.11391 0
M  V30 12728 H 1182.11 -1.08278 3.04098 0
M  V30 12729 H 1181.16 1.27552 3.58378 0
M  V30 12730 H 1182.48 1.46421 4.76825 0
M  V30 12731 H 1181.63 -0.51547 6.04506 0
M  V30 12732 H 1180.37 -0.796563 4.81151 0
M  V30 12733 H 1179.37 1.45554 5.30183 0
M  V30 12734 H 1180.6 1.72571 6.56808 0
M  V30 12735 H 1178.54 -0.518129 6.53951 0
M  V30 12736 H 1178.46 0.919542 7.50387 0
M  V30 12737 H 1179.73 -0.234325 7.79148 0
M  V30 12738 N 1183.96 -1.40369 0.716545 0
M  V30 12739 C 1185.2 -2.01167 0.256846 0
M  V30 12740 C 1185.54 -1.56689 -1.14727 0
M  V30 12741 O 1184.81 -0.787384 -1.7785 0
M  V30 12742 C 1185.1 -3.58511 0.337963 0
M  V30 12743 C 1184.95 -4.13059 1.78052 0
M  V30 12744 C 1186.27 -4.39142 -0.290295 0
M  V30 12745 H 1183.39 -0.730877 0.0948028 0
M  V30 12746 H 1186.03 -1.66833 0.909225 0
M  V30 12747 H 1184.18 -3.87891 -0.217482 0
M  V30 12748 H 1185.85 -3.94472 2.39143 0
M  V30 12749 H 1184.09 -3.67311 2.30793 0
M  V30 12750 H 1184.76 -5.22217 1.78867 0
M  V30 12751 H 1187.24 -4.15697 0.182987 0
M  V30 12752 H 1186.12 -5.48524 -0.203097 0
M  V30 12753 H 1186.38 -4.20209 -1.37394 0
M  V30 12754 N 1185.44 -0.462799 -1.50652 0
M  V30 12755 C 1186.68 0.0951853 -2.02576 0
M  V30 12756 C 1187.02 1.40113 -1.34469 0
M  V30 12757 O 1186.29 1.88793 -0.467702 0
M  V30 12758 C 1186.57 0.287603 -3.5895 0
M  V30 12759 C 1186.43 -1.03878 -4.37641 0
M  V30 12760 C 1187.75 1.04593 -4.27491 0
M  V30 12761 H 1184.86 0.0331191 -0.736255 0
M  V30 12762 H 1187.51 -0.606772 -1.80051 0
M  V30 12763 H 1185.66 0.885514 -3.78274 0
M  V30 12764 H 1187.33 -1.67263 -4.29908 0
M  V30 12765 H 1185.57 -1.6374 -4.01711 0
M  V30 12766 H 1186.24 -0.857889 -5.45293 0
M  V30 12767 H 1188.72 0.539213 -4.12591 0
M  V30 12768 H 1187.59 1.14935 -5.36732 0
M  V30 12769 H 1187.86 2.08045 -3.90089 0
M  V30 12770 N 1186.91 1.56388 -0.195085 0
M  V30 12771 C 1188.33 1.58788 0.160758 0
M  V30 12772 C 1188.53 1.21125 1.61031 0
M  V30 12773 O 1187.59 0.933994 2.34591 0
M  V30 12774 C 1188.9 3.00366 -0.141588 0
M  V30 12775 C 1190.45 3.12893 -0.0816947 0
M  V30 12776 C 1190.92 4.56604 -0.35735 0
M  V30 12777 N 1192.41 4.62188 -0.305968 0
M  V30 12778 C 1193.15 5.71276 -0.493108 0
M  V30 12779 N 1192.64 6.8883 -0.740595 0
M  V30 12780 N 1194.44 5.60473 -0.427365 0
M  V30 12781 H 1186.59 1.79151 -1.14099 0
M  V30 12782 H 1188.85 0.831446 -0.455413 0
M  V30 12783 H 1188.56 3.32483 -1.14666 0
M  V30 12784 H 1188.43 3.73082 0.555834 0
M  V30 12785 H 1190.82 2.80589 0.913978 0
M  V30 12786 H 1190.9 2.42564 -0.812193 0
M  V30 12787 H 1190.54 4.8962 -1.35034 0
M  V30 12788 H 1190.47 5.25124 0.394036 0
M  V30 12789 H 1192.96 3.77705 -0.121298 0
M  V30 12790 H 1193.28 7.67862 -0.872201 0
M  V30 12791 H 1191.62 6.90637 -0.777488 0
M  V30 12792 H 1194.81 4.67513 -0.234436 0
M  V30 12793 H 1194.99 6.45429 -0.576627 0
M  V30 12794 N 1188.39 -0.0785156 1.57404 0
M  V30 12795 C 1189.34 -1.09402 2.03224 0
M  V30 12796 C 1190.31 -1.38849 0.911596 0
M  V30 12797 O 1191.49 -1.50031 1.17878 0
M  V30 12798 C 1188.63 -2.40444 2.47549 0
M  V30 12799 C 1187.75 -2.17585 3.73203 0
M  V30 12800 C 1186.88 -3.42143 4.06339 0
M  V30 12801 C 1185.92 -3.14619 5.25054 0
M  V30 12802 N 1185.06 -4.31489 5.5386 0
M  V30 12803 H 1189.9 -0.696307 2.89751 0
M  V30 12804 H 1187.44 -0.332261 1.43298 0
M  V30 12805 H 1189.39 -3.16944 2.71298 0
M  V30 12806 H 1188.02 -2.78031 1.64009 0
M  V30 12807 H 1187.08 -1.3181 3.56834 0
M  V30 12808 H 1188.39 -1.93249 4.59844 0
M  V30 12809 H 1187.54 -4.27042 4.30953 0
M  V30 12810 H 1186.28 -3.69549 3.18253 0
M  V30 12811 H 1185.29 -2.28116 5.00243 0
M  V30 12812 H 1186.51 -2.88543 6.14752 0
M  V30 12813 H 1184.46 -4.58939 4.68734 0
M  V30 12814 H 1184.37 -4.10403 6.34906 0
M  V30 12815 H 1185.64 -5.17404 5.83021 0
M  V30 12816 N 1189.87 -1.5367 -0.349747 0
M  V30 12817 C 1191.11 -1.72329 -1.09919 0
M  V30 12818 C 1191.47 -0.473178 -1.86078 0
M  V30 12819 O 1192.68 -0.53669 -2.63388 0
M  V30 12820 C 1190.95 -2.94817 -2.02034 0
M  V30 12821 S 1192.51 -3.34257 -2.84285 0
M  V30 12822 H 1189.32 -0.606225 -0.3715 0
M  V30 12823 H 1191.93 -1.91803 -0.378399 0
M  V30 12824 H 1190.63 -3.83979 -1.44874 0
M  V30 12825 H 1190.16 -2.7779 -2.78561 0
M  V30 12826 H 1192.18 -2.87506 -4.04419 0
M  V30 12827 N 1191.35 0.610423 -1.45298 0
M  V30 12828 C 1192.28 1.73207 -1.56594 0
M  V30 12829 C 1193.26 1.64893 -0.417651 0
M  V30 12830 O 1194.44 1.83336 -0.64043 0
M  V30 12831 C 1191.57 3.11803 -1.52959 0
M  V30 12832 C 1190.53 3.34925 -2.66475 0
M  V30 12833 C 1189.85 4.73764 -2.47894 0
M  V30 12834 C 1191.15 3.25456 -4.08504 0
M  V30 12835 H 1192.85 1.6401 -2.50482 0
M  V30 12836 H 1190.39 0.787621 -1.20551 0
M  V30 12837 H 1192.35 3.90065 -1.59458 0
M  V30 12838 H 1191.07 3.21833 -0.55599 0
M  V30 12839 H 1189.73 2.59051 -2.59399 0
M  V30 12840 H 1189.38 4.80524 -1.4868 0
M  V30 12841 H 1189.08 4.90191 -3.24016 0
M  V30 12842 H 1190.6 5.54231 -2.56243 0
M  V30 12843 H 1192.02 3.93597 -4.16839 0
M  V30 12844 H 1190.41 3.53414 -4.84994 0
M  V30 12845 H 1191.48 2.22939 -4.30612 0
M  V30 12846 N 1192.83 1.32541 0.852676 0
M  V30 12847 C 1193.74 1.23646 1.99371 0
M  V30 12848 C 1194.75 0.149673 1.73355 0
M  V30 12849 O 1195.93 0.370716 1.97959 0
M  V30 12850 C 1192.99 0.961873 3.3309 0
M  V30 12851 C 1192.05 2.1373 3.72315 0
M  V30 12852 C 1191.29 1.87572 4.99652 0
M  V30 12853 O 1191.51 0.819247 5.64486 0
M  V30 12854 O 1190.44 2.73732 5.36054 0
M  V30 12855 H 1194.27 2.19573 2.09813 0
M  V30 12856 H 1191.86 1.12451 0.983627 0
M  V30 12857 H 1193.74 0.825316 4.13239 0
M  V30 12858 H 1192.41 0.0327745 3.23683 0
M  V30 12859 H 1191.32 2.32933 2.92733 0
M  V30 12860 H 1192.65 3.04925 3.86369 0
M  V30 12861 N 1194.3 -1.0692 1.15784 0
M  V30 12862 C 1195.25 -2.14235 0.858616 0
M  V30 12863 C 1196.22 -1.65006 -0.190295 0
M  V30 12864 O 1197.41 -1.90715 -0.0568853 0
M  V30 12865 C 1194.55 -3.43229 0.35888 0
M  V30 12866 C 1193.66 -4.06225 1.46987 0
M  V30 12867 C 1192.79 -5.2307 0.925812 0
M  V30 12868 C 1191.83 -5.78037 2.01345 0
M  V30 12869 N 1190.97 -6.86206 1.48544 0
M  V30 12870 H 1195.81 -2.3917 1.77769 0
M  V30 12871 H 1193.35 -1.17354 0.886925 0
M  V30 12872 H 1195.31 -4.17169 0.0508198 0
M  V30 12873 H 1193.94 -3.18531 -0.523259 0
M  V30 12874 H 1192.99 -3.29895 1.89403 0
M  V30 12875 H 1194.3 -4.43081 2.29088 0
M  V30 12876 H 1193.45 -6.04011 0.570555 0
M  V30 12877 H 1192.19 -4.87644 0.0740371 0
M  V30 12878 H 1191.2 -4.95738 2.37748 0
M  V30 12879 H 1192.42 -6.15517 2.86907 0
M  V30 12880 H 1190.37 -6.52711 0.656092 0
M  V30 12881 H 1190.29 -7.2197 2.24266 0
M  V30 12882 H 1191.55 -7.70842 1.15856 0
M  V30 12883 N 1195.78 -0.955326 -1.25345 0
M  V30 12884 C 1196.75 -0.480564 -2.24105 0
M  V30 12885 C 1197.75 0.416123 -1.55322 0
M  V30 12886 O 1198.94 0.213315 -1.72889 0
M  V30 12887 C 1196.07 0.305589 -3.39528 0
M  V30 12888 H 1197.26 -1.35349 -2.6762 0
M  V30 12889 H 1194.81 -0.738673 -1.37744 0
M  V30 12890 H 1195.55 1.19615 -3.01434 0
M  V30 12891 H 1195.33 -0.337719 -3.90643 0
M  V30 12892 H 1196.82 0.627201 -4.12863 0
M  V30 12893 N 1197.26 1.39987 -0.723979 0
M  V30 12894 C 1198.22 2.29041 -0.0854583 0
M  V30 12895 C 1199.22 1.45777 0.678657 0
M  V30 12896 O 1200.41 1.66588 0.509311 0
M  V30 12897 C 1197.55 3.29115 0.88859 0
M  V30 12898 H 1198.74 2.87006 -0.869903 0
M  V30 12899 H 1196.29 1.48449 -0.489136 0
M  V30 12900 H 1197.03 2.76184 1.69979 0
M  V30 12901 H 1196.81 3.90593 0.343454 0
M  V30 12902 H 1198.3 3.95778 1.33227 0
M  V30 12903 N 1198.74 0.470782 1.50404 0
M  V30 12904 C 1199.67 -0.313458 2.31386 0
M  V30 12905 C 1200.65 -0.990623 1.38278 0
M  V30 12906 O 1201.84 -0.987854 1.67198 0
M  V30 12907 C 1198.97 -1.39599 3.18009 0
M  V30 12908 C 1197.92 -0.840443 4.19667 0
M  V30 12909 C 1197.25 -2.02124 4.95025 0
M  V30 12910 C 1198.55 0.148055 5.2209 0
M  V30 12911 H 1200.24 0.362432 2.97198 0
M  V30 12912 H 1197.79 0.175745 1.42924 0
M  V30 12913 H 1199.74 -1.9521 3.73458 0
M  V30 12914 H 1198.46 -2.10064 2.50081 0
M  V30 12915 H 1197.12 -0.306302 3.65318 0
M  V30 12916 H 1196.77 -2.71286 4.23571 0
M  V30 12917 H 1196.47 -1.65574 5.6379 0
M  V30 12918 H 1197.99 -2.58226 5.5331 0
M  V30 12919 H 1199.41 -0.318874 5.72413 0
M  V30 12920 H 1197.8 0.427811 5.98573 0
M  V30 12921 H 1198.87 1.07404 4.72855 0
M  V30 12922 N 1200.22 -1.56282 0.203376 0
M  V30 12923 C 1201.47 -1.96987 -0.433461 0
M  V30 12924 C 1201.78 -1.09344 -1.62183 0
M  V30 12925 O 1202.99 -1.39868 -2.327 0
M  V30 12926 C 1201.44 -3.50374 -0.82257 0
M  V30 12927 C 1201.05 -4.46693 0.341969 0
M  V30 12928 C 1202.79 -3.99831 -1.42603 0
M  V30 12929 C 1200.7 -5.9136 -0.0685608 0
M  V30 12930 H 1199.63 -0.735564 -0.165717 0
M  V30 12931 H 1202.28 -1.81085 0.296708 0
M  V30 12932 H 1200.66 -3.6181 -1.60964 0
M  V30 12933 H 1201.84 -4.46994 1.11952 0
M  V30 12934 H 1200.15 -4.07476 0.857463 0
M  V30 12935 H 1202.75 -5.05398 -1.74577 0
M  V30 12936 H 1203.09 -3.4462 -2.33544 0
M  V30 12937 H 1203.63 -3.91543 -0.702758 0
M  V30 12938 H 1200.36 -6.50515 0.80688 0
M  V30 12939 H 1199.88 -5.94295 -0.810798 0
M  V30 12940 H 1201.56 -6.45053 -0.501525 0
M  V30 12941 N 1201.7 0.070167 -1.57444 0
M  V30 12942 C 1202.64 1.10193 -2.04842 0
M  V30 12943 C 1203.64 1.39978 -0.954069 0
M  V30 12944 O 1204.84 1.39366 -1.13917 0
M  V30 12945 H 1201.22 0.372699 -0.653146 0
M  V30 12946 H 1203.19 0.676033 -2.90641 0
M  V30 12947 C 1201.94 2.40679 -2.50936 0
M  V30 12948 H 1201.26 2.1861 -3.34738 0
M  V30 12949 H 1202.7 3.11315 -2.87852 0
M  V30 12950 C 1201.16 3.06754 -1.39297 0
M  V30 12951 O 1201.69 3.949 -0.735989 0
M  V30 12952 N 1199.9 2.67404 -1.13769 0
M  V30 12953 H 1199.44 1.95813 -1.67376 0
M  V30 12954 H 1199.4 3.11937 -0.392787 0
M  V30 12955 N 1203.17 1.53854 0.341593 0
M  V30 12956 C 1204.4 1.7488 1.10002 0
M  V30 12957 C 1204.81 0.488802 1.82777 0
M  V30 12958 O 1204.15 -0.549333 1.75294 0
M  V30 12959 C 1204.22 2.87604 2.15694 0
M  V30 12960 C 1203.88 4.27142 1.62477 0
M  V30 12961 C 1204.88 5.08642 1.07606 0
M  V30 12962 C 1202.56 4.73633 1.67265 0
M  V30 12963 C 1204.56 6.34735 0.582284 0
M  V30 12964 C 1202.24 5.99697 1.175 0
M  V30 12965 C 1203.24 6.80081 0.630742 0
M  V30 12966 O 1202.93 8.03777 0.140519 0
M  V30 12967 H 1202.66 0.587824 0.333824 0
M  V30 12968 H 1205.22 2.01488 0.398965 0
M  V30 12969 H 1203.45 2.56526 2.89364 0
M  V30 12970 H 1205.13 2.96583 2.77117 0
M  V30 12971 H 1205.9 4.73887 1.03227 0
M  V30 12972 H 1201.78 4.11121 2.08567 0
M  V30 12973 H 1205.32 6.97424 0.156811 0
M  V30 12974 H 1201.22 6.33947 1.21579 0
M  V30 12975 H 1201.99 8.18094 0.257626 0
M  V30 12976 N 1204.65 -0.602709 1.4562 0
M  V30 12977 C 1205.88 -1.3881 1.53426 0
M  V30 12978 C 1206.29 -1.88046 0.16851 0
M  V30 12979 O 1205.65 -1.62493 -0.830791 0
M  V30 12980 C 1205.7 -2.58927 2.52268 0
M  V30 12981 O 1205.42 -2.11735 3.83536 0
M  V30 12982 C 1206.92 -3.51728 2.69819 0
M  V30 12983 H 1204.14 -0.424744 0.519455 0
M  V30 12984 H 1206.69 -0.73459 1.90851 0
M  V30 12985 H 1204.84 -3.20309 2.17902 0
M  V30 12986 H 1205.26 -2.89814 4.37159 0
M  V30 12987 H 1206.73 -4.32542 3.42945 0
M  V30 12988 H 1207.21 -4.02383 1.76024 0
M  V30 12989 H 1207.81 -2.96196 3.05202 0
M  V30 12990 N 1206.13 -1.32992 -0.845635 0
M  V30 12991 C 1207.55 -1.12179 -1.13526 0
M  V30 12992 C 1207.75 0.091795 -2.01291 0
M  V30 12993 O 1206.8 0.774051 -2.40343 0
M  V30 12994 C 1208.11 -2.40584 -1.80388 0
M  V30 12995 C 1209.66 -2.46427 -1.92984 0
M  V30 12996 C 1210.14 -3.74776 -2.63261 0
M  V30 12997 N 1211.63 -3.75809 -2.7078 0
M  V30 12998 C 1212.36 -4.71829 -3.2583 0
M  V30 12999 N 1211.86 -5.78219 -3.81621 0
M  V30 13000 N 1213.65 -4.59313 -3.24018 0
M  V30 13001 H 1205.8 -2.10786 -0.261369 0
M  V30 13002 H 1208.07 -0.931053 -0.17845 0
M  V30 13003 H 1207.77 -3.29357 -1.23357 0
M  V30 13004 H 1207.65 -2.52225 -2.80468 0
M  V30 13005 H 1210.03 -1.58108 -2.4917 0
M  V30 13006 H 1210.11 -2.38732 -0.918732 0
M  V30 13007 H 1209.76 -4.63474 -2.07736 0
M  V30 13008 H 1209.69 -3.79746 -3.6483 0
M  V30 13009 H 1212.18 -2.98916 -2.31209 0
M  V30 13010 H 1212.49 -6.47531 -4.2181 0
M  V30 13011 H 1210.84 -5.81962 -3.79927 0
M  V30 13012 H 1214.03 -3.75358 -2.79685 0
M  V30 13013 H 1214.2 -5.34316 -3.6662 0
M  V30 13014 N 1207.61 1.06304 -1.1635 0
M  V30 13015 C 1208.54 2.15745 -0.893103 0
M  V30 13016 C 1209.52 1.69341 0.160531 0
M  V30 13017 O 1210.7 1.94196 0.0126526 0
M  V30 13018 C 1207.83 3.45066 -0.393287 0
M  V30 13019 C 1206.79 4.04978 -1.38482 0
M  V30 13020 C 1206.11 5.29507 -0.743409 0
M  V30 13021 C 1207.41 4.4377 -2.75438 0
M  V30 13022 H 1209.11 2.38622 -1.80831 0
M  V30 13023 H 1206.65 1.14681 -0.870878 0
M  V30 13024 H 1208.61 4.20964 -0.191607 0
M  V30 13025 H 1207.33 3.21808 0.557426 0
M  V30 13026 H 1205.99 3.31136 -1.57304 0
M  V30 13027 H 1205.64 5.02545 0.213787 0
M  V30 13028 H 1205.34 5.7055 -1.40521 0
M  V30 13029 H 1206.86 6.08102 -0.551746 0
M  V30 13030 H 1208.28 5.1075 -2.60398 0
M  V30 13031 H 1206.67 4.95797 -3.38091 0
M  V30 13032 H 1207.74 3.54636 -3.30699 0
M  V30 13033 N 1209.09 0.96196 1.24836 0
M  V30 13034 C 1210.31 0.63814 1.96813 0
M  V30 13035 C 1210.73 -0.79127 1.71419 0
M  V30 13036 O 1210.09 -1.5302 0.994546 0
M  V30 13037 C 1210.14 0.89626 3.50213 0
M  V30 13038 O 1209.86 2.26947 3.74735 0
M  V30 13039 C 1211.36 0.585836 4.39412 0
M  V30 13040 H 1208.58 0.238598 0.627146 0
M  V30 13041 H 1211.12 1.28833 1.58815 0
M  V30 13042 H 1209.28 0.292368 3.86295 0
M  V30 13043 H 1209.69 2.34514 4.69152 0
M  V30 13044 H 1211.17 0.816935 5.45921 0
M  V30 13045 H 1211.64 -0.479784 4.36572 0
M  V30 13046 H 1212.25 1.16938 4.08908 0
M  V30 13047 N 1210.56 -1.39601 0.731392 0
M  V30 13048 C 1211.47 -2.34425 0.090527 0
M  V30 13049 C 1212.49 -1.58131 -0.725992 0
M  V30 13050 O 1213.67 -1.90441 -0.655294 0
M  V30 13051 C 1210.73 -3.37138 -0.808624 0
M  V30 13052 C 1209.79 -4.29295 0.0197365 0
M  V30 13053 C 1209.02 -5.27102 -0.836593 0
M  V30 13054 O 1209.25 -5.31302 -2.07543 0
M  V30 13055 O 1208.18 -6.01307 -0.267172 0
M  V30 13056 H 1212.01 -2.9088 0.873084 0
M  V30 13057 H 1209.59 -1.41066 0.492024 0
M  V30 13058 H 1211.47 -4.00087 -1.32319 0
M  V30 13059 H 1210.15 -2.83074 -1.57006 0
M  V30 13060 H 1209.06 -3.69581 0.579744 0
M  V30 13061 H 1210.39 -4.86555 0.743308 0
M  V30 13062 N 1212.04 -0.478751 -1.50152 0
M  V30 13063 C 1213.27 0.0709455 -2.06478 0
M  V30 13064 C 1213.68 1.33376 -1.34192 0
M  V30 13065 O 1213.02 1.79133 -0.40707 0
M  V30 13066 C 1213.09 0.417322 -3.5707 0
M  V30 13067 C 1212.75 -0.744563 -4.50894 0
M  V30 13068 C 1213.75 -1.62879 -4.93727 0
M  V30 13069 C 1211.43 -0.937062 -4.93482 0
M  V30 13070 C 1213.43 -2.68985 -5.77863 0
M  V30 13071 C 1211.11 -2.00134 -5.77399 0
M  V30 13072 C 1212.11 -2.87609 -6.19492 0
M  V30 13073 O 1211.8 -3.92203 -7.01735 0
M  V30 13074 H 1211.53 -0.00720177 -0.675962 0
M  V30 13075 H 1214.08 -0.668797 -1.94207 0
M  V30 13076 H 1212.31 1.21036 -3.6727 0
M  V30 13077 H 1214 0.903002 -3.95728 0
M  V30 13078 H 1214.77 -1.49179 -4.61488 0
M  V30 13079 H 1210.65 -0.265636 -4.60234 0
M  V30 13080 H 1214.19 -3.37293 -6.10639 0
M  V30 13081 H 1210.09 -2.13837 -6.09052 0
M  V30 13082 H 1210.86 -3.89284 -7.2 0
M  V30 13083 N 1213.52 1.56172 -0.211661 0
M  V30 13084 C 1214.48 2.18602 0.688906 0
M  V30 13085 C 1215.48 1.14508 1.12892 0
M  V30 13086 O 1216.67 1.39799 1.03932 0
M  V30 13087 C 1213.81 2.80141 1.94253 0
M  V30 13088 H 1215 2.9955 0.144765 0
M  V30 13089 H 1212.55 1.56254 0.0379615 0
M  V30 13090 H 1213.29 2.03035 2.52878 0
M  V30 13091 H 1213.07 3.56358 1.63558 0
M  V30 13092 H 1214.56 3.28026 2.58436 0
M  V30 13093 N 1215 -0.0618163 1.57479 0
M  V30 13094 C 1215.95 -1.0724 2.04373 0
M  V30 13095 C 1216.92 -1.37875 0.926271 0
M  V30 13096 O 1218.1 -1.48772 1.19463 0
M  V30 13097 C 1215.24 -2.37805 2.50085 0
M  V30 13098 C 1214.35 -2.13614 3.7549 0
M  V30 13099 C 1213.49 -3.37814 4.09945 0
M  V30 13100 C 1212.53 -3.09032 5.28361 0
M  V30 13101 N 1211.66 -4.25591 5.58406 0
M  V30 13102 H 1216.5 -0.665536 2.90473 0
M  V30 13103 H 1214.04 -0.317043 1.43643 0
M  V30 13104 H 1216 -3.14048 2.74644 0
M  V30 13105 H 1214.63 -2.76275 1.66948 0
M  V30 13106 H 1213.68 -1.28017 3.58212 0
M  V30 13107 H 1214.99 -1.88361 4.61867 0
M  V30 13108 H 1214.15 -4.22447 4.35458 0
M  V30 13109 H 1212.89 -3.66153 3.22154 0
M  V30 13110 H 1211.89 -2.22797 5.02635 0
M  V30 13111 H 1213.12 -2.82006 6.17778 0
M  V30 13112 H 1211.06 -4.53941 4.73575 0
M  V30 13113 H 1210.98 -4.03646 6.39223 0
M  V30 13114 H 1212.25 -5.11191 5.88476 0
M  V30 13115 N 1216.48 -1.54033 -0.333429 0
M  V30 13116 C 1217.73 -1.70979 -1.07 0
M  V30 13117 C 1218.04 -0.485095 -1.89489 0
M  V30 13118 O 1219.24 -0.535712 -2.66162 0
M  V30 13119 C 1217.7 -3.02382 -1.95175 0
M  V30 13120 C 1217.31 -4.32223 -1.17844 0
M  V30 13121 C 1219.05 -3.28693 -2.68628 0
M  V30 13122 C 1216.96 -5.54693 -2.05109 0
M  V30 13123 H 1215.89 -0.637152 -0.403179 0
M  V30 13124 H 1218.54 -1.80529 -0.328839 0
M  V30 13125 H 1216.92 -2.86714 -2.73151 0
M  V30 13126 H 1218.1 -4.58626 -0.447089 0
M  V30 13127 H 1216.41 -4.12601 -0.561166 0
M  V30 13128 H 1219.01 -4.17385 -3.34207 0
M  V30 13129 H 1219.35 -2.46141 -3.35738 0
M  V30 13130 H 1219.88 -3.45183 -1.9772 0
M  V30 13131 H 1216.62 -6.39818 -1.42523 0
M  V30 13132 H 1216.14 -5.32524 -2.76005 0
M  V30 13133 H 1217.82 -5.90722 -2.63926 0
M  V30 13134 N 1217.95 0.594978 -1.45938 0
M  V30 13135 C 1218.86 1.73296 -1.58132 0
M  V30 13136 C 1219.88 1.67665 -0.465245 0
M  V30 13137 O 1221.06 1.87794 -0.727684 0
M  V30 13138 C 1218.12 3.09783 -1.55677 0
M  V30 13139 C 1217.18 3.26772 -2.78422 0
M  V30 13140 C 1216.42 4.56748 -2.76075 0
M  V30 13141 O 1216.64 5.39867 -1.84119 0
M  V30 13142 O 1215.57 4.76721 -3.67452 0
M  V30 13143 H 1219.4 1.65957 -2.54346 0
M  V30 13144 H 1216.98 0.760572 -1.28591 0
M  V30 13145 H 1218.87 3.91077 -1.56961 0
M  V30 13146 H 1217.54 3.17585 -0.626191 0
M  V30 13147 H 1216.45 2.45018 -2.82696 0
M  V30 13148 H 1217.78 3.23853 -3.70648 0
M  V30 13149 N 1219.43 1.33438 0.838571 0
M  V30 13150 C 1220.34 1.25753 1.98049 0
M  V30 13151 C 1221.36 0.168051 1.73187 0
M  V30 13152 O 1222.53 0.391691 1.97554 0
M  V30 13153 C 1219.6 0.997148 3.32051 0
M  V30 13154 C 1218.66 2.17667 3.70027 0
M  V30 13155 C 1217.89 1.92861 4.97635 0
M  V30 13156 O 1218.12 0.879072 5.63585 0
M  V30 13157 O 1217.05 2.79402 5.33121 0
M  V30 13158 H 1220.88 2.21786 2.07472 0
M  V30 13159 H 1218.46 1.13488 0.971645 0
M  V30 13160 H 1220.34 0.869099 4.1234 0
M  V30 13161 H 1219.02 0.0671036 3.2363 0
M  V30 13162 H 1217.93 2.36025 2.90246 0
M  V30 13163 H 1219.26 3.09006 3.83114 0
M  V30 13164 N 1220.91 -1.05686 1.16912 0
M  V30 13165 C 1222.14 -1.82282 0.978811 0
M  V30 13166 C 1222.55 -1.8278 -0.472972 0
M  V30 13167 O 1221.91 -1.25143 -1.32836 0
M  V30 13168 C 1221.96 -3.28623 1.50629 0
M  V30 13169 O 1221.68 -3.28269 2.90122 0
M  V30 13170 C 1223.18 -4.21927 1.35987 0
M  V30 13171 H 1220.4 -0.574558 0.346588 0
M  V30 13172 H 1222.95 -1.33301 1.55084 0
M  V30 13173 H 1221.1 -3.74893 0.976404 0
M  V30 13174 H 1221.52 -4.19824 3.14401 0
M  V30 13175 H 1222.99 -5.2261 1.77716 0
M  V30 13176 H 1223.47 -4.38131 0.30626 0
M  V30 13177 H 1224.07 -3.81508 1.87968 0
M  V30 13178 N 1222.39 -0.968567 -1.24324 0
M  V30 13179 C 1223.32 -0.444065 -2.23838 0
M  V30 13180 C 1224.3 0.482311 -1.55282 0
M  V30 13181 O 1225.48 0.413489 -1.83909 0
M  V30 13182 C 1222.61 0.358874 -3.36793 0
M  V30 13183 C 1221.66 -0.509913 -4.23441 0
M  V30 13184 S 1222.49 -1.95064 -4.98708 0
M  V30 13185 C 1223.65 -1.15652 -6.15122 0
M  V30 13186 H 1223.88 -1.28738 -2.67981 0
M  V30 13187 H 1221.41 -0.773665 -1.33618 0
M  V30 13188 H 1223.37 0.816164 -4.02305 0
M  V30 13189 H 1222.03 1.17717 -2.91207 0
M  V30 13190 H 1221.22 0.106617 -5.03887 0
M  V30 13191 H 1220.83 -0.902967 -3.62936 0
M  V30 13192 H 1223.12 -0.411966 -6.76246 0
M  V30 13193 H 1224.06 -1.93539 -6.81137 0
M  V30 13194 H 1224.47 -0.680507 -5.60383 0
M  V30 13195 N 1223.87 1.39211 -0.738786 0
M  V30 13196 C 1224.81 2.32424 -0.0904601 0
M  V30 13197 C 1225.81 1.53258 0.721694 0
M  V30 13198 O 1227.01 1.68895 0.622454 0
M  V30 13199 H 1223.39 0.751927 -0.010453 0
M  V30 13200 H 1225.36 2.84726 -0.892945 0
M  V30 13201 C 1224.11 3.38377 0.799783 0
M  V30 13202 H 1223.43 3.99375 0.18424 0
M  V30 13203 H 1224.87 4.0604 1.22096 0
M  V30 13204 C 1223.33 2.75734 1.93578 0
M  V30 13205 O 1223.86 2.63876 3.02874 0
M  V30 13206 N 1222.07 2.33764 1.72634 0
M  V30 13207 H 1221.61 2.43609 0.837413 0
M  V30 13208 H 1221.57 1.92191 2.48817 0
M  V30 13209 N 1225.34 0.486708 1.49896 0
M  V30 13210 C 1226.28 -0.335809 2.26727 0
M  V30 13211 C 1227.29 -0.94333 1.32684 0
M  V30 13212 O 1228.48 -0.82909 1.58077 0
M  V30 13213 C 1225.58 -1.48642 3.04563 0
M  V30 13214 C 1224.75 -0.988837 4.26076 0
M  V30 13215 C 1223.81 -2.01535 4.86076 0
M  V30 13216 O 1222.84 -1.58966 5.46552 0
M  V30 13217 N 1224.04 -3.34471 4.74457 0
M  V30 13218 H 1226.8 0.322919 2.97955 0
M  V30 13219 H 1224.36 0.318403 1.58738 0
M  V30 13220 H 1226.36 -2.17039 3.41579 0
M  V30 13221 H 1224.93 -2.04956 2.36033 0
M  V30 13222 H 1224.15 -0.130232 3.93985 0
M  V30 13223 H 1225.43 -0.634562 5.04827 0
M  V30 13224 H 1224.83 -3.71755 4.26398 0
M  V30 13225 H 1223.39 -3.98621 5.15698 0
M  V30 13226 N 1226.82 -1.56058 0.219941 0
M  V30 13227 C 1227.79 -2.18964 -0.677303 0
M  V30 13228 C 1228.79 -1.15105 -1.12283 0
M  V30 13229 O 1229.98 -1.40348 -1.03189 0
M  V30 13230 C 1227.11 -2.81167 -1.92764 0
M  V30 13231 H 1228.3 -2.99623 -0.128877 0
M  V30 13232 H 1225.85 -1.56272 -0.0296744 0
M  V30 13233 H 1226.59 -2.04374 -2.51797 0
M  V30 13234 H 1226.37 -3.5722 -1.61666 0
M  V30 13235 H 1227.86 -3.29391 -2.56693 0
M  V30 13236 N 1228.3 0.053464 -1.57509 0
M  V30 13237 C 1229.53 0.765301 -1.92764 0
M  V30 13238 C 1229.95 1.69385 -0.817943 0
M  V30 13239 O 1229.31 1.7986 0.228075 0
M  V30 13240 C 1229.36 1.51938 -3.27028 0
M  V30 13241 O 1228.46 2.63121 -3.17555 0
M  V30 13242 H 1227.8 0.207567 -0.630723 0
M  V30 13243 H 1230.33 0.0162254 -2.04594 0
M  V30 13244 H 1230.34 1.89466 -3.6134 0
M  V30 13245 H 1229.02 0.838207 -4.07366 0
M  V30 13246 H 1227.59 2.28316 -2.94832 0
M  V30 13247 N 1229.78 1.54207 0.325255 0
M  V30 13248 C 1231.19 1.63587 0.899793 0
M  V30 13249 C 1231.54 0.528851 1.88938 0
M  V30 13250 O 1230.67 -0.33852 2.13736 0
M  V30 13251 C 1231.26 2.9653 1.63877 0
M  V30 13252 C 1229.82 3.08111 2.16205 0
M  V30 13253 C 1228.97 2.59144 0.986903 0
M  V30 13254 H 1231.92 1.58366 0.102883 0
M  V30 13255 H 1231.94 2.86595 2.50287 0
M  V30 13256 H 1231.45 3.7708 0.918279 0
M  V30 13257 H 1229.55 2.32232 2.91375 0
M  V30 13258 H 1229.67 4.13885 2.41322 0
M  V30 13259 H 1228.03 2.14997 1.36558 0
M  V30 13260 H 1228.81 3.4215 0.28076 0
M  V30 13261 N 1231.26 -0.58723 1.46251 0
M  V30 13262 C 1232.22 -1.67863 1.5606 0
M  V30 13263 C 1233.22 -1.54715 0.438162 0
M  V30 13264 O 1234.41 -1.59415 0.702323 0
M  V30 13265 C 1231.54 -3.07262 1.47659 0
M  V30 13266 H 1232.74 -1.60525 2.53321 0
M  V30 13267 H 1230.29 -0.804691 1.33994 0
M  V30 13268 H 1231.02 -3.20159 0.5166 0
M  V30 13269 H 1230.81 -3.18213 2.29092 0
M  V30 13270 H 1232.3 -3.8672 1.57599 0
M  V30 13271 N 1232.74 -1.33881 -0.831482 0
M  V30 13272 C 1234.15 -1.13376 -1.1233 0
M  V30 13273 C 1234.35 0.0704402 -2.01377 0
M  V30 13274 O 1233.41 0.748516 -2.4115 0
M  V30 13275 C 1234.72 -2.42484 -1.77826 0
M  V30 13276 C 1236.27 -2.4846 -1.90359 0
M  V30 13277 C 1236.74 -3.77548 -2.59272 0
M  V30 13278 N 1238.23 -3.7866 -2.66778 0
M  V30 13279 C 1238.97 -4.75258 -3.20807 0
M  V30 13280 N 1238.47 -5.82234 -3.75466 0
M  V30 13281 N 1240.26 -4.62724 -3.19128 0
M  V30 13282 H 1232.41 -2.11051 -0.238998 0
M  V30 13283 H 1234.67 -0.932893 -0.168565 0
M  V30 13284 H 1234.38 -3.30647 -1.19857 0
M  V30 13285 H 1234.25 -2.55186 -2.77777 0
M  V30 13286 H 1236.64 -1.60742 -2.47479 0
M  V30 13287 H 1236.72 -2.39693 -0.893359 0
M  V30 13288 H 1236.36 -4.65651 -2.02808 0
M  V30 13289 H 1236.29 -3.83594 -3.60781 0
M  V30 13290 H 1238.79 -3.01351 -2.28026 0
M  V30 13291 H 1239.1 -6.51968 -4.14918 0
M  V30 13292 H 1237.44 -5.85959 -3.73733 0
M  V30 13293 H 1240.63 -3.78303 -2.75688 0
M  V30 13294 H 1240.81 -5.38175 -3.60932 0
M  V30 13295 N 1234.21 1.05064 -1.1747 0
M  V30 13296 C 1235.16 2.12841 -0.89259 0
M  V30 13297 C 1236.13 1.65288 0.16402 0
M  V30 13298 O 1237.32 1.90782 0.026537 0
M  V30 13299 C 1234.46 3.42614 -0.41344 0
M  V30 13300 C 1233.57 4.03835 -1.53432 0
M  V30 13301 C 1232.7 5.21531 -1.00891 0
M  V30 13302 C 1231.74 5.74761 -2.10515 0
M  V30 13303 N 1230.88 6.83756 -1.59442 0
M  V30 13304 H 1235.72 2.36312 -1.81551 0
M  V30 13305 H 1233.26 1.15929 -0.905483 0
M  V30 13306 H 1235.21 4.17035 -0.117181 0
M  V30 13307 H 1233.84 3.19323 0.472517 0
M  V30 13308 H 1232.9 3.2684 -1.94627 0
M  V30 13309 H 1234.21 4.3938 -2.36108 0
M  V30 13310 H 1233.36 6.03027 -0.666575 0
M  V30 13311 H 1232.1 4.87464 -0.151608 0
M  V30 13312 H 1231.11 4.91893 -2.45604 0
M  V30 13313 H 1232.33 6.10875 -2.96663 0
M  V30 13314 H 1230.28 6.51584 -0.759849 0
M  V30 13315 H 1230.19 7.18311 -2.35724 0
M  V30 13316 H 1231.46 7.68901 -1.28105 0
M  V30 13317 N 1235.69 0.975146 1.23809 0
M  V30 13318 C 1236.62 0.530389 2.27396 0
M  V30 13319 C 1237.6 -0.433763 1.64476 0
M  V30 13320 O 1238.79 -0.32827 1.91405 0
M  V30 13321 C 1235.92 -0.173066 3.46869 0
M  V30 13322 C 1234.87 0.707844 4.22106 0
M  V30 13323 C 1234.2 -0.127527 5.34548 0
M  V30 13324 C 1235.5 1.99609 4.82652 0
M  V30 13325 H 1237.19 1.39622 2.64851 0
M  V30 13326 H 1234.74 0.672802 1.27316 0
M  V30 13327 H 1236.69 -0.495481 4.18477 0
M  V30 13328 H 1235.41 -1.0733 3.0846 0
M  V30 13329 H 1234.07 1.01364 3.52308 0
M  V30 13330 H 1233.72 -1.02814 4.9238 0
M  V30 13331 H 1233.42 0.458728 5.85807 0
M  V30 13332 H 1234.95 -0.444443 6.0898 0
M  V30 13333 H 1236.36 1.73878 5.46296 0
M  V30 13334 H 1234.76 2.52969 5.44175 0
M  V30 13335 H 1235.83 2.68629 4.03691 0
M  V30 13336 N 1237.17 -1.38817 0.746158 0
M  V30 13337 C 1238.08 -2.34316 0.115386 0
M  V30 13338 C 1239.1 -1.58892 -0.709179 0
M  V30 13339 O 1240.27 -1.91126 -0.635059 0
M  V30 13340 C 1237.34 -3.37977 -0.772821 0
M  V30 13341 C 1236.4 -4.2925 0.0652679 0
M  V30 13342 C 1235.63 -5.2796 -0.78064 0
M  V30 13343 O 1235.85 -5.33474 -2.01896 0
M  V30 13344 O 1234.79 -6.01556 -0.20338 0
M  V30 13345 H 1238.61 -2.89937 0.903887 0
M  V30 13346 H 1236.2 -1.40536 0.506958 0
M  V30 13347 H 1238.08 -4.01468 -1.28068 0
M  V30 13348 H 1236.76 -2.84723 -1.53994 0
M  V30 13349 H 1235.66 -3.68945 0.61891 0
M  V30 13350 H 1237 -4.85739 0.794871 0
M  V30 13351 N 1238.65 -0.49465 -1.49636 0
M  V30 13352 C 1239.56 0.291881 -2.32777 0
M  V30 13353 C 1240.57 0.973468 -1.44221 0
M  V30 13354 O 1241.75 0.956252 -1.77251 0
M  V30 13355 C 1238.81 1.34609 -3.19502 0
M  V30 13356 C 1237.88 0.678611 -4.23903 0
M  V30 13357 C 1237.11 1.68259 -5.06483 0
M  V30 13358 O 1237.33 2.91176 -4.90482 0
M  V30 13359 O 1236.27 1.24141 -5.88959 0
M  V30 13360 H 1240.09 -0.388459 -3.01205 0
M  V30 13361 H 1237.68 -0.256086 -1.47189 0
M  V30 13362 H 1239.56 1.95617 -3.73245 0
M  V30 13363 H 1238.23 2.00947 -2.53775 0
M  V30 13364 H 1237.14 0.0289541 -3.74089 0
M  V30 13365 H 1238.47 0.0577817 -4.92166 0
M  V30 13366 N 1240.13 1.55939 -0.228214 0
M  V30 13367 C 1241.37 1.97652 0.402067 0
M  V30 13368 C 1241.69 1.11911 1.60422 0
M  V30 13369 O 1242.89 1.43552 2.30445 0
M  V30 13370 C 1241.35 3.51638 0.766724 0
M  V30 13371 C 1240.96 4.46092 -0.412991 0
M  V30 13372 C 1242.7 4.02049 1.36224 0
M  V30 13373 C 1240.61 5.91394 -0.0255281 0
M  V30 13374 H 1239.54 0.738107 0.153994 0
M  V30 13375 H 1242.19 1.8059 -0.32548 0
M  V30 13376 H 1240.57 3.64325 1.55188 0
M  V30 13377 H 1241.75 4.45156 -1.19049 0
M  V30 13378 H 1240.06 4.0606 -0.92218 0
M  V30 13379 H 1242.66 5.08111 1.66514 0
M  V30 13380 H 1243 3.48292 2.28032 0
M  V30 13381 H 1243.53 3.92612 0.640378 0
M  V30 13382 H 1240.27 6.49149 -0.910269 0
M  V30 13383 H 1239.79 5.95509 0.716149 0
M  V30 13384 H 1241.47 6.4577 0.398839 0
M  V30 13385 N 1241.6 -0.0451101 1.57535 0
M  V30 13386 C 1242.53 -1.05046 2.08537 0
M  V30 13387 C 1243.52 -1.3872 0.984418 0
M  V30 13388 O 1244.7 -1.47884 1.25873 0
M  V30 13389 C 1241.83 -2.3562 2.55148 0
M  V30 13390 C 1240.78 -2.16231 3.69362 0
M  V30 13391 C 1240.11 -3.52423 4.02122 0
M  V30 13392 C 1241.41 -1.56159 4.98409 0
M  V30 13393 H 1243.1 -0.625965 2.92783 0
M  V30 13394 H 1240.65 -0.299657 1.40848 0
M  V30 13395 H 1242.6 -3.06266 2.89446 0
M  V30 13396 H 1241.33 -2.80099 1.67964 0
M  V30 13397 H 1239.99 -1.4802 3.35389 0
M  V30 13398 H 1239.63 -3.94522 3.12028 0
M  V30 13399 H 1239.33 -3.4028 4.79044 0
M  V30 13400 H 1240.86 -4.24458 4.38939 0
M  V30 13401 H 1242.27 -2.16703 5.30766 0
M  V30 13402 H 1240.67 -1.54638 5.79834 0
M  V30 13403 H 1241.74 -0.525698 4.82042 0
M  V30 13404 N 1243.08 -1.54377 -0.317073 0
M  V30 13405 C 1244.03 -1.80597 -1.39172 0
M  V30 13406 C 1245.02 -0.662289 -1.46637 0
M  V30 13407 O 1246.21 -0.922477 -1.51061 0
M  V30 13408 C 1243.34 -2.04252 -2.75927 0
M  V30 13409 C 1242.42 -3.2476 -2.72749 0
M  V30 13410 N 1242.81 -4.45671 -2.39189 0
M  V30 13411 C 1241.11 -3.26464 -3.03871 0
M  V30 13412 C 1241.81 -5.27631 -2.44908 0
M  V30 13413 N 1240.79 -4.64968 -2.81613 0
M  V30 13414 H 1244.59 -2.71655 -1.12164 0
M  V30 13415 H 1242.11 -1.5366 -0.525586 0
M  V30 13416 H 1244.1 -2.21178 -3.53392 0
M  V30 13417 H 1242.76 -1.14452 -3.0386 0
M  V30 13418 H 1243.77 -4.72556 -2.11922 0
M  V30 13419 H 1240.45 -2.46718 -3.36803 0
M  V30 13420 H 1241.84 -6.34202 -2.21896 0
M  V30 13421 N 1244.56 0.579466 -1.4656 0
M  V30 13422 C 1245.49 1.69846 -1.60233 0
M  V30 13423 C 1246.47 1.6397 -0.452533 0
M  V30 13424 O 1247.66 1.81936 -0.679174 0
M  V30 13425 C 1244.79 3.08488 -1.59538 0
M  V30 13426 C 1243.74 3.29197 -2.7352 0
M  V30 13427 C 1243.07 4.684 -2.57887 0
M  V30 13428 C 1244.37 3.16718 -4.15315 0
M  V30 13429 H 1246.06 1.5866 -2.53904 0
M  V30 13430 H 1243.61 0.761873 -1.22194 0
M  V30 13431 H 1245.56 3.86595 -1.67696 0
M  V30 13432 H 1244.28 3.20581 -0.62413 0
M  V30 13433 H 1242.94 2.53491 -2.64836 0
M  V30 13434 H 1242.59 4.77262 -1.58839 0
M  V30 13435 H 1242.29 4.83208 -3.34341 0
M  V30 13436 H 1243.81 5.48671 -2.67942 0
M  V30 13437 H 1245.23 3.84666 -4.25094 0
M  V30 13438 H 1243.63 3.43047 -4.92381 0
M  V30 13439 H 1244.7 2.13755 -4.35244 0
M  V30 13440 N 1246.04 1.3432 0.824371 0
M  V30 13441 C 1247 1.25672 1.91675 0
M  V30 13442 C 1248 0.172269 1.59875 0
M  V30 13443 O 1249.19 0.424794 1.68941 0
M  V30 13444 C 1246.32 0.939928 3.27686 0
M  V30 13445 H 1247.52 2.22785 2.00766 0
M  V30 13446 H 1245.07 1.18587 1.01817 0
M  V30 13447 H 1245.8 -0.0280898 3.24288 0
M  V30 13448 H 1245.59 1.72432 3.5215 0
M  V30 13449 H 1247.08 0.904553 4.07686 0
M  V30 13450 N 1247.52 -1.0444 1.18026 0
M  V30 13451 C 1248.43 -2.15862 0.918747 0
M  V30 13452 C 1249.44 -1.73614 -0.115808 0
M  V30 13453 O 1250.62 -2.01294 0.0652312 0
M  V30 13454 C 1247.68 -3.43846 0.443922 0
M  V30 13455 C 1246.74 -4.00497 1.54599 0
M  V30 13456 C 1245.98 -5.22373 1.09372 0
M  V30 13457 O 1246.2 -5.70379 -0.049085 0
M  V30 13458 O 1245.13 -5.71459 1.88992 0
M  V30 13459 H 1248.96 -2.40776 1.85097 0
M  V30 13460 H 1246.55 -1.14326 0.961769 0
M  V30 13461 H 1248.43 -4.20985 0.187017 0
M  V30 13462 H 1247.1 -3.20414 -0.460051 0
M  V30 13463 H 1246.01 -3.24764 1.85686 0
M  V30 13464 H 1247.34 -4.28262 2.42595 0
M  V30 13465 N 1248.99 -0.981699 -1.2329 0
M  V30 13466 C 1249.92 -0.542441 -2.27112 0
M  V30 13467 C 1250.91 0.425034 -1.64704 0
M  V30 13468 O 1252.09 0.318114 -1.91577 0
M  V30 13469 C 1249.22 0.154668 -3.46955 0
M  V30 13470 C 1248.17 -0.73022 -4.21725 0
M  V30 13471 C 1247.5 0.0991766 -5.34608 0
M  V30 13472 C 1248.8 -2.02166 -4.81587 0
M  V30 13473 H 1250.49 -1.41024 -2.64107 0
M  V30 13474 H 1248.04 -0.679544 -1.26957 0
M  V30 13475 H 1249.99 0.473281 -4.18734 0
M  V30 13476 H 1248.72 1.05693 -3.09025 0
M  V30 13477 H 1247.38 -1.03231 -3.51765 0
M  V30 13478 H 1247.02 1.00201 -4.92919 0
M  V30 13479 H 1246.72 -0.489788 -5.85555 0
M  V30 13480 H 1248.25 0.412141 -6.09207 0
M  V30 13481 H 1249.66 -1.76773 -5.45366 0
M  V30 13482 H 1248.06 -2.55851 -5.42826 0
M  V30 13483 H 1249.13 -2.70766 -4.02261 0
M  V30 13484 N 1250.47 1.3842 -0.753509 0
M  V30 13485 C 1251.71 2.01965 -0.314558 0
M  V30 13486 C 1252.08 1.58519 1.08331 0
M  V30 13487 O 1253.28 2.14395 1.62137 0
M  V30 13488 C 1251.55 3.54765 -0.433199 0
M  V30 13489 S 1253.11 4.38733 -0.0768176 0
M  V30 13490 H 1249.93 0.700447 -0.122045 0
M  V30 13491 H 1252.53 1.68925 -0.98411 0
M  V30 13492 H 1251.23 3.83874 -1.45152 0
M  V30 13493 H 1250.76 3.92582 0.253539 0
M  V30 13494 H 1252.78 4.83077 1.13361 0
M  V30 13495 N 1251.95 0.502579 1.49372 0
M  V30 13496 C 1253.2 -0.0432341 2.01654 0
M  V30 13497 C 1253.51 -1.379 1.38719 0
M  V30 13498 O 1254.72 -2.01159 1.82338 0
M  V30 13499 C 1253.17 -0.127509 3.59674 0
M  V30 13500 C 1252.78 1.20171 4.31582 0
M  V30 13501 C 1254.53 -0.623603 4.19895 0
M  V30 13502 C 1252.43 1.07951 5.81464 0
M  V30 13503 H 1251.36 -0.0199308 0.753737 0
M  V30 13504 H 1254.01 0.642237 1.71894 0
M  V30 13505 H 1252.4 -0.877465 3.86156 0
M  V30 13506 H 1253.57 1.96508 4.16799 0
M  V30 13507 H 1251.89 1.63136 3.83113 0
M  V30 13508 H 1254.48 -0.732562 5.29658 0
M  V30 13509 H 1254.83 -1.62282 3.83367 0
M  V30 13510 H 1255.36 0.0698641 3.97739 0
M  V30 13511 H 1252.1 2.05304 6.22519 0
M  V30 13512 H 1251.62 0.357051 5.98736 0
M  V30 13513 H 1253.3 0.758885 6.42534 0
M  V30 13514 N 1253.43 -1.55816 0.23648 0
M  V30 13515 C 1254.34 -2.24576 -0.678439 0
M  V30 13516 C 1255.35 -1.25836 -1.20172 0
M  V30 13517 O 1256.53 -1.58686 -1.24019 0
M  V30 13518 C 1253.6 -2.92376 -1.86325 0
M  V30 13519 C 1252.66 -4.06499 -1.38047 0
M  V30 13520 C 1251.89 -4.71057 -2.50881 0
M  V30 13521 O 1252.11 -4.34652 -3.69369 0
M  V30 13522 O 1251.05 -5.59768 -2.21232 0
M  V30 13523 H 1254.87 -3.03452 -0.122601 0
M  V30 13524 H 1252.46 -1.49399 0.00540803 0
M  V30 13525 H 1254.34 -3.35117 -2.55488 0
M  V30 13526 H 1253.01 -2.16448 -2.40691 0
M  V30 13527 H 1251.92 -3.68296 -0.656422 0
M  V30 13528 H 1253.25 -4.84214 -0.883024 0
M  V30 13529 N 1254.91 0.036755 -1.57557 0
M  V30 13530 C 1256.15 0.730186 -1.89199 0
M  V30 13531 C 1256.49 1.75414 -0.833271 0
M  V30 13532 O 1255.76 1.93901 0.152579 0
M  V30 13533 C 1256.04 1.40669 -3.31488 0
M  V30 13534 C 1255.9 0.396764 -4.48047 0
M  V30 13535 C 1257.22 2.34268 -3.72567 0
M  V30 13536 H 1254.33 0.263983 -0.6881 0
M  V30 13537 H 1256.98 -0.0069847 -1.89999 0
M  V30 13538 H 1255.13 2.03502 -3.30937 0
M  V30 13539 H 1256.8 -0.229062 -4.60731 0
M  V30 13540 H 1255.04 -0.284698 -4.32865 0
M  V30 13541 H 1255.71 0.908436 -5.44474 0
M  V30 13542 H 1258.19 1.81485 -3.74436 0
M  V30 13543 H 1257.06 2.78587 -4.72949 0
M  V30 13544 H 1257.33 3.20611 -3.04403 0
M  V30 13545 N 1256.39 1.54543 0.308881 0
M  V30 13546 C 1257.32 1.87947 1.38557 0
M  V30 13547 C 1258.3 0.737622 1.53275 0
M  V30 13548 O 1259.48 0.992664 1.66913 0
M  V30 13549 C 1256.61 2.11982 2.75102 0
M  V30 13550 C 1255.57 3.2783 2.75158 0
M  V30 13551 C 1254.89 3.37266 4.14917 0
M  V30 13552 C 1256.19 4.65129 2.37598 0
M  V30 13553 H 1257.89 2.78123 1.1085 0
M  V30 13554 H 1255.43 1.3382 0.531808 0
M  V30 13555 H 1257.38 2.33935 3.50503 0
M  V30 13556 H 1256.11 1.18569 3.04317 0
M  V30 13557 H 1254.77 3.05787 2.02212 0
M  V30 13558 H 1254.42 2.41384 4.41296 0
M  V30 13559 H 1254.12 4.15135 4.15857 0
M  V30 13560 H 1255.64 3.61471 4.92109 0
M  V30 13561 H 1257.05 4.86865 3.02714 0
M  V30 13562 H 1255.45 5.45653 2.49765 0
M  V30 13563 H 1256.52 4.6638 1.32731 0
M  V30 13564 N 1257.86 -0.571685 1.46866 0
M  V30 13565 C 1258.8 -1.69475 1.54307 0
M  V30 13566 C 1259.81 -1.57006 0.430449 0
M  V30 13567 O 1261 -1.64229 0.69936 0
M  V30 13568 C 1258.1 -3.07824 1.41766 0
M  V30 13569 C 1257.27 -3.46189 2.67342 0
M  V30 13570 C 1256.33 -4.63642 2.48843 0
M  V30 13571 O 1255.36 -4.68949 3.22608 0
M  V30 13572 N 1256.56 -5.59223 1.55724 0
M  V30 13573 H 1259.32 -1.63543 2.51145 0
M  V30 13574 H 1256.88 -0.757957 1.43062 0
M  V30 13575 H 1258.88 -3.84208 1.27146 0
M  V30 13576 H 1257.45 -3.08063 0.530667 0
M  V30 13577 H 1256.67 -2.59399 2.96826 0
M  V30 13578 H 1257.95 -3.68591 3.50739 0
M  V30 13579 H 1257.35 -5.5768 0.949175 0
M  V30 13580 H 1255.91 -6.34993 1.47063 0
M  V30 13581 N 1259.34 -1.34755 -0.817236 0
M  V30 13582 C 1260.27 -1.22648 -1.93624 0
M  V30 13583 C 1261.29 -0.152226 -1.62087 0
M  V30 13584 O 1262.48 -0.404578 -1.73855 0
M  V30 13585 C 1259.58 -0.863519 -3.27714 0
M  V30 13586 C 1258.75 -2.03394 -3.87233 0
M  V30 13587 C 1257.81 -1.64846 -4.99712 0
M  V30 13588 O 1256.83 -2.3658 -5.17705 0
M  V30 13589 N 1258.04 -0.565909 -5.77735 0
M  V30 13590 H 1260.8 -2.19051 -2.0454 0
M  V30 13591 H 1258.36 -1.27785 -0.994113 0
M  V30 13592 H 1260.35 -0.58733 -4.00415 0
M  V30 13593 H 1258.92 0.0104987 -3.12598 0
M  V30 13594 H 1258.14 -2.47454 -3.06856 0
M  V30 13595 H 1259.43 -2.81655 -4.23731 0
M  V30 13596 H 1258.83 0.030313 -5.65692 0
M  V30 13597 H 1257.39 -0.349467 -6.50862 0
M  V30 13598 N 1260.82 1.03812 -1.18578 0
M  V30 13599 C 1261.77 2.13994 -0.911563 0
M  V30 13600 C 1262.76 1.68907 0.129131 0
M  V30 13601 O 1263.97 1.7999 -0.0192557 0
M  V30 13602 H 1260.34 0.698996 -0.277324 0
M  V30 13603 H 1262.31 2.34318 -1.84763 0
M  V30 13604 C 1261.06 3.44689 -0.456591 0
M  V30 13605 H 1260.39 3.79793 -1.2489 0
M  V30 13606 H 1261.83 4.22911 -0.303738 0
M  V30 13607 C 1260.28 3.26568 0.827961 0
M  V30 13608 O 1260.81 3.54376 1.89158 0
M  V30 13609 N 1259.02 2.79893 0.781567 0
M  V30 13610 H 1258.57 2.57462 -0.0842145 0
M  V30 13611 H 1258.53 2.68148 1.64146 0
M  V30 13612 N 1262.3 0.988223 1.22768 0
M  V30 13613 C 1263.21 0.543407 2.2822 0
M  V30 13614 C 1264.22 -0.405563 1.69208 0
M  V30 13615 O 1265.4 -0.273551 1.99534 0
M  V30 13616 C 1262.46 -0.139495 3.46419 0
M  V30 13617 C 1261.53 0.851853 4.20764 0
M  V30 13618 C 1260.76 0.201446 5.3332 0
M  V30 13619 O 1260.98 -1.00573 5.61464 0
M  V30 13620 O 1259.92 0.903956 5.95073 0
M  V30 13621 H 1263.74 1.42059 2.68427 0
M  V30 13622 H 1261.33 0.756239 1.28846 0
M  V30 13623 H 1263.21 -0.522226 4.18152 0
M  V30 13624 H 1261.88 -0.991315 3.08147 0
M  V30 13625 H 1260.79 1.28543 3.51322 0
M  V30 13626 H 1262.12 1.67273 4.62905 0
M  V30 13627 N 1263.78 -1.38018 0.760839 0
M  V30 13628 C 1264.69 -2.34181 0.140232 0
M  V30 13629 C 1265.7 -1.59635 -0.692287 0
M  V30 13630 O 1266.88 -1.91788 -0.614752 0
M  V30 13631 C 1263.94 -3.38778 -0.73693 0
M  V30 13632 C 1263 -4.29157 0.110792 0
M  V30 13633 C 1262.24 -5.28758 -0.724599 0
M  V30 13634 O 1262.46 -5.35585 -1.96226 0
M  V30 13635 O 1261.39 -6.01738 -0.139565 0
M  V30 13636 H 1265.22 -2.88962 0.934588 0
M  V30 13637 H 1262.8 -1.3999 0.521835 0
M  V30 13638 H 1264.69 -4.02804 -1.23803 0
M  V30 13639 H 1263.36 -2.86341 -1.50966 0
M  V30 13640 H 1262.27 -3.68268 0.658007 0
M  V30 13641 H 1263.6 -4.84869 0.846346 0
M  V30 13642 N 1265.25 -0.510493 -1.49103 0
M  V30 13643 C 1266.2 0.282297 -2.26246 0
M  V30 13644 C 1267.19 0.927187 -1.31499 0
M  V30 13645 O 1268.38 0.833216 -1.56162 0
M  V30 13646 C 1265.51 1.34046 -3.16049 0
M  V30 13647 C 1264.59 0.701334 -4.18261 0
M  V30 13648 N 1264.99 -0.201593 -5.05398 0
M  V30 13649 C 1263.28 0.960822 -4.35527 0
M  V30 13650 C 1263.98 -0.568383 -5.78916 0
M  V30 13651 N 1262.96 0.0659546 -5.4356 0
M  V30 13652 H 1266.76 -0.41264 -2.90989 0
M  V30 13653 H 1264.28 -0.327201 -1.5907 0
M  V30 13654 H 1266.27 1.92195 -3.69955 0
M  V30 13655 H 1264.93 2.03697 -2.52859 0
M  V30 13656 H 1265.94 -0.573004 -5.1472 0
M  V30 13657 H 1262.62 1.64938 -3.83539 0
M  V30 13658 H 1264.01 -1.30763 -6.59053 0
M  V30 13659 N 1266.73 1.55688 -0.24474 0
M  V30 13660 C 1267.68 2.17946 0.669596 0
M  V30 13661 C 1268.67 1.13468 1.14078 0
M  V30 13662 O 1269.86 1.39385 1.09091 0
M  V30 13663 C 1266.99 2.8808 1.86721 0
M  V30 13664 C 1266.07 3.99811 1.41463 0
M  V30 13665 N 1266.46 5.01261 0.676131 0
M  V30 13666 C 1264.76 4.12327 1.70008 0
M  V30 13667 C 1265.46 5.80017 0.442113 0
M  V30 13668 N 1264.44 5.34216 1.00569 0
M  V30 13669 H 1268.24 2.93739 0.0971953 0
M  V30 13670 H 1265.75 1.62332 -0.0469646 0
M  V30 13671 H 1267.75 3.31109 2.53322 0
M  V30 13672 H 1266.41 2.13789 2.44385 0
M  V30 13673 H 1267.42 5.1687 0.326459 0
M  V30 13674 H 1264.1 3.49206 2.28827 0
M  V30 13675 H 1265.49 6.71739 -0.14729 0
M  V30 13676 N 1268.21 -0.0283989 1.57574 0
M  V30 13677 C 1269.17 -1.01346 2.05576 0
M  V30 13678 C 1270.17 -1.28999 0.960001 0
M  V30 13679 O 1271.36 -1.23991 1.2236 0
M  V30 13680 C 1268.49 -2.34611 2.47327 0
M  V30 13681 H 1269.69 -0.598809 2.93861 0
M  V30 13682 H 1267.24 -0.27524 1.53857 0
M  V30 13683 H 1267.98 -2.80823 1.622 0
M  V30 13684 H 1267.76 -2.1587 3.27326 0
M  V30 13685 H 1269.25 -3.05332 2.84889 0
M  V30 13686 N 1269.69 -1.54705 -0.300681 0
M  V30 13687 C 1270.6 -1.88736 -1.39341 0
M  V30 13688 C 1271.61 -0.78155 -1.5546 0
M  V30 13689 O 1272.79 -1.07804 -1.70118 0
M  V30 13690 C 1269.85 -2.12795 -2.73713 0
M  V30 13691 C 1268.92 -3.36504 -2.66577 0
M  V30 13692 C 1268.15 -3.59407 -3.94541 0
M  V30 13693 O 1268.37 -2.85315 -4.93914 0
M  V30 13694 O 1267.31 -4.52923 -3.96415 0
M  V30 13695 H 1271.13 -2.817 -1.13484 0
M  V30 13696 H 1268.72 -1.40899 -0.496771 0
M  V30 13697 H 1270.6 -2.29819 -3.53215 0
M  V30 13698 H 1269.27 -1.23017 -2.99414 0
M  V30 13699 H 1268.18 -3.24844 -1.85546 0
M  V30 13700 H 1269.51 -4.26414 -2.45829 0
M  V30 13701 N 1271.17 0.563888 -1.47167 0
M  V30 13702 C 1272.41 1.31875 -1.53145 0
M  V30 13703 C 1272.74 1.94047 -0.192518 0
M  V30 13704 O 1272.01 1.79577 0.782872 0
M  V30 13705 H 1270.59 0.489694 -0.5641 0
M  V30 13706 H 1273.25 0.658976 -1.83422 0
M  V30 13707 H 1272.34 2.11574 -2.2944 0
M  V30 13708 N 1272.64 1.35187 0.810078 0
M  V30 13709 C 1274.06 1.15149 1.10512 0
M  V30 13710 C 1274.26 -0.038394 2.01463 0
M  V30 13711 O 1273.32 -0.710056 2.42311 0
M  V30 13712 C 1274.63 2.45282 1.73946 0
M  V30 13713 C 1276.18 2.51457 1.86382 0
M  V30 13714 C 1276.65 3.81625 2.53232 0
M  V30 13715 N 1278.14 3.82856 2.6072 0
M  V30 13716 C 1278.88 4.80302 3.13206 0
M  V30 13717 N 1278.37 5.88134 3.66156 0
M  V30 13718 N 1280.17 4.67743 3.11726 0
M  V30 13719 H 1272.32 2.11405 0.205391 0
M  V30 13720 H 1274.58 0.935457 0.153702 0
M  V30 13721 H 1274.29 3.32512 1.14582 0
M  V30 13722 H 1274.16 2.59573 2.73682 0
M  V30 13723 H 1276.55 1.64659 2.44891 0
M  V30 13724 H 1276.63 2.41084 0.855113 0
M  V30 13725 H 1276.27 4.68819 1.95375 0
M  V30 13726 H 1276.2 3.89285 3.54633 0
M  V30 13727 H 1278.69 3.04941 2.23203 0
M  V30 13728 H 1279.01 6.58487 4.04494 0
M  V30 13729 H 1277.35 5.91831 3.64364 0
M  V30 13730 H 1280.54 3.82642 2.69635 0
M  V30 13731 H 1280.72 5.43849 3.52324 0
M  V30 13732 N 1274.12 -1.03182 1.19127 0
M  V30 13733 C 1275.03 -2.14875 0.94159 0
M  V30 13734 C 1276.05 -1.73727 -0.0973872 0
M  V30 13735 O 1277.22 -2.01214 0.0865775 0
M  V30 13736 C 1274.29 -3.43356 0.480366 0
M  V30 13737 C 1273.35 -3.98835 1.58838 0
M  V30 13738 C 1272.58 -5.21183 1.14907 0
M  V30 13739 O 1272.81 -5.70399 0.0114141 0
M  V30 13740 O 1271.74 -5.69423 1.95042 0
M  V30 13741 H 1275.57 -2.38799 1.8764 0
M  V30 13742 H 1273.15 -1.13299 0.973841 0
M  V30 13743 H 1275.03 -4.20763 0.231658 0
M  V30 13744 H 1273.71 -3.20884 -0.426041 0
M  V30 13745 H 1272.62 -3.22776 1.8912 0
M  V30 13746 H 1273.95 -4.25665 2.47123 0
M  V30 13747 N 1275.6 -0.99472 -1.22242 0
M  V30 13748 C 1276.56 -0.551619 -2.22463 0
M  V30 13749 C 1277.56 0.366498 -1.56568 0
M  V30 13750 O 1278.75 0.158204 -1.7348 0
M  V30 13751 C 1275.89 0.197416 -3.40328 0
M  V30 13752 H 1277.08 -1.43795 -2.63179 0
M  V30 13753 H 1274.63 -0.782121 -1.35324 0
M  V30 13754 H 1275.37 1.09965 -3.05087 0
M  V30 13755 H 1275.15 -0.461829 -3.89371 0
M  V30 13756 H 1276.64 0.495534 -4.1465 0
M  V30 13757 N 1277.08 1.37613 -0.768148 0
M  V30 13758 C 1278.33 1.99779 -0.330841 0
M  V30 13759 C 1278.65 1.60978 1.09162 0
M  V30 13760 O 1277.91 0.845778 1.7648 0
M  V30 13761 C 1278.21 3.54952 -0.417608 0
M  V30 13762 C 1277.87 4.13509 -1.7978 0
M  V30 13763 C 1276.54 4.29216 -2.17549 0
M  V30 13764 C 1278.89 4.45662 -2.7025 0
M  V30 13765 C 1276.22 4.74376 -3.45231 0
M  V30 13766 C 1278.57 4.92245 -3.97338 0
M  V30 13767 C 1277.23 5.06157 -4.35157 0
M  V30 13768 H 1276.5 0.731044 -0.121063 0
M  V30 13769 H 1279.15 1.64437 -0.98147 0
M  V30 13770 H 1277.45 3.90519 0.316567 0
M  V30 13771 H 1279.15 4.00954 -0.0606037 0
M  V30 13772 H 1275.74 4.01709 -1.49425 0
M  V30 13773 H 1279.92 4.33116 -2.42332 0
M  V30 13774 H 1275.18 4.83333 -3.74431 0
M  V30 13775 H 1279.35 5.16091 -4.67572 0
M  V30 13776 H 1276.98 5.4091 -5.34154 0
M  V30 13777 N 1278.56 0.518393 1.4883 0
M  V30 13778 C 1279.52 -0.23983 2.27942 0
M  V30 13779 C 1280.52 -0.878302 1.34694 0
M  V30 13780 O 1281.71 -0.740142 1.57694 0
M  V30 13781 C 1278.84 -1.34581 3.1321 0
M  V30 13782 H 1280.03 0.454599 2.96434 0
M  V30 13783 H 1277.59 0.273932 1.53881 0
M  V30 13784 H 1278.32 -2.07385 2.49323 0
M  V30 13785 H 1278.11 -0.893251 3.8179 0
M  V30 13786 H 1279.6 -1.87944 3.72917 0
M  V30 13787 N 1280.03 -1.55556 0.252993 0
M  V30 13788 C 1281.28 -2.00122 -0.363693 0
M  V30 13789 C 1281.64 -1.13821 -1.55121 0
M  V30 13790 O 1280.93 -0.195137 -1.90604 0
M  V30 13791 C 1281.12 -3.47925 -0.817484 0
M  V30 13792 C 1280.95 -4.48528 0.32452 0
M  V30 13793 C 1279.72 -4.98908 0.801175 0
M  V30 13794 C 1281.92 -5.01196 1.15358 0
M  V30 13795 N 1279.9 -5.83269 1.91495 0
M  V30 13796 C 1281.27 -5.82787 2.11563 0
M  V30 13797 C 1283.33 -4.83484 1.18945 0
M  V30 13798 C 1282.03 -6.48557 3.11073 0
M  V30 13799 C 1284.06 -5.50036 2.17288 0
M  V30 13800 C 1283.42 -6.31421 3.12229 0
M  V30 13801 H 1279.52 -0.775724 -0.0988716 0
M  V30 13802 H 1282.1 -1.91114 0.371964 0
M  V30 13803 H 1280.27 -3.57319 -1.52242 0
M  V30 13804 H 1282 -3.79357 -1.40963 0
M  V30 13805 H 1278.76 -4.72039 0.384265 0
M  V30 13806 H 1279.18 -6.30145 2.47479 0
M  V30 13807 H 1283.83 -4.20187 0.469296 0
M  V30 13808 H 1281.54 -7.11016 3.84034 0
M  V30 13809 H 1285.13 -5.38283 2.20777 0
M  V30 13810 H 1284.01 -6.82009 3.87083 0
M  V30 13811 N 1281.51 0.0200419 -1.57587 0
M  V30 13812 C 1282.76 0.704552 -1.90808 0
M  V30 13813 C 1283.11 1.72479 -0.852568 0
M  V30 13814 O 1282.41 1.91105 0.137682 0
M  V30 13815 C 1282.6 1.40729 -3.28527 0
M  V30 13816 C 1282.43 0.456634 -4.47376 0
M  V30 13817 C 1281.2 0.0743638 -5.05245 0
M  V30 13818 C 1283.4 -0.268767 -5.13597 0
M  V30 13819 N 1281.38 -0.876606 -6.07609 0
M  V30 13820 C 1282.75 -1.07509 -6.10608 0
M  V30 13821 C 1284.81 -0.334748 -4.96773 0
M  V30 13822 C 1283.51 -1.94135 -6.92607 0
M  V30 13823 C 1285.53 -1.18816 -5.79342 0
M  V30 13824 C 1284.9 -1.98238 -6.7593 0
M  V30 13825 H 1281 0.231633 -0.746907 0
M  V30 13826 H 1283.58 -0.0355944 -1.94667 0
M  V30 13827 H 1281.75 2.11785 -3.25579 0
M  V30 13828 H 1283.48 2.04491 -3.49236 0
M  V30 13829 H 1280.24 0.43848 -4.71566 0
M  V30 13830 H 1280.66 -1.34687 -6.63467 0
M  V30 13831 H 1285.3 0.264995 -4.21969 0
M  V30 13832 H 1283.02 -2.55185 -7.6675 0
M  V30 13833 H 1286.61 -1.24286 -5.6837 0
M  V30 13834 H 1285.49 -2.63208 -7.38709 0
M  V30 13835 N 1282.99 1.54862 0.292472 0
M  V30 13836 C 1284.4 1.65459 0.864891 0
M  V30 13837 C 1284.75 0.568808 1.87774 0
M  V30 13838 O 1283.88 -0.293107 2.14406 0
M  V30 13839 C 1284.47 2.99939 1.5755 0
M  V30 13840 C 1283.03 3.12628 2.09621 0
M  V30 13841 C 1282.18 2.61179 0.931713 0
M  V30 13842 H 1285.13 1.58549 0.0692679 0
M  V30 13843 H 1285.15 2.91839 2.44152 0
M  V30 13844 H 1284.66 3.78943 0.838088 0
M  V30 13845 H 1282.76 2.3836 2.86383 0
M  V30 13846 H 1282.88 4.18911 2.32488 0
M  V30 13847 H 1281.24 2.17846 1.31967 0
M  V30 13848 H 1282.02 3.42669 0.208121 0
M  V30 13849 N 1284.47 -0.556076 1.47464 0
M  V30 13850 C 1285.75 -1.31689 1.44628 0
M  V30 13851 C 1286.13 -2.10609 0.143841 0
M  V30 13852 O 1285.47 -2.11097 -0.874662 0
M  V30 13853 C 1285.68 -2.22045 2.69253 0
M  V30 13854 C 1287.03 -2.83028 3.16513 0
M  V30 13855 O 1288.06 -2.32346 2.69988 0
M  V30 13856 O 1286.91 -3.75148 3.97399 0
M  V30 13857 H 1284.01 -0.593026 0.576411 0
M  V30 13858 H 1286.55 -0.574885 1.59666 0
M  V30 13859 H 1285.33 -1.63337 3.5558 0
M  V30 13860 H 1284.95 -3.03539 2.56807 0
M  V30 13861 N 1285.95 -1.35615 -0.802897 0
M  V30 13862 C 1286.88 -1.31506 -1.92947 0
M  V30 13863 C 1287.86 -0.188843 -1.69048 0
M  V30 13864 O 1289.04 -0.384384 -1.90358 0
M  V30 13865 C 1286.17 -1.09001 -3.29752 0
M  V30 13866 C 1285.13 -2.18303 -3.68141 0
M  V30 13867 C 1284.45 -1.80959 -5.03148 0
M  V30 13868 C 1285.75 -3.60296 -3.78132 0
M  V30 13869 H 1287.45 -2.25771 -1.96642 0
M  V30 13870 H 1284.99 -1.08682 -0.944685 0
M  V30 13871 H 1286.95 -1.04766 -4.08169 0
M  V30 13872 H 1285.67 -0.111832 -3.26408 0
M  V30 13873 H 1284.33 -2.21642 -2.92011 0
M  V30 13874 H 1283.98 -0.817495 -4.96312 0
M  V30 13875 H 1283.68 -2.54129 -5.29804 0
M  V30 13876 H 1285.2 -1.78255 -5.84001 0
M  V30 13877 H 1286.62 -3.59259 -4.46773 0
M  V30 13878 H 1285.01 -4.32258 -4.16261 0
M  V30 13879 H 1286.08 -3.9618 -2.79588 0
M  V30 13880 N 1287.43 1.02549 -1.19673 0
M  V30 13881 C 1288.36 2.12794 -0.961289 0
M  V30 13882 C 1289.34 1.69766 0.106575 0
M  V30 13883 O 1290.52 1.94138 -0.0491358 0
M  V30 13884 C 1287.65 3.4364 -0.502868 0
M  V30 13885 C 1286.61 4.00367 -1.51296 0
M  V30 13886 C 1285.93 5.26874 -0.911491 0
M  V30 13887 C 1287.23 4.34782 -2.89416 0
M  V30 13888 H 1288.93 2.32748 -1.88331 0
M  V30 13889 H 1286.47 1.11852 -0.906922 0
M  V30 13890 H 1288.42 4.20141 -0.325436 0
M  V30 13891 H 1287.15 3.23418 0.454764 0
M  V30 13892 H 1285.81 3.25964 -1.67759 0
M  V30 13893 H 1285.46 5.02971 0.0537982 0
M  V30 13894 H 1285.16 5.65791 -1.58602 0
M  V30 13895 H 1286.68 6.06039 -0.74493 0
M  V30 13896 H 1288.09 5.02207 -2.76516 0
M  V30 13897 H 1286.49 4.8479 -3.53693 0
M  V30 13898 H 1287.56 3.43935 -3.41814 0
M  V30 13899 N 1288.9 1.00119 1.21713 0
M  V30 13900 C 1289.87 0.563409 2.22167 0
M  V30 13901 C 1290.87 -0.35819 1.5676 0
M  V30 13902 O 1292.06 -0.149001 1.73562 0
M  V30 13903 C 1289.19 -0.179365 3.40428 0
M  V30 13904 H 1290.38 1.45189 2.62412 0
M  V30 13905 H 1287.93 0.789286 1.34907 0
M  V30 13906 H 1288.67 -1.08345 3.05666 0
M  V30 13907 H 1288.45 0.482471 3.8912 0
M  V30 13908 H 1289.94 -0.473537 4.14906 0
M  V30 13909 N 1290.38 -1.37203 0.775435 0
M  V30 13910 C 1291.29 -2.34019 0.165062 0
M  V30 13911 C 1292.31 -1.6036 -0.675316 0
M  V30 13912 O 1293.48 -1.9243 -0.594375 0
M  V30 13913 C 1290.55 -3.3954 -0.700957 0
M  V30 13914 C 1289.61 -4.29015 0.156304 0
M  V30 13915 C 1288.84 -5.29497 -0.668476 0
M  V30 13916 O 1289.07 -5.37636 -1.90535 0
M  V30 13917 O 1288 -6.01852 -0.0757351 0
M  V30 13918 H 1291.83 -2.87955 0.965184 0
M  V30 13919 H 1289.41 -1.39429 0.536654 0
M  V30 13920 H 1291.29 -4.04094 -1.19524 0
M  V30 13921 H 1289.97 -2.87926 -1.4792 0
M  V30 13922 H 1288.87 -3.67549 0.69703 0
M  V30 13923 H 1290.21 -4.83944 0.897725 0
M  V30 13924 N 1291.86 -0.526279 -1.48553 0
M  V30 13925 C 1292.81 0.258285 -2.26532 0
M  V30 13926 C 1293.79 0.913187 -1.32475 0
M  V30 13927 O 1294.99 0.816606 -1.57037 0
M  V30 13928 C 1292.11 1.30686 -3.17452 0
M  V30 13929 C 1291.2 0.656933 -4.18981 0
M  V30 13930 N 1291.59 -0.255186 -5.05156 0
M  V30 13931 C 1289.89 0.914575 -4.36522 0
M  V30 13932 C 1290.59 -0.629753 -5.78281 0
M  V30 13933 N 1289.57 0.00829904 -5.43599 0
M  V30 13934 H 1293.37 -0.44348 -2.90535 0
M  V30 13935 H 1290.88 -0.344054 -1.58714 0
M  V30 13936 H 1292.88 1.8826 -3.71973 0
M  V30 13937 H 1291.54 2.01004 -2.55005 0
M  V30 13938 H 1292.55 -0.627564 -5.14084 0
M  V30 13939 H 1289.23 1.6086 -3.85266 0
M  V30 13940 H 1290.62 -1.37746 -6.57629 0
M  V30 13941 N 1293.34 1.5542 -0.261239 0
M  V30 13942 C 1294.3 2.20683 0.619011 0
M  V30 13943 C 1295.3 1.18042 1.09192 0
M  V30 13944 O 1296.49 1.43035 0.99432 0
M  V30 13945 C 1293.62 2.86179 1.85242 0
M  V30 13946 H 1294.82 2.99859 0.0493924 0
M  V30 13947 H 1292.37 1.56296 -0.0117687 0
M  V30 13948 H 1293.1 2.10978 2.4629 0
M  V30 13949 H 1292.89 3.61381 1.52138 0
M  V30 13950 H 1294.38 3.36081 2.47869 0
M  V30 13951 N 1294.82 -0.0116844 1.57596 0
M  V30 13952 C 1295.73 -1.02342 2.111 0
M  V30 13953 C 1296.74 -1.38478 1.05355 0
M  V30 13954 O 1297.92 -1.47447 1.37191 0
M  V30 13955 C 1294.98 -2.30016 2.5941 0
M  V30 13956 C 1294.04 -2.003 3.79708 0
M  V30 13957 C 1293.28 -3.21888 4.25704 0
M  V30 13958 O 1293.5 -4.33171 3.71106 0
M  V30 13959 O 1292.43 -3.0657 5.17975 0
M  V30 13960 H 1296.26 -0.598637 2.97742 0
M  V30 13961 H 1293.84 -0.229779 1.47622 0
M  V30 13962 H 1295.73 -3.05044 2.90733 0
M  V30 13963 H 1294.4 -2.71755 1.75871 0
M  V30 13964 H 1293.31 -1.22785 3.53376 0
M  V30 13965 H 1294.64 -1.63406 4.64284 0
M  V30 13966 N 1296.29 -1.55015 -0.284256 0
M  V30 13967 C 1297.24 -1.87122 -1.35107 0
M  V30 13968 C 1298.21 -0.721638 -1.49605 0
M  V30 13969 O 1299.4 -0.971855 -1.64194 0
M  V30 13970 C 1296.54 -2.1388 -2.70831 0
M  V30 13971 C 1295.65 -3.41447 -2.64647 0
M  V30 13972 C 1294.78 -3.57961 -3.92476 0
M  V30 13973 C 1293.82 -4.79261 -3.80757 0
M  V30 13974 N 1292.96 -4.92492 -5.00395 0
M  V30 13975 H 1297.8 -2.78117 -1.07027 0
M  V30 13976 H 1295.34 -1.37704 -0.517311 0
M  V30 13977 H 1297.29 -2.27391 -3.49784 0
M  V30 13978 H 1295.92 -1.26132 -2.97137 0
M  V30 13979 H 1294.98 -3.36467 -1.77466 0
M  V30 13980 H 1296.29 -4.3053 -2.51884 0
M  V30 13981 H 1295.44 -3.71229 -4.79868 0
M  V30 13982 H 1294.18 -2.67042 -4.08093 0
M  V30 13983 H 1293.19 -4.66008 -2.91747 0
M  V30 13984 H 1294.41 -5.71604 -3.66669 0
M  V30 13985 H 1292.36 -4.04501 -5.16445 0
M  V30 13986 H 1292.27 -5.75603 -4.9012 0
M  V30 13987 H 1293.54 -5.10134 -5.89392 0
M  V30 13988 N 1297.77 0.548248 -1.47757 0
M  V30 13989 C 1299.02 1.30501 -1.54841 0
M  V30 13990 C 1299.35 1.93314 -0.214476 0
M  V30 13991 O 1298.6 1.7889 0.793526 0
M  V30 13992 C 1298.9 2.42911 -2.62162 0
M  V30 13993 C 1298.57 1.97871 -4.05164 0
M  V30 13994 C 1297.23 1.85304 -4.4409 0
M  V30 13995 C 1299.58 1.63606 -4.94856 0
M  V30 13996 C 1296.91 1.36781 -5.70533 0
M  V30 13997 C 1299.26 1.16552 -6.2177 0
M  V30 13998 C 1297.92 1.02588 -6.5957 0
M  V30 13999 H 1297.19 0.477536 -0.566604 0
M  V30 14000 H 1299.84 0.613837 -1.81395 0
M  V30 14001 H 1298.15 3.17622 -2.29398 0
M  V30 14002 H 1299.84 3.01078 -2.64864 0
M  V30 14003 H 1296.43 2.08597 -3.74413 0
M  V30 14004 H 1300.62 1.72184 -4.65474 0
M  V30 14005 H 1295.87 1.24641 -5.9856 0
M  V30 14006 H 1300.05 0.891041 -6.90676 0
M  V30 14007 H 1297.67 0.647675 -7.57436 0
M  V30 14008 N 1299.25 1.36039 0.795694 0
M  V30 14009 C 1300.5 1.3112 1.55497 0
M  V30 14010 C 1300.85 -0.110471 1.92083 0
M  V30 14011 O 1300.14 -1.06352 1.59373 0
M  V30 14012 C 1300.34 2.16166 2.84617 0
M  V30 14013 C 1300.17 3.66459 2.60649 0
M  V30 14014 C 1298.94 4.35658 2.55989 0
M  V30 14015 C 1301.13 4.59866 2.30277 0
M  V30 14016 N 1299.12 5.71632 2.23852 0
M  V30 14017 C 1300.49 5.84042 2.08074 0
M  V30 14018 C 1302.54 4.48496 2.16231 0
M  V30 14019 C 1301.25 6.98125 1.73246 0
M  V30 14020 C 1303.27 5.62439 1.82801 0
M  V30 14021 C 1302.63 6.8565 1.61441 0
M  V30 14022 H 1298.73 0.53507 0.570284 0
M  V30 14023 H 1301.32 1.71029 0.930441 0
M  V30 14024 H 1299.49 1.78511 3.44947 0
M  V30 14025 H 1301.22 2.02684 3.50288 0
M  V30 14026 H 1297.97 3.8839 2.71017 0
M  V30 14027 H 1298.4 6.43428 2.10547 0
M  V30 14028 H 1303.04 3.53831 2.31437 0
M  V30 14029 H 1300.76 7.92746 1.56777 0
M  V30 14030 H 1304.34 5.556 1.72626 0
M  V30 14031 H 1303.22 7.72325 1.35953 0
M  V30 14032 N 1300.73 -1.01913 1.20215 0
M  V30 14033 C 1301.69 -2.08563 0.950481 0
M  V30 14034 C 1302.69 -1.60634 -0.0729659 0
M  V30 14035 O 1303.88 -1.73437 0.162826 0
M  V30 14036 C 1301.01 -3.38171 0.430453 0
M  V30 14037 H 1302.21 -2.32323 1.89647 0
M  V30 14038 H 1299.76 -1.18674 1.01716 0
M  V30 14039 H 1300.49 -3.20086 -0.521126 0
M  V30 14040 H 1300.28 -3.74284 1.1685 0
M  V30 14041 H 1301.77 -4.16702 0.273781 0
M  V30 14042 N 1302.21 -1.00763 -1.2118 0
M  V30 14043 C 1303.14 -0.590493 -2.2591 0
M  V30 14044 C 1304.12 0.390002 -1.65569 0
M  V30 14045 O 1305.3 0.277406 -1.92208 0
M  V30 14046 C 1302.43 0.0810388 -3.47205 0
M  V30 14047 C 1301.39 -0.81951 -4.20081 0
M  V30 14048 C 1300.71 -0.014244 -5.34698 0
M  V30 14049 C 1302.01 -2.12336 -4.7719 0
M  V30 14050 H 1303.71 -1.46595 -2.61056 0
M  V30 14051 H 1301.25 -0.706321 -1.25487 0
M  V30 14052 H 1303.21 0.384355 -4.19644 0
M  V30 14053 H 1301.93 0.991145 -3.11197 0
M  V30 14054 H 1300.59 -1.10669 -3.49497 0
M  V30 14055 H 1300.24 0.897233 -4.94933 0
M  V30 14056 H 1299.94 -0.613883 -5.84384 0
M  V30 14057 H 1301.46 0.282827 -6.09945 0
M  V30 14058 H 1302.87 -1.88301 -5.41494 0
M  V30 14059 H 1301.27 -2.67308 -5.37277 0
M  V30 14060 H 1302.34 -2.79238 -3.96427 0
M  V30 14061 N 1303.68 1.3679 -0.7827 0
M  V30 14062 C 1304.93 1.99417 -0.352011 0
M  V30 14063 C 1305.26 1.62127 1.07448 0
M  V30 14064 O 1304.51 0.864449 1.75573 0
M  V30 14065 C 1304.81 3.54489 -0.455232 0
M  V30 14066 C 1304.48 4.11579 -1.84156 0
M  V30 14067 C 1303.14 4.26884 -2.22089 0
M  V30 14068 C 1305.49 4.4277 -2.74962 0
M  V30 14069 C 1302.82 4.70688 -3.50243 0
M  V30 14070 C 1305.17 4.88003 -4.02537 0
M  V30 14071 C 1303.84 5.01513 -4.40501 0
M  V30 14072 H 1303.11 0.729718 -0.12881 0
M  V30 14073 H 1305.75 1.63386 -0.998856 0
M  V30 14074 H 1304.06 3.90833 0.275129 0
M  V30 14075 H 1305.76 4.00867 -0.103127 0
M  V30 14076 H 1302.35 4.00102 -1.53677 0
M  V30 14077 H 1306.53 4.30521 -2.46912 0
M  V30 14078 H 1301.79 4.79335 -3.79537 0
M  V30 14079 H 1305.96 5.11102 -4.73019 0
M  V30 14080 H 1303.59 5.35214 -5.39861 0
M  V30 14081 N 1305.16 0.53415 1.48272 0
M  V30 14082 C 1306.39 0.00574475 2.06899 0
M  V30 14083 C 1306.81 -1.27754 1.39012 0
M  V30 14084 O 1306.16 -1.76102 0.478993 0
M  V30 14085 C 1306.21 -0.217576 3.60845 0
M  V30 14086 O 1305.93 1.01487 4.26183 0
M  V30 14087 C 1307.44 -0.785888 4.36278 0
M  V30 14088 H 1304.66 0.0353967 0.670066 0
M  V30 14089 H 1307.2 0.740984 1.90603 0
M  V30 14090 H 1305.35 -0.902875 3.76732 0
M  V30 14091 H 1305.77 0.7982 5.18391 0
M  V30 14092 H 1307.24 -0.891551 5.44753 0
M  V30 14093 H 1307.72 -1.79178 4.00989 0
M  V30 14094 H 1308.33 -0.137022 4.25079 0
M  V30 14095 N 1306.64 -1.55279 0.269478 0
M  V30 14096 C 1307.89 -1.99767 -0.34943 0
M  V30 14097 C 1308.22 -1.15762 -1.55926 0
M  V30 14098 O 1307.49 -0.22633 -1.93179 0
M  V30 14099 C 1307.78 -3.52474 -0.73716 0
M  V30 14100 C 1307.63 -4.47236 0.479621 0
M  V30 14101 C 1308.95 -4.10924 -1.57573 0
M  V30 14102 H 1306.07 -0.72623 -0.125535 0
M  V30 14103 H 1308.71 -1.86257 0.375298 0
M  V30 14104 H 1306.86 -3.64118 -1.35464 0
M  V30 14105 H 1308.53 -4.47543 1.11816 0
M  V30 14106 H 1306.78 -4.19127 1.11871 0
M  V30 14107 H 1307.45 -5.51754 0.164653 0
M  V30 14108 H 1309.92 -4.02522 -1.05429 0
M  V30 14109 H 1308.8 -5.17995 -1.81584 0
M  V30 14110 H 1309.06 -3.60798 -2.55495 0
M  V30 14111 N 1308.12 0.00332656 -1.576 0
M  V30 14112 C 1309.4 0.725722 -1.81639 0
M  V30 14113 C 1309.78 1.92173 -0.87365 0
M  V30 14114 O 1309.12 2.28365 0.0783931 0
M  V30 14115 C 1309.33 1.13458 -3.30043 0
M  V30 14116 C 1310.68 1.53982 -3.95695 0
M  V30 14117 O 1311.71 1.22846 -3.34346 0
M  V30 14118 O 1310.56 2.11866 -5.03761 0
M  V30 14119 H 1307.66 0.353083 -0.747838 0
M  V30 14120 H 1310.2 -0.0218724 -1.69686 0
M  V30 14121 H 1308.98 0.281925 -3.90283 0
M  V30 14122 H 1308.6 1.94138 -3.46982 0
M  V30 14123 N 1309.6 1.55164 0.276031 0
M  V30 14124 C 1310.53 1.82758 1.36656 0
M  V30 14125 C 1311.51 0.680405 1.4768 0
M  V30 14126 O 1312.69 0.923078 1.64352 0
M  V30 14127 C 1309.82 1.98651 2.74328 0
M  V30 14128 C 1308.86 3.21192 2.80603 0
M  V30 14129 S 1309.7 4.78628 2.40156 0
M  V30 14130 C 1310.85 4.9749 3.79809 0
M  V30 14131 H 1311.09 2.74969 1.13045 0
M  V30 14132 H 1308.62 1.46896 0.4755 0
M  V30 14133 H 1310.58 2.08492 3.53612 0
M  V30 14134 H 1309.24 1.07333 2.95192 0
M  V30 14135 H 1308.43 3.29189 3.81642 0
M  V30 14136 H 1308.03 3.09926 2.09337 0
M  V30 14137 H 1310.33 4.83045 4.75051 0
M  V30 14138 H 1311.27 5.99544 3.76765 0
M  V30 14139 H 1311.68 4.25489 3.70971 0
M  V30 14140 N 1311.07 -0.540404 1.48045 0
M  V30 14141 C 1312.35 -1.30148 1.46017 0
M  V30 14142 C 1312.73 -2.10445 0.166171 0
M  V30 14143 O 1312.08 -2.12013 -0.852223 0
M  V30 14144 C 1312.29 -2.19177 2.71593 0
M  V30 14145 C 1313.64 -2.79655 3.19497 0
M  V30 14146 O 1314.66 -2.2947 2.72437 0
M  V30 14147 O 1313.52 -3.70912 4.01356 0
M  V30 14148 H 1310.61 -0.586879 0.582668 0
M  V30 14149 H 1313.16 -0.557918 1.60267 0
M  V30 14150 H 1311.93 -1.59556 3.57292 0
M  V30 14151 H 1311.56 -3.00798 2.60012 0
M  V30 14152 N 1312.55 -1.36459 -0.788468 0
M  V30 14153 C 1313.78 -1.33898 -1.57731 0
M  V30 14154 C 1314.2 0.0795471 -1.88632 0
M  V30 14155 O 1313.55 1.03671 -1.50195 0
M  V30 14156 C 1313.6 -2.16134 -2.89773 0
M  V30 14157 O 1313.32 -3.52457 -2.60203 0
M  V30 14158 C 1314.83 -2.21364 -3.84074 0
M  V30 14159 H 1312.05 -0.459269 -0.489197 0
M  V30 14160 H 1314.59 -1.79569 -0.978526 0
M  V30 14161 H 1312.74 -1.74015 -3.46118 0
M  V30 14162 H 1313.16 -3.95378 -3.4464 0
M  V30 14163 H 1314.63 -2.83261 -4.7378 0
M  V30 14164 H 1315.11 -1.21736 -4.21992 0
M  V30 14165 H 1315.72 -2.63723 -3.33662 0
M  V30 14166 N 1314.03 1.01274 -1.20754 0
M  V30 14167 C 1314.99 2.08056 -0.961528 0
M  V30 14168 C 1315.99 1.60671 0.0644461 0
M  V30 14169 O 1317.18 1.73349 -0.172022 0
M  V30 14170 C 1314.32 3.37938 -0.448381 0
M  V30 14171 H 1315.51 2.31314 -1.90877 0
M  V30 14172 H 1313.06 1.18133 -1.02344 0
M  V30 14173 H 1313.8 3.20357 0.504144 0
M  V30 14174 H 1313.58 3.73659 -1.18833 0
M  V30 14175 H 1315.07 4.16551 -0.295876 0
M  V30 14176 N 1315.51 1.01404 1.20644 0
M  V30 14177 C 1316.44 0.602465 2.25594 0
M  V30 14178 C 1317.42 -0.381216 1.65773 0
M  V30 14179 O 1318.61 -0.267209 1.92353 0
M  V30 14180 C 1315.74 -0.0626245 3.47244 0
M  V30 14181 C 1314.69 0.841776 4.1964 0
M  V30 14182 C 1314.02 0.0426002 5.34683 0
M  V30 14183 C 1315.32 2.14864 4.76058 0
M  V30 14184 H 1317.01 1.47977 2.60275 0
M  V30 14185 H 1314.56 0.712966 1.25111 0
M  V30 14186 H 1316.51 -0.362095 4.19841 0
M  V30 14187 H 1315.23 -0.974627 3.11719 0
M  V30 14188 H 1313.89 1.12521 3.48905 0
M  V30 14189 H 1313.54 -0.870973 4.95402 0
M  V30 14190 H 1313.24 0.644866 5.84051 0
M  V30 14191 H 1314.76 -0.250476 6.10086 0
M  V30 14192 H 1316.18 1.9117 5.40488 0
M  V30 14193 H 1314.57 2.70153 5.35852 0
M  V30 14194 H 1315.64 2.81336 3.9494 0
M  V30 14195 N 1316.99 -1.36373 0.789944 0
M  V30 14196 C 1317.9 -2.3383 0.189873 0
M  V30 14197 C 1318.91 -1.61068 -0.65827 0
M  V30 14198 O 1320.09 -1.93049 -0.573932 0
M  V30 14199 C 1317.15 -3.40264 -0.664905 0
M  V30 14200 C 1316.22 -4.28825 0.201798 0
M  V30 14201 C 1315.45 -5.30176 -0.612278 0
M  V30 14202 O 1315.67 -5.39627 -1.84821 0
M  V30 14203 O 1314.61 -6.01899 -0.0118964 0
M  V30 14204 H 1318.43 -2.86915 0.995671 0
M  V30 14205 H 1316.02 -1.38852 0.551412 0
M  V30 14206 H 1317.9 -4.05339 -1.15231 0
M  V30 14207 H 1316.57 -2.89478 -1.44858 0
M  V30 14208 H 1315.48 -3.66789 0.735974 0
M  V30 14209 H 1316.81 -4.82965 0.949003 0
M  V30 14210 N 1318.47 -0.542005 -1.47987 0
M  V30 14211 C 1319.43 0.203537 -2.28294 0
M  V30 14212 C 1320.43 0.856762 -1.36074 0
M  V30 14213 O 1321.62 0.71496 -1.58852 0
M  V30 14214 C 1318.75 1.29581 -3.15312 0
M  V30 14215 H 1319.94 -0.501701 -2.95674 0
M  V30 14216 H 1317.5 -0.298378 -1.53426 0
M  V30 14217 H 1318.23 2.03393 -2.5259 0
M  V30 14218 H 1318.02 0.832398 -3.83163 0
M  V30 14219 H 1319.51 1.81988 -3.75859 0
M  V30 14220 N 1319.94 1.55134 -0.277709 0
M  V30 14221 C 1320.88 2.20028 0.641913 0
M  V30 14222 C 1321.89 1.18578 1.11549 0
M  V30 14223 O 1323.08 1.45291 1.03695 0
M  V30 14224 C 1320.18 2.81443 1.88794 0
M  V30 14225 C 1319.35 4.08607 1.56074 0
M  V30 14226 C 1318.41 4.54045 2.6595 0
M  V30 14227 O 1317.44 5.19762 2.32026 0
M  V30 14228 N 1318.64 4.24403 3.96058 0
M  V30 14229 H 1321.4 2.99575 0.0864929 0
M  V30 14230 H 1318.96 1.61598 -0.0989178 0
M  V30 14231 H 1320.96 3.08784 2.616 0
M  V30 14232 H 1319.53 2.05873 2.35234 0
M  V30 14233 H 1318.75 3.88527 0.666388 0
M  V30 14234 H 1320.03 4.91455 1.31719 0
M  V30 14235 H 1319.43 3.71708 4.26439 0
M  V30 14236 H 1317.99 4.56509 4.65234 0
M  V30 14237 N 1321.42 0.00503138 1.57599 0
M  V30 14238 C 1322.83 -0.537106 1.78807 0
M  V30 14239 C 1323.18 -1.73666 0.912945 0
M  V30 14240 O 1322.31 -2.16085 0.116775 0
M  V30 14241 C 1322.9 -0.98116 3.24282 0
M  V30 14242 C 1321.46 -1.46857 3.46569 0
M  V30 14243 C 1320.61 -0.422088 2.74069 0
M  V30 14244 H 1323.56 0.231182 1.57007 0
M  V30 14245 H 1323.58 -1.8469 3.32671 0
M  V30 14246 H 1323.09 -0.107907 3.8795 0
M  V30 14247 H 1321.19 -2.36255 2.88122 0
M  V30 14248 H 1321.31 -1.49256 4.55258 0
M  V30 14249 H 1319.67 -0.884853 2.38836 0
M  V30 14250 H 1320.45 0.442285 3.40439 0
M  V30 14251 N 1322.9 -1.55308 -0.267798 0
M  V30 14252 C 1323.83 -1.84963 -1.35356 0
M  V30 14253 C 1324.84 -0.73446 -1.45291 0
M  V30 14254 O 1326.03 -1.01237 -1.47015 0
M  V30 14255 C 1323.13 -2.00221 -2.73432 0
M  V30 14256 C 1322.31 -3.30922 -2.86024 0
M  V30 14257 C 1321.37 -3.3618 -4.04808 0
M  V30 14258 O 1320.39 -4.09525 -3.9532 0
M  V30 14259 N 1321.59 -2.63958 -5.17017 0
M  V30 14260 H 1324.36 -2.7868 -1.1026 0
M  V30 14261 H 1321.92 -1.55289 -0.457914 0
M  V30 14262 H 1323.91 -2.01103 -3.51197 0
M  V30 14263 H 1322.48 -1.13346 -2.91327 0
M  V30 14264 H 1321.7 -3.42534 -1.951 0
M  V30 14265 H 1322.99 -4.17109 -2.91371 0
M  V30 14266 H 1322.39 -2.04062 -5.27613 0
M  V30 14267 H 1320.94 -2.70558 -5.92994 0
M  V30 14268 N 1324.38 0.532545 -1.4833 0
M  V30 14269 C 1325.65 1.29371 -1.46705 0
M  V30 14270 C 1326.03 2.10354 -0.177329 0
M  V30 14271 O 1325.38 2.12462 0.840968 0
M  V30 14272 C 1325.59 2.17733 -2.72751 0
M  V30 14273 C 1326.94 2.77956 -3.20976 0
M  V30 14274 O 1327.96 2.28022 -2.7365 0
M  V30 14275 O 1326.82 3.68779 -4.03317 0
M  V30 14276 H 1323.92 0.58378 -0.585773 0
M  V30 14277 H 1326.46 0.549411 -1.6056 0
M  V30 14278 H 1325.24 1.57659 -3.58133 0
M  V30 14279 H 1324.86 2.99415 -2.61603 0
M  V30 14280 N 1325.86 1.36875 0.78122 0
M  V30 14281 C 1327.08 1.349 1.57533 0
M  V30 14282 C 1327.51 -0.0655249 1.87986 0
M  V30 14283 O 1326.86 -1.03986 1.48515 0
M  V30 14284 C 1326.91 2.18562 2.86815 0
M  V30 14285 O 1326.02 1.58374 3.80777 0
M  V30 14286 H 1325.36 0.461355 0.477543 0
M  V30 14287 H 1327.89 1.80271 0.96766 0
M  V30 14288 H 1327.9 2.31436 3.36008 0
M  V30 14289 H 1326.57 3.21385 2.63978 0
M  V30 14290 H 1325.15 1.54487 3.39394 0
M  V30 14291 N 1327.33 -1.00632 1.21289 0
M  V30 14292 C 1328.58 -1.74749 1.04089 0
M  V30 14293 C 1328.93 -1.8773 -0.421349 0
M  V30 14294 O 1328.23 -1.39958 -1.30852 0
M  V30 14295 C 1328.42 -3.1598 1.67007 0
M  V30 14296 C 1328.25 -3.1677 3.19197 0
M  V30 14297 C 1327.02 -3.23425 3.88233 0
M  V30 14298 C 1329.22 -3.01991 4.163 0
M  V30 14299 N 1327.2 -3.13827 5.27623 0
M  V30 14300 C 1328.57 -3.00276 5.42433 0
M  V30 14301 C 1330.63 -2.86284 4.07365 0
M  V30 14302 C 1329.33 -2.84463 6.60661 0
M  V30 14303 C 1331.36 -2.71827 5.25228 0
M  V30 14304 C 1330.72 -2.70787 6.50272 0
M  V30 14305 H 1326.82 -0.649702 0.435213 0
M  V30 14306 H 1329.4 -1.19617 1.53622 0
M  V30 14307 H 1327.57 -3.69384 1.20042 0
M  V30 14308 H 1329.3 -3.78584 1.43025 0
M  V30 14309 H 1326.06 -3.30566 3.3915 0
M  V30 14310 H 1326.48 -3.12374 6.00626 0
M  V30 14311 H 1331.12 -2.85894 3.11487 0
M  V30 14312 H 1328.84 -2.836 7.56701 0
M  V30 14313 H 1332.43 -2.60675 5.20134 0
M  V30 14314 H 1331.31 -2.59732 7.39938 0
M  V30 14315 N 1328.81 -1.02043 -1.20104 0
M  V30 14316 C 1330.09 -0.626922 -1.85281 0
M  V30 14317 C 1330.47 0.894819 -1.91197 0
M  V30 14318 O 1329.82 1.7881 -1.42265 0
M  V30 14319 C 1330.03 -1.27917 -3.24713 0
M  V30 14320 C 1331.37 -1.39704 -4.00959 0
M  V30 14321 O 1332.4 -1.23568 -3.3408 0
M  V30 14322 O 1331.26 -1.65814 -5.20738 0
M  V30 14323 H 1328.35 -0.216815 -0.798073 0
M  V30 14324 H 1330.9 -1.11804 -1.27663 0
M  V30 14325 H 1329.67 -2.3188 -3.15194 0
M  V30 14326 H 1329.29 -0.775371 -3.89966 0
M  V30 14327 N 1330.29 1.35952 -0.797165 0
M  V30 14328 C 1331.52 2.0381 -0.38421 0
M  V30 14329 C 1331.94 1.597 0.993854 0
M  V30 14330 O 1331.3 0.769148 1.64176 0
M  V30 14331 C 1331.35 3.57589 -0.465054 0
M  V30 14332 O 1330.45 4.09043 0.525095 0
M  V30 14333 H 1329.79 0.643957 -0.161912 0
M  V30 14334 H 1332.32 1.73746 -1.08043 0
M  V30 14335 H 1332.33 4.06651 -0.331448 0
M  V30 14336 H 1331.01 3.89045 -1.47027 0
M  V30 14337 H 1329.58 3.7123 0.352509 0
M  V30 14338 N 1331.77 0.549846 1.47697 0
M  V30 14339 C 1333.02 0.0230503 2.02487 0
M  V30 14340 C 1333.34 -1.32382 1.42497 0
M  V30 14341 O 1332.6 -1.87293 0.567441 0
M  V30 14342 C 1332.9 -0.127268 3.57173 0
M  V30 14343 C 1332.56 1.14777 4.36047 0
M  V30 14344 C 1331.23 1.49716 4.57317 0
M  V30 14345 C 1333.58 1.99302 4.81589 0
M  V30 14346 C 1330.91 2.69042 5.21376 0
M  V30 14347 C 1333.26 3.17824 5.46965 0
M  V30 14348 C 1331.92 3.53086 5.66469 0
M  V30 14349 H 1331.19 0.00843471 0.740952 0
M  V30 14350 H 1333.84 0.719876 1.77454 0
M  V30 14351 H 1332.14 -0.907008 3.81157 0
M  V30 14352 H 1333.84 -0.550103 3.97209 0
M  V30 14353 H 1330.43 0.865703 4.19766 0
M  V30 14354 H 1334.61 1.73618 4.64942 0
M  V30 14355 H 1329.87 2.9654 5.34672 0
M  V30 14356 H 1334.04 3.83612 5.81218 0
M  V30 14357 H 1331.67 4.45643 6.15878 0
M  V30 14358 N 1333.25 -1.54984 0.285932 0
M  V30 14359 C 1334.66 -1.85519 -0.209707 0
M  V30 14360 C 1335.01 -1.20794 -1.54606 0
M  V30 14361 O 1334.13 -0.500159 -2.10541 0
M  V30 14362 C 1334.73 -3.36579 -0.387283 0
M  V30 14363 C 1333.29 -3.67199 -0.827148 0
M  V30 14364 C 1332.43 -2.77203 0.073308 0
M  V30 14365 H 1335.39 -1.5037 0.507404 0
M  V30 14366 H 1335.41 -3.60269 -1.2242 0
M  V30 14367 H 1334.92 -3.83658 0.585493 0
M  V30 14368 H 1333.02 -3.25627 -1.81101 0
M  V30 14369 H 1333.13 -4.74574 -0.656976 0
M  V30 14370 H 1331.5 -2.50785 -0.444859 0
M  V30 14371 H 1332.28 -3.27099 1.04216 0
M  V30 14372 N 1334.72 -0.0133892 -1.57594 0
M  V30 14373 C 1335.65 0.972341 -2.12292 0
M  V30 14374 C 1336.64 1.34971 -1.03522 0
M  V30 14375 O 1337.82 1.4311 -1.31275 0
M  V30 14376 C 1334.95 2.25988 -2.63717 0
M  V30 14377 C 1333.9 2.02373 -3.77133 0
M  V30 14378 C 1333.23 3.37256 -4.14925 0
M  V30 14379 C 1334.53 1.37553 -5.03861 0
M  V30 14380 H 1336.22 0.516869 -2.94905 0
M  V30 14381 H 1333.77 0.247176 -1.41863 0
M  V30 14382 H 1335.72 2.95313 -3.00613 0
M  V30 14383 H 1334.45 2.73672 -1.78244 0
M  V30 14384 H 1333.11 1.3547 -3.40651 0
M  V30 14385 H 1332.75 3.82669 -3.26456 0
M  V30 14386 H 1332.45 3.22267 -4.91343 0
M  V30 14387 H 1333.98 4.07875 -4.5439 0
M  V30 14388 H 1335.39 1.96855 -5.38443 0
M  V30 14389 H 1333.79 1.33011 -5.85174 0
M  V30 14390 H 1334.86 0.346429 -4.83661 0
M  V30 14391 N 1336.2 1.55448 0.259558 0
M  V30 14392 C 1337.45 1.76686 0.98935 0
M  V30 14393 C 1337.78 0.575434 1.85793 0
M  V30 14394 O 1337.03 -0.441676 1.90651 0
M  V30 14395 C 1337.33 3.03292 1.89073 0
M  V30 14396 C 1337 4.35225 1.17855 0
M  V30 14397 C 1335.66 4.7108 0.981675 0
M  V30 14398 C 1338.01 5.16839 0.6728 0
M  V30 14399 C 1335.34 5.86094 0.266551 0
M  V30 14400 C 1337.69 6.32593 -0.0287965 0
M  V30 14401 C 1336.36 6.67078 -0.23726 0
M  V30 14402 H 1335.63 0.646542 0.362029 0
M  V30 14403 H 1338.27 1.8972 0.260488 0
M  V30 14404 H 1336.58 2.85217 2.68624 0
M  V30 14405 H 1338.27 3.16923 2.45685 0
M  V30 14406 H 1334.86 4.07051 1.34192 0
M  V30 14407 H 1339.05 4.89604 0.812481 0
M  V30 14408 H 1334.3 6.11327 0.0944447 0
M  V30 14409 H 1338.48 6.95081 -0.428378 0
M  V30 14410 H 1336.11 7.56049 -0.793358 0
M  V30 14411 N 1337.68 -0.524672 1.4861 0
M  V30 14412 C 1338.61 -1.64481 1.59621 0
M  V30 14413 C 1339.63 -1.55557 0.480181 0
M  V30 14414 O 1340.81 -1.61921 0.751254 0
M  V30 14415 C 1337.91 -3.03158 1.51487 0
M  V30 14416 C 1337.09 -3.37509 2.78221 0
M  V30 14417 C 1336.15 -4.5549 2.63467 0
M  V30 14418 O 1335.17 -4.58448 3.37364 0
M  V30 14419 N 1336.37 -5.53986 1.73437 0
M  V30 14420 H 1339.14 -1.5547 2.56221 0
M  V30 14421 H 1336.7 -0.712059 1.45401 0
M  V30 14422 H 1338.69 -3.79969 1.39305 0
M  V30 14423 H 1337.26 -3.06219 0.628406 0
M  V30 14424 H 1336.48 -2.49824 3.04929 0
M  V30 14425 H 1337.77 -3.57246 3.62288 0
M  V30 14426 H 1337.17 -5.54378 1.12612 0
M  V30 14427 H 1335.73 -6.29993 1.6719 0
M  V30 14428 N 1339.16 -1.37287 -0.77395 0
M  V30 14429 C 1340.09 -1.35569 -1.90114 0
M  V30 14430 C 1341.07 -0.224658 -1.6861 0
M  V30 14431 O 1342.25 -0.424676 -1.895 0
M  V30 14432 C 1339.38 -1.15971 -3.27365 0
M  V30 14433 C 1338.34 -2.26063 -3.63427 0
M  V30 14434 C 1337.66 -1.9159 -4.99197 0
M  V30 14435 C 1338.96 -3.68236 -3.70405 0
M  V30 14436 H 1340.66 -2.29891 -1.91808 0
M  V30 14437 H 1338.2 -1.10661 -0.92142 0
M  V30 14438 H 1340.16 -1.134 -4.05855 0
M  V30 14439 H 1338.88 -0.181043 -3.26098 0
M  V30 14440 H 1337.54 -2.27786 -2.87244 0
M  V30 14441 H 1337.19 -0.922586 -4.94467 0
M  V30 14442 H 1336.89 -2.65309 -5.24294 0
M  V30 14443 H 1338.41 -1.90602 -5.80089 0
M  V30 14444 H 1339.83 -3.68655 -4.39052 0
M  V30 14445 H 1338.22 -4.4099 -4.06999 0
M  V30 14446 H 1339.29 -4.02021 -2.71122 0
M  V30 14447 N 1340.64 0.999871 -1.21821 0
M  V30 14448 C 1341.57 2.10708 -1.00621 0
M  V30 14449 C 1342.55 1.69954 0.0705417 0
M  V30 14450 O 1343.73 1.9399 -0.0903042 0
M  V30 14451 C 1340.86 3.42496 -0.575646 0
M  V30 14452 C 1339.82 3.97068 -1.59754 0
M  V30 14453 C 1339.14 5.24822 -1.02304 0
M  V30 14454 C 1340.44 4.28545 -2.98574 0
M  V30 14455 H 1342.14 2.28701 -1.93226 0
M  V30 14456 H 1339.68 1.09903 -0.930443 0
M  V30 14457 H 1341.64 4.19357 -0.414481 0
M  V30 14458 H 1340.36 3.2431 0.386059 0
M  V30 14459 H 1339.02 3.22332 -1.74636 0
M  V30 14460 H 1338.67 5.02972 -0.0529016 0
M  V30 14461 H 1338.37 5.62299 -1.70567 0
M  V30 14462 H 1339.89 6.04322 -0.873312 0
M  V30 14463 H 1341.3 4.96229 -2.87106 0
M  V30 14464 H 1339.7 4.77178 -3.63897 0
M  V30 14465 H 1340.77 3.36607 -3.49032 0
M  V30 14466 N 1342.11 1.02678 1.19562 0
M  V30 14467 C 1343.06 0.599259 2.24748 0
M  V30 14468 C 1344.06 -0.367079 1.65375 0
M  V30 14469 O 1345.26 -0.235887 1.78448 0
M  V30 14470 H 1341.64 0.175517 0.73123 0
M  V30 14471 H 1343.61 1.4971 2.58127 0
M  V30 14472 C 1342.36 -0.0362515 3.47681 0
M  V30 14473 H 1341.68 0.698343 3.93654 0
M  V30 14474 H 1343.12 -0.298361 4.22949 0
M  V30 14475 C 1341.58 -1.28218 3.11547 0
M  V30 14476 O 1342.11 -2.37446 3.24009 0
M  V30 14477 N 1340.32 -1.17014 2.66 0
M  V30 14478 H 1339.86 -0.28132 2.56059 0
M  V30 14479 H 1339.82 -2.00473 2.42194 0
M  V30 14480 N 1343.59 -1.35528 0.804364 0
M  V30 14481 C 1344.54 -2.31728 0.20125 0
M  V30 14482 C 1345.53 -1.56527 -0.647751 0
M  V30 14483 O 1346.74 -1.71672 -0.541163 0
M  V30 14484 H 1343.12 -0.750572 0.0463165 0
M  V30 14485 H 1345.09 -2.80142 1.02777 0
M  V30 14486 C 1343.84 -3.41807 -0.637429 0
M  V30 14487 H 1343.16 -3.99799 0.00651699 0
M  V30 14488 H 1344.6 -4.11403 -1.02585 0
M  V30 14489 C 1343.06 -2.84655 -1.80202 0
M  V30 14490 O 1343.59 -2.78026 -2.89939 0
M  V30 14491 N 1341.79 -2.41735 -1.61285 0
M  V30 14492 H 1341.34 -2.47327 -0.720231 0
M  V30 14493 H 1341.3 -2.03844 -2.39364 0
M  V30 14494 N 1345.07 -0.557671 -1.47404 0
M  V30 14495 C 1346.32 -0.0337884 -2.02472 0
M  V30 14496 C 1346.65 1.31624 -1.43197 0
M  V30 14497 O 1345.9 1.86989 -0.577366 0
M  V30 14498 C 1346.2 0.108324 -3.57236 0
M  V30 14499 C 1345.87 -1.17088 -4.35432 0
M  V30 14500 C 1344.53 -1.5214 -4.56516 0
M  V30 14501 C 1346.88 -2.01854 -4.80525 0
M  V30 14502 C 1344.21 -2.71803 -5.19942 0
M  V30 14503 C 1346.56 -3.2072 -5.45272 0
M  V30 14504 C 1345.22 -3.56085 -5.64588 0
M  V30 14505 H 1344.49 -0.012364 -0.740897 0
M  V30 14506 H 1347.14 -0.729276 -1.7707 0
M  V30 14507 H 1345.45 0.886781 -3.81633 0
M  V30 14508 H 1347.14 0.529031 -3.97495 0
M  V30 14509 H 1343.73 -0.887952 -4.19301 0
M  V30 14510 H 1347.92 -1.76081 -4.64014 0
M  V30 14511 H 1343.17 -2.99371 -5.33092 0
M  V30 14512 H 1347.35 -3.86689 -5.79176 0
M  V30 14513 H 1344.97 -4.48903 -6.13506 0
M  V30 14514 N 1346.55 1.54831 -0.294147 0
M  V30 14515 C 1347.48 2.26226 0.57827 0
M  V30 14516 C 1348.46 1.25928 1.14351 0
M  V30 14517 O 1349.65 1.54687 1.17412 0
M  V30 14518 C 1346.78 2.99783 1.75349 0
M  V30 14519 C 1345.73 4.07171 1.31892 0
M  V30 14520 C 1345.06 4.68406 2.57876 0
M  V30 14521 C 1346.36 5.20313 0.455167 0
M  V30 14522 H 1348.05 2.99395 -0.0171936 0
M  V30 14523 H 1345.6 1.43997 -0.00970944 0
M  V30 14524 H 1347.55 3.48448 2.36986 0
M  V30 14525 H 1346.27 2.24181 2.37509 0
M  V30 14526 H 1344.93 3.59346 0.725653 0
M  V30 14527 H 1344.58 3.89451 3.18335 0
M  V30 14528 H 1344.28 5.40927 2.29502 0
M  V30 14529 H 1345.8 5.1983 3.20327 0
M  V30 14530 H 1347.22 5.64913 0.977026 0
M  V30 14531 H 1345.61 5.99512 0.265501 0
M  V30 14532 H 1346.68 4.82088 -0.521434 0
M  V30 14533 N 1348.03 0.0217466 1.57585 0
M  V30 14534 C 1349.44 -0.334576 1.56054 0
M  V30 14535 C 1349.64 -1.73386 1.02663 0
M  V30 14536 O 1348.7 -2.43447 0.670078 0
M  V30 14537 C 1350.01 -0.189919 3.001 0
M  V30 14538 C 1351.56 -0.263238 3.11891 0
M  V30 14539 C 1352.04 -0.147455 4.57763 0
M  V30 14540 N 1353.53 -0.204672 4.62748 0
M  V30 14541 C 1354.26 -0.138755 5.73232 0
M  V30 14542 N 1353.76 -0.0221762 6.92796 0
M  V30 14543 N 1355.55 -0.192206 5.61771 0
M  V30 14544 H 1347.7 0.936849 1.90622 0
M  V30 14545 H 1349.96 0.361119 0.876526 0
M  V30 14546 H 1349.67 0.773687 3.43084 0
M  V30 14547 H 1349.54 -0.963148 3.64696 0
M  V30 14548 H 1351.93 -1.2173 2.68823 0
M  V30 14549 H 1352.01 0.540241 2.5003 0
M  V30 14550 H 1351.66 0.803155 5.0151 0
M  V30 14551 H 1351.59 -0.969703 5.17595 0
M  V30 14552 H 1354.08 -0.29522 3.76745 0
M  V30 14553 H 1354.39 0.021631 7.72797 0
M  V30 14554 H 1352.74 0.0125033 6.94999 0
M  V30 14555 H 1355.93 -0.28163 4.67252 0
M  V30 14556 H 1356.1 -0.137372 6.47854 0
M  V30 14557 N 1349.51 -1.55583 -0.251311 0
M  V30 14558 C 1350.45 -1.90764 -1.33086 0
M  V30 14559 C 1351.45 -0.786236 -1.50049 0
M  V30 14560 O 1352.65 -0.97081 -1.51576 0
M  V30 14561 H 1349.03 -0.605795 -0.445551 0
M  V30 14562 H 1351 -2.80903 -1.00678 0
M  V30 14563 C 1349.75 -2.21499 -2.68018 0
M  V30 14564 H 1349.07 -3.07287 -2.55763 0
M  V30 14565 H 1350.51 -2.50021 -3.42441 0
M  V30 14566 C 1348.97 -1.02983 -3.20774 0
M  V30 14567 O 1349.5 -0.275557 -4.00754 0
M  V30 14568 N 1347.71 -0.821649 -2.78742 0
M  V30 14569 H 1347.25 -1.43672 -2.13813 0
M  V30 14570 H 1347.21 -0.0303445 -3.14385 0
M  V30 14571 N 1350.98 0.516783 -1.48886 0
M  V30 14572 C 1352.26 1.27808 -1.48069 0
M  V30 14573 C 1352.64 2.10154 -0.19963 0
M  V30 14574 O 1351.99 2.13342 0.818386 0
M  V30 14575 C 1352.2 2.14828 -2.75045 0
M  V30 14576 C 1353.55 2.74536 -3.23906 0
M  V30 14577 O 1354.57 2.25107 -2.76053 0
M  V30 14578 O 1353.43 3.6448 -4.07206 0
M  V30 14579 H 1350.52 0.577535 -0.591931 0
M  V30 14580 H 1353.07 0.532351 -1.61134 0
M  V30 14581 H 1351.84 1.53852 -3.59785 0
M  V30 14582 H 1351.46 2.96624 -2.64764 0
M  V30 14583 N 1352.46 1.37696 0.766659 0
M  V30 14584 C 1353.69 1.3639 1.55581 0
M  V30 14585 C 1354.1 -0.0495272 1.88735 0
M  V30 14586 O 1353.46 -1.01268 1.51826 0
M  V30 14587 C 1353.51 2.20717 2.86298 0
M  V30 14588 O 1353.23 3.56552 2.54563 0
M  V30 14589 C 1354.73 2.27446 3.80504 0
M  V30 14590 H 1351.95 0.466993 0.481828 0
M  V30 14591 H 1354.5 1.81103 0.949834 0
M  V30 14592 H 1352.65 1.79499 3.43306 0
M  V30 14593 H 1353.07 4.00811 3.38306 0
M  V30 14594 H 1354.54 2.90762 4.69214 0
M  V30 14595 H 1355.02 1.28434 4.20002 0
M  V30 14596 H 1355.62 2.68998 3.29424 0
M  V30 14597 N 1353.94 -0.993397 1.22349 0
M  V30 14598 C 1354.87 -2.10171 1.01737 0
M  V30 14599 C 1355.85 -1.69989 -0.0615276 0
M  V30 14600 O 1357.04 -1.93939 0.100591 0
M  V30 14601 C 1354.17 -3.42186 0.593801 0
M  V30 14602 C 1353.12 -3.96215 1.61858 0
M  V30 14603 C 1352.45 -5.24272 1.05086 0
M  V30 14604 C 1353.75 -4.26956 3.00842 0
M  V30 14605 H 1355.44 -2.27673 1.94436 0
M  V30 14606 H 1352.99 -1.09408 0.936258 0
M  V30 14607 H 1354.94 -4.19131 0.436715 0
M  V30 14608 H 1353.66 -3.2451 -0.368855 0
M  V30 14609 H 1352.32 -3.21401 1.76343 0
M  V30 14610 H 1351.97 -5.02937 0.0795747 0
M  V30 14611 H 1351.67 -5.61387 1.73547 0
M  V30 14612 H 1353.19 -6.03851 0.905349 0
M  V30 14613 H 1354.61 -4.94699 2.89734 0
M  V30 14614 H 1353 -4.75242 3.66422 0
M  V30 14615 H 1354.07 -3.34752 3.50812 0
M  V30 14616 N 1355.42 -1.03311 -1.19015 0
M  V30 14617 C 1356.35 -0.638279 -2.24607 0
M  V30 14618 C 1357.33 0.354795 -1.66359 0
M  V30 14619 O 1358.51 0.236574 -1.92754 0
M  V30 14620 C 1355.64 0.00737316 -3.47299 0
M  V30 14621 C 1354.6 -0.908431 -4.18248 0
M  V30 14622 C 1353.92 -0.127658 -5.34548 0
M  V30 14623 C 1355.22 -2.2241 -4.72579 0
M  V30 14624 H 1356.92 -1.52099 -2.57888 0
M  V30 14625 H 1354.46 -0.732779 -1.23961 0
M  V30 14626 H 1356.42 0.295256 -4.20364 0
M  V30 14627 H 1355.14 0.924912 -3.1323 0
M  V30 14628 H 1353.8 -1.18058 -3.47071 0
M  V30 14629 H 1353.45 0.792048 -4.96725 0
M  V30 14630 H 1353.15 -0.737702 -5.82951 0
M  V30 14631 H 1354.67 0.153385 -6.10407 0
M  V30 14632 H 1356.09 -1.99745 -5.37378 0
M  V30 14633 H 1354.48 -2.78644 -5.31486 0
M  V30 14634 H 1355.55 -2.87584 -3.90415 0
M  V30 14635 N 1356.9 1.35099 -0.81154 0
M  V30 14636 C 1358.14 2.00449 -0.399935 0
M  V30 14637 C 1358.5 1.62971 1.0151 0
M  V30 14638 O 1359.7 2.21078 1.52898 0
M  V30 14639 C 1357.97 3.52608 -0.583277 0
M  V30 14640 S 1359.53 4.38012 -0.26283 0
M  V30 14641 H 1356.35 0.69464 -0.151644 0
M  V30 14642 H 1358.95 1.64599 -1.05487 0
M  V30 14643 H 1357.65 3.77372 -1.61303 0
M  V30 14644 H 1357.19 3.93304 0.0868032 0
M  V30 14645 H 1359.2 4.87451 0.927696 0
M  V30 14646 N 1358.37 0.56548 1.47106 0
M  V30 14647 C 1359.32 -0.190542 2.31818 0
M  V30 14648 C 1360.32 -0.901279 1.43434 0
M  V30 14649 O 1361.52 -0.821625 1.60154 0
M  V30 14650 H 1357.9 -0.0803183 0.747698 0
M  V30 14651 H 1359.87 0.542999 2.93418 0
M  V30 14652 C 1358.62 -1.20208 3.2626 0
M  V30 14653 H 1357.94 -0.664608 3.94237 0
M  V30 14654 H 1359.38 -1.7018 3.88349 0
M  V30 14655 C 1357.84 -2.25423 2.50372 0
M  V30 14656 O 1358.37 -3.3249 2.25418 0
M  V30 14657 N 1356.57 -1.9957 2.11235 0
M  V30 14658 H 1356.12 -1.12513 2.31729 0
M  V30 14659 H 1356.08 -2.70182 1.60777 0
M  V30 14660 N 1359.85 -1.54672 0.302354 0
M  V30 14661 C 1361.1 -1.99771 -0.305919 0
M  V30 14662 C 1361.42 -1.19225 -1.54306 0
M  V30 14663 O 1360.69 -0.288569 -1.93763 0
M  V30 14664 H 1359.27 -0.737934 -0.116026 0
M  V30 14665 H 1361.93 -1.90452 0.413997 0
M  V30 14666 H 1361.03 -3.06719 -0.577024 0
M  V30 14667 N 1361.33 -0.0301034 -1.57571 0
M  V30 14668 C 1362.28 0.951421 -2.10277 0
M  V30 14669 C 1363.25 1.3224 -1.00508 0
M  V30 14670 O 1364.43 1.41554 -1.27934 0
M  V30 14671 C 1361.57 2.2282 -2.63525 0
M  V30 14672 C 1360.69 1.91359 -3.87306 0
M  V30 14673 C 1359.82 3.13339 -4.28943 0
M  V30 14674 C 1358.86 2.77701 -5.4548 0
M  V30 14675 N 1358 3.9231 -5.82269 0
M  V30 14676 H 1362.84 0.495049 -2.93859 0
M  V30 14677 H 1360.37 0.232756 -1.45247 0
M  V30 14678 H 1362.33 2.97502 -2.92487 0
M  V30 14679 H 1360.96 2.66072 -1.82772 0
M  V30 14680 H 1360.01 1.06915 -3.65066 0
M  V30 14681 H 1361.33 1.61112 -4.72064 0
M  V30 14682 H 1360.48 3.9634 -4.59347 0
M  V30 14683 H 1359.22 3.46747 -3.42954 0
M  V30 14684 H 1358.22 1.93113 -5.14769 0
M  V30 14685 H 1359.45 2.45508 -6.33169 0
M  V30 14686 H 1357.39 4.25559 -4.99235 0
M  V30 14687 H 1357.31 3.65691 -6.61669 0
M  V30 14688 H 1358.58 4.76012 -6.17279 0
M  V30 14689 N 1362.81 1.55714 0.243056 0
M  V30 14690 C 1364.06 1.77726 0.970555 0
M  V30 14691 C 1364.38 0.595108 1.85172 0
M  V30 14692 O 1363.64 -0.42143 1.91108 0
M  V30 14693 C 1363.94 3.05281 1.85845 0
M  V30 14694 C 1363.6 4.36451 1.13232 0
M  V30 14695 C 1362.27 4.72095 0.931656 0
M  V30 14696 C 1364.62 5.17524 0.617944 0
M  V30 14697 C 1361.95 5.86344 0.204373 0
M  V30 14698 C 1364.3 6.32527 -0.0958899 0
M  V30 14699 C 1362.96 6.66789 -0.308 0
M  V30 14700 H 1362.23 0.650345 0.355151 0
M  V30 14701 H 1364.88 1.89986 0.240351 0
M  V30 14702 H 1363.18 2.8805 2.65584 0
M  V30 14703 H 1364.88 3.19511 2.4231 0
M  V30 14704 H 1361.47 4.08451 1.29867 0
M  V30 14705 H 1365.65 4.90439 0.760507 0
M  V30 14706 H 1360.91 6.11393 0.0296 0
M  V30 14707 H 1365.08 6.94588 -0.502077 0
M  V30 14708 H 1362.71 7.55165 -0.873502 0
M  V30 14709 N 1364.29 -0.50888 1.49158 0
M  V30 14710 C 1365.24 -1.60799 1.61641 0
M  V30 14711 C 1366.22 -1.53808 0.472434 0
M  V30 14712 O 1367.41 -1.61471 0.724985 0
M  V30 14713 C 1364.54 -2.99444 1.67894 0
M  V30 14714 C 1363.63 -3.1146 2.87843 0
M  V30 14715 N 1364.02 -2.93387 4.12016 0
M  V30 14716 C 1362.32 -3.42549 2.85616 0
M  V30 14717 C 1363.02 -3.09378 4.92606 0
M  V30 14718 N 1361.99 -3.37902 4.2582 0
M  V30 14719 H 1365.8 -1.45468 2.55375 0
M  V30 14720 H 1363.31 -0.714832 1.45822 0
M  V30 14721 H 1365.31 -3.78423 1.74934 0
M  V30 14722 H 1363.97 -3.1585 0.752919 0
M  V30 14723 H 1364.98 -2.69721 4.42121 0
M  V30 14724 H 1361.65 -3.65181 2.02359 0
M  V30 14725 H 1363.04 -2.99964 6.01225 0
M  V30 14726 N 1365.76 -1.381 -0.759346 0
M  V30 14727 C 1366.71 -1.34866 -1.87296 0
M  V30 14728 C 1367.68 -0.212139 -1.6474 0
M  V30 14729 O 1368.87 -0.403464 -1.86485 0
M  V30 14730 C 1366.01 -1.17383 -3.24523 0
M  V30 14731 C 1365.12 -2.40372 -3.5895 0
M  V30 14732 C 1364.25 -2.15665 -4.8545 0
M  V30 14733 C 1363.29 -3.34455 -5.12646 0
M  V30 14734 N 1362.43 -3.0922 -6.30339 0
M  V30 14735 H 1367.27 -2.30072 -1.89396 0
M  V30 14736 H 1364.81 -1.14314 -0.925788 0
M  V30 14737 H 1366.77 -1.05264 -4.03702 0
M  V30 14738 H 1365.4 -0.258182 -3.21766 0
M  V30 14739 H 1364.45 -2.63185 -2.74659 0
M  V30 14740 H 1365.76 -3.28926 -3.74978 0
M  V30 14741 H 1364.91 -2.00649 -5.7256 0
M  V30 14742 H 1363.65 -1.24467 -4.7155 0
M  V30 14743 H 1362.66 -3.49997 -4.24007 0
M  V30 14744 H 1363.88 -4.26521 -5.28448 0
M  V30 14745 H 1361.83 -2.20664 -6.17773 0
M  V30 14746 H 1361.75 -3.91321 -6.46841 0
M  V30 14747 H 1363.01 -2.97847 -7.20352 0
M  V30 14748 N 1367.24 0.986894 -1.22875 0
M  V30 14749 C 1368.19 2.06271 -0.971398 0
M  V30 14750 C 1369.18 1.607 0.0802173 0
M  V30 14751 O 1370.37 1.76514 -0.131079 0
M  V30 14752 C 1367.5 3.38743 -0.557524 0
M  V30 14753 C 1366.58 3.90931 -1.64419 0
M  V30 14754 N 1366.97 4.16273 -2.87315 0
M  V30 14755 C 1365.27 4.19398 -1.51727 0
M  V30 14756 C 1365.97 4.5878 -3.57625 0
M  V30 14757 N 1364.95 4.62828 -2.85116 0
M  V30 14758 H 1368.75 2.23814 -1.90485 0
M  V30 14759 H 1366.27 1.16913 -1.12717 0
M  V30 14760 H 1368.26 4.1539 -0.354453 0
M  V30 14761 H 1366.92 3.22597 0.368957 0
M  V30 14762 H 1367.93 4.04288 -3.23684 0
M  V30 14763 H 1364.61 4.12291 -0.65742 0
M  V30 14764 H 1366 4.8696 -4.62947 0
M  V30 14765 N 1368.72 1.0394 1.18466 0
M  V30 14766 C 1369.65 0.650182 2.24265 0
M  V30 14767 C 1370.63 -0.345968 1.66545 0
M  V30 14768 O 1371.82 -0.226348 1.92876 0
M  V30 14769 C 1368.95 0.0110451 3.47298 0
M  V30 14770 C 1367.9 0.930599 4.17761 0
M  V30 14771 C 1367.23 0.156005 5.34472 0
M  V30 14772 C 1368.53 2.24913 4.71393 0
M  V30 14773 H 1370.22 1.53465 2.57078 0
M  V30 14774 H 1367.77 0.739343 1.23571 0
M  V30 14775 H 1369.72 -0.272959 4.20515 0
M  V30 14776 H 1368.44 -0.908288 3.13716 0
M  V30 14777 H 1367.1 1.19897 3.4644 0
M  V30 14778 H 1366.75 -0.765695 4.97138 0
M  V30 14779 H 1366.45 0.768606 5.82551 0
M  V30 14780 H 1367.97 -0.121011 6.1048 0
M  V30 14781 H 1369.39 2.02592 5.36311 0
M  V30 14782 H 1367.79 2.81459 5.30001 0
M  V30 14783 H 1368.86 2.8965 3.88884 0
M  V30 14784 N 1370.2 -1.34667 0.818693 0
M  V30 14785 C 1371.13 -2.28368 0.195126 0
M  V30 14786 C 1372.14 -1.50836 -0.612562 0
M  V30 14787 O 1373.33 -1.72917 -0.442936 0
M  V30 14788 C 1370.43 -3.30601 -0.745411 0
M  V30 14789 C 1369.61 -4.37396 0.0185308 0
M  V30 14790 C 1368.66 -5.19415 -0.842298 0
M  V30 14791 O 1367.69 -5.68467 -0.288821 0
M  V30 14792 N 1368.89 -5.38709 -2.1627 0
M  V30 14793 H 1371.66 -2.8252 1.00013 0
M  V30 14794 H 1369.22 -1.47146 0.675262 0
M  V30 14795 H 1371.21 -3.82367 -1.3258 0
M  V30 14796 H 1369.78 -2.76875 -1.45118 0
M  V30 14797 H 1369 -3.86402 0.780205 0
M  V30 14798 H 1370.29 -5.05877 0.544575 0
M  V30 14799 H 1369.69 -5.00523 -2.63616 0
M  V30 14800 H 1368.24 -5.9361 -2.69204 0
M  V30 14801 N 1371.68 -0.573274 -1.46804 0
M  V30 14802 C 1372.59 0.168081 -2.33997 0
M  V30 14803 C 1373.6 0.895652 -1.49178 0
M  V30 14804 O 1374.78 0.860951 -1.8207 0
M  V30 14805 C 1371.84 1.17483 -3.26188 0
M  V30 14806 C 1370.9 0.452956 -4.26904 0
M  V30 14807 C 1370.14 1.41175 -5.1469 0
M  V30 14808 O 1370.36 2.64767 -5.05227 0
M  V30 14809 O 1369.29 0.927472 -5.94711 0
M  V30 14810 H 1373.12 -0.547576 -2.98723 0
M  V30 14811 H 1370.71 -0.333747 -1.45624 0
M  V30 14812 H 1372.59 1.75557 -3.8309 0
M  V30 14813 H 1371.26 1.87213 -2.6407 0
M  V30 14814 H 1370.17 -0.169383 -3.73716 0
M  V30 14815 H 1371.5 -0.203186 -4.9178 0
M  V30 14816 N 1373.15 1.5451 -0.310553 0
M  V30 14817 C 1374.4 1.99505 0.296731 0
M  V30 14818 C 1374.72 1.20257 1.54265 0
M  V30 14819 O 1375.92 1.55566 2.22512 0
M  V30 14820 C 1374.38 3.55208 0.579251 0
M  V30 14821 C 1373.99 4.43276 -0.648874 0
M  V30 14822 C 1375.73 4.08705 1.1472 0
M  V30 14823 C 1373.64 5.90428 -0.338978 0
M  V30 14824 H 1372.57 0.745232 0.114652 0
M  V30 14825 H 1375.22 1.78611 -0.420749 0
M  V30 14826 H 1373.6 3.72039 1.35658 0
M  V30 14827 H 1374.77 4.3822 -1.42478 0
M  V30 14828 H 1373.09 4.00601 -1.13613 0
M  V30 14829 H 1375.69 5.16223 1.39346 0
M  V30 14830 H 1376.03 3.59889 2.09249 0
M  V30 14831 H 1376.56 3.95454 0.431363 0
M  V30 14832 H 1373.3 6.43411 -1.25309 0
M  V30 14833 H 1372.82 5.98468 0.399475 0
M  V30 14834 H 1374.5 6.46976 0.0559696 0
M  V30 14835 N 1374.63 0.0384594 1.57553 0
M  V30 14836 C 1375.88 -0.63814 1.92182 0
M  V30 14837 C 1376.21 -1.71595 0.915714 0
M  V30 14838 O 1375.46 -1.9556 -0.0739533 0
M  V30 14839 C 1375.76 -1.28439 3.33524 0
M  V30 14840 C 1375.43 -0.336034 4.49646 0
M  V30 14841 C 1374.09 -0.0750373 4.81141 0
M  V30 14842 C 1376.44 0.314642 5.20249 0
M  V30 14843 C 1373.77 0.844286 5.80593 0
M  V30 14844 C 1376.12 1.22208 6.20684 0
M  V30 14845 C 1374.79 1.49187 6.50615 0
M  V30 14846 H 1374.06 -0.233512 0.703245 0
M  V30 14847 H 1376.7 0.102223 1.91227 0
M  V30 14848 H 1375.01 -2.09973 3.30785 0
M  V30 14849 H 1376.71 -1.81462 3.57593 0
M  V30 14850 H 1373.3 -0.549638 4.25061 0
M  V30 14851 H 1377.48 0.126074 4.9614 0
M  V30 14852 H 1372.74 1.06092 6.02125 0
M  V30 14853 H 1376.91 1.7324 6.74508 0
M  V30 14854 H 1374.54 2.20588 7.27492 0
M  V30 14855 N 1376.11 -1.55841 -0.234795 0
M  V30 14856 C 1377.36 -1.78502 -0.96254 0
M  V30 14857 C 1377.69 -0.605832 -1.84508 0
M  V30 14858 O 1376.97 0.395446 -1.90438 0
M  V30 14859 C 1377.25 -3.11144 -1.81277 0
M  V30 14860 C 1377.1 -4.39488 -0.957607 0
M  V30 14861 C 1378.42 -3.40114 -2.79304 0
M  V30 14862 H 1375.54 -0.649397 -0.348501 0
M  V30 14863 H 1378.18 -1.88575 -0.23224 0
M  V30 14864 H 1376.33 -3.02687 -2.43542 0
M  V30 14865 H 1378 -4.59949 -0.352726 0
M  V30 14866 H 1376.25 -4.33005 -0.262454 0
M  V30 14867 H 1376.92 -5.28707 -1.58659 0
M  V30 14868 H 1379.39 -3.48612 -2.27175 0
M  V30 14869 H 1378.27 -4.34118 -3.35906 0
M  V30 14870 H 1378.53 -2.61623 -3.56378 0
M  V30 14871 N 1377.59 0.500963 -1.49426 0
M  V30 14872 C 1379 1.08248 -1.52116 0
M  V30 14873 C 1379.35 1.93777 -0.30738 0
M  V30 14874 O 1378.48 2.08404 0.582805 0
M  V30 14875 C 1379.07 1.96988 -2.75647 0
M  V30 14876 C 1377.63 2.50303 -2.81115 0
M  V30 14877 C 1376.78 1.27924 -2.4603 0
M  V30 14878 H 1379.73 0.284872 -1.56122 0
M  V30 14879 H 1379.75 2.81675 -2.55811 0
M  V30 14880 H 1379.26 1.34711 -3.6397 0
M  V30 14881 H 1377.36 3.16218 -1.97072 0
M  V30 14882 H 1377.48 2.87453 -3.83286 0
M  V30 14883 H 1375.84 1.60447 -1.9781 0
M  V30 14884 H 1376.62 0.673557 -3.36628 0
M  V30 14885 N 1379.07 1.38501 0.752011 0
M  V30 14886 C 1380 1.38577 1.87933 0
M  V30 14887 C 1380.98 0.251454 1.68231 0
M  V30 14888 O 1382.16 0.45477 1.888 0
M  V30 14889 C 1379.29 1.21164 3.25479 0
M  V30 14890 C 1378.25 2.31816 3.59785 0
M  V30 14891 C 1377.57 1.99508 4.96085 0
M  V30 14892 C 1378.87 3.74082 3.645 0
M  V30 14893 H 1380.57 2.32913 1.88127 0
M  V30 14894 H 1378.11 1.12113 0.903698 0
M  V30 14895 H 1380.07 1.19842 4.04 0
M  V30 14896 H 1378.79 0.232899 3.25769 0
M  V30 14897 H 1377.45 2.32327 2.83584 0
M  V30 14898 H 1377.1 1.00114 4.92936 0
M  V30 14899 H 1376.8 2.73617 5.20007 0
M  V30 14900 H 1378.32 1.99807 5.76983 0
M  V30 14901 H 1379.74 3.75593 4.33131 0
M  V30 14902 H 1378.13 4.47409 3.99931 0
M  V30 14903 H 1379.2 4.06284 2.64692 0
M  V30 14904 N 1380.55 -0.980364 1.23396 0
M  V30 14905 C 1381.79 -1.72421 1.06765 0
M  V30 14906 C 1382.12 -1.90151 -0.394515 0
M  V30 14907 O 1381.4 -1.4538 -1.29209 0
M  V30 14908 C 1381.68 -3.12246 1.79372 0
M  V30 14909 C 1381.54 -3.02087 3.33262 0
M  V30 14910 C 1382.85 -4.11667 1.55624 0
M  V30 14911 H 1379.97 -0.625822 0.389251 0
M  V30 14912 H 1382.62 -1.14132 1.51901 0
M  V30 14913 H 1380.77 -3.62008 1.41004 0
M  V30 14914 H 1382.44 -2.59848 3.81152 0
M  V30 14915 H 1380.68 -2.38592 3.62293 0
M  V30 14916 H 1381.35 -4.01087 3.79254 0
M  V30 14917 H 1383.83 -3.70712 1.88975 0
M  V30 14918 H 1382.7 -5.07593 2.08902 0
M  V30 14919 H 1382.96 -4.39358 0.491601 0
M  V30 14920 N 1382.02 -1.04567 -1.17913 0
M  V30 14921 C 1383.27 -0.753137 -1.88297 0
M  V30 14922 C 1383.6 0.717651 -1.80453 0
M  V30 14923 O 1382.88 1.5242 -1.20824 0
M  V30 14924 C 1383.16 -1.22626 -3.38578 0
M  V30 14925 C 1383.01 -2.75952 -3.55205 0
M  V30 14926 C 1384.33 -0.82029 -4.32388 0
M  V30 14927 H 1381.45 -0.275067 -0.683745 0
M  V30 14928 H 1384.09 -1.29856 -1.38699 0
M  V30 14929 H 1382.24 -0.762246 -3.80949 0
M  V30 14930 H 1383.92 -3.30429 -3.21892 0
M  V30 14931 H 1382.16 -3.15534 -2.97693 0
M  V30 14932 H 1382.83 -3.04116 -4.60671 0
M  V30 14933 H 1385.31 -1.21965 -3.97824 0
M  V30 14934 H 1384.18 -1.17902 -5.36088 0
M  V30 14935 H 1384.44 0.276205 -4.41236 0
M  V30 14936 N 1383.5 1.34231 -0.825823 0
M  V30 14937 C 1384.92 1.51166 -0.511945 0
M  V30 14938 C 1385.12 1.76981 0.963318 0
M  V30 14939 O 1384.17 1.82243 1.74767 0
M  V30 14940 C 1385.49 2.67474 -1.37399 0
M  V30 14941 C 1387.03 2.81356 -1.37141 0
M  V30 14942 C 1387.51 4.0071 -2.218 0
M  V30 14943 N 1389 4.07922 -2.19439 0
M  V30 14944 C 1389.74 4.99438 -2.81691 0
M  V30 14945 N 1389.23 5.96157 -3.52944 0
M  V30 14946 N 1391.02 4.92332 -2.7123 0
M  V30 14947 H 1383.18 1.15734 -1.78099 0
M  V30 14948 H 1385.44 0.567856 -0.759107 0
M  V30 14949 H 1385.14 2.55036 -2.42176 0
M  V30 14950 H 1385.02 3.62558 -1.04075 0
M  V30 14951 H 1387.41 2.93233 -0.331405 0
M  V30 14952 H 1387.49 1.87072 -1.74464 0
M  V30 14953 H 1387.13 3.89593 -3.25852 0
M  V30 14954 H 1387.06 4.94213 -1.81826 0
M  V30 14955 H 1389.55 3.38695 -1.67612 0
M  V30 14956 H 1389.86 6.62623 -3.97682 0
M  V30 14957 H 1388.21 5.96272 -3.5705 0
M  V30 14958 H 1391.4 4.15733 -2.15137 0
M  V30 14959 H 1391.57 5.63458 -3.20031 0
M  V30 14960 N 1384.98 0.581051 1.46498 0
M  V30 14961 C 1386.21 0.0714615 2.06476 0
M  V30 14962 C 1386.62 -1.23815 1.43061 0
M  V30 14963 O 1385.96 -1.75903 0.529504 0
M  V30 14964 C 1386.02 -0.170353 3.59096 0
M  V30 14965 C 1385.69 1.05341 4.44694 0
M  V30 14966 C 1386.68 1.96503 4.81334 0
M  V30 14967 C 1384.37 1.27479 4.85854 0
M  V30 14968 C 1386.36 3.08154 5.57961 0
M  V30 14969 C 1384.05 2.39434 5.62241 0
M  V30 14970 C 1385.05 3.29601 5.98207 0
M  V30 14971 O 1384.74 4.39612 6.7305 0
M  V30 14972 H 1384.47 0.0537502 0.67386 0
M  V30 14973 H 1387.02 0.800993 1.89138 0
M  V30 14974 H 1385.25 -0.954477 3.74735 0
M  V30 14975 H 1386.94 -0.628248 4.01009 0
M  V30 14976 H 1387.71 1.80615 4.50115 0
M  V30 14977 H 1383.59 0.582051 4.57311 0
M  V30 14978 H 1387.13 3.78557 5.85953 0
M  V30 14979 H 1383.03 2.55286 5.92874 0
M  V30 14980 H 1383.79 4.37959 6.91473 0
M  V30 14981 N 1386.46 -1.54343 0.318742 0
M  V30 14982 C 1387.7 -2.00777 -0.285699 0
M  V30 14983 C 1388.04 -1.20664 -1.52164 0
M  V30 14984 O 1387.31 -0.287674 -1.92361 0
M  V30 14985 C 1387.59 -3.54641 -0.624649 0
M  V30 14986 C 1387.45 -4.45483 0.621663 0
M  V30 14987 C 1388.77 -4.15729 -1.4442 0
M  V30 14988 H 1385.89 -0.729856 -0.102367 0
M  V30 14989 H 1388.53 -1.84968 0.434364 0
M  V30 14990 H 1386.68 -3.68243 -1.23811 0
M  V30 14991 H 1388.35 -4.43759 1.25998 0
M  V30 14992 H 1386.59 -4.15356 1.25148 0
M  V30 14993 H 1387.26 -5.50951 0.340106 0
M  V30 14994 H 1389.74 -4.05672 -0.925699 0
M  V30 14995 H 1388.62 -5.23509 -1.65013 0
M  V30 14996 H 1388.88 -3.68743 -2.43887 0
M  V30 14997 N 1387.94 -0.0468143 -1.5753 0
M  V30 14998 C 1389.21 0.667567 -1.83856 0
M  V30 14999 C 1389.59 1.89297 -0.934346 0
M  V30 15000 O 1388.94 2.28499 0.00570067 0
M  V30 15001 C 1389.15 1.029 -3.33485 0
M  V30 15002 C 1390.5 1.41315 -4.00394 0
M  V30 15003 O 1391.52 1.12147 -3.38085 0
M  V30 15004 O 1390.38 1.95732 -5.10246 0
M  V30 15005 H 1387.48 0.329112 -0.758692 0
M  V30 15006 H 1390.02 -0.0758456 -1.6953 0
M  V30 15007 H 1388.79 0.157617 -3.90982 0
M  V30 15008 H 1388.42 1.83 -3.52982 0
M  V30 15009 N 1389.41 1.55964 0.226527 0
M  V30 15010 C 1390.34 1.95028 1.284 0
M  V30 15011 C 1391.33 0.817833 1.49149 0
M  V30 15012 O 1392.51 1.07975 1.61416 0
M  V30 15013 C 1389.64 2.26266 2.63478 0
M  V30 15014 C 1388.59 3.41954 2.57393 0
M  V30 15015 C 1387.92 3.58786 3.96456 0
M  V30 15016 C 1389.22 4.77069 2.12608 0
M  V30 15017 H 1390.91 2.83608 0.959513 0
M  V30 15018 H 1388.46 1.36451 0.460125 0
M  V30 15019 H 1390.41 2.52186 3.3761 0
M  V30 15020 H 1389.14 1.34533 2.97604 0
M  V30 15021 H 1387.8 3.16076 1.85719 0
M  V30 15022 H 1387.44 2.64437 4.27881 0
M  V30 15023 H 1387.14 4.36595 3.93267 0
M  V30 15024 H 1388.67 3.87048 4.72256 0
M  V30 15025 H 1390.08 5.02226 2.76481 0
M  V30 15026 H 1388.48 5.58126 2.2049 0
M  V30 15027 H 1389.55 4.7276 1.07823 0
M  V30 15028 N 1390.89 -0.493031 1.4969 0
M  V30 15029 C 1391.83 -1.61165 1.61558 0
M  V30 15030 C 1392.8 -1.55828 0.464363 0
M  V30 15031 O 1393.99 -1.7577 0.680973 0
M  V30 15032 C 1391.11 -2.997 1.5779 0
M  V30 15033 C 1390.16 -3.2327 2.78207 0
M  V30 15034 S 1390.99 -3.05531 4.39785 0
M  V30 15035 C 1392.15 -4.46447 4.38675 0
M  V30 15036 H 1392.38 -1.50854 2.56185 0
M  V30 15037 H 1389.92 -0.678777 1.38679 0
M  V30 15038 H 1391.87 -3.79579 1.56302 0
M  V30 15039 H 1390.53 -3.07419 0.644379 0
M  V30 15040 H 1389.73 -4.24422 2.71812 0
M  V30 15041 H 1389.33 -2.51126 2.77149 0
M  V30 15042 H 1391.62 -5.38683 4.10886 0
M  V30 15043 H 1392.56 -4.5789 5.40132 0
M  V30 15044 H 1392.97 -4.27499 3.68652 0
M  V30 15045 N 1392.37 -1.38898 -0.744656 0
M  V30 15046 C 1393.28 -1.39098 -1.88915 0
M  V30 15047 C 1394.3 -0.286956 -1.71617 0
M  V30 15048 O 1395.47 -0.526852 -1.94387 0
M  V30 15049 C 1392.54 -1.22352 -3.24393 0
M  V30 15050 C 1391.6 -2.4264 -3.54153 0
M  V30 15051 C 1390.83 -2.26683 -4.83167 0
M  V30 15052 O 1391.05 -1.26523 -5.56191 0
M  V30 15053 O 1389.99 -3.15464 -5.12607 0
M  V30 15054 H 1393.81 -2.35551 -1.91701 0
M  V30 15055 H 1391.4 -1.19911 -0.891158 0
M  V30 15056 H 1393.28 -1.15109 -4.05374 0
M  V30 15057 H 1391.96 -0.289886 -3.22399 0
M  V30 15058 H 1390.86 -2.55459 -2.73298 0
M  V30 15059 H 1392.2 -3.34664 -3.60917 0
M  V30 15060 N 1393.85 0.973806 -1.23914 0
M  V30 15061 C 1395.07 1.7564 -1.10296 0
M  V30 15062 C 1395.5 1.84984 0.340954 0
M  V30 15063 O 1394.86 1.31629 1.24674 0
M  V30 15064 C 1394.9 3.15809 -1.7406 0
M  V30 15065 O 1394.01 3.99911 -1.00722 0
M  V30 15066 H 1393.35 0.540133 -0.386202 0
M  V30 15067 H 1395.88 1.22197 -1.64101 0
M  V30 15068 H 1395.89 3.66359 -1.79568 0
M  V30 15069 H 1394.56 3.08324 -2.79122 0
M  V30 15070 H 1393.14 3.58405 -1.02956 0
M  V30 15071 N 1395.33 1.05191 1.17357 0
M  V30 15072 C 1396.55 0.782343 1.92079 0
M  V30 15073 C 1396.98 -0.655957 1.76292 0
M  V30 15074 O 1396.33 -1.45573 1.08065 0
M  V30 15075 C 1396.38 1.16777 3.41168 0
M  V30 15076 O 1395.49 0.299908 4.11308 0
M  V30 15077 H 1394.83 0.286894 0.598822 0
M  V30 15078 H 1397.36 1.40476 1.48754 0
M  V30 15079 H 1397.37 1.13454 3.91909 0
M  V30 15080 H 1396.04 2.2155 3.51978 0
M  V30 15081 H 1394.62 0.393744 3.70815 0
M  V30 15082 N 1396.8 -1.33791 0.83293 0
M  V30 15083 C 1398.05 -1.97233 0.422127 0
M  V30 15084 C 1398.37 -1.66738 -1.02264 0
M  V30 15085 O 1399.57 -2.23747 -1.53783 0
M  V30 15086 C 1398.03 -3.5295 0.703872 0
M  V30 15087 C 1397.64 -3.92329 2.16292 0
M  V30 15088 C 1399.38 -4.22973 0.359727 0
M  V30 15089 C 1397.29 -5.40999 2.38903 0
M  V30 15090 H 1396.22 -0.738082 0.154112 0
M  V30 15091 H 1398.87 -1.52494 1.02068 0
M  V30 15092 H 1397.25 -3.95985 0.0350184 0
M  V30 15093 H 1398.42 -3.6037 2.87176 0
M  V30 15094 H 1396.74 -3.35271 2.46947 0
M  V30 15095 H 1399.34 -5.32297 0.506366 0
M  V30 15096 H 1399.68 -4.10428 -0.696743 0
M  V30 15097 H 1400.21 -3.85449 0.983568 0
M  V30 15098 H 1396.95 -5.58541 3.43093 0
M  V30 15099 H 1396.47 -5.74438 1.72573 0
M  V30 15100 H 1398.15 -6.07809 2.2176 0
M  V30 15101 N 1398.28 -0.588812 -1.46187 0
M  V30 15102 C 1399.25 0.130803 -2.28826 0
M  V30 15103 C 1400.25 0.813037 -1.38731 0
M  V30 15104 O 1401.44 0.664061 -1.61046 0
M  V30 15105 C 1398.57 1.19484 -3.19275 0
M  V30 15106 H 1399.76 -0.595514 -2.93928 0
M  V30 15107 H 1397.31 -0.347038 -1.52399 0
M  V30 15108 H 1398.05 1.95254 -2.58933 0
M  V30 15109 H 1397.83 0.710077 -3.85617 0
M  V30 15110 H 1399.32 1.69938 -3.81459 0
M  V30 15111 N 1399.76 1.54172 -0.326923 0
M  V30 15112 C 1400.69 2.21958 0.571588 0
M  V30 15113 C 1401.71 1.22067 1.0772 0
M  V30 15114 O 1402.89 1.48517 0.990202 0
M  V30 15115 C 1399.99 2.87307 1.79744 0
M  V30 15116 C 1399.17 4.13366 1.42995 0
M  V30 15117 C 1398.23 4.62276 2.5137 0
M  V30 15118 O 1397.25 5.2688 2.15373 0
M  V30 15119 N 1398.45 4.36789 3.82355 0
M  V30 15120 H 1401.22 2.99699 -0.00885848 0
M  V30 15121 H 1398.78 1.61201 -0.150279 0
M  V30 15122 H 1400.77 3.1695 2.51644 0
M  V30 15123 H 1399.34 2.13252 2.28566 0
M  V30 15124 H 1398.56 3.9045 0.542444 0
M  V30 15125 H 1399.85 4.95396 1.16017 0
M  V30 15126 H 1399.25 3.85086 4.14397 0
M  V30 15127 H 1397.81 4.71079 4.50475 0
M  V30 15128 N 1401.24 0.0551678 1.57503 0
M  V30 15129 C 1402.46 -0.630692 1.97578 0
M  V30 15130 C 1402.89 -1.63348 0.932686 0
M  V30 15131 O 1402.25 -1.81004 -0.103632 0
M  V30 15132 C 1402.29 -1.29049 3.36718 0
M  V30 15133 O 1401.4 -2.40621 3.34926 0
M  V30 15134 H 1400.74 -0.163625 0.643524 0
M  V30 15135 H 1403.27 0.124753 2.04219 0
M  V30 15136 H 1403.28 -1.64124 3.73534 0
M  V30 15137 H 1401.95 -0.55559 4.12172 0
M  V30 15138 H 1400.53 -2.07463 3.0986 0
M  V30 15139 N 1402.72 -1.56081 -0.218252 0
M  V30 15140 C 1403.97 -1.78445 -0.94022 0
M  V30 15141 C 1404.28 -0.624317 -1.85369 0
M  V30 15142 O 1405.48 -0.731669 -2.61455 0
M  V30 15143 C 1403.94 -3.16026 -1.72208 0
M  V30 15144 C 1403.55 -4.39774 -0.854584 0
M  V30 15145 C 1405.29 -3.47714 -2.43506 0
M  V30 15146 C 1403.2 -5.68379 -1.63398 0
M  V30 15147 H 1402.13 -0.665303 -0.354806 0
M  V30 15148 H 1404.78 -1.82471 -0.194021 0
M  V30 15149 H 1403.16 -3.06185 -2.5113 0
M  V30 15150 H 1404.34 -4.60679 -0.105659 0
M  V30 15151 H 1402.65 -4.15627 -0.253562 0
M  V30 15152 H 1405.25 -4.41026 -3.02325 0
M  V30 15153 H 1405.59 -2.70367 -3.16555 0
M  V30 15154 H 1406.12 -3.58899 -1.71571 0
M  V30 15155 H 1402.86 -6.48628 -0.946704 0
M  V30 15156 H 1402.38 -5.5153 -2.35743 0
M  V30 15157 H 1404.06 -6.08672 -2.1938 0
M  V30 15158 N 1404.2 0.485086 -1.49949 0
M  V30 15159 C 1405.15 1.58207 -1.64179 0
M  V30 15160 C 1406.13 1.53037 -0.496844 0
M  V30 15161 O 1407.32 1.60297 -0.750582 0
M  V30 15162 C 1404.45 2.96735 -1.72637 0
M  V30 15163 C 1403.54 3.06841 -2.92762 0
M  V30 15164 N 1403.93 2.86795 -4.16632 0
M  V30 15165 C 1402.23 3.37961 -2.91029 0
M  V30 15166 C 1402.93 3.01502 -4.97465 0
M  V30 15167 N 1401.9 3.31085 -4.31142 0
M  V30 15168 H 1405.7 1.41387 -2.57657 0
M  V30 15169 H 1403.22 0.691542 -1.4694 0
M  V30 15170 H 1405.22 3.75592 -1.80932 0
M  V30 15171 H 1403.88 3.14612 -0.803072 0
M  V30 15172 H 1404.89 2.62653 -4.46356 0
M  V30 15173 H 1401.56 3.61915 -2.08143 0
M  V30 15174 H 1402.95 2.90361 -6.05921 0
M  V30 15175 N 1405.67 1.39291 0.737279 0
M  V30 15176 C 1407.09 1.20845 1.04253 0
M  V30 15177 C 1407.29 0.0684513 2.01384 0
M  V30 15178 O 1406.35 -0.580615 2.45734 0
M  V30 15179 C 1407.66 2.54158 1.60699 0
M  V30 15180 C 1409.21 2.60983 1.72791 0
M  V30 15181 C 1409.68 3.94511 2.32647 0
M  V30 15182 N 1411.17 3.96138 2.4006 0
M  V30 15183 C 1411.91 4.96229 2.87306 0
M  V30 15184 N 1411.4 6.06716 3.34465 0
M  V30 15185 N 1413.2 4.83609 2.86494 0
M  V30 15186 H 1405.35 2.12196 0.0930416 0
M  V30 15187 H 1407.61 0.942289 0.103899 0
M  V30 15188 H 1407.32 3.38118 0.96795 0
M  V30 15189 H 1407.19 2.73715 2.59538 0
M  V30 15190 H 1409.58 1.77408 2.35818 0
M  V30 15191 H 1409.66 2.45278 0.726118 0
M  V30 15192 H 1409.3 4.78516 1.70249 0
M  V30 15193 H 1409.23 4.07536 3.33499 0
M  V30 15194 H 1411.72 3.16344 2.06725 0
M  V30 15195 H 1412.04 6.79002 3.6902 0
M  V30 15196 H 1410.38 6.10313 3.3248 0
M  V30 15197 H 1413.57 3.96396 2.48973 0
M  V30 15198 H 1413.75 5.6176 3.23001 0
M  V30 15199 N 1407.15 -0.967221 1.24429 0
M  V30 15200 C 1408.4 -1.70688 1.08213 0
M  V30 15201 C 1408.72 -1.91268 -0.379693 0
M  V30 15202 O 1407.99 -1.49077 -1.27094 0
M  V30 15203 H 1406.57 -0.632489 0.39745 0
M  V30 15204 H 1409.23 -1.16356 1.56356 0
M  V30 15205 H 1408.33 -2.69119 1.58055 0
M  V30 15206 N 1408.63 -1.05812 -1.16797 0
M  V30 15207 C 1409.88 -0.771923 -1.8721 0
M  V30 15208 C 1410.2 0.701365 -1.81414 0
M  V30 15209 O 1409.46 1.5292 -1.22122 0
M  V30 15210 C 1409.76 -1.20565 -3.3645 0
M  V30 15211 C 1409.42 -2.68222 -3.62447 0
M  V30 15212 C 1408.09 -3.08556 -3.69251 0
M  V30 15213 C 1410.44 -3.63607 -3.73416 0
M  V30 15214 C 1407.77 -4.43126 -3.84521 0
M  V30 15215 C 1410.12 -4.97918 -3.90205 0
M  V30 15216 C 1408.78 -5.37897 -3.9525 0
M  V30 15217 H 1408.05 -0.282467 -0.68505 0
M  V30 15218 H 1410.7 -1.32633 -1.38133 0
M  V30 15219 H 1409 -0.570347 -3.87626 0
M  V30 15220 H 1410.7 -0.961326 -3.89306 0
M  V30 15221 H 1407.29 -2.3599 -3.5778 0
M  V30 15222 H 1411.48 -3.33581 -3.67474 0
M  V30 15223 H 1406.73 -4.73593 -3.86677 0
M  V30 15224 H 1410.91 -5.71716 -3.97635 0
M  V30 15225 H 1408.53 -6.42176 -4.06834 0
M  V30 15226 N 1410.11 1.33347 -0.840014 0
M  V30 15227 C 1411.02 2.32965 -0.276527 0
M  V30 15228 C 1412.03 1.634 0.598037 0
M  V30 15229 O 1413.21 1.95046 0.501888 0
M  V30 15230 C 1410.27 3.42498 0.53816 0
M  V30 15231 C 1409.34 4.27781 -0.360814 0
M  V30 15232 C 1408.57 5.32083 0.415085 0
M  V30 15233 O 1408.79 5.46115 1.64666 0
M  V30 15234 O 1407.73 6.01528 -0.211503 0
M  V30 15235 H 1411.55 2.83022 -1.10147 0
M  V30 15236 H 1409.14 1.3671 -0.602566 0
M  V30 15237 H 1411.02 4.09336 1.00108 0
M  V30 15238 H 1409.69 2.94655 1.34015 0
M  V30 15239 H 1408.6 3.63805 -0.871598 0
M  V30 15240 H 1409.93 4.7911 -1.1276 0
M  V30 15241 N 1411.59 0.596556 1.45873 0
M  V30 15242 C 1412.52 -0.166704 2.28593 0
M  V30 15243 C 1413.53 -0.84231 1.39316 0
M  V30 15244 O 1414.72 -0.709548 1.63792 0
M  V30 15245 C 1411.82 -1.25641 3.1475 0
M  V30 15246 C 1410.99 -0.67006 4.32237 0
M  V30 15247 C 1410.05 -1.64924 4.99686 0
M  V30 15248 O 1409.08 -1.17986 5.56838 0
M  V30 15249 N 1410.28 -2.98355 4.9796 0
M  V30 15250 H 1413.04 0.543045 2.94739 0
M  V30 15251 H 1410.61 0.435274 1.55939 0
M  V30 15252 H 1412.6 -1.91104 3.56737 0
M  V30 15253 H 1411.17 -1.86883 2.50586 0
M  V30 15254 H 1410.39 0.162375 3.93865 0
M  V30 15255 H 1411.68 -0.258345 5.08144 0
M  V30 15256 H 1411.07 -3.39101 4.52799 0
M  V30 15257 H 1409.63 -3.5927 5.43846 0
M  V30 15258 N 1413.06 -1.53996 0.335095 0
M  V30 15259 C 1413.97 -2.28436 -0.534244 0
M  V30 15260 C 1414.99 -1.33224 -1.11926 0
M  V30 15261 O 1416.17 -1.66252 -1.13676 0
M  V30 15262 C 1413.23 -3.03634 -1.67354 0
M  V30 15263 C 1412.29 -4.14455 -1.11916 0
M  V30 15264 C 1411.52 -4.86058 -2.20416 0
M  V30 15265 O 1411.75 -4.57263 -3.40979 0
M  V30 15266 O 1410.68 -5.72704 -1.85185 0
M  V30 15267 H 1414.51 -3.03618 0.0706314 0
M  V30 15268 H 1412.09 -1.49062 0.100409 0
M  V30 15269 H 1413.97 -3.50687 -2.33659 0
M  V30 15270 H 1412.65 -2.31317 -2.26438 0
M  V30 15271 H 1411.56 -3.71725 -0.420871 0
M  V30 15272 H 1412.89 -4.8885 -0.573295 0
M  V30 15273 N 1414.54 -0.0635198 -1.57472 0
M  V30 15274 C 1415.77 0.616735 -1.97494 0
M  V30 15275 C 1416.18 1.63646 -0.941568 0
M  V30 15276 O 1415.54 1.82355 0.0727768 0
M  V30 15277 C 1415.59 1.29268 -3.37597 0
M  V30 15278 O 1415.31 0.313781 -4.36975 0
M  V30 15279 C 1416.81 2.06154 -3.92448 0
M  V30 15280 H 1414.03 0.167753 -0.649692 0
M  V30 15281 H 1416.58 -0.133475 -2.04064 0
M  V30 15282 H 1414.73 1.99404 -3.3214 0
M  V30 15283 H 1415.15 0.797723 -5.18398 0
M  V30 15284 H 1416.62 2.48853 -4.92723 0
M  V30 15285 H 1417.1 2.91474 -3.28541 0
M  V30 15286 H 1417.7 1.40903 -4.01281 0
M  V30 15287 N 1416.02 1.56195 0.209972 0
M  V30 15288 C 1417.27 1.80917 0.929554 0
M  V30 15289 C 1417.62 0.638305 1.81503 0
M  V30 15290 O 1416.91 -0.367181 1.88049 0
M  V30 15291 C 1417.11 3.09154 1.79328 0
M  V30 15292 C 1416.94 4.38602 0.99291 0
M  V30 15293 C 1415.71 5.0066 0.683231 0
M  V30 15294 C 1417.9 5.13089 0.352678 0
M  V30 15295 N 1415.89 6.13746 -0.137328 0
M  V30 15296 C 1417.26 6.19117 -0.330748 0
M  V30 15297 C 1419.31 4.97184 0.266887 0
M  V30 15298 C 1418.02 7.10966 -1.09177 0
M  V30 15299 C 1420.04 5.89443 -0.480701 0
M  V30 15300 C 1419.4 6.94906 -1.15263 0
M  V30 15301 H 1415.5 0.713515 0.320031 0
M  V30 15302 H 1418.09 1.93676 0.199467 0
M  V30 15303 H 1416.26 2.97657 2.49509 0
M  V30 15304 H 1417.99 3.22021 2.45121 0
M  V30 15305 H 1414.74 4.62834 1.00407 0
M  V30 15306 H 1415.17 6.74869 -0.536782 0
M  V30 15307 H 1419.81 4.15692 0.772025 0
M  V30 15308 H 1417.53 7.91932 -1.60839 0
M  V30 15309 H 1421.11 5.79211 -0.54824 0
M  V30 15310 H 1419.99 7.65063 -1.72185 0
M  V30 15311 N 1417.5 -0.477127 1.50204 0
M  V30 15312 C 1418.43 -1.59319 1.64773 0
M  V30 15313 C 1419.44 -1.53951 0.529427 0
M  V30 15314 O 1420.63 -1.59449 0.802388 0
M  V30 15315 C 1417.73 -2.98185 1.61055 0
M  V30 15316 C 1416.9 -3.28486 2.88817 0
M  V30 15317 C 1415.96 -4.46878 2.77825 0
M  V30 15318 O 1414.99 -4.47483 3.51778 0
M  V30 15319 N 1416.19 -5.48187 1.90974 0
M  V30 15320 H 1418.96 -1.4724 2.61037 0
M  V30 15321 H 1416.52 -0.66544 1.47592 0
M  V30 15322 H 1418.51 -3.75345 1.51323 0
M  V30 15323 H 1417.08 -3.04064 0.725509 0
M  V30 15324 H 1416.3 -2.39997 3.12722 0
M  V30 15325 H 1417.59 -3.4554 3.7347 0
M  V30 15326 H 1416.99 -5.50515 1.30192 0
M  V30 15327 H 1415.54 -6.24355 1.87148 0
M  V30 15328 N 1418.98 -1.3968 -0.729882 0
M  V30 15329 C 1420.39 -1.33184 -1.30839 0
M  V30 15330 C 1420.74 0.00141129 -1.962 0
M  V30 15331 O 1419.86 0.903523 -1.96635 0
M  V30 15332 C 1420.46 -2.41211 -2.37913 0
M  V30 15333 C 1419.02 -2.3822 -2.91424 0
M  V30 15334 C 1418.16 -2.22832 -1.65049 0
M  V30 15335 H 1421.12 -1.49694 -0.527023 0
M  V30 15336 H 1421.14 -2.08294 -3.18424 0
M  V30 15337 H 1420.65 -3.38234 -1.90313 0
M  V30 15338 H 1418.75 -1.4485 -3.43292 0
M  V30 15339 H 1418.86 -3.33271 -3.44191 0
M  V30 15340 H 1417.23 -1.70095 -1.89578 0
M  V30 15341 H 1418.01 -3.21832 -1.19494 0
M  V30 15342 N 1420.45 0.960609 -1.2494 0
M  V30 15343 C 1421.7 1.70701 -1.09495 0
M  V30 15344 C 1422.03 1.90754 0.364214 0
M  V30 15345 O 1421.31 1.47417 1.26879 0
M  V30 15346 C 1421.59 3.09353 -1.84317 0
M  V30 15347 C 1421.44 2.96747 -3.38026 0
M  V30 15348 C 1422.76 4.09139 -1.62153 0
M  V30 15349 H 1419.88 0.61955 -0.399158 0
M  V30 15350 H 1422.52 1.11701 -1.53698 0
M  V30 15351 H 1420.67 3.59719 -1.46746 0
M  V30 15352 H 1422.35 2.53752 -3.85237 0
M  V30 15353 H 1420.59 2.32798 -3.66043 0
M  V30 15354 H 1421.26 3.95002 -3.85587 0
M  V30 15355 H 1423.74 3.67659 -1.94849 0
M  V30 15356 H 1422.61 5.04206 -2.16951 0
M  V30 15357 H 1422.87 4.38521 -0.561437 0
M  V30 15358 N 1421.93 1.0643 1.16234 0
M  V30 15359 C 1422.88 0.676311 2.20669 0
M  V30 15360 C 1423.85 -0.327721 1.62835 0
M  V30 15361 O 1425.03 -0.216296 1.8957 0
M  V30 15362 C 1422.17 0.0703726 3.45028 0
M  V30 15363 C 1421.29 1.12475 4.17101 0
M  V30 15364 C 1420.42 0.484806 5.28983 0
M  V30 15365 C 1419.46 1.52262 5.9286 0
M  V30 15366 N 1418.6 0.905938 6.96231 0
M  V30 15367 H 1423.44 1.57129 2.53209 0
M  V30 15368 H 1420.98 0.7856 1.24365 0
M  V30 15369 H 1422.93 -0.298488 4.16131 0
M  V30 15370 H 1421.56 -0.788002 3.13034 0
M  V30 15371 H 1420.62 1.6113 3.44589 0
M  V30 15372 H 1421.93 1.91202 4.60698 0
M  V30 15373 H 1421.08 0.0630553 6.06667 0
M  V30 15374 H 1419.82 -0.334332 4.86553 0
M  V30 15375 H 1418.83 1.95425 5.13896 0
M  V30 15376 H 1420.05 2.34388 6.37369 0
M  V30 15377 H 1418 0.107536 6.55912 0
M  V30 15378 H 1417.91 1.63058 7.38206 0
M  V30 15379 H 1419.18 0.509378 7.77834 0
M  V30 15380 N 1423.41 -1.329 0.847073 0
M  V30 15381 C 1424.36 -2.3097 0.27487 0
M  V30 15382 C 1425.35 -1.58508 -0.597625 0
M  V30 15383 O 1426.56 -1.73307 -0.486273 0
M  V30 15384 H 1422.93 -0.748719 0.0701719 0
M  V30 15385 H 1424.9 -2.7673 1.11638 0
M  V30 15386 C 1423.65 -3.43662 -0.528363 0
M  V30 15387 H 1422.98 -3.99576 0.133707 0
M  V30 15388 H 1424.42 -4.14458 -0.894443 0
M  V30 15389 C 1422.88 -2.90244 -1.71055 0
M  V30 15390 O 1423.41 -2.87109 -2.80947 0
M  V30 15391 N 1421.61 -2.46743 -1.53512 0
M  V30 15392 H 1421.16 -2.49493 -0.641181 0
M  V30 15393 H 1421.12 -2.11356 -2.32757 0
M  V30 15394 N 1424.89 -0.604284 -1.45555 0
M  V30 15395 C 1426.14 -0.0957836 -2.01472 0
M  V30 15396 C 1426.45 1.28016 -1.47889 0
M  V30 15397 O 1427.66 1.88121 -1.95762 0
M  V30 15398 C 1426.11 -0.120566 -3.59698 0
M  V30 15399 C 1425.72 -1.49616 -4.22278 0
M  V30 15400 C 1427.46 0.332865 -4.23193 0
M  V30 15401 C 1425.37 -1.4775 -5.72646 0
M  V30 15402 H 1424.3 -0.0320399 -0.753319 0
M  V30 15403 H 1426.95 -0.759125 -1.67061 0
M  V30 15404 H 1425.33 0.609365 -3.91283 0
M  V30 15405 H 1426.51 -2.24753 -4.02272 0
M  V30 15406 H 1424.82 -1.89141 -3.70965 0
M  V30 15407 H 1427.42 0.365951 -5.33446 0
M  V30 15408 H 1427.76 1.35487 -3.93635 0
M  V30 15409 H 1428.3 -0.343692 -3.96313 0
M  V30 15410 H 1425.04 -2.47701 -6.06898 0
M  V30 15411 H 1424.56 -0.768659 -5.94854 0
M  V30 15412 H 1426.23 -1.19971 -6.3578 0
M  V30 15413 N 1426.37 1.53816 -0.343257 0
M  V30 15414 C 1427.33 2.23654 0.501161 0
M  V30 15415 C 1428.33 1.23664 1.02781 0
M  V30 15416 O 1429.52 1.48104 0.917103 0
M  V30 15417 C 1426.65 2.95596 1.69812 0
M  V30 15418 H 1427.84 2.997 -0.109626 0
M  V30 15419 H 1425.4 1.56013 -0.0946011 0
M  V30 15420 H 1426.13 2.23736 2.34761 0
M  V30 15421 H 1425.92 3.68938 1.32768 0
M  V30 15422 H 1427.41 3.48748 2.29706 0
M  V30 15423 N 1427.84 0.0718701 1.57436 0
M  V30 15424 C 1428.79 -0.913026 2.13931 0
M  V30 15425 C 1429.79 -1.3082 1.07622 0
M  V30 15426 O 1430.99 -1.28544 1.26002 0
M  V30 15427 H 1427.37 -0.31238 0.684049 0
M  V30 15428 H 1429.34 -0.411613 2.95547 0
M  V30 15429 C 1428.09 -2.17109 2.71586 0
M  V30 15430 H 1427.41 -1.87585 3.53061 0
M  V30 15431 H 1428.85 -2.84134 3.14712 0
M  V30 15432 C 1427.31 -2.92967 1.6635 0
M  V30 15433 O 1427.84 -3.8667 1.08854 0
M  V30 15434 N 1426.05 -2.56075 1.37383 0
M  V30 15435 H 1425.59 -1.79949 1.84326 0
M  V30 15436 H 1425.55 -3.07134 0.672039 0
M  V30 15437 N 1429.32 -1.56304 -0.201686 0
M  V30 15438 C 1430.55 -1.84692 -0.943583 0
M  V30 15439 C 1430.97 -0.654649 -1.7634 0
M  V30 15440 O 1430.33 0.396586 -1.76909 0
M  V30 15441 C 1430.38 -3.11251 -1.82085 0
M  V30 15442 O 1429.48 -2.9134 -2.91881 0
M  V30 15443 H 1428.82 -0.608351 -0.266092 0
M  V30 15444 H 1431.35 -2.0353 -0.208992 0
M  V30 15445 H 1431.36 -3.41874 -2.2268 0
M  V30 15446 H 1430.04 -3.97652 -1.21844 0
M  V30 15447 H 1428.62 -2.72 -2.55089 0
M  V30 15448 N 1430.8 0.469154 -1.50455 0
M  V30 15449 C 1431.73 1.57493 -1.7239 0
M  V30 15450 C 1432.71 1.60161 -0.572915 0
M  V30 15451 O 1433.9 1.76397 -0.812259 0
M  V30 15452 C 1431.03 2.95804 -1.81981 0
M  V30 15453 C 1429.98 3.08001 -2.97185 0
M  V30 15454 C 1429.31 4.4798 -2.91922 0
M  V30 15455 C 1430.61 2.85039 -4.37665 0
M  V30 15456 H 1432.3 1.39389 -2.64974 0
M  V30 15457 H 1429.85 0.669133 -1.27509 0
M  V30 15458 H 1431.8 3.73091 -1.95911 0
M  V30 15459 H 1430.52 3.15068 -0.86021 0
M  V30 15460 H 1429.18 2.33148 -2.82909 0
M  V30 15461 H 1428.83 4.64165 -1.93803 0
M  V30 15462 H 1428.53 4.57076 -3.69263 0
M  V30 15463 H 1430.05 5.27284 -3.07903 0
M  V30 15464 H 1431.47 3.52074 -4.52456 0
M  V30 15465 H 1429.87 3.05578 -5.16471 0
M  V30 15466 H 1430.94 1.8088 -4.499 0
M  V30 15467 N 1432.28 1.40065 0.722464 0
M  V30 15468 C 1433.69 1.33876 1.30131 0
M  V30 15469 C 1434.04 0.00899369 1.96198 0
M  V30 15470 O 1433.17 -0.893082 1.97112 0
M  V30 15471 C 1433.76 2.42469 2.36631 0
M  V30 15472 C 1432.32 2.39762 2.90157 0
M  V30 15473 C 1431.47 2.23704 1.63865 0
M  V30 15474 H 1434.42 1.49971 0.519077 0
M  V30 15475 H 1434.44 2.0998 3.17315 0
M  V30 15476 H 1433.95 3.39239 1.88517 0
M  V30 15477 H 1432.05 1.46669 3.42519 0
M  V30 15478 H 1432.16 3.35092 3.42419 0
M  V30 15479 H 1430.53 1.71098 1.88674 0
M  V30 15480 H 1431.31 3.22462 1.17785 0
M  V30 15481 N 1433.76 -0.95397 1.25448 0
M  V30 15482 C 1434.71 -2.07206 1.05681 0
M  V30 15483 C 1435.7 -1.69395 -0.0124672 0
M  V30 15484 O 1436.91 -1.79429 0.143201 0
M  V30 15485 H 1433.28 -0.678231 0.324817 0
M  V30 15486 H 1435.25 -2.21034 2.00466 0
M  V30 15487 C 1434 -3.40725 0.692955 0
M  V30 15488 H 1433.32 -3.70287 1.50756 0
M  V30 15489 H 1434.76 -4.19814 0.594351 0
M  V30 15490 C 1433.22 -3.31495 -0.601028 0
M  V30 15491 O 1433.75 -3.66565 -1.64296 0
M  V30 15492 N 1431.96 -2.84612 -0.586899 0
M  V30 15493 H 1431.51 -2.56271 0.261375 0
M  V30 15494 H 1431.46 -2.78819 -1.45284 0
M  V30 15495 N 1435.24 -1.07045 -1.15668 0
M  V30 15496 C 1436.48 -0.792908 -1.86657 0
M  V30 15497 C 1436.81 0.679213 -1.81935 0
M  V30 15498 O 1436.09 1.49822 -1.2403 0
M  V30 15499 C 1436.37 -1.2978 -3.35901 0
M  V30 15500 C 1436.23 -2.83424 -3.49272 0
M  V30 15501 C 1437.54 -0.911821 -4.30551 0
M  V30 15502 H 1434.66 -0.289509 -0.677756 0
M  V30 15503 H 1437.31 -1.32769 -1.35913 0
M  V30 15504 H 1435.46 -0.84288 -3.79246 0
M  V30 15505 H 1437.13 -3.37182 -3.14811 0
M  V30 15506 H 1435.37 -3.21777 -2.90933 0
M  V30 15507 H 1436.04 -3.13819 -4.54116 0
M  V30 15508 H 1438.52 -1.30376 -3.95147 0
M  V30 15509 H 1437.39 -1.29247 -5.33467 0
M  V30 15510 H 1437.65 0.18255 -4.41723 0
M  V30 15511 N 1436.71 1.32449 -0.85411 0
M  V30 15512 C 1437.68 2.27183 -0.303377 0
M  V30 15513 C 1438.68 1.51582 0.536622 0
M  V30 15514 O 1439.87 1.70684 0.348211 0
M  V30 15515 C 1437 3.36086 0.570852 0
M  V30 15516 H 1438.19 2.77408 -1.1395 0
M  V30 15517 H 1435.74 1.43111 -0.628402 0
M  V30 15518 H 1436.48 2.91128 1.42881 0
M  V30 15519 H 1436.26 3.92088 -0.030399 0
M  V30 15520 H 1437.75 4.06675 0.948972 0
M  V30 15521 N 1438.19 0.611994 1.45232 0
M  V30 15522 C 1439.12 -0.0914869 2.33321 0
M  V30 15523 C 1440.1 -0.854315 1.4709 0
M  V30 15524 O 1441.29 -0.823994 1.75852 0
M  V30 15525 C 1438.42 -1.08652 3.29867 0
M  V30 15526 C 1437.37 -0.436615 4.25767 0
M  V30 15527 C 1436.7 -1.54021 5.12037 0
M  V30 15528 C 1438 0.645005 5.18302 0
M  V30 15529 H 1439.69 0.644053 2.92391 0
M  V30 15530 H 1437.24 0.311171 1.40598 0
M  V30 15531 H 1439.19 -1.58726 3.90364 0
M  V30 15532 H 1437.91 -1.85271 2.68965 0
M  V30 15533 H 1436.57 0.0432918 3.66574 0
M  V30 15534 H 1436.22 -2.29679 4.475 0
M  V30 15535 H 1435.92 -1.11084 5.77005 0
M  V30 15536 H 1437.45 -2.04313 5.75403 0
M  V30 15537 H 1438.86 0.228166 5.72846 0
M  V30 15538 H 1437.26 0.996387 5.9177 0
M  V30 15539 H 1438.33 1.51985 4.60466 0
M  V30 15540 N 1439.67 -1.53632 0.351409 0
M  V30 15541 C 1441.08 -1.86241 -0.130834 0
M  V30 15542 C 1441.43 -1.27243 -1.49344 0
M  V30 15543 O 1440.56 -0.589006 -2.0823 0
M  V30 15544 C 1441.15 -3.37919 -0.244179 0
M  V30 15545 C 1439.71 -3.70377 -0.670662 0
M  V30 15546 C 1438.86 -2.76643 0.190813 0
M  V30 15547 H 1441.81 -1.48083 0.570724 0
M  V30 15548 H 1441.83 -3.65137 -1.07029 0
M  V30 15549 H 1441.34 -3.8083 0.747688 0
M  V30 15550 H 1439.44 -3.33015 -1.67127 0
M  V30 15551 H 1439.56 -4.76934 -0.455102 0
M  V30 15552 H 1437.92 -2.52446 -0.338092 0
M  V30 15553 H 1438.7 -3.22385 1.17996 0
M  V30 15554 N 1441.15 -0.0802183 -1.57396 0
M  V30 15555 C 1442.09 0.884041 -2.13198 0
M  V30 15556 C 1443.06 1.28975 -1.04664 0
M  V30 15557 O 1444.25 1.37413 -1.32372 0
M  V30 15558 C 1441.39 2.14323 -2.7048 0
M  V30 15559 C 1440.5 1.7894 -3.93198 0
M  V30 15560 C 1439.64 2.99534 -4.38695 0
M  V30 15561 C 1438.68 2.60207 -5.54039 0
M  V30 15562 N 1437.81 3.73587 -5.94455 0
M  V30 15563 H 1442.65 0.40131 -2.95285 0
M  V30 15564 H 1440.19 0.186429 -1.45914 0
M  V30 15565 H 1442.15 2.88046 -3.01804 0
M  V30 15566 H 1440.78 2.60122 -1.91144 0
M  V30 15567 H 1439.83 0.952465 -3.68283 0
M  V30 15568 H 1441.14 1.46012 -4.76951 0
M  V30 15569 H 1440.3 3.81526 -4.71724 0
M  V30 15570 H 1439.04 3.35661 -3.53812 0
M  V30 15571 H 1438.04 1.76638 -5.20652 0
M  V30 15572 H 1439.27 2.2524 -6.40659 0
M  V30 15573 H 1437.21 4.0946 -5.12521 0
M  V30 15574 H 1437.13 3.44455 -6.72969 0
M  V30 15575 H 1438.4 4.56133 -6.3211 0
M  V30 15576 N 1442.63 1.56409 0.193394 0
M  V30 15577 C 1443.87 1.80991 0.914875 0
M  V30 15578 C 1444.2 0.654538 1.82837 0
M  V30 15579 O 1443.48 -0.344816 1.91419 0
M  V30 15580 C 1443.76 3.15841 1.72964 0
M  V30 15581 C 1443.62 4.41873 0.840748 0
M  V30 15582 C 1444.93 3.474 2.70188 0
M  V30 15583 H 1442.05 0.658408 0.331161 0
M  V30 15584 H 1444.7 1.89125 0.182161 0
M  V30 15585 H 1442.85 3.09038 2.35431 0
M  V30 15586 H 1444.52 4.60723 0.230654 0
M  V30 15587 H 1442.76 4.33549 0.147558 0
M  V30 15588 H 1443.43 5.32728 1.44586 0
M  V30 15589 H 1445.91 3.54513 2.17852 0
M  V30 15590 H 1444.78 4.42872 3.24278 0
M  V30 15591 H 1445.04 2.7098 3.49317 0
M  V30 15592 N 1444.1 -0.461169 1.50702 0
M  V30 15593 C 1445.51 -1.04177 1.54932 0
M  V30 15594 C 1445.87 -1.92894 0.358648 0
M  V30 15595 O 1444.99 -2.09876 -0.527346 0
M  V30 15596 C 1445.59 -1.8961 2.80773 0
M  V30 15597 C 1444.14 -2.42761 2.87652 0
M  V30 15598 C 1443.29 -1.21356 2.49335 0
M  V30 15599 H 1446.24 -0.243379 1.56823 0
M  V30 15600 H 1446.26 -2.74794 2.63189 0
M  V30 15601 H 1445.78 -1.25014 3.67414 0
M  V30 15602 H 1443.88 -3.10881 2.05386 0
M  V30 15603 H 1443.99 -2.77189 3.90772 0
M  V30 15604 H 1442.35 -1.55146 2.01995 0
M  V30 15605 H 1443.14 -0.584069 3.38295 0
M  V30 15606 N 1445.58 -1.40446 -0.715026 0
M  V30 15607 C 1446.81 -1.42263 -1.50917 0
M  V30 15608 C 1447.23 -0.0242402 -1.88084 0
M  V30 15609 O 1446.59 0.967817 -1.53307 0
M  V30 15610 C 1446.64 -2.31998 -2.7606 0
M  V30 15611 O 1445.74 -1.76361 -3.72787 0
M  V30 15612 H 1445.08 -0.483614 -0.454988 0
M  V30 15613 H 1447.61 -1.84682 -0.880549 0
M  V30 15614 H 1447.62 -2.47204 -3.24583 0
M  V30 15615 H 1446.3 -3.33614 -2.48343 0
M  V30 15616 H 1444.87 -1.70504 -3.31636 0
M  V30 15617 N 1447.06 0.947303 -1.25952 0
M  V30 15618 C 1447.99 2.0625 -1.09467 0
M  V30 15619 C 1448.97 1.701 -0.00160498 0
M  V30 15620 O 1450.16 1.93432 -0.172501 0
M  V30 15621 C 1447.29 3.39746 -0.720392 0
M  V30 15622 C 1446.24 3.89935 -1.76451 0
M  V30 15623 C 1445.57 5.2001 -1.24472 0
M  V30 15624 C 1446.87 4.15496 -3.16481 0
M  V30 15625 H 1448.56 2.203 -2.02752 0
M  V30 15626 H 1446.11 1.05858 -0.97622 0
M  V30 15627 H 1448.06 4.17221 -0.591972 0
M  V30 15628 H 1446.78 3.25656 0.248161 0
M  V30 15629 H 1445.44 3.14635 -1.8815 0
M  V30 15630 H 1445.09 5.02295 -0.266182 0
M  V30 15631 H 1444.79 5.54559 -1.94263 0
M  V30 15632 H 1446.31 6.00075 -1.12884 0
M  V30 15633 H 1447.73 4.83605 -3.07894 0
M  V30 15634 H 1446.12 4.61315 -3.83808 0
M  V30 15635 H 1447.19 3.21501 -3.62995 0
M  V30 15636 N 1448.54 1.07657 1.15099 0
M  V30 15637 C 1449.95 0.823828 1.67541 0
M  V30 15638 C 1450.3 -0.650601 1.85099 0
M  V30 15639 O 1449.43 -1.50333 1.55657 0
M  V30 15640 C 1450.02 1.4889 3.04331 0
M  V30 15641 C 1448.58 1.28359 3.53837 0
M  V30 15642 C 1447.73 1.55659 2.2949 0
M  V30 15643 H 1450.68 1.23819 0.992699 0
M  V30 15644 H 1450.7 0.911848 3.69412 0
M  V30 15645 H 1450.21 2.56199 2.9152 0
M  V30 15646 H 1448.31 0.230864 3.71884 0
M  V30 15647 H 1448.42 2.00593 4.35085 0
M  V30 15648 H 1446.79 0.977755 2.35185 0
M  V30 15649 H 1447.57 2.64157 2.19263 0
M  V30 15650 N 1450.02 -1.31994 0.861122 0
M  V30 15651 C 1450.95 -2.31214 0.325963 0
M  V30 15652 C 1451.93 -1.59965 -0.578383 0
M  V30 15653 O 1453.11 -1.87726 -0.497268 0
M  V30 15654 C 1450.24 -3.43953 -0.481001 0
M  V30 15655 C 1449.2 -4.2673 0.329474 0
M  V30 15656 C 1448.52 -5.31293 -0.602627 0
M  V30 15657 C 1449.82 -4.98498 1.55874 0
M  V30 15658 H 1451.52 -2.76223 1.15503 0
M  V30 15659 H 1449.06 -1.32797 0.556856 0
M  V30 15660 H 1451.02 -4.12409 -0.86585 0
M  V30 15661 H 1449.74 -2.97687 -1.3435 0
M  V30 15662 H 1448.4 -3.59929 0.696159 0
M  V30 15663 H 1448.05 -4.8128 -1.46215 0
M  V30 15664 H 1447.75 -5.87565 -0.0643044 0
M  V30 15665 H 1449.27 -6.02611 -0.984512 0
M  V30 15666 H 1450.68 -5.596 1.24583 0
M  V30 15667 H 1449.08 -5.64525 2.03548 0
M  V30 15668 H 1450.15 -4.25991 2.31646 0
M  V30 15669 N 1451.49 -0.619688 -1.44906 0
M  V30 15670 C 1452.44 0.104373 -2.32366 0
M  V30 15671 C 1453.44 0.847423 -1.4668 0
M  V30 15672 O 1454.64 0.761618 -1.63093 0
M  V30 15673 H 1451.02 0.0525126 -0.750164 0
M  V30 15674 H 1452.99 -0.651525 -2.912 0
M  V30 15675 C 1451.74 1.08017 -3.30496 0
M  V30 15676 H 1451.06 0.517831 -3.96432 0
M  V30 15677 H 1452.5 1.5565 -3.94397 0
M  V30 15678 C 1450.96 2.15975 -2.58566 0
M  V30 15679 O 1451.49 3.23895 -2.37603 0
M  V30 15680 N 1449.7 1.91593 -2.18496 0
M  V30 15681 H 1449.24 1.03835 -2.35746 0
M  V30 15682 H 1449.2 2.64028 -1.70694 0
M  V30 15683 N 1452.97 1.53444 -0.359552 0
M  V30 15684 C 1453.9 2.28475 0.4818 0
M  V30 15685 C 1454.88 1.30664 1.08908 0
M  V30 15686 O 1456.07 1.59527 1.10746 0
M  V30 15687 C 1453.2 3.06951 1.62477 0
M  V30 15688 C 1452.15 4.12399 1.14504 0
M  V30 15689 C 1451.48 4.78922 2.37777 0
M  V30 15690 C 1452.78 5.21775 0.234075 0
M  V30 15691 H 1454.47 2.99053 -0.144162 0
M  V30 15692 H 1452.02 1.43826 -0.0707746 0
M  V30 15693 H 1453.97 3.58186 2.21993 0
M  V30 15694 H 1452.7 2.34053 2.27787 0
M  V30 15695 H 1451.35 3.62101 0.572589 0
M  V30 15696 H 1451 4.02602 3.0153 0
M  V30 15697 H 1450.7 5.50175 2.06353 0
M  V30 15698 H 1452.23 5.32948 2.97991 0
M  V30 15699 H 1453.64 5.68549 0.736548 0
M  V30 15700 H 1452.04 6.00099 0.0109887 0
M  V30 15701 H 1453.11 4.79443 -0.725435 0
M  V30 15702 N 1454.45 0.0885642 1.57351 0
M  V30 15703 C 1455.86 -0.441569 1.81403 0
M  V30 15704 C 1456.21 -1.68582 1.00372 0
M  V30 15705 O 1455.34 -2.15162 0.231153 0
M  V30 15706 C 1455.93 -0.807886 3.29027 0
M  V30 15707 C 1454.49 -1.2828 3.53866 0
M  V30 15708 C 1453.64 -0.276217 2.75921 0
M  V30 15709 H 1456.59 0.314083 1.55561 0
M  V30 15710 H 1456.61 -1.66797 3.41993 0
M  V30 15711 H 1456.12 0.0978886 3.87977 0
M  V30 15712 H 1454.22 -2.2065 3.0024 0
M  V30 15713 H 1454.34 -1.24914 4.62529 0
M  V30 15714 H 1452.7 -0.757007 2.4319 0
M  V30 15715 H 1453.48 0.622123 3.37616 0
M  V30 15716 N 1455.93 -1.56509 -0.185096 0
M  V30 15717 C 1456.86 -1.91878 -1.25361 0
M  V30 15718 C 1457.87 -0.810443 -1.41194 0
M  V30 15719 O 1459.06 -1.08887 -1.41442 0
M  V30 15720 C 1456.16 -2.14433 -2.62434 0
M  V30 15721 C 1455.34 -3.45618 -2.6808 0
M  V30 15722 C 1454.39 -3.57165 -3.86419 0
M  V30 15723 O 1453.42 -4.29904 -3.73056 0
M  V30 15724 N 1454.62 -2.90993 -5.02298 0
M  V30 15725 H 1457.39 -2.84133 -0.953328 0
M  V30 15726 H 1454.95 -1.57498 -0.374955 0
M  V30 15727 H 1456.94 -2.19437 -3.40044 0
M  V30 15728 H 1455.51 -1.28629 -2.84909 0
M  V30 15729 H 1454.73 -3.52394 -1.76669 0
M  V30 15730 H 1456.02 -4.31968 -2.68851 0
M  V30 15731 H 1455.42 -2.31743 -5.16054 0
M  V30 15732 H 1453.97 -3.01611 -5.77819 0
M  V30 15733 N 1457.41 0.45317 -1.50944 0
M  V30 15734 C 1458.66 1.20076 -1.62064 0
M  V30 15735 C 1458.97 1.92709 -0.335034 0
M  V30 15736 O 1460.17 2.69543 -0.32538 0
M  V30 15737 C 1458.63 2.18283 -2.86148 0
M  V30 15738 C 1458.24 1.5137 -4.21653 0
M  V30 15739 C 1459.98 2.93572 -3.0662 0
M  V30 15740 C 1457.89 2.47968 -5.36904 0
M  V30 15741 H 1456.82 0.451894 -0.603579 0
M  V30 15742 H 1459.47 0.46937 -1.77396 0
M  V30 15743 H 1457.85 2.94789 -2.64415 0
M  V30 15744 H 1459.03 0.805295 -4.53709 0
M  V30 15745 H 1457.34 0.882935 -4.06931 0
M  V30 15746 H 1459.94 3.65903 -3.89897 0
M  V30 15747 H 1460.28 3.54003 -2.1906 0
M  V30 15748 H 1460.81 2.24175 -3.28619 0
M  V30 15749 H 1457.55 1.92249 -6.26674 0
M  V30 15750 H 1457.07 3.16907 -5.09244 0
M  V30 15751 H 1458.75 3.09428 -5.6821 0
M  V30 15752 N 1458.88 1.40823 0.707568 0
M  V30 15753 C 1460.3 1.35249 1.28704 0
M  V30 15754 C 1460.65 0.0298026 1.96177 0
M  V30 15755 O 1459.77 -0.872126 1.98048 0
M  V30 15756 C 1460.37 2.44965 2.34046 0
M  V30 15757 C 1458.93 2.42826 2.87598 0
M  V30 15758 C 1458.07 2.25429 1.61483 0
M  V30 15759 H 1461.02 1.50513 0.503141 0
M  V30 15760 H 1461.04 2.13334 3.1507 0
M  V30 15761 H 1460.56 3.41219 1.84908 0
M  V30 15762 H 1458.66 1.50294 3.40944 0
M  V30 15763 H 1458.77 3.38704 3.38845 0
M  V30 15764 H 1457.13 1.73089 1.86848 0
M  V30 15765 H 1457.92 3.23693 1.14359 0
M  V30 15766 N 1460.36 -0.94061 1.26453 0
M  V30 15767 C 1461.31 -2.06073 1.07873 0
M  V30 15768 C 1462.3 -1.69399 0.0055001 0
M  V30 15769 O 1463.51 -1.79267 0.162224 0
M  V30 15770 H 1459.89 -0.674748 0.331993 0
M  V30 15771 H 1461.86 -2.18895 2.02799 0
M  V30 15772 C 1460.61 -3.39971 0.729054 0
M  V30 15773 H 1459.93 -3.68667 1.54675 0
M  V30 15774 H 1461.37 -4.1916 0.638844 0
M  V30 15775 C 1459.83 -3.32114 -0.565835 0
M  V30 15776 O 1460.36 -3.68287 -1.60399 0
M  V30 15777 N 1458.56 -2.85218 -0.556679 0
M  V30 15778 H 1458.11 -2.55979 0.288541 0
M  V30 15779 H 1458.07 -2.80344 -1.42318 0
M  V30 15780 N 1461.84 -1.08266 -1.14527 0
M  V30 15781 C 1463.09 -0.806405 -1.84878 0
M  V30 15782 C 1463.4 0.670151 -1.83762 0
M  V30 15783 O 1464.61 1.06151 -2.49888 0
M  V30 15784 C 1463.06 -1.39257 -3.31867 0
M  V30 15785 C 1462.67 -2.90081 -3.41404 0
M  V30 15786 C 1464.42 -1.19475 -4.0734 0
M  V30 15787 C 1462.32 -3.41842 -4.82595 0
M  V30 15788 H 1461.25 -0.297993 -0.692615 0
M  V30 15789 H 1463.9 -1.30389 -1.29116 0
M  V30 15790 H 1462.29 -0.822802 -3.87358 0
M  V30 15791 H 1463.46 -3.53182 -2.95971 0
M  V30 15792 H 1461.78 -3.08761 -2.79385 0
M  V30 15793 H 1464.37 -1.55614 -5.11555 0
M  V30 15794 H 1464.72 -0.134455 -4.16083 0
M  V30 15795 H 1465.25 -1.73138 -3.58145 0
M  V30 15796 H 1461.99 -4.47439 -4.79039 0
M  V30 15797 H 1461.51 -2.835 -5.28572 0
M  V30 15798 H 1463.19 -3.38346 -5.51481 0
M  V30 15799 N 1463.32 1.31536 -0.86811 0
M  V30 15800 C 1464.54 2.01487 -0.491705 0
M  V30 15801 C 1464.97 1.64744 0.907803 0
M  V30 15802 O 1464.33 0.855093 1.59868 0
M  V30 15803 C 1464.38 3.54621 -0.65395 0
M  V30 15804 O 1463.48 4.11252 0.307532 0
M  V30 15805 H 1462.82 0.634469 -0.195819 0
M  V30 15806 H 1465.35 1.67775 -1.17101 0
M  V30 15807 H 1465.36 4.04323 -0.546539 0
M  V30 15808 H 1464.04 3.80704 -1.67443 0
M  V30 15809 H 1462.61 3.72577 0.155233 0
M  V30 15810 N 1464.8 0.627364 1.44575 0
M  V30 15811 C 1466.03 0.137313 2.06444 0
M  V30 15812 C 1466.44 -1.18655 1.46855 0
M  V30 15813 O 1465.8 -1.72699 0.590018 0
M  V30 15814 C 1465.85 0.0123481 3.61498 0
M  V30 15815 O 1465.57 1.28385 4.18866 0
M  V30 15816 C 1467.07 -0.506841 4.40393 0
M  V30 15817 H 1464.29 0.0779387 0.666458 0
M  V30 15818 H 1466.83 0.860701 1.85505 0
M  V30 15819 H 1464.99 -0.66146 3.81711 0
M  V30 15820 H 1465.4 1.12626 5.12265 0
M  V30 15821 H 1466.88 -0.543304 5.4932 0
M  V30 15822 H 1467.35 -1.53314 4.11572 0
M  V30 15823 H 1467.96 0.133589 4.2509 0
M  V30 15824 N 1466.28 -1.53251 0.367684 0
M  V30 15825 C 1467.24 -2.24423 -0.465516 0
M  V30 15826 C 1468.24 -1.25283 -1.00801 0
M  V30 15827 O 1469.43 -1.49545 -0.893424 0
M  V30 15828 C 1466.56 -2.9826 -1.65087 0
M  V30 15829 H 1467.75 -2.99487 0.157292 0
M  V30 15830 H 1465.31 -1.55843 0.119409 0
M  V30 15831 H 1466.04 -2.27443 -2.31171 0
M  V30 15832 H 1465.83 -3.71003 -1.26882 0
M  V30 15833 H 1467.32 -3.52358 -2.24128 0
M  V30 15834 N 1467.75 -0.0969077 -1.57302 0
M  V30 15835 C 1468.98 0.578086 -1.99181 0
M  V30 15836 C 1469.4 1.60818 -0.975667 0
M  V30 15837 O 1468.76 1.81215 0.0556054 0
M  V30 15838 C 1468.81 1.20076 -3.40021 0
M  V30 15839 O 1467.91 2.31656 -3.41188 0
M  V30 15840 H 1467.25 0.146506 -0.647636 0
M  V30 15841 H 1469.78 -0.178855 -2.03817 0
M  V30 15842 H 1469.79 1.54162 -3.77754 0
M  V30 15843 H 1468.47 0.446114 -4.135 0
M  V30 15844 H 1467.05 1.99175 -3.15252 0
M  V30 15845 N 1469.23 1.56605 0.176793 0
M  V30 15846 C 1470.48 1.82848 0.89097 0
M  V30 15847 C 1470.83 0.676661 1.80108 0
M  V30 15848 O 1470.13 -0.32721 1.88785 0
M  V30 15849 C 1470.32 3.12888 1.7273 0
M  V30 15850 C 1470.15 4.40609 0.899652 0
M  V30 15851 C 1468.92 5.01996 0.57688 0
M  V30 15852 C 1471.12 5.13722 0.243765 0
M  V30 15853 N 1469.1 6.13317 -0.267482 0
M  V30 15854 C 1470.47 6.18276 -0.461997 0
M  V30 15855 C 1472.52 4.97638 0.161367 0
M  V30 15856 C 1471.23 7.0849 -1.24233 0
M  V30 15857 C 1473.25 5.88291 -0.605623 0
M  V30 15858 C 1472.62 6.92304 -1.29977 0
M  V30 15859 H 1468.71 0.720143 0.304824 0
M  V30 15860 H 1471.3 1.94055 0.15834 0
M  V30 15861 H 1469.47 3.02883 2.43139 0
M  V30 15862 H 1471.2 3.27148 2.38236 0
M  V30 15863 H 1467.96 4.6486 0.905666 0
M  V30 15864 H 1468.38 6.73578 -0.679811 0
M  V30 15865 H 1473.02 4.17236 0.683677 0
M  V30 15866 H 1470.74 7.88342 -1.77601 0
M  V30 15867 H 1474.33 5.77918 -0.670976 0
M  V30 15868 H 1473.21 7.61239 -1.88375 0
M  V30 15869 N 1470.71 -0.445159 1.51182 0
M  V30 15870 C 1471.64 -1.55943 1.66604 0
M  V30 15871 C 1472.62 -1.54272 0.513703 0
M  V30 15872 O 1473.8 -1.73514 0.736548 0
M  V30 15873 C 1470.93 -2.94528 1.67245 0
M  V30 15874 C 1469.98 -3.14255 2.88351 0
M  V30 15875 S 1470.81 -2.91385 4.49283 0
M  V30 15876 C 1471.97 -4.32265 4.52656 0
M  V30 15877 H 1472.2 -1.42627 2.60854 0
M  V30 15878 H 1469.73 -0.634314 1.40769 0
M  V30 15879 H 1471.69 -3.74414 1.68299 0
M  V30 15880 H 1470.35 -3.05214 0.741856 0
M  V30 15881 H 1469.54 -4.1556 2.85177 0
M  V30 15882 H 1469.15 -2.42182 2.84998 0
M  V30 15883 H 1471.44 -5.25338 4.27816 0
M  V30 15884 H 1472.38 -4.40474 5.54426 0
M  V30 15885 H 1472.79 -4.15555 3.82066 0
M  V30 15886 N 1472.19 -1.41197 -0.700089 0
M  V30 15887 C 1473.6 -1.3593 -1.27985 0
M  V30 15888 C 1473.95 -0.0402059 -1.96159 0
M  V30 15889 O 1473.07 0.861611 -1.98508 0
M  V30 15890 C 1473.67 -2.46203 -2.32743 0
M  V30 15891 C 1472.23 -2.44348 -2.86306 0
M  V30 15892 C 1471.38 -2.26283 -1.60285 0
M  V30 15893 H 1474.33 -1.50778 -0.495152 0
M  V30 15894 H 1474.35 -2.15001 -3.13934 0
M  V30 15895 H 1473.86 -3.42195 -1.83096 0
M  V30 15896 H 1471.96 -1.521 -3.40142 0
M  V30 15897 H 1472.07 -3.40497 -3.37044 0
M  V30 15898 H 1470.44 -1.74078 -1.85928 0
M  V30 15899 H 1471.22 -3.24295 -1.1264 0
M  V30 15900 N 1473.67 0.933891 -1.2695 0
M  V30 15901 C 1474.89 1.72042 -1.15828 0
M  V30 15902 C 1475.32 1.85975 0.28193 0
M  V30 15903 O 1474.67 1.35528 1.20423 0
M  V30 15904 C 1474.72 3.10112 -1.84019 0
M  V30 15905 O 1473.83 3.96504 -1.13394 0
M  V30 15906 H 1473.17 0.527573 -0.40319 0
M  V30 15907 H 1475.7 1.16914 -1.67905 0
M  V30 15908 H 1475.71 3.60461 -1.91133 0
M  V30 15909 H 1474.38 2.99287 -2.8879 0
M  V30 15910 H 1472.96 3.54948 -1.14307 0
M  V30 15911 N 1475.14 1.08871 1.13951 0
M  V30 15912 C 1476.07 0.744715 2.21306 0
M  V30 15913 C 1477.05 -0.275019 1.67862 0
M  V30 15914 O 1478.24 -0.144339 1.93663 0
M  V30 15915 C 1475.37 0.158336 3.46939 0
M  V30 15916 C 1474.32 1.10695 4.13438 0
M  V30 15917 C 1473.65 0.382552 5.3333 0
M  V30 15918 C 1474.95 2.44704 4.61429 0
M  V30 15919 H 1476.64 1.6423 2.50337 0
M  V30 15920 H 1474.19 0.791088 1.20324 0
M  V30 15921 H 1476.14 -0.0943587 4.21294 0
M  V30 15922 H 1474.87 -0.774413 3.17286 0
M  V30 15923 H 1473.53 1.34482 3.41043 0
M  V30 15924 H 1473.17 -0.554153 4.99938 0
M  V30 15925 H 1472.87 1.01499 5.78767 0
M  V30 15926 H 1474.4 0.138023 6.10444 0
M  V30 15927 H 1475.81 2.25156 5.27236 0
M  V30 15928 H 1474.21 3.03684 5.17586 0
M  V30 15929 H 1475.28 3.05883 3.76249 0
M  V30 15930 N 1476.62 -1.31073 0.875073 0
M  V30 15931 C 1477.85 -2.00397 0.50245 0
M  V30 15932 C 1478.26 -1.65826 -0.910951 0
M  V30 15933 O 1477.6 -0.886276 -1.60906 0
M  V30 15934 C 1477.66 -3.54696 0.585744 0
M  V30 15935 C 1477.33 -4.12756 1.96167 0
M  V30 15936 C 1478.33 -4.29484 2.92984 0
M  V30 15937 C 1476.01 -4.48365 2.26437 0
M  V30 15938 C 1478 -4.81019 4.18209 0
M  V30 15939 C 1475.69 -4.99601 3.51912 0
M  V30 15940 C 1476.69 -5.1588 4.47613 0
M  V30 15941 O 1476.38 -5.66014 5.70862 0
M  V30 15942 H 1476.11 -0.647645 0.193733 0
M  V30 15943 H 1478.66 -1.6816 1.17947 0
M  V30 15944 H 1476.89 -3.86416 -0.148214 0
M  V30 15945 H 1478.58 -4.05271 0.225818 0
M  V30 15946 H 1479.35 -4.02286 2.70907 0
M  V30 15947 H 1475.23 -4.34968 1.52721 0
M  V30 15948 H 1478.77 -4.9364 4.92915 0
M  V30 15949 H 1474.67 -5.26234 3.73829 0
M  V30 15950 H 1475.44 -5.84374 5.73105 0
M  V30 15951 N 1478.1 -0.635022 -1.4424 0
M  V30 15952 C 1479.01 0.0686832 -2.34499 0
M  V30 15953 C 1480.03 0.831574 -1.52843 0
M  V30 15954 O 1481.2 0.782954 -1.85558 0
M  V30 15955 C 1478.27 1.03543 -3.30877 0
M  V30 15956 C 1477.33 0.271484 -4.28441 0
M  V30 15957 C 1476.56 1.19218 -5.20214 0
M  V30 15958 O 1476.78 2.43101 -5.16002 0
M  V30 15959 O 1475.72 0.6744 -5.9811 0
M  V30 15960 H 1479.54 -0.673781 -2.96132 0
M  V30 15961 H 1477.13 -0.395211 -1.44078 0
M  V30 15962 H 1479.01 1.59151 -3.90191 0
M  V30 15963 H 1477.69 1.75844 -2.71773 0
M  V30 15964 H 1476.59 -0.327736 -3.72662 0
M  V30 15965 H 1477.93 -0.411584 -4.90476 0
M  V30 15966 N 1479.58 1.53054 -0.375806 0
M  V30 15967 C 1480.8 2.06296 0.213708 0
M  V30 15968 C 1481.23 1.24675 1.40846 0
M  V30 15969 O 1480.59 0.268371 1.79303 0
M  V30 15970 C 1480.63 3.55981 0.575301 0
M  V30 15971 O 1479.74 3.77023 1.67115 0
M  V30 15972 H 1479.08 0.66338 0.0286922 0
M  V30 15973 H 1481.61 1.97362 -0.539371 0
M  V30 15974 H 1481.62 3.99187 0.843431 0
M  V30 15975 H 1480.29 4.14829 -0.298258 0
M  V30 15976 H 1478.87 3.45712 1.39778 0
M  V30 15977 N 1481.06 0.105248 1.57248 0
M  V30 15978 C 1482.28 -0.564157 1.9906 0
M  V30 15979 C 1482.7 -1.61092 0.984624 0
M  V30 15980 O 1482.06 -1.82484 -0.0244031 0
M  V30 15981 C 1482.11 -1.20272 3.40906 0
M  V30 15982 O 1481.83 -0.197815 4.37653 0
M  V30 15983 C 1483.33 -1.95677 3.97776 0
M  V30 15984 H 1480.55 -0.150468 0.653912 0
M  V30 15985 H 1483.09 0.187532 2.03638 0
M  V30 15986 H 1481.25 -1.90528 3.3731 0
M  V30 15987 H 1481.66 -0.659998 5.20331 0
M  V30 15988 H 1483.14 -2.35702 4.99148 0
M  V30 15989 H 1483.61 -2.82661 3.36154 0
M  V30 15990 H 1484.22 -1.30215 4.04876 0
M  V30 15991 N 1482.53 -1.56697 -0.168486 0
M  V30 15992 C 1483.48 -1.9755 -1.22787 0
M  V30 15993 C 1484.48 -0.864668 -1.4567 0
M  V30 15994 O 1485.68 -1.04979 -1.46217 0
M  V30 15995 H 1482.06 -0.628561 -0.412813 0
M  V30 15996 H 1484.03 -2.85845 -0.85646 0
M  V30 15997 C 1482.78 -2.35394 -2.559 0
M  V30 15998 H 1482.1 -3.20412 -2.39115 0
M  V30 15999 H 1483.54 -2.67821 -3.28706 0
M  V30 16000 C 1482 -1.19842 -3.14864 0
M  V30 16001 O 1482.53 -0.487601 -3.9873 0
M  V30 16002 N 1480.74 -0.968249 -2.73995 0
M  V30 16003 H 1480.28 -1.54804 -2.05897 0
M  V30 16004 H 1480.24 -0.196951 -3.13783 0
M  V30 16005 N 1484.01 0.437135 -1.51416 0
M  V30 16006 C 1485.26 1.18421 -1.63771 0
M  V30 16007 C 1485.58 1.91718 -0.356282 0
M  V30 16008 O 1484.85 1.85566 0.627863 0
M  V30 16009 H 1483.43 0.440125 -0.603572 0
M  V30 16010 H 1486.09 0.501155 -1.88347 0
M  V30 16011 H 1485.19 1.91367 -2.46546 0
M  V30 16012 N 1485.49 1.41566 0.692592 0
M  V30 16013 C 1486.72 1.44646 1.48635 0
M  V30 16014 C 1487.14 0.0541597 1.88022 0
M  V30 16015 O 1486.5 -0.943305 1.54827 0
M  V30 16016 C 1486.55 2.3636 2.72335 0
M  V30 16017 O 1485.65 1.8227 3.69934 0
M  V30 16018 H 1484.99 0.490791 0.447236 0
M  V30 16019 H 1487.52 1.8606 0.851056 0
M  V30 16020 H 1487.53 2.52337 3.20609 0
M  V30 16021 H 1486.21 3.37523 2.43004 0
M  V30 16022 H 1484.78 1.75759 3.28882 0
M  V30 16023 N 1486.97 -0.927146 1.27443 0
M  V30 16024 C 1487.93 -2.00938 1.10257 0
M  V30 16025 C 1488.93 -1.60733 0.0463898 0
M  V30 16026 O 1490.12 -1.71752 0.291029 0
M  V30 16027 C 1487.25 -3.34047 0.680115 0
M  V30 16028 H 1488.45 -2.17615 2.06358 0
M  V30 16029 H 1486 -1.10802 1.10239 0
M  V30 16030 H 1486.73 -3.23069 -0.282259 0
M  V30 16031 H 1486.52 -3.64585 1.44291 0
M  V30 16032 H 1488.01 -4.13523 0.582126 0
M  V30 16033 N 1488.45 -1.09474 -1.13372 0
M  V30 16034 C 1489.67 -0.852921 -1.88502 0
M  V30 16035 C 1490.09 0.595855 -1.79151 0
M  V30 16036 O 1489.45 1.41019 -1.15845 0
M  V30 16037 C 1489.5 -1.27993 -3.38083 0
M  V30 16038 O 1489.22 -2.67189 -3.47191 0
M  V30 16039 C 1490.72 -1.07056 -4.30179 0
M  V30 16040 H 1487.94 -0.30682 -0.596743 0
M  V30 16041 H 1490.48 -1.45685 -1.43513 0
M  V30 16042 H 1488.64 -0.719879 -3.80653 0
M  V30 16043 H 1489.05 -2.85202 -4.40182 0
M  V30 16044 H 1490.53 -1.4186 -5.3346 0
M  V30 16045 H 1491 -0.00838732 -4.39199 0
M  V30 16046 H 1491.61 -1.61659 -3.93378 0
M  V30 16047 N 1489.92 1.30607 -0.882012 0
M  V30 16048 C 1491.15 2.00954 -0.513048 0
M  V30 16049 C 1491.57 1.65697 0.890279 0
M  V30 16050 O 1490.93 0.872001 1.58952 0
M  V30 16051 C 1490.98 3.53907 -0.691525 0
M  V30 16052 O 1490.08 4.11555 0.263896 0
M  V30 16053 H 1489.43 0.632356 -0.202537 0
M  V30 16054 H 1491.96 1.66524 -1.18874 0
M  V30 16055 H 1491.97 4.0372 -0.589392 0
M  V30 16056 H 1490.64 3.78907 -1.71471 0
M  V30 16057 H 1489.22 3.7272 0.115707 0
M  V30 16058 N 1491.4 0.642663 1.43901 0
M  V30 16059 C 1492.31 -0.0562462 2.34533 0
M  V30 16060 C 1493.33 -0.823457 1.53281 0
M  V30 16061 O 1494.5 -0.773103 1.85971 0
M  V30 16062 C 1491.57 -1.01787 3.31422 0
M  V30 16063 C 1490.63 -0.248759 4.28579 0
M  V30 16064 C 1489.86 -1.16458 5.20839 0
M  V30 16065 O 1490.09 -2.40361 5.17284 0
M  V30 16066 O 1489.02 -0.642671 5.98459 0
M  V30 16067 H 1492.85 0.689476 2.9577 0
M  V30 16068 H 1490.43 0.402847 1.43866 0
M  V30 16069 H 1492.31 -1.5708 3.91029 0
M  V30 16070 H 1490.99 -1.744 2.72702 0
M  V30 16071 H 1489.9 0.347495 3.72483 0
M  V30 16072 H 1491.23 0.437589 4.90251 0
M  V30 16073 N 1492.88 -1.52852 0.383918 0
M  V30 16074 C 1494.16 -1.939 -0.25729 0
M  V30 16075 C 1494.54 -1.31895 -1.64824 0
M  V30 16076 O 1493.89 -0.484987 -2.23294 0
M  V30 16077 C 1494.1 -3.47801 -0.289064 0
M  V30 16078 C 1495.44 -4.21396 -0.520611 0
M  V30 16079 O 1496.47 -3.54278 -0.369502 0
M  V30 16080 O 1495.33 -5.4037 -0.816254 0
M  V30 16081 H 1492.42 -0.811658 -0.158558 0
M  V30 16082 H 1494.97 -1.63949 0.438034 0
M  V30 16083 H 1493.74 -3.8525 0.685441 0
M  V30 16084 H 1493.36 -3.8404 -1.02953 0
M  V30 16085 N 1494.36 -0.113586 -1.5719 0
M  V30 16086 C 1495.29 0.835363 -2.18046 0
M  V30 16087 C 1496.27 1.28114 -1.11897 0
M  V30 16088 O 1497.46 1.34472 -1.40111 0
M  V30 16089 C 1494.59 2.08759 -2.77556 0
M  V30 16090 C 1493.54 1.77979 -3.8924 0
M  V30 16091 C 1492.87 3.10185 -4.35533 0
M  V30 16092 C 1494.17 1.05231 -5.11589 0
M  V30 16093 H 1495.86 0.328275 -2.97595 0
M  V30 16094 H 1493.41 0.156456 -1.43148 0
M  V30 16095 H 1495.36 2.75597 -3.18785 0
M  V30 16096 H 1494.08 2.61783 -1.95288 0
M  V30 16097 H 1492.74 1.13532 -3.48577 0
M  V30 16098 H 1492.39 3.61133 -3.50131 0
M  V30 16099 H 1492.09 2.90367 -5.10843 0
M  V30 16100 H 1493.61 3.78151 -4.7941 0
M  V30 16101 H 1495.03 1.62213 -5.49872 0
M  V30 16102 H 1493.42 0.955269 -5.92448 0
M  V30 16103 H 1494.49 0.038137 -4.84885 0
M  V30 16104 N 1495.84 1.56784 0.160173 0
M  V30 16105 C 1497.08 1.82621 0.874982 0
M  V30 16106 C 1497.41 0.692427 1.81757 0
M  V30 16107 O 1496.67 -0.319535 1.93074 0
M  V30 16108 C 1496.97 3.14703 1.69402 0
M  V30 16109 C 1496.63 4.41839 0.899373 0
M  V30 16110 C 1495.29 4.7637 0.680099 0
M  V30 16111 C 1497.65 5.20072 0.342747 0
M  V30 16112 C 1494.97 5.86603 -0.106723 0
M  V30 16113 C 1497.33 6.3113 -0.431044 0
M  V30 16114 C 1495.99 6.64219 -0.661017 0
M  V30 16115 H 1495.26 0.668256 0.320178 0
M  V30 16116 H 1497.91 1.90993 0.139305 0
M  V30 16117 H 1496.21 3.01723 2.49941 0
M  V30 16118 H 1497.91 3.31906 2.25032 0
M  V30 16119 H 1494.5 4.14761 1.08033 0
M  V30 16120 H 1498.68 4.9378 0.499467 0
M  V30 16121 H 1493.94 6.1069 -0.294528 0
M  V30 16122 H 1498.11 6.9095 -0.869557 0
M  V30 16123 H 1495.74 7.49473 -1.27257 0
M  V30 16124 N 1497.32 -0.429099 1.51646 0
M  V30 16125 C 1498.56 -1.17644 1.65926 0
M  V30 16126 C 1498.92 -1.88715 0.374777 0
M  V30 16127 O 1498.21 -1.80952 -0.629842 0
M  V30 16128 C 1498.4 -2.2131 2.80636 0
M  V30 16129 C 1498.23 -1.60416 4.20115 0
M  V30 16130 C 1497 -1.38551 4.85934 0
M  V30 16131 C 1499.2 -1.07589 5.0292 0
M  V30 16132 N 1497.18 -0.733404 6.09503 0
M  V30 16133 C 1498.55 -0.549542 6.1756 0
M  V30 16134 C 1500.61 -0.968438 4.88391 0
M  V30 16135 C 1499.31 0.07371 7.19262 0
M  V30 16136 C 1501.34 -0.359068 5.90309 0
M  V30 16137 C 1500.7 0.156699 7.04226 0
M  V30 16138 H 1496.8 -0.417871 0.66099 0
M  V30 16139 H 1499.38 -0.471789 1.88897 0
M  V30 16140 H 1497.55 -2.89155 2.59314 0
M  V30 16141 H 1499.29 -2.88263 2.84054 0
M  V30 16142 H 1496.04 -1.64953 4.43945 0
M  V30 16143 H 1496.46 -0.424555 6.75667 0
M  V30 16144 H 1501.11 -1.35305 4.00565 0
M  V30 16145 H 1498.82 0.470433 8.0673 0
M  V30 16146 H 1502.41 -0.277718 5.81137 0
M  V30 16147 H 1501.29 0.62081 7.81739 0
M  V30 16148 N 1498.79 -1.41931 -0.685074 0
M  V30 16149 C 1499.74 -1.44604 -1.79884 0
M  V30 16150 C 1500.71 -0.299166 -1.63384 0
M  V30 16151 O 1501.9 -0.501749 -1.84085 0
M  V30 16152 C 1499.04 -1.3442 -3.17845 0
M  V30 16153 C 1498.15 -2.59061 -3.45704 0
M  V30 16154 C 1497.28 -2.41094 -4.73336 0
M  V30 16155 C 1496.32 -3.61159 -4.94197 0
M  V30 16156 N 1495.46 -3.42198 -6.13062 0
M  V30 16157 H 1500.3 -2.39788 -1.76934 0
M  V30 16158 H 1497.84 -1.1906 -0.863891 0
M  V30 16159 H 1499.79 -1.26515 -3.97555 0
M  V30 16160 H 1498.42 -0.42838 -3.19945 0
M  V30 16161 H 1497.48 -2.77374 -2.60322 0
M  V30 16162 H 1498.79 -3.48341 -3.57016 0
M  V30 16163 H 1497.94 -2.30717 -5.61119 0
M  V30 16164 H 1496.68 -1.49288 -4.64289 0
M  V30 16165 H 1495.69 -3.7198 -4.04859 0
M  V30 16166 H 1496.91 -4.53933 -5.05096 0
M  V30 16167 H 1494.86 -2.531 -6.05208 0
M  V30 16168 H 1494.77 -4.25059 -6.25189 0
M  V30 16169 H 1496.04 -3.35612 -7.03551 0
M  V30 16170 N 1500.27 0.920374 -1.27933 0
M  V30 16171 C 1501.2 2.03882 -1.13817 0
M  V30 16172 C 1502.18 1.70058 -0.0376853 0
M  V30 16173 O 1503.37 1.93023 -0.213492 0
M  V30 16174 C 1500.5 3.38142 -0.792296 0
M  V30 16175 C 1499.45 3.86104 -1.84683 0
M  V30 16176 C 1498.78 5.17253 -1.35474 0
M  V30 16177 C 1500.08 4.0869 -3.25223 0
M  V30 16178 H 1501.77 2.15949 -2.07379 0
M  V30 16179 H 1499.32 1.03764 -0.998454 0
M  V30 16180 H 1501.27 4.15872 -0.680337 0
M  V30 16181 H 1499.99 3.26109 0.179029 0
M  V30 16182 H 1498.65 3.10573 -1.94782 0
M  V30 16183 H 1498.3 5.01618 -0.372666 0
M  V30 16184 H 1498 5.50314 -2.05982 0
M  V30 16185 H 1499.53 5.97545 -1.25587 0
M  V30 16186 H 1500.94 4.76965 -3.18083 0
M  V30 16187 H 1499.34 4.5307 -3.93507 0
M  V30 16188 H 1500.41 3.13729 -3.69733 0
M  V30 16189 N 1501.75 1.10074 1.1279 0
M  V30 16190 C 1503.03 0.753069 1.80522 0
M  V30 16191 C 1503.41 -0.760982 1.96907 0
M  V30 16192 O 1502.75 -1.68584 1.54245 0
M  V30 16193 C 1502.96 1.49982 3.15129 0
M  V30 16194 C 1504.31 1.66993 3.90382 0
M  V30 16195 O 1505.34 1.46289 3.24774 0
M  V30 16196 O 1504.2 2.01293 5.08078 0
M  V30 16197 H 1501.29 0.271277 0.781241 0
M  V30 16198 H 1503.84 1.20333 1.19658 0
M  V30 16199 H 1502.61 2.53043 2.98471 0
M  V30 16200 H 1502.23 1.04217 3.83699 0
M  V30 16201 N 1503.23 -1.30138 0.888926 0
M  V30 16202 C 1504.19 -2.26299 0.363504 0
M  V30 16203 C 1505.19 -1.52951 -0.496244 0
M  V30 16204 O 1506.38 -1.71548 -0.302834 0
M  V30 16205 C 1503.51 -3.37482 -0.481544 0
M  V30 16206 H 1504.71 -2.7429 1.21265 0
M  V30 16207 H 1502.26 -1.41395 0.666124 0
M  V30 16208 H 1502.99 -2.94814 -1.35112 0
M  V30 16209 H 1502.78 -3.9187 0.134344 0
M  V30 16210 H 1504.27 -4.09048 -0.840816 0
M  V30 16211 N 1504.71 -0.650285 -1.43559 0
M  V30 16212 C 1505.64 0.0295939 -2.33481 0
M  V30 16213 C 1506.62 0.815017 -1.49303 0
M  V30 16214 O 1507.8 0.77708 -1.77975 0
M  V30 16215 C 1504.93 0.998683 -3.32631 0
M  V30 16216 C 1503.89 0.323577 -4.26775 0
M  V30 16217 C 1503.21 1.40391 -5.1594 0
M  V30 16218 C 1504.51 -0.782197 -5.1641 0
M  V30 16219 H 1506.21 -0.721349 -2.9058 0
M  V30 16220 H 1503.75 -0.348339 -1.39723 0
M  V30 16221 H 1505.7 1.4832 -3.94435 0
M  V30 16222 H 1504.43 1.78075 -2.73782 0
M  V30 16223 H 1503.09 -0.140467 -3.66331 0
M  V30 16224 H 1502.74 2.17734 -4.53432 0
M  V30 16225 H 1502.44 0.957462 -5.79747 0
M  V30 16226 H 1503.96 1.88985 -5.80618 0
M  V30 16227 H 1505.37 -0.379966 -5.72039 0
M  V30 16228 H 1503.77 -1.15293 -5.88921 0
M  V30 16229 H 1504.84 -1.6414 -4.56274 0
M  V30 16230 N 1506.18 1.52647 -0.392018 0
M  V30 16231 C 1507.12 2.24183 0.476934 0
M  V30 16232 C 1508.13 1.26526 1.02446 0
M  V30 16233 O 1509.32 1.52583 0.92632 0
M  V30 16234 C 1506.42 2.94672 1.67397 0
M  V30 16235 C 1505.59 4.19058 1.25335 0
M  V30 16236 C 1504.65 4.72522 2.31537 0
M  V30 16237 O 1503.68 5.35541 1.92833 0
M  V30 16238 N 1504.88 4.52613 3.63486 0
M  V30 16239 H 1507.64 2.99391 -0.135963 0
M  V30 16240 H 1505.2 1.60419 -0.218514 0
M  V30 16241 H 1507.2 3.27338 2.37975 0
M  V30 16242 H 1505.77 2.22755 2.19315 0
M  V30 16243 H 1504.99 3.92399 0.376352 0
M  V30 16244 H 1506.27 4.99871 0.94901 0
M  V30 16245 H 1505.67 4.02316 3.97692 0
M  V30 16246 H 1504.23 4.89761 4.3009 0
M  V30 16247 N 1507.66 0.121921 1.57128 0
M  V30 16248 C 1508.6 -0.864553 2.11189 0
M  V30 16249 C 1509.57 -1.25896 1.02902 0
M  V30 16250 O 1510.76 -1.3595 1.30575 0
M  V30 16251 C 1507.88 -2.15742 2.611 0
M  V30 16252 C 1506.93 -1.91085 3.81299 0
M  V30 16253 S 1507.76 -1.12448 5.23561 0
M  V30 16254 C 1508.92 -2.42908 5.76842 0
M  V30 16255 H 1509.15 -0.404737 2.94532 0
M  V30 16256 H 1506.69 -0.091909 1.54126 0
M  V30 16257 H 1508.64 -2.90024 2.9051 0
M  V30 16258 H 1507.3 -2.58841 1.77933 0
M  V30 16259 H 1506.5 -2.86889 4.1438 0
M  V30 16260 H 1506.1 -1.24922 3.5252 0
M  V30 16261 H 1508.39 -3.38728 5.86745 0
M  V30 16262 H 1509.33 -2.14367 6.74872 0
M  V30 16263 H 1509.74 -2.52409 5.04926 0
M  V30 16264 N 1509.14 -1.56867 -0.151857 0
M  V30 16265 C 1510.39 -1.83082 -0.865285 0
M  V30 16266 C 1510.72 -0.702056 -1.81387 0
M  V30 16267 O 1509.97 0.309291 -1.9324 0
M  V30 16268 C 1510.27 -3.15597 -1.6773 0
M  V30 16269 C 1509.94 -4.4231 -0.875929 0
M  V30 16270 C 1508.6 -4.76724 -0.654826 0
M  V30 16271 C 1510.95 -5.20246 -0.315162 0
M  V30 16272 C 1508.28 -5.86538 0.13783 0
M  V30 16273 C 1510.63 -6.30892 0.464508 0
M  V30 16274 C 1509.29 -6.63859 0.696233 0
M  V30 16275 H 1508.56 -0.669945 -0.31663 0
M  V30 16276 H 1511.21 -1.91064 -0.129175 0
M  V30 16277 H 1509.52 -3.03044 -2.48338 0
M  V30 16278 H 1511.21 -3.33094 -2.23269 0
M  V30 16279 H 1507.8 -4.15328 -1.05832 0
M  V30 16280 H 1511.99 -4.94038 -0.473273 0
M  V30 16281 H 1507.24 -6.10525 0.32691 0
M  V30 16282 H 1511.42 -6.90479 0.906187 0
M  V30 16283 H 1509.04 -7.48788 1.3123 0
M  V30 16284 N 1510.62 0.421051 -1.51871 0
M  V30 16285 C 1511.86 1.17082 -1.65589 0
M  V30 16286 C 1512.2 1.90469 -0.378861 0
M  V30 16287 O 1511.47 1.84277 0.622259 0
M  V30 16288 C 1511.76 2.17483 -2.87007 0
M  V30 16289 C 1511.61 1.48071 -4.24729 0
M  V30 16290 C 1512.93 3.18288 -3.03942 0
M  V30 16291 H 1510.05 0.424284 -0.602621 0
M  V30 16292 H 1512.69 0.457998 -1.84397 0
M  V30 16293 H 1510.84 2.78273 -2.71102 0
M  V30 16294 H 1512.51 0.904926 -4.52337 0
M  V30 16295 H 1510.75 0.782814 -4.26678 0
M  V30 16296 H 1511.42 2.21272 -5.0571 0
M  V30 16297 H 1513.9 2.67565 -3.18666 0
M  V30 16298 H 1512.78 3.85815 -3.90433 0
M  V30 16299 H 1513.04 3.85333 -2.16728 0
M  V30 16300 N 1512.1 1.42293 0.677538 0
M  V30 16301 C 1513.34 1.42616 1.4376 0
M  V30 16302 C 1513.67 0.0416268 1.94455 0
M  V30 16303 O 1512.93 -0.949544 1.7112 0
M  V30 16304 C 1513.23 2.3951 2.65273 0
M  V30 16305 C 1512.89 3.85952 2.33135 0
M  V30 16306 C 1511.55 4.25842 2.24081 0
M  V30 16307 C 1513.91 4.78337 2.06987 0
M  V30 16308 C 1511.23 5.561 1.87001 0
M  V30 16309 C 1513.59 6.08934 1.71411 0
M  V30 16310 C 1512.25 6.47826 1.60865 0
M  V30 16311 H 1511.52 0.521869 0.526055 0
M  V30 16312 H 1514.17 1.75214 0.772797 0
M  V30 16313 H 1512.47 2.00229 3.36773 0
M  V30 16314 H 1514.17 2.37025 3.2345 0
M  V30 16315 H 1510.76 3.54369 2.41083 0
M  V30 16316 H 1514.94 4.48308 2.12916 0
M  V30 16317 H 1510.2 5.85097 1.77403 0
M  V30 16318 H 1514.37 6.80009 1.50203 0
M  V30 16319 H 1512 7.48669 1.31902 0
M  V30 16320 N 1513.57 -0.913576 1.28419 0
M  V30 16321 C 1514.85 -1.64203 1.06285 0
M  V30 16322 C 1515.23 -2.07319 -0.397728 0
M  V30 16323 O 1514.58 -1.8183 -1.38383 0
M  V30 16324 C 1514.79 -2.8334 2.03763 0
M  V30 16325 C 1516.14 -3.54355 2.33918 0
M  V30 16326 O 1517.16 -2.93489 2.01848 0
M  V30 16327 O 1516.02 -4.6405 2.88652 0
M  V30 16328 H 1513.11 -0.720359 0.406217 0
M  V30 16329 H 1515.66 -0.962866 1.39739 0
M  V30 16330 H 1514.43 -2.48575 3.02203 0
M  V30 16331 H 1514.06 -3.5897 1.70956 0
M  V30 16332 N 1515.05 -1.1067 -1.12204 0
M  V30 16333 C 1515.98 -0.779829 -2.20093 0
M  V30 16334 C 1516.96 0.248279 -1.68278 0
M  V30 16335 O 1518.15 0.113511 -1.93868 0
M  V30 16336 C 1515.28 -0.213511 -3.46643 0
M  V30 16337 C 1514.23 -1.17258 -4.11624 0
M  V30 16338 C 1513.56 -0.467352 -5.32654 0
M  V30 16339 C 1514.86 -2.52014 -4.57478 0
M  V30 16340 H 1516.55 -1.68192 -2.47693 0
M  V30 16341 H 1514.1 -0.810131 -1.1905 0
M  V30 16342 H 1516.05 0.0273225 -4.21391 0
M  V30 16343 H 1514.78 0.723837 -3.18478 0
M  V30 16344 H 1513.43 -1.39891 -3.3886 0
M  V30 16345 H 1513.08 0.474547 -5.00756 0
M  V30 16346 H 1512.78 -1.10694 -5.77079 0
M  V30 16347 H 1514.31 -0.235122 -6.10147 0
M  V30 16348 H 1515.72 -2.33516 -5.23587 0
M  V30 16349 H 1514.12 -3.1188 -5.1269 0
M  V30 16350 H 1515.19 -3.11831 -3.71335 0
M  V30 16351 N 1516.53 1.29665 -0.895815 0
M  V30 16352 C 1517.48 2.2542 -0.34201 0
M  V30 16353 C 1518.46 1.5172 0.535712 0
M  V30 16354 O 1519.66 1.72909 0.378364 0
M  V30 16355 C 1516.79 3.4056 0.43287 0
M  V30 16356 C 1515.87 4.21603 -0.459552 0
M  V30 16357 N 1516.26 4.8098 -1.565 0
M  V30 16358 C 1514.56 4.45261 -0.256632 0
M  V30 16359 C 1515.26 5.41792 -2.11746 0
M  V30 16360 N 1514.24 5.24968 -1.411 0
M  V30 16361 H 1518.04 2.68885 -1.18651 0
M  V30 16362 H 1515.55 1.4423 -0.74643 0
M  V30 16363 H 1517.55 4.08219 0.846334 0
M  V30 16364 H 1516.21 2.98633 1.27468 0
M  V30 16365 H 1517.22 4.79877 -1.94777 0
M  V30 16366 H 1513.9 4.13899 0.547131 0
M  V30 16367 H 1515.29 5.9887 -3.04637 0
M  V30 16368 N 1518.01 0.657889 1.43212 0
M  V30 16369 C 1519.25 0.182061 2.02584 0
M  V30 16370 C 1519.61 -1.19232 1.51002 0
M  V30 16371 O 1518.9 -1.78535 0.6954 0
M  V30 16372 C 1519.1 0.138025 3.57133 0
M  V30 16373 C 1518.93 1.5066 4.23712 0
M  V30 16374 C 1517.7 2.10015 4.59589 0
M  V30 16375 C 1519.89 2.44593 4.52414 0
M  V30 16376 N 1517.88 3.39828 5.11263 0
M  V30 16377 C 1519.25 3.59044 5.05457 0
M  V30 16378 C 1521.3 2.43337 4.34387 0
M  V30 16379 C 1520 4.7247 5.4237 0
M  V30 16380 C 1522.03 3.55846 4.72364 0
M  V30 16381 C 1521.39 4.69023 5.25544 0
M  V30 16382 H 1517.49 0.111158 0.774059 0
M  V30 16383 H 1520.08 0.867208 1.7432 0
M  V30 16384 H 1518.25 -0.516479 3.84951 0
M  V30 16385 H 1519.98 -0.34911 4.03191 0
M  V30 16386 H 1516.73 1.62676 4.44785 0
M  V30 16387 H 1517.16 4.06269 5.41548 0
M  V30 16388 H 1521.8 1.57072 3.92541 0
M  V30 16389 H 1519.52 5.59423 5.83157 0
M  V30 16390 H 1523.1 3.56081 4.60106 0
M  V30 16391 H 1521.98 5.54641 5.54385 0
M  V30 16392 N 1519.49 -1.52437 0.400108 0
M  V30 16393 C 1520.9 -1.86563 -0.0715162 0
M  V30 16394 C 1521.25 -1.3193 -1.4522 0
M  V30 16395 O 1520.37 -0.654955 -2.06251 0
M  V30 16396 C 1520.97 -3.38525 -0.13655 0
M  V30 16397 C 1519.53 -3.72323 -0.55249 0
M  V30 16398 C 1518.67 -2.75896 0.278729 0
M  V30 16399 H 1521.63 -1.46192 0.617547 0
M  V30 16400 H 1521.65 -3.68357 -0.953588 0
M  V30 16401 H 1521.16 -3.78258 0.868468 0
M  V30 16402 H 1519.26 -3.38164 -1.56448 0
M  V30 16403 H 1519.37 -4.7814 -0.303139 0
M  V30 16404 H 1517.74 -2.53394 -0.257608 0
M  V30 16405 H 1518.52 -3.18467 1.28193 0
M  V30 16406 N 1520.96 -0.130252 -1.57061 0
M  V30 16407 C 1521.87 0.829198 -2.19457 0
M  V30 16408 C 1522.89 1.2843 -1.17395 0
M  V30 16409 O 1524.07 1.34496 -1.49909 0
M  V30 16410 C 1521.13 2.05727 -2.79065 0
M  V30 16411 C 1520.19 1.65301 -3.962 0
M  V30 16412 C 1519.43 2.82253 -4.52956 0
M  V30 16413 O 1519.65 3.97999 -4.08598 0
M  V30 16414 O 1518.58 2.5869 -5.43473 0
M  V30 16415 H 1522.41 0.328139 -3.01922 0
M  V30 16416 H 1519.99 0.0959361 -1.49092 0
M  V30 16417 H 1521.88 2.7763 -3.17017 0
M  V30 16418 H 1520.55 2.54817 -1.99624 0
M  V30 16419 H 1519.46 0.904712 -3.62996 0
M  V30 16420 H 1520.79 1.20942 -4.7711 0
M  V30 16421 N 1522.44 1.56945 0.143535 0
M  V30 16422 C 1523.38 1.95134 1.2023 0
M  V30 16423 C 1524.39 0.847593 1.38995 0
M  V30 16424 O 1525.58 1.12599 1.38505 0
M  V30 16425 C 1522.68 2.21316 2.56656 0
M  V30 16426 C 1521.85 3.52604 2.58822 0
M  V30 16427 C 1520.91 3.67285 3.76813 0
M  V30 16428 O 1519.94 4.39644 3.61527 0
M  V30 16429 N 1521.14 3.04208 4.94406 0
M  V30 16430 H 1523.9 2.86561 0.87766 0
M  V30 16431 H 1521.46 1.58437 0.333065 0
M  V30 16432 H 1523.46 2.28375 3.34106 0
M  V30 16433 H 1522.03 1.36137 2.81399 0
M  V30 16434 H 1521.25 3.56954 1.67264 0
M  V30 16435 H 1522.53 4.38944 2.57304 0
M  V30 16436 H 1521.93 2.45344 5.09728 0
M  V30 16437 H 1520.49 3.16824 5.69619 0
M  V30 16438 N 1523.92 -0.412991 1.52093 0
M  V30 16439 C 1524.83 -1.52768 1.78042 0
M  V30 16440 C 1525.85 -1.60758 0.665791 0
M  V30 16441 O 1527.02 -1.77545 0.950772 0
M  V30 16442 C 1524.09 -2.8854 1.92213 0
M  V30 16443 C 1523.15 -2.90468 3.16112 0
M  V30 16444 C 1522.38 -4.19763 3.29598 0
M  V30 16445 O 1522.61 -5.13454 2.48438 0
M  V30 16446 O 1521.54 -4.2847 4.22726 0
M  V30 16447 H 1525.37 -1.33777 2.72649 0
M  V30 16448 H 1522.95 -0.598461 1.3689 0
M  V30 16449 H 1524.83 -3.69073 2.03379 0
M  V30 16450 H 1523.51 -3.07607 1.00795 0
M  V30 16451 H 1522.41 -2.08801 3.10408 0
M  V30 16452 H 1523.75 -2.76349 4.07298 0
M  V30 16453 N 1525.4 -1.4265 -0.669982 0
M  V30 16454 C 1526.65 -1.43376 -1.43002 0
M  V30 16455 C 1526.97 -0.0519386 -1.94431 0
M  V30 16456 O 1526.23 0.940456 -1.71621 0
M  V30 16457 C 1526.53 -2.40913 -2.63999 0
M  V30 16458 C 1526.19 -3.87183 -2.31085 0
M  V30 16459 C 1524.86 -4.27024 -2.21819 0
M  V30 16460 C 1527.21 -4.79428 -2.04447 0
M  V30 16461 C 1524.54 -5.57084 -1.84049 0
M  V30 16462 C 1526.89 -6.09835 -1.68179 0
M  V30 16463 C 1525.55 -6.4867 -1.57428 0
M  V30 16464 H 1524.82 -0.524651 -0.52328 0
M  V30 16465 H 1527.47 -1.75622 -0.763494 0
M  V30 16466 H 1525.77 -2.02012 -3.35706 0
M  V30 16467 H 1527.47 -2.38737 -3.22189 0
M  V30 16468 H 1524.06 -3.55642 -2.392 0
M  V30 16469 H 1528.25 -4.49431 -2.10535 0
M  V30 16470 H 1523.5 -5.86029 -1.74298 0
M  V30 16471 H 1527.68 -6.80796 -1.46594 0
M  V30 16472 H 1525.3 -7.49358 -1.2793 0
M  V30 16473 N 1526.88 0.906753 -1.28902 0
M  V30 16474 C 1527.84 1.99158 -1.1344 0
M  V30 16475 C 1528.84 1.60639 -0.0719551 0
M  V30 16476 O 1530.03 1.71267 -0.318317 0
M  V30 16477 C 1527.16 3.32923 -0.733172 0
M  V30 16478 H 1528.36 2.14305 -2.09794 0
M  V30 16479 H 1525.91 1.09034 -1.11988 0
M  V30 16480 H 1526.64 3.23477 0.230826 0
M  V30 16481 H 1526.43 3.62244 -1.50073 0
M  V30 16482 H 1527.92 4.12544 -0.64784 0
M  V30 16483 N 1528.36 1.11264 1.11616 0
M  V30 16484 C 1529.31 0.738429 2.15711 0
M  V30 16485 C 1530.29 -0.25663 1.5884 0
M  V30 16486 O 1531.48 -0.0640255 1.76884 0
M  V30 16487 C 1528.61 0.181245 3.42821 0
M  V30 16488 C 1527.7 1.20386 4.06655 0
M  V30 16489 N 1528.09 2.39745 4.45372 0
M  V30 16490 C 1526.39 1.04637 4.33552 0
M  V30 16491 C 1527.09 3.04949 4.95359 0
M  V30 16492 N 1526.06 2.32435 4.91401 0
M  V30 16493 H 1529.86 1.6469 2.43423 0
M  V30 16494 H 1527.38 0.991616 1.28611 0
M  V30 16495 H 1529.38 -0.104966 4.16768 0
M  V30 16496 H 1528.04 -0.721832 3.16575 0
M  V30 16497 H 1529.05 2.77213 4.37462 0
M  V30 16498 H 1525.72 0.19957 4.17023 0
M  V30 16499 H 1527.11 4.06528 5.34962 0
M  V30 16500 N 1529.83 -1.29188 0.902679 0
M  V30 16501 C 1530.78 -2.25236 0.353959 0
M  V30 16502 C 1531.77 -1.52002 -0.527659 0
M  V30 16503 O 1532.96 -1.73107 -0.369189 0
M  V30 16504 C 1530.09 -3.40785 -0.414803 0
M  V30 16505 C 1529.17 -4.21353 0.481904 0
M  V30 16506 N 1529.57 -4.80143 1.59048 0
M  V30 16507 C 1527.86 -4.45119 0.280241 0
M  V30 16508 C 1528.56 -5.40661 2.14616 0
M  V30 16509 N 1527.54 -5.24213 1.43882 0
M  V30 16510 H 1531.34 -2.68252 1.20076 0
M  V30 16511 H 1528.86 -1.43832 0.754069 0
M  V30 16512 H 1530.85 -4.08662 -0.824674 0
M  V30 16513 H 1529.51 -2.99305 -1.25883 0
M  V30 16514 H 1530.52 -4.78838 1.97319 0
M  V30 16515 H 1527.2 -4.14184 -0.525174 0
M  V30 16516 H 1528.59 -5.97246 3.07809 0
M  V30 16517 N 1531.31 -0.665475 -1.42861 0
M  V30 16518 C 1532.24 0.00482845 -2.335 0
M  V30 16519 C 1533.22 0.799135 -1.50159 0
M  V30 16520 O 1534.41 0.75816 -1.78789 0
M  V30 16521 C 1531.54 0.963347 -3.33672 0
M  V30 16522 C 1530.49 0.278294 -4.27094 0
M  V30 16523 C 1529.82 1.34911 -5.174 0
M  V30 16524 C 1531.12 -0.836925 -5.15551 0
M  V30 16525 H 1532.81 -0.752129 -2.89799 0
M  V30 16526 H 1530.36 -0.363139 -1.39346 0
M  V30 16527 H 1532.31 1.44128 -3.95986 0
M  V30 16528 H 1531.03 1.75161 -2.75656 0
M  V30 16529 H 1529.69 -0.179314 -3.66161 0
M  V30 16530 H 1529.34 2.12912 -4.55716 0
M  V30 16531 H 1529.04 0.895919 -5.8073 0
M  V30 16532 H 1530.57 1.82816 -5.8259 0
M  V30 16533 H 1531.98 -0.440617 -5.71604 0
M  V30 16534 H 1530.38 -1.21533 -5.87665 0
M  V30 16535 H 1531.45 -1.6897 -4.54507 0
M  V30 16536 N 1532.79 1.52222 -0.408187 0
M  V30 16537 C 1533.7 2.30725 0.424645 0
M  V30 16538 C 1534.72 1.38412 1.05442 0
M  V30 16539 O 1535.89 1.71486 1.05614 0
M  V30 16540 C 1532.96 3.11273 1.52677 0
M  V30 16541 C 1532.02 4.19323 0.920143 0
M  V30 16542 C 1531.25 4.96021 1.96974 0
M  V30 16543 O 1531.47 4.73011 3.18774 0
M  V30 16544 O 1530.41 5.80887 1.5765 0
M  V30 16545 H 1534.23 3.02935 -0.215411 0
M  V30 16546 H 1531.82 1.48413 -0.171414 0
M  V30 16547 H 1533.7 3.61436 2.16661 0
M  V30 16548 H 1532.38 2.41857 2.15144 0
M  V30 16549 H 1531.28 3.7331 0.243037 0
M  V30 16550 H 1532.62 4.91028 0.339405 0
M  V30 16551 N 1534.27 0.138579 1.5699 0
M  V30 16552 C 1535.2 -0.835134 2.13444 0
M  V30 16553 C 1536.21 -1.21657 1.08183 0
M  V30 16554 O 1537.4 -1.16211 1.35489 0
M  V30 16555 C 1534.5 -2.13086 2.63529 0
M  V30 16556 C 1533.67 -1.9181 3.931 0
M  V30 16557 C 1532.73 -3.05293 4.28582 0
M  V30 16558 O 1531.76 -2.77351 4.97056 0
M  V30 16559 N 1532.96 -4.32248 3.87482 0
M  V30 16560 H 1535.73 -0.352693 2.97617 0
M  V30 16561 H 1533.29 -0.0452536 1.61837 0
M  V30 16562 H 1535.28 -2.88036 2.84284 0
M  V30 16563 H 1533.85 -2.52619 1.84127 0
M  V30 16564 H 1533.07 -1.00943 3.81057 0
M  V30 16565 H 1534.36 -1.74923 4.77786 0
M  V30 16566 H 1533.76 -4.5782 3.32292 0
M  V30 16567 H 1532.31 -5.04006 4.13305 0
M  V30 16568 N 1535.75 -1.57019 -0.13521 0
M  V30 16569 C 1537.16 -1.51949 -0.48824 0
M  V30 16570 C 1537.36 -0.848955 -1.82743 0
M  V30 16571 O 1536.42 -0.424441 -2.48907 0
M  V30 16572 C 1537.73 -2.96719 -0.487673 0
M  V30 16573 C 1539.28 -3.07722 -0.572365 0
M  V30 16574 C 1539.75 -4.54022 -0.602347 0
M  V30 16575 N 1541.24 -4.58413 -0.664242 0
M  V30 16576 C 1541.98 -5.69005 -0.70862 0
M  V30 16577 N 1541.48 -6.89135 -0.711626 0
M  V30 16578 N 1543.27 -5.57069 -0.750399 0
M  V30 16579 H 1535.42 -1.99001 0.742465 0
M  V30 16580 H 1537.68 -0.908116 0.272083 0
M  V30 16581 H 1537.39 -3.49082 0.428363 0
M  V30 16582 H 1537.26 -3.53299 -1.32136 0
M  V30 16583 H 1539.65 -2.55372 -1.47882 0
M  V30 16584 H 1539.73 -2.54166 0.288696 0
M  V30 16585 H 1539.37 -5.07013 0.3 0
M  V30 16586 H 1539.3 -5.05373 -1.48006 0
M  V30 16587 H 1541.8 -3.71936 -0.668739 0
M  V30 16588 H 1542.11 -7.69175 -0.747663 0
M  V30 16589 H 1540.45 -6.91672 -0.679311 0
M  V30 16590 H 1543.64 -4.62129 -0.745301 0
M  V30 16591 H 1543.82 -6.4327 -0.781518 0
M  V30 16592 N 1537.22 0.404919 -1.52309 0
M  V30 16593 C 1538.15 1.50039 -1.78915 0
M  V30 16594 C 1539.14 1.57587 -0.640329 0
M  V30 16595 O 1540.32 1.72793 -0.886344 0
M  V30 16596 C 1537.45 2.87819 -1.94364 0
M  V30 16597 C 1536.4 2.9512 -3.09981 0
M  V30 16598 C 1535.73 4.35195 -3.10659 0
M  V30 16599 C 1537.03 2.66219 -4.4936 0
M  V30 16600 H 1538.72 1.28025 -2.70647 0
M  V30 16601 H 1536.27 0.61445 -1.30233 0
M  V30 16602 H 1538.22 3.64446 -2.11559 0
M  V30 16603 H 1536.95 3.11136 -0.993067 0
M  V30 16604 H 1535.61 2.20939 -2.92543 0
M  V30 16605 H 1535.25 4.55528 -2.13316 0
M  V30 16606 H 1534.95 4.41003 -3.88317 0
M  V30 16607 H 1536.48 5.1375 -3.29989 0
M  V30 16608 H 1537.89 3.32567 -4.66982 0
M  V30 16609 H 1536.29 2.83398 -5.28967 0
M  V30 16610 H 1537.36 1.61636 -4.57167 0
M  V30 16611 N 1538.7 1.43003 0.662408 0
M  V30 16612 C 1539.65 1.47448 1.77561 0
M  V30 16613 C 1540.62 0.325121 1.62887 0
M  V30 16614 O 1541.8 0.530971 1.83263 0
M  V30 16615 C 1538.94 1.3946 3.15666 0
M  V30 16616 C 1538.06 2.64529 3.41539 0
M  V30 16617 C 1537.19 2.48594 4.69441 0
M  V30 16618 C 1536.23 3.68976 4.88388 0
M  V30 16619 N 1535.37 3.51908 6.0754 0
M  V30 16620 H 1540.21 2.42573 1.73097 0
M  V30 16621 H 1537.75 1.2042 0.84484 0
M  V30 16622 H 1539.7 1.32824 3.95492 0
M  V30 16623 H 1538.33 0.479227 3.19223 0
M  V30 16624 H 1537.39 2.81481 2.55877 0
M  V30 16625 H 1538.7 3.53977 3.51429 0
M  V30 16626 H 1537.85 2.39614 5.57378 0
M  V30 16627 H 1536.59 1.56656 4.61855 0
M  V30 16628 H 1535.6 3.78374 3.9889 0
M  V30 16629 H 1536.82 4.61911 4.9781 0
M  V30 16630 H 1534.77 2.62697 6.01104 0
M  V30 16631 H 1534.68 4.34951 6.18347 0
M  V30 16632 H 1535.95 3.46763 6.98123 0
M  V30 16633 N 1540.18 -0.899904 1.29381 0
M  V30 16634 C 1541.11 -2.02045 1.17047 0
M  V30 16635 C 1542.09 -1.69977 0.0647354 0
M  V30 16636 O 1543.28 -1.92659 0.244173 0
M  V30 16637 C 1540.41 -3.36839 0.845991 0
M  V30 16638 C 1539.36 -3.83117 1.90802 0
M  V30 16639 C 1538.69 -5.15032 1.43686 0
M  V30 16640 C 1539.99 -4.03464 3.31684 0
M  V30 16641 H 1541.68 -2.12623 2.10789 0
M  V30 16642 H 1539.23 -1.02162 1.01484 0
M  V30 16643 H 1541.18 -4.14737 0.746413 0
M  V30 16644 H 1539.9 -3.26352 -0.127125 0
M  V30 16645 H 1538.56 -3.07435 1.99698 0
M  V30 16646 H 1538.21 -5.00961 0.452422 0
M  V30 16647 H 1537.91 -5.46967 2.14711 0
M  V30 16648 H 1539.43 -5.95472 1.35078 0
M  V30 16649 H 1540.85 -4.71845 3.25631 0
M  V30 16650 H 1539.25 -4.46752 4.00665 0
M  V30 16651 H 1540.32 -3.07807 3.74677 0
M  V30 16652 N 1541.66 -1.11854 -1.11024 0
M  V30 16653 C 1542.59 -0.724602 -2.1639 0
M  V30 16654 C 1543.57 0.281302 -1.60148 0
M  V30 16655 O 1544.75 0.176699 -1.8767 0
M  V30 16656 C 1541.88 -0.0715375 -3.38624 0
M  V30 16657 C 1540.93 -1.04328 -4.13543 0
M  V30 16658 S 1541.76 -2.5679 -4.69914 0
M  V30 16659 C 1542.92 -1.92797 -5.95466 0
M  V30 16660 H 1543.15 -1.61713 -2.49472 0
M  V30 16661 H 1540.68 -0.937015 -1.22717 0
M  V30 16662 H 1542.64 0.298896 -4.0941 0
M  V30 16663 H 1541.3 0.798007 -3.03794 0
M  V30 16664 H 1540.49 -0.533855 -5.01165 0
M  V30 16665 H 1540.1 -1.35636 -3.48538 0
M  V30 16666 H 1542.39 -1.26703 -6.65547 0
M  V30 16667 H 1543.33 -2.78434 -6.51061 0
M  V30 16668 H 1543.74 -1.38633 -5.47212 0
M  V30 16669 N 1543.14 1.28707 -0.909517 0
M  V30 16670 C 1544.1 2.25692 -0.39946 0
M  V30 16671 C 1545.1 1.53721 0.471848 0
M  V30 16672 O 1546.29 1.72008 0.275504 0
M  V30 16673 C 1543.42 3.38205 0.427793 0
M  V30 16674 H 1544.61 2.72326 -1.25613 0
M  V30 16675 H 1542.17 1.40317 -0.688535 0
M  V30 16676 H 1542.9 2.96926 1.30404 0
M  V30 16677 H 1542.69 3.91606 -0.19667 0
M  V30 16678 H 1544.18 4.10334 0.775634 0
M  V30 16679 N 1544.61 0.673042 1.42506 0
M  V30 16680 C 1545.84 0.201349 2.0642 0
M  V30 16681 C 1546.26 -1.132 1.50224 0
M  V30 16682 O 1545.62 -1.70368 0.620024 0
M  V30 16683 C 1545.67 0.14505 3.60308 0
M  V30 16684 O 1544.77 -0.886953 4.02749 0
M  V30 16685 H 1544.12 0.103975 0.655809 0
M  V30 16686 H 1546.65 0.921559 1.8267 0
M  V30 16687 H 1546.66 -0.0316792 4.07988 0
M  V30 16688 H 1545.33 1.11829 4.00583 0
M  V30 16689 H 1543.91 -0.681408 3.66621 0
M  V30 16690 N 1546.09 -1.52004 0.416254 0
M  V30 16691 C 1547.37 -1.94403 -0.216103 0
M  V30 16692 C 1547.75 -1.35362 -1.61989 0
M  V30 16693 O 1547.1 -0.532242 -2.22215 0
M  V30 16694 C 1547.31 -3.48336 -0.215225 0
M  V30 16695 C 1548.66 -4.22406 -0.431109 0
M  V30 16696 O 1549.68 -3.54982 -0.294271 0
M  V30 16697 O 1548.54 -5.4198 -0.70145 0
M  V30 16698 H 1545.63 -0.814838 -0.141306 0
M  V30 16699 H 1548.18 -1.62983 0.472712 0
M  V30 16700 H 1546.95 -3.83709 0.767004 0
M  V30 16701 H 1546.57 -3.86137 -0.947841 0
M  V30 16702 N 1547.57 -0.146903 -1.56914 0
M  V30 16703 C 1548.5 0.830846 -2.12538 0
M  V30 16704 C 1549.48 1.24243 -1.04892 0
M  V30 16705 O 1550.67 1.33855 -1.32721 0
M  V30 16706 C 1547.79 2.11561 -2.64499 0
M  V30 16707 C 1546.84 1.84995 -3.8429 0
M  V30 16708 S 1547.67 1.04104 -5.25283 0
M  V30 16709 C 1548.83 2.337 -5.80633 0
M  V30 16710 H 1549.06 0.357829 -2.95139 0
M  V30 16711 H 1546.59 0.0673772 -1.54253 0
M  V30 16712 H 1548.55 2.85366 -2.95087 0
M  V30 16713 H 1547.21 2.55977 -1.82028 0
M  V30 16714 H 1546.41 2.8026 -4.18892 0
M  V30 16715 H 1546.01 1.19298 -3.54463 0
M  V30 16716 H 1548.3 3.29351 -5.92059 0
M  V30 16717 H 1549.24 2.03603 -6.78197 0
M  V30 16718 H 1549.65 2.44344 -5.08878 0
M  V30 16719 N 1549.05 1.57088 0.126881 0
M  V30 16720 C 1549.98 2.02799 1.15737 0
M  V30 16721 C 1550.96 0.911031 1.43646 0
M  V30 16722 O 1552.14 1.18021 1.54223 0
M  V30 16723 C 1549.27 2.42565 2.48555 0
M  V30 16724 C 1548.23 3.57631 2.35125 0
M  V30 16725 C 1547.55 3.83272 3.72836 0
M  V30 16726 C 1548.85 4.89625 1.81838 0
M  V30 16727 H 1550.55 2.89136 0.777207 0
M  V30 16728 H 1548.09 1.39101 0.372416 0
M  V30 16729 H 1550.05 2.73146 3.20888 0
M  V30 16730 H 1548.77 1.53188 2.88446 0
M  V30 16731 H 1547.43 3.27247 1.65242 0
M  V30 16732 H 1547.08 2.91114 4.10197 0
M  V30 16733 H 1546.78 4.60721 3.64705 0
M  V30 16734 H 1548.3 4.16298 4.46686 0
M  V30 16735 H 1549.72 5.18793 2.43981 0
M  V30 16736 H 1548.11 5.71018 1.84548 0
M  V30 16737 H 1549.18 4.7866 0.775385 0
M  V30 16738 N 1550.53 -0.396836 1.52522 0
M  V30 16739 C 1551.44 -1.50871 1.79653 0
M  V30 16740 C 1552.45 -1.60043 0.682804 0
M  V30 16741 O 1553.63 -1.76527 0.96955 0
M  V30 16742 C 1550.69 -2.86485 1.95263 0
M  V30 16743 C 1549.75 -2.87099 3.19175 0
M  V30 16744 C 1548.99 -4.16244 3.34031 0
M  V30 16745 O 1549.21 -5.1079 2.5387 0
M  V30 16746 O 1548.14 -4.23962 4.27247 0
M  V30 16747 H 1551.97 -1.30878 2.74052 0
M  V30 16748 H 1549.56 -0.583908 1.37517 0
M  V30 16749 H 1551.44 -3.66895 2.07282 0
M  V30 16750 H 1550.11 -3.0652 1.04052 0
M  V30 16751 H 1549.02 -2.05497 3.12605 0
M  V30 16752 H 1550.35 -2.72014 4.10206 0
M  V30 16753 N 1552.01 -1.43353 -0.654814 0
M  V30 16754 C 1552.97 -1.4806 -1.7496 0
M  V30 16755 C 1553.97 -0.365513 -1.56591 0
M  V30 16756 O 1555.16 -0.627194 -1.62517 0
M  V30 16757 C 1552.29 -1.33165 -3.13815 0
M  V30 16758 H 1553.48 -2.45557 -1.72167 0
M  V30 16759 H 1551.04 -1.30094 -0.86632 0
M  V30 16760 H 1551.77 -0.366689 -3.2222 0
M  V30 16761 H 1551.56 -2.13998 -3.28553 0
M  V30 16762 H 1553.05 -1.39388 -3.93651 0
M  V30 16763 N 1553.48 0.89303 -1.29857 0
M  V30 16764 C 1554.72 1.65836 -1.19489 0
M  V30 16765 C 1555.09 1.90389 0.248194 0
M  V30 16766 O 1556.29 2.6457 0.474963 0
M  V30 16767 C 1554.56 2.96706 -1.9925 0
M  V30 16768 S 1556.12 3.8771 -2.05492 0
M  V30 16769 H 1552.94 0.569282 -0.425956 0
M  V30 16770 H 1555.54 1.06061 -1.64229 0
M  V30 16771 H 1554.24 2.76554 -3.03226 0
M  V30 16772 H 1553.77 3.61518 -1.55141 0
M  V30 16773 H 1555.79 4.82052 -1.17644 0
M  V30 16774 N 1554.96 1.12442 1.10429 0
M  V30 16775 C 1556.21 0.881062 1.82661 0
M  V30 16776 C 1556.54 -0.591636 1.84968 0
M  V30 16777 O 1555.82 -1.43734 1.31037 0
M  V30 16778 C 1556.1 1.45658 3.29326 0
M  V30 16779 C 1555.95 2.99766 3.35352 0
M  V30 16780 C 1557.27 1.1162 4.2571 0
M  V30 16781 H 1554.39 0.321516 0.663172 0
M  V30 16782 H 1557.03 1.39102 1.29424 0
M  V30 16783 H 1555.18 1.02286 3.74793 0
M  V30 16784 H 1556.85 3.51818 2.98365 0
M  V30 16785 H 1555.1 3.35292 2.75249 0
M  V30 16786 H 1555.77 3.35128 4.38627 0
M  V30 16787 H 1558.24 1.49081 3.88477 0
M  V30 16788 H 1557.12 1.54552 5.26692 0
M  V30 16789 H 1557.38 0.0284093 4.42091 0
M  V30 16790 N 1556.44 -1.28223 0.91633 0
M  V30 16791 C 1557.39 -2.27215 0.40521 0
M  V30 16792 C 1558.36 -1.57693 -0.521734 0
M  V30 16793 O 1559.54 -1.85577 -0.443369 0
M  V30 16794 C 1556.68 -3.43358 -0.346303 0
M  V30 16795 C 1555.79 -4.27622 0.613443 0
M  V30 16796 C 1554.93 -5.30969 -0.156775 0
M  V30 16797 C 1553.97 -6.06897 0.796418 0
M  V30 16798 N 1553.11 -7.02075 0.0595539 0
M  V30 16799 H 1557.95 -2.70312 1.2544 0
M  V30 16800 H 1555.48 -1.32933 0.629859 0
M  V30 16801 H 1557.44 -4.09492 -0.798231 0
M  V30 16802 H 1556.07 -3.01244 -1.15982 0
M  V30 16803 H 1555.12 -3.61508 1.1839 0
M  V30 16804 H 1556.43 -4.80397 1.34239 0
M  V30 16805 H 1555.59 -6.02999 -0.669146 0
M  V30 16806 H 1554.33 -4.78968 -0.918755 0
M  V30 16807 H 1553.33 -5.33716 1.32014 0
M  V30 16808 H 1554.56 -6.60987 1.558 0
M  V30 16809 H 1552.5 -6.5242 -0.684388 0
M  V30 16810 H 1552.42 -7.52484 0.728275 0
M  V30 16811 H 1553.69 -7.78299 -0.432538 0
M  V30 16812 N 1557.92 -0.68059 -1.42147 0
M  V30 16813 C 1559.33 -0.350691 -1.55699 0
M  V30 16814 C 1559.53 1.1435 -1.6591 0
M  V30 16815 O 1558.59 1.92905 -1.62923 0
M  V30 16816 C 1559.9 -1.08608 -2.80401 0
M  V30 16817 C 1561.45 -1.06897 -2.9418 0
M  V30 16818 C 1561.93 -1.78581 -4.2175 0
M  V30 16819 N 1563.42 -1.75477 -4.28675 0
M  V30 16820 C 1564.15 -2.27794 -5.26211 0
M  V30 16821 N 1563.65 -2.88518 -6.29865 0
M  V30 16822 N 1565.44 -2.18135 -5.18048 0
M  V30 16823 H 1557.59 -1.64988 -1.33763 0
M  V30 16824 H 1559.85 -0.695411 -0.644289 0
M  V30 16825 H 1559.56 -2.14113 -2.79014 0
M  V30 16826 H 1559.43 -0.655022 -3.71469 0
M  V30 16827 H 1561.82 -0.0222464 -2.95092 0
M  V30 16828 H 1561.9 -1.53897 -2.04327 0
M  V30 16829 H 1561.55 -2.83225 -4.21599 0
M  V30 16830 H 1561.48 -1.29027 -5.10548 0
M  V30 16831 H 1563.97 -1.31191 -3.54397 0
M  V30 16832 H 1564.28 -3.26043 -7.00654 0
M  V30 16833 H 1562.63 -2.92589 -6.3041 0
M  V30 16834 H 1565.82 -1.7038 -4.35991 0
M  V30 16835 H 1565.99 -2.59213 -5.93896 0
M  V30 16836 N 1559.4 1.51781 -0.424309 0
M  V30 16837 C 1560.62 2.06387 0.145548 0
M  V30 16838 C 1561.04 1.29299 1.37576 0
M  V30 16839 O 1560.4 0.348952 1.79133 0
M  V30 16840 C 1560.45 3.58288 0.48083 0
M  V30 16841 O 1560.17 4.32463 -0.700546 0
M  V30 16842 C 1561.67 4.29364 1.10278 0
M  V30 16843 H 1558.89 0.67086 0.0136908 0
M  V30 16844 H 1561.43 1.95511 -0.599639 0
M  V30 16845 H 1559.59 3.69122 1.17591 0
M  V30 16846 H 1560 5.22839 -0.417035 0
M  V30 16847 H 1561.48 5.36776 1.28747 0
M  V30 16848 H 1561.95 3.86815 2.08017 0
M  V30 16849 H 1562.56 4.2294 0.447458 0
M  V30 16850 N 1560.87 0.155222 1.56834 0
M  V30 16851 C 1562.29 -0.201116 1.58328 0
M  V30 16852 C 1562.49 -1.64061 1.16988 0
M  V30 16853 O 1561.55 -2.36892 0.873989 0
M  V30 16854 C 1562.86 0.0651005 3.0063 0
M  V30 16855 C 1564.41 0.00203866 3.13 0
M  V30 16856 C 1564.88 0.241032 4.57365 0
M  V30 16857 N 1566.37 0.188245 4.62817 0
M  V30 16858 C 1567.11 0.347562 5.72346 0
M  V30 16859 N 1566.6 0.565052 6.90492 0
M  V30 16860 N 1568.4 0.284589 5.61379 0
M  V30 16861 H 1560.55 1.09503 1.81997 0
M  V30 16862 H 1562.81 0.434106 0.842767 0
M  V30 16863 H 1562.52 1.06167 3.35293 0
M  V30 16864 H 1562.39 -0.650601 3.71547 0
M  V30 16865 H 1564.78 -0.98509 2.78173 0
M  V30 16866 H 1564.86 0.750199 2.44552 0
M  V30 16867 H 1564.5 1.2253 4.92898 0
M  V30 16868 H 1564.43 -0.52755 5.23951 0
M  V30 16869 H 1566.92 0.0251352 3.77892 0
M  V30 16870 H 1567.24 0.676502 7.69833 0
M  V30 16871 H 1565.58 0.601473 6.92392 0
M  V30 16872 H 1568.77 0.115381 4.67958 0
M  V30 16873 H 1568.95 0.412182 6.46688 0
M  V30 16874 N 1562.35 -1.57153 -0.118549 0
M  V30 16875 C 1563.58 -1.89062 -0.840429 0
M  V30 16876 C 1563.99 -0.746516 -1.73414 0
M  V30 16877 O 1563.35 0.282638 -1.80298 0
M  V30 16878 C 1563.4 -3.20433 -1.67347 0
M  V30 16879 O 1563.12 -4.30439 -0.815739 0
M  V30 16880 C 1564.62 -3.66048 -2.50047 0
M  V30 16881 H 1561.84 -0.626005 -0.241575 0
M  V30 16882 H 1564.39 -2.04241 -0.102804 0
M  V30 16883 H 1562.54 -3.06922 -2.36385 0
M  V30 16884 H 1562.96 -5.05736 -1.39037 0
M  V30 16885 H 1564.43 -4.60729 -3.04028 0
M  V30 16886 H 1564.91 -2.92727 -3.27426 0
M  V30 16887 H 1565.51 -3.82349 -1.86251 0
M  V30 16888 N 1563.83 0.388742 -1.5273 0
M  V30 16889 C 1564.79 1.45759 -1.76881 0
M  V30 16890 C 1565.79 1.47565 -0.63884 0
M  V30 16891 O 1566.98 1.48731 -0.906895 0
M  V30 16892 C 1564.11 2.85045 -1.86981 0
M  V30 16893 H 1565.31 1.25629 -2.72319 0
M  V30 16894 H 1562.86 0.620497 -1.43456 0
M  V30 16895 H 1563.6 3.1052 -0.935296 0
M  V30 16896 H 1563.38 2.85136 -2.69147 0
M  V30 16897 H 1564.87 3.62492 -2.07338 0
M  V30 16898 N 1565.31 1.43698 0.647203 0
M  V30 16899 C 1566.55 1.45633 1.40703 0
M  V30 16900 C 1566.88 0.0828643 1.94323 0
M  V30 16901 O 1566.14 -0.913033 1.73096 0
M  V30 16902 C 1566.44 2.45083 2.60133 0
M  V30 16903 C 1566.1 3.9081 2.24896 0
M  V30 16904 C 1564.76 4.30499 2.14998 0
M  V30 16905 C 1567.12 4.8262 1.96794 0
M  V30 16906 C 1564.44 5.59942 1.75163 0
M  V30 16907 C 1566.8 6.12433 1.58456 0
M  V30 16908 C 1565.46 6.51092 1.47088 0
M  V30 16909 H 1564.73 0.53291 0.514867 0
M  V30 16910 H 1567.38 1.76814 0.735458 0
M  V30 16911 H 1565.68 2.07327 3.3245 0
M  V30 16912 H 1567.38 2.43833 3.1835 0
M  V30 16913 H 1563.97 3.59403 2.33512 0
M  V30 16914 H 1568.15 4.52724 2.03359 0
M  V30 16915 H 1563.41 5.88728 1.64952 0
M  V30 16916 H 1567.58 6.83042 1.35745 0
M  V30 16917 H 1565.21 7.51299 1.15992 0
M  V30 16918 N 1566.79 -0.886131 1.30328 0
M  V30 16919 C 1567.7 -2.02453 1.18532 0
M  V30 16920 C 1568.71 -1.7368 0.105506 0
M  V30 16921 O 1569.89 -1.98838 0.320217 0
M  V30 16922 C 1566.95 -3.3543 0.876792 0
M  V30 16923 C 1566.01 -3.77633 2.04185 0
M  V30 16924 C 1565.25 -5.04264 1.74795 0
M  V30 16925 O 1565.47 -5.66388 0.675323 0
M  V30 16926 O 1564.4 -5.42847 2.60001 0
M  V30 16927 H 1568.23 -2.15333 2.14162 0
M  V30 16928 H 1565.82 -1.01193 1.09911 0
M  V30 16929 H 1567.7 -4.15206 0.719882 0
M  V30 16930 H 1566.37 -3.23662 -0.0496117 0
M  V30 16931 H 1565.28 -2.98567 2.25408 0
M  V30 16932 H 1566.61 -3.94004 2.94994 0
M  V30 16933 N 1568.26 -1.13026 -1.09832 0
M  V30 16934 C 1569.19 -0.826338 -2.18389 0
M  V30 16935 C 1570.18 0.212529 -1.68767 0
M  V30 16936 O 1571.36 0.072363 -1.94065 0
M  V30 16937 C 1568.49 -0.286991 -3.46112 0
M  V30 16938 C 1567.44 -1.25963 -4.09044 0
M  V30 16939 C 1566.77 -0.580231 -5.31542 0
M  V30 16940 C 1568.07 -2.61661 -4.5203 0
M  V30 16941 H 1569.76 -1.73408 -2.4407 0
M  V30 16942 H 1567.31 -0.835201 -1.17305 0
M  V30 16943 H 1569.26 -0.062067 -4.21354 0
M  V30 16944 H 1567.99 0.656121 -3.19942 0
M  V30 16945 H 1566.65 -1.47047 -3.35816 0
M  V30 16946 H 1566.29 0.368222 -5.0165 0
M  V30 16947 H 1565.99 -1.2291 -5.74601 0
M  V30 16948 H 1567.52 -0.36449 -6.09511 0
M  V30 16949 H 1568.93 -2.44569 -5.18516 0
M  V30 16950 H 1567.33 -3.22685 -5.05959 0
M  V30 16951 H 1568.4 -3.19637 -3.64637 0
M  V30 16952 N 1569.74 1.27735 -0.923117 0
M  V30 16953 C 1570.69 2.26997 -0.417254 0
M  V30 16954 C 1571.66 1.57968 0.513364 0
M  V30 16955 O 1572.84 1.8581 0.433521 0
M  V30 16956 C 1569.98 3.43537 0.328089 0
M  V30 16957 C 1569.1 4.27291 -0.636112 0
M  V30 16958 C 1568.23 5.31044 0.128614 0
M  V30 16959 C 1567.27 6.06466 -0.828592 0
M  V30 16960 N 1566.41 7.02033 -0.0967858 0
M  V30 16961 H 1571.25 2.69643 -1.26872 0
M  V30 16962 H 1568.79 1.32597 -0.6369 0
M  V30 16963 H 1570.74 4.0991 0.776504 0
M  V30 16964 H 1569.37 3.01855 1.14383 0
M  V30 16965 H 1568.43 3.60875 -1.20306 0
M  V30 16966 H 1569.74 4.79679 -1.36784 0
M  V30 16967 H 1568.89 6.03345 0.637159 0
M  V30 16968 H 1567.63 4.79448 0.893341 0
M  V30 16969 H 1566.64 5.33008 -1.34843 0
M  V30 16970 H 1567.86 6.60151 -1.59303 0
M  V30 16971 H 1565.81 6.52774 0.649779 0
M  V30 16972 H 1565.72 7.52087 -0.768171 0
M  V30 16973 H 1566.99 7.78517 0.391257 0
M  V30 16974 N 1571.22 0.688118 1.41784 0
M  V30 16975 C 1572.15 0.0323199 2.33478 0
M  V30 16976 C 1573.13 -0.775145 1.51412 0
M  V30 16977 O 1574.32 -0.72962 1.79973 0
M  V30 16978 C 1571.45 -0.910141 3.35162 0
M  V30 16979 C 1570.4 -0.210312 4.27483 0
M  V30 16980 C 1569.73 -1.26662 5.19481 0
M  V30 16981 C 1571.03 0.918839 5.14154 0
M  V30 16982 H 1572.72 0.798138 2.88566 0
M  V30 16983 H 1570.27 0.385262 1.38751 0
M  V30 16984 H 1572.22 -1.3781 3.98229 0
M  V30 16985 H 1570.94 -1.70754 2.78408 0
M  V30 16986 H 1569.6 0.237544 3.6583 0
M  V30 16987 H 1569.25 -2.05635 4.59046 0
M  V30 16988 H 1568.95 -0.803416 5.82082 0
M  V30 16989 H 1570.47 -1.73524 5.85424 0
M  V30 16990 H 1571.89 0.531499 5.70831 0
M  V30 16991 H 1570.29 1.30867 5.85657 0
M  V30 16992 H 1571.36 1.7618 4.51762 0
M  V30 16993 N 1572.7 -1.51554 0.432352 0
M  V30 16994 C 1573.63 -2.25369 -0.417328 0
M  V30 16995 C 1574.64 -1.29197 -0.990551 0
M  V30 16996 O 1575.83 -1.54985 -0.885539 0
M  V30 16997 C 1572.93 -2.99006 -1.59526 0
M  V30 16998 C 1572.11 -4.22234 -1.1418 0
M  V30 16999 C 1571.16 -4.78495 -2.18928 0
M  V30 17000 O 1570.19 -5.40465 -1.78566 0
M  V30 17001 N 1571.39 -4.62091 -3.51358 0
M  V30 17002 H 1574.16 -2.98926 0.215294 0
M  V30 17003 H 1571.72 -1.59783 0.26097 0
M  V30 17004 H 1573.71 -3.33532 -2.29212 0
M  V30 17005 H 1572.28 -2.28491 -2.13332 0
M  V30 17006 H 1571.5 -3.93259 -0.272182 0
M  V30 17007 H 1572.79 -5.02212 -0.816145 0
M  V30 17008 H 1572.19 -4.12718 -3.86885 0
M  V30 17009 H 1570.74 -5.00992 -4.16953 0
M  V30 17010 N 1574.18 -0.163538 -1.56749 0
M  V30 17011 C 1575.12 0.769787 -2.17584 0
M  V30 17012 C 1576.09 1.23246 -1.11354 0
M  V30 17013 O 1577.28 1.30203 -1.3947 0
M  V30 17014 C 1574.42 1.99685 -2.81461 0
M  V30 17015 C 1573.53 1.57846 -4.0213 0
M  V30 17016 C 1572.67 2.75858 -4.53955 0
M  V30 17017 C 1571.71 2.30473 -5.67053 0
M  V30 17018 N 1570.84 3.41551 -6.13423 0
M  V30 17019 H 1575.68 0.244221 -2.96998 0
M  V30 17020 H 1573.22 0.108821 -1.46697 0
M  V30 17021 H 1575.18 2.71643 -3.16648 0
M  V30 17022 H 1573.81 2.49624 -2.04664 0
M  V30 17023 H 1572.86 0.755907 -3.72814 0
M  V30 17024 H 1574.17 1.20525 -4.8402 0
M  V30 17025 H 1573.33 3.55984 -4.91284 0
M  V30 17026 H 1572.06 3.16434 -3.71107 0
M  V30 17027 H 1571.07 1.48791 -5.29284 0
M  V30 17028 H 1572.29 1.90964 -6.51698 0
M  V30 17029 H 1570.24 3.81717 -5.33506 0
M  V30 17030 H 1570.16 3.08298 -6.90281 0
M  V30 17031 H 1571.43 4.21985 -6.554 0
M  V30 17032 N 1575.65 1.57214 0.110213 0
M  V30 17033 C 1576.62 2.00034 1.11888 0
M  V30 17034 C 1577.62 0.891697 1.33811 0
M  V30 17035 O 1578.81 1.15754 1.3018 0
M  V30 17036 C 1575.94 2.34806 2.47142 0
M  V30 17037 H 1577.13 2.90354 0.750647 0
M  V30 17038 H 1574.69 1.5222 0.35479 0
M  V30 17039 H 1575.42 1.47393 2.8887 0
M  V30 17040 H 1575.21 3.15671 2.32581 0
M  V30 17041 H 1576.7 2.68644 3.19719 0
M  V30 17042 N 1577.13 -0.380637 1.52934 0
M  V30 17043 C 1578.36 -1.15033 1.72575 0
M  V30 17044 C 1578.78 -1.82715 0.446869 0
M  V30 17045 O 1578.14 -1.71154 -0.598004 0
M  V30 17046 C 1578.19 -2.16773 2.8817 0
M  V30 17047 O 1577.29 -3.23539 2.55727 0
M  V30 17048 H 1576.63 -0.334489 0.573597 0
M  V30 17049 H 1579.16 -0.442369 1.9976 0
M  V30 17050 H 1579.17 -2.60629 3.13905 0
M  V30 17051 H 1577.85 -1.669 3.80943 0
M  V30 17052 H 1576.43 -2.84761 2.4076 0
M  V30 17053 N 1578.61 -1.44039 -0.639573 0
M  V30 17054 C 1579.56 -1.50254 -1.75192 0
M  V30 17055 C 1580.53 -0.350994 -1.62349 0
M  V30 17056 O 1581.71 -0.56006 -1.82395 0
M  V30 17057 C 1578.85 -1.44464 -3.13407 0
M  V30 17058 C 1577.97 -2.69929 -3.37287 0
M  V30 17059 C 1577.1 -2.56031 -4.65426 0
M  V30 17060 C 1576.14 -3.76699 -4.82456 0
M  V30 17061 N 1575.28 -3.61529 -6.01865 0
M  V30 17062 H 1580.12 -2.45296 -1.69216 0
M  V30 17063 H 1577.65 -1.21748 -0.825576 0
M  V30 17064 H 1579.61 -1.39099 -3.93328 0
M  V30 17065 H 1578.24 -0.529951 -3.1842 0
M  V30 17066 H 1577.29 -2.85516 -2.51366 0
M  V30 17067 H 1578.61 -3.59523 -3.45753 0
M  V30 17068 H 1577.76 -2.48451 -5.53495 0
M  V30 17069 H 1576.5 -1.63983 -4.59305 0
M  V30 17070 H 1575.5 -3.84672 -3.92819 0
M  V30 17071 H 1576.73 -4.69772 -4.90398 0
M  V30 17072 H 1574.67 -2.72226 -5.96849 0
M  V30 17073 H 1574.59 -4.44733 -6.1135 0
M  V30 17074 H 1575.86 -3.57826 -6.92518 0
M  V30 17075 N 1580.09 0.879207 -1.30796 0
M  V30 17076 C 1581.32 1.66449 -1.22891 0
M  V30 17077 C 1581.73 1.87658 0.207306 0
M  V30 17078 O 1581.09 1.42818 1.13619 0
M  V30 17079 C 1581.14 3.03765 -1.95982 0
M  V30 17080 O 1580.86 2.8351 -3.33997 0
M  V30 17081 C 1582.36 3.98204 -1.94804 0
M  V30 17082 H 1579.58 0.51922 -0.425031 0
M  V30 17083 H 1582.13 1.09807 -1.72519 0
M  V30 17084 H 1580.28 3.57124 -1.50138 0
M  V30 17085 H 1580.69 3.70663 -3.71092 0
M  V30 17086 H 1582.17 4.91901 -2.50474 0
M  V30 17087 H 1582.65 4.29277 -0.928336 0
M  V30 17088 H 1583.25 3.50781 -2.40485 0
M  V30 17089 N 1581.57 1.13606 1.09231 0
M  V30 17090 C 1582.8 0.922295 1.85206 0
M  V30 17091 C 1583.21 -0.528954 1.81239 0
M  V30 17092 O 1582.57 -1.36622 1.20999 0
M  V30 17093 C 1582.62 1.40453 3.331 0
M  V30 17094 O 1582.34 2.7989 3.37036 0
M  V30 17095 C 1583.84 1.22948 4.25909 0
M  V30 17096 H 1581.06 0.328757 0.584945 0
M  V30 17097 H 1583.6 1.50911 1.38007 0
M  V30 17098 H 1581.76 0.86066 3.77719 0
M  V30 17099 H 1582.17 3.01342 4.29294 0
M  V30 17100 H 1583.65 1.61562 5.27827 0
M  V30 17101 H 1584.12 0.171387 4.38865 0
M  V30 17102 H 1584.73 1.76147 3.87108 0
M  V30 17103 N 1583.05 -1.27244 0.929878 0
M  V30 17104 C 1584.32 -1.89369 0.489774 0
M  V30 17105 C 1584.7 -1.84142 -1.03222 0
M  V30 17106 O 1584.05 -1.2881 -1.88733 0
M  V30 17107 C 1584.26 -3.33196 1.03833 0
M  V30 17108 C 1585.61 -4.101 1.10013 0
M  V30 17109 O 1586.63 -3.42221 0.988106 0
M  V30 17110 O 1585.49 -5.31468 1.27296 0
M  V30 17111 H 1582.59 -0.811789 0.157882 0
M  V30 17112 H 1585.13 -1.35496 1.02171 0
M  V30 17113 H 1583.9 -3.31304 2.08214 0
M  V30 17114 H 1583.53 -3.94592 0.488167 0
M  V30 17115 N 1584.52 -0.695628 -1.41417 0
M  V30 17116 C 1585.45 -0.0447013 -2.33457 0
M  V30 17117 C 1586.43 0.767104 -1.51821 0
M  V30 17118 O 1587.62 0.720066 -1.80357 0
M  V30 17119 C 1584.75 0.892353 -3.3564 0
M  V30 17120 C 1583.7 0.187638 -4.27588 0
M  V30 17121 C 1583.03 1.23906 -5.20146 0
M  V30 17122 C 1584.33 -0.946093 -5.1366 0
M  V30 17123 H 1586.02 -0.81343 -2.88138 0
M  V30 17124 H 1583.57 -0.392614 -1.38544 0
M  V30 17125 H 1585.52 1.35696 -3.98954 0
M  V30 17126 H 1584.25 1.69275 -2.79309 0
M  V30 17127 H 1582.91 -0.256942 -3.65698 0
M  V30 17128 H 1582.55 2.03198 -4.6013 0
M  V30 17129 H 1582.25 0.772536 -5.82499 0
M  V30 17130 H 1583.78 1.70417 -5.86336 0
M  V30 17131 H 1585.19 -0.561764 -5.70541 0
M  V30 17132 H 1583.59 -1.33971 -5.84954 0
M  V30 17133 H 1584.66 -1.78573 -4.50821 0
M  V30 17134 N 1586 1.51322 -0.440383 0
M  V30 17135 C 1587.42 1.5933 -0.0928372 0
M  V30 17136 C 1587.62 1.45107 1.39807 0
M  V30 17137 O 1586.67 1.29385 2.16831 0
M  V30 17138 C 1587.99 2.9433 -0.615663 0
M  V30 17139 C 1589.53 3.07647 -0.576373 0
M  V30 17140 C 1590.01 4.45176 -1.07622 0
M  V30 17141 N 1591.5 4.51504 -1.03434 0
M  V30 17142 C 1592.24 5.56249 -1.39194 0
M  V30 17143 N 1591.73 6.68398 -1.82254 0
M  V30 17144 N 1593.52 5.46624 -1.30991 0
M  V30 17145 H 1585.68 1.58812 -1.41041 0
M  V30 17146 H 1587.94 0.748795 -0.581386 0
M  V30 17147 H 1587.64 3.10117 -1.65892 0
M  V30 17148 H 1587.52 3.77176 -0.0422513 0
M  V30 17149 H 1589.91 2.91526 0.457904 0
M  V30 17150 H 1589.99 2.26633 -1.18622 0
M  V30 17151 H 1589.63 4.62044 -2.10898 0
M  V30 17152 H 1589.56 5.24734 -0.442882 0
M  V30 17153 H 1592.05 3.71013 -0.718156 0
M  V30 17154 H 1592.36 7.44347 -2.07769 0
M  V30 17155 H 1590.71 6.69598 -1.86183 0
M  V30 17156 H 1593.9 4.57894 -0.972145 0
M  V30 17157 H 1594.07 6.28143 -1.59188 0
M  V30 17158 N 1587.48 0.171848 1.5666 0
M  V30 17159 C 1588.73 -0.473061 1.96074 0
M  V30 17160 C 1589.04 -1.64353 1.06054 0
M  V30 17161 O 1590.25 -2.35471 1.35151 0
M  V30 17162 C 1588.7 -0.892995 3.48645 0
M  V30 17163 C 1588.31 0.251902 4.47291 0
M  V30 17164 C 1590.06 -1.50629 3.96877 0
M  V30 17165 C 1587.96 -0.187691 5.91102 0
M  V30 17166 H 1586.89 -0.180503 0.732075 0
M  V30 17167 H 1589.54 0.260164 1.81646 0
M  V30 17168 H 1587.93 -1.68221 3.58494 0
M  V30 17169 H 1589.1 1.02923 4.49159 0
M  V30 17170 H 1587.41 0.775193 4.09121 0
M  V30 17171 H 1590.01 -1.84724 5.01778 0
M  V30 17172 H 1590.35 -2.4044 3.39844 0
M  V30 17173 H 1590.89 -0.781502 3.90048 0
M  V30 17174 H 1587.63 0.675653 6.52009 0
M  V30 17175 H 1587.15 -0.93037 5.9254 0
M  V30 17176 H 1588.83 -0.631385 6.43912 0
M  V30 17177 N 1588.96 -1.5727 -0.101874 0
M  V30 17178 C 1590.37 -1.74753 -0.657147 0
M  V30 17179 C 1590.72 -0.793052 -1.79458 0
M  V30 17180 O 1589.84 0.0300559 -2.16379 0
M  V30 17181 C 1590.44 -3.1688 -1.19885 0
M  V30 17182 C 1589 -3.3581 -1.70025 0
M  V30 17183 C 1588.15 -2.70575 -0.607007 0
M  V30 17184 H 1591.1 -1.58214 0.124158 0
M  V30 17185 H 1591.12 -3.19378 -2.06829 0
M  V30 17186 H 1590.63 -3.86325 -0.37079 0
M  V30 17187 H 1588.73 -2.71434 -2.55253 0
M  V30 17188 H 1588.84 -4.44086 -1.79791 0
M  V30 17189 H 1587.21 -2.32284 -1.04481 0
M  V30 17190 H 1587.99 -3.42655 0.21036 0
M  V30 17191 N 1590.44 0.372521 -1.53134 0
M  V30 17192 C 1591.4 1.43875 -1.78417 0
M  V30 17193 C 1592.4 1.46879 -0.654455 0
M  V30 17194 O 1593.59 1.47761 -0.922619 0
M  V30 17195 C 1590.72 2.83046 -1.89994 0
M  V30 17196 H 1591.91 1.22733 -2.73636 0
M  V30 17197 H 1589.47 0.605247 -1.44106 0
M  V30 17198 H 1590.2 3.09511 -0.968179 0
M  V30 17199 H 1589.99 2.82265 -2.72156 0
M  V30 17200 H 1591.48 3.60273 -2.11171 0
M  V30 17201 N 1591.91 1.44376 0.631925 0
M  V30 17202 C 1593.14 1.5082 1.42366 0
M  V30 17203 C 1593.56 0.133858 1.87623 0
M  V30 17204 O 1592.92 -0.876789 1.58689 0
M  V30 17205 C 1592.97 2.47698 2.62065 0
M  V30 17206 O 1592.07 1.97796 3.61871 0
M  V30 17207 H 1591.41 0.509318 0.426018 0
M  V30 17208 H 1593.94 1.89502 0.771376 0
M  V30 17209 H 1593.95 2.65708 3.09618 0
M  V30 17210 H 1592.63 3.47526 2.2847 0
M  V30 17211 H 1591.21 1.89549 3.21131 0
M  V30 17212 N 1593.39 -0.872258 1.31261 0
M  V30 17213 C 1594.64 -1.62752 1.20994 0
M  V30 17214 C 1594.97 -1.9281 -0.231942 0
M  V30 17215 O 1594.25 -1.55808 -1.16423 0
M  V30 17216 C 1594.53 -2.95921 2.0519 0
M  V30 17217 C 1594.38 -2.72756 3.57665 0
M  V30 17218 C 1595.7 -3.96996 1.89953 0
M  V30 17219 H 1592.82 -0.590581 0.440889 0
M  V30 17220 H 1595.46 -1.00848 1.61027 0
M  V30 17221 H 1593.61 -3.48756 1.71177 0
M  V30 17222 H 1595.28 -2.26611 4.01803 0
M  V30 17223 H 1593.53 -2.07029 3.81211 0
M  V30 17224 H 1594.2 -3.67502 4.11882 0
M  V30 17225 H 1596.67 -3.53363 2.19713 0
M  V30 17226 H 1595.55 -4.88063 2.51169 0
M  V30 17227 H 1595.81 -4.33611 0.862191 0
M  V30 17228 N 1594.87 -1.14184 -1.08627 0
M  V30 17229 C 1596.11 -0.919016 -1.82575 0
M  V30 17230 C 1596.47 0.544729 -1.84111 0
M  V30 17231 O 1597.67 0.885417 -2.53799 0
M  V30 17232 C 1595.95 -1.50072 -3.24366 0
M  V30 17233 S 1597.5 -1.41914 -4.15218 0
M  V30 17234 H 1594.32 -0.331056 -0.629224 0
M  V30 17235 H 1596.92 -1.45491 -1.30586 0
M  V30 17236 H 1595.63 -2.55924 -3.20828 0
M  V30 17237 H 1595.16 -0.963129 -3.81428 0
M  V30 17238 H 1597.17 -0.403144 -4.9456 0
M  V30 17239 N 1596.35 1.26749 -0.936613 0
M  V30 17240 C 1597.58 1.98059 -0.598357 0
M  V30 17241 C 1597.99 1.6979 0.825646 0
M  V30 17242 O 1597.35 0.963514 1.54992 0
M  V30 17243 C 1597.4 3.51948 -0.825519 0
M  V30 17244 O 1597.12 3.79232 -2.19351 0
M  V30 17245 C 1598.62 4.40503 -0.497186 0
M  V30 17246 H 1595.84 0.631826 -0.225914 0
M  V30 17247 H 1598.39 1.61379 -1.25607 0
M  V30 17248 H 1596.54 3.86806 -0.214479 0
M  V30 17249 H 1596.95 4.73782 -2.25014 0
M  V30 17250 H 1598.43 5.47457 -0.706779 0
M  V30 17251 H 1598.91 4.35516 0.567645 0
M  V30 17252 H 1599.51 4.11181 -1.08675 0
M  V30 17253 N 1597.83 0.703118 1.41046 0
M  V30 17254 C 1598.76 -0.00810455 2.28199 0
M  V30 17255 C 1599.74 -0.780333 1.42652 0
M  V30 17256 O 1600.92 -0.769578 1.72075 0
M  V30 17257 C 1598.05 -1.01887 3.23012 0
M  V30 17258 C 1597.09 -0.338929 4.25151 0
M  V30 17259 S 1597.93 0.924166 5.27465 0
M  V30 17260 C 1599.08 -0.0848164 6.25843 0
M  V30 17261 H 1599.32 0.731062 2.88171 0
M  V30 17262 H 1596.85 0.493669 1.46295 0
M  V30 17263 H 1598.81 -1.59687 3.78167 0
M  V30 17264 H 1597.47 -1.73066 2.6212 0
M  V30 17265 H 1596.66 -1.10259 4.91792 0
M  V30 17266 H 1596.26 0.166183 3.73631 0
M  V30 17267 H 1598.56 -0.935686 6.71008 0
M  V30 17268 H 1599.5 0.547865 7.05977 0
M  V30 17269 H 1599.91 -0.442967 5.62759 0
M  V30 17270 N 1599.3 -1.51086 0.448402 0
M  V30 17271 C 1600.55 -2.02177 -0.114342 0
M  V30 17272 C 1600.88 -1.3319 -1.41742 0
M  V30 17273 O 1600.13 -0.439101 -1.9071 0
M  V30 17274 C 1600.43 -3.55488 -0.369232 0
M  V30 17275 C 1600.1 -4.42828 0.849372 0
M  V30 17276 C 1598.76 -4.66418 1.18354 0
M  V30 17277 C 1601.11 -4.93998 1.66179 0
M  V30 17278 C 1598.44 -5.38424 2.33059 0
M  V30 17279 C 1600.79 -5.67262 2.79994 0
M  V30 17280 C 1599.46 -5.89113 3.13851 0
M  V30 17281 H 1598.73 -0.739818 -0.0418407 0
M  V30 17282 H 1601.37 -1.81928 0.597857 0
M  V30 17283 H 1599.68 -3.74127 -1.16344 0
M  V30 17284 H 1601.38 -3.92563 -0.818248 0
M  V30 17285 H 1597.97 -4.24671 0.578998 0
M  V30 17286 H 1602.15 -4.75647 1.41683 0
M  V30 17287 H 1597.41 -5.53554 2.59592 0
M  V30 17288 H 1601.58 -6.05899 3.43307 0
M  V30 17289 H 1599.21 -6.44686 4.02844 0
M  V30 17290 N 1600.78 -0.180154 -1.56567 0
M  V30 17291 C 1601.73 0.763484 -2.19713 0
M  V30 17292 C 1602.72 1.23095 -1.16378 0
M  V30 17293 O 1603.93 1.19558 -1.34558 0
M  V30 17294 H 1600.31 0.264515 -0.703943 0
M  V30 17295 H 1602.28 0.207039 -2.97681 0
M  V30 17296 C 1601.03 1.97884 -2.85897 0
M  V30 17297 H 1600.35 1.62818 -3.65144 0
M  V30 17298 H 1601.79 2.61779 -3.33538 0
M  V30 17299 C 1600.25 2.80811 -1.86136 0
M  V30 17300 O 1600.78 3.78253 -1.35232 0
M  V30 17301 N 1598.98 2.46003 -1.54697 0
M  V30 17302 H 1598.53 1.66823 -1.96285 0
M  V30 17303 H 1598.49 3.01774 -0.88202 0
M  V30 17304 N 1602.26 1.57322 0.0935319 0
M  V30 17305 C 1603.51 1.86443 0.797919 0
M  V30 17306 C 1603.84 0.769491 1.78304 0
M  V30 17307 O 1603.11 -0.222383 1.93225 0
M  V30 17308 C 1603.4 3.26201 1.52528 0
M  V30 17309 C 1603.25 4.46325 0.558031 0
M  V30 17310 C 1604.57 3.63879 2.47548 0
M  V30 17311 H 1601.69 0.678136 0.288618 0
M  V30 17312 H 1604.33 1.899 0.0615161 0
M  V30 17313 H 1602.48 3.23385 2.15301 0
M  V30 17314 H 1604.15 4.61257 -0.0628154 0
M  V30 17315 H 1602.4 4.3361 -0.128462 0
M  V30 17316 H 1603.07 5.40845 1.10413 0
M  V30 17317 H 1605.54 3.6765 1.94866 0
M  V30 17318 H 1604.42 4.62598 2.95456 0
M  V30 17319 H 1604.68 2.92647 3.31376 0
M  V30 17320 N 1603.74 -0.364395 1.53329 0
M  V30 17321 C 1604.67 -1.45243 1.8283 0
M  V30 17322 C 1605.65 -1.55834 0.681886 0
M  V30 17323 O 1606.83 -1.70383 0.931845 0
M  V30 17324 C 1603.96 -2.82565 2.01926 0
M  V30 17325 C 1602.92 -2.86797 3.17697 0
M  V30 17326 C 1602.24 -4.26806 3.22089 0
M  V30 17327 C 1603.54 -2.54212 4.56261 0
M  V30 17328 H 1605.24 -1.20804 2.73946 0
M  V30 17329 H 1602.78 -0.579705 1.31816 0
M  V30 17330 H 1604.74 -3.58709 2.21147 0
M  V30 17331 H 1603.46 -3.08394 1.07521 0
M  V30 17332 H 1602.12 -2.13105 2.98298 0
M  V30 17333 H 1601.77 -4.49712 2.25318 0
M  V30 17334 H 1601.47 -4.30553 3.99873 0
M  V30 17335 H 1602.99 -5.04821 3.43495 0
M  V30 17336 H 1604.41 -3.20069 4.75635 0
M  V30 17337 H 1602.8 -2.69273 5.36295 0
M  V30 17338 H 1603.87 -1.49458 4.61292 0
M  V30 17339 N 1605.22 -1.44709 -0.62426 0
M  V30 17340 C 1606.46 -1.48072 -1.38573 0
M  V30 17341 C 1606.8 -0.115532 -1.93856 0
M  V30 17342 O 1606.07 0.867787 -1.74068 0
M  V30 17343 C 1606.35 -2.54662 -2.54596 0
M  V30 17344 C 1606.21 -4.00564 -2.04618 0
M  V30 17345 C 1607.53 -2.57689 -3.56769 0
M  V30 17346 H 1604.64 -0.539119 -0.502513 0
M  V30 17347 H 1607.29 -1.76427 -0.705225 0
M  V30 17348 H 1605.44 -2.30614 -3.12649 0
M  V30 17349 H 1607.11 -4.35767 -1.51343 0
M  V30 17350 H 1605.35 -4.12014 -1.35746 0
M  V30 17351 H 1606.02 -4.70804 -2.8818 0
M  V30 17352 H 1608.5 -2.79194 -3.08529 0
M  V30 17353 H 1607.37 -3.34161 -4.35462 0
M  V30 17354 H 1607.64 -1.62146 -4.11292 0
M  V30 17355 N 1606.69 0.865285 -1.31722 0
M  V30 17356 C 1607.97 1.60146 -1.12306 0
M  V30 17357 C 1608.35 2.08653 0.320508 0
M  V30 17358 O 1607.7 1.86841 1.31539 0
M  V30 17359 C 1607.91 2.75583 -2.14138 0
M  V30 17360 C 1609.26 3.45429 -2.46909 0
M  V30 17361 O 1610.28 2.85795 -2.12602 0
M  V30 17362 O 1609.14 4.53017 -3.05676 0
M  V30 17363 H 1606.23 0.704786 -0.432673 0
M  V30 17364 H 1608.78 0.910339 -1.43216 0
M  V30 17365 H 1607.55 2.37187 -3.1122 0
M  V30 17366 H 1607.18 3.52378 -1.84161 0
M  V30 17367 N 1608.17 1.14759 1.0802 0
M  V30 17368 C 1609.14 0.840859 2.13219 0
M  V30 17369 C 1610.14 -0.156309 1.60038 0
M  V30 17370 O 1611.33 0.0725143 1.74049 0
M  V30 17371 C 1608.46 0.254208 3.39951 0
M  V30 17372 H 1609.65 1.77323 2.4186 0
M  V30 17373 H 1607.2 0.954146 1.23797 0
M  V30 17374 H 1607.94 -0.686692 3.16946 0
M  V30 17375 H 1607.72 0.972499 3.79848 0
M  V30 17376 H 1609.21 0.0569551 4.17561 0
M  V30 17377 N 1609.65 -1.26251 0.943322 0
M  V30 17378 C 1610.6 -2.26304 0.453315 0
M  V30 17379 C 1611.57 -1.58764 -0.488168 0
M  V30 17380 O 1612.75 -1.86476 -0.403906 0
M  V30 17381 C 1609.89 -3.44015 -0.273393 0
M  V30 17382 C 1609.01 -4.26225 0.70401 0
M  V30 17383 C 1608.14 -5.31182 -0.0441134 0
M  V30 17384 C 1607.18 -6.05071 0.924971 0
M  V30 17385 N 1606.32 -7.0179 0.208461 0
M  V30 17386 H 1611.16 -2.67591 1.31146 0
M  V30 17387 H 1608.69 -1.31567 0.657914 0
M  V30 17388 H 1610.65 -4.11094 -0.711192 0
M  V30 17389 H 1609.28 -3.03636 -1.09566 0
M  V30 17390 H 1608.33 -3.58915 1.26032 0
M  V30 17391 H 1609.65 -4.77442 1.44398 0
M  V30 17392 H 1608.8 -6.04282 -0.541091 0
M  V30 17393 H 1607.54 -4.80809 -0.816952 0
M  V30 17394 H 1606.54 -5.30795 1.43305 0
M  V30 17395 H 1607.77 -6.57533 1.69785 0
M  V30 17396 H 1605.71 -6.53725 -0.545846 0
M  V30 17397 H 1605.63 -7.5077 0.887725 0
M  V30 17398 H 1606.9 -7.79041 -0.267352 0
M  V30 17399 N 1611.13 -0.710588 -1.40671 0
M  V30 17400 C 1612.08 -0.0548139 -2.30735 0
M  V30 17401 C 1613.05 0.755572 -1.4792 0
M  V30 17402 O 1614.23 0.720541 -1.76672 0
M  V30 17403 C 1611.37 0.864648 -3.34093 0
M  V30 17404 C 1610.48 0.0442717 -4.31977 0
M  V30 17405 C 1609.62 0.962752 -5.22403 0
M  V30 17406 C 1608.66 0.13617 -6.11949 0
M  V30 17407 N 1607.8 1.00926 -6.94808 0
M  V30 17408 H 1612.64 -0.828555 -2.8625 0
M  V30 17409 H 1610.17 -0.420286 -1.40968 0
M  V30 17410 H 1612.13 1.41193 -3.92582 0
M  V30 17411 H 1610.76 1.60462 -2.80092 0
M  V30 17412 H 1609.81 -0.620132 -3.75311 0
M  V30 17413 H 1611.12 -0.595895 -4.95228 0
M  V30 17414 H 1610.28 1.57874 -5.85799 0
M  V30 17415 H 1609.02 1.63675 -4.59415 0
M  V30 17416 H 1608.02 -0.492793 -5.47587 0
M  V30 17417 H 1609.25 -0.534251 -6.76995 0
M  V30 17418 H 1607.19 1.669 -6.34413 0
M  V30 17419 H 1607.11 0.425013 -7.54804 0
M  V30 17420 H 1608.38 1.61159 -7.62659 0
M  V30 17421 N 1612.61 1.50847 -0.456408 0
M  V30 17422 C 1613.54 2.26004 0.381421 0
M  V30 17423 C 1614.55 1.30757 0.969872 0
M  V30 17424 O 1615.74 1.56375 0.86077 0
M  V30 17425 C 1612.84 3.01506 1.54748 0
M  V30 17426 C 1612.01 4.23997 1.07448 0
M  V30 17427 C 1611.07 4.81917 2.11288 0
M  V30 17428 O 1610.1 5.43238 1.69945 0
M  V30 17429 N 1611.3 4.67622 3.43962 0
M  V30 17430 H 1614.07 2.98545 -0.262823 0
M  V30 17431 H 1611.63 1.59347 -0.286357 0
M  V30 17432 H 1613.62 3.37137 2.23877 0
M  V30 17433 H 1612.19 2.31856 2.0967 0
M  V30 17434 H 1611.41 3.93642 0.209584 0
M  V30 17435 H 1612.7 5.03446 0.736144 0
M  V30 17436 H 1612.1 4.18821 3.8027 0
M  V30 17437 H 1610.65 5.07562 4.0893 0
M  V30 17438 N 1614.09 0.188454 1.56469 0
M  V30 17439 C 1615.31 -0.460975 2.02212 0
M  V30 17440 C 1615.74 -1.54856 1.06777 0
M  V30 17441 O 1615.09 -1.81231 0.0501425 0
M  V30 17442 C 1615.14 -1.00047 3.46443 0
M  V30 17443 O 1614.25 -2.1137 3.54114 0
M  V30 17444 H 1613.59 -0.108497 0.655076 0
M  V30 17445 H 1616.12 0.297381 2.02427 0
M  V30 17446 H 1616.13 -1.31876 3.86099 0
M  V30 17447 H 1614.8 -0.204273 4.15398 0
M  V30 17448 H 1613.38 -1.80456 3.26328 0
M  V30 17449 N 1615.56 -1.5737 -0.0851874 0
M  V30 17450 C 1616.79 -1.90802 -0.800137 0
M  V30 17451 C 1617.21 -0.783132 -1.71792 0
M  V30 17452 O 1616.56 0.244331 -1.80857 0
M  V30 17453 C 1616.61 -3.2391 -1.60513 0
M  V30 17454 O 1616.34 -4.32072 -0.724253 0
M  V30 17455 C 1617.84 -3.7127 -2.42226 0
M  V30 17456 H 1615.06 -0.630988 -0.228242 0
M  V30 17457 H 1617.6 -2.04414 -0.0594587 0
M  V30 17458 H 1615.76 -3.11867 -2.29822 0
M  V30 17459 H 1616.17 -5.08571 -1.28279 0
M  V30 17460 H 1617.64 -4.67074 -2.94187 0
M  V30 17461 H 1618.12 -2.99606 -3.21143 0
M  V30 17462 H 1618.73 -3.86214 -1.78099 0
M  V30 17463 N 1617.04 0.356258 -1.53521 0
M  V30 17464 C 1617.99 1.43689 -1.80616 0
M  V30 17465 C 1618.96 1.52808 -0.651064 0
M  V30 17466 O 1620.14 1.68549 -0.894203 0
M  V30 17467 C 1617.28 2.80513 -2.01013 0
M  V30 17468 C 1616.4 2.80287 -3.2873 0
M  V30 17469 C 1615.53 4.08747 -3.39263 0
M  V30 17470 C 1614.57 4.02699 -4.60977 0
M  V30 17471 N 1613.71 5.22825 -4.68614 0
M  V30 17472 H 1618.55 1.19884 -2.72822 0
M  V30 17473 H 1616.08 0.580984 -1.35141 0
M  V30 17474 H 1618.04 3.60011 -2.10827 0
M  V30 17475 H 1616.67 3.02698 -1.12134 0
M  V30 17476 H 1615.72 1.92968 -3.27822 0
M  V30 17477 H 1617.04 2.71693 -4.18311 0
M  V30 17478 H 1616.19 4.96663 -3.4844 0
M  V30 17479 H 1614.93 4.20106 -2.47715 0
M  V30 17480 H 1613.93 3.13168 -4.51892 0
M  V30 17481 H 1615.16 3.92934 -5.53877 0
M  V30 17482 H 1613.11 5.34752 -3.79969 0
M  V30 17483 H 1613.02 5.16437 -5.52113 0
M  V30 17484 H 1614.29 6.12548 -4.82085 0
M  V30 17485 N 1618.52 1.45038 0.616577 0
M  V30 17486 C 1619.45 1.55858 1.73869 0
M  V30 17487 C 1620.43 0.410657 1.65069 0
M  V30 17488 O 1621.62 0.632652 1.83606 0
M  V30 17489 C 1618.75 1.51635 3.12448 0
M  V30 17490 C 1617.7 2.65053 3.36052 0
M  V30 17491 C 1617.03 2.45883 4.74811 0
M  V30 17492 C 1618.33 4.07121 3.27185 0
M  V30 17493 H 1620.02 2.49784 1.6507 0
M  V30 17494 H 1617.57 1.20216 0.792724 0
M  V30 17495 H 1619.52 1.57803 3.90738 0
M  V30 17496 H 1618.24 0.542342 3.22066 0
M  V30 17497 H 1616.9 2.58299 2.60149 0
M  V30 17498 H 1616.55 1.46641 4.8115 0
M  V30 17499 H 1616.25 3.21935 4.9156 0
M  V30 17500 H 1617.77 2.53892 5.55312 0
M  V30 17501 H 1619.19 4.15167 3.9536 0
M  V30 17502 H 1617.58 4.83491 3.55466 0
M  V30 17503 H 1618.65 4.29663 2.24762 0
M  V30 17504 N 1620 -0.858287 1.32179 0
M  V30 17505 C 1621.24 -1.6261 1.23844 0
M  V30 17506 C 1621.6 -1.9098 -0.197628 0
M  V30 17507 O 1622.8 -2.65737 -0.40465 0
M  V30 17508 C 1621.07 -2.91319 2.07047 0
M  V30 17509 S 1622.63 -3.82125 2.15699 0
M  V30 17510 H 1619.45 -0.557789 0.4409 0
M  V30 17511 H 1622.05 -1.0167 1.66983 0
M  V30 17512 H 1620.76 -2.68417 3.10452 0
M  V30 17513 H 1620.29 -3.57277 1.64671 0
M  V30 17514 H 1622.3 -4.78764 1.30384 0
M  V30 17515 N 1621.48 -1.1533 -1.07409 0
M  V30 17516 C 1622.44 -0.852155 -2.1277 0
M  V30 17517 C 1623.44 0.14782 -1.60119 0
M  V30 17518 O 1624.63 -0.0817436 -1.74008 0
M  V30 17519 C 1621.76 -0.272233 -3.39811 0
M  V30 17520 H 1622.95 -1.78604 -2.40917 0
M  V30 17521 H 1620.51 -0.960698 -1.23289 0
M  V30 17522 H 1621.24 0.669873 -3.17306 0
M  V30 17523 H 1621.03 -0.992629 -3.79327 0
M  V30 17524 H 1622.52 -0.0790986 -4.17525 0
M  V30 17525 N 1622.95 1.25748 -0.950004 0
M  V30 17526 C 1623.88 2.28419 -0.484467 0
M  V30 17527 C 1624.86 1.63569 0.466813 0
M  V30 17528 O 1626.05 1.90705 0.366766 0
M  V30 17529 C 1623.18 3.46449 0.242916 0
M  V30 17530 C 1622.13 4.23447 -0.622657 0
M  V30 17531 C 1621.46 5.34182 0.235199 0
M  V30 17532 C 1622.76 4.86576 -1.89845 0
M  V30 17533 H 1624.45 2.6761 -1.34257 0
M  V30 17534 H 1622 1.28646 -0.647014 0
M  V30 17535 H 1623.95 4.17394 0.579693 0
M  V30 17536 H 1622.68 3.06235 1.13523 0
M  V30 17537 H 1621.34 3.54279 -0.942453 0
M  V30 17538 H 1620.98 4.90209 1.12713 0
M  V30 17539 H 1620.68 5.86612 -0.340609 0
M  V30 17540 H 1622.21 6.07961 0.567048 0
M  V30 17541 H 1623.62 5.49688 -1.62837 0
M  V30 17542 H 1622.02 5.49162 -2.41954 0
M  V30 17543 H 1623.09 4.09021 -2.60441 0
M  V30 17544 N 1624.43 0.718038 1.40292 0
M  V30 17545 C 1625.71 0.185648 1.94717 0
M  V30 17546 C 1626.09 -1.30916 1.65603 0
M  V30 17547 O 1625.44 -2.06653 0.975031 0
M  V30 17548 C 1625.65 0.501015 3.45385 0
M  V30 17549 C 1626.99 0.441021 4.22303 0
M  V30 17550 O 1628.02 0.437217 3.53507 0
M  V30 17551 O 1626.88 0.420689 5.44878 0
M  V30 17552 H 1623.97 0.0281581 0.82652 0
M  V30 17553 H 1626.52 0.795738 1.49887 0
M  V30 17554 H 1625.29 1.5348 3.59944 0
M  V30 17555 H 1624.91 -0.138913 3.97357 0
M  V30 17556 N 1625.91 -1.50602 0.464402 0
M  V30 17557 C 1627.16 -2.01887 -0.0927084 0
M  V30 17558 C 1627.48 -1.34891 -1.40817 0
M  V30 17559 O 1626.75 -0.492078 -1.89619 0
M  V30 17560 H 1625.33 -0.746071 -0.0372514 0
M  V30 17561 H 1627.99 -1.84999 0.613296 0
M  V30 17562 H 1627.09 -3.11105 -0.249067 0
M  V30 17563 N 1627.39 -0.19675 -1.56367 0
M  V30 17564 C 1628.64 0.440711 -1.97236 0
M  V30 17565 C 1628.96 1.62037 -1.08485 0
M  V30 17566 O 1628.23 1.95274 -0.156483 0
M  V30 17567 H 1626.81 0.16581 -0.728365 0
M  V30 17568 H 1629.47 -0.283867 -1.92822 0
M  V30 17569 H 1628.57 0.783731 -3.02099 0
M  V30 17570 N 1628.87 1.57413 0.0768405 0
M  V30 17571 C 1629.8 2.00058 1.11845 0
M  V30 17572 C 1630.81 0.905783 1.35275 0
M  V30 17573 O 1632 1.18372 1.33605 0
M  V30 17574 C 1629.1 2.32002 2.47039 0
M  V30 17575 C 1628.27 3.63265 2.43634 0
M  V30 17576 C 1627.33 3.82937 3.60896 0
M  V30 17577 O 1626.36 4.54582 3.42555 0
M  V30 17578 N 1627.56 3.24904 4.81059 0
M  V30 17579 H 1630.33 2.90026 0.75533 0
M  V30 17580 H 1627.89 1.59707 0.265567 0
M  V30 17581 H 1629.88 2.4234 3.24119 0
M  V30 17582 H 1628.45 1.4795 2.75372 0
M  V30 17583 H 1627.67 3.63727 1.51974 0
M  V30 17584 H 1628.96 4.49462 2.38455 0
M  V30 17585 H 1628.35 2.66742 4.98864 0
M  V30 17586 H 1626.91 3.40699 5.55669 0
M  V30 17587 N 1630.34 -0.348112 1.53707 0
M  V30 17588 C 1631.25 -1.45079 1.84361 0
M  V30 17589 C 1632.27 -1.5779 0.733375 0
M  V30 17590 O 1633.45 -1.73353 1.02522 0
M  V30 17591 C 1630.51 -2.80127 2.04278 0
M  V30 17592 C 1629.57 -2.76799 3.28148 0
M  V30 17593 C 1628.81 -4.05406 3.47105 0
M  V30 17594 O 1629.03 -5.02454 2.69992 0
M  V30 17595 O 1627.96 -4.10155 4.40519 0
M  V30 17596 H 1631.79 -1.22093 2.78077 0
M  V30 17597 H 1629.37 -0.539863 1.39305 0
M  V30 17598 H 1631.26 -3.60115 2.18849 0
M  V30 17599 H 1629.93 -3.03055 1.13751 0
M  V30 17600 H 1628.84 -1.95448 3.18984 0
M  V30 17601 H 1630.17 -2.58826 4.18653 0
M  V30 17602 N 1631.82 -1.45363 -0.608876 0
M  V30 17603 C 1632.75 -1.49944 -1.73348 0
M  V30 17604 C 1633.77 -0.390352 -1.58051 0
M  V30 17605 O 1634.96 -0.657338 -1.65956 0
M  V30 17606 C 1632.06 -1.33886 -3.11332 0
M  V30 17607 C 1631.23 -2.58445 -3.52881 0
M  V30 17608 C 1630.29 -2.36963 -4.69825 0
M  V30 17609 O 1629.31 -3.10569 -4.77007 0
M  V30 17610 N 1630.52 -1.41442 -5.63005 0
M  V30 17611 H 1633.28 -2.46902 -1.69882 0
M  V30 17612 H 1630.84 -1.41086 -0.794119 0
M  V30 17613 H 1632.83 -1.17327 -3.8732 0
M  V30 17614 H 1631.4 -0.452095 -3.09314 0
M  V30 17615 H 1630.62 -2.90129 -2.66869 0
M  V30 17616 H 1631.91 -3.41245 -3.77398 0
M  V30 17617 H 1631.31 -0.806941 -5.59915 0
M  V30 17618 H 1629.87 -1.30855 -6.3853 0
M  V30 17619 N 1633.3 0.851265 -1.32632 0
M  V30 17620 C 1634.23 1.96682 -1.17681 0
M  V30 17621 C 1635.25 1.62422 -0.110926 0
M  V30 17622 O 1636.43 1.74828 -0.360202 0
M  V30 17623 C 1633.53 3.29806 -0.779838 0
M  V30 17624 C 1632.71 3.92284 -1.93473 0
M  V30 17625 C 1631.77 5.03745 -1.52075 0
M  V30 17626 O 1630.79 5.23558 -2.23328 0
M  V30 17627 N 1631.99 5.78988 -0.418695 0
M  V30 17628 H 1634.76 2.10049 -2.13775 0
M  V30 17629 H 1632.32 1.02631 -1.25214 0
M  V30 17630 H 1634.31 4.0178 -0.485236 0
M  V30 17631 H 1632.88 3.1247 0.0900498 0
M  V30 17632 H 1632.1 3.13054 -2.39564 0
M  V30 17633 H 1633.39 4.30762 -2.7078 0
M  V30 17634 H 1632.79 5.65432 0.174269 0
M  V30 17635 H 1631.35 6.51541 -0.183714 0
M  V30 17636 N 1634.78 1.15898 1.06796 0
M  V30 17637 C 1636.01 0.959978 1.82943 0
M  V30 17638 C 1636.42 -0.495084 1.82608 0
M  V30 17639 O 1635.76 -1.35528 1.24008 0
M  V30 17640 C 1635.82 1.40408 3.30947 0
M  V30 17641 C 1635.49 2.87801 3.54993 0
M  V30 17642 C 1636.48 3.85834 3.48465 0
M  V30 17643 C 1634.17 3.25601 3.82478 0
M  V30 17644 C 1636.16 5.19672 3.6908 0
M  V30 17645 C 1633.85 4.59609 4.02744 0
M  V30 17646 C 1634.85 5.56454 3.96041 0
M  V30 17647 O 1634.53 6.8804 4.1576 0
M  V30 17648 H 1634.27 0.340717 0.583856 0
M  V30 17649 H 1636.82 1.54211 1.35677 0
M  V30 17650 H 1635.05 0.765395 3.7905 0
M  V30 17651 H 1636.74 1.1733 3.88572 0
M  V30 17652 H 1637.51 3.57977 3.27227 0
M  V30 17653 H 1633.38 2.50803 3.86806 0
M  V30 17654 H 1636.93 5.95249 3.63764 0
M  V30 17655 H 1632.83 4.8718 4.23469 0
M  V30 17656 H 1633.59 6.94541 4.33076 0
M  V30 17657 N 1636.26 -1.25243 0.956659 0
M  V30 17658 C 1637.21 -2.23532 0.449171 0
M  V30 17659 C 1638.19 -1.54103 -0.462715 0
M  V30 17660 O 1639.38 -1.74517 -0.295436 0
M  V30 17661 C 1636.51 -3.42237 -0.269892 0
M  V30 17662 C 1635.6 -4.1893 0.660181 0
M  V30 17663 N 1635.99 -4.72965 1.7927 0
M  V30 17664 C 1634.29 -4.4353 0.468779 0
M  V30 17665 C 1634.99 -5.31072 2.37355 0
M  V30 17666 N 1633.96 -5.17638 1.65986 0
M  V30 17667 H 1637.77 -2.62918 1.31345 0
M  V30 17668 H 1635.28 -1.40504 0.814394 0
M  V30 17669 H 1637.28 -4.11792 -0.650604 0
M  V30 17670 H 1635.94 -3.04375 -1.13075 0
M  V30 17671 H 1636.95 -4.70038 2.17451 0
M  V30 17672 H 1633.62 -4.16038 -0.349031 0
M  V30 17673 H 1635.01 -5.83654 3.32863 0
M  V30 17674 N 1637.73 -0.725468 -1.3991 0
M  V30 17675 C 1638.96 -0.277821 -2.05531 0
M  V30 17676 C 1639.38 1.07547 -1.54322 0
M  V30 17677 O 1638.74 1.6795 -0.682828 0
M  V30 17678 C 1638.79 -0.278676 -3.59522 0
M  V30 17679 O 1637.89 0.736864 -4.05764 0
M  V30 17680 H 1637.24 -0.128243 -0.651498 0
M  V30 17681 H 1639.77 -0.988721 -1.79124 0
M  V30 17682 H 1639.78 -0.119765 -4.07824 0
M  V30 17683 H 1638.45 -1.2662 -3.96157 0
M  V30 17684 H 1637.03 0.544869 -3.68898 0
M  V30 17685 N 1639.21 1.50354 -0.472382 0
M  V30 17686 C 1640.16 2.28555 0.321118 0
M  V30 17687 C 1641.13 1.33665 0.98605 0
M  V30 17688 O 1642.31 1.62603 0.998239 0
M  V30 17689 C 1639.45 3.15586 1.39641 0
M  V30 17690 C 1638.57 4.25508 0.746129 0
M  V30 17691 C 1637.7 4.99794 1.79943 0
M  V30 17692 C 1636.74 6.01589 1.12946 0
M  V30 17693 N 1635.88 6.69149 2.12567 0
M  V30 17694 H 1640.72 2.95913 -0.352051 0
M  V30 17695 H 1638.26 1.45926 -0.185461 0
M  V30 17696 H 1640.21 3.64397 2.03152 0
M  V30 17697 H 1638.84 2.50271 2.03873 0
M  V30 17698 H 1637.9 3.804 -0.00157718 0
M  V30 17699 H 1639.21 4.98326 0.217335 0
M  V30 17700 H 1638.36 5.5233 2.51031 0
M  V30 17701 H 1637.1 4.26684 2.36203 0
M  V30 17702 H 1636.11 5.48312 0.404207 0
M  V30 17703 H 1637.33 6.76672 0.573735 0
M  V30 17704 H 1635.28 5.9883 2.67841 0
M  V30 17705 H 1635.19 7.37847 1.64676 0
M  V30 17706 H 1636.46 7.26301 2.83031 0
M  V30 17707 N 1640.69 0.205039 1.56261 0
M  V30 17708 C 1641.94 -0.431364 1.97033 0
M  V30 17709 C 1642.25 -1.62066 1.09517 0
M  V30 17710 O 1643.46 -2.32551 1.40116 0
M  V30 17711 C 1641.92 -0.818841 3.50461 0
M  V30 17712 C 1641.52 0.346723 4.46656 0
M  V30 17713 C 1643.27 -1.42177 3.99982 0
M  V30 17714 C 1641.17 -0.0622677 5.91367 0
M  V30 17715 H 1640.1 -0.164934 0.73574 0
M  V30 17716 H 1642.76 0.298635 1.81054 0
M  V30 17717 H 1641.14 -1.60579 3.61981 0
M  V30 17718 H 1642.31 1.12427 4.46874 0
M  V30 17719 H 1640.63 0.861799 4.07384 0
M  V30 17720 H 1643.22 -1.74039 5.05583 0
M  V30 17721 H 1643.57 -2.33177 3.44868 0
M  V30 17722 H 1644.1 -0.698591 3.91618 0
M  V30 17723 H 1640.84 0.813802 6.50429 0
M  V30 17724 H 1640.36 -0.804474 5.94381 0
M  V30 17725 H 1642.04 -0.49466 6.45106 0
M  V30 17726 N 1642.17 -1.57451 -0.0684915 0
M  V30 17727 C 1643.45 -1.78483 -0.800209 0
M  V30 17728 C 1643.83 -0.793438 -1.95621 0
M  V30 17729 O 1643.17 0.172756 -2.27846 0
M  V30 17730 C 1643.38 -3.25069 -1.27008 0
M  V30 17731 C 1644.73 -3.8899 -1.70212 0
M  V30 17732 O 1645.76 -3.2898 -1.36566 0
M  V30 17733 O 1644.62 -4.94569 -2.32515 0
M  V30 17734 H 1641.71 -0.732598 -0.383704 0
M  V30 17735 H 1644.26 -1.69631 -0.0483117 0
M  V30 17736 H 1643.03 -3.88784 -0.443067 0
M  V30 17737 H 1642.65 -3.38657 -2.08319 0
M  V30 17738 N 1643.65 0.339955 -1.5389 0
M  V30 17739 C 1644.92 1.09703 -1.6194 0
M  V30 17740 C 1645.3 2.06401 -0.442907 0
M  V30 17741 O 1644.65 2.21418 0.564477 0
M  V30 17742 C 1644.86 1.8135 -2.98183 0
M  V30 17743 C 1646.21 2.34965 -3.53662 0
M  V30 17744 O 1647.23 1.91442 -3.00381 0
M  V30 17745 O 1646.09 3.14601 -4.46865 0
M  V30 17746 H 1643.19 0.504703 -0.655136 0
M  V30 17747 H 1645.73 0.34116 -1.66235 0
M  V30 17748 H 1644.51 1.10924 -3.75249 0
M  V30 17749 H 1644.13 2.63787 -2.97494 0
M  V30 17750 N 1645.13 1.45684 0.601159 0
M  V30 17751 C 1646.06 1.57694 1.72206 0
M  V30 17752 C 1647.04 0.428141 1.64624 0
M  V30 17753 O 1648.22 0.65209 1.82925 0
M  V30 17754 C 1645.35 1.54941 3.10822 0
M  V30 17755 C 1644.31 2.68603 3.33222 0
M  V30 17756 C 1643.63 2.50906 4.72176 0
M  V30 17757 C 1644.93 4.10568 3.22849 0
M  V30 17758 H 1646.63 2.51521 1.62412 0
M  V30 17759 H 1644.17 1.2105 0.779929 0
M  V30 17760 H 1646.12 1.61939 3.89042 0
M  V30 17761 H 1644.85 0.576471 3.21472 0
M  V30 17762 H 1643.51 2.61043 2.57394 0
M  V30 17763 H 1643.16 1.51736 4.79568 0
M  V30 17764 H 1642.86 3.27131 4.88118 0
M  V30 17765 H 1644.38 2.59767 5.52588 0
M  V30 17766 H 1645.79 4.19336 3.90935 0
M  V30 17767 H 1644.19 4.87234 3.50318 0
M  V30 17768 H 1645.26 4.32022 2.20192 0
M  V30 17769 N 1646.6 -0.84422 1.33082 0
M  V30 17770 C 1647.85 -1.59404 1.23585 0
M  V30 17771 C 1648.17 -1.94593 -0.198208 0
M  V30 17772 O 1649.37 -2.68307 -0.415138 0
M  V30 17773 C 1647.83 -2.87489 2.16513 0
M  V30 17774 C 1647.44 -2.59685 3.65059 0
M  V30 17775 C 1649.18 -3.6551 2.15877 0
M  V30 17776 C 1647.09 -3.83834 4.49917 0
M  V30 17777 H 1646.02 -0.598191 0.459003 0
M  V30 17778 H 1648.67 -0.931299 1.58111 0
M  V30 17779 H 1647.05 -3.55276 1.74913 0
M  V30 17780 H 1648.22 -2.00143 4.15065 0
M  V30 17781 H 1646.54 -1.94977 3.6793 0
M  V30 17782 H 1649.14 -4.57654 2.76509 0
M  V30 17783 H 1649.48 -4.00031 1.15244 0
M  V30 17784 H 1650.01 -3.0464 2.55811 0
M  V30 17785 H 1646.75 -3.54448 5.51404 0
M  V30 17786 H 1646.27 -4.42734 4.04656 0
M  V30 17787 H 1647.95 -4.51468 4.63449 0
M  V30 17788 N 1648.08 -1.16463 -1.0618 0
M  V30 17789 C 1649.36 -0.857038 -1.75824 0
M  V30 17790 C 1649.74 0.644886 -2.01009 0
M  V30 17791 O 1649.09 1.59305 -1.63812 0
M  V30 17792 C 1649.3 -1.681 -3.05849 0
M  V30 17793 C 1650.64 -1.8947 -3.79982 0
M  V30 17794 O 1651.67 -1.64975 -3.15692 0
M  V30 17795 O 1650.53 -2.30573 -4.95478 0
M  V30 17796 H 1647.62 -0.316364 -0.764096 0
M  V30 17797 H 1650.17 -1.27105 -1.12438 0
M  V30 17798 H 1648.94 -2.70014 -2.8321 0
M  V30 17799 H 1648.56 -1.2641 -3.7697 0
M  V30 17800 N 1649.56 1.24734 -0.963288 0
M  V30 17801 C 1650.51 2.27557 -0.481704 0
M  V30 17802 C 1651.5 1.63245 0.452488 0
M  V30 17803 O 1652.71 1.76981 0.328263 0
M  V30 17804 H 1649.08 0.73936 -0.137297 0
M  V30 17805 H 1651.05 2.65555 -1.361 0
M  V30 17806 C 1649.8 3.47023 0.216806 0
M  V30 17807 H 1649.13 3.9675 -0.492916 0
M  V30 17808 H 1650.57 4.20828 0.517659 0
M  V30 17809 C 1649.02 3.04466 1.44229 0
M  V30 17810 O 1649.55 3.11238 2.53956 0
M  V30 17811 N 1647.76 2.59563 1.30674 0
M  V30 17812 H 1647.31 2.54252 0.41395 0
M  V30 17813 H 1647.27 2.31453 2.12783 0
M  V30 17814 N 1651.04 0.732878 1.39523 0
M  V30 17815 C 1652.26 0.288717 2.05381 0
M  V30 17816 C 1652.69 -1.06727 1.5489 0
M  V30 17817 O 1652.05 -1.67585 0.691726 0
M  V30 17818 C 1652.09 0.297738 3.59369 0
M  V30 17819 O 1651.2 -0.715335 4.06149 0
M  V30 17820 H 1650.54 0.131696 0.650809 0
M  V30 17821 H 1653.07 0.998206 1.78597 0
M  V30 17822 H 1653.08 0.141391 4.07755 0
M  V30 17823 H 1651.75 1.28719 3.9548 0
M  V30 17824 H 1650.33 -0.525298 3.69182 0
M  V30 17825 N 1652.52 -1.50101 0.480349 0
M  V30 17826 C 1653.76 -2.02674 -0.0715373 0
M  V30 17827 C 1654.09 -1.36095 -1.38535 0
M  V30 17828 O 1653.37 -0.489703 -1.88234 0
M  V30 17829 C 1653.65 -3.59261 -0.245693 0
M  V30 17830 C 1653.51 -4.36399 1.08979 0
M  V30 17831 C 1654.82 -4.28682 -0.995966 0
M  V30 17832 H 1651.94 -0.736592 -0.0245244 0
M  V30 17833 H 1654.59 -1.7933 0.627743 0
M  V30 17834 H 1652.74 -3.79281 -0.841308 0
M  V30 17835 H 1654.41 -4.27926 1.72269 0
M  V30 17836 H 1652.65 -3.99773 1.68417 0
M  V30 17837 H 1653.32 -5.44254 0.921468 0
M  V30 17838 H 1655.8 -4.13193 -0.491025 0
M  V30 17839 H 1654.67 -5.38037 -1.08663 0
M  V30 17840 H 1654.93 -3.92491 -2.03479 0
M  V30 17841 N 1653.99 -0.213323 -1.5615 0
M  V30 17842 C 1654.94 0.700175 -2.19923 0
M  V30 17843 C 1655.91 1.19641 -1.15218 0
M  V30 17844 O 1657.1 1.257 -1.43542 0
M  V30 17845 C 1654.24 1.90629 -2.87671 0
M  V30 17846 C 1653.35 1.44973 -4.06948 0
M  V30 17847 C 1652.48 2.61277 -4.62502 0
M  V30 17848 C 1651.52 2.12316 -5.74098 0
M  V30 17849 N 1650.66 3.21862 -6.23978 0
M  V30 17850 H 1655.5 0.14961 -2.97624 0
M  V30 17851 H 1653.04 0.0620957 -1.46969 0
M  V30 17852 H 1654.99 2.61431 -3.2513 0
M  V30 17853 H 1653.62 2.42987 -2.12502 0
M  V30 17854 H 1652.68 0.636917 -3.7503 0
M  V30 17855 H 1653.99 1.05065 -4.87609 0
M  V30 17856 H 1653.14 3.40174 -5.02361 0
M  V30 17857 H 1651.88 3.04468 -3.80987 0
M  V30 17858 H 1650.89 1.31877 -5.33749 0
M  V30 17859 H 1652.11 1.70134 -6.57443 0
M  V30 17860 H 1650.06 3.64551 -5.45379 0
M  V30 17861 H 1649.97 2.86181 -6.9974 0
M  V30 17862 H 1651.24 4.0092 -6.68493 0
M  V30 17863 N 1655.47 1.57485 0.0601405 0
M  V30 17864 C 1656.38 2.07853 1.08785 0
M  V30 17865 C 1657.4 1.01047 1.41653 0
M  V30 17866 O 1658.57 1.32592 1.51596 0
M  V30 17867 C 1655.64 2.52214 2.37885 0
M  V30 17868 C 1654.7 3.73369 2.11882 0
M  V30 17869 C 1653.93 4.15604 3.34827 0
M  V30 17870 O 1654.16 3.5761 4.44377 0
M  V30 17871 O 1653.09 5.08303 3.22353 0
M  V30 17872 H 1656.92 2.9576 0.689912 0
M  V30 17873 H 1654.5 1.46846 0.275065 0
M  V30 17874 H 1656.38 2.81216 3.1384 0
M  V30 17875 H 1655.06 1.67432 2.77035 0
M  V30 17876 H 1653.97 3.49433 1.33594 0
M  V30 17877 H 1655.3 4.59039 1.77606 0
M  V30 17878 N 1656.95 -0.331789 1.54068 0
M  V30 17879 C 1658.2 -1.06818 1.71093 0
M  V30 17880 C 1658.51 -1.89438 0.487111 0
M  V30 17881 O 1659.72 -2.66105 0.538544 0
M  V30 17882 C 1658.17 -1.94853 3.02589 0
M  V30 17883 C 1657.78 -1.17384 4.32348 0
M  V30 17884 C 1659.53 -2.68278 3.28979 0
M  V30 17885 C 1657.43 -2.04518 5.54911 0
M  V30 17886 H 1656.36 -0.402501 0.63758 0
M  V30 17887 H 1659.01 -0.326918 1.80564 0
M  V30 17888 H 1657.4 -2.72845 2.87004 0
M  V30 17889 H 1658.57 -0.442208 4.58673 0
M  V30 17890 H 1656.89 -0.556775 4.12661 0
M  V30 17891 H 1659.48 -3.33762 4.1774 0
M  V30 17892 H 1659.83 -3.35476 2.46498 0
M  V30 17893 H 1660.36 -1.97353 3.45394 0
M  V30 17894 H 1657.1 -1.41842 6.3997 0
M  V30 17895 H 1656.62 -2.75438 5.32817 0
M  V30 17896 H 1658.3 -2.63297 5.91002 0
M  V30 17897 N 1658.43 -1.46001 -0.593424 0
M  V30 17898 C 1659.68 -1.50025 -1.34816 0
M  V30 17899 C 1659.99 -0.151905 -1.95009 0
M  V30 17900 O 1661.2 -0.0698751 -2.7141 0
M  V30 17901 C 1659.65 -2.643 -2.44282 0
M  V30 17902 C 1659.26 -4.05509 -1.90438 0
M  V30 17903 C 1661 -2.77584 -3.21165 0
M  V30 17904 C 1658.91 -5.11142 -2.97469 0
M  V30 17905 H 1657.84 -0.558299 -0.506772 0
M  V30 17906 H 1660.49 -1.72182 -0.634484 0
M  V30 17907 H 1658.87 -2.35453 -3.18399 0
M  V30 17908 H 1660.05 -4.44099 -1.22935 0
M  V30 17909 H 1658.36 -3.96798 -1.26256 0
M  V30 17910 H 1660.96 -3.53673 -4.01023 0
M  V30 17911 H 1661.3 -1.84718 -3.73075 0
M  V30 17912 H 1661.84 -3.06026 -2.54151 0
M  V30 17913 H 1658.58 -6.05764 -2.5046 0
M  V30 17914 H 1658.1 -4.77107 -3.63495 0
M  V30 17915 H 1659.77 -5.36516 -3.61607 0
M  V30 17916 N 1659.91 0.83715 -1.33527 0
M  V30 17917 C 1661.13 1.62976 -1.28271 0
M  V30 17918 C 1661.56 1.87554 0.143201 0
M  V30 17919 O 1660.91 1.44088 1.10038 0
M  V30 17920 C 1660.96 2.95607 -2.06516 0
M  V30 17921 O 1660.07 3.87 -1.42494 0
M  V30 17922 H 1659.41 0.496212 -0.441214 0
M  V30 17923 H 1661.94 1.04137 -1.76115 0
M  V30 17924 H 1661.95 3.4529 -2.17344 0
M  V30 17925 H 1660.62 2.77041 -3.10195 0
M  V30 17926 H 1659.2 3.45492 -1.40321 0
M  V30 17927 N 1661.38 1.17024 1.05561 0
M  V30 17928 C 1662.31 0.906823 2.15172 0
M  V30 17929 C 1663.3 -0.149745 1.6944 0
M  V30 17930 O 1664.48 -0.000287092 1.942 0
M  V30 17931 C 1661.61 0.415251 3.44809 0
M  V30 17932 C 1660.56 1.41058 4.04088 0
M  V30 17933 C 1659.89 0.777109 5.29023 0
M  V30 17934 C 1661.19 2.78258 4.42007 0
M  V30 17935 H 1662.88 1.82347 2.37466 0
M  V30 17936 H 1660.43 0.878162 1.14124 0
M  V30 17937 H 1662.38 0.218407 4.20834 0
M  V30 17938 H 1661.11 -0.536924 3.22156 0
M  V30 17939 H 1659.77 1.5941 3.30127 0
M  V30 17940 H 1659.41 -0.181784 5.02671 0
M  V30 17941 H 1659.11 1.44151 5.69644 0
M  V30 17942 H 1660.64 0.590455 6.07738 0
M  V30 17943 H 1662.05 2.63645 5.09082 0
M  V30 17944 H 1660.45 3.41241 4.93634 0
M  V30 17945 H 1661.52 3.3295 3.52523 0
M  V30 17946 N 1662.86 -1.24221 0.969889 0
M  V30 17947 C 1663.79 -2.27619 0.520745 0
M  V30 17948 C 1664.77 -1.64291 -0.440731 0
M  V30 17949 O 1665.96 -1.91265 -0.336381 0
M  V30 17950 C 1663.09 -3.46792 -0.187768 0
M  V30 17951 C 1662.04 -4.22402 0.689945 0
M  V30 17952 C 1661.37 -5.34489 -0.150186 0
M  V30 17953 C 1662.67 -4.83494 1.97562 0
M  V30 17954 H 1664.36 -2.65441 1.38498 0
M  V30 17955 H 1661.91 -1.276 0.667398 0
M  V30 17956 H 1663.86 -4.18263 -0.513216 0
M  V30 17957 H 1662.59 -3.08002 -1.08637 0
M  V30 17958 H 1661.24 -3.52734 0.998696 0
M  V30 17959 H 1660.89 -4.9194 -1.049 0
M  V30 17960 H 1660.59 -5.85996 0.433891 0
M  V30 17961 H 1662.12 -6.08786 -0.470255 0
M  V30 17962 H 1663.53 -5.47028 1.71561 0
M  V30 17963 H 1661.93 -5.45243 2.5066 0
M  V30 17964 H 1663 -4.04826 2.66915 0
M  V30 17965 N 1664.34 -0.740267 -1.39132 0
M  V30 17966 C 1665.59 -0.290953 -2.00702 0
M  V30 17967 C 1665.92 1.12051 -1.58613 0
M  V30 17968 O 1665.19 1.76488 -0.817457 0
M  V30 17969 C 1665.48 -0.398765 -3.57885 0
M  V30 17970 C 1665.33 -1.85038 -4.09977 0
M  V30 17971 C 1666.65 0.215717 -4.39571 0
M  V30 17972 H 1663.77 -0.107194 -0.729163 0
M  V30 17973 H 1666.41 -0.937411 -1.65265 0
M  V30 17974 H 1664.56 0.151613 -3.88204 0
M  V30 17975 H 1666.23 -2.45804 -3.90357 0
M  V30 17976 H 1664.48 -2.36994 -3.63341 0
M  V30 17977 H 1665.15 -1.87705 -5.19106 0
M  V30 17978 H 1667.62 -0.253518 -4.15327 0
M  V30 17979 H 1666.5 0.109966 -5.4879 0
M  V30 17980 H 1666.76 1.30242 -4.2248 0
M  V30 17981 N 1665.82 1.49844 -0.488302 0
M  V30 17982 C 1667.04 2.07313 0.0600937 0
M  V30 17983 C 1667.47 1.3478 1.3121 0
M  V30 17984 O 1666.83 0.400634 1.76818 0
M  V30 17985 C 1666.87 3.59268 0.309658 0
M  V30 17986 O 1665.98 3.88381 1.38688 0
M  V30 17987 H 1665.32 0.663681 -0.0205947 0
M  V30 17988 H 1667.85 1.92818 -0.684284 0
M  V30 17989 H 1667.86 4.04344 0.545 0
M  V30 17990 H 1666.53 4.11474 -0.605146 0
M  V30 17991 H 1665.11 3.55128 1.13749 0
M  V30 17992 N 1667.3 0.221601 1.56034 0
M  V30 17993 C 1668.24 -0.688502 2.20291 0
M  V30 17994 C 1669.21 -1.19028 1.15851 0
M  V30 17995 O 1670.4 -1.24936 1.44206 0
M  V30 17996 C 1667.54 -1.89101 2.88678 0
M  V30 17997 C 1666.65 -1.42812 4.07711 0
M  V30 17998 C 1665.79 -2.5882 4.63881 0
M  V30 17999 C 1664.83 -2.09268 5.75216 0
M  V30 18000 N 1663.96 -3.18549 6.25676 0
M  V30 18001 H 1668.8 -0.133824 2.97699 0
M  V30 18002 H 1666.34 -0.0543007 1.47 0
M  V30 18003 H 1668.3 -2.59704 3.26512 0
M  V30 18004 H 1666.93 -2.41857 2.13788 0
M  V30 18005 H 1665.98 -0.617019 3.75363 0
M  V30 18006 H 1667.29 -1.02478 4.8816 0
M  V30 18007 H 1666.45 -3.37505 5.04158 0
M  V30 18008 H 1665.18 -3.02443 3.82596 0
M  V30 18009 H 1664.19 -1.29045 5.34441 0
M  V30 18010 H 1665.41 -1.66645 6.58336 0
M  V30 18011 H 1663.36 -3.61653 5.47305 0
M  V30 18012 H 1663.28 -2.82466 7.01248 0
M  V30 18013 H 1664.55 -3.97369 6.7061 0
M  V30 18014 N 1668.77 -1.57515 -0.0517878 0
M  V30 18015 C 1670.02 -1.88214 -0.7471 0
M  V30 18016 C 1670.35 -0.815991 -1.76556 0
M  V30 18017 O 1669.6 0.185772 -1.94816 0
M  V30 18018 C 1669.9 -3.25625 -1.4732 0
M  V30 18019 C 1669.57 -4.46985 -0.592863 0
M  V30 18020 C 1668.23 -4.79923 -0.350322 0
M  V30 18021 C 1670.58 -5.21197 0.0163333 0
M  V30 18022 C 1667.91 -5.84474 0.510567 0
M  V30 18023 C 1670.26 -6.26661 0.864792 0
M  V30 18024 C 1668.93 -6.58087 1.11701 0
M  V30 18025 H 1668.2 -0.688725 -0.273383 0
M  V30 18026 H 1670.84 -1.91499 -0.00740375 0
M  V30 18027 H 1669.15 -3.18224 -2.28563 0
M  V30 18028 H 1670.85 -3.46619 -2.01634 0
M  V30 18029 H 1667.44 -4.21218 -0.792044 0
M  V30 18030 H 1671.62 -4.96048 -0.158125 0
M  V30 18031 H 1666.88 -6.0721 0.71452 0
M  V30 18032 H 1671.05 -6.83318 1.34347 0
M  V30 18033 H 1668.68 -7.38926 1.78584 0
M  V30 18034 N 1670.25 0.323614 -1.54242 0
M  V30 18035 C 1671.5 1.06314 -1.727 0
M  V30 18036 C 1671.83 1.87674 -0.499225 0
M  V30 18037 O 1671.11 1.87862 0.503805 0
M  V30 18038 C 1671.39 1.9879 -3.00258 0
M  V30 18039 C 1671.24 1.2076 -4.33286 0
M  V30 18040 C 1672.56 2.98314 -3.23569 0
M  V30 18041 H 1669.68 0.385101 -0.628384 0
M  V30 18042 H 1672.32 0.339801 -1.86937 0
M  V30 18043 H 1670.47 2.60468 -2.88251 0
M  V30 18044 H 1672.15 0.615425 -4.57176 0
M  V30 18045 H 1670.39 0.509878 -4.30793 0
M  V30 18046 H 1671.06 1.88662 -5.18759 0
M  V30 18047 H 1673.54 2.46757 -3.35037 0
M  V30 18048 H 1672.41 3.60204 -4.14179 0
M  V30 18049 H 1672.67 3.7077 -2.40795 0
M  V30 18050 N 1671.73 1.46313 0.585673 0
M  V30 18051 C 1672.96 1.55273 1.37496 0
M  V30 18052 C 1673.38 0.193481 1.87102 0
M  V30 18053 O 1672.74 -0.825859 1.61398 0
M  V30 18054 C 1672.79 2.5591 2.54052 0
M  V30 18055 O 1671.89 2.09208 3.55395 0
M  V30 18056 H 1671.23 0.522614 0.409598 0
M  V30 18057 H 1673.76 1.9186 0.710697 0
M  V30 18058 H 1673.77 2.75424 3.01008 0
M  V30 18059 H 1672.45 3.54619 2.17298 0
M  V30 18060 H 1671.02 1.9967 3.14939 0
M  V30 18061 N 1673.21 -0.830057 1.33969 0
M  V30 18062 C 1674.46 -1.58821 1.26111 0
M  V30 18063 C 1674.79 -1.9345 -0.170484 0
M  V30 18064 O 1674.06 -1.59433 -1.11407 0
M  V30 18065 C 1674.35 -2.89243 2.14501 0
M  V30 18066 C 1674.2 -2.61239 3.66162 0
M  V30 18067 C 1675.52 -3.90752 2.02487 0
M  V30 18068 H 1672.64 -0.576255 0.459455 0
M  V30 18069 H 1675.28 -0.956736 1.64154 0
M  V30 18070 H 1673.43 -3.43133 1.82186 0
M  V30 18071 H 1675.1 -2.13713 4.08809 0
M  V30 18072 H 1673.34 -1.94796 3.87604 0
M  V30 18073 H 1674.02 -3.54212 4.23365 0
M  V30 18074 H 1676.49 -3.46194 2.30844 0
M  V30 18075 H 1675.37 -4.79825 2.6657 0
M  V30 18076 H 1675.63 -4.30649 0.999704 0
M  V30 18077 N 1674.69 -1.17582 -1.04939 0
M  V30 18078 C 1675.62 -0.918221 -2.14688 0
M  V30 18079 C 1676.6 0.140757 -1.69517 0
M  V30 18080 O 1677.78 -0.0100118 -1.94197 0
M  V30 18081 C 1674.91 -0.433531 -3.44584 0
M  V30 18082 C 1673.87 -1.43199 -4.03334 0
M  V30 18083 C 1673.19 -0.805154 -5.28603 0
M  V30 18084 C 1674.49 -2.80598 -4.40525 0
M  V30 18085 H 1676.19 -1.83604 -2.36495 0
M  V30 18086 H 1673.73 -0.884202 -1.13657 0
M  V30 18087 H 1675.69 -0.240722 -4.20712 0
M  V30 18088 H 1674.41 0.519832 -3.22437 0
M  V30 18089 H 1673.07 -1.61158 -3.29277 0
M  V30 18090 H 1672.72 0.155124 -5.02761 0
M  V30 18091 H 1672.42 -1.4717 -5.68871 0
M  V30 18092 H 1673.94 -0.622677 -6.07417 0
M  V30 18093 H 1675.36 -2.66341 -5.07676 0
M  V30 18094 H 1673.75 -3.43854 -4.91817 0
M  V30 18095 H 1674.82 -3.34815 -3.50752 0
M  V30 18096 N 1676.17 1.23705 -0.976463 0
M  V30 18097 C 1677.08 2.28728 -0.521605 0
M  V30 18098 C 1678.09 1.68813 0.421691 0
M  V30 18099 O 1679.27 1.99263 0.292579 0
M  V30 18100 C 1676.33 3.4627 0.172545 0
M  V30 18101 C 1675.39 4.21557 -0.811664 0
M  V30 18102 C 1674.63 5.33488 -0.150546 0
M  V30 18103 O 1674.85 5.60478 1.05926 0
M  V30 18104 O 1673.78 5.95909 -0.847132 0
M  V30 18105 H 1677.61 2.6977 -1.39491 0
M  V30 18106 H 1675.19 1.29562 -0.743909 0
M  V30 18107 H 1677.08 4.17634 0.562103 0
M  V30 18108 H 1675.75 3.07187 1.02067 0
M  V30 18109 H 1674.66 3.52533 -1.25185 0
M  V30 18110 H 1675.99 4.6448 -1.62848 0
M  V30 18111 N 1677.64 0.747635 1.38738 0
M  V30 18112 C 1678.89 0.300552 1.99853 0
M  V30 18113 C 1679.21 -1.11986 1.59638 0
M  V30 18114 O 1678.48 -1.76477 0.850447 0
M  V30 18115 H 1677.06 0.108134 0.739132 0
M  V30 18116 H 1679.72 0.960405 1.69594 0
M  V30 18117 H 1678.82 0.358956 3.10029 0
M  V30 18118 N 1679.12 -1.49583 0.496242 0
M  V30 18119 C 1680.37 -2.02738 -0.050037 0
M  V30 18120 C 1680.7 -1.37556 -1.37083 0
M  V30 18121 O 1679.98 -0.50964 -1.87704 0
M  V30 18122 C 1680.26 -3.59501 -0.207575 0
M  V30 18123 C 1680.11 -4.35218 1.13601 0
M  V30 18124 C 1681.43 -4.29715 -0.950443 0
M  V30 18125 H 1678.55 -0.736811 -0.0167105 0
M  V30 18126 H 1681.19 -1.78654 0.646728 0
M  V30 18127 H 1679.34 -3.80152 -0.801033 0
M  V30 18128 H 1681.01 -4.26075 1.76798 0
M  V30 18129 H 1679.26 -3.97964 1.72648 0
M  V30 18130 H 1679.93 -5.43247 0.979142 0
M  V30 18131 H 1682.4 -4.1369 -0.447173 0
M  V30 18132 H 1681.28 -5.39159 -1.02951 0
M  V30 18133 H 1681.54 -3.94627 -1.99304 0
M  V30 18134 N 1680.6 -0.229873 -1.55915 0
M  V30 18135 C 1681.53 0.671321 -2.23642 0
M  V30 18136 C 1682.51 1.19461 -1.21091 0
M  V30 18137 O 1683.7 1.23708 -1.49699 0
M  V30 18138 C 1680.83 1.87595 -2.92276 0
M  V30 18139 C 1679.78 1.48616 -4.01369 0
M  V30 18140 C 1679.11 2.77024 -4.57342 0
M  V30 18141 C 1680.41 0.669928 -5.17986 0
M  V30 18142 H 1682.1 0.106622 -2.9921 0
M  V30 18143 H 1679.65 0.0498418 -1.43914 0
M  V30 18144 H 1681.6 2.51191 -3.3835 0
M  V30 18145 H 1680.32 2.46576 -2.14168 0
M  V30 18146 H 1678.98 0.873623 -3.56038 0
M  V30 18147 H 1678.63 3.34166 -3.75955 0
M  V30 18148 H 1678.33 2.51674 -5.30975 0
M  V30 18149 H 1679.85 3.41548 -5.0614 0
M  V30 18150 H 1681.27 1.20978 -5.6039 0
M  V30 18151 H 1679.66 0.513174 -5.97902 0
M  V30 18152 H 1680.73 -0.321644 -4.83832 0
M  V30 18153 N 1682.08 1.5754 0.0434337 0
M  V30 18154 C 1683.3 1.93247 0.753012 0
M  V30 18155 C 1683.73 0.828712 1.68861 0
M  V30 18156 O 1683.09 -0.216618 1.80001 0
M  V30 18157 C 1683.13 3.27989 1.49852 0
M  V30 18158 O 1682.24 3.19223 2.61094 0
M  V30 18159 H 1681.58 0.632032 0.203547 0
M  V30 18160 H 1684.11 2.046 0.00319776 0
M  V30 18161 H 1684.12 3.62539 1.87161 0
M  V30 18162 H 1682.79 4.07891 0.812251 0
M  V30 18163 H 1681.37 2.9628 2.26434 0
M  V30 18164 N 1683.56 -0.31543 1.54411 0
M  V30 18165 C 1684.5 -1.3885 1.84362 0
M  V30 18166 C 1685.47 -1.51028 0.69135 0
M  V30 18167 O 1686.66 -1.66119 0.938577 0
M  V30 18168 C 1683.8 -2.75085 2.0838 0
M  V30 18169 C 1682.91 -2.71473 3.36045 0
M  V30 18170 C 1682.05 -3.99608 3.49981 0
M  V30 18171 C 1681.08 -3.90335 4.71492 0
M  V30 18172 N 1680.22 -5.10216 4.82311 0
M  V30 18173 H 1685.06 -1.12609 2.75905 0
M  V30 18174 H 1682.6 -0.54495 1.36633 0
M  V30 18175 H 1684.56 -3.54295 2.20298 0
M  V30 18176 H 1683.19 -2.99618 1.2012 0
M  V30 18177 H 1682.24 -1.84209 3.32823 0
M  V30 18178 H 1683.55 -2.60507 4.25368 0
M  V30 18179 H 1682.7 -4.8725 3.61486 0
M  V30 18180 H 1681.44 -4.1339 2.58766 0
M  V30 18181 H 1680.45 -3.01077 4.60036 0
M  V30 18182 H 1681.67 -3.78111 5.641 0
M  V30 18183 H 1679.62 -5.24489 3.94014 0
M  V30 18184 H 1679.54 -5.01617 5.65612 0
M  V30 18185 H 1680.8 -5.99551 4.98156 0
M  V30 18186 N 1685.03 -1.46622 -0.577906 0
M  V30 18187 C 1685.96 -1.60413 -1.69676 0
M  V30 18188 C 1686.95 -0.454277 -1.63922 0
M  V30 18189 O 1688.13 -0.68111 -1.81864 0
M  V30 18190 C 1685.26 -1.59866 -3.08318 0
M  V30 18191 C 1684.21 -2.7387 -3.28906 0
M  V30 18192 C 1683.54 -2.58386 -4.68125 0
M  V30 18193 C 1684.84 -4.15652 -3.16276 0
M  V30 18194 H 1686.53 -2.54073 -1.5839 0
M  V30 18195 H 1684.08 -1.22275 -0.760572 0
M  V30 18196 H 1686.03 -1.68108 -3.86417 0
M  V30 18197 H 1684.76 -0.627541 -3.20514 0
M  V30 18198 H 1683.42 -2.65105 -2.53209 0
M  V30 18199 H 1683.06 -1.59347 -4.77093 0
M  V30 18200 H 1682.76 -3.34855 -4.82852 0
M  V30 18201 H 1684.29 -2.68525 -5.48385 0
M  V30 18202 H 1685.7 -4.25503 -3.84214 0
M  V30 18203 H 1684.1 -4.92746 -3.42523 0
M  V30 18204 H 1685.17 -4.35471 -2.13291 0
M  V30 18205 N 1686.51 0.822941 -1.34408 0
M  V30 18206 C 1687.74 1.61607 -1.29992 0
M  V30 18207 C 1688.16 1.87695 0.123301 0
M  V30 18208 O 1687.52 1.45247 1.08504 0
M  V30 18209 C 1687.57 2.934 -2.09639 0
M  V30 18210 O 1686.67 3.85467 -1.4659 0
M  V30 18211 H 1686.01 0.491504 -0.446452 0
M  V30 18212 H 1688.54 1.02264 -1.7721 0
M  V30 18213 H 1688.55 3.42966 -2.20994 0
M  V30 18214 H 1687.23 2.73736 -3.13116 0
M  V30 18215 H 1685.81 3.43984 -1.43978 0
M  V30 18216 N 1687.99 1.18137 1.04314 0
M  V30 18217 C 1689.41 0.930523 1.29667 0
M  V30 18218 C 1689.61 -0.405336 1.97381 0
M  V30 18219 O 1688.66 -1.14025 2.25288 0
M  V30 18220 C 1689.98 2.09427 2.1578 0
M  V30 18221 C 1691.52 2.13229 2.29134 0
M  V30 18222 C 1692 3.29014 3.18612 0
M  V30 18223 N 1693.49 3.28859 3.26199 0
M  V30 18224 C 1694.22 4.15092 3.95583 0
M  V30 18225 N 1693.72 5.11453 4.67319 0
M  V30 18226 N 1695.51 4.03014 3.91837 0
M  V30 18227 H 1687.66 2.04108 0.587669 0
M  V30 18228 H 1689.93 0.89171 0.321804 0
M  V30 18229 H 1689.63 3.06023 1.73328 0
M  V30 18230 H 1689.51 2.0528 3.16449 0
M  V30 18231 H 1691.89 1.17212 2.70823 0
M  V30 18232 H 1691.98 2.21435 1.28064 0
M  V30 18233 H 1691.62 4.25302 2.77635 0
M  V30 18234 H 1691.55 3.18045 4.19708 0
M  V30 18235 H 1694.04 2.59097 2.75095 0
M  V30 18236 H 1694.35 5.7363 5.1785 0
M  V30 18237 H 1692.7 5.15415 4.66232 0
M  V30 18238 H 1695.89 3.27021 3.34925 0
M  V30 18239 H 1696.06 4.70435 4.4564 0
M  V30 18240 N 1689.47 -1.23186 0.98301 0
M  V30 18241 C 1690.7 -1.95418 0.670479 0
M  V30 18242 C 1691.11 -1.7295 -0.767135 0
M  V30 18243 O 1690.45 -1.01946 -1.52816 0
M  V30 18244 C 1690.51 -3.48456 0.884244 0
M  V30 18245 C 1690.18 -3.94645 2.30443 0
M  V30 18246 C 1691.17 -4.03108 3.28328 0
M  V30 18247 C 1688.86 -4.27561 2.63622 0
M  V30 18248 C 1690.85 -4.43845 4.57471 0
M  V30 18249 C 1688.54 -4.67979 3.92987 0
M  V30 18250 C 1689.54 -4.76088 4.89723 0
M  V30 18251 O 1689.22 -5.15597 6.16778 0
M  V30 18252 H 1688.96 -0.628896 0.247924 0
M  V30 18253 H 1691.51 -1.57559 1.31774 0
M  V30 18254 H 1689.74 -3.86282 0.179809 0
M  V30 18255 H 1691.43 -4.01899 0.568475 0
M  V30 18256 H 1692.2 -3.77879 3.04027 0
M  V30 18257 H 1688.07 -4.2046 1.89036 0
M  V30 18258 H 1691.62 -4.5009 5.32978 0
M  V30 18259 H 1687.52 -4.92658 4.17083 0
M  V30 18260 H 1688.28 -5.33701 6.20569 0
M  V30 18261 N 1690.95 -0.754982 -1.38339 0
M  V30 18262 C 1692.22 -0.237208 -1.94156 0
M  V30 18263 C 1692.6 1.26479 -1.69016 0
M  V30 18264 O 1691.95 2.03995 -1.02948 0
M  V30 18265 C 1692.16 -0.592412 -3.43935 0
M  V30 18266 C 1693.51 -0.552832 -4.20986 0
M  V30 18267 O 1694.53 -0.530789 -3.52223 0
M  V30 18268 O 1693.39 -0.565006 -5.43571 0
M  V30 18269 H 1690.49 -0.0500619 -0.825483 0
M  V30 18270 H 1693.03 -0.835199 -1.47724 0
M  V30 18271 H 1691.8 -1.62969 -3.55748 0
M  V30 18272 H 1691.43 0.0335119 -3.97586 0
M  V30 18273 N 1692.42 1.49318 -0.504168 0
M  V30 18274 C 1693.33 2.32958 0.277053 0
M  V30 18275 C 1694.35 1.44838 0.964266 0
M  V30 18276 O 1695.53 1.77856 0.944947 0
M  V30 18277 C 1692.59 3.20352 1.32572 0
M  V30 18278 C 1691.65 4.24326 0.651606 0
M  V30 18279 C 1690.89 5.07544 1.65031 0
M  V30 18280 O 1691.11 4.92326 2.88047 0
M  V30 18281 O 1690.04 5.89737 1.20388 0
M  V30 18282 H 1693.87 3.00952 -0.40763 0
M  V30 18283 H 1691.45 1.47023 -0.265453 0
M  V30 18284 H 1693.34 3.74483 1.93237 0
M  V30 18285 H 1692.01 2.5505 1.99327 0
M  V30 18286 H 1690.92 3.741 0.00513384 0
M  V30 18287 H 1692.25 4.92193 0.0264424 0
M  V30 18288 N 1693.9 0.238138 1.5579 0
M  V30 18289 C 1695.15 -0.388263 1.98335 0
M  V30 18290 C 1695.47 -1.59104 1.12743 0
M  V30 18291 O 1694.74 -1.9479 0.208201 0
M  V30 18292 H 1693.32 -0.14644 0.732505 0
M  V30 18293 H 1695.98 0.334891 1.92001 0
M  V30 18294 H 1695.08 -0.703359 3.04071 0
M  V30 18295 N 1695.38 -1.57561 -0.0350783 0
M  V30 18296 C 1696.61 -1.93251 -0.73903 0
M  V30 18297 C 1697.02 -0.83739 -1.69214 0
M  V30 18298 O 1696.38 0.186669 -1.81543 0
M  V30 18299 C 1696.43 -3.28853 -1.50127 0
M  V30 18300 O 1696.15 -4.34157 -0.586426 0
M  V30 18301 C 1697.65 -3.78788 -2.30292 0
M  V30 18302 H 1694.87 -0.63793 -0.208053 0
M  V30 18303 H 1697.42 -2.04499 0.00560398 0
M  V30 18304 H 1695.57 -3.1902 -2.19784 0
M  V30 18305 H 1695.99 -5.12395 -1.12034 0
M  V30 18306 H 1697.46 -4.76197 -2.79178 0
M  V30 18307 H 1697.94 -3.09671 -3.11449 0
M  V30 18308 H 1698.54 -3.91684 -1.65721 0
M  V30 18309 N 1696.86 0.307236 -1.54576 0
M  V30 18310 C 1698.11 1.04321 -1.73561 0
M  V30 18311 C 1698.43 1.87475 -0.51803 0
M  V30 18312 O 1697.69 1.89202 0.500093 0
M  V30 18313 C 1697.99 1.9831 -2.97335 0
M  V30 18314 C 1697.65 1.31182 -4.31395 0
M  V30 18315 C 1696.32 1.12607 -4.67839 0
M  V30 18316 C 1698.67 0.831413 -5.14526 0
M  V30 18317 C 1696 0.446652 -5.84997 0
M  V30 18318 C 1698.35 0.165743 -6.32383 0
M  V30 18319 C 1697.01 -0.0320176 -6.67492 0
M  V30 18320 H 1696.28 0.381739 -0.635103 0
M  V30 18321 H 1698.93 0.318705 -1.88829 0
M  V30 18322 H 1697.23 2.77267 -2.76821 0
M  V30 18323 H 1698.93 2.55314 -3.09218 0
M  V30 18324 H 1695.52 1.46645 -4.02732 0
M  V30 18325 H 1699.7 0.962653 -4.86874 0
M  V30 18326 H 1694.96 0.282387 -6.10748 0
M  V30 18327 H 1699.13 -0.214434 -6.9607 0
M  V30 18328 H 1696.76 -0.560493 -7.58131 0
M  V30 18329 N 1698.34 1.46926 0.570122 0
M  V30 18330 C 1699.58 1.52887 1.32785 0
M  V30 18331 C 1699.91 0.185754 1.93611 0
M  V30 18332 O 1699.17 -0.819995 1.77692 0
M  V30 18333 C 1699.47 2.58527 2.46776 0
M  V30 18334 C 1699.13 4.02182 2.03863 0
M  V30 18335 C 1697.79 4.4129 1.91876 0
M  V30 18336 C 1700.15 4.92373 1.70935 0
M  V30 18337 C 1697.47 5.6844 1.45235 0
M  V30 18338 C 1699.83 6.19972 1.25769 0
M  V30 18339 C 1698.49 6.57974 1.12368 0
M  V30 18340 H 1697.76 0.559453 0.485895 0
M  V30 18341 H 1700.41 1.80464 0.640698 0
M  V30 18342 H 1698.71 2.24658 3.20992 0
M  V30 18343 H 1700.41 2.60365 3.04977 0
M  V30 18344 H 1697 3.71275 2.14132 0
M  V30 18345 H 1701.18 4.62867 1.79075 0
M  V30 18346 H 1696.44 5.96644 1.33513 0
M  V30 18347 H 1700.61 6.89277 0.993475 0
M  V30 18348 H 1698.24 7.56391 0.760046 0
M  V30 18349 N 1699.82 -0.815801 1.34842 0
M  V30 18350 C 1701.04 -1.60915 1.30848 0
M  V30 18351 C 1701.47 -1.87758 -0.113345 0
M  V30 18352 O 1700.82 -1.4582 -1.07732 0
M  V30 18353 C 1700.87 -2.92284 2.11192 0
M  V30 18354 O 1699.98 -3.84685 1.48632 0
M  V30 18355 H 1699.32 -0.48913 0.449052 0
M  V30 18356 H 1701.85 -1.01322 1.7775 0
M  V30 18357 H 1701.86 -3.41789 2.2281 0
M  V30 18358 H 1700.53 -2.72071 3.14563 0
M  V30 18359 H 1699.11 -3.43215 1.458 0
M  V30 18360 N 1701.29 -1.18689 -1.03686 0
M  V30 18361 C 1702.52 -1.01024 -1.81132 0
M  V30 18362 C 1702.94 0.436584 -1.82963 0
M  V30 18363 O 1702.3 1.31343 -1.24975 0
M  V30 18364 C 1702.35 -1.5742 -3.24424 0
M  V30 18365 O 1701.45 -0.79813 -4.04603 0
M  V30 18366 H 1700.79 -0.357623 -0.559465 0
M  V30 18367 H 1703.32 -1.57532 -1.30556 0
M  V30 18368 H 1703.33 -1.60295 -3.75193 0
M  V30 18369 H 1702.01 -2.6273 -3.22406 0
M  V30 18370 H 1700.59 -0.842 -3.6327 0
M  V30 18371 N 1702.77 1.22662 -0.989529 0
M  V30 18372 C 1704.02 1.90632 -0.65897 0
M  V30 18373 C 1704.33 1.77942 0.812165 0
M  V30 18374 O 1705.54 2.40796 1.25417 0
M  V30 18375 C 1704 3.41763 -1.12809 0
M  V30 18376 C 1703.6 3.63097 -2.62421 0
M  V30 18377 C 1705.35 4.15454 -0.871698 0
M  V30 18378 C 1703.25 5.07911 -3.02953 0
M  V30 18379 H 1702.18 0.713847 -0.242772 0
M  V30 18380 H 1704.84 1.38942 -1.19864 0
M  V30 18381 H 1703.22 3.92616 -0.516564 0
M  V30 18382 H 1704.39 3.22751 -3.2889 0
M  V30 18383 H 1702.71 3.02733 -2.85905 0
M  V30 18384 H 1705.3 5.22181 -1.15027 0
M  V30 18385 H 1705.65 4.15856 0.192186 0
M  V30 18386 H 1706.18 3.70618 -1.44525 0
M  V30 18387 H 1702.92 5.12646 -4.08503 0
M  V30 18388 H 1702.44 5.49172 -2.41185 0
M  V30 18389 H 1704.12 5.76311 -2.94066 0
M  V30 18390 N 1704.25 0.762308 1.37937 0
M  V30 18391 C 1705.18 0.156036 2.32978 0
M  V30 18392 C 1706.16 -0.693795 1.55308 0
M  V30 18393 O 1707.35 -0.633195 1.83587 0
M  V30 18394 C 1704.48 -0.731199 3.39515 0
M  V30 18395 C 1703.43 0.0165834 4.27997 0
M  V30 18396 C 1702.76 -0.989476 5.25465 0
M  V30 18397 C 1704.06 1.19009 5.08561 0
M  V30 18398 H 1705.75 0.949978 2.83929 0
M  V30 18399 H 1703.3 0.458269 1.36513 0
M  V30 18400 H 1705.25 -1.16507 4.04974 0
M  V30 18401 H 1703.97 -1.55756 2.87067 0
M  V30 18402 H 1702.63 0.431128 3.64056 0
M  V30 18403 H 1702.28 -1.81013 4.69301 0
M  V30 18404 H 1701.98 -0.493738 5.85522 0
M  V30 18405 H 1703.5 -1.42248 5.93799 0
M  V30 18406 H 1704.92 0.833336 5.67211 0
M  V30 18407 H 1703.31 1.61727 5.77896 0
M  V30 18408 H 1704.38 1.99879 4.41788 0
M  V30 18409 N 1705.73 -1.49049 0.51208 0
M  V30 18410 C 1706.95 -2.07382 -0.0271044 0
M  V30 18411 C 1707.38 -1.3685 -1.29049 0
M  V30 18412 O 1706.74 -0.428713 -1.76158 0
M  V30 18413 C 1706.78 -3.59715 -0.252462 0
M  V30 18414 O 1705.89 -3.90538 -1.32491 0
M  V30 18415 H 1705.23 -0.663269 0.0311507 0
M  V30 18416 H 1707.76 -1.91705 0.714873 0
M  V30 18417 H 1707.77 -4.05159 -0.480603 0
M  V30 18418 H 1706.44 -4.10459 0.670531 0
M  V30 18419 H 1705.02 -3.56892 -1.08085 0
M  V30 18420 N 1707.21 -0.246397 -1.55662 0
M  V30 18421 C 1708.45 0.378487 -1.98931 0
M  V30 18422 C 1708.78 1.57984 -1.13452 0
M  V30 18423 O 1708.04 1.94822 -0.185214 0
M  V30 18424 C 1708.33 0.832225 -3.47576 0
M  V30 18425 C 1708 -0.261318 -4.50142 0
M  V30 18426 C 1706.66 -0.56166 -4.77911 0
M  V30 18427 C 1709.01 -0.999618 -5.11524 0
M  V30 18428 C 1706.34 -1.60438 -5.64337 0
M  V30 18429 C 1708.69 -2.03186 -5.99081 0
M  V30 18430 C 1707.36 -2.33885 -6.25183 0
M  V30 18431 H 1706.63 0.138498 -0.727942 0
M  V30 18432 H 1709.28 -0.354116 -1.88197 0
M  V30 18433 H 1707.58 1.64402 -3.55639 0
M  V30 18434 H 1709.28 1.32598 -3.78442 0
M  V30 18435 H 1705.87 -0.0170894 -4.28597 0
M  V30 18436 H 1710.05 -0.780833 -4.90119 0
M  V30 18437 H 1705.31 -1.84758 -5.82816 0
M  V30 18438 H 1709.48 -2.60886 -6.45687 0
M  V30 18439 H 1707.11 -3.14822 -6.91947 0
M  V30 18440 N 1708.68 1.57577 0.026722 0
M  V30 18441 C 1709.91 1.9364 0.728771 0
M  V30 18442 C 1710.33 0.846352 1.68767 0
M  V30 18443 O 1709.68 -0.177038 1.81639 0
M  V30 18444 C 1709.73 3.29644 1.48381 0
M  V30 18445 O 1709.46 4.34462 0.563393 0
M  V30 18446 C 1710.96 3.80004 2.2828 0
M  V30 18447 H 1708.18 0.639025 0.204666 0
M  V30 18448 H 1710.72 2.04493 -0.016449 0
M  V30 18449 H 1708.88 3.20181 2.18089 0
M  V30 18450 H 1709.29 5.12982 1.09315 0
M  V30 18451 H 1710.76 4.77671 2.76649 0
M  V30 18452 H 1711.24 3.11319 3.09802 0
M  V30 18453 H 1711.85 3.92558 1.63642 0
M  V30 18454 N 1710.16 -0.299034 1.54737 0
M  V30 18455 C 1711.41 -1.03553 1.74369 0
M  V30 18456 C 1711.74 -1.86856 0.529019 0
M  V30 18457 O 1711.02 -1.8864 -0.473854 0
M  V30 18458 C 1711.3 -1.93988 3.03382 0
M  V30 18459 C 1711.15 -1.13852 4.35153 0
M  V30 18460 C 1712.47 -2.93128 3.28274 0
M  V30 18461 H 1709.59 -0.375055 0.634431 0
M  V30 18462 H 1712.23 -0.310018 1.87454 0
M  V30 18463 H 1710.38 -2.5585 2.92358 0
M  V30 18464 H 1712.05 -0.542614 4.58098 0
M  V30 18465 H 1710.3 -0.441278 4.3155 0
M  V30 18466 H 1710.97 -1.80385 5.21694 0
M  V30 18467 H 1713.44 -2.41396 3.38921 0
M  V30 18468 H 1712.32 -3.53569 4.19857 0
M  V30 18469 H 1712.58 -3.66892 2.46663 0
M  V30 18470 N 1711.64 -1.47227 -0.562322 0
M  V30 18471 C 1712.59 -1.59329 -1.66981 0
M  V30 18472 C 1713.56 -0.436558 -1.6026 0
M  V30 18473 O 1714.74 -0.655956 -1.7917 0
M  V30 18474 C 1711.88 -1.60874 -3.05309 0
M  V30 18475 C 1710.99 -2.87428 -3.22505 0
M  V30 18476 C 1710.13 -2.80342 -4.512 0
M  V30 18477 C 1709.17 -4.01744 -4.6181 0
M  V30 18478 N 1708.31 -3.92924 -5.81855 0
M  V30 18479 H 1713.15 -2.53921 -1.55975 0
M  V30 18480 H 1710.68 -1.25953 -0.759879 0
M  V30 18481 H 1712.64 -1.59753 -3.85402 0
M  V30 18482 H 1711.27 -0.697994 -3.15163 0
M  V30 18483 H 1710.32 -2.98439 -2.35878 0
M  V30 18484 H 1711.63 -3.77345 -3.26209 0
M  V30 18485 H 1710.79 -2.77442 -5.39547 0
M  V30 18486 H 1709.53 -1.881 -4.49966 0
M  V30 18487 H 1708.53 -4.04954 -3.71877 0
M  V30 18488 H 1709.76 -4.95107 -4.64807 0
M  V30 18489 H 1707.7 -3.03481 -5.8158 0
M  V30 18490 H 1707.62 -4.76514 -5.86916 0
M  V30 18491 H 1708.89 -3.94031 -6.72577 0
M  V30 18492 N 1713.12 0.808639 -1.35273 0
M  V30 18493 C 1714.08 1.90195 -1.279 0
M  V30 18494 C 1715.08 1.59663 -0.190915 0
M  V30 18495 O 1716.27 1.68434 -0.444482 0
M  V30 18496 C 1713.4 3.26567 -0.978106 0
M  V30 18497 H 1714.6 1.98152 -2.25113 0
M  V30 18498 H 1712.15 1.00426 -1.19767 0
M  V30 18499 H 1712.88 3.24299 -0.00975789 0
M  V30 18500 H 1712.67 3.50114 -1.7653 0
M  V30 18501 H 1714.16 4.06602 -0.95207 0
M  V30 18502 N 1714.6 1.19237 1.03055 0
M  V30 18503 C 1715.56 0.930536 2.0946 0
M  V30 18504 C 1716.56 -0.0882907 1.60557 0
M  V30 18505 O 1717.75 0.146269 1.73585 0
M  V30 18506 C 1714.88 0.398165 3.38567 0
M  V30 18507 H 1716.07 1.87422 2.34122 0
M  V30 18508 H 1713.63 1.00579 1.19639 0
M  V30 18509 H 1714.36 -0.551646 3.19574 0
M  V30 18510 H 1714.15 1.13273 3.75382 0
M  V30 18511 H 1715.64 0.234006 4.16944 0
M  V30 18512 N 1716.07 -1.22136 0.99602 0
M  V30 18513 C 1717.04 -2.22404 0.553986 0
M  V30 18514 C 1718.04 -1.56607 -0.364832 0
M  V30 18515 O 1719.23 -1.73497 -0.156358 0
M  V30 18516 C 1716.36 -3.40349 -0.193794 0
M  V30 18517 H 1717.55 -2.63026 1.44075 0
M  V30 18518 H 1715.11 -1.35241 0.78356 0
M  V30 18519 H 1715.84 -3.05204 -1.0964 0
M  V30 18520 H 1715.63 -3.89321 0.465972 0
M  V30 18521 H 1717.12 -4.14702 -0.491121 0
M  V30 18522 N 1717.55 -0.769612 -1.37531 0
M  V30 18523 C 1718.5 -0.152627 -2.30295 0
M  V30 18524 C 1719.47 0.692154 -1.50992 0
M  V30 18525 O 1720.65 0.64496 -1.79569 0
M  V30 18526 C 1717.79 0.72217 -3.37459 0
M  V30 18527 C 1716.91 -0.138985 -4.31776 0
M  V30 18528 C 1716.04 0.740317 -5.26016 0
M  V30 18529 C 1715.08 -0.1235 -6.11975 0
M  V30 18530 N 1714.22 0.713658 -6.98464 0
M  V30 18531 H 1719.06 -0.949218 -2.82478 0
M  V30 18532 H 1716.6 -0.479697 -1.39059 0
M  V30 18533 H 1718.55 1.24415 -3.98217 0
M  V30 18534 H 1717.18 1.48438 -2.86646 0
M  V30 18535 H 1716.24 -0.778756 -3.72343 0
M  V30 18536 H 1717.55 -0.805402 -4.92255 0
M  V30 18537 H 1716.7 1.32887 -5.91968 0
M  V30 18538 H 1715.44 1.44042 -4.65943 0
M  V30 18539 H 1714.45 -0.7246 -5.45004 0
M  V30 18540 H 1715.67 -0.820907 -6.7412 0
M  V30 18541 H 1713.62 1.39842 -6.40921 0
M  V30 18542 H 1713.53 0.104492 -7.55928 0
M  V30 18543 H 1714.8 1.28667 -7.68808 0
M  V30 18544 N 1719.03 1.48775 -0.519977 0
M  V30 18545 C 1720.26 2.06595 0.013978 0
M  V30 18546 C 1720.67 1.37819 1.29624 0
M  V30 18547 O 1720.01 0.456315 1.77942 0
M  V30 18548 C 1720.07 3.58085 0.318694 0
M  V30 18549 C 1719.74 4.48669 -0.868623 0
M  V30 18550 C 1720.73 4.89048 -1.76432 0
M  V30 18551 C 1718.42 4.9071 -1.07279 0
M  V30 18552 C 1720.41 5.70226 -2.84818 0
M  V30 18553 C 1718.1 5.7166 -2.15981 0
M  V30 18554 C 1719.1 6.11325 -3.04583 0
M  V30 18555 O 1718.79 6.90653 -4.11405 0
M  V30 18556 H 1718.52 0.675506 -0.02584 0
M  V30 18557 H 1721.07 1.92289 -0.722099 0
M  V30 18558 H 1719.3 3.70468 1.10861 0
M  V30 18559 H 1720.99 3.98068 0.793529 0
M  V30 18560 H 1721.76 4.57198 -1.61848 0
M  V30 18561 H 1717.64 4.59326 -0.392454 0
M  V30 18562 H 1721.18 6.01105 -3.54004 0
M  V30 18563 H 1717.08 6.02923 -2.30552 0
M  V30 18564 H 1717.85 7.08991 -4.08992 0
M  V30 18565 N 1720.51 0.254649 1.55529 0
M  V30 18566 C 1721.75 -0.368477 1.99424 0
M  V30 18567 C 1722.09 -1.57023 1.14269 0
M  V30 18568 O 1721.36 -1.93386 0.207886 0
M  V30 18569 C 1721.65 -0.77076 3.51755 0
M  V30 18570 C 1721.5 0.436923 4.47673 0
M  V30 18571 C 1722.82 -1.61487 4.09402 0
M  V30 18572 H 1719.94 -0.132459 0.724999 0
M  V30 18573 H 1722.58 0.357508 1.86606 0
M  V30 18574 H 1720.73 -1.38932 3.62809 0
M  V30 18575 H 1722.4 1.07541 4.4859 0
M  V30 18576 H 1720.64 1.07866 4.20175 0
M  V30 18577 H 1721.31 0.111996 5.51886 0
M  V30 18578 H 1723.79 -1.09265 4.01498 0
M  V30 18579 H 1722.67 -1.86519 5.16238 0
M  V30 18580 H 1722.93 -2.58926 3.58343 0
M  V30 18581 N 1721.99 -1.57589 -0.0183649 0
M  V30 18582 C 1723.26 -1.80938 -0.743021 0
M  V30 18583 C 1723.64 -0.855272 -1.92998 0
M  V30 18584 O 1722.99 0.100181 -2.2828 0
M  V30 18585 C 1723.2 -3.28945 -1.16602 0
M  V30 18586 C 1724.55 -3.94208 -1.5775 0
M  V30 18587 O 1725.57 -3.33159 -1.26031 0
M  V30 18588 O 1724.43 -5.01716 -2.16663 0
M  V30 18589 H 1721.53 -0.744435 -0.360203 0
M  V30 18590 H 1724.07 -1.69699 0.00567963 0
M  V30 18591 H 1722.84 -3.89996 -0.319154 0
M  V30 18592 H 1722.47 -3.45113 -1.9744 0
M  V30 18593 N 1723.46 0.290824 -1.54893 0
M  V30 18594 C 1724.71 1.02627 -1.74916 0
M  V30 18595 C 1725.04 1.86572 -0.538921 0
M  V30 18596 O 1724.32 1.88888 0.463844 0
M  V30 18597 C 1724.6 1.92376 -3.04407 0
M  V30 18598 C 1724.45 1.11542 -4.3575 0
M  V30 18599 C 1725.77 2.91383 -3.29824 0
M  V30 18600 H 1722.89 0.371685 -0.636411 0
M  V30 18601 H 1725.53 0.300072 -1.87615 0
M  V30 18602 H 1723.68 2.54295 -2.93711 0
M  V30 18603 H 1725.36 0.518312 -4.58379 0
M  V30 18604 H 1723.6 0.418386 -4.31778 0
M  V30 18605 H 1724.27 1.77616 -5.22644 0
M  V30 18606 H 1726.75 2.39595 -3.40196 0
M  V30 18607 H 1725.62 3.51338 -4.21726 0
M  V30 18608 H 1725.88 3.65579 -2.48606 0
M  V30 18609 N 1724.94 1.47523 0.554506 0
M  V30 18610 C 1726.35 1.48114 1.13662 0
M  V30 18611 C 1726.7 0.237321 1.94759 0
M  V30 18612 O 1725.83 -0.657558 2.06168 0
M  V30 18613 C 1726.42 2.68366 2.06797 0
M  V30 18614 C 1724.98 2.71908 2.60274 0
M  V30 18615 C 1724.13 2.41258 1.3671 0
M  V30 18616 H 1727.08 1.54994 0.34097 0
M  V30 18617 H 1727.1 2.4549 2.90714 0
M  V30 18618 H 1726.61 3.58877 1.47745 0
M  V30 18619 H 1724.72 1.85543 3.23117 0
M  V30 18620 H 1724.83 3.72673 3.01084 0
M  V30 18621 H 1723.19 1.91897 1.67474 0
M  V30 18622 H 1723.98 3.3398 0.794476 0
M  V30 18623 N 1726.42 -0.801453 1.357 0
M  V30 18624 C 1727.37 -1.91355 1.29043 0
M  V30 18625 C 1728.34 -1.65314 0.161381 0
M  V30 18626 O 1729.52 -1.87638 0.345928 0
M  V30 18627 C 1726.66 -3.27979 1.07348 0
M  V30 18628 C 1725.78 -3.66172 2.29221 0
M  V30 18629 C 1724.91 -4.91853 2.00635 0
M  V30 18630 C 1723.95 -5.22688 3.18533 0
M  V30 18631 N 1723.09 -6.3955 2.8969 0
M  V30 18632 H 1727.93 -1.96381 2.24139 0
M  V30 18633 H 1725.46 -0.960502 1.11413 0
M  V30 18634 H 1727.42 -4.06748 0.928002 0
M  V30 18635 H 1726.05 -3.22408 0.159115 0
M  V30 18636 H 1725.1 -2.82623 2.54615 0
M  V30 18637 H 1726.42 -3.84916 3.1724 0
M  V30 18638 H 1725.57 -5.78459 1.82947 0
M  V30 18639 H 1724.31 -4.75154 1.09908 0
M  V30 18640 H 1723.31 -4.34569 3.36793 0
M  V30 18641 H 1724.54 -5.41313 4.10069 0
M  V30 18642 H 1722.48 -6.24266 2.01562 0
M  V30 18643 H 1722.4 -6.58569 3.71245 0
M  V30 18644 H 1723.67 -7.29171 2.75555 0
M  V30 18645 N 1727.9 -1.19782 -1.02421 0
M  V30 18646 C 1729.31 -1.00493 -1.57347 0
M  V30 18647 C 1729.66 0.440854 -1.91183 0
M  V30 18648 O 1728.79 1.32102 -1.714 0
M  V30 18649 C 1729.38 -1.8179 -2.85898 0
M  V30 18650 C 1727.94 -1.66889 -3.3738 0
M  V30 18651 C 1727.09 -1.80199 -2.10769 0
M  V30 18652 H 1730.04 -1.34085 -0.848938 0
M  V30 18653 H 1730.06 -1.31676 -3.5699 0
M  V30 18654 H 1729.57 -2.87011 -2.6124 0
M  V30 18655 H 1727.67 -0.64274 -3.67014 0
M  V30 18656 H 1727.78 -2.47705 -4.10096 0
M  V30 18657 H 1726.15 -1.23308 -2.22862 0
M  V30 18658 H 1726.93 -2.86889 -1.88546 0
M  V30 18659 N 1729.38 1.21606 -1.00248 0
M  V30 18660 C 1730.63 1.90231 -0.682401 0
M  V30 18661 C 1730.95 1.78324 0.78903 0
M  V30 18662 O 1730.22 1.17653 1.56635 0
M  V30 18663 H 1728.8 0.704132 -0.249414 0
M  V30 18664 H 1731.46 1.47751 -1.27105 0
M  V30 18665 H 1730.55 2.97183 -0.953351 0
M  V30 18666 N 1730.86 0.776895 1.37121 0
M  V30 18667 C 1731.79 0.11287 2.27921 0
M  V30 18668 C 1732.77 -0.703619 1.46588 0
M  V30 18669 O 1733.95 -0.677283 1.75912 0
M  V30 18670 C 1731.08 -0.846221 3.27959 0
M  V30 18671 C 1730.12 -0.11309 4.2635 0
M  V30 18672 S 1730.96 1.20246 5.21825 0
M  V30 18673 C 1732.11 0.247048 6.25412 0
M  V30 18674 H 1732.35 0.882787 2.83891 0
M  V30 18675 H 1729.88 0.570523 1.43473 0
M  V30 18676 H 1731.84 -1.39416 3.861 0
M  V30 18677 H 1730.5 -1.58929 2.70925 0
M  V30 18678 H 1729.69 -0.840352 4.96945 0
M  V30 18679 H 1729.29 0.364002 3.72224 0
M  V30 18680 H 1731.58 -0.578684 6.75024 0
M  V30 18681 H 1732.53 0.921318 7.02081 0
M  V30 18682 H 1732.94 -0.144038 5.64316 0
M  V30 18683 N 1732.33 -1.48497 0.527859 0
M  V30 18684 C 1733.61 -1.9547 -0.0713049 0
M  V30 18685 C 1733.99 -1.47005 -1.51502 0
M  V30 18686 O 1733.34 -0.695609 -2.17655 0
M  V30 18687 C 1733.55 -3.48973 0.0437547 0
M  V30 18688 C 1734.9 -4.2444 -0.116591 0
M  V30 18689 O 1735.92 -3.56187 -0.0301431 0
M  V30 18690 O 1734.78 -5.4569 -0.297491 0
M  V30 18691 H 1731.87 -0.823075 -0.080474 0
M  V30 18692 H 1734.42 -1.59028 0.592307 0
M  V30 18693 H 1733.19 -3.76963 1.04952 0
M  V30 18694 H 1732.81 -3.92104 -0.658803 0
M  V30 18695 N 1733.81 -0.262893 -1.55392 0
M  V30 18696 C 1734.74 0.623732 -2.25015 0
M  V30 18697 C 1735.72 1.16865 -1.23598 0
M  V30 18698 O 1736.91 1.20505 -1.5229 0
M  V30 18699 C 1734.04 1.81353 -2.9619 0
M  V30 18700 C 1732.99 1.40069 -4.04431 0
M  V30 18701 C 1732.32 2.67261 -4.63115 0
M  V30 18702 C 1733.62 0.559905 -5.1929 0
M  V30 18703 H 1735.31 0.0431306 -2.99369 0
M  V30 18704 H 1732.86 0.0193043 -1.43987 0
M  V30 18705 H 1734.81 2.43958 -3.43602 0
M  V30 18706 H 1733.53 2.41977 -2.1935 0
M  V30 18707 H 1732.19 0.797905 -3.57811 0
M  V30 18708 H 1731.84 3.26117 -3.82958 0
M  V30 18709 H 1731.54 2.40354 -5.36194 0
M  V30 18710 H 1733.07 3.30735 -5.1327 0
M  V30 18711 H 1734.48 1.09064 -5.6283 0
M  V30 18712 H 1732.88 0.386234 -5.98856 0
M  V30 18713 H 1733.95 -0.424199 -4.83041 0
M  V30 18714 N 1735.29 1.57597 0.0100073 0
M  V30 18715 C 1736.25 2.06745 0.989401 0
M  V30 18716 C 1737.25 0.97499 1.27869 0
M  V30 18717 O 1738.44 1.23798 1.22555 0
M  V30 18718 C 1735.57 2.50048 2.31709 0
M  V30 18719 H 1736.77 2.9454 0.564473 0
M  V30 18720 H 1734.32 1.54168 0.257266 0
M  V30 18721 H 1735.06 1.65466 2.78911 0
M  V30 18722 H 1734.84 3.29823 2.12035 0
M  V30 18723 H 1736.33 2.88433 3.01987 0
M  V30 18724 N 1736.77 -0.282606 1.55045 0
M  V30 18725 C 1738.04 -1.03617 1.659 0
M  V30 18726 C 1738.42 -2.04615 0.519207 0
M  V30 18727 O 1737.77 -2.2336 -0.48191 0
M  V30 18728 C 1737.98 -1.70159 3.04708 0
M  V30 18729 C 1739.33 -2.21677 3.62139 0
M  V30 18730 O 1740.35 -1.80161 3.07279 0
M  V30 18731 O 1739.21 -2.97799 4.58234 0
M  V30 18732 H 1736.31 -0.48004 0.673417 0
M  V30 18733 H 1738.85 -0.279228 1.67387 0
M  V30 18734 H 1737.63 -0.969205 3.79107 0
M  V30 18735 H 1737.25 -2.52564 3.07079 0
M  V30 18736 N 1738.25 -1.47815 -0.546675 0
M  V30 18737 C 1739.47 -1.58613 -1.32851 0
M  V30 18738 C 1739.89 -0.240179 -1.87266 0
M  V30 18739 O 1739.25 0.768148 -1.65547 0
M  V30 18740 C 1739.3 -2.61969 -2.49107 0
M  V30 18741 O 1739.02 -3.9134 -1.96938 0
M  V30 18742 C 1740.52 -2.83051 -3.4117 0
M  V30 18743 H 1737.74 -0.535292 -0.404603 0
M  V30 18744 H 1740.28 -1.93516 -0.661192 0
M  V30 18745 H 1738.44 -2.29971 -3.11756 0
M  V30 18746 H 1738.85 -4.47905 -2.72913 0
M  V30 18747 H 1740.33 -3.59209 -4.19134 0
M  V30 18748 H 1740.8 -1.91258 -3.95369 0
M  V30 18749 H 1741.41 -3.16287 -2.84328 0
M  V30 18750 N 1739.72 0.794246 -1.36123 0
M  V30 18751 C 1740.95 1.58068 -1.33035 0
M  V30 18752 C 1741.36 1.88979 0.0915079 0
M  V30 18753 O 1740.7 1.50212 1.05745 0
M  V30 18754 C 1740.77 2.93087 -2.08184 0
M  V30 18755 C 1740.43 2.84929 -3.57302 0
M  V30 18756 C 1741.43 2.57507 -4.51648 0
M  V30 18757 C 1739.11 3.03657 -4.00122 0
M  V30 18758 C 1741.11 2.48908 -5.86791 0
M  V30 18759 C 1738.79 2.94681 -5.35356 0
M  V30 18760 C 1739.79 2.67344 -6.28503 0
M  V30 18761 O 1739.48 2.58353 -7.61255 0
M  V30 18762 H 1739.21 0.497096 -0.458118 0
M  V30 18763 H 1741.77 0.994066 -1.79743 0
M  V30 18764 H 1740 3.53779 -1.56131 0
M  V30 18765 H 1741.68 3.54323 -1.98015 0
M  V30 18766 H 1742.45 2.42744 -4.19881 0
M  V30 18767 H 1738.33 3.23943 -3.27997 0
M  V30 18768 H 1741.87 2.27491 -6.59465 0
M  V30 18769 H 1737.77 3.09005 -5.66733 0
M  V30 18770 H 1738.54 2.7387 -7.71322 0
M  V30 18771 N 1741.2 1.20323 1.01785 0
M  V30 18772 C 1742.45 1.00688 1.74771 0
M  V30 18773 C 1742.76 -0.461769 1.90071 0
M  V30 18774 O 1743.97 -0.777214 2.60138 0
M  V30 18775 C 1742.43 1.75278 3.14334 0
M  V30 18776 C 1742.03 3.26227 3.0705 0
M  V30 18777 C 1743.78 1.64006 3.91538 0
M  V30 18778 C 1741.68 3.9336 4.41613 0
M  V30 18779 H 1740.61 0.373123 0.655206 0
M  V30 18780 H 1743.27 1.43931 1.13825 0
M  V30 18781 H 1741.65 1.24821 3.75813 0
M  V30 18782 H 1742.82 3.83888 2.54885 0
M  V30 18783 H 1741.14 3.37898 2.43339 0
M  V30 18784 H 1743.73 2.11503 4.91091 0
M  V30 18785 H 1744.08 0.59605 4.12011 0
M  V30 18786 H 1744.61 2.11869 3.36684 0
M  V30 18787 H 1741.35 4.97907 4.26344 0
M  V30 18788 H 1740.87 3.40488 4.93789 0
M  V30 18789 H 1742.55 3.97541 5.10461 0
M  V30 18790 N 1742.68 -1.21073 1.00892 0
M  V30 18791 C 1743.61 -2.22257 0.517418 0
M  V30 18792 C 1744.59 -1.56784 -0.430997 0
M  V30 18793 O 1745.77 -1.85169 -0.3528 0
M  V30 18794 C 1742.9 -3.37791 -0.24795 0
M  V30 18795 C 1741.95 -4.21535 0.648856 0
M  V30 18796 S 1742.78 -4.92026 2.11355 0
M  V30 18797 C 1743.94 -6.10987 1.35813 0
M  V30 18798 H 1744.17 -2.63604 1.37479 0
M  V30 18799 H 1741.7 -1.31002 0.817177 0
M  V30 18800 H 1743.66 -4.04771 -0.683454 0
M  V30 18801 H 1742.32 -2.9492 -1.08079 0
M  V30 18802 H 1741.51 -5.03965 0.0591083 0
M  V30 18803 H 1741.12 -3.59771 1.0218 0
M  V30 18804 H 1743.41 -6.74526 0.634079 0
M  V30 18805 H 1744.35 -6.74406 2.15829 0
M  V30 18806 H 1744.76 -5.57843 0.864381 0
M  V30 18807 N 1744.16 -0.784156 -1.36707 0
M  V30 18808 C 1745.41 -0.354133 -1.99379 0
M  V30 18809 C 1745.73 1.07276 -1.62241 0
M  V30 18810 O 1744.99 1.75481 -0.866317 0
M  V30 18811 C 1745.29 -0.459004 -3.5444 0
M  V30 18812 C 1744.95 -1.84594 -4.11383 0
M  V30 18813 C 1743.62 -2.22543 -4.26648 0
M  V30 18814 C 1745.97 -2.75433 -4.42477 0
M  V30 18815 C 1743.3 -3.50744 -4.70315 0
M  V30 18816 C 1745.65 -4.03056 -4.87574 0
M  V30 18817 C 1744.31 -4.41034 -5.01044 0
M  V30 18818 H 1743.58 -0.129586 -0.729581 0
M  V30 18819 H 1746.23 -1.00059 -1.6328 0
M  V30 18820 H 1744.53 0.27097 -3.90862 0
M  V30 18821 H 1746.23 -0.107393 -4.00856 0
M  V30 18822 H 1742.82 -1.54103 -3.99938 0
M  V30 18823 H 1747 -2.4737 -4.30258 0
M  V30 18824 H 1742.26 -3.80047 -4.78931 0
M  V30 18825 H 1746.43 -4.73563 -5.10599 0
M  V30 18826 H 1744.06 -5.4043 -5.34639 0
M  V30 18827 N 1745.64 1.48215 -0.535727 0
M  V30 18828 C 1746.88 2.028 -0.00373305 0
M  V30 18829 C 1747.22 1.41143 1.33388 0
M  V30 18830 O 1746.49 0.559227 1.86287 0
M  V30 18831 C 1746.77 3.59925 0.112186 0
M  V30 18832 C 1746.63 4.32053 -1.251 0
M  V30 18833 C 1747.95 4.32083 0.836177 0
M  V30 18834 H 1745.06 0.736995 -0.00283063 0
M  V30 18835 H 1747.71 1.76877 -0.693868 0
M  V30 18836 H 1745.86 3.82142 0.69996 0
M  V30 18837 H 1747.53 4.21238 -1.88033 0
M  V30 18838 H 1745.77 3.93246 -1.83139 0
M  V30 18839 H 1746.44 5.4046 -1.12283 0
M  V30 18840 H 1748.92 4.1473 0.337333 0
M  V30 18841 H 1747.79 5.41699 0.886196 0
M  V30 18842 H 1748.06 3.99772 1.88771 0
M  V30 18843 N 1747.11 0.27113 1.5525 0
M  V30 18844 C 1748.53 -0.0831186 1.59383 0
M  V30 18845 C 1748.73 -1.54931 1.28835 0
M  V30 18846 O 1747.79 -2.29756 1.0473 0
M  V30 18847 C 1749.1 0.287921 2.99318 0
M  V30 18848 C 1750.65 0.234209 3.12123 0
M  V30 18849 C 1751.12 0.57963 4.54317 0
M  V30 18850 N 1752.61 0.531033 4.60146 0
M  V30 18851 C 1753.35 0.771156 5.68191 0
M  V30 18852 N 1752.84 1.07569 6.84398 0
M  V30 18853 N 1754.64 0.700223 5.57722 0
M  V30 18854 H 1746.79 1.22702 1.73373 0
M  V30 18855 H 1749.05 0.495424 0.808244 0
M  V30 18856 H 1748.76 1.30746 3.26494 0
M  V30 18857 H 1748.63 -0.373205 3.75349 0
M  V30 18858 H 1751.02 -0.776035 2.84713 0
M  V30 18859 H 1751.1 0.929535 2.38313 0
M  V30 18860 H 1750.74 1.58754 4.82452 0
M  V30 18861 H 1750.67 -0.137442 5.26421 0
M  V30 18862 H 1753.16 0.305377 3.76664 0
M  V30 18863 H 1753.48 1.24568 7.62694 0
M  V30 18864 H 1751.82 1.11342 6.86023 0
M  V30 18865 H 1755.01 0.462183 4.65813 0
M  V30 18866 H 1755.19 0.890744 6.41849 0
M  V30 18867 N 1748.59 -1.576 -0.00164943 0
M  V30 18868 C 1749.52 -2.05167 -1.02173 0
M  V30 18869 C 1750.54 -0.969293 -1.308 0
M  V30 18870 O 1751.73 -1.24612 -1.27805 0
M  V30 18871 C 1748.83 -2.43525 -2.35688 0
M  V30 18872 C 1748 -3.74475 -2.26025 0
M  V30 18873 C 1747.06 -3.99719 -3.42215 0
M  V30 18874 O 1746.08 -4.70408 -3.20476 0
M  V30 18875 N 1747.29 -3.47486 -4.65009 0
M  V30 18876 H 1750.05 -2.93299 -0.616095 0
M  V30 18877 H 1747.61 -1.60792 -0.189066 0
M  V30 18878 H 1749.6 -2.57528 -3.12188 0
M  V30 18879 H 1748.17 -1.6092 -2.67999 0
M  V30 18880 H 1747.39 -3.70564 -1.34447 0
M  V30 18881 H 1748.68 -4.60328 -2.16739 0
M  V30 18882 H 1748.08 -2.9024 -4.85569 0
M  V30 18883 H 1746.64 -3.66822 -5.38781 0
M  V30 18884 N 1750.07 0.274379 -1.55193 0
M  V30 18885 C 1751.02 1.35903 -1.88767 0
M  V30 18886 C 1752.01 1.512 -0.763874 0
M  V30 18887 O 1753.22 1.53 -0.948201 0
M  V30 18888 H 1749.59 0.454495 -0.599114 0
M  V30 18889 H 1751.56 1.04837 -2.79378 0
M  V30 18890 C 1750.31 2.71277 -2.17496 0
M  V30 18891 H 1749.64 2.60297 -3.03456 0
M  V30 18892 H 1751.08 3.46115 -2.44909 0
M  V30 18893 C 1749.54 3.22268 -0.982101 0
M  V30 18894 O 1750.07 4.01119 -0.216035 0
M  V30 18895 N 1748.27 2.79931 -0.780179 0
M  V30 18896 H 1747.82 2.15923 -1.40482 0
M  V30 18897 H 1747.78 3.14396 0.0163297 0
M  V30 18898 N 1751.55 1.48103 0.538828 0
M  V30 18899 C 1752.48 1.58044 1.65996 0
M  V30 18900 C 1753.49 0.465316 1.56009 0
M  V30 18901 O 1754.68 0.735769 1.62631 0
M  V30 18902 C 1751.78 1.48587 3.0459 0
M  V30 18903 C 1750.96 2.74987 3.40148 0
M  V30 18904 C 1750.01 2.59109 4.57984 0
M  V30 18905 O 1749.04 3.32974 4.61646 0
M  V30 18906 N 1750.24 1.68143 5.55615 0
M  V30 18907 H 1753.01 2.54726 1.57908 0
M  V30 18908 H 1750.57 1.44715 0.725901 0
M  V30 18909 H 1752.56 1.35673 3.81281 0
M  V30 18910 H 1751.13 0.599157 3.06804 0
M  V30 18911 H 1750.35 3.02531 2.52723 0
M  V30 18912 H 1751.64 3.58862 3.60687 0
M  V30 18913 H 1751.04 1.07317 5.55427 0
M  V30 18914 H 1749.59 1.61171 6.31559 0
M  V30 18915 N 1753.03 -0.787016 1.36542 0
M  V30 18916 C 1754.3 -1.53325 1.21452 0
M  V30 18917 C 1754.68 -2.10166 -0.198313 0
M  V30 18918 O 1754.03 -1.94192 -1.20422 0
M  V30 18919 C 1754.24 -2.62629 2.29841 0
M  V30 18920 C 1755.59 -3.30446 2.66628 0
M  V30 18921 O 1756.61 -2.72914 2.28903 0
M  V30 18922 O 1755.47 -4.34424 3.31569 0
M  V30 18923 H 1752.57 -0.678361 0.473028 0
M  V30 18924 H 1755.11 -0.825292 1.4828 0
M  V30 18925 H 1753.88 -2.18639 3.24519 0
M  V30 18926 H 1753.51 -3.41042 2.04393 0
M  V30 18927 N 1754.5 -1.20861 -1.01145 0
M  V30 18928 C 1755.75 -1.01613 -1.74234 0
M  V30 18929 C 1756.07 0.451683 -1.90313 0
M  V30 18930 O 1757.27 0.763408 -2.60546 0
M  V30 18931 C 1755.73 -1.76942 -3.134 0
M  V30 18932 C 1755.34 -3.27851 -3.05316 0
M  V30 18933 C 1757.08 -1.6608 -3.90663 0
M  V30 18934 C 1754.99 -3.95696 -4.39521 0
M  V30 18935 H 1753.92 -0.376593 -0.653218 0
M  V30 18936 H 1756.57 -1.44533 -1.1306 0
M  V30 18937 H 1754.95 -1.26812 -3.75146 0
M  V30 18938 H 1756.12 -3.85234 -2.52846 0
M  V30 18939 H 1754.44 -3.39184 -2.41543 0
M  V30 18940 H 1757.04 -2.14105 -4.89963 0
M  V30 18941 H 1757.38 -0.617892 -4.11689 0
M  V30 18942 H 1757.91 -2.13652 -3.35556 0
M  V30 18943 H 1754.65 -5.00161 -4.23697 0
M  V30 18944 H 1754.17 -3.43102 -4.91977 0
M  V30 18945 H 1755.85 -4.00242 -5.08346 0
M  V30 18946 N 1755.98 1.20536 -1.01532 0
M  V30 18947 C 1756.91 2.2553 -0.604866 0
M  V30 18948 C 1757.89 1.65814 0.379452 0
M  V30 18949 O 1759.08 1.92381 0.265162 0
M  V30 18950 C 1756.21 3.4725 0.0589292 0
M  V30 18951 C 1755.16 4.19551 -0.846241 0
M  V30 18952 C 1754.49 5.34678 -0.0482901 0
M  V30 18953 C 1755.79 4.75829 -2.1537 0
M  V30 18954 H 1757.48 2.60117 -1.48254 0
M  V30 18955 H 1755.03 1.25035 -0.714297 0
M  V30 18956 H 1756.98 4.1988 0.357627 0
M  V30 18957 H 1755.71 3.11822 0.97131 0
M  V30 18958 H 1754.36 3.48785 -1.12892 0
M  V30 18959 H 1754.01 4.95494 0.8657 0
M  V30 18960 H 1753.71 5.83982 -0.651081 0
M  V30 18961 H 1755.24 6.10112 0.243983 0
M  V30 18962 H 1756.65 5.40284 -1.91745 0
M  V30 18963 H 1755.05 5.35564 -2.70723 0
M  V30 18964 H 1756.12 3.94641 -2.81756 0
M  V30 18965 N 1757.46 0.791395 1.36289 0
M  V30 18966 C 1758.88 0.473308 1.5242 0
M  V30 18967 C 1759.08 -1.00805 1.74473 0
M  V30 18968 O 1758.13 -1.79349 1.77737 0
M  V30 18969 C 1759.45 1.30547 2.70884 0
M  V30 18970 C 1760.99 1.29936 2.84755 0
M  V30 18971 C 1761.47 2.1153 4.06225 0
M  V30 18972 N 1762.96 2.08987 4.13375 0
M  V30 18973 C 1763.69 2.68889 5.06445 0
M  V30 18974 N 1763.19 3.37657 6.04946 0
M  V30 18975 N 1764.98 2.58612 4.99075 0
M  V30 18976 H 1757.13 1.75096 1.20229 0
M  V30 18977 H 1759.4 0.74441 0.586991 0
M  V30 18978 H 1759.1 2.35607 2.61117 0
M  V30 18979 H 1758.98 0.948139 3.65089 0
M  V30 18980 H 1761.36 0.256671 2.93982 0
M  V30 18981 H 1761.45 1.69647 1.91451 0
M  V30 18982 H 1761.09 3.15832 3.9776 0
M  V30 18983 H 1761.02 1.69189 4.98681 0
M  V30 18984 H 1763.51 1.58938 3.42851 0
M  V30 18985 H 1763.82 3.8069 6.72529 0
M  V30 18986 H 1762.17 3.4176 6.05165 0
M  V30 18987 H 1765.36 2.04487 4.21073 0
M  V30 18988 H 1765.53 3.05587 5.7142 0
M  V30 18989 N 1758.94 -1.47929 0.54358 0
M  V30 18990 C 1759.85 -2.33611 -0.215191 0
M  V30 18991 C 1760.87 -1.47343 -0.925526 0
M  V30 18992 O 1762.04 -1.80299 -0.897459 0
M  V30 18993 C 1759.11 -3.23755 -1.24031 0
M  V30 18994 C 1758.17 -4.25904 -0.538874 0
M  V30 18995 C 1757.4 -5.11741 -1.51516 0
M  V30 18996 O 1757.62 -4.9979 -2.74893 0
M  V30 18997 O 1756.56 -5.92722 -1.0471 0
M  V30 18998 H 1760.38 -2.99765 0.487279 0
M  V30 18999 H 1757.97 -1.46267 0.30434 0
M  V30 19000 H 1759.85 -3.79475 -1.8324 0
M  V30 19001 H 1758.53 -2.60245 -1.92495 0
M  V30 19002 H 1757.43 -3.73982 0.0940539 0
M  V30 19003 H 1758.77 -4.9209 0.104063 0
M  V30 19004 N 1760.42 -0.27936 -1.55104 0
M  V30 19005 C 1761.36 0.606268 -2.22695 0
M  V30 19006 C 1762.33 1.14646 -1.20189 0
M  V30 19007 O 1763.52 1.19498 -1.48744 0
M  V30 19008 C 1760.66 1.78256 -2.95497 0
M  V30 19009 C 1759.77 1.27582 -4.12731 0
M  V30 19010 C 1758.91 2.41425 -4.73167 0
M  V30 19011 C 1757.95 1.87775 -5.82586 0
M  V30 19012 N 1757.08 2.95108 -6.37068 0
M  V30 19013 H 1761.92 0.0232427 -2.97991 0
M  V30 19014 H 1759.46 -0.000294714 -1.471 0
M  V30 19015 H 1761.42 2.47406 -3.35925 0
M  V30 19016 H 1760.05 2.33755 -2.22617 0
M  V30 19017 H 1759.1 0.477281 -3.77394 0
M  V30 19018 H 1760.41 0.842897 -4.91627 0
M  V30 19019 H 1759.57 3.18561 -5.16337 0
M  V30 19020 H 1758.31 2.88035 -3.93557 0
M  V30 19021 H 1757.31 1.0912 -5.38862 0
M  V30 19022 H 1758.54 1.42096 -6.64067 0
M  V30 19023 H 1756.48 3.41091 -5.60351 0
M  V30 19024 H 1756.4 2.56246 -7.11248 0
M  V30 19025 H 1757.67 3.72206 -6.84896 0
M  V30 19026 N 1761.9 1.57599 -0.0067085 0
M  V30 19027 C 1763.14 1.9114 0.677733 0
M  V30 19028 C 1763.47 0.881328 1.7305 0
M  V30 19029 O 1762.75 -0.099049 1.94248 0
M  V30 19030 C 1763.03 3.35241 1.31474 0
M  V30 19031 C 1762.89 4.4897 0.273055 0
M  V30 19032 C 1764.2 3.78886 2.23905 0
M  V30 19033 H 1761.32 0.695119 0.244907 0
M  V30 19034 H 1763.97 1.89907 -0.059378 0
M  V30 19035 H 1762.12 3.36423 1.94299 0
M  V30 19036 H 1763.79 4.59924 -0.356031 0
M  V30 19037 H 1762.03 4.31915 -0.403961 0
M  V30 19038 H 1762.7 5.46772 0.757941 0
M  V30 19039 H 1765.18 3.79299 1.7109 0
M  V30 19040 H 1764.05 4.80451 2.65439 0
M  V30 19041 H 1764.31 3.13129 3.12094 0
M  V30 19042 N 1763.37 -0.266145 1.55336 0
M  V30 19043 C 1764.32 -1.349 1.89485 0
M  V30 19044 C 1765.32 -1.50792 0.771882 0
M  V30 19045 O 1766.52 -1.52495 0.956302 0
M  V30 19046 H 1762.9 -0.451312 0.601516 0
M  V30 19047 H 1764.87 -1.03354 2.7993 0
M  V30 19048 C 1763.62 -2.70119 2.18931 0
M  V30 19049 H 1762.94 -2.58684 3.04832 0
M  V30 19050 H 1764.38 -3.44811 2.46742 0
M  V30 19051 C 1762.84 -3.21742 0.999177 0
M  V30 19052 O 1763.37 -4.00998 0.237304 0
M  V30 19053 N 1761.57 -2.79514 0.795013 0
M  V30 19054 H 1761.12 -2.15175 1.41625 0
M  V30 19055 H 1761.08 -3.144 0.000343733 0
M  V30 19056 N 1764.85 -1.48386 -0.530967 0
M  V30 19057 C 1765.76 -1.65516 -1.66257 0
M  V30 19058 C 1766.78 -0.5377 -1.65483 0
M  V30 19059 O 1767.95 -0.808642 -1.84453 0
M  V30 19060 C 1765.02 -1.68999 -3.02722 0
M  V30 19061 C 1764.08 -2.92365 -3.14358 0
M  V30 19062 C 1763.31 -2.95672 -4.44313 0
M  V30 19063 O 1763.54 -2.07417 -5.31352 0
M  V30 19064 O 1762.47 -3.87831 -4.60294 0
M  V30 19065 H 1766.3 -2.61321 -1.54742 0
M  V30 19066 H 1763.88 -1.31776 -0.703946 0
M  V30 19067 H 1765.76 -1.73816 -3.83883 0
M  V30 19068 H 1764.44 -0.763675 -3.14563 0
M  V30 19069 H 1763.34 -2.93081 -2.32496 0
M  V30 19070 H 1764.68 -3.84378 -3.07433 0
M  V30 19071 N 1766.33 0.779763 -1.36958 0
M  V30 19072 C 1767.24 1.92394 -1.34245 0
M  V30 19073 C 1768.26 1.72292 -0.243187 0
M  V30 19074 O 1769.43 1.95665 -0.477211 0
M  V30 19075 C 1766.5 3.27402 -1.14057 0
M  V30 19076 C 1765.56 3.60213 -2.33548 0
M  V30 19077 C 1764.79 4.88779 -2.14314 0
M  V30 19078 O 1765.01 5.59231 -1.12327 0
M  V30 19079 O 1763.95 5.20469 -3.02316 0
M  V30 19080 H 1767.77 1.97633 -2.30596 0
M  V30 19081 H 1765.36 0.921386 -1.17605 0
M  V30 19082 H 1767.24 4.08172 -1.04755 0
M  V30 19083 H 1765.92 3.23033 -0.207744 0
M  V30 19084 H 1764.82 2.7971 -2.48421 0
M  V30 19085 H 1766.16 3.69317 -3.25371 0
M  V30 19086 N 1767.81 1.21396 1.00503 0
M  V30 19087 C 1768.74 0.916483 2.08988 0
M  V30 19088 C 1769.72 -0.135972 1.6203 0
M  V30 19089 O 1770.9 -0.00701537 1.88499 0
M  V30 19090 C 1768.03 0.376122 3.36605 0
M  V30 19091 C 1767.08 1.41137 4.0247 0
M  V30 19092 S 1767.91 2.98055 4.44886 0
M  V30 19093 C 1769.06 2.45626 5.7569 0
M  V30 19094 H 1769.3 1.83517 2.33899 0
M  V30 19095 H 1766.83 1.0437 1.13782 0
M  V30 19096 H 1768.79 0.0709239 4.10439 0
M  V30 19097 H 1767.45 -0.52125 3.09745 0
M  V30 19098 H 1766.64 0.982903 4.94323 0
M  V30 19099 H 1766.24 1.66465 3.34911 0
M  V30 19100 H 1768.54 1.8611 6.51436 0
M  V30 19101 H 1769.48 3.3592 6.23348 0
M  V30 19102 H 1769.89 1.87337 5.32508 0
M  V30 19103 N 1769.29 -1.19996 1.0217 0
M  V30 19104 C 1770.52 -1.93186 0.732311 0
M  V30 19105 C 1770.92 -1.75303 -0.711724 0
M  V30 19106 O 1770.27 -1.06756 -1.49495 0
M  V30 19107 C 1770.33 -3.45466 0.994655 0
M  V30 19108 C 1769.99 -3.87114 2.42882 0
M  V30 19109 C 1770.99 -3.92459 3.40987 0
M  V30 19110 C 1768.67 -4.18958 2.77091 0
M  V30 19111 C 1770.67 -4.29067 4.7136 0
M  V30 19112 C 1768.36 -4.5524 4.07676 0
M  V30 19113 C 1769.35 -4.60267 5.04622 0
M  V30 19114 O 1769.04 -4.95713 6.32869 0
M  V30 19115 H 1768.77 -0.62069 0.267806 0
M  V30 19116 H 1771.33 -1.53287 1.3672 0
M  V30 19117 H 1769.56 -3.85514 0.30261 0
M  V30 19118 H 1771.25 -3.99887 0.696049 0
M  V30 19119 H 1772.01 -3.68016 3.15895 0
M  V30 19120 H 1767.89 -4.14233 2.02317 0
M  V30 19121 H 1771.44 -4.32905 5.47027 0
M  V30 19122 H 1767.33 -4.7914 4.32545 0
M  V30 19123 H 1768.1 -5.13687 6.37234 0
M  V30 19124 N 1770.76 -0.798611 -1.35867 0
M  V30 19125 C 1772.01 -0.371795 -1.98244 0
M  V30 19126 C 1772.33 1.06474 -1.64081 0
M  V30 19127 O 1773.53 1.59428 -2.19761 0
M  V30 19128 C 1771.99 -0.613821 -3.54627 0
M  V30 19129 C 1771.6 -2.06237 -3.97706 0
M  V30 19130 C 1773.34 -0.251966 -4.23752 0
M  V30 19131 C 1771.25 -2.25057 -5.46903 0
M  V30 19132 H 1770.18 -0.135278 -0.741765 0
M  V30 19133 H 1772.83 -0.981544 -1.55042 0
M  V30 19134 H 1771.21 0.0657688 -3.95945 0
M  V30 19135 H 1772.38 -2.77912 -3.67562 0
M  V30 19136 H 1770.7 -2.38334 -3.41447 0
M  V30 19137 H 1773.3 -0.370736 -5.33413 0
M  V30 19138 H 1773.64 0.800968 -4.08522 0
M  V30 19139 H 1774.17 -0.885155 -3.87827 0
M  V30 19140 H 1770.91 -3.28767 -5.67091 0
M  V30 19141 H 1770.43 -1.57898 -5.78643 0
M  V30 19142 H 1772.11 -2.06219 -6.13256 0
M  V30 19143 N 1772.24 1.47639 -0.551417 0
M  V30 19144 C 1773.15 2.33722 0.202799 0
M  V30 19145 C 1774.17 1.47832 0.917699 0
M  V30 19146 O 1775.34 1.80772 0.887885 0
M  V30 19147 C 1772.41 3.24408 1.22313 0
M  V30 19148 C 1771.47 4.26184 0.51628 0
M  V30 19149 C 1770.7 5.12537 1.488 0
M  V30 19150 O 1770.93 5.01241 2.72238 0
M  V30 19151 O 1769.86 5.93269 1.01566 0
M  V30 19152 H 1773.69 2.99503 -0.50317 0
M  V30 19153 H 1771.27 1.46104 -0.312093 0
M  V30 19154 H 1773.15 3.80441 1.81225 0
M  V30 19155 H 1771.83 2.61262 1.91112 0
M  V30 19156 H 1770.73 3.73927 -0.113886 0
M  V30 19157 H 1772.07 4.92028 -0.130158 0
M  V30 19158 N 1773.72 0.287581 1.54954 0
M  V30 19159 C 1774.67 -0.594449 2.23013 0
M  V30 19160 C 1775.64 -1.14007 1.20795 0
M  V30 19161 O 1776.82 -1.18708 1.49376 0
M  V30 19162 C 1773.96 -1.76687 2.96439 0
M  V30 19163 C 1773.08 -1.25391 4.13402 0
M  V30 19164 C 1772.21 -2.38912 4.74441 0
M  V30 19165 C 1771.25 -1.84683 5.83574 0
M  V30 19166 N 1770.39 -2.91725 6.38624 0
M  V30 19167 H 1775.23 -0.00743921 2.97999 0
M  V30 19168 H 1772.76 0.00809578 1.47098 0
M  V30 19169 H 1774.72 -2.45621 3.37233 0
M  V30 19170 H 1773.35 -2.32571 2.23853 0
M  V30 19171 H 1772.4 -0.45726 3.77642 0
M  V30 19172 H 1773.72 -0.816813 4.92067 0
M  V30 19173 H 1772.87 -3.15818 5.18019 0
M  V30 19174 H 1771.61 -2.85943 3.95079 0
M  V30 19175 H 1770.61 -1.06261 5.39434 0
M  V30 19176 H 1771.84 -1.38572 6.64812 0
M  V30 19177 H 1769.78 -3.38115 5.62152 0
M  V30 19178 H 1769.7 -2.5247 7.12597 0
M  V30 19179 H 1770.97 -3.68569 6.86861 0
M  V30 19180 N 1775.2 -1.57593 0.0150662 0
M  V30 19181 C 1776.13 -2.12395 -0.970081 0
M  V30 19182 C 1777.11 -1.03666 -1.34861 0
M  V30 19183 O 1778.29 -1.31427 -1.4297 0
M  V30 19184 C 1775.42 -2.63958 -2.25707 0
M  V30 19185 C 1774.38 -3.77348 -2.01971 0
M  V30 19186 C 1773.7 -4.15284 -3.36814 0
M  V30 19187 C 1775 -5.04008 -1.37017 0
M  V30 19188 H 1776.7 -2.9496 -0.513731 0
M  V30 19189 H 1774.24 -1.41889 -0.245666 0
M  V30 19190 H 1776.2 -3.00927 -2.94993 0
M  V30 19191 H 1774.92 -1.78535 -2.73483 0
M  V30 19192 H 1773.58 -3.40795 -1.35107 0
M  V30 19193 H 1773.23 -3.26863 -3.82321 0
M  V30 19194 H 1772.93 -4.91686 -3.21744 0
M  V30 19195 H 1774.45 -4.54824 -4.07391 0
M  V30 19196 H 1775.87 -5.38652 -1.96282 0
M  V30 19197 H 1774.26 -5.85315 -1.32388 0
M  V30 19198 H 1775.33 -4.83698 -0.341281 0
M  V30 19199 N 1776.68 0.257904 -1.55475 0
M  V30 19200 C 1777.92 0.98747 -1.76792 0
M  V30 19201 C 1778.25 1.85732 -0.577411 0
M  V30 19202 O 1777.51 1.90698 0.439647 0
M  V30 19203 C 1777.81 1.8875 -3.03494 0
M  V30 19204 C 1777.47 1.17391 -4.35351 0
M  V30 19205 C 1776.13 0.976662 -4.71184 0
M  V30 19206 C 1778.49 0.667299 -5.16911 0
M  V30 19207 C 1775.81 0.260314 -5.86122 0
M  V30 19208 C 1778.17 -0.0355283 -6.3259 0
M  V30 19209 C 1776.83 -0.244359 -6.67053 0
M  V30 19210 H 1776.1 0.361341 -0.646926 0
M  V30 19211 H 1778.75 0.258469 -1.89748 0
M  V30 19212 H 1777.05 2.6832 -2.85502 0
M  V30 19213 H 1778.75 2.45348 -3.17184 0
M  V30 19214 H 1775.34 1.33758 -4.07194 0
M  V30 19215 H 1779.52 0.807271 -4.89691 0
M  V30 19216 H 1774.78 0.0879391 -6.11337 0
M  V30 19217 H 1778.95 -0.435775 -6.95035 0
M  V30 19218 H 1776.58 -0.801403 -7.55964 0
M  V30 19219 N 1778.15 1.48666 0.52309 0
M  V30 19220 C 1779.43 1.47526 1.28435 0
M  V30 19221 C 1779.81 0.190719 2.10237 0
M  V30 19222 O 1779.16 -0.827423 2.12993 0
M  V30 19223 C 1779.37 2.74132 2.15992 0
M  V30 19224 C 1780.72 3.22739 2.75907 0
M  V30 19225 O 1781.74 2.75097 2.26275 0
M  V30 19226 O 1780.6 4.05657 3.66203 0
M  V30 19227 H 1777.69 0.589478 0.580039 0
M  V30 19228 H 1780.24 1.60907 0.539176 0
M  V30 19229 H 1779.01 3.5913 1.55375 0
M  V30 19230 H 1778.64 2.63505 2.97743 0
M  V30 19231 N 1779.63 -0.772489 1.37369 0
M  V30 19232 C 1780.56 -1.89487 1.28948 0
M  V30 19233 C 1781.58 -1.61499 0.205434 0
M  V30 19234 O 1782.77 -1.7243 0.461519 0
M  V30 19235 C 1779.87 -3.24698 0.970798 0
M  V30 19236 C 1779.04 -3.80337 2.16015 0
M  V30 19237 C 1778.1 -4.94022 1.81187 0
M  V30 19238 O 1777.12 -5.09647 2.53473 0
M  V30 19239 N 1778.33 -5.75562 0.755549 0
M  V30 19240 H 1781.09 -1.97228 2.25658 0
M  V30 19241 H 1778.65 -0.951562 1.30984 0
M  V30 19242 H 1780.64 -3.98268 0.71866 0
M  V30 19243 H 1779.21 -3.12464 0.0922825 0
M  V30 19244 H 1778.43 -2.98554 2.57409 0
M  V30 19245 H 1779.72 -4.14242 2.95434 0
M  V30 19246 H 1779.12 -5.65486 0.155691 0
M  V30 19247 H 1777.68 -6.49362 0.563268 0
M  V30 19248 N 1781.11 -1.21927 -0.998575 0
M  V30 19249 C 1782.36 -1.05199 -1.74082 0
M  V30 19250 C 1782.71 0.409387 -1.87994 0
M  V30 19251 O 1782 1.29958 -1.40788 0
M  V30 19252 C 1782.2 -1.69015 -3.1491 0
M  V30 19253 C 1782.03 -3.21208 -3.14731 0
M  V30 19254 C 1780.8 -3.90284 -3.20946 0
M  V30 19255 C 1783 -4.18214 -2.99335 0
M  V30 19256 N 1780.98 -5.29611 -3.10461 0
M  V30 19257 C 1782.35 -5.44334 -2.96816 0
M  V30 19258 C 1784.4 -4.09179 -2.83684 0
M  V30 19259 C 1783.11 -6.62459 -2.80251 0
M  V30 19260 C 1785.13 -5.26948 -2.68477 0
M  V30 19261 C 1784.49 -6.51983 -2.66641 0
M  V30 19262 H 1780.59 -0.439342 -0.646918 0
M  V30 19263 H 1783.18 -1.54381 -1.18636 0
M  V30 19264 H 1781.35 -1.22392 -3.68612 0
M  V30 19265 H 1783.08 -1.45433 -3.77666 0
M  V30 19266 H 1779.84 -3.41248 -3.284 0
M  V30 19267 H 1780.26 -6.02603 -3.08543 0
M  V30 19268 H 1784.9 -3.13301 -2.83905 0
M  V30 19269 H 1782.62 -7.58492 -2.78776 0
M  V30 19270 H 1786.21 -5.21784 -2.57358 0
M  V30 19271 H 1785.09 -7.41577 -2.55016 0
M  V30 19272 N 1782.59 1.19452 -1.02805 0
M  V30 19273 C 1783.82 1.92795 -0.742546 0
M  V30 19274 C 1784.23 1.75678 0.702418 0
M  V30 19275 O 1783.57 1.07547 1.48927 0
M  V30 19276 C 1783.63 3.44934 -1.01296 0
M  V30 19277 C 1783.3 3.85821 -2.44931 0
M  V30 19278 C 1784.29 3.90645 -3.43063 0
M  V30 19279 C 1781.98 4.17483 -2.79309 0
M  V30 19280 C 1783.97 4.26561 -4.73629 0
M  V30 19281 C 1781.66 4.53071 -4.10085 0
M  V30 19282 C 1782.66 4.57584 -5.07056 0
M  V30 19283 O 1782.34 4.9235 -6.35489 0
M  V30 19284 H 1782.08 0.619261 -0.271094 0
M  V30 19285 H 1784.63 1.5256 -1.37531 0
M  V30 19286 H 1782.86 3.85348 -0.323051 0
M  V30 19287 H 1784.55 3.99513 -0.717246 0
M  V30 19288 H 1785.32 3.66335 -3.17842 0
M  V30 19289 H 1781.19 4.13154 -2.0451 0
M  V30 19290 H 1784.74 4.29998 -5.49315 0
M  V30 19291 H 1780.64 4.76839 -4.3508 0
M  V30 19292 H 1781.4 5.10301 -6.39949 0
M  V30 19293 N 1784.07 0.805805 1.35442 0
M  V30 19294 C 1785.29 0.397179 2.03561 0
M  V30 19295 C 1785.72 -0.983665 1.6033 0
M  V30 19296 O 1785.07 -1.63683 0.779586 0
M  V30 19297 C 1785.12 0.487813 3.57285 0
M  V30 19298 O 1784.23 -0.499039 4.09369 0
M  V30 19299 H 1783.57 0.166009 0.642913 0
M  V30 19300 H 1786.1 1.09147 1.73055 0
M  V30 19301 H 1786.11 0.357334 4.06432 0
M  V30 19302 H 1784.78 1.49501 3.88101 0
M  V30 19303 H 1783.36 -0.328864 3.71447 0
M  V30 19304 N 1785.54 -1.47344 0.559239 0
M  V30 19305 C 1786.77 -2.07364 0.0388864 0
M  V30 19306 C 1787.19 -1.40886 -1.2463 0
M  V30 19307 O 1786.55 -0.48454 -1.74705 0
M  V30 19308 C 1786.6 -3.60336 -0.137894 0
M  V30 19309 O 1785.7 -3.94555 -1.2 0
M  V30 19310 H 1785.05 -0.661942 0.0522363 0
M  V30 19311 H 1787.58 -1.89333 0.7755 0
M  V30 19312 H 1787.59 -4.06483 -0.351462 0
M  V30 19313 H 1786.26 -4.08118 0.800776 0
M  V30 19314 H 1784.84 -3.6015 -0.966757 0
M  V30 19315 N 1787.02 -0.295795 -1.54799 0
M  V30 19316 C 1788.25 0.32058 -2.04907 0
M  V30 19317 C 1788.67 1.47132 -1.17191 0
M  V30 19318 O 1788.03 1.80455 -0.174869 0
M  V30 19319 C 1788.08 0.759439 -3.52512 0
M  V30 19320 O 1787.18 1.86474 -3.67833 0
M  V30 19321 H 1786.52 0.0631128 -0.660994 0
M  V30 19322 H 1789.05 -0.436123 -1.99898 0
M  V30 19323 H 1789.06 1.04965 -3.94267 0
M  V30 19324 H 1787.74 -0.0823715 -4.15818 0
M  V30 19325 H 1786.32 1.57547 -3.37984 0
M  V30 19326 N 1788.5 1.57583 -0.0234236 0
M  V30 19327 C 1789.43 2.05369 0.994927 0
M  V30 19328 C 1790.41 0.948279 1.32085 0
M  V30 19329 O 1791.6 1.21818 1.43849 0
M  V30 19330 C 1788.72 2.47098 2.31647 0
M  V30 19331 C 1787.77 3.68603 2.14555 0
M  V30 19332 S 1788.6 5.15504 1.44968 0
M  V30 19333 C 1789.76 5.60523 2.78504 0
M  V30 19334 H 1789.99 2.91425 0.588129 0
M  V30 19335 H 1787.52 1.5325 0.188111 0
M  V30 19336 H 1789.48 2.71805 3.07624 0
M  V30 19337 H 1788.14 1.61398 2.69461 0
M  V30 19338 H 1787.34 3.95629 3.1224 0
M  V30 19339 H 1786.94 3.44018 1.46722 0
M  V30 19340 H 1789.23 5.64414 3.74757 0
M  V30 19341 H 1790.17 6.60146 2.5615 0
M  V30 19342 H 1790.58 4.88153 2.8349 0
M  V30 19343 N 1789.98 -0.249655 1.5561 0
M  V30 19344 C 1790.93 -1.30906 1.90085 0
M  V30 19345 C 1791.9 -1.4796 0.754784 0
M  V30 19346 O 1793.08 -1.61988 1.00819 0
M  V30 19347 C 1790.22 -2.66 2.19859 0
M  V30 19348 C 1789.33 -2.56976 3.47257 0
M  V30 19349 C 1788.47 -3.84404 3.66615 0
M  V30 19350 C 1787.51 -3.69986 4.87623 0
M  V30 19351 N 1786.65 -4.89301 5.03517 0
M  V30 19352 H 1791.49 -1.00805 2.80432 0
M  V30 19353 H 1789.02 -0.486509 1.38822 0
M  V30 19354 H 1790.98 -3.44632 2.35126 0
M  V30 19355 H 1789.61 -2.94254 1.32719 0
M  V30 19356 H 1788.66 -1.69927 3.40337 0
M  V30 19357 H 1789.97 -2.42231 4.36034 0
M  V30 19358 H 1789.13 -4.7148 3.81826 0
M  V30 19359 H 1787.87 -4.02043 2.76066 0
M  V30 19360 H 1786.87 -2.81294 4.72391 0
M  V30 19361 H 1788.1 -3.53845 5.7963 0
M  V30 19362 H 1786.04 -5.07306 4.15905 0
M  V30 19363 H 1785.96 -4.77176 5.86378 0
M  V30 19364 H 1787.23 -5.77883 5.23137 0
M  V30 19365 N 1791.46 -1.48941 -0.515198 0
M  V30 19366 C 1792.7 -1.57943 -1.27207 0
M  V30 19367 C 1793.04 -0.259011 -1.92465 0
M  V30 19368 O 1792.31 0.736277 -1.80026 0
M  V30 19369 C 1792.59 -2.72846 -2.35005 0
M  V30 19370 C 1792.45 -4.14639 -1.74341 0
M  V30 19371 C 1793.77 -2.83444 -3.36672 0
M  V30 19372 H 1790.89 -0.574909 -0.461138 0
M  V30 19373 H 1793.53 -1.81172 -0.572413 0
M  V30 19374 H 1791.68 -2.5317 -2.94681 0
M  V30 19375 H 1793.35 -4.45793 -1.18602 0
M  V30 19376 H 1791.59 -4.20948 -1.0481 0
M  V30 19377 H 1792.26 -4.90883 -2.52463 0
M  V30 19378 H 1794.74 -3.01311 -2.86969 0
M  V30 19379 H 1793.62 -3.65542 -4.09475 0
M  V30 19380 H 1793.88 -1.92208 -3.98131 0
M  V30 19381 N 1792.94 0.765193 -1.37777 0
M  V30 19382 C 1794.18 1.51928 -1.32668 0
M  V30 19383 C 1794.5 1.95418 0.0844172 0
M  V30 19384 O 1795.7 2.70271 0.258001 0
M  V30 19385 C 1794.16 2.74377 -2.32906 0
M  V30 19386 C 1793.77 2.37959 -3.79578 0
M  V30 19387 C 1795.51 3.52302 -2.3682 0
M  V30 19388 C 1793.42 3.5695 -4.7153 0
M  V30 19389 H 1792.35 0.570412 -0.493098 0
M  V30 19390 H 1795 0.837531 -1.63272 0
M  V30 19391 H 1793.38 3.44474 -1.95329 0
M  V30 19392 H 1794.56 1.75603 -4.26028 0
M  V30 19393 H 1792.87 1.73194 -3.78672 0
M  V30 19394 H 1795.47 4.40754 -3.02721 0
M  V30 19395 H 1795.81 3.92631 -1.38371 0
M  V30 19396 H 1796.34 2.89207 -2.73137 0
M  V30 19397 H 1793.08 3.21697 -5.71132 0
M  V30 19398 H 1792.6 4.18388 -4.2978 0
M  V30 19399 H 1794.28 4.2368 -4.88983 0
M  V30 19400 N 1794.41 1.22455 0.992094 0
M  V30 19401 C 1795.65 1.06119 1.74694 0
M  V30 19402 C 1796.02 -0.396703 1.87857 0
M  V30 19403 O 1797.22 -0.680936 2.60032 0
M  V30 19404 C 1795.49 1.75374 3.11414 0
M  V30 19405 S 1797.05 1.74461 4.02627 0
M  V30 19406 H 1793.87 0.380011 0.600927 0
M  V30 19407 H 1796.47 1.55408 1.18611 0
M  V30 19408 H 1795.17 2.8061 2.99477 0
M  V30 19409 H 1794.7 1.26319 3.72568 0
M  V30 19410 H 1796.72 0.794871 4.89792 0
M  V30 19411 N 1795.89 -1.18905 1.03437 0
M  V30 19412 C 1797.14 -1.89007 0.735135 0
M  V30 19413 C 1797.47 -1.7976 -0.734838 0
M  V30 19414 O 1796.75 -1.19365 -1.53565 0
M  V30 19415 C 1797.03 -3.39732 1.1939 0
M  V30 19416 C 1796.88 -3.57822 2.7255 0
M  V30 19417 C 1798.2 -4.33151 0.778993 0
M  V30 19418 H 1795.32 -0.686338 0.26853 0
M  V30 19419 H 1797.96 -1.39932 1.28527 0
M  V30 19420 H 1796.11 -3.81659 0.725861 0
M  V30 19421 H 1797.78 -3.25031 3.27342 0
M  V30 19422 H 1796.03 -3.0069 3.12679 0
M  V30 19423 H 1796.7 -4.63552 2.99706 0
M  V30 19424 H 1799.17 -3.98969 1.18164 0
M  V30 19425 H 1798.05 -5.37189 1.12781 0
M  V30 19426 H 1798.31 -4.40953 -0.318296 0
M  V30 19427 N 1797.37 -0.812977 -1.35013 0
M  V30 19428 C 1798.62 -0.406082 -1.99305 0
M  V30 19429 C 1798.97 1.01711 -1.63317 0
M  V30 19430 O 1798.26 1.697 -0.889514 0
M  V30 19431 C 1798.46 -0.534083 -3.53387 0
M  V30 19432 C 1798.29 -1.96817 -4.04343 0
M  V30 19433 C 1797.06 -2.59792 -4.33401 0
M  V30 19434 C 1799.25 -2.93359 -4.22428 0
M  V30 19435 N 1797.24 -3.94544 -4.70328 0
M  V30 19436 C 1798.61 -4.12996 -4.62422 0
M  V30 19437 C 1800.66 -2.90106 -4.04651 0
M  V30 19438 C 1799.37 -5.29821 -4.865 0
M  V30 19439 C 1801.39 -4.06139 -4.29889 0
M  V30 19440 C 1800.75 -5.24525 -4.70162 0
M  V30 19441 H 1796.85 -0.196497 -0.75691 0
M  V30 19442 H 1799.44 -1.05557 -1.63602 0
M  V30 19443 H 1797.61 0.0854508 -3.88306 0
M  V30 19444 H 1799.34 -0.101154 -4.04574 0
M  V30 19445 H 1796.09 -2.11101 -4.2395 0
M  V30 19446 H 1796.52 -4.63939 -4.93041 0
M  V30 19447 H 1801.16 -1.99725 -3.72652 0
M  V30 19448 H 1798.88 -6.20768 -5.17371 0
M  V30 19449 H 1802.46 -4.0501 -4.17681 0
M  V30 19450 H 1801.34 -6.12819 -4.89309 0
M  V30 19451 N 1798.85 1.47045 -0.567045 0
M  V30 19452 C 1799.78 2.32929 0.163191 0
M  V30 19453 C 1800.76 1.44393 0.899142 0
M  V30 19454 O 1801.94 1.73235 0.87768 0
M  V30 19455 C 1799.07 3.26369 1.18745 0
M  V30 19456 C 1798.03 4.24223 0.567335 0
M  V30 19457 C 1797.35 5.07058 1.69693 0
M  V30 19458 C 1798.65 5.2004 -0.485319 0
M  V30 19459 H 1800.35 2.94233 -0.553837 0
M  V30 19460 H 1797.89 1.41488 -0.267789 0
M  V30 19461 H 1799.85 3.85299 1.70654 0
M  V30 19462 H 1798.57 2.6314 1.93455 0
M  V30 19463 H 1797.23 3.66534 0.0694525 0
M  V30 19464 H 1796.88 4.40226 2.43331 0
M  V30 19465 H 1796.58 5.73316 1.28774 0
M  V30 19466 H 1798.1 5.68848 2.2191 0
M  V30 19467 H 1799.52 5.73277 -0.0519049 0
M  V30 19468 H 1797.91 5.94554 -0.813942 0
M  V30 19469 H 1798.98 4.64921 -1.37754 0
M  V30 19470 N 1800.33 0.304 1.5464 0
M  V30 19471 C 1801.55 -0.306916 2.04611 0
M  V30 19472 C 1801.97 -1.4729 1.18114 0
M  V30 19473 O 1801.33 -1.81317 0.20743 0
M  V30 19474 C 1801.38 -0.760263 3.53415 0
M  V30 19475 O 1801.1 0.359321 4.36624 0
M  V30 19476 C 1802.6 -1.43602 4.19396 0
M  V30 19477 H 1799.82 -0.066247 0.667722 0
M  V30 19478 H 1802.36 0.444504 1.99611 0
M  V30 19479 H 1800.52 -1.4617 3.58766 0
M  V30 19480 H 1800.93 0.00582275 5.245 0
M  V30 19481 H 1802.41 -1.70436 5.25029 0
M  V30 19482 H 1802.88 -2.37705 3.69314 0
M  V30 19483 H 1803.49 -0.777683 4.18129 0
M  V30 19484 N 1801.8 -1.57568 0.0317802 0
M  V30 19485 C 1803.08 -1.8321 -0.685081 0
M  V30 19486 C 1803.46 -0.91624 -1.9018 0
M  V30 19487 O 1802.81 0.0275043 -2.28483 0
M  V30 19488 C 1803.02 -3.32488 -1.06078 0
M  V30 19489 C 1804.37 -3.99027 -1.45129 0
M  V30 19490 O 1805.39 -3.36999 -1.15368 0
M  V30 19491 O 1804.25 -5.08355 -2.00592 0
M  V30 19492 H 1801.34 -0.755517 -0.336337 0
M  V30 19493 H 1803.89 -1.69595 0.0596652 0
M  V30 19494 H 1802.66 -3.90814 -0.194918 0
M  V30 19495 H 1802.28 -3.5122 -1.8636 0
M  V30 19496 N 1803.28 0.241399 -1.5574 0
M  V30 19497 C 1804.7 0.590176 -1.48287 0
M  V30 19498 C 1804.9 1.8808 -0.723052 0
M  V30 19499 O 1803.95 2.51213 -0.25464 0
M  V30 19500 C 1805.27 0.687804 -2.92728 0
M  V30 19501 C 1806.82 0.779763 -3.03131 0
M  V30 19502 C 1807.29 0.908905 -4.48891 0
M  V30 19503 N 1808.78 0.973636 -4.52852 0
M  V30 19504 C 1809.52 1.09292 -5.62888 0
M  V30 19505 N 1809.01 1.1774 -6.82722 0
M  V30 19506 N 1810.81 1.12651 -5.50696 0
M  V30 19507 H 1802.96 -0.605781 -2.03578 0
M  V30 19508 H 1805.22 -0.209862 -0.924479 0
M  V30 19509 H 1804.93 -0.190608 -3.51183 0
M  V30 19510 H 1804.8 1.55794 -3.43523 0
M  V30 19511 H 1807.19 1.64863 -2.44754 0
M  V30 19512 H 1807.27 -0.115641 -2.55538 0
M  V30 19513 H 1806.91 0.0445788 -5.0788 0
M  V30 19514 H 1806.84 1.81943 -4.9417 0
M  V30 19515 H 1809.33 0.919469 -3.66544 0
M  V30 19516 H 1809.65 1.26764 -7.62332 0
M  V30 19517 H 1807.99 1.14688 -6.85472 0
M  V30 19518 H 1811.18 1.05703 -4.56009 0
M  V30 19519 H 1811.35 1.21602 -6.36488 0
M  V30 19520 N 1804.76 1.49212 0.507292 0
M  V30 19521 C 1805.69 1.68326 1.61829 0
M  V30 19522 C 1806.67 0.531969 1.61568 0
M  V30 19523 O 1807.86 0.767104 1.78407 0
M  V30 19524 C 1804.99 1.74394 3.0034 0
M  V30 19525 C 1803.94 2.89251 3.15465 0
M  V30 19526 C 1803.27 2.80426 4.55264 0
M  V30 19527 C 1804.57 4.30269 2.96085 0
M  V30 19528 H 1806.26 2.6134 1.46087 0
M  V30 19529 H 1803.81 1.25765 0.701367 0
M  V30 19530 H 1805.76 1.86353 3.77956 0
M  V30 19531 H 1804.48 0.779748 3.17155 0
M  V30 19532 H 1803.14 2.76884 2.40272 0
M  V30 19533 H 1802.79 1.81928 4.68947 0
M  V30 19534 H 1802.49 3.57511 4.66326 0
M  V30 19535 H 1804.01 2.94384 5.34949 0
M  V30 19536 H 1805.43 4.4335 3.63475 0
M  V30 19537 H 1803.83 5.08527 3.18623 0
M  V30 19538 H 1804.9 4.45151 1.92272 0
M  V30 19539 N 1806.24 -0.757876 1.38181 0
M  V30 19540 C 1807.52 -1.50715 1.24677 0
M  V30 19541 C 1807.9 -2.1054 -0.153689 0
M  V30 19542 O 1807.24 -1.96703 -1.16276 0
M  V30 19543 C 1807.45 -2.57695 2.3536 0
M  V30 19544 C 1808.8 -3.24716 2.73578 0
M  V30 19545 O 1809.83 -2.67997 2.3464 0
M  V30 19546 O 1808.68 -4.27294 3.40709 0
M  V30 19547 H 1805.78 -0.668175 0.487311 0
M  V30 19548 H 1808.32 -0.793653 1.49997 0
M  V30 19549 H 1807.1 -2.11706 3.29084 0
M  V30 19550 H 1806.72 -3.36629 2.11581 0
M  V30 19551 N 1807.72 -1.22979 -0.985586 0
M  V30 19552 C 1808.65 -1.03073 -2.09519 0
M  V30 19553 C 1809.63 0.0507025 -1.70024 0
M  V30 19554 O 1810.81 -0.112938 -1.93871 0
M  V30 19555 C 1807.94 -0.615578 -3.41801 0
M  V30 19556 C 1806.9 -1.64377 -3.95176 0
M  V30 19557 C 1806.22 -1.08422 -5.23592 0
M  V30 19558 C 1807.52 -3.03555 -4.25032 0
M  V30 19559 H 1809.22 -1.95882 -2.2643 0
M  V30 19560 H 1806.76 -0.943206 -1.0881 0
M  V30 19561 H 1808.72 -0.463394 -4.18844 0
M  V30 19562 H 1807.44 0.348185 -3.24739 0
M  V30 19563 H 1806.1 -1.78386 -3.20272 0
M  V30 19564 H 1805.75 -0.111597 -5.02876 0
M  V30 19565 H 1805.45 -1.77118 -5.6027 0
M  V30 19566 H 1806.97 -0.94378 -6.03262 0
M  V30 19567 H 1808.38 -2.92878 -4.92844 0
M  V30 19568 H 1806.78 -3.69441 -4.72899 0
M  V30 19569 H 1807.85 -3.52937 -3.32511 0
M  V30 19570 N 1809.19 1.18355 -1.04066 0
M  V30 19571 C 1810.13 2.21482 -0.58977 0
M  V30 19572 C 1811.14 1.59198 0.340576 0
M  V30 19573 O 1812.33 1.77988 0.135094 0
M  V30 19574 C 1809.43 3.3853 0.158397 0
M  V30 19575 C 1808.6 4.30392 -0.779824 0
M  V30 19576 C 1807.66 5.26147 -0.0749517 0
M  V30 19577 O 1806.69 5.64812 -0.705381 0
M  V30 19578 N 1807.89 5.68137 1.19168 0
M  V30 19579 H 1810.65 2.60791 -1.47676 0
M  V30 19580 H 1808.21 1.33141 -0.921151 0
M  V30 19581 H 1810.21 3.99611 0.639788 0
M  V30 19582 H 1808.78 2.97913 0.946929 0
M  V30 19583 H 1808 3.66915 -1.44107 0
M  V30 19584 H 1809.28 4.88668 -1.41707 0
M  V30 19585 H 1808.68 5.38777 1.7244 0
M  V30 19586 H 1807.24 6.31415 1.61735 0
M  V30 19587 N 1810.67 0.820125 1.3458 0
M  V30 19588 C 1811.6 0.254709 2.32107 0
M  V30 19589 C 1812.58 -0.6273 1.58111 0
M  V30 19590 O 1813.77 -0.554759 1.86108 0
M  V30 19591 C 1810.9 -0.586541 3.42311 0
M  V30 19592 C 1809.85 0.198096 4.27541 0
M  V30 19593 C 1809.18 -0.765718 5.29189 0
M  V30 19594 C 1810.48 1.40472 5.03056 0
M  V30 19595 H 1812.17 1.06955 2.79644 0
M  V30 19596 H 1809.72 0.515756 1.34447 0
M  V30 19597 H 1811.67 -0.992259 4.09551 0
M  V30 19598 H 1810.4 -1.4344 2.93415 0
M  V30 19599 H 1809.05 0.585149 3.619 0
M  V30 19600 H 1808.7 -1.60946 4.76556 0
M  V30 19601 H 1808.4 -0.244954 5.87089 0
M  V30 19602 H 1809.93 -1.16935 5.99298 0
M  V30 19603 H 1811.34 1.07316 5.63166 0
M  V30 19604 H 1809.74 1.86092 5.70517 0
M  V30 19605 H 1810.81 2.18437 4.32913 0
M  V30 19606 N 1812.15 -1.46743 0.574835 0
M  V30 19607 C 1813.1 -2.27259 -0.183667 0
M  V30 19608 C 1814.08 -1.35406 -0.869139 0
M  V30 19609 O 1815.28 -1.59637 -0.764534 0
M  V30 19610 C 1812.41 -3.21578 -1.20178 0
M  V30 19611 C 1811.49 -4.20914 -0.518826 0
M  V30 19612 N 1811.88 -5.04044 0.421132 0
M  V30 19613 C 1810.18 -4.39293 -0.770561 0
M  V30 19614 C 1810.88 -5.75898 0.819539 0
M  V30 19615 N 1809.86 -5.43333 0.170429 0
M  V30 19616 H 1813.66 -2.8892 0.538761 0
M  V30 19617 H 1811.17 -1.57497 0.396049 0
M  V30 19618 H 1813.17 -3.77961 -1.75929 0
M  V30 19619 H 1811.83 -2.61476 -1.92511 0
M  V30 19620 H 1812.84 -5.11742 0.796245 0
M  V30 19621 H 1809.52 -3.90347 -1.48107 0
M  V30 19622 H 1810.91 -6.52745 1.59293 0
M  V30 19623 N 1813.63 -0.312197 -1.54477 0
M  V30 19624 C 1814.88 0.294607 -1.99537 0
M  V30 19625 C 1815.19 1.54137 -1.20421 0
M  V30 19626 O 1816.4 2.22346 -1.55803 0
M  V30 19627 C 1814.85 0.57547 -3.55269 0
M  V30 19628 C 1814.46 -0.653591 -4.43207 0
M  V30 19629 C 1816.2 1.14285 -4.08827 0
M  V30 19630 C 1814.11 -0.345261 -5.90391 0
M  V30 19631 H 1813.04 0.113859 -0.745354 0
M  V30 19632 H 1815.69 -0.42265 -1.78566 0
M  V30 19633 H 1814.07 1.35262 -3.72183 0
M  V30 19634 H 1815.25 -1.42945 -4.38068 0
M  V30 19635 H 1813.56 -1.14039 -4.0048 0
M  V30 19636 H 1816.16 1.38797 -5.16371 0
M  V30 19637 H 1816.5 2.08866 -3.60112 0
M  V30 19638 H 1817.04 0.427154 -3.955 0
M  V30 19639 H 1813.78 -1.25994 -6.43277 0
M  V30 19640 H 1813.3 0.393106 -5.9851 0
M  V30 19641 H 1814.97 0.0490847 -6.46981 0
M  V30 19642 N 1815.11 1.57549 -0.040136 0
M  V30 19643 C 1816.34 1.96272 0.645049 0
M  V30 19644 C 1816.74 0.915804 1.65559 0
M  V30 19645 O 1816.09 -0.109666 1.83372 0
M  V30 19646 C 1816.15 3.31187 1.3984 0
M  V30 19647 C 1815.81 4.53739 0.544953 0
M  V30 19648 C 1816.81 5.19573 -0.184369 0
M  V30 19649 C 1814.5 5.0001 0.479119 0
M  V30 19650 C 1816.49 6.30006 -0.968081 0
M  V30 19651 C 1814.18 6.10322 -0.30829 0
M  V30 19652 C 1815.17 6.7518 -1.03059 0
M  V30 19653 O 1814.86 7.83373 -1.80507 0
M  V30 19654 H 1814.59 0.651051 0.181958 0
M  V30 19655 H 1817.15 2.05159 -0.0995179 0
M  V30 19656 H 1815.38 3.18823 2.18835 0
M  V30 19657 H 1817.07 3.54735 1.97276 0
M  V30 19658 H 1817.83 4.84789 -0.142908 0
M  V30 19659 H 1813.71 4.49325 1.0309 0
M  V30 19660 H 1817.26 6.80562 -1.53237 0
M  V30 19661 H 1813.15 6.44543 -0.351428 0
M  V30 19662 H 1813.92 8.00094 -1.72601 0
M  V30 19663 N 1816.58 -0.233136 1.55866 0
M  V30 19664 C 1817.52 -1.31202 1.87932 0
M  V30 19665 C 1818.53 -1.43619 0.766642 0
M  V30 19666 O 1819.72 -1.44723 1.04487 0
M  V30 19667 C 1816.82 -2.68904 2.06262 0
M  V30 19668 C 1815.99 -2.78581 3.37211 0
M  V30 19669 C 1815.05 -3.97219 3.45114 0
M  V30 19670 O 1814.08 -3.861 4.18229 0
M  V30 19671 N 1815.28 -5.11009 2.7541 0
M  V30 19672 H 1818.04 -1.04025 2.81067 0
M  V30 19673 H 1815.6 -0.423209 1.56271 0
M  V30 19674 H 1817.6 -3.46631 2.08876 0
M  V30 19675 H 1816.17 -2.8873 1.19807 0
M  V30 19676 H 1815.39 -1.87422 3.46795 0
M  V30 19677 H 1816.67 -2.82008 4.23496 0
M  V30 19678 H 1816.07 -5.22936 2.15764 0
M  V30 19679 H 1814.63 -5.8682 2.837 0
M  V30 19680 N 1818.06 -1.49479 -0.499372 0
M  V30 19681 C 1818.99 -1.69182 -1.60934 0
M  V30 19682 C 1819.97 -0.54053 -1.61283 0
M  V30 19683 O 1821.16 -0.776554 -1.77998 0
M  V30 19684 C 1818.29 -1.75985 -2.99411 0
M  V30 19685 C 1817.24 -2.9092 -3.13926 0
M  V30 19686 C 1816.57 -2.82837 -4.5377 0
M  V30 19687 C 1817.87 -4.31833 -2.93799 0
M  V30 19688 H 1819.56 -2.62112 -1.44699 0
M  V30 19689 H 1817.11 -1.26135 -0.694688 0
M  V30 19690 H 1819.06 -1.88354 -3.76962 0
M  V30 19691 H 1817.79 -0.796557 -3.16737 0
M  V30 19692 H 1816.45 -2.78155 -2.388 0
M  V30 19693 H 1816.09 -1.84412 -4.67976 0
M  V30 19694 H 1815.79 -3.59979 -4.64423 0
M  V30 19695 H 1817.32 -2.97217 -5.3338 0
M  V30 19696 H 1818.73 -4.45271 -3.61119 0
M  V30 19697 H 1817.13 -5.10209 -3.15922 0
M  V30 19698 H 1818.2 -4.46165 -1.89908 0
M  V30 19699 N 1819.54 0.750537 -1.38581 0
M  V30 19700 C 1820.49 1.86434 -1.36056 0
M  V30 19701 C 1821.46 1.64601 -0.222625 0
M  V30 19702 O 1822.64 1.86225 -0.41533 0
M  V30 19703 C 1819.78 3.23769 -1.19447 0
M  V30 19704 C 1818.9 3.57412 -2.42653 0
M  V30 19705 C 1818.03 4.84067 -2.18751 0
M  V30 19706 C 1817.07 5.10506 -3.37713 0
M  V30 19707 N 1816.21 6.28358 -3.13227 0
M  V30 19708 H 1821.05 1.87927 -2.31274 0
M  V30 19709 H 1818.58 0.91849 -1.14901 0
M  V30 19710 H 1820.54 4.03024 -1.07832 0
M  V30 19711 H 1819.17 3.21595 -0.278665 0
M  V30 19712 H 1818.22 2.72978 -2.64929 0
M  V30 19713 H 1819.54 3.72876 -3.31307 0
M  V30 19714 H 1818.69 5.71271 -2.0429 0
M  V30 19715 H 1817.43 4.70748 -1.27467 0
M  V30 19716 H 1816.43 4.2177 -3.5269 0
M  V30 19717 H 1817.66 5.25721 -4.29877 0
M  V30 19718 H 1815.61 6.16355 -2.24593 0
M  V30 19719 H 1815.52 6.44337 -3.95432 0
M  V30 19720 H 1816.79 7.18441 -3.02428 0
M  V30 19721 N 1821.02 1.235 0.979051 0
M  V30 19722 C 1822.25 1.09462 1.75572 0
M  V30 19723 C 1822.66 -0.3538 1.85455 0
M  V30 19724 O 1822.02 -1.24467 1.3347 0
M  V30 19725 C 1822.07 1.71562 3.18196 0
M  V30 19726 O 1821.79 3.1074 3.08824 0
M  V30 19727 C 1823.29 1.62984 4.12251 0
M  V30 19728 H 1820.51 0.383013 0.550946 0
M  V30 19729 H 1823.06 1.63378 1.22995 0
M  V30 19730 H 1821.21 1.21676 3.67796 0
M  V30 19731 H 1821.63 3.40888 3.98617 0
M  V30 19732 H 1823.1 2.11135 5.10025 0
M  V30 19733 H 1823.58 0.588907 4.35234 0
M  V30 19734 H 1824.18 2.12242 3.68556 0
M  V30 19735 N 1822.5 -1.17802 1.04693 0
M  V30 19736 C 1823.43 -2.23847 0.664448 0
M  V30 19737 C 1824.41 -1.66761 -0.335356 0
M  V30 19738 O 1825.59 -1.93017 -0.214062 0
M  V30 19739 C 1822.72 -3.47284 0.0331587 0
M  V30 19740 C 1821.68 -4.1716 0.95718 0
M  V30 19741 C 1821 -5.34362 0.190034 0
M  V30 19742 C 1822.3 -4.69951 2.2791 0
M  V30 19743 H 1824 -2.56095 1.55099 0
M  V30 19744 H 1821.54 -1.23097 0.747196 0
M  V30 19745 H 1823.5 -4.2068 -0.246178 0
M  V30 19746 H 1822.22 -3.14288 -0.888294 0
M  V30 19747 H 1820.88 -3.45669 1.221 0
M  V30 19748 H 1820.53 -4.97615 -0.734025 0
M  V30 19749 H 1820.23 -5.8205 0.805684 0
M  V30 19750 H 1821.75 -6.10545 -0.0821372 0
M  V30 19751 H 1823.17 -5.3501 2.06003 0
M  V30 19752 H 1821.56 -5.28198 2.84828 0
M  V30 19753 H 1822.63 -3.87032 2.9212 0
M  V30 19754 N 1823.98 -0.827251 -1.34143 0
M  V30 19755 C 1825.22 -0.413762 -1.9741 0
M  V30 19756 C 1825.54 1.0297 -1.66303 0
M  V30 19757 O 1826.74 1.5473 -2.23094 0
M  V30 19758 C 1825.2 -0.688904 -3.53245 0
M  V30 19759 C 1824.81 -2.14627 -3.93242 0
M  V30 19760 C 1826.55 -0.341794 -4.23122 0
M  V30 19761 C 1824.46 -2.36607 -5.42006 0
M  V30 19762 H 1823.39 -0.150982 -0.738729 0
M  V30 19763 H 1826.04 -1.01421 -1.52925 0
M  V30 19764 H 1824.42 -0.0182319 -3.95996 0
M  V30 19765 H 1825.6 -2.85646 -3.61584 0
M  V30 19766 H 1823.91 -2.45523 -3.36314 0
M  V30 19767 H 1826.51 -0.483797 -5.32507 0
M  V30 19768 H 1826.85 0.714135 -4.10129 0
M  V30 19769 H 1827.38 -0.96722 -3.85862 0
M  V30 19770 H 1824.12 -3.40722 -5.5999 0
M  V30 19771 H 1823.64 -1.70137 -5.75164 0
M  V30 19772 H 1825.32 -2.19181 -6.08744 0
M  V30 19773 N 1825.45 1.46436 -0.582609 0
M  V30 19774 C 1826.4 2.30308 0.150697 0
M  V30 19775 C 1827.37 1.40611 0.884185 0
M  V30 19776 O 1828.56 1.6956 0.874874 0
M  V30 19777 C 1825.7 3.25074 1.15847 0
M  V30 19778 C 1824.81 4.2987 0.428442 0
M  V30 19779 C 1823.94 5.11765 1.42373 0
M  V30 19780 C 1822.98 6.0831 0.680103 0
M  V30 19781 N 1822.12 6.83073 1.62345 0
M  V30 19782 H 1826.96 2.92487 -0.570583 0
M  V30 19783 H 1824.5 1.44148 -0.293195 0
M  V30 19784 H 1826.45 3.78462 1.75563 0
M  V30 19785 H 1825.08 2.64704 1.84747 0
M  V30 19786 H 1824.14 3.7934 -0.283744 0
M  V30 19787 H 1825.45 4.98566 -0.15291 0
M  V30 19788 H 1824.6 5.69429 2.09369 0
M  V30 19789 H 1823.34 4.4303 2.03902 0
M  V30 19790 H 1822.35 5.498 -0.00363067 0
M  V30 19791 H 1823.57 6.79064 0.0702152 0
M  V30 19792 H 1821.52 6.17048 2.22684 0
M  V30 19793 H 1821.43 7.48029 1.0949 0
M  V30 19794 H 1822.7 7.45295 2.28376 0
M  V30 19795 N 1826.93 0.320385 1.54309 0
M  V30 19796 C 1828.18 -0.284021 1.9969 0
M  V30 19797 C 1828.49 -1.53496 1.21237 0
M  V30 19798 O 1829.7 -2.21517 1.5698 0
M  V30 19799 C 1828.16 -0.556621 3.5557 0
M  V30 19800 C 1827.76 0.677086 4.42854 0
M  V30 19801 C 1829.51 -1.12116 4.09427 0
M  V30 19802 C 1827.41 0.376566 5.902 0
M  V30 19803 H 1826.34 -0.109905 0.745947 0
M  V30 19804 H 1829 0.432113 1.7834 0
M  V30 19805 H 1827.38 -1.33286 3.72895 0
M  V30 19806 H 1828.55 1.45266 4.37304 0
M  V30 19807 H 1826.87 1.16161 3.99869 0
M  V30 19808 H 1829.46 -1.36057 5.171 0
M  V30 19809 H 1829.81 -2.06954 3.61215 0
M  V30 19810 H 1830.34 -0.406174 3.95721 0
M  V30 19811 H 1827.08 1.29403 6.426 0
M  V30 19812 H 1826.6 -0.36136 5.9871 0
M  V30 19813 H 1828.28 -0.014773 6.46998 0
M  V30 19814 N 1828.41 -1.57525 0.0484906 0
M  V30 19815 C 1829.66 -1.9287 -0.626817 0
M  V30 19816 C 1829.99 -0.926899 -1.70652 0
M  V30 19817 O 1829.26 0.0475129 -1.94442 0
M  V30 19818 C 1829.55 -3.38609 -1.22539 0
M  V30 19819 C 1829.4 -4.49537 -0.153923 0
M  V30 19820 C 1830.72 -3.84689 -2.13781 0
M  V30 19821 H 1827.84 -0.701367 -0.226391 0
M  V30 19822 H 1830.48 -1.89683 0.109708 0
M  V30 19823 H 1828.63 -3.41456 -1.85311 0
M  V30 19824 H 1830.3 -4.58818 0.477846 0
M  V30 19825 H 1828.54 -4.30692 0.518334 0
M  V30 19826 H 1829.22 -5.48589 -0.612708 0
M  V30 19827 H 1831.69 -3.83701 -1.60974 0
M  V30 19828 H 1830.57 -4.8732 -2.52607 0
M  V30 19829 H 1830.83 -3.21293 -3.03682 0
M  V30 19830 N 1829.89 0.224867 -1.55988 0
M  V30 19831 C 1830.83 1.27865 -1.92144 0
M  V30 19832 C 1831.8 1.46741 -0.778228 0
M  V30 19833 O 1832.99 1.60364 -1.03383 0
M  V30 19834 C 1830.13 2.62468 -2.24063 0
M  V30 19835 C 1829.24 2.51419 -3.51301 0
M  V30 19836 C 1828.38 3.78523 -3.72684 0
M  V30 19837 C 1827.42 3.62182 -4.93448 0
M  V30 19838 N 1826.55 4.81228 -5.11237 0
M  V30 19839 H 1831.39 0.96331 -2.82001 0
M  V30 19840 H 1828.93 0.464362 -1.39578 0
M  V30 19841 H 1830.89 3.40848 -2.4058 0
M  V30 19842 H 1829.52 2.92105 -1.37384 0
M  V30 19843 H 1828.57 1.64491 -3.42997 0
M  V30 19844 H 1829.88 2.35263 -4.39833 0
M  V30 19845 H 1829.04 4.65346 -3.89279 0
M  V30 19846 H 1827.78 3.976 -2.82428 0
M  V30 19847 H 1826.78 2.73743 -4.76807 0
M  V30 19848 H 1828.01 3.44579 -5.85186 0
M  V30 19849 H 1825.95 5.00625 -4.23923 0
M  V30 19850 H 1825.87 4.67787 -5.93895 0
M  V30 19851 H 1827.14 5.69487 -5.32264 0
M  V30 19852 N 1831.37 1.49742 0.491438 0
M  V30 19853 C 1832.31 1.67115 1.59189 0
M  V30 19854 C 1833.28 0.512523 1.57995 0
M  V30 19855 O 1834.47 0.740693 1.75836 0
M  V30 19856 C 1831.61 1.75258 2.97286 0
M  V30 19857 C 1830.72 3.02488 3.08424 0
M  V30 19858 C 1829.86 3.0155 4.37311 0
M  V30 19859 C 1828.89 4.2332 4.42116 0
M  V30 19860 N 1828.03 4.20238 5.62445 0
M  V30 19861 H 1832.87 2.61073 1.43683 0
M  V30 19862 H 1830.41 1.29435 0.69892 0
M  V30 19863 H 1832.37 1.77959 3.77341 0
M  V30 19864 H 1831 0.847568 3.11474 0
M  V30 19865 H 1830.05 3.09353 2.21371 0
M  V30 19866 H 1831.36 3.92479 3.07834 0
M  V30 19867 H 1830.51 3.02868 5.25695 0
M  V30 19868 H 1829.25 2.09354 4.4048 0
M  V30 19869 H 1828.26 4.22236 3.52132 0
M  V30 19870 H 1829.48 5.1672 4.40656 0
M  V30 19871 H 1827.43 3.30884 5.66438 0
M  V30 19872 H 1827.35 5.03974 5.63512 0
M  V30 19873 H 1828.61 4.25672 6.53011 0
M  V30 19874 N 1832.84 -0.743177 1.38977 0
M  V30 19875 C 1834.07 -1.53243 1.39011 0
M  V30 19876 C 1834.49 -1.88792 -0.0174858 0
M  V30 19877 O 1833.84 -1.53523 -0.986766 0
M  V30 19878 C 1833.9 -2.8251 2.25544 0
M  V30 19879 O 1833.62 -2.48474 3.60821 0
M  V30 19880 C 1835.12 -3.76588 2.33872 0
M  V30 19881 H 1832.34 -0.473832 0.475104 0
M  V30 19882 H 1834.88 -0.918958 1.82689 0
M  V30 19883 H 1833.04 -3.4021 1.853 0
M  V30 19884 H 1833.45 -3.31454 4.06495 0
M  V30 19885 H 1834.92 -4.64211 2.98684 0
M  V30 19886 H 1835.4 -4.17761 1.35544 0
M  V30 19887 H 1836.01 -3.24811 2.74551 0
M  V30 19888 N 1834.32 -1.24018 -0.972487 0
M  V30 19889 C 1835.55 -1.10232 -1.74736 0
M  V30 19890 C 1835.96 0.348409 -1.85964 0
M  V30 19891 O 1835.3 1.25245 -1.34386 0
M  V30 19892 C 1835.37 -1.66263 -3.18743 0
M  V30 19893 C 1835.03 -3.151 -3.31 0
M  V30 19894 C 1836.03 -4.12305 -3.16703 0
M  V30 19895 C 1833.71 -3.54965 -3.55394 0
M  V30 19896 C 1835.71 -5.47357 -3.26617 0
M  V30 19897 C 1833.39 -4.9016 -3.64947 0
M  V30 19898 C 1834.39 -5.86165 -3.5057 0
M  V30 19899 O 1834.08 -7.18903 -3.5977 0
M  V30 19900 H 1833.81 -0.386036 -0.554935 0
M  V30 19901 H 1836.36 -1.64505 -1.22993 0
M  V30 19902 H 1834.59 -1.06419 -3.71769 0
M  V30 19903 H 1836.28 -1.47837 -3.7802 0
M  V30 19904 H 1837.05 -3.82848 -2.97745 0
M  V30 19905 H 1832.93 -2.80747 -3.65653 0
M  V30 19906 H 1836.47 -6.22273 -3.15312 0
M  V30 19907 H 1832.37 -5.1929 -3.83416 0
M  V30 19908 H 1833.14 -7.26759 -3.76515 0
M  V30 19909 N 1835.8 1.17245 -1.05316 0
M  V30 19910 C 1837.22 1.39535 -0.774741 0
M  V30 19911 C 1837.42 1.91388 0.63031 0
M  V30 19912 O 1836.47 2.10631 1.39251 0
M  V30 19913 C 1837.79 2.38497 -1.83139 0
M  V30 19914 C 1839.33 2.52201 -1.85375 0
M  V30 19915 C 1839.81 3.54437 -2.90066 0
M  V30 19916 N 1841.3 3.61956 -2.89037 0
M  V30 19917 C 1842.03 4.40824 -3.66691 0
M  V30 19918 N 1841.53 5.23196 -4.54134 0
M  V30 19919 N 1843.32 4.35709 -3.55125 0
M  V30 19920 H 1835.47 0.819186 -1.95967 0
M  V30 19921 H 1837.74 0.422515 -0.848637 0
M  V30 19922 H 1837.44 2.07471 -2.83987 0
M  V30 19923 H 1837.32 3.38016 -1.67407 0
M  V30 19924 H 1839.7 2.82536 -0.851904 0
M  V30 19925 H 1839.79 1.52751 -2.05184 0
M  V30 19926 H 1839.43 3.2484 -3.90437 0
M  V30 19927 H 1839.36 4.53593 -2.67508 0
M  V30 19928 H 1841.85 3.03146 -2.25635 0
M  V30 19929 H 1842.16 5.80562 -5.10067 0
M  V30 19930 H 1840.51 5.22573 -4.58194 0
M  V30 19931 H 1843.7 3.70411 -2.86205 0
M  V30 19932 H 1843.87 4.9693 -4.1589 0
M  V30 19933 N 1837.28 0.834353 1.33702 0
M  V30 19934 C 1838.56 0.350003 1.92443 0
M  V30 19935 C 1838.94 -1.1641 1.76102 0
M  V30 19936 O 1838.28 -1.97646 1.14666 0
M  V30 19937 C 1838.49 0.791928 3.39896 0
M  V30 19938 C 1839.84 0.797338 4.17046 0
M  V30 19939 O 1840.87 0.735242 3.48529 0
M  V30 19940 O 1839.72 0.880963 5.39353 0
M  V30 19941 H 1836.82 0.0981048 0.82116 0
M  V30 19942 H 1839.36 0.919905 1.42604 0
M  V30 19943 H 1838.14 1.83433 3.45641 0
M  V30 19944 H 1837.76 0.198349 3.97105 0
M  V30 19945 N 1838.76 -1.46125 0.590367 0
M  V30 19946 C 1840 -2.02346 0.0788814 0
M  V30 19947 C 1840.33 -1.46093 -1.28402 0
M  V30 19948 O 1839.59 -0.618875 -1.85657 0
M  V30 19949 C 1839.89 -3.57388 -0.0287217 0
M  V30 19950 C 1839.55 -4.32716 1.26758 0
M  V30 19951 C 1838.21 -4.53014 1.62271 0
M  V30 19952 C 1840.57 -4.7591 2.12507 0
M  V30 19953 C 1837.89 -5.13759 2.83318 0
M  V30 19954 C 1840.25 -5.37992 3.32787 0
M  V30 19955 C 1838.91 -5.56516 3.68573 0
M  V30 19956 H 1838.18 -0.740438 0.0288647 0
M  V30 19957 H 1840.83 -1.75402 0.768538 0
M  V30 19958 H 1839.13 -3.83513 -0.801551 0
M  V30 19959 H 1840.83 -3.98575 -0.440356 0
M  V30 19960 H 1837.42 -4.17219 0.981133 0
M  V30 19961 H 1841.6 -4.59977 1.86373 0
M  V30 19962 H 1836.86 -5.26291 3.11172 0
M  V30 19963 H 1841.03 -5.70418 3.99495 0
M  V30 19964 H 1838.66 -6.03355 4.62458 0
M  V30 19965 N 1840.23 -0.328564 -1.54137 0
M  V30 19966 C 1841.65 0.0239073 -1.59582 0
M  V30 19967 C 1841.85 1.50043 -1.34497 0
M  V30 19968 O 1840.91 2.25711 -1.13185 0
M  V30 19969 C 1842.22 -0.398812 -2.98044 0
M  V30 19970 C 1843.77 -0.34989 -3.11038 0
M  V30 19971 C 1844.24 -0.747848 -4.51853 0
M  V30 19972 N 1845.73 -0.701447 -4.57858 0
M  V30 19973 C 1846.47 -0.981505 -5.64937 0
M  V30 19974 N 1845.96 -1.32895 -6.79934 0
M  V30 19975 N 1847.76 -0.906735 -5.54738 0
M  V30 19976 H 1839.91 -1.29052 -1.68699 0
M  V30 19977 H 1842.17 -0.52508 -0.7893 0
M  V30 19978 H 1841.88 -1.42773 -3.21417 0
M  V30 19979 H 1841.75 0.233639 -3.76476 0
M  V30 19980 H 1844.14 0.669831 -2.87397 0
M  V30 19981 H 1844.22 -1.01734 -2.34699 0
M  V30 19982 H 1843.86 -1.76551 -4.76227 0
M  V30 19983 H 1843.79 -0.0580299 -5.26568 0
M  V30 19984 H 1846.28 -0.444963 -3.75271 0
M  V30 19985 H 1846.6 -1.52789 -7.57546 0
M  V30 19986 H 1844.94 -1.36726 -6.81418 0
M  V30 19987 H 1848.13 -0.634748 -4.63776 0
M  V30 19988 H 1848.31 -1.12835 -6.38101 0
M  V30 19989 N 1841.71 1.57497 -0.0568439 0
M  V30 19990 C 1842.64 2.14892 0.913427 0
M  V30 19991 C 1843.62 1.07205 1.32065 0
M  V30 19992 O 1844.81 1.35172 1.39435 0
M  V30 19993 C 1841.94 2.69849 2.18629 0
M  V30 19994 C 1840.89 3.8257 1.91896 0
M  V30 19995 C 1840.22 4.24068 3.25685 0
M  V30 19996 C 1841.52 5.07463 1.23606 0
M  V30 19997 H 1843.21 2.96218 0.435347 0
M  V30 19998 H 1840.76 1.4249 0.20796 0
M  V30 19999 H 1842.71 3.08643 2.86911 0
M  V30 20000 H 1841.44 1.85723 2.68653 0
M  V30 20001 H 1840.09 3.44258 1.26024 0
M  V30 20002 H 1839.74 3.36884 3.73521 0
M  V30 20003 H 1839.44 5.00043 3.08594 0
M  V30 20004 H 1840.97 4.65466 3.95189 0
M  V30 20005 H 1842.38 5.43667 1.81931 0
M  V30 20006 H 1840.78 5.88619 1.16823 0
M  V30 20007 H 1841.85 4.84432 0.212918 0
M  V30 20008 N 1843.19 -0.216591 1.56105 0
M  V30 20009 C 1844.12 -1.29202 1.89313 0
M  V30 20010 C 1845.14 -1.42798 0.781832 0
M  V30 20011 O 1846.32 -1.43607 1.06016 0
M  V30 20012 C 1843.42 -2.66701 2.09102 0
M  V30 20013 C 1842.6 -2.74989 3.40147 0
M  V30 20014 C 1841.66 -3.93536 3.49308 0
M  V30 20015 O 1840.68 -3.81642 4.22301 0
M  V30 20016 N 1841.88 -5.08059 2.80814 0
M  V30 20017 H 1844.65 -1.01038 2.82155 0
M  V30 20018 H 1842.21 -0.406611 1.56711 0
M  V30 20019 H 1844.2 -3.44396 2.12541 0
M  V30 20020 H 1842.77 -2.87443 1.22862 0
M  V30 20021 H 1841.99 -1.83733 3.48763 0
M  V30 20022 H 1843.28 -2.775 4.26464 0
M  V30 20023 H 1842.68 -5.20618 2.21299 0
M  V30 20024 H 1841.24 -5.83778 2.89908 0
M  V30 20025 N 1844.67 -1.5 -0.48349 0
M  V30 20026 C 1845.92 -1.60052 -1.23401 0
M  V30 20027 C 1846.24 -0.297159 -1.92723 0
M  V30 20028 O 1845.51 0.684629 -1.83547 0
M  V30 20029 H 1844.09 -0.589753 -0.458477 0
M  V30 20030 H 1846.75 -1.86716 -0.558835 0
M  V30 20031 H 1845.85 -2.40545 -1.98858 0
M  V30 20032 N 1846.15 0.735796 -1.39369 0
M  V30 20033 C 1847.39 1.49756 -1.36752 0
M  V30 20034 C 1847.73 1.94165 0.036815 0
M  V30 20035 O 1847 1.66728 1.00159 0
M  V30 20036 C 1847.28 2.73779 -2.33916 0
M  V30 20037 C 1847.14 2.35394 -3.83288 0
M  V30 20038 C 1848.46 3.75875 -2.28924 0
M  V30 20039 H 1845.57 0.543236 -0.49806 0
M  V30 20040 H 1848.22 0.841381 -1.70355 0
M  V30 20041 H 1846.37 3.29768 -2.05391 0
M  V30 20042 H 1848.04 1.85043 -4.2256 0
M  V30 20043 H 1846.28 1.67632 -4.00102 0
M  V30 20044 H 1846.95 3.24206 -4.4676 0
M  V30 20045 H 1849.43 3.29469 -2.54144 0
M  V30 20046 H 1848.3 4.60321 -2.98991 0
M  V30 20047 H 1848.57 4.22739 -1.29399 0
M  V30 20048 N 1847.63 1.24532 0.965897 0
M  V30 20049 C 1848.56 1.06393 2.07853 0
M  V30 20050 C 1849.54 -0.0236467 1.70084 0
M  V30 20051 O 1850.72 0.143767 1.93667 0
M  V30 20052 C 1847.85 0.669877 3.40778 0
M  V30 20053 C 1846.81 1.70643 3.92511 0
M  V30 20054 C 1846.13 1.16738 5.21801 0
M  V30 20055 C 1847.43 3.10278 4.20149 0
M  V30 20056 H 1849.13 1.99459 2.23285 0
M  V30 20057 H 1846.67 0.960397 1.07296 0
M  V30 20058 H 1848.62 0.52997 4.18054 0
M  V30 20059 H 1847.35 -0.296477 3.25252 0
M  V30 20060 H 1846.01 1.83458 3.17393 0
M  V30 20061 H 1845.66 0.191586 5.02635 0
M  V30 20062 H 1845.36 1.86009 5.57382 0
M  V30 20063 H 1846.88 1.03963 6.01684 0
M  V30 20064 H 1848.29 3.00681 4.88123 0
M  V30 20065 H 1846.69 3.76918 4.66962 0
M  V30 20066 H 1847.76 3.58182 3.26854 0
M  V30 20067 N 1849.1 -1.16685 1.05936 0
M  V30 20068 C 1850.01 -2.24591 0.677931 0
M  V30 20069 C 1851.03 -1.71317 -0.304397 0
M  V30 20070 O 1852.21 -2.00806 -0.154615 0
M  V30 20071 C 1849.27 -3.46636 0.0664037 0
M  V30 20072 C 1848.33 -4.14964 1.10014 0
M  V30 20073 C 1847.56 -5.31183 0.517697 0
M  V30 20074 O 1847.79 -5.66444 -0.670637 0
M  V30 20075 O 1846.72 -5.88657 1.25563 0
M  V30 20076 H 1850.55 -2.5952 1.57743 0
M  V30 20077 H 1848.13 -1.2413 0.831395 0
M  V30 20078 H 1850.01 -4.20514 -0.273069 0
M  V30 20079 H 1848.69 -3.13489 -0.806634 0
M  V30 20080 H 1847.6 -3.43072 1.49173 0
M  V30 20081 H 1848.93 -4.52158 1.94458 0
M  V30 20082 N 1850.58 -0.841432 -1.33258 0
M  V30 20083 C 1851.83 -0.437512 -1.97307 0
M  V30 20084 C 1852.15 1.00723 -1.66973 0
M  V30 20085 O 1851.42 1.70199 -0.969998 0
M  V30 20086 H 1850 -0.158794 -0.729927 0
M  V30 20087 H 1852.66 -1.07495 -1.62575 0
M  V30 20088 H 1851.76 -0.571675 -3.0682 0
M  V30 20089 N 1852.06 1.4581 -0.598108 0
M  V30 20090 C 1853.29 2.06679 -0.0956921 0
M  V30 20091 C 1853.7 1.44435 1.2159 0
M  V30 20092 O 1853.06 0.555104 1.73853 0
M  V30 20093 C 1853.11 3.61449 0.0604873 0
M  V30 20094 O 1852.83 4.21368 -1.1992 0
M  V30 20095 C 1854.33 4.39282 0.595466 0
M  V30 20096 H 1851.55 0.667893 -0.0644954 0
M  V30 20097 H 1854.1 1.87202 -0.823151 0
M  V30 20098 H 1852.25 3.80301 0.738231 0
M  V30 20099 H 1852.67 5.1443 -1.02282 0
M  V30 20100 H 1854.14 5.48114 0.653868 0
M  V30 20101 H 1854.62 4.084 1.61575 0
M  V30 20102 H 1855.22 4.25273 -0.0479171 0
M  V30 20103 N 1853.54 0.336733 1.53961 0
M  V30 20104 C 1854.47 -0.515664 2.27735 0
M  V30 20105 C 1855.45 -1.10835 1.29033 0
M  V30 20106 O 1856.63 -1.13102 1.57866 0
M  V30 20107 C 1853.76 -1.67015 3.04505 0
M  V30 20108 C 1852.72 -1.20613 4.10654 0
M  V30 20109 C 1852.04 -2.44861 4.75339 0
M  V30 20110 C 1853.34 -0.311507 5.2137 0
M  V30 20111 H 1855.04 0.0997513 2.99234 0
M  V30 20112 H 1852.58 0.0494157 1.43915 0
M  V30 20113 H 1854.54 -2.27286 3.54851 0
M  V30 20114 H 1853.26 -2.31236 2.30646 0
M  V30 20115 H 1851.92 -0.62628 3.61211 0
M  V30 20116 H 1851.57 -3.07474 3.98081 0
M  V30 20117 H 1851.27 -2.14498 5.47051 0
M  V30 20118 H 1852.79 -3.0587 5.28466 0
M  V30 20119 H 1854.21 -0.820868 5.67393 0
M  V30 20120 H 1852.6 -0.100073 6.00017 0
M  V30 20121 H 1853.67 0.654181 4.80467 0
M  V30 20122 N 1855.02 -1.57465 0.0651956 0
M  V30 20123 C 1855.96 -2.13542 -0.922087 0
M  V30 20124 C 1856.96 -1.07067 -1.31275 0
M  V30 20125 O 1858.16 -1.25456 -1.29076 0
M  V30 20126 H 1854.54 -0.682718 -0.315277 0
M  V30 20127 H 1856.51 -2.9537 -0.424138 0
M  V30 20128 C 1855.26 -2.70663 -2.18258 0
M  V30 20129 H 1854.58 -3.52262 -1.8908 0
M  V30 20130 H 1856.02 -3.13505 -2.85466 0
M  V30 20131 C 1854.48 -1.65106 -2.93669 0
M  V30 20132 O 1855.01 -1.07214 -3.87128 0
M  V30 20133 N 1853.22 -1.36296 -2.56655 0
M  V30 20134 H 1852.76 -1.83562 -1.80728 0
M  V30 20135 H 1852.72 -0.659013 -3.07416 0
M  V30 20136 N 1856.49 0.20831 -1.56217 0
M  V30 20137 C 1857.72 0.951404 -1.84291 0
M  V30 20138 C 1858.14 1.76616 -0.647168 0
M  V30 20139 O 1857.5 1.7674 0.404081 0
M  V30 20140 C 1857.55 1.83403 -3.10477 0
M  V30 20141 O 1856.65 2.93113 -2.90101 0
M  V30 20142 H 1855.99 0.268668 -0.607218 0
M  V30 20143 H 1858.52 0.217618 -2.03439 0
M  V30 20144 H 1858.53 2.24127 -3.40927 0
M  V30 20145 H 1857.21 1.23528 -3.97132 0
M  V30 20146 H 1855.79 2.5624 -2.70916 0
M  V30 20147 N 1857.97 1.50255 0.475528 0
M  V30 20148 C 1858.92 1.68794 1.57408 0
M  V30 20149 C 1859.89 0.529252 1.57442 0
M  V30 20150 O 1861.07 0.759301 1.75041 0
M  V30 20151 C 1858.21 1.78401 2.9541 0
M  V30 20152 C 1857.33 3.05742 3.05198 0
M  V30 20153 C 1856.46 3.06172 4.34088 0
M  V30 20154 C 1855.5 4.27985 4.37602 0
M  V30 20155 N 1854.64 4.26179 5.57957 0
M  V30 20156 H 1859.48 2.62583 1.40905 0
M  V30 20157 H 1857.01 1.30169 0.685152 0
M  V30 20158 H 1858.97 1.81952 3.75432 0
M  V30 20159 H 1857.6 0.880556 3.10558 0
M  V30 20160 H 1856.65 3.11683 2.18077 0
M  V30 20161 H 1857.97 3.95722 3.03654 0
M  V30 20162 H 1857.12 3.08427 5.22454 0
M  V30 20163 H 1855.86 2.14014 4.38234 0
M  V30 20164 H 1854.86 4.25947 3.47634 0
M  V30 20165 H 1856.09 5.21364 4.35151 0
M  V30 20166 H 1854.04 3.36873 5.62897 0
M  V30 20167 H 1853.95 5.09923 5.58135 0
M  V30 20168 H 1855.22 4.32574 6.4846 0
M  V30 20169 N 1859.45 -0.728395 1.39758 0
M  V30 20170 C 1860.68 -1.5176 1.40629 0
M  V30 20171 C 1861.09 -1.888 0.00253909 0
M  V30 20172 O 1860.45 -1.54561 -0.970428 0
M  V30 20173 C 1860.5 -2.80102 2.28528 0
M  V30 20174 O 1860.22 -2.44633 3.63436 0
M  V30 20175 C 1861.72 -3.74087 2.37853 0
M  V30 20176 H 1858.94 -0.468767 0.480103 0
M  V30 20177 H 1861.49 -0.89953 1.83654 0
M  V30 20178 H 1859.64 -3.38225 1.88898 0
M  V30 20179 H 1860.06 -3.27124 4.09988 0
M  V30 20180 H 1861.53 -4.61017 3.03591 0
M  V30 20181 H 1862.01 -4.163 1.39968 0
M  V30 20182 H 1862.61 -3.2188 2.7798 0
M  V30 20183 N 1860.93 -1.25042 -0.959279 0
M  V30 20184 C 1862.16 -1.12079 -1.73557 0
M  V30 20185 C 1862.57 0.328665 -1.86323 0
M  V30 20186 O 1861.91 1.23812 -1.35706 0
M  V30 20187 C 1861.97 -1.69634 -3.16961 0
M  V30 20188 C 1861.63 -3.18593 -3.27639 0
M  V30 20189 C 1862.63 -4.15641 -3.12312 0
M  V30 20190 C 1860.32 -3.58715 -3.51609 0
M  V30 20191 C 1862.31 -5.50791 -3.20793 0
M  V30 20192 C 1860 -4.94003 -3.59728 0
M  V30 20193 C 1861 -5.89851 -3.44333 0
M  V30 20194 O 1860.68 -7.22678 -3.52124 0
M  V30 20195 H 1860.42 -0.3919 -0.550809 0
M  V30 20196 H 1862.97 -1.658 -1.21242 0
M  V30 20197 H 1861.2 -1.10356 -3.70619 0
M  V30 20198 H 1862.89 -1.51838 -3.76431 0
M  V30 20199 H 1863.65 -3.85985 -2.93668 0
M  V30 20200 H 1859.53 -2.8461 -3.62654 0
M  V30 20201 H 1863.08 -6.25582 -3.08695 0
M  V30 20202 H 1858.97 -5.23327 -3.77887 0
M  V30 20203 H 1859.74 -7.30712 -3.68785 0
M  V30 20204 N 1862.41 1.16121 -1.06553 0
M  V30 20205 C 1863.68 1.82752 -0.697202 0
M  V30 20206 C 1864.06 1.94474 0.821172 0
M  V30 20207 O 1863.41 1.48988 1.73248 0
M  V30 20208 C 1863.62 3.19592 -1.4022 0
M  V30 20209 C 1864.97 3.95333 -1.5491 0
M  V30 20210 O 1865.99 3.29119 -1.36232 0
M  V30 20211 O 1864.85 5.14028 -1.85574 0
M  V30 20212 H 1861.95 0.789214 -0.247125 0
M  V30 20213 H 1864.49 1.23302 -1.16597 0
M  V30 20214 H 1863.26 3.06111 -2.43745 0
M  V30 20215 H 1862.89 3.86722 -0.923686 0
M  V30 20216 N 1863.88 0.848487 1.3281 0
M  V30 20217 C 1865.11 0.462643 2.01661 0
M  V30 20218 C 1865.53 -0.938906 1.63799 0
M  V30 20219 O 1864.88 -1.61171 0.85617 0
M  V30 20220 C 1864.94 0.584905 3.56737 0
M  V30 20221 O 1864.66 1.93124 3.93236 0
M  V30 20222 C 1866.16 0.197265 4.42861 0
M  V30 20223 H 1863.38 0.18254 0.645694 0
M  V30 20224 H 1865.92 1.14372 1.69527 0
M  V30 20225 H 1864.08 -0.0483701 3.8737 0
M  V30 20226 H 1864.49 1.92361 4.87952 0
M  V30 20227 H 1865.96 0.333833 5.5099 0
M  V30 20228 H 1866.44 -0.861732 4.30663 0
M  V30 20229 H 1867.05 0.805363 4.17605 0
M  V30 20230 N 1865.36 -1.4549 0.605832 0
M  V30 20231 C 1866.61 -2.02551 0.100487 0
M  V30 20232 C 1866.94 -1.47346 -1.26502 0
M  V30 20233 O 1866.22 -0.647471 -1.83407 0
M  V30 20234 C 1866.5 -3.60051 0.0596664 0
M  V30 20235 C 1866.35 -4.25592 1.45572 0
M  V30 20236 C 1867.67 -4.35581 -0.629073 0
M  V30 20237 H 1864.79 -0.73602 0.0379904 0
M  V30 20238 H 1867.43 -1.73365 0.777468 0
M  V30 20239 H 1865.58 -3.85047 -0.516838 0
M  V30 20240 H 1867.25 -4.11787 2.07916 0
M  V30 20241 H 1865.5 -3.84061 2.01692 0
M  V30 20242 H 1866.17 -5.34487 1.37941 0
M  V30 20243 H 1868.64 -4.15868 -0.139076 0
M  V30 20244 H 1867.52 -5.4531 -0.626735 0
M  V30 20245 H 1867.78 -4.08323 -1.69483 0
M  V30 20246 N 1866.84 -0.344893 -1.5378 0
M  V30 20247 C 1867.79 0.527275 -2.21819 0
M  V30 20248 C 1868.77 1.06502 -1.20607 0
M  V30 20249 O 1869.97 0.998502 -1.46147 0
M  V30 20250 C 1867.1 1.67703 -2.99551 0
M  V30 20251 C 1866.18 1.15316 -4.08121 0
M  V30 20252 N 1866.57 0.35061 -5.04583 0
M  V30 20253 C 1864.87 1.42992 -4.22456 0
M  V30 20254 C 1865.57 0.0661583 -5.81662 0
M  V30 20255 N 1864.55 0.658168 -5.39601 0
M  V30 20256 H 1868.35 -0.0929348 -2.93753 0
M  V30 20257 H 1865.86 -0.151827 -1.61689 0
M  V30 20258 H 1867.86 2.31383 -3.46796 0
M  V30 20259 H 1866.52 2.30051 -2.29144 0
M  V30 20260 H 1867.53 -0.0084236 -5.17899 0
M  V30 20261 H 1864.21 2.05769 -3.6327 0
M  V30 20262 H 1865.6 -0.581316 -6.69381 0
M  V30 20263 N 1868.32 1.57428 -0.0735454 0
M  V30 20264 C 1869.73 1.57069 0.283088 0
M  V30 20265 C 1869.93 1.08308 1.69917 0
M  V30 20266 O 1868.99 0.749756 2.41112 0
M  V30 20267 C 1870.3 3.00562 0.0911498 0
M  V30 20268 C 1871.85 3.12588 0.160552 0
M  V30 20269 C 1872.33 4.58 -0.00312732 0
M  V30 20270 N 1873.82 4.6317 0.0524201 0
M  V30 20271 C 1874.55 5.73378 -0.0497867 0
M  V30 20272 N 1874.05 6.92495 -0.205612 0
M  V30 20273 N 1875.84 5.621 0.00740387 0
M  V30 20274 H 1867.99 1.87439 -0.999015 0
M  V30 20275 H 1870.26 0.864179 -0.389742 0
M  V30 20276 H 1869.96 3.40355 -0.886068 0
M  V30 20277 H 1869.84 3.67666 0.842723 0
M  V30 20278 H 1872.22 2.7268 1.12826 0
M  V30 20279 H 1872.3 2.48119 -0.622153 0
M  V30 20280 H 1871.95 4.98598 -0.967606 0
M  V30 20281 H 1871.88 5.20503 0.799004 0
M  V30 20282 H 1874.37 3.77512 0.171195 0
M  V30 20283 H 1874.68 7.72308 -0.275698 0
M  V30 20284 H 1873.03 6.94582 -0.240997 0
M  V30 20285 H 1876.22 4.67925 0.127856 0
M  V30 20286 H 1876.39 6.47956 -0.075703 0
M  V30 20287 N 1869.8 -0.200022 1.56326 0
M  V30 20288 C 1871.21 -0.550653 1.498 0
M  V30 20289 C 1871.41 -1.86097 0.772664 0
M  V30 20290 O 1870.47 -2.50449 0.321155 0
M  V30 20291 C 1871.78 -0.60995 2.94449 0
M  V30 20292 C 1873.33 -0.699119 3.05092 0
M  V30 20293 C 1873.8 -0.78957 4.51143 0
M  V30 20294 N 1875.3 -0.853228 4.55274 0
M  V30 20295 C 1876.03 -0.943298 5.65588 0
M  V30 20296 N 1875.53 -0.995976 6.85603 0
M  V30 20297 N 1877.32 -0.980106 5.53489 0
M  V30 20298 H 1869.47 0.659543 2.019 0
M  V30 20299 H 1871.73 0.234299 0.91859 0
M  V30 20300 H 1871.44 0.283651 3.50554 0
M  V30 20301 H 1871.31 -1.46632 3.47533 0
M  V30 20302 H 1873.7 -1.58315 2.49039 0
M  V30 20303 H 1873.78 0.183351 2.55142 0
M  V30 20304 H 1873.43 0.0900924 5.0782 0
M  V30 20305 H 1873.36 -1.68777 4.9882 0
M  V30 20306 H 1875.85 -0.821964 3.68853 0
M  V30 20307 H 1876.16 -1.06508 7.65425 0
M  V30 20308 H 1874.5 -0.964738 6.88272 0
M  V30 20309 H 1877.7 -0.935755 4.58652 0
M  V30 20310 H 1877.87 -1.04684 6.39488 0
M  V30 20311 N 1871.27 -1.50505 -0.467553 0
M  V30 20312 C 1872.2 -1.72558 -1.57309 0
M  V30 20313 C 1873.19 -0.574619 -1.601 0
M  V30 20314 O 1874.37 -0.814135 -1.76311 0
M  V30 20315 C 1871.5 -1.82296 -2.9561 0
M  V30 20316 C 1870.45 -2.97513 -3.07685 0
M  V30 20317 C 1869.78 -2.92398 -4.47669 0
M  V30 20318 C 1871.08 -4.37968 -2.84573 0
M  V30 20319 H 1872.77 -2.65122 -1.39107 0
M  V30 20320 H 1870.32 -1.2758 -0.667776 0
M  V30 20321 H 1872.27 -1.96308 -3.72882 0
M  V30 20322 H 1871 -0.863562 -3.14976 0
M  V30 20323 H 1869.66 -2.83157 -2.32847 0
M  V30 20324 H 1869.3 -1.94297 -4.63959 0
M  V30 20325 H 1869 -3.69749 -4.56683 0
M  V30 20326 H 1870.53 -3.08464 -5.26956 0
M  V30 20327 H 1871.94 -4.52831 -3.51593 0
M  V30 20328 H 1870.34 -5.16796 -3.05028 0
M  V30 20329 H 1871.41 -4.50093 -1.80402 0
M  V30 20330 N 1872.75 0.720973 -1.40142 0
M  V30 20331 C 1873.98 1.51012 -1.41431 0
M  V30 20332 C 1874.4 1.88796 -0.0125516 0
M  V30 20333 O 1873.75 1.55073 0.962217 0
M  V30 20334 C 1873.8 2.78886 -2.3001 0
M  V30 20335 O 1873.52 2.42703 -3.64729 0
M  V30 20336 C 1875.03 3.7282 -2.39834 0
M  V30 20337 H 1872.25 0.466214 -0.482582 0
M  V30 20338 H 1874.79 0.889777 -1.84128 0
M  V30 20339 H 1872.94 3.37219 -1.90689 0
M  V30 20340 H 1873.36 3.24945 -4.11717 0
M  V30 20341 H 1874.83 4.594 -3.06032 0
M  V30 20342 H 1875.31 4.15552 -1.42173 0
M  V30 20343 H 1875.92 3.20402 -2.79684 0
M  V30 20344 N 1874.23 1.25549 0.952634 0
M  V30 20345 C 1875.48 1.1058 1.7 0
M  V30 20346 C 1875.81 -0.35206 1.90982 0
M  V30 20347 O 1875.08 -1.25938 1.48222 0
M  V30 20348 C 1875.37 1.86283 3.08173 0
M  V30 20349 C 1875.22 3.39909 2.94588 0
M  V30 20350 C 1876.54 1.64755 4.08098 0
M  V30 20351 H 1873.66 0.403095 0.616996 0
M  V30 20352 H 1876.3 1.54406 1.1072 0
M  V30 20353 H 1874.45 1.49033 3.58778 0
M  V30 20354 H 1876.12 3.86845 2.51294 0
M  V30 20355 H 1874.37 3.67518 2.30462 0
M  V30 20356 H 1875.04 3.88094 3.92539 0
M  V30 20357 H 1877.51 1.97186 3.66411 0
M  V30 20358 H 1876.39 2.20157 5.02814 0
M  V30 20359 H 1876.65 0.589348 4.38154 0
M  V30 20360 N 1875.71 -1.15554 1.07168 0
M  V30 20361 C 1876.62 -2.2386 0.701714 0
M  V30 20362 C 1877.63 -1.7163 -0.28621 0
M  V30 20363 O 1878.81 -2.00958 -0.133308 0
M  V30 20364 C 1875.88 -3.46546 0.103165 0
M  V30 20365 C 1874.94 -4.13774 1.14409 0
M  V30 20366 C 1874.17 -5.30604 0.574007 0
M  V30 20367 O 1874.39 -5.67123 -0.610521 0
M  V30 20368 O 1873.33 -5.87293 1.31799 0
M  V30 20369 H 1877.15 -2.57833 1.60487 0
M  V30 20370 H 1874.74 -1.23241 0.844514 0
M  V30 20371 H 1876.62 -4.2078 -0.228452 0
M  V30 20372 H 1875.29 -3.14327 -0.773339 0
M  V30 20373 H 1874.2 -3.4147 1.52803 0
M  V30 20374 H 1875.53 -4.5007 1.99243 0
M  V30 20375 N 1877.19 -0.855519 -1.32358 0
M  V30 20376 C 1878.1 -0.303696 -2.32626 0
M  V30 20377 C 1879.11 0.578927 -1.64087 0
M  V30 20378 O 1880.29 0.479091 -1.95619 0
M  V30 20379 C 1877.35 0.498152 -3.43103 0
M  V30 20380 C 1876.42 -0.410714 -4.27331 0
M  V30 20381 C 1875.65 0.35296 -5.32532 0
M  V30 20382 O 1875.87 1.58282 -5.47999 0
M  V30 20383 O 1874.81 -0.281689 -6.0124 0
M  V30 20384 H 1878.63 -1.13443 -2.81717 0
M  V30 20385 H 1876.22 -0.618479 -1.35997 0
M  V30 20386 H 1878.1 0.95324 -4.10477 0
M  V30 20387 H 1876.77 1.30567 -2.96199 0
M  V30 20388 H 1875.68 -0.913997 -3.62763 0
M  V30 20389 H 1877.01 -1.18344 -4.77761 0
M  V30 20390 N 1878.67 1.45167 -0.61354 0
M  V30 20391 C 1879.63 2.29016 0.0919454 0
M  V30 20392 C 1880.63 1.40091 0.789373 0
M  V30 20393 O 1881.82 1.6215 0.636631 0
M  V30 20394 C 1878.95 3.21257 1.14048 0
M  V30 20395 H 1880.14 2.92875 -0.645317 0
M  V30 20396 H 1877.7 1.51788 -0.372855 0
M  V30 20397 H 1878.43 2.6221 1.90831 0
M  V30 20398 H 1878.22 3.86766 0.644523 0
M  V30 20399 H 1879.71 3.84288 1.63439 0
M  V30 20400 N 1880.14 0.353044 1.53595 0
M  V30 20401 C 1881.37 -0.241665 2.05484 0
M  V30 20402 C 1881.79 -1.43458 1.2274 0
M  V30 20403 O 1881.14 -1.80566 0.26501 0
M  V30 20404 C 1881.19 -0.647442 3.55655 0
M  V30 20405 O 1880.92 0.498047 4.3526 0
M  V30 20406 C 1882.42 -1.30187 4.23753 0
M  V30 20407 H 1879.64 -0.0449704 0.669491 0
M  V30 20408 H 1882.18 0.507783 1.98095 0
M  V30 20409 H 1880.34 -1.34682 3.63235 0
M  V30 20410 H 1880.75 0.172685 5.24216 0
M  V30 20411 H 1882.22 -1.53646 5.30186 0
M  V30 20412 H 1882.7 -2.25835 3.7669 0
M  V30 20413 H 1883.31 -0.644265 4.20392 0
M  V30 20414 N 1881.62 -1.57387 0.0818932 0
M  V30 20415 C 1882.58 -2.12162 -0.86718 0
M  V30 20416 C 1883.58 -1.04788 -1.21967 0
M  V30 20417 O 1884.77 -1.30733 -1.15128 0
M  V30 20418 C 1881.91 -2.63132 -2.16736 0
M  V30 20419 H 1883.1 -2.9733 -0.391788 0
M  V30 20420 H 1880.65 -1.55406 -0.166944 0
M  V30 20421 H 1881.39 -1.81446 -2.6879 0
M  V30 20422 H 1881.17 -3.41625 -1.92445 0
M  V30 20423 H 1882.66 -3.05549 -2.84657 0
M  V30 20424 N 1883.1 0.191729 -1.56429 0
M  V30 20425 C 1884.32 0.931804 -1.85289 0
M  V30 20426 C 1884.75 1.7592 -0.665864 0
M  V30 20427 O 1884.11 1.77158 0.385313 0
M  V30 20428 C 1884.16 1.801 -3.12404 0
M  V30 20429 O 1883.26 2.9002 -2.93193 0
M  V30 20430 H 1882.6 0.262213 -0.610033 0
M  V30 20431 H 1885.13 0.196028 -2.03659 0
M  V30 20432 H 1885.14 2.20499 -3.43285 0
M  V30 20433 H 1883.82 1.19309 -3.9842 0
M  V30 20434 H 1882.39 2.53352 -2.73619 0
M  V30 20435 N 1884.58 1.50751 0.459565 0
M  V30 20436 C 1885.82 1.62556 1.21258 0
M  V30 20437 C 1886.16 0.330265 1.91371 0
M  V30 20438 O 1885.43 -0.668955 1.82634 0
M  V30 20439 C 1885.71 2.8138 2.24716 0
M  V30 20440 C 1885.57 4.20823 1.58832 0
M  V30 20441 C 1886.89 2.95744 3.2592 0
M  V30 20442 H 1884.01 0.591628 0.439483 0
M  V30 20443 H 1886.65 1.83172 0.504777 0
M  V30 20444 H 1884.8 2.63933 2.85082 0
M  V30 20445 H 1886.47 4.49888 1.01975 0
M  V30 20446 H 1884.71 4.24548 0.891148 0
M  V30 20447 H 1885.38 4.99915 2.3407 0
M  V30 20448 H 1887.86 3.11754 2.75588 0
M  V30 20449 H 1886.74 3.80488 3.95626 0
M  V30 20450 H 1887 2.06852 3.90723 0
M  V30 20451 N 1886.06 -0.713531 1.40522 0
M  V30 20452 C 1887.28 -1.50766 1.42423 0
M  V30 20453 C 1887.71 -1.88082 0.0262417 0
M  V30 20454 O 1887.06 -1.5341 -0.966185 0
M  V30 20455 C 1887.11 -2.75813 2.32291 0
M  V30 20456 O 1886.22 -3.726 1.76758 0
M  V30 20457 H 1885.56 -0.454473 0.484098 0
M  V30 20458 H 1888.09 -0.878583 1.84776 0
M  V30 20459 H 1888.1 -3.2432 2.47549 0
M  V30 20460 H 1886.77 -2.47988 3.33878 0
M  V30 20461 H 1885.35 -3.31455 1.70857 0
M  V30 20462 N 1887.53 -1.26053 -0.945962 0
M  V30 20463 C 1888.44 -1.08959 -2.07762 0
M  V30 20464 C 1889.46 -0.0243726 -1.73983 0
M  V30 20465 O 1890.64 -0.227113 -2.00115 0
M  V30 20466 C 1887.7 -0.719365 -3.39155 0
M  V30 20467 C 1886.76 -1.86347 -3.86747 0
M  V30 20468 C 1885.99 -1.51082 -5.11869 0
M  V30 20469 O 1886.22 -0.410377 -5.68922 0
M  V30 20470 O 1885.15 -2.34395 -5.54385 0
M  V30 20471 H 1888.98 -2.03884 -2.25089 0
M  V30 20472 H 1886.56 -1.05071 -1.0621 0
M  V30 20473 H 1888.44 -0.525412 -4.18112 0
M  V30 20474 H 1887.12 0.20054 -3.23078 0
M  V30 20475 H 1886.03 -2.11235 -3.08756 0
M  V30 20476 H 1887.36 -2.76293 -4.07336 0
M  V30 20477 N 1889.01 1.14984 -1.07779 0
M  V30 20478 C 1890.26 1.85506 -0.802 0
M  V30 20479 C 1890.58 1.82981 0.674026 0
M  V30 20480 O 1889.85 1.27376 1.48836 0
M  V30 20481 H 1888.43 0.686845 -0.293689 0
M  V30 20482 H 1891.09 1.39368 -1.36244 0
M  V30 20483 H 1890.19 2.90518 -1.14042 0
M  V30 20484 N 1890.49 0.862526 1.31902 0
M  V30 20485 C 1891.74 0.468847 1.96586 0
M  V30 20486 C 1892.06 -0.980535 1.68554 0
M  V30 20487 O 1891.33 -1.68635 0.996952 0
M  V30 20488 H 1889.91 0.170387 0.727308 0
M  V30 20489 H 1892.57 1.10068 1.60845 0
M  V30 20490 H 1891.67 0.620415 3.05871 0
M  V30 20491 N 1891.97 -1.4484 0.62123 0
M  V30 20492 C 1893.22 -2.01734 0.121544 0
M  V30 20493 C 1893.54 -1.49041 -1.25745 0
M  V30 20494 O 1892.81 -0.690056 -1.83344 0
M  V30 20495 H 1891.39 -0.745822 0.0419419 0
M  V30 20496 H 1894.05 -1.77467 0.805702 0
M  V30 20497 H 1893.15 -3.11993 0.0816882 0
M  V30 20498 N 1893.45 -0.361184 -1.53405 0
M  V30 20499 C 1894.38 0.479368 -2.28526 0
M  V30 20500 C 1895.36 1.08768 -1.3078 0
M  V30 20501 O 1896.54 1.10576 -1.59645 0
M  V30 20502 C 1893.67 1.6215 -3.07123 0
M  V30 20503 C 1892.63 1.14065 -4.12521 0
M  V30 20504 C 1891.95 2.37267 -4.79175 0
M  V30 20505 C 1893.25 0.228522 -5.218 0
M  V30 20506 H 1894.95 -0.147344 -2.99037 0
M  V30 20507 H 1892.49 -0.0723051 -1.43818 0
M  V30 20508 H 1894.45 2.21612 -3.58422 0
M  V30 20509 H 1893.17 2.27538 -2.34295 0
M  V30 20510 H 1891.83 0.568735 -3.62162 0
M  V30 20511 H 1891.48 3.01102 -4.02923 0
M  V30 20512 H 1891.18 2.05768 -5.50394 0
M  V30 20513 H 1892.7 2.97424 -5.33265 0
M  V30 20514 H 1894.11 0.730497 -5.68627 0
M  V30 20515 H 1892.51 0.00460259 -6.001 0
M  V30 20516 H 1893.58 -0.730537 -4.79365 0
M  V30 20517 N 1894.92 1.57341 -0.0902386 0
M  V30 20518 C 1895.86 2.10775 0.900374 0
M  V30 20519 C 1896.87 1.0439 1.24926 0
M  V30 20520 O 1898.06 1.31851 1.20322 0
M  V30 20521 C 1895.16 2.56852 2.21089 0
M  V30 20522 C 1894.33 3.87016 2.03808 0
M  V30 20523 C 1893.39 4.18991 3.18328 0
M  V30 20524 O 1892.42 4.88292 2.92505 0
M  V30 20525 N 1893.62 3.74006 4.43959 0
M  V30 20526 H 1896.38 2.96392 0.444045 0
M  V30 20527 H 1893.94 1.61621 0.0949979 0
M  V30 20528 H 1895.94 2.75292 2.96642 0
M  V30 20529 H 1894.51 1.76271 2.58161 0
M  V30 20530 H 1893.73 3.77772 1.12613 0
M  V30 20531 H 1895.01 4.72181 1.89532 0
M  V30 20532 H 1894.41 3.18056 4.67821 0
M  V30 20533 H 1892.97 3.97611 5.16477 0
M  V30 20534 N 1896.4 -0.183431 1.56529 0
M  V30 20535 C 1897.65 -0.900214 1.80944 0
M  V30 20536 C 1897.97 -1.83302 0.665246 0
M  V30 20537 O 1897.24 -1.9334 -0.315697 0
M  V30 20538 H 1895.82 -0.335409 0.667465 0
M  V30 20539 H 1898.48 -0.186146 1.94009 0
M  V30 20540 H 1897.58 -1.48437 2.74541 0
M  V30 20541 N 1897.88 -1.50992 -0.451564 0
M  V30 20542 C 1899.13 -1.62192 -1.19903 0
M  V30 20543 C 1899.44 -0.337085 -1.92674 0
M  V30 20544 O 1900.65 -0.328248 -2.69508 0
M  V30 20545 C 1899.1 -2.8638 -2.17978 0
M  V30 20546 C 1898.71 -4.21814 -1.50921 0
M  V30 20547 C 1900.46 -3.06932 -2.93246 0
M  V30 20548 C 1898.36 -5.37168 -2.47396 0
M  V30 20549 H 1897.29 -0.60406 -0.451251 0
M  V30 20550 H 1899.94 -1.77445 -0.467482 0
M  V30 20551 H 1898.33 -2.64728 -2.94508 0
M  V30 20552 H 1899.5 -4.53794 -0.800466 0
M  V30 20553 H 1897.82 -4.07025 -0.878604 0
M  V30 20554 H 1900.41 -3.90286 -3.65487 0
M  V30 20555 H 1900.76 -2.19437 -3.5377 0
M  V30 20556 H 1901.29 -3.28857 -2.23826 0
M  V30 20557 H 1898.03 -6.26878 -1.91582 0
M  V30 20558 H 1897.55 -5.09581 -3.16365 0
M  V30 20559 H 1899.23 -5.68539 -3.08824 0
M  V30 20560 N 1899.36 0.706069 -1.40899 0
M  V30 20561 C 1900.59 1.49504 -1.43025 0
M  V30 20562 C 1901 1.88772 -0.0325752 0
M  V30 20563 O 1900.36 1.56085 0.945716 0
M  V30 20564 C 1900.41 2.76431 -2.32955 0
M  V30 20565 O 1900.13 2.38821 -3.67282 0
M  V30 20566 C 1901.63 3.70255 -2.43774 0
M  V30 20567 H 1898.85 0.461069 -0.4875 0
M  V30 20568 H 1901.4 0.870198 -1.85062 0
M  V30 20569 H 1899.55 3.35177 -1.94255 0
M  V30 20570 H 1899.96 3.2056 -4.1514 0
M  V30 20571 H 1901.44 4.56129 -3.10887 0
M  V30 20572 H 1901.92 4.14021 -1.46573 0
M  V30 20573 H 1902.52 3.17417 -2.83066 0
M  V30 20574 N 1900.84 1.26553 0.939264 0
M  V30 20575 C 1901.77 1.02597 2.03836 0
M  V30 20576 C 1902.75 -0.0498925 1.62523 0
M  V30 20577 O 1903.93 0.0929136 1.88271 0
M  V30 20578 C 1901.06 0.554021 3.34138 0
M  V30 20579 C 1900.1 1.62273 3.94423 0
M  V30 20580 S 1900.94 3.21219 4.28461 0
M  V30 20581 C 1902.09 2.75796 5.6186 0
M  V30 20582 H 1902.33 1.95657 2.23843 0
M  V30 20583 H 1899.86 1.10254 1.0809 0
M  V30 20584 H 1901.82 0.288389 4.09486 0
M  V30 20585 H 1900.48 -0.356328 3.12072 0
M  V30 20586 H 1899.67 1.24355 4.88418 0
M  V30 20587 H 1899.27 1.83984 3.25616 0
M  V30 20588 H 1901.57 2.20379 6.40655 0
M  V30 20589 H 1902.51 3.6849 6.04666 0
M  V30 20590 H 1902.92 2.15301 5.21829 0
M  V30 20591 N 1902.31 -1.14411 1.08387 0
M  V30 20592 C 1903.26 -2.19489 0.713668 0
M  V30 20593 C 1904.23 -1.63368 -0.300036 0
M  V30 20594 O 1905.42 -1.8991 -0.184088 0
M  V30 20595 C 1902.56 -3.44859 0.128925 0
M  V30 20596 C 1901.67 -4.15132 1.19538 0
M  V30 20597 C 1900.8 -5.28084 0.574521 0
M  V30 20598 C 1899.84 -5.9019 1.62303 0
M  V30 20599 N 1898.98 -6.94593 1.02398 0
M  V30 20600 H 1903.82 -2.50505 1.61404 0
M  V30 20601 H 1901.36 -1.23014 0.806595 0
M  V30 20602 H 1903.32 -4.16578 -0.227814 0
M  V30 20603 H 1901.95 -3.14327 -0.734757 0
M  V30 20604 H 1901 -3.41804 1.66955 0
M  V30 20605 H 1902.31 -4.57387 1.98994 0
M  V30 20606 H 1901.46 -6.06473 0.166017 0
M  V30 20607 H 1900.2 -4.8705 -0.251701 0
M  V30 20608 H 1899.21 -5.10505 2.0412 0
M  V30 20609 H 1900.43 -6.33299 2.45172 0
M  V30 20610 H 1898.38 -6.55635 0.218849 0
M  V30 20611 H 1898.3 -7.35332 1.75564 0
M  V30 20612 H 1899.56 -7.76857 0.641327 0
M  V30 20613 N 1903.79 -0.869509 -1.31443 0
M  V30 20614 C 1905.07 -0.400903 -1.91447 0
M  V30 20615 C 1905.45 1.117 -1.79127 0
M  V30 20616 O 1904.8 1.94536 -1.19866 0
M  V30 20617 C 1905.01 -0.881767 -3.37677 0
M  V30 20618 C 1906.36 -0.90763 -4.14786 0
M  V30 20619 O 1907.38 -0.82739 -3.46457 0
M  V30 20620 O 1906.24 -1.02365 -5.36827 0
M  V30 20621 H 1903.33 -0.119842 -0.818271 0
M  V30 20622 H 1905.88 -0.957391 -1.40115 0
M  V30 20623 H 1904.65 -1.92533 -3.40657 0
M  V30 20624 H 1904.27 -0.303565 -3.96439 0
M  V30 20625 N 1905.27 1.44508 -0.628902 0
M  V30 20626 C 1906.5 2.06942 -0.137778 0
M  V30 20627 C 1906.92 1.46672 1.17766 0
M  V30 20628 O 1906.28 0.567342 1.72194 0
M  V30 20629 C 1906.33 3.60584 -0.0341843 0
M  V30 20630 O 1905.43 3.99831 1.01038 0
M  V30 20631 H 1904.77 0.658696 -0.083759 0
M  V30 20632 H 1907.3 1.85418 -0.864951 0
M  V30 20633 H 1907.31 4.07697 0.157123 0
M  V30 20634 H 1905.99 4.03833 -0.994583 0
M  V30 20635 H 1904.56 3.64353 0.793824 0
M  V30 20636 N 1906.75 0.369315 1.53212 0
M  V30 20637 C 1908.03 -0.275781 1.93646 0
M  V30 20638 C 1908.41 -1.66075 1.30316 0
M  V30 20639 O 1907.75 -2.23746 0.463658 0
M  V30 20640 C 1907.96 -0.322239 3.47509 0
M  V30 20641 C 1909.31 -0.560798 4.2088 0
M  V30 20642 O 1910.34 -0.403291 3.5391 0
M  V30 20643 O 1909.2 -0.86778 5.39566 0
M  V30 20644 H 1906.29 -0.166296 0.810108 0
M  V30 20645 H 1908.84 0.42237 1.6436 0
M  V30 20646 H 1907.61 0.648648 3.85886 0
M  V30 20647 H 1907.23 -1.06613 3.8304 0
M  V30 20648 N 1908.23 -1.57291 0.0985816 0
M  V30 20649 C 1909.14 -2.17742 -0.873245 0
M  V30 20650 C 1910.15 -1.14784 -1.3077 0
M  V30 20651 O 1911.33 -1.47169 -1.37489 0
M  V30 20652 C 1908.39 -2.74864 -2.11308 0
M  V30 20653 C 1907.46 -3.92789 -1.73249 0
M  V30 20654 C 1906.69 -4.47177 -2.91322 0
M  V30 20655 O 1906.91 -4.00497 -4.06151 0
M  V30 20656 O 1905.85 -5.38151 -2.69587 0
M  V30 20657 H 1909.67 -3.012 -0.388902 0
M  V30 20658 H 1907.26 -1.48868 -0.125955 0
M  V30 20659 H 1909.14 -3.11359 -2.8396 0
M  V30 20660 H 1907.81 -1.9445 -2.58787 0
M  V30 20661 H 1906.72 -3.61099 -0.977663 0
M  V30 20662 H 1908.05 -4.74577 -1.3053 0
M  V30 20663 N 1909.71 0.175127 -1.56624 0
M  V30 20664 C 1910.62 1.23691 -1.99343 0
M  V30 20665 C 1911.63 1.48662 -0.904197 0
M  V30 20666 O 1912.81 1.60885 -1.21153 0
M  V30 20667 C 1909.87 2.55689 -2.34145 0
M  V30 20668 C 1908.93 2.38614 -3.56878 0
M  V30 20669 C 1908.17 3.64318 -3.9001 0
M  V30 20670 O 1908.39 4.69335 -3.24162 0
M  V30 20671 O 1907.32 3.58655 -4.83373 0
M  V30 20672 H 1911.15 0.904314 -2.89924 0
M  V30 20673 H 1908.73 0.381697 -1.44442 0
M  V30 20674 H 1910.62 3.33562 -2.57516 0
M  V30 20675 H 1909.29 2.88535 -1.46728 0
M  V30 20676 H 1908.2 1.58786 -3.3873 0
M  V30 20677 H 1909.53 2.10694 -4.44825 0
M  V30 20678 N 1911.18 1.5123 0.44355 0
M  V30 20679 C 1912.09 1.74928 1.56324 0
M  V30 20680 C 1913.11 0.633267 1.62067 0
M  V30 20681 O 1914.29 0.914808 1.79425 0
M  V30 20682 C 1911.35 1.86361 2.92354 0
M  V30 20683 C 1910.41 3.10196 2.96778 0
M  V30 20684 C 1909.64 3.21073 4.26319 0
M  V30 20685 O 1909.87 2.38043 5.18355 0
M  V30 20686 O 1908.8 4.14008 4.369 0
M  V30 20687 H 1912.63 2.69898 1.39243 0
M  V30 20688 H 1910.21 1.35656 0.62592 0
M  V30 20689 H 1912.09 1.95901 3.73096 0
M  V30 20690 H 1910.77 0.945775 3.09575 0
M  V30 20691 H 1909.68 3.06138 2.15013 0
M  V30 20692 H 1911.01 4.01648 2.84499 0
M  V30 20693 N 1912.66 -0.698586 1.41271 0
M  V30 20694 C 1913.57 -1.8424 1.45234 0
M  V30 20695 C 1914.59 -1.70581 0.343225 0
M  V30 20696 O 1915.76 -1.9255 0.590477 0
M  V30 20697 C 1912.83 -3.20195 1.32951 0
M  V30 20698 C 1911.89 -3.45984 2.54152 0
M  V30 20699 C 1911.12 -4.75453 2.42446 0
M  V30 20700 O 1911.35 -5.5173 1.44741 0
M  V30 20701 O 1910.28 -5.01958 3.32147 0
M  V30 20702 H 1914.11 -1.83853 2.41727 0
M  V30 20703 H 1911.69 -0.851252 1.22776 0
M  V30 20704 H 1913.57 -4.0137 1.28374 0
M  V30 20705 H 1912.25 -3.21272 0.395728 0
M  V30 20706 H 1911.15 -2.64751 2.64306 0
M  V30 20707 H 1912.49 -3.49718 3.46349 0
M  V30 20708 N 1914.14 -1.27049 -0.93254 0
M  V30 20709 C 1915.39 -1.12879 -1.67639 0
M  V30 20710 C 1915.71 0.326803 -1.92242 0
M  V30 20711 O 1914.98 1.22934 -1.52525 0
M  V30 20712 H 1913.56 -0.414741 -0.621288 0
M  V30 20713 H 1916.22 -1.59505 -1.12 0
M  V30 20714 H 1915.32 -1.65417 -2.64658 0
M  V30 20715 O 1915.66 1.06659 -1.21269 0
M  V30 20716 H 1916.35 1.67573 -0.971538 0
M  V30 END ATOM
M  V30 BEGIN BOND
M  V30 END BOND
M  V30 END CTAB
M  END
$$$$
