drugbank_target|Q86UE8 Serine/threonine-protein kinase tousled-like 2 (DB12010)
 OpenBabel12092121143D

  0  0  0     0  0            999 V3000
M  V30 BEGIN CTAB
M  V30 COUNTS 12280 12394 0 0 0
M  V30 BEGIN ATOM
M  V30 1 H -0.908 1.98254 -0.117106 0
M  V30 2 N 0 1.576 0 0
M  V30 3 C 0.933 2.03868 1.02534 0
M  V30 4 C 1.911 0.928543 1.3348 0
M  V30 5 O 3.095 1.19667 1.45644 0
M  V30 6 C 0.222 2.43627 2.35294 0
M  V30 7 C -0.732 3.65373 2.2001 0
M  V30 8 S 0.101 5.13292 1.52614 0
M  V30 9 C 1.257 5.56322 2.86805 0
M  V30 10 H 1.49 2.90518 0.631377 0
M  V30 11 H -0.977 1.52953 0.210867 0
M  V30 12 H 0.981 2.67203 3.11629 0
M  V30 13 H -0.358 1.57376 2.7183 0
M  V30 14 H -1.165 3.90944 3.18086 0
M  V30 15 H -1.563 3.418 1.51819 0
M  V30 16 H 0.729 5.58782 3.83104 0
M  V30 17 H 1.672 6.56266 2.65933 0
M  V30 18 H 2.08 4.83886 2.90714 0
M  V30 19 N 1.4781 -0.272755 1.55222 0
M  V30 20 C 2.4111 -1.3627 1.83046 0
M  V30 21 C 3.3891 -1.47536 0.683521 0
M  V30 22 O 4.5731 -1.64157 0.926545 0
M  V30 23 C 1.7001 -2.73908 1.99229 0
M  V30 24 C 0.7461 -2.79925 3.21783 0
M  V30 25 S 1.5791 -2.39146 4.79134 0
M  V30 26 C 2.7351 -3.78758 4.9829 0
M  V30 27 H 2.9681 -1.12464 2.75207 0
M  V30 28 H 0.5011 -0.472398 1.46996 0
M  V30 29 H 2.4591 -3.53171 2.09238 0
M  V30 30 H 1.1201 -2.94965 1.07956 0
M  V30 31 H 0.3131 -3.80946 3.29994 0
M  V30 32 H -0.0849 -2.08683 3.10367 0
M  V30 33 H 2.2071 -4.7403 4.84047 0
M  V30 34 H 3.1501 -3.75499 6.00338 0
M  V30 35 H 3.5581 -3.70072 4.26271 0
M  V30 36 N 2.9562 -1.48159 -0.537278 0
M  V30 37 C 3.8662 -1.64807 -1.6696 0
M  V30 38 C 4.8822 -0.530651 -1.65711 0
M  V30 39 O 6.0582 -0.800784 -1.84796 0
M  V30 40 C 3.1232 -1.67708 -3.03438 0
M  V30 41 C 2.1842 -2.91025 -3.156 0
M  V30 42 C 1.4172 -2.93778 -4.45567 0
M  V30 43 O 1.6402 -2.05153 -5.3223 0
M  V30 44 O 0.5742 -3.85868 -4.61941 0
M  V30 45 H 4.4002 -2.6066 -1.55853 0
M  V30 46 H 1.9852 -1.31475 -0.709549 0
M  V30 47 H 3.8672 -1.7218 -3.84619 0
M  V30 48 H 2.5422 -0.750278 -3.14885 0
M  V30 49 H 1.4492 -2.92089 -2.33741 0
M  V30 50 H 2.7822 -3.83065 -3.09066 0
M  V30 51 N 4.4343 0.785586 -1.36625 0
M  V30 52 C 5.3443 1.92964 -1.33425 0
M  V30 53 C 6.3603 1.72394 -0.235851 0
M  V30 54 O 7.5363 1.95866 -0.468878 0
M  V30 55 C 4.6013 3.27884 -1.12662 0
M  V30 56 C 3.6623 3.61204 -2.32013 0
M  V30 57 C 2.8953 4.89687 -2.12231 0
M  V30 58 O 3.1183 5.59704 -1.09945 0
M  V30 59 O 2.0523 5.21752 -3.00098 0
M  V30 60 H 5.8783 1.98613 -2.29753 0
M  V30 61 H 3.4633 0.926384 -1.17211 0
M  V30 62 H 5.3453 4.08614 -1.03016 0
M  V30 63 H 4.0203 3.23118 -0.193991 0
M  V30 64 H 2.9273 2.80765 -2.47228 0
M  V30 65 H 4.2603 3.70698 -3.23796 0
M  V30 66 N 5.9124 1.20967 1.01018 0
M  V30 67 C 6.8424 0.988272 2.11555 0
M  V30 68 C 7.8234 -0.0849778 1.69888 0
M  V30 69 O 9.0084 0.0738202 1.9406 0
M  V30 70 C 6.1384 0.546528 3.42973 0
M  V30 71 C 5.0924 1.56375 3.9841 0
M  V30 72 C 4.4184 0.97842 5.25672 0
M  V30 73 C 5.7184 2.94922 4.31066 0
M  V30 74 H 7.4124 1.91276 2.30334 0
M  V30 75 H 4.9584 0.921073 1.1069 0
M  V30 76 H 6.9114 0.378839 4.19694 0
M  V30 77 H 5.6354 -0.413598 3.23971 0
M  V30 78 H 4.2944 1.71891 3.23804 0
M  V30 79 H 3.9424 0.0101688 5.02999 0
M  V30 80 H 3.6424 1.65784 5.63728 0
M  V30 81 H 5.1664 0.821939 6.05043 0
M  V30 82 H 6.5804 2.8288 4.9865 0
M  V30 83 H 4.9774 3.5983 4.80253 0
M  V30 84 H 6.0474 3.4616 3.39561 0
M  V30 85 N 7.3905 -1.2043 1.01659 0
M  V30 86 C 8.3405 -2.21076 0.557623 0
M  V30 87 C 9.3245 -1.56176 -0.387029 0
M  V30 88 O 10.5165 -1.7575 -0.209996 0
M  V30 89 C 7.6455 -3.43146 -0.102707 0
M  V30 90 C 6.7315 -4.15213 0.863652 0
M  V30 91 N 7.1225 -4.63662 2.02117 0
M  V30 92 C 5.4205 -4.40716 0.684472 0
M  V30 93 C 6.1215 -5.18868 2.62966 0
M  V30 94 N 5.0975 -5.0893 1.91027 0
M  V30 95 H 8.8995 -2.56201 1.44008 0
M  V30 96 H 6.4135 -1.36366 0.881931 0
M  V30 97 H 8.4105 -4.14475 -0.449054 0
M  V30 98 H 7.0705 -3.09526 -0.981003 0
M  V30 99 H 8.0815 -4.58877 2.40109 0
M  V30 100 H 4.7585 -4.17245 -0.14577 0
M  V30 101 H 6.1485 -5.6673 3.60924 0
M  V30 102 N 8.8686 -0.792821 -1.36206 0
M  V30 103 C 10.0936 -0.377701 -2.03932 0
M  V30 104 C 10.5186 0.998947 -1.59382 0
M  V30 105 O 9.8766 1.64421 -0.763903 0
M  V30 106 C 9.9246 -0.453635 -3.57735 0
M  V30 107 O 9.0286 0.538151 -4.08874 0
M  V30 108 H 8.3696 -0.159855 -0.644471 0
M  V30 109 H 10.8996 -1.07488 -1.7409 0
M  V30 110 H 10.9096 -0.318464 -4.06755 0
M  V30 111 H 9.5846 -1.45784 -3.89512 0
M  V30 112 H 8.1616 0.364359 -3.71116 0
M  V30 113 N 10.3467 1.47872 -0.545128 0
M  V30 114 C 11.2767 2.32661 0.197793 0
M  V30 115 C 12.2577 1.43041 0.920504 0
M  V30 116 O 13.4427 1.71912 0.90333 0
M  V30 117 C 10.5727 3.24569 1.23582 0
M  V30 118 C 9.5267 4.23333 0.630323 0
M  V30 119 C 8.8527 5.0448 1.77211 0
M  V30 120 C 10.1527 5.20704 -0.407974 0
M  V30 121 H 11.8467 2.95024 -0.510045 0
M  V30 122 H 9.3927 1.4187 -0.246731 0
M  V30 123 H 11.3457 3.8272 1.76362 0
M  V30 124 H 10.0697 2.60236 1.97344 0
M  V30 125 H 8.7287 3.6639 0.123922 0
M  V30 126 H 8.3767 4.36561 2.49847 0
M  V30 127 H 8.0767 5.71339 1.37281 0
M  V30 128 H 9.6007 5.65487 2.3034 0
M  V30 129 H 11.0147 5.7329 0.033305 0
M  V30 130 H 9.4117 5.95699 -0.725486 0
M  V30 131 H 10.4817 4.66917 -1.30828 0
M  V30 132 N 11.8248 0.280983 1.55075 0
M  V30 133 C 13.1018 -0.386207 1.91749 0
M  V30 134 C 13.4818 -1.73264 1.20594 0
M  V30 135 O 12.8298 -2.26034 0.334784 0
M  V30 136 C 13.0398 -0.520687 3.45094 0
M  V30 137 C 14.3878 -0.800865 4.16979 0
M  V30 138 O 15.4118 -0.605271 3.5102 0
M  V30 139 O 14.2708 -1.1753 5.33712 0
M  V30 140 H 11.3648 -0.212408 0.799257 0
M  V30 141 H 13.9108 0.327568 1.66509 0
M  V30 142 H 12.6828 0.426633 3.88967 0
M  V30 143 H 12.3058 -1.2837 3.76307 0
M  V30 144 N 13.3029 -1.57598 0.00835791 0
M  V30 145 C 14.7139 -1.7892 -0.53333 0
M  V30 146 C 15.0649 -0.916609 -1.73473 0
M  V30 147 O 14.1899 -0.121336 -2.1606 0
M  V30 148 C 14.7849 -3.24488 -0.974313 0
M  V30 149 C 13.3439 -3.46878 -1.46125 0
M  V30 150 C 12.4909 -2.74157 -0.416302 0
M  V30 151 H 15.4419 -1.56958 0.234495 0
M  V30 152 H 15.4629 -3.3306 -1.83988 0
M  V30 153 H 14.9749 -3.87972 -0.099718 0
M  V30 154 H 13.0759 -2.8862 -2.35646 0
M  V30 155 H 13.1889 -4.55572 -1.48295 0
M  V30 156 H 11.5529 -2.39022 -0.87981 0
M  V30 157 H 12.3359 -3.40345 0.44947 0
M  V30 158 N 14.781 0.264519 -1.55364 0
M  V30 159 C 16.197 0.61215 -1.47394 0
M  V30 160 C 16.397 1.89134 -0.695018 0
M  V30 161 O 15.453 2.51563 -0.217275 0
M  V30 162 C 16.766 0.731235 -2.91674 0
M  V30 163 C 18.314 0.82473 -3.01939 0
M  V30 164 C 18.789 0.975522 -4.4749 0
M  V30 165 N 20.28 1.04083 -4.51354 0
M  V30 166 C 21.015 1.17646 -5.61201 0
M  V30 167 N 20.511 1.27874 -6.80896 0
M  V30 168 N 22.304 1.20823 -5.48961 0
M  V30 169 H 14.455 -0.575456 -2.04456 0
M  V30 170 H 16.718 -0.196099 -0.927496 0
M  V30 171 H 16.424 -0.138392 -3.51428 0
M  V30 172 H 16.298 1.60883 -3.41169 0
M  V30 173 H 18.685 1.68482 -2.42276 0
M  V30 174 H 18.766 -0.0776479 -2.55682 0
M  V30 175 H 18.41 0.120058 -5.07758 0
M  V30 176 H 18.34 1.89268 -4.91412 0
M  V30 177 H 20.831 0.973846 -3.65136 0
M  V30 178 H 21.144 1.38081 -7.60364 0
M  V30 179 H 19.489 1.24863 -6.83692 0
M  V30 180 H 22.68 1.12469 -4.54388 0
M  V30 181 H 22.853 1.31049 -6.3461 0
M  V30 182 N 16.2591 1.48442 0.529413 0
M  V30 183 C 17.6751 1.34575 0.858004 0
M  V30 184 C 17.8751 0.3572 1.98309 0
M  V30 185 O 16.9311 -0.221379 2.51528 0
M  V30 186 C 18.2441 2.74617 1.22499 0
M  V30 187 C 19.7921 2.83109 1.33484 0
M  V30 188 C 20.2671 4.23854 1.73526 0
M  V30 189 N 21.7581 4.2653 1.80628 0
M  V30 190 C 22.4931 5.32372 2.12997 0
M  V30 191 N 21.9891 6.48491 2.43786 0
M  V30 192 N 23.7821 5.19766 2.14008 0
M  V30 193 H 15.9331 2.1133 -0.212925 0
M  V30 194 H 18.1961 0.947439 -0.0326199 0
M  V30 195 H 17.9021 3.4852 0.471905 0
M  V30 196 H 17.7761 3.08177 2.17501 0
M  V30 197 H 20.1631 2.09462 2.0787 0
M  V30 198 H 20.2441 2.53168 0.366027 0
M  V30 199 H 19.8881 4.98018 0.997013 0
M  V30 200 H 19.8181 4.5124 2.71459 0
M  V30 201 H 22.3091 3.42772 1.59108 0
M  V30 202 H 22.6221 7.24993 2.67592 0
M  V30 203 H 20.9671 6.51765 2.41304 0
M  V30 204 H 24.1581 4.28066 1.89412 0
M  V30 205 H 24.3311 6.02354 2.38902 0
M  V30 206 N 17.7372 -0.778329 1.37039 0
M  V30 207 C 18.6692 -1.90034 1.2814 0
M  V30 208 C 19.6822 -1.61585 0.198558 0
M  V30 209 O 20.8712 -1.72625 0.454175 0
M  V30 210 C 17.9712 -3.25108 0.956968 0
M  V30 211 C 17.1442 -3.81253 2.14394 0
M  V30 212 C 16.2032 -4.94789 1.79082 0
M  V30 213 O 15.2292 -5.10721 2.51301 0
M  V30 214 N 16.4312 -5.75878 0.731043 0
M  V30 215 H 19.1962 -1.98186 2.24816 0
M  V30 216 H 16.7572 -0.957129 1.30578 0
M  V30 217 H 18.7492 -3.9857 0.701701 0
M  V30 218 H 17.3192 -3.125 0.0789812 0
M  V30 219 H 16.5392 -2.99647 2.56135 0
M  V30 220 H 17.8272 -4.15495 2.93668 0
M  V30 221 H 17.2252 -5.65547 0.131618 0
M  V30 222 H 15.7822 -6.49596 0.535622 0
M  V30 223 N 19.2153 -1.21501 -1.00376 0
M  V30 224 C 20.1253 -0.991447 -2.12621 0
M  V30 225 C 21.1413 0.0568446 -1.73907 0
M  V30 226 O 22.3173 -0.13348 -2.00957 0
M  V30 227 C 19.3823 -0.560312 -3.42142 0
M  V30 228 C 18.4433 -1.68096 -3.95022 0
M  V30 229 C 17.6763 -1.2703 -5.18362 0
M  V30 230 O 17.8993 -0.144438 -5.70217 0
M  V30 231 O 16.8333 -2.08269 -5.64719 0
M  V30 232 H 20.6593 -1.93158 -2.34358 0
M  V30 233 H 18.2443 -0.999999 -1.10997 0
M  V30 234 H 20.1263 -0.329724 -4.20108 0
M  V30 235 H 18.8013 0.351089 -3.2179 0
M  V30 236 H 17.7083 -1.96597 -3.18278 0
M  V30 237 H 19.0413 -2.56983 -4.19786 0
M  V30 238 N 20.6934 1.19889 -1.02296 0
M  V30 239 C 21.6234 2.25141 -0.619174 0
M  V30 240 C 22.6044 1.66051 0.368915 0
M  V30 241 O 23.7894 1.92546 0.252941 0
M  V30 242 C 20.9194 3.4728 0.0368783 0
M  V30 243 C 19.8734 4.19005 -0.872865 0
M  V30 244 C 19.1994 5.34637 -0.0822402 0
M  V30 245 C 20.4994 4.74452 -2.18387 0
M  V30 246 H 22.1934 2.59171 -1.49903 0
M  V30 247 H 19.7394 1.24579 -0.722222 0
M  V30 248 H 21.6924 4.20098 0.330958 0
M  V30 249 H 20.4164 3.12433 0.95149 0
M  V30 250 H 19.0754 3.48061 -1.15105 0
M  V30 251 H 18.7234 4.96034 0.83422 0
M  V30 252 H 18.4234 5.83557 -0.688149 0
M  V30 253 H 19.9474 6.10255 0.205238 0
M  V30 254 H 21.3614 5.39055 -1.95172 0
M  V30 255 H 19.7584 5.33834 -2.74119 0
M  V30 256 H 20.8284 3.92844 -2.84257 0
M  V30 257 N 22.1715 0.800033 1.35784 0
M  V30 258 C 23.1015 0.220184 2.3246 0
M  V30 259 C 24.0825 -0.65073 1.57161 0
M  V30 260 O 25.2675 -0.582359 1.85263 0
M  V30 261 C 22.3975 -0.637353 3.41402 0
M  V30 262 C 21.3515 0.134531 4.27789 0
M  V30 263 C 20.6775 -0.844285 5.27992 0
M  V30 264 C 21.9775 1.32979 5.05088 0
M  V30 265 H 23.6715 1.02787 2.81203 0
M  V30 266 H 21.2175 0.495717 1.35199 0
M  V30 267 H 23.1705 -1.05302 4.08031 0
M  V30 268 H 21.8945 -1.47785 2.91251 0
M  V30 269 H 20.5535 0.531296 3.6273 0
M  V30 270 H 20.2015 -1.68011 4.74111 0
M  V30 271 H 19.9015 -0.332184 5.8666 0
M  V30 272 H 21.4255 -1.2583 5.97494 0
M  V30 273 H 22.8395 0.98934 5.64699 0
M  V30 274 H 21.2365 1.77593 5.7322 0
M  V30 275 H 22.3065 2.11978 4.36111 0
M  V30 276 N 23.6496 -1.47581 0.552962 0
M  V30 277 C 24.5596 -2.33743 -0.200353 0
M  V30 278 C 25.5756 -1.47928 -0.916151 0
M  V30 279 O 26.7516 -1.80865 -0.885993 0
M  V30 280 C 23.8166 -3.24536 -1.21973 0
M  V30 281 C 22.8776 -4.26238 -0.511819 0
M  V30 282 C 22.1106 -5.12693 -1.48263 0
M  V30 283 O 22.3336 -5.01525 -2.71714 0
M  V30 284 O 21.2676 -5.93375 -1.00945 0
M  V30 285 H 25.0936 -2.9945 0.506304 0
M  V30 286 H 22.6786 -1.46071 0.313622 0
M  V30 287 H 24.5606 -3.80631 -1.80827 0
M  V30 288 H 23.2356 -2.61462 -1.90839 0
M  V30 289 H 22.1426 -3.73914 0.117799 0
M  V30 290 H 23.4756 -4.92014 0.135308 0
M  V30 291 N 25.1277 -0.289203 -1.54924 0
M  V30 292 C 26.0907 0.579144 -2.21762 0
M  V30 293 C 27.0907 1.07047 -1.1999 0
M  V30 294 O 28.2807 0.968384 -1.44803 0
M  V30 295 C 25.4127 1.80055 -2.8947 0
M  V30 296 H 26.6057 -0.00464908 -2.999 0
M  V30 297 H 24.1587 -0.0399306 -1.56249 0
M  V30 298 H 24.8937 2.42449 -2.15381 0
M  V30 299 H 24.6787 1.45602 -3.64064 0
M  V30 300 H 26.1687 2.41773 -3.40493 0
M  V30 301 N 26.6058 1.57591 -0.0167156 0
M  V30 302 C 28.0218 1.55946 0.339557 0
M  V30 303 C 28.2218 1.02109 1.73713 0
M  V30 304 O 27.2778 0.662303 2.43659 0
M  V30 305 C 28.5908 3.00037 0.199499 0
M  V30 306 C 30.1388 3.11805 0.273193 0
M  V30 307 C 30.6138 4.57713 0.162068 0
M  V30 308 N 32.1048 4.6268 0.219444 0
M  V30 309 C 32.8398 5.73185 0.157054 0
M  V30 310 N 32.3358 6.92786 0.0442936 0
M  V30 311 N 34.1288 5.61707 0.21014 0
M  V30 312 H 26.2798 1.90921 -0.930758 0
M  V30 313 H 28.5428 0.877674 -0.358319 0
M  V30 314 H 28.2488 3.4333 -0.76273 0
M  V30 315 H 28.1228 3.64387 0.974786 0
M  V30 316 H 30.5098 2.68433 1.22587 0
M  V30 317 H 30.5908 2.50201 -0.532256 0
M  V30 318 H 30.2348 5.01763 -0.78714 0
M  V30 319 H 30.1648 5.17283 0.986222 0
M  V30 320 H 32.6558 3.76649 0.307246 0
M  V30 321 H 32.9688 7.728 0.00304069 0
M  V30 322 H 31.3138 6.94999 0.00968457 0
M  V30 323 H 34.5048 4.6716 0.296546 0
M  V30 324 H 34.6778 6.47807 0.158054 0
M  V30 325 N 28.0839 -0.256276 1.55502 0
M  V30 326 C 29.3309 -0.985619 1.76895 0
M  V30 327 C 29.6589 -1.85671 0.579355 0
M  V30 328 O 28.9139 -1.90744 -0.437651 0
M  V30 329 C 29.2129 -1.88432 3.03691 0
M  V30 330 C 28.8789 -1.16936 4.35473 0
M  V30 331 C 27.5409 -0.97173 4.71286 0
M  V30 332 C 29.8929 -0.661889 5.1698 0
M  V30 333 C 27.2209 -0.254179 5.86149 0
M  V30 334 C 29.5729 0.042149 6.32586 0
M  V30 335 C 28.2369 0.25134 6.67027 0
M  V30 336 H 27.5069 -0.360663 0.647304 0
M  V30 337 H 30.1539 -0.256483 1.89775 0
M  V30 338 H 28.4589 -2.68021 2.85783 0
M  V30 339 H 30.1559 -2.45015 3.1744 0
M  V30 340 H 26.7459 -1.33332 4.07333 0
M  V30 341 H 30.9299 -0.802145 4.89775 0
M  V30 342 H 26.1859 -0.0815408 6.11346 0
M  V30 343 H 30.3599 0.443049 6.94989 0
M  V30 344 H 27.9869 0.809314 7.5588 0
M  V30 345 N 29.562 -1.4872 -0.521534 0
M  V30 346 C 30.79 -1.60843 -1.30142 0
M  V30 347 C 31.205 -0.271897 -1.86832 0
M  V30 348 O 30.562 0.739969 -1.66825 0
M  V30 349 C 30.613 -2.66155 -2.4463 0
M  V30 350 O 30.334 -3.94623 -1.90275 0
M  V30 351 C 31.835 -2.88795 -3.36322 0
M  V30 352 H 29.055 -0.542075 -0.395468 0
M  V30 353 H 31.599 -1.94609 -0.628285 0
M  V30 354 H 29.754 -2.35224 -3.07812 0
M  V30 355 H 30.168 -4.52468 -2.65279 0
M  V30 356 H 31.642 -3.66264 -4.12983 0
M  V30 357 H 32.119 -1.97934 -3.9207 0
M  V30 358 H 32.725 -3.21063 -2.78924 0
M  V30 359 N 31.0401 0.771051 -1.3745 0
M  V30 360 C 32.2881 1.52661 -1.32435 0
M  V30 361 C 32.6091 1.9479 0.0905024 0
M  V30 362 O 31.8791 1.66348 1.03466 0
M  V30 363 H 30.4591 0.566218 -0.487244 0
M  V30 364 H 33.1211 0.917636 -1.71946 0
M  V30 365 H 32.2171 2.42568 -1.96385 0
M  V30 366 N 32.5182 1.22032 0.997298 0
M  V30 367 C 33.7642 1.04376 1.73878 0
M  V30 368 C 34.0972 -0.420716 1.89588 0
M  V30 369 O 33.3722 -1.31202 1.43583 0
M  V30 370 C 33.6552 1.75047 3.14691 0
M  V30 371 C 33.5082 3.29062 3.06656 0
M  V30 372 C 34.8272 1.49928 4.13775 0
M  V30 373 H 31.9462 0.380578 0.631133 0
M  V30 374 H 34.5882 1.50312 1.16217 0
M  V30 375 H 32.7382 1.35996 3.63919 0
M  V30 376 H 34.4102 3.7753 2.65083 0
M  V30 377 H 32.6532 3.58967 2.43568 0
M  V30 378 H 33.3242 3.73683 4.06282 0
M  V30 379 H 35.8002 1.83842 3.73285 0
M  V30 380 H 34.6762 2.01878 5.10428 0
M  V30 381 H 34.9372 0.430929 4.39995 0
M  V30 382 N 33.9963 -1.19345 1.0293 0
M  V30 383 C 35.2443 -1.88665 0.724574 0
M  V30 384 C 35.5653 -1.80036 -0.749144 0
M  V30 385 O 34.8353 -1.2111 -1.53978 0
M  V30 386 H 33.4153 -0.698406 0.265025 0
M  V30 387 H 36.0773 -1.44885 1.30362 0
M  V30 388 H 35.1733 -2.94987 1.01926 0
M  V30 389 N 35.4744 -0.807222 -1.35358 0
M  V30 390 C 36.7204 -0.388463 -1.99045 0
M  V30 391 C 37.0534 1.04184 -1.63888 0
M  V30 392 O 36.3284 1.72292 -0.902535 0
M  V30 393 C 36.6114 -0.572783 -3.55515 0
M  V30 394 C 36.4644 -2.04807 -4.00468 0
M  V30 395 C 37.7834 0.00114064 -4.401 0
M  V30 396 H 34.9024 -0.142619 -0.723069 0
M  V30 397 H 37.5444 -1.01687 -1.60498 0
M  V30 398 H 35.6944 -0.0378425 -3.88482 0
M  V30 399 H 37.3664 -2.64544 -3.77908 0
M  V30 400 H 35.6094 -2.54427 -3.51353 0
M  V30 401 H 36.2804 -2.12792 -5.09337 0
M  V30 402 H 38.7564 -0.455716 -4.13597 0
M  V30 403 H 37.6324 -0.157737 -5.48673 0
M  V30 404 H 37.8934 1.09488 -4.28328 0
M  V30 405 N 36.9525 1.47285 -0.560781 0
M  V30 406 C 38.1775 2.07359 -0.0410566 0
M  V30 407 C 38.6025 1.41017 1.24483 0
M  V30 408 O 37.9605 0.486368 1.74654 0
M  V30 409 C 38.0085 3.6035 0.134123 0
M  V30 410 O 37.1125 3.94681 1.19587 0
M  V30 411 H 36.4535 0.661887 -0.0529291 0
M  V30 412 H 38.9835 1.89252 -0.777482 0
M  V30 413 H 38.9935 4.0652 0.347207 0
M  V30 414 H 37.6685 4.08034 -0.805047 0
M  V30 415 H 36.2455 3.60251 0.962987 0
M  V30 416 N 38.4306 0.297415 1.54768 0
M  V30 417 C 39.3776 -0.580276 2.23386 0
M  V30 418 C 40.3476 -1.13238 1.21517 0
M  V30 419 O 41.5326 -1.17757 1.50126 0
M  V30 420 C 38.6726 -1.74801 2.97555 0
M  V30 421 C 37.7856 -1.22764 4.1419 0
M  V30 422 C 36.9206 -2.35895 4.75949 0
M  V30 423 C 35.9596 -1.80974 5.84735 0
M  V30 424 N 35.0966 -2.87664 6.40464 0
M  V30 425 H 39.9366 0.0114833 2.97998 0
M  V30 426 H 37.4736 0.0174361 1.4709 0
M  V30 427 H 39.4316 -2.43475 3.38786 0
M  V30 428 H 38.0616 -2.31145 2.25326 0
M  V30 429 H 37.1136 -0.433271 3.77924 0
M  V30 430 H 38.4256 -0.785551 4.92575 0
M  V30 431 H 37.5796 -3.12523 5.20014 0
M  V30 432 H 36.3186 -2.83429 3.96887 0
M  V30 433 H 35.3236 -1.02834 5.40097 0
M  V30 434 H 36.5486 -1.34348 6.65678 0
M  V30 435 H 34.4946 -3.34538 5.64287 0
M  V30 436 H 34.4116 -2.4794 7.14186 0
M  V30 437 H 35.6796 -3.642 6.89187 0
M  V30 438 N 39.9087 -1.5758 0.0250728 0
M  V30 439 C 41.1567 -1.91255 -0.653151 0
M  V30 440 C 41.4777 -0.901691 -1.729 0
M  V30 441 O 40.7477 0.0573785 -1.95816 0
M  V30 442 H 39.3277 -0.705942 -0.244243 0
M  V30 443 H 41.9897 -1.94767 0.0719209 0
M  V30 444 H 41.0857 -2.91752 -1.10847 0
M  V30 445 N 41.3868 0.248026 -1.55636 0
M  V30 446 C 42.7978 0.817177 -1.67866 0
M  V30 447 C 43.1488 1.86069 -0.622322 0
M  V30 448 O 42.2738 2.15157 0.231618 0
M  V30 449 C 42.8688 1.489 -3.04326 0
M  V30 450 C 41.4278 2.00587 -3.185 0
M  V30 451 C 40.5748 0.856573 -2.63739 0
M  V30 452 H 43.5258 0.0238579 -1.58682 0
M  V30 453 H 43.5468 2.35698 -2.98708 0
M  V30 454 H 43.0588 0.729279 -3.81186 0
M  V30 455 H 41.1598 2.79443 -2.4646 0
M  V30 456 H 41.2728 2.20402 -4.25393 0
M  V30 457 H 39.6368 1.25678 -2.21534 0
M  V30 458 H 40.4198 0.109953 -3.43124 0
M  V30 459 N 42.8649 1.48995 0.513639 0
M  V30 460 C 43.7949 1.67636 1.62544 0
M  V30 461 C 44.7759 0.525087 1.61793 0
M  V30 462 O 45.9609 0.759502 1.78732 0
M  V30 463 C 43.0909 1.73114 3.01079 0
M  V30 464 C 42.0449 2.87905 3.16693 0
M  V30 465 C 41.3709 2.78486 4.56453 0
M  V30 466 C 42.6709 4.29005 2.97913 0
M  V30 467 H 44.3649 2.60716 1.47198 0
M  V30 468 H 41.9109 1.25465 0.706714 0
M  V30 469 H 43.8639 1.84742 3.78746 0
M  V30 470 H 42.5879 0.766241 3.17484 0
M  V30 471 H 41.2469 2.75859 2.41448 0
M  V30 472 H 40.8949 1.7993 4.69717 0
M  V30 473 H 40.5949 3.55523 4.67843 0
M  V30 474 H 42.1189 2.92104 5.36197 0
M  V30 475 H 43.5329 4.41798 3.65359 0
M  V30 476 H 41.9299 5.07166 3.20785 0
M  V30 477 H 42.9999 4.44329 1.94165 0
M  V30 478 N 44.343 -0.763751 1.37857 0
M  V30 479 C 45.291 -1.89864 1.34367 0
M  V30 480 C 46.285 -1.67816 0.231143 0
M  V30 481 O 47.491 -1.75508 0.399617 0
M  V30 482 H 43.866 -0.624501 0.41893 0
M  V30 483 H 45.837 -1.89925 2.30155 0
M  V30 484 C 44.586 -3.27227 1.1755 0
M  V30 485 H 43.909 -3.44773 2.02414 0
M  V30 486 H 45.349 -4.06911 1.1916 0
M  V30 487 C 43.808 -3.36692 -0.118311 0
M  V30 488 O 44.338 -3.86374 -1.09902 0
M  V30 489 N 42.544 -2.90092 -0.171717 0
M  V30 490 H 42.091 -2.49853 0.627012 0
M  V30 491 H 42.049 -2.96806 -1.03699 0
M  V30 492 N 45.8211 -1.22559 -0.990812 0
M  V30 493 C 47.0461 -1.07862 -1.77145 0
M  V30 494 C 47.4711 0.366447 -1.84496 0
M  V30 495 O 46.8291 1.26478 -1.29896 0
M  V30 496 C 46.8771 -1.69686 -3.18181 0
M  V30 497 O 45.9811 -0.951946 -4.01263 0
M  V30 498 H 45.3221 -0.378712 -0.545411 0
M  V30 499 H 47.8521 -1.62399 -1.2445 0
M  V30 500 H 47.8621 -1.74496 -3.68802 0
M  V30 501 H 46.5371 -2.74841 -3.12146 0
M  V30 502 H 45.1141 -0.980011 -3.59792 0
M  V30 503 N 47.2992 1.18797 -1.03562 0
M  V30 504 C 48.2092 2.25913 -0.632505 0
M  V30 505 C 49.2252 1.70668 0.338882 0
M  V30 506 O 50.4012 2.00453 0.195076 0
M  V30 507 C 47.4662 3.467 0.00350942 0
M  V30 508 C 46.5272 4.17098 -1.01624 0
M  V30 509 C 45.7602 5.32119 -0.410478 0
M  V30 510 O 45.9832 5.64976 0.784725 0
M  V30 511 O 44.9172 5.9107 -1.13667 0
M  V30 512 H 48.7432 2.62648 -1.52478 0
M  V30 513 H 46.3282 1.25781 -0.806195 0
M  V30 514 H 48.2102 4.19878 0.35781 0
M  V30 515 H 46.8852 3.11798 0.869686 0
M  V30 516 H 45.7922 3.4601 -1.42224 0
M  V30 517 H 47.1252 4.55987 -1.85301 0
M  V30 518 N 48.7773 0.814389 1.34928 0
M  V30 519 C 50.0023 0.410097 2.03305 0
M  V30 520 C 50.4273 -0.973464 1.60951 0
M  V30 521 O 49.7853 -1.63185 0.789964 0
M  V30 522 C 49.8333 0.51049 3.56968 0
M  V30 523 O 48.9373 -0.473035 4.09678 0
M  V30 524 H 48.2783 0.170088 0.641846 0
M  V30 525 H 50.8083 1.10244 1.72358 0
M  V30 526 H 50.8183 0.383135 4.06197 0
M  V30 527 H 49.4933 1.51963 3.87144 0
M  V30 528 H 48.0703 -0.305272 3.71648 0
M  V30 529 N 50.2554 -1.46986 0.568584 0
M  V30 530 C 51.4804 -2.07335 0.0520528 0
M  V30 531 C 51.9054 -1.41675 -1.23733 0
M  V30 532 O 51.2634 -0.495623 -1.74394 0
M  V30 533 C 51.3114 -3.60417 -0.11501 0
M  V30 534 O 50.4154 -3.95309 -1.17492 0
M  V30 535 H 49.7564 -0.661597 0.0564385 0
M  V30 536 H 52.2864 -1.88837 0.787507 0
M  V30 537 H 52.2964 -4.06698 -0.325644 0
M  V30 538 H 50.9714 -4.07601 0.826675 0
M  V30 539 H 49.5484 -3.60757 -0.943869 0
M  V30 540 N 51.7335 -0.305618 -1.54608 0
M  V30 541 C 52.6815 0.584119 -2.25146 0
M  V30 542 C 53.6755 1.13326 -1.25911 0
M  V30 543 O 54.8815 1.08337 -1.43747 0
M  V30 544 H 51.2565 0.206983 -0.722954 0
M  V30 545 H 53.2275 -0.033291 -2.98381 0
M  V30 546 C 51.9765 1.74225 -3.009 0
M  V30 547 H 51.2995 1.32892 -3.77067 0
M  V30 548 H 52.7395 2.34077 -3.53531 0
M  V30 549 C 51.1985 2.64914 -2.0814 0
M  V30 550 O 51.7285 3.66137 -1.65246 0
M  V30 551 N 49.9345 2.3275 -1.74 0
M  V30 552 H 49.4815 1.50479 -2.09078 0
M  V30 553 H 49.4395 2.93694 -1.12211 0
M  V30 554 N 53.2116 1.57565 -0.0334293 0
M  V30 555 C 54.1436 2.0739 0.975811 0
M  V30 556 C 55.1566 0.998166 1.2861 0
M  V30 557 O 56.3456 1.27426 1.25 0
M  V30 558 C 53.4456 2.4871 2.30209 0
M  V30 559 C 52.6186 3.79413 2.17634 0
M  V30 560 C 51.6776 4.07237 3.33233 0
M  V30 561 O 50.7036 4.77425 3.09927 0
M  V30 562 N 51.9056 3.5775 4.5716 0
M  V30 563 H 54.6706 2.94598 0.55066 0
M  V30 564 H 52.2316 1.61173 0.15323 0
M  V30 565 H 54.2236 2.64413 3.06378 0
M  V30 566 H 52.7936 1.66845 2.64351 0
M  V30 567 H 52.0136 3.73465 1.26165 0
M  V30 568 H 53.3016 4.65038 2.0644 0
M  V30 569 H 52.6996 3.00976 4.78989 0
M  V30 570 H 51.2566 3.78724 5.30482 0
M  V30 571 N 54.6897 -0.239769 1.55765 0
M  V30 572 C 55.9147 -0.988373 1.82335 0
M  V30 573 C 56.3397 -1.77886 0.611421 0
M  V30 574 O 55.6977 -1.75889 -0.439639 0
M  V30 575 C 55.7457 -1.89627 3.06715 0
M  V30 576 O 54.8497 -2.98904 2.84131 0
M  V30 577 H 54.1907 -0.280858 0.601677 0
M  V30 578 H 56.7207 -0.258597 2.02959 0
M  V30 579 H 56.7307 -2.30957 3.36338 0
M  V30 580 H 55.4057 -1.31511 3.9456 0
M  V30 581 H 53.9827 -2.61651 2.65694 0
M  V30 582 N 56.1678 -1.49265 -0.50573 0
M  V30 583 C 57.0978 -1.68495 -1.61653 0
M  V30 584 C 58.0788 -0.53366 -1.61512 0
M  V30 585 O 59.2638 -0.76897 -1.78327 0
M  V30 586 C 56.3938 -1.74709 -3.00157 0
M  V30 587 C 55.3478 -2.89581 -3.15162 0
M  V30 588 C 54.6738 -2.80903 -4.5497 0
M  V30 589 C 55.9738 -4.30578 -2.95634 0
M  V30 590 H 57.6678 -2.61493 -1.45814 0
M  V30 591 H 55.2138 -1.25838 -0.70005 0
M  V30 592 H 57.1668 -1.86748 -3.77761 0
M  V30 593 H 55.8908 -0.783067 -3.17074 0
M  V30 594 H 54.5498 -2.77136 -2.39982 0
M  V30 595 H 54.1978 -1.82419 -4.68756 0
M  V30 596 H 53.8978 -3.57999 -4.65951 0
M  V30 597 H 55.4218 -2.94944 -5.34641 0
M  V30 598 H 56.8358 -4.4373 -3.63011 0
M  V30 599 H 55.2328 -5.0886 -3.18091 0
M  V30 600 H 56.3028 -4.45352 -1.91806 0
M  V30 601 N 57.6459 0.756429 -1.3826 0
M  V30 602 C 58.8859 1.52833 -1.35725 0
M  V30 603 C 59.2499 1.91926 0.0534106 0
M  V30 604 O 60.4509 2.68028 0.203613 0
M  V30 605 C 58.7219 2.74919 -2.28373 0
M  V30 606 S 60.2809 3.64817 -2.43832 0
M  V30 607 H 57.0989 0.523043 -0.481608 0
M  V30 608 H 59.7009 0.888212 -1.74158 0
M  V30 609 H 58.4049 2.44304 -3.29763 0
M  V30 610 H 57.9359 3.43878 -1.91079 0
M  V30 611 H 59.9509 4.676 -1.66027 0
M  V30 612 N 59.124 1.23083 0.984299 0
M  V30 613 C 60.349 1.088 1.76571 0
M  V30 614 C 60.774 -0.356657 1.84688 0
M  V30 615 O 60.132 -1.25788 1.30565 0
M  V30 616 C 60.18 1.71371 3.17277 0
M  V30 617 O 59.284 0.973213 4.00752 0
M  V30 618 H 58.625 0.381599 0.543395 0
M  V30 619 H 61.155 1.63057 1.23587 0
M  V30 620 H 61.165 1.76449 3.67872 0
M  V30 621 H 59.84 2.76493 3.10684 0
M  V30 622 H 58.417 0.999078 3.59267 0
M  V30 623 N 60.6021 -1.18246 1.0419 0
M  V30 624 C 61.8481 -1.88536 0.747122 0
M  V30 625 C 62.1811 -1.80223 -0.723409 0
M  V30 626 O 61.4561 -1.20337 -1.52804 0
M  V30 627 C 61.7391 -3.38968 1.21544 0
M  V30 628 C 61.5921 -3.56084 2.74816 0
M  V30 629 C 62.9111 -4.32648 0.806482 0
M  V30 630 H 60.0301 -0.684619 0.272883 0
M  V30 631 H 62.6721 -1.39113 1.29413 0
M  V30 632 H 60.8221 -3.8119 0.750081 0
M  V30 633 H 62.4941 -3.22946 3.29399 0
M  V30 634 H 60.7371 -2.98699 3.14582 0
M  V30 635 H 61.4081 -4.61639 3.02644 0
M  V30 636 H 63.8841 -3.98211 1.20695 0
M  V30 637 H 62.7601 -5.36462 1.1619 0
M  V30 638 H 63.0211 -4.41146 -0.29029 0
M  V30 639 N 62.0802 -0.821533 -1.34494 0
M  V30 640 C 63.3282 -0.408139 -1.97936 0
M  V30 641 C 63.6492 1.03193 -1.65457 0
M  V30 642 O 62.9192 1.71622 -0.944595 0
M  V30 643 H 61.4992 -0.147928 -0.732206 0
M  V30 644 H 64.1612 -1.05067 -1.64155 0
M  V30 645 H 63.2572 -0.52601 -3.07635 0
M  V30 646 N 63.5583 1.46682 -0.576371 0
M  V30 647 C 64.7833 2.07304 -0.0630475 0
M  V30 648 C 65.2083 1.42329 1.2298 0
M  V30 649 O 64.5663 0.504865 1.74129 0
M  V30 650 C 64.6143 3.60472 0.095895 0
M  V30 651 O 63.7183 3.95927 1.15394 0
M  V30 652 H 63.0593 0.661288 -0.0599463 0
M  V30 653 H 65.5893 1.88417 -0.797511 0
M  V30 654 H 65.5993 4.06865 0.304071 0
M  V30 655 H 64.2743 4.07157 -0.84828 0
M  V30 656 H 62.8513 3.61252 0.924724 0
M  V30 657 N 65.0364 0.313813 1.54444 0
M  V30 658 C 65.9664 -0.549454 2.26943 0
M  V30 659 C 66.9474 -1.12741 1.27372 0
M  V30 660 O 68.1324 -1.15436 1.56167 0
M  V30 661 C 65.2624 -1.71523 3.01989 0
M  V30 662 C 64.2164 -1.26703 4.08816 0
M  V30 663 C 63.5424 -2.51898 4.71647 0
M  V30 664 C 64.8424 -0.388962 5.2085 0
M  V30 665 H 66.5364 0.0552661 2.99349 0
M  V30 666 H 64.0824 0.0280207 1.43973 0
M  V30 667 H 66.0354 -2.32535 3.51433 0
M  V30 668 H 64.7594 -2.34639 2.27183 0
M  V30 669 H 63.4184 -0.679896 3.6024 0
M  V30 670 H 63.0664 -3.13356 3.93468 0
M  V30 671 H 62.7664 -2.22605 5.43802 0
M  V30 672 H 64.2904 -3.1369 5.23861 0
M  V30 673 H 65.7044 -0.905107 5.6611 0
M  V30 674 H 64.1014 -0.18924 5.99802 0
M  V30 675 H 65.1714 0.582699 4.81386 0
M  V30 676 N 66.5145 -1.57545 0.0417849 0
M  V30 677 C 67.7395 -1.97035 -0.647455 0
M  V30 678 C 68.1645 -0.918775 -1.64135 0
M  V30 679 O 67.5225 0.119006 -1.80909 0
M  V30 680 C 67.5705 -3.35609 -1.31905 0
M  V30 681 O 66.6745 -3.3287 -2.43457 0
M  V30 682 H 66.0155 -0.64211 -0.169086 0
M  V30 683 H 68.5455 -2.04318 0.107399 0
M  V30 684 H 68.5555 -3.72126 -1.67291 0
M  V30 685 H 67.2305 -4.11685 -0.590586 0
M  V30 686 H 65.8075 -3.08087 -2.10088 0
M  V30 687 N 67.9926 0.231505 -1.5589 0
M  V30 688 C 69.2696 0.981096 -1.69215 0
M  V30 689 C 69.6496 2.02799 -0.586164 0
M  V30 690 O 68.9976 2.24823 0.408253 0
M  V30 691 C 69.2076 1.60054 -3.10135 0
M  V30 692 C 70.5556 2.09658 -3.69227 0
M  V30 693 O 71.5796 1.69967 -3.13033 0
M  V30 694 O 70.4386 2.8258 -4.67772 0
M  V30 695 H 67.5326 0.457653 -0.688827 0
M  V30 696 H 70.0786 0.224073 -1.68214 0
M  V30 697 H 68.8506 0.844105 -3.82087 0
M  V30 698 H 68.4736 2.42336 -3.15212 0
M  V30 699 N 69.4707 1.49531 0.497807 0
M  V30 700 C 70.4177 1.66436 1.59899 0
M  V30 701 C 71.3877 0.505793 1.58212 0
M  V30 702 O 72.5727 0.733202 1.7615 0
M  V30 703 C 69.7127 1.7399 2.98029 0
M  V30 704 C 68.8257 3.01172 3.09708 0
M  V30 705 C 67.9607 2.99686 4.38591 0
M  V30 706 C 66.9997 4.21434 4.43914 0
M  V30 707 N 66.1367 4.1784 5.64229 0
M  V30 708 H 70.9767 2.60459 1.44793 0
M  V30 709 H 68.5137 1.29137 0.704423 0
M  V30 710 H 70.4717 1.76352 3.78095 0
M  V30 711 H 69.1017 0.834301 3.11832 0
M  V30 712 H 68.1537 3.08408 2.22685 0
M  V30 713 H 69.4657 3.91165 3.09502 0
M  V30 714 H 68.6197 3.00628 5.2698 0
M  V30 715 H 67.3587 2.07477 4.41367 0
M  V30 716 H 66.3637 4.20733 3.53926 0
M  V30 717 H 67.5887 5.14839 4.42851 0
M  V30 718 H 65.5347 3.28469 5.67841 0
M  V30 719 H 65.4517 5.01571 5.65652 0
M  V30 720 H 66.7197 4.22889 6.54817 0
M  V30 721 N 70.9488 -0.749086 1.3866 0
M  V30 722 C 71.8588 -1.89358 1.38494 0
M  V30 723 C 72.8748 -1.71708 0.281476 0
M  V30 724 O 74.0508 -1.94554 0.520643 0
M  V30 725 C 71.1158 -3.24782 1.21316 0
M  V30 726 C 70.1768 -3.54926 2.41508 0
M  V30 727 C 69.4098 -4.83888 2.2514 0
M  V30 728 O 69.6328 -5.56592 1.24746 0
M  V30 729 O 68.5668 -5.13612 3.13826 0
M  V30 730 H 72.3928 -1.92452 2.34938 0
M  V30 731 H 69.9778 -0.894981 1.19626 0
M  V30 732 H 71.8598 -4.05739 1.13814 0
M  V30 733 H 70.5348 -3.2249 0.279592 0
M  V30 734 H 69.4418 -2.74112 2.54585 0
M  V30 735 H 70.7748 -3.61983 3.3351 0
M  V30 736 N 72.4269 -1.23603 -0.977757 0
M  V30 737 C 73.6729 -1.07129 -1.72195 0
M  V30 738 C 74.0059 0.390501 -1.90233 0
M  V30 739 O 73.2809 1.28902 -1.45653 0
M  V30 740 C 73.5639 -1.80031 -3.11867 0
M  V30 741 C 73.4169 -3.33899 -3.01383 0
M  V30 742 C 74.7359 -1.56492 -4.11337 0
M  V30 743 H 71.8549 -0.390571 -0.624999 0
M  V30 744 H 74.4969 -1.52142 -1.13811 0
M  V30 745 H 72.6469 -1.41768 -3.6171 0
M  V30 746 H 74.3189 -3.81699 -2.59043 0
M  V30 747 H 72.5619 -3.62796 -2.37827 0
M  V30 748 H 73.2329 -3.801 -4.00285 0
M  V30 749 H 75.7089 -1.89757 -3.70313 0
M  V30 750 H 74.5849 -2.09973 -5.07151 0
M  V30 751 H 74.8459 -0.500874 -4.39254 0
M  V30 752 N 73.905 1.17692 -1.04816 0
M  V30 753 C 74.815 2.25229 -0.65643 0
M  V30 754 C 75.831 1.71018 0.320761 0
M  V30 755 O 77.007 2.00649 0.173805 0
M  V30 756 C 74.072 3.46684 -0.0332629 0
M  V30 757 C 73.133 4.15997 -1.06042 0
M  V30 758 C 72.366 5.31654 -0.466893 0
M  V30 759 O 72.589 5.65777 0.724758 0
M  V30 760 O 71.523 5.89831 -1.1993 0
M  V30 761 H 75.349 2.61016 -1.55255 0
M  V30 762 H 72.934 1.24919 -0.81949 0
M  V30 763 H 74.816 4.20234 0.313256 0
M  V30 764 H 73.491 3.12703 0.836566 0
M  V30 765 H 72.398 3.44482 -1.45886 0
M  V30 766 H 73.731 4.53996 -1.90127 0
M  V30 767 N 75.3831 0.828654 1.34056 0
M  V30 768 C 76.6111 0.43262 2.02326 0
M  V30 769 C 77.0261 -0.963147 1.62385 0
M  V30 770 O 76.3831 -1.62425 0.832121 0
M  V30 771 C 76.4341 0.53182 3.57567 0
M  V30 772 O 76.1551 1.87258 3.96063 0
M  V30 773 C 77.6561 0.131422 4.43105 0
M  V30 774 H 74.8761 0.172923 0.648335 0
M  V30 775 H 77.4201 1.1184 1.71208 0
M  V30 776 H 75.5751 -0.105938 3.87255 0
M  V30 777 H 75.9891 1.85087 4.90758 0
M  V30 778 H 77.4631 0.251904 5.51425 0
M  V30 779 H 77.9401 -0.925645 4.29335 0
M  V30 780 H 78.5461 0.743207 4.18756 0
M  V30 781 N 76.8612 -1.46375 0.584142 0
M  V30 782 C 78.2722 -1.86031 0.157959 0
M  V30 783 C 78.6232 -1.48753 -1.27933 0
M  V30 784 O 77.7482 -0.903098 -1.96655 0
M  V30 785 C 78.3432 -3.37642 0.279892 0
M  V30 786 C 76.9022 -3.76289 -0.09143 0
M  V30 787 C 76.0492 -2.7039 0.615178 0
M  V30 788 H 79.0002 -1.37509 0.792274 0
M  V30 789 H 79.0212 -3.77275 -0.494364 0
M  V30 790 H 78.5332 -3.64742 1.32607 0
M  V30 791 H 76.6342 -3.54806 -1.13769 0
M  V30 792 H 76.7472 -4.78246 0.285886 0
M  V30 793 H 75.1112 -2.5464 0.0552833 0
M  V30 794 H 75.8942 -3.0033 1.66303 0
M  V30 795 N 78.3393 -0.321999 -1.54275 0
M  V30 796 C 79.2493 0.553631 -2.27974 0
M  V30 797 C 80.2653 1.13054 -1.32268 0
M  V30 798 O 81.4413 1.15084 -1.6528 0
M  V30 799 C 78.5063 1.69927 -3.02201 0
M  V30 800 C 77.5673 1.15433 -4.1349 0
M  V30 801 C 76.8003 2.24537 -4.84168 0
M  V30 802 O 77.0233 3.44852 -4.5435 0
M  V30 803 O 75.9573 1.90044 -5.7111 0
M  V30 804 H 79.7833 -0.0448345 -3.03667 0
M  V30 805 H 77.3683 -0.0877418 -1.49142 0
M  V30 806 H 79.2503 2.3663 -3.48689 0
M  V30 807 H 77.9253 2.28395 -2.29385 0
M  V30 808 H 76.8323 0.452436 -3.71354 0
M  V30 809 H 78.1653 0.614805 -4.88345 0
M  V30 810 N 79.8174 1.5752 -0.0501392 0
M  V30 811 C 80.7644 2.1147 0.924603 0
M  V30 812 C 81.7344 1.02182 1.30951 0
M  V30 813 O 82.9194 1.29723 1.39916 0
M  V30 814 C 80.0594 2.66337 2.19451 0
M  V30 815 C 79.1724 3.89708 1.86418 0
M  V30 816 C 78.3074 4.32893 3.07859 0
M  V30 817 C 77.3464 5.48967 2.70742 0
M  V30 818 N 76.4834 5.87211 3.84874 0
M  V30 819 H 81.3234 2.94465 0.457639 0
M  V30 820 H 78.8604 1.45531 0.214266 0
M  V30 821 H 80.8184 2.96247 2.93758 0
M  V30 822 H 79.4484 1.86141 2.63726 0
M  V30 823 H 78.5004 3.66396 1.02264 0
M  V30 824 H 79.8124 4.74074 1.55096 0
M  V30 825 H 78.9664 4.6435 3.90466 0
M  V30 826 H 77.7054 3.47336 3.42358 0
M  V30 827 H 76.7104 5.17183 1.86551 0
M  V30 828 H 77.9354 6.3624 2.37436 0
M  V30 829 H 75.8814 5.04607 4.19175 0
M  V30 830 H 75.7984 6.66266 3.57247 0
M  V30 831 H 77.0664 6.23282 4.68123 0
M  V30 832 N 81.2955 -0.223234 1.56011 0
M  V30 833 C 82.2425 -1.27664 1.92277 0
M  V30 834 C 83.2125 -1.46659 0.779763 0
M  V30 835 O 84.3975 -1.60256 1.03551 0
M  V30 836 C 81.5375 -2.62234 2.24338 0
M  V30 837 C 80.6505 -2.51051 3.51564 0
M  V30 838 C 79.7855 -3.78133 3.7308 0
M  V30 839 C 78.8245 -3.61665 4.93827 0
M  V30 840 N 77.9615 -4.80693 5.11741 0
M  V30 841 H 82.8015 -0.960358 2.82101 0
M  V30 842 H 80.3385 -0.462901 1.39627 0
M  V30 843 H 82.2965 -3.40596 2.40936 0
M  V30 844 H 80.9265 -2.91961 1.3769 0
M  V30 845 H 79.9785 -1.64132 3.43169 0
M  V30 846 H 81.2905 -2.34803 4.40079 0
M  V30 847 H 80.4445 -4.64938 3.89766 0
M  V30 848 H 79.1835 -3.97304 2.82844 0
M  V30 849 H 78.1885 -2.73244 4.77093 0
M  V30 850 H 79.4135 -3.43966 5.85546 0
M  V30 851 H 77.3595 -5.00181 4.24446 0
M  V30 852 H 77.2765 -4.67165 5.94384 0
M  V30 853 H 78.5445 -5.6893 5.3286 0
M  V30 854 N 82.7736 -1.49793 -0.48987 0
M  V30 855 C 83.7056 -1.63413 -1.60713 0
M  V30 856 C 84.7186 -0.516329 -1.54395 0
M  V30 857 O 85.9076 -0.788812 -1.60125 0
M  V30 858 C 83.0076 -1.58516 -2.99543 0
M  V30 859 C 82.1806 -2.86016 -3.30928 0
M  V30 860 C 81.2396 -2.74018 -4.49222 0
M  V30 861 O 80.2656 -3.47964 -4.50455 0
M  V30 862 N 81.4676 -1.86309 -5.4979 0
M  V30 863 H 84.2326 -2.59777 -1.49452 0
M  V30 864 H 81.7936 -1.47022 -0.677955 0
M  V30 865 H 83.7856 -1.48128 -3.76617 0
M  V30 866 H 82.3556 -0.69965 -3.0467 0
M  V30 867 H 81.5756 -3.10672 -2.42645 0
M  V30 868 H 82.8636 -3.70521 -3.487 0
M  V30 869 H 82.2616 -1.2551 -5.51601 0
M  V30 870 H 80.8186 -1.81837 -6.25922 0
M  V30 871 N 84.2517 0.741722 -1.39055 0
M  V30 872 C 85.1997 1.87702 -1.3737 0
M  V30 873 C 86.1937 1.67427 -0.257812 0
M  V30 874 O 87.3997 1.7485 -0.427489 0
M  V30 875 H 83.7747 0.617757 -0.428812 0
M  V30 876 H 85.7457 1.86239 -2.33147 0
M  V30 877 C 84.4947 3.25315 -1.22741 0
M  V30 878 H 83.8177 3.41509 -2.07873 0
M  V30 879 H 85.2577 4.04964 -1.25618 0
M  V30 880 C 83.7167 3.36838 0.0647316 0
M  V30 881 O 84.2467 3.88073 1.03741 0
M  V30 882 N 82.4527 2.90329 0.125544 0
M  V30 883 H 81.9997 2.48823 -0.666682 0
M  V30 884 H 81.9577 2.98418 0.989639 0
M  V30 885 N 85.7298 1.2412 0.971189 0
M  V30 886 C 87.0068 0.986867 1.6888 0
M  V30 887 C 87.3868 -0.491857 2.0529 0
M  V30 888 O 86.7348 -1.46531 1.75331 0
M  V30 889 C 86.9448 1.9063 2.92338 0
M  V30 890 C 88.2928 2.17515 3.64654 0
M  V30 891 O 89.3168 1.88254 3.02388 0
M  V30 892 O 88.1758 2.6719 4.7673 0
M  V30 893 H 85.2698 0.372944 0.738134 0
M  V30 894 H 87.8158 1.35203 1.02559 0
M  V30 895 H 86.5878 2.90552 2.62097 0
M  V30 896 H 86.2108 1.54408 3.66393 0
M  V30 897 N 87.2079 -1.17134 1.05439 0
M  V30 898 C 88.1399 -2.2078 0.615539 0
M  V30 899 C 89.1529 -1.59584 -0.322001 0
M  V30 900 O 90.3419 -1.78133 -0.114344 0
M  V30 901 C 87.4419 -3.38691 -0.118938 0
M  V30 902 C 86.6149 -4.29454 0.829924 0
M  V30 903 C 85.6739 -5.26024 0.136258 0
M  V30 904 O 84.6999 -5.63952 0.77115 0
M  V30 905 N 85.9019 -5.69487 -1.1254 0
M  V30 906 H 88.6669 -2.59052 1.50705 0
M  V30 907 H 86.2279 -1.32058 0.936603 0
M  V30 908 H 88.2199 -4.00329 -0.593179 0
M  V30 909 H 86.7899 -2.98996 -0.91215 0
M  V30 910 H 86.0099 -3.65211 1.48373 0
M  V30 911 H 87.2979 -4.86984 1.47392 0
M  V30 912 H 86.6959 -5.4075 -1.6615 0
M  V30 913 H 85.2529 -6.33257 -1.54366 0
M  V30 914 N 88.686 -0.835752 -1.33615 0
M  V30 915 C 90.102 -0.523139 -1.50783 0
M  V30 916 C 90.302 0.950171 -1.77691 0
M  V30 917 O 89.358 1.73411 -1.83534 0
M  V30 918 C 90.671 -1.39378 -2.66448 0
M  V30 919 C 92.219 -1.39223 -2.80332 0
M  V30 920 C 92.694 -2.24765 -3.99055 0
M  V30 921 N 94.185 -2.22458 -4.06284 0
M  V30 922 C 94.92 -2.85386 -4.97336 0
M  V30 923 N 94.416 -3.57354 -5.93523 0
M  V30 924 N 96.209 -2.74872 -4.90308 0
M  V30 925 H 88.36 -1.78952 -1.14411 0
M  V30 926 H 90.623 -0.763297 -0.562212 0
M  V30 927 H 90.329 -2.44061 -2.53234 0
M  V30 928 H 90.203 -1.0676 -3.61776 0
M  V30 929 H 92.59 -0.353136 -2.92979 0
M  V30 930 H 92.671 -1.75846 -1.85773 0
M  V30 931 H 92.315 -3.28732 -3.87167 0
M  V30 932 H 92.245 -1.85485 -4.92852 0
M  V30 933 H 94.736 -1.70119 -3.37443 0
M  V30 934 H 95.049 -4.02584 -6.59656 0
M  V30 935 H 93.394 -3.61461 -5.93608 0
M  V30 936 H 96.585 -2.18213 -4.14126 0
M  V30 937 H 96.758 -3.24199 -5.61069 0
M  V30 938 N 90.1641 1.46063 -0.591896 0
M  V30 939 C 91.1121 2.32124 0.148739 0
M  V30 940 C 92.1061 1.45035 0.875286 0
M  V30 941 O 93.3121 1.61609 0.792632 0
M  V30 942 H 89.6871 0.749024 0.066832 0
M  V30 943 H 91.6581 2.92392 -0.595783 0
M  V30 944 C 90.4071 3.28373 1.1431 0
M  V30 945 H 89.7301 3.95371 0.59346 0
M  V30 946 H 91.1701 3.91352 1.63155 0
M  V30 947 C 89.6291 2.54393 2.20875 0
M  V30 948 O 90.1591 2.31373 3.28374 0
M  V30 949 N 88.3651 2.14797 1.95731 0
M  V30 950 H 87.9121 2.33719 1.08319 0
M  V30 951 H 87.8701 1.65619 2.67241 0
M  V30 952 N 91.6422 0.330177 1.54103 0
M  V30 953 C 93.0582 -0.0222371 1.59585 0
M  V30 954 C 93.2582 -1.49902 1.34654 0
M  V30 955 O 92.3142 -2.25592 1.13421 0
M  V30 956 C 93.6272 0.401932 2.98002 0
M  V30 957 C 95.1752 0.353145 3.11001 0
M  V30 958 C 95.6502 0.752576 4.51775 0
M  V30 959 N 97.1412 0.706239 4.57784 0
M  V30 960 C 97.8762 0.987417 5.64834 0
M  V30 961 N 97.3722 1.33607 6.79795 0
M  V30 962 N 99.1652 0.91254 5.54643 0
M  V30 963 H 91.3162 1.29228 1.68564 0
M  V30 964 H 93.5792 0.525906 0.78875 0
M  V30 965 H 93.2852 1.4311 3.21267 0
M  V30 966 H 93.1592 -0.229699 3.765 0
M  V30 967 H 95.5462 -0.666822 2.87467 0
M  V30 968 H 95.6272 1.0198 2.34593 0
M  V30 969 H 95.2712 1.77049 4.76042 0
M  V30 970 H 95.2012 0.0635409 5.26562 0
M  V30 971 H 97.6922 0.44889 3.75224 0
M  V30 972 H 98.0052 1.53582 7.57385 0
M  V30 973 H 96.3502 1.37439 6.81275 0
M  V30 974 H 99.5412 0.639601 4.6371 0
M  V30 975 H 99.7142 1.13503 6.37982 0
M  V30 976 N 93.1203 -1.57491 0.0584922 0
M  V30 977 C 94.0673 -2.11958 -0.913376 0
M  V30 978 C 95.0373 -1.02875 -1.30407 0
M  V30 979 O 96.2223 -1.30464 -1.39226 0
M  V30 980 C 93.3623 -2.67497 -2.18035 0
M  V30 981 C 92.4753 -3.90691 -1.84349 0
M  V30 982 C 91.6103 -4.3452 -3.05559 0
M  V30 983 C 90.6493 -5.50395 -2.67827 0
M  V30 984 N 89.7863 -5.89244 -3.81754 0
M  V30 985 H 94.6263 -2.94704 -0.442017 0
M  V30 986 H 92.1633 -1.45643 -0.206545 0
M  V30 987 H 94.1213 -2.978 -2.92183 0
M  V30 988 H 92.7513 -1.87537 -2.62735 0
M  V30 989 H 91.8033 -3.66934 -1.00319 0
M  V30 990 H 93.1153 -4.7489 -1.5258 0
M  V30 991 H 92.2693 -4.66414 -3.87998 0
M  V30 992 H 91.0083 -3.49147 -3.40511 0
M  V30 993 H 90.0133 -5.18165 -1.83806 0
M  V30 994 H 91.2383 -6.3749 -2.34059 0
M  V30 995 H 89.1843 -5.06823 -4.16493 0
M  V30 996 H 89.1013 -6.68151 -3.53708 0
M  V30 997 H 90.3693 -6.25756 -4.64811 0
M  V30 998 N 94.5984 0.214957 -1.56127 0
M  V30 999 C 96.0144 0.564948 -1.49267 0
M  V30 1000 C 96.2144 1.86827 -0.754838 0
M  V30 1001 O 95.2704 2.50745 -0.297198 0
M  V30 1002 C 96.5834 0.638071 -2.93852 0
M  V30 1003 C 98.1314 0.728253 -3.0441 0
M  V30 1004 C 98.6064 0.832663 -4.50367 0
M  V30 1005 N 100.097 0.896712 -4.54437 0
M  V30 1006 C 100.832 0.997324 -5.6466 0
M  V30 1007 N 100.328 1.06147 -6.8462 0
M  V30 1008 N 102.121 1.03297 -5.52527 0
M  V30 1009 H 94.2724 -0.640211 -2.02522 0
M  V30 1010 H 96.5354 -0.225507 -0.920788 0
M  V30 1011 H 96.2414 -0.250126 -3.50809 0
M  V30 1012 H 96.1154 1.49947 -3.46115 0
M  V30 1013 H 98.5024 1.60689 -2.47514 0
M  V30 1014 H 98.5834 -0.158952 -2.55306 0
M  V30 1015 H 98.2274 -0.0415417 -5.07883 0
M  V30 1016 H 98.1574 1.73538 -4.97184 0
M  V30 1017 H 100.648 0.857188 -3.6805 0
M  V30 1018 H 100.961 1.1382 -7.64372 0
M  V30 1019 H 99.3064 1.03049 -6.87318 0
M  V30 1020 H 102.497 0.979558 -4.57736 0
M  V30 1021 H 102.67 1.10793 -6.38458 0
M  V30 1022 N 96.0765 1.50051 0.48192 0
M  V30 1023 C 97.0235 1.68122 1.58125 0
M  V30 1024 C 97.9935 0.522545 1.57666 0
M  V30 1025 O 99.1785 0.751844 1.75362 0
M  V30 1026 C 96.3185 1.77142 2.96167 0
M  V30 1027 C 95.4315 3.0444 3.06497 0
M  V30 1028 C 94.5665 3.04321 4.35387 0
M  V30 1029 C 93.6055 4.26118 4.3942 0
M  V30 1030 N 92.7425 4.238 5.59766 0
M  V30 1031 H 97.5825 2.6198 1.42022 0
M  V30 1032 H 95.1195 1.29877 0.690687 0
M  V30 1033 H 97.0775 1.80352 3.76203 0
M  V30 1034 H 95.7075 0.867329 3.1093 0
M  V30 1035 H 94.7595 3.10752 2.19402 0
M  V30 1036 H 96.0715 3.94426 3.05336 0
M  V30 1037 H 95.2255 3.062 5.23762 0
M  V30 1038 H 93.9645 2.12147 4.39141 0
M  V30 1039 H 92.9695 4.24463 3.49444 0
M  V30 1040 H 94.1945 5.19507 4.37366 0
M  V30 1041 H 92.1405 3.34474 5.64326 0
M  V30 1042 H 92.0575 5.07542 5.60301 0
M  V30 1043 H 93.3255 4.2981 6.50295 0
M  V30 1044 N 97.5546 -0.734337 1.39446 0
M  V30 1045 C 98.5176 -1.83004 1.37994 0
M  V30 1046 C 99.5176 -1.58397 0.276938 0
M  V30 1047 O 100.708 -1.65785 0.534875 0
M  V30 1048 C 97.8396 -3.20802 1.1532 0
M  V30 1049 H 99.0326 -1.85694 2.35494 0
M  V30 1050 H 96.5856 -0.938059 1.25021 0
M  V30 1051 H 97.3206 -3.23772 0.185036 0
M  V30 1052 H 97.1056 -3.4006 1.95197 0
M  V30 1053 H 98.5956 -4.00862 1.17046 0
M  V30 1054 N 99.0327 -1.24633 -0.964593 0
M  V30 1055 C 99.9427 -1.05859 -2.09359 0
M  V30 1056 C 100.959 0.00148855 -1.74 0
M  V30 1057 O 102.135 -0.197346 -2.00431 0
M  V30 1058 C 99.1997 -0.668879 -3.40187 0
M  V30 1059 C 98.2607 -1.80578 -3.89474 0
M  V30 1060 C 97.4937 -1.43457 -5.14058 0
M  V30 1061 O 97.7167 -0.325775 -5.69469 0
M  V30 1062 O 96.6507 -2.2613 -5.57807 0
M  V30 1063 H 100.477 -2.00516 -2.28094 0
M  V30 1064 H 98.0617 -1.03481 -1.0776 0
M  V30 1065 H 99.9437 -0.463211 -4.18846 0
M  V30 1066 H 98.6187 0.248536 -3.22744 0
M  V30 1067 H 97.5257 -2.06623 -3.11862 0
M  V30 1068 H 98.8587 -2.70208 -4.11398 0
M  V30 1069 N 100.511 1.16574 -1.06058 0
M  V30 1070 C 101.922 1.68662 -0.800632 0
M  V30 1071 C 102.273 1.84184 0.67608 0
M  V30 1072 O 101.398 1.53568 1.52466 0
M  V30 1073 C 101.993 3.06356 -1.44676 0
M  V30 1074 C 100.552 3.55575 -1.23465 0
M  V30 1075 C 99.6988 2.31616 -1.52477 0
M  V30 1076 H 102.65 1.00969 -1.22438 0
M  V30 1077 H 102.671 3.70636 -0.860788 0
M  V30 1078 H 102.183 2.95027 -2.52152 0
M  V30 1079 H 100.284 3.72167 -0.179527 0
M  V30 1080 H 100.397 4.37812 -1.94571 0
M  V30 1081 H 98.7608 2.36512 -0.945209 0
M  V30 1082 H 99.5438 2.22887 -2.61106 0
M  V30 1083 N 101.989 0.842826 1.3317 0
M  V30 1084 C 103.219 0.453397 2.01564 0
M  V30 1085 C 103.627 -0.951147 1.63554 0
M  V30 1086 O 102.97 -1.63021 0.846746 0
M  V30 1087 C 103.032 0.499013 3.5602 0
M  V30 1088 C 102.696 1.86037 4.1742 0
M  V30 1089 C 103.693 2.82416 4.36506 0
M  V30 1090 C 101.378 2.15428 4.53757 0
M  V30 1091 C 103.372 4.06346 4.91082 0
M  V30 1092 C 101.059 3.39615 5.0804 0
M  V30 1093 C 102.057 4.3489 5.26649 0
M  V30 1094 O 101.745 5.5688 5.79776 0
M  V30 1095 H 101.477 0.177871 0.652179 0
M  V30 1096 H 104.031 1.13808 1.70988 0
M  V30 1097 H 102.261 -0.242467 3.85939 0
M  V30 1098 H 103.95 0.126852 4.05702 0
M  V30 1099 H 104.716 2.6101 4.08777 0
M  V30 1100 H 100.595 1.42061 4.38565 0
M  V30 1101 H 104.139 4.80722 5.05522 0
M  V30 1102 H 100.036 3.60876 5.352 0
M  V30 1103 H 100.804 5.58674 5.98185 0
M  V30 1104 N 103.467 -1.45747 0.599634 0
M  V30 1105 C 104.377 -2.34262 -0.125888 0
M  V30 1106 C 105.393 -1.50768 -0.868625 0
M  V30 1107 O 106.569 -1.83592 -0.828003 0
M  V30 1108 C 103.634 -3.28252 -1.11587 0
M  V30 1109 C 102.695 -4.27651 -0.375956 0
M  V30 1110 C 101.928 -5.1715 -1.31877 0
M  V30 1111 O 102.151 -5.09916 -2.55621 0
M  V30 1112 O 101.085 -5.96286 -0.820157 0
M  V30 1113 H 104.911 -2.97688 0.601315 0
M  V30 1114 H 102.496 -1.44999 0.359934 0
M  V30 1115 H 104.378 -3.86191 -1.68626 0
M  V30 1116 H 103.053 -2.67401 -1.82424 0
M  V30 1117 H 101.96 -3.7335 0.236698 0
M  V30 1118 H 103.293 -4.91334 0.29177 0
M  V30 1119 N 104.945 -0.338344 -1.53925 0
M  V30 1120 C 106.173 0.261298 -2.05243 0
M  V30 1121 C 106.588 1.44625 -1.21363 0
M  V30 1122 O 105.945 1.80811 -0.247736 0
M  V30 1123 C 105.996 0.681412 -3.5502 0
M  V30 1124 O 105.717 -0.456414 -4.35716 0
M  V30 1125 C 107.218 1.34232 -4.22489 0
M  V30 1126 H 104.438 0.0513685 -0.669031 0
M  V30 1127 H 106.982 -0.488822 -1.98572 0
M  V30 1128 H 105.137 1.38148 -3.61931 0
M  V30 1129 H 105.551 -0.122564 -5.24357 0
M  V30 1130 H 107.025 1.58708 -5.28693 0
M  V30 1131 H 107.502 2.29426 -3.74514 0
M  V30 1132 H 108.108 0.684424 -4.19757 0
M  V30 1133 N 106.423 1.57458 -0.0668435 0
M  V30 1134 C 107.648 1.9804 0.616027 0
M  V30 1135 C 108.073 0.944771 1.62652 0
M  V30 1136 O 107.431 -0.0902094 1.81075 0
M  V30 1137 C 107.479 3.37665 1.26549 0
M  V30 1138 O 106.583 3.36701 2.38131 0
M  V30 1139 H 105.924 0.644719 0.158849 0
M  V30 1140 H 108.454 2.04121 -0.139891 0
M  V30 1141 H 108.464 3.7474 1.6135 0
M  V30 1142 H 107.139 4.12573 0.525016 0
M  V30 1143 H 105.716 3.1139 2.0516 0
M  V30 1144 N 107.901 -0.206675 1.56239 0
M  V30 1145 C 108.833 -1.27997 1.9013 0
M  V30 1146 C 109.846 -1.42299 0.790883 0
M  V30 1147 O 111.035 -1.42931 1.06925 0
M  V30 1148 C 108.135 -2.65368 2.10792 0
M  V30 1149 C 107.308 -2.72824 3.41886 0
M  V30 1150 C 106.367 -3.9131 3.51799 0
M  V30 1151 O 105.393 -3.78953 4.24716 0
M  V30 1152 N 106.595 -5.06265 2.84035 0
M  V30 1153 H 109.36 -0.992444 2.82791 0
M  V30 1154 H 106.921 -0.396652 1.56966 0
M  V30 1155 H 108.913 -3.43039 2.14724 0
M  V30 1156 H 107.483 -2.86657 1.24685 0
M  V30 1157 H 106.703 -1.81515 3.49923 0
M  V30 1158 H 107.991 -2.74786 4.28217 0
M  V30 1159 H 107.389 -5.19203 2.246 0
M  V30 1160 H 105.946 -5.81925 2.93609 0
M  V30 1161 N 109.379 -1.50304 -0.473955 0
M  V30 1162 C 110.627 -1.60832 -1.22382 0
M  V30 1163 C 110.948 -0.30939 -1.9253 0
M  V30 1164 O 110.218 0.67296 -1.83978 0
M  V30 1165 H 108.798 -0.592652 -0.454723 0
M  V30 1166 H 111.46 -1.87068 -0.546968 0
M  V30 1167 H 110.556 -2.41803 -1.97327 0
M  V30 1168 N 110.857 0.726932 -1.39834 0
M  V30 1169 C 111.804 1.841 -1.39197 0
M  V30 1170 C 112.774 1.642 -0.250502 0
M  V30 1171 O 113.959 1.85494 -0.446846 0
M  V30 1172 C 111.099 3.21697 -1.24919 0
M  V30 1173 C 110.212 3.53247 -2.48678 0
M  V30 1174 C 109.347 4.80289 -2.26928 0
M  V30 1175 C 108.386 5.04707 -3.4632 0
M  V30 1176 N 107.523 6.22956 -3.23836 0
M  V30 1177 H 112.363 1.83979 -2.34427 0
M  V30 1178 H 109.9 0.898876 -1.16442 0
M  V30 1179 H 111.858 4.01137 -1.1465 0
M  V30 1180 H 110.488 3.21076 -0.333153 0
M  V30 1181 H 109.54 2.68447 -2.69519 0
M  V30 1182 H 110.852 3.67205 -3.37582 0
M  V30 1183 H 110.006 5.67725 -2.13947 0
M  V30 1184 H 108.745 4.68519 -1.35431 0
M  V30 1185 H 107.75 4.1573 -3.5979 0
M  V30 1186 H 108.975 5.18357 -4.38729 0
M  V30 1187 H 106.921 6.12459 -2.35011 0
M  V30 1188 H 106.838 6.37539 -4.063 0
M  V30 1189 H 108.106 7.1321 -3.14566 0
M  V30 1190 N 112.336 1.25143 0.95797 0
M  V30 1191 C 113.584 1.09476 1.69881 0
M  V30 1192 C 113.905 -0.365502 1.91544 0
M  V30 1193 O 113.175 -1.25985 1.50015 0
M  V30 1194 H 111.755 0.402128 0.629525 0
M  V30 1195 H 114.417 1.57214 1.15194 0
M  V30 1196 H 113.513 1.60046 2.6794 0
M  V30 1197 N 113.814 -1.1601 1.06675 0
M  V30 1198 C 115.042 -1.90527 0.806667 0
M  V30 1199 C 115.457 -1.77643 -0.639396 0
M  V30 1200 O 114.814 -1.12369 -1.43803 0
M  V30 1201 C 114.865 -3.41106 1.19705 0
M  V30 1202 O 114.586 -3.53608 2.58636 0
M  V30 1203 C 116.087 -4.32663 0.965266 0
M  V30 1204 H 113.307 -0.604053 0.292166 0
M  V30 1205 H 115.851 -1.47026 1.4214 0
M  V30 1206 H 114.006 -3.82296 0.626774 0
M  V30 1207 H 114.42 -4.47011 2.74375 0
M  V30 1208 H 115.894 -5.36763 1.288 0
M  V30 1209 H 116.371 -4.39089 -0.0987936 0
M  V30 1210 H 116.977 -3.97206 1.52011 0
M  V30 1211 N 115.292 -0.849877 -1.32721 0
M  V30 1212 C 116.703 -0.506188 -1.79707 0
M  V30 1213 C 117.054 0.975627 -1.70223 0
M  V30 1214 O 116.179 1.76078 -1.25799 0
M  V30 1215 C 116.774 -0.912044 -3.26293 0
M  V30 1216 C 115.333 -0.620326 -3.71253 0
M  V30 1217 C 114.48 -1.11439 -2.53922 0
M  V30 1218 H 117.431 -1.03754 -1.20087 0
M  V30 1219 H 117.452 -0.226493 -3.79825 0
M  V30 1220 H 116.964 -1.99057 -3.33164 0
M  V30 1221 H 115.065 0.447674 -3.69901 0
M  V30 1222 H 115.178 -1.18327 -4.64258 0
M  V30 1223 H 113.542 -0.534834 -2.49021 0
M  V30 1224 H 114.325 -2.19992 -2.6355 0
M  V30 1225 N 116.77 1.45427 -0.607355 0
M  V30 1226 C 118.186 1.57283 -0.270985 0
M  V30 1227 C 118.386 1.59875 1.22647 0
M  V30 1228 O 117.442 1.52893 2.00948 0
M  V30 1229 C 118.755 2.85566 -0.941952 0
M  V30 1230 C 120.303 2.9924 -0.917849 0
M  V30 1231 C 120.778 4.30293 -1.56882 0
M  V30 1232 N 122.269 4.37051 -1.5343 0
M  V30 1233 C 123.004 5.37123 -2.00715 0
M  V30 1234 N 122.5 6.43734 -2.56084 0
M  V30 1235 N 124.293 5.28479 -1.91484 0
M  V30 1236 H 116.444 1.41988 -1.57966 0
M  V30 1237 H 118.707 0.67885 -0.661715 0
M  V30 1238 H 118.413 2.8955 -1.99633 0
M  V30 1239 H 118.287 3.74322 -0.465096 0
M  V30 1240 H 120.674 2.94822 0.127984 0
M  V30 1241 H 120.755 2.11895 -1.43297 0
M  V30 1242 H 120.399 4.35469 -2.61398 0
M  V30 1243 H 120.329 5.16454 -1.02873 0
M  V30 1244 H 122.82 3.60615 -1.12982 0
M  V30 1245 H 123.133 7.16341 -2.89958 0
M  V30 1246 H 121.478 6.44485 -2.60122 0
M  V30 1247 H 124.669 4.44098 -1.47967 0
M  V30 1248 H 124.842 6.0632 -2.28648 0
M  V30 1249 N 118.248 0.346503 1.53744 0
M  V30 1250 C 119.496 -0.248612 2.00565 0
M  V30 1251 C 119.817 -1.5083 1.23593 0
M  V30 1252 O 119.087 -1.92858 0.343912 0
M  V30 1253 H 117.667 -0.0948564 0.740953 0
M  V30 1254 H 120.329 0.468341 1.89189 0
M  V30 1255 H 119.425 -0.488994 3.08245 0
M  V30 1256 N 119.726 -1.57421 0.075193 0
M  V30 1257 C 120.676 -2.09441 -0.901025 0
M  V30 1258 C 121.66 -1.00486 -1.25663 0
M  V30 1259 O 122.852 -1.2679 -1.23504 0
M  V30 1260 C 119.981 -2.66233 -2.16737 0
M  V30 1261 C 119.067 -3.82198 -1.83808 0
M  V30 1262 N 119.458 -4.91028 -1.21345 0
M  V30 1263 C 117.756 -3.91558 -2.13538 0
M  V30 1264 C 118.457 -5.71852 -1.06585 0
M  V30 1265 N 117.433 -5.20233 -1.57667 0
M  V30 1266 H 121.235 -2.90972 -0.413815 0
M  V30 1267 H 118.749 -1.6189 -0.128601 0
M  V30 1268 H 120.746 -3.01819 -2.87595 0
M  V30 1269 H 119.406 -1.8615 -2.66042 0
M  V30 1270 H 120.417 -5.10323 -0.88268 0
M  V30 1271 H 117.094 -3.22454 -2.65197 0
M  V30 1272 H 118.484 -6.69401 -0.578933 0
M  V30 1273 N 121.204 0.198386 -1.56346 0
M  V30 1274 C 122.151 1.24589 -1.94284 0
M  V30 1275 C 123.121 1.454 -0.802997 0
M  V30 1276 O 124.306 1.58588 -1.06087 0
M  V30 1277 C 121.446 2.58631 -2.28482 0
M  V30 1278 C 120.559 2.45426 -3.55514 0
M  V30 1279 C 119.694 3.7215 -3.79049 0
M  V30 1280 C 118.733 3.53763 -4.99518 0
M  V30 1281 N 117.87 4.72491 -5.19323 0
M  V30 1282 H 122.71 0.915356 -2.83593 0
M  V30 1283 H 120.247 0.440629 -1.40346 0
M  V30 1284 H 122.205 3.3672 -2.46324 0
M  V30 1285 H 120.835 2.89734 -1.42317 0
M  V30 1286 H 119.887 1.58652 -3.45737 0
M  V30 1287 H 121.199 2.27772 -4.43758 0
M  V30 1288 H 120.353 4.58679 -3.97113 0
M  V30 1289 H 119.092 3.92754 -2.89129 0
M  V30 1290 H 118.097 2.65619 -4.8138 0
M  V30 1291 H 119.322 3.34607 -5.90944 0
M  V30 1292 H 117.268 4.93365 -4.3235 0
M  V30 1293 H 117.185 4.5765 -6.01741 0
M  V30 1294 H 118.453 5.6038 -5.41843 0
M  V30 1295 N 122.682 1.50554 0.465978 0
M  V30 1296 C 123.931 1.61038 1.21448 0
M  V30 1297 C 124.244 0.31865 1.92987 0
M  V30 1298 O 125.45 0.302469 2.6981 0
M  V30 1299 C 123.906 2.84283 2.20706 0
M  V30 1300 C 123.514 4.20352 1.54946 0
M  V30 1301 C 125.258 3.04115 2.96166 0
M  V30 1302 C 123.165 5.34778 2.5252 0
M  V30 1303 H 122.095 0.599718 0.457005 0
M  V30 1304 H 124.746 1.7699 0.484424 0
M  V30 1305 H 123.128 2.61901 2.97025 0
M  V30 1306 H 124.302 4.53008 0.843811 0
M  V30 1307 H 122.617 4.06167 0.917475 0
M  V30 1308 H 125.214 3.86774 3.69202 0
M  V30 1309 H 125.557 2.16045 3.55852 0
M  V30 1310 H 126.09 3.26702 2.26959 0
M  V30 1311 H 122.829 6.25018 1.97566 0
M  V30 1312 H 122.349 5.06534 3.21222 0
M  V30 1313 H 124.028 5.65561 3.14245 0
M  V30 1314 N 124.16 -0.719506 1.40217 0
M  V30 1315 C 125.385 -1.51371 1.4178 0
M  V30 1316 C 125.81 -1.88091 0.0182355 0
M  V30 1317 O 125.168 -1.52997 -0.972707 0
M  V30 1318 C 125.216 -2.768 2.31115 0
M  V30 1319 O 124.32 -3.73349 1.7517 0
M  V30 1320 H 123.661 -0.456529 0.482159 0
M  V30 1321 H 126.191 -0.88644 1.844 0
M  V30 1322 H 126.201 -3.25371 2.46167 0
M  V30 1323 H 124.876 -2.49407 3.3282 0
M  V30 1324 H 123.453 -3.32179 1.69444 0
M  V30 1325 N 125.638 -1.25649 -0.95132 0
M  V30 1326 C 126.915 -1.01361 -1.67288 0
M  V30 1327 C 127.295 0.459135 -2.06046 0
M  V30 1328 O 126.643 1.43723 -1.7764 0
M  V30 1329 C 126.853 -1.95256 -2.89268 0
M  V30 1330 C 128.201 -2.23289 -3.61147 0
M  V30 1331 O 129.225 -1.93041 -2.99355 0
M  V30 1332 O 128.084 -2.74741 -4.72419 0
M  V30 1333 H 125.178 -0.38464 -0.732107 0
M  V30 1334 H 127.724 -1.36817 -1.00395 0
M  V30 1335 H 126.496 -2.94685 -2.57442 0
M  V30 1336 H 126.119 -1.60218 -3.6389 0
M  V30 1337 N 127.117 1.15442 -1.07289 0
M  V30 1338 C 128.347 1.89821 -0.815576 0
M  V30 1339 C 128.755 1.7823 0.634867 0
M  V30 1340 O 128.098 1.13152 1.44715 0
M  V30 1341 C 128.16 3.40817 -1.14385 0
M  V30 1342 C 127.824 3.76193 -2.59476 0
M  V30 1343 C 128.821 3.77269 -3.57721 0
M  V30 1344 C 126.506 4.0652 -2.95037 0
M  V30 1345 C 128.5 4.08176 -4.89562 0
M  V30 1346 C 126.187 4.37092 -4.27076 0
M  V30 1347 C 127.185 4.37902 -5.24148 0
M  V30 1348 O 126.873 4.67741 -6.53815 0
M  V30 1349 H 126.605 0.608465 -0.294528 0
M  V30 1350 H 129.159 1.472 -1.43252 0
M  V30 1351 H 127.389 3.83835 -0.469865 0
M  V30 1352 H 129.078 3.96485 -0.869179 0
M  V30 1353 H 129.844 3.5394 -3.3159 0
M  V30 1354 H 125.723 4.05049 -2.20128 0
M  V30 1355 H 129.267 4.08723 -5.65324 0
M  V30 1356 H 125.164 4.59889 -4.5296 0
M  V30 1357 H 125.932 4.85509 -6.58957 0
M  V30 1358 N 128.595 0.856903 1.32268 0
M  V30 1359 C 129.842 0.461386 1.97174 0
M  V30 1360 C 130.17 -0.983491 1.67803 0
M  V30 1361 O 129.425 -1.70541 0.959903 0
M  V30 1362 C 129.724 0.649919 3.51441 0
M  V30 1363 C 129.39 2.0656 4.00804 0
M  V30 1364 C 128.052 2.45279 4.13995 0
M  V30 1365 C 130.404 2.98947 4.26943 0
M  V30 1366 C 127.732 3.75653 4.50668 0
M  V30 1367 C 130.084 4.28822 4.65075 0
M  V30 1368 C 128.748 4.67472 4.76472 0
M  V30 1369 H 128.018 0.168833 0.72151 0
M  V30 1370 H 130.665 1.08739 1.57633 0
M  V30 1371 H 128.97 -0.0593018 3.91755 0
M  V30 1372 H 130.667 0.32391 3.9969 0
M  V30 1373 H 127.257 1.75495 3.91024 0
M  V30 1374 H 131.441 2.70265 4.16258 0
M  V30 1375 H 126.697 4.05379 4.57688 0
M  V30 1376 H 130.871 5.0047 4.84255 0
M  V30 1377 H 128.498 5.68539 5.04646 0
M  V30 1378 N 130.073 -1.45103 0.615059 0
M  V30 1379 C 130.983 -2.34382 -0.101034 0
M  V30 1380 C 131.999 -1.51681 -0.852585 0
M  V30 1381 O 133.175 -1.8446 -0.808484 0
M  V30 1382 C 130.24 -3.29417 -1.08099 0
M  V30 1383 C 129.301 -4.28025 -0.330577 0
M  V30 1384 C 128.534 -5.1852 -1.26385 0
M  V30 1385 O 128.757 -5.12598 -2.50198 0
M  V30 1386 O 127.691 -5.97122 -0.756866 0
M  V30 1387 H 131.517 -2.97033 0.632855 0
M  V30 1388 H 129.102 -1.4461 0.375293 0
M  V30 1389 H 130.984 -3.87958 -1.6452 0
M  V30 1390 H 129.659 -2.69321 -1.79577 0
M  V30 1391 H 128.566 -3.73078 0.276283 0
M  V30 1392 H 129.899 -4.90997 0.343866 0
M  V30 1393 N 131.551 -0.354651 -1.53558 0
M  V30 1394 C 132.798 0.238443 -2.01091 0
M  V30 1395 C 133.126 1.49663 -1.24222 0
M  V30 1396 O 132.381 1.93049 -0.321003 0
M  V30 1397 C 132.68 0.587121 -3.52545 0
M  V30 1398 C 132.346 -0.575472 -4.47213 0
M  V30 1399 C 131.008 -0.894497 -4.72813 0
M  V30 1400 C 133.36 -1.35489 -5.03281 0
M  V30 1401 C 130.688 -1.99511 -5.51736 0
M  V30 1402 C 133.04 -2.44583 -5.83405 0
M  V30 1403 C 131.704 -2.77033 -6.07296 0
M  V30 1404 H 130.974 0.0872526 -0.735845 0
M  V30 1405 H 133.621 -0.484859 -1.8526 0
M  V30 1406 H 131.926 1.39129 -3.66265 0
M  V30 1407 H 133.623 1.05809 -3.86789 0
M  V30 1408 H 130.213 -0.316774 -4.27428 0
M  V30 1409 H 134.397 -1.12167 -4.83459 0
M  V30 1410 H 129.653 -2.25063 -5.68469 0
M  V30 1411 H 133.827 -3.05401 -6.25862 0
M  V30 1412 H 131.454 -3.6244 -6.68237 0
M  V30 1413 N 133.029 1.57378 -0.0835403 0
M  V30 1414 C 133.992 2.12252 0.864959 0
M  V30 1415 C 134.992 1.04916 1.21858 0
M  V30 1416 O 136.182 1.30853 1.14991 0
M  V30 1417 C 133.314 2.63358 2.16461 0
M  V30 1418 H 134.507 2.97371 0.388676 0
M  V30 1419 H 132.06 1.55423 0.165317 0
M  V30 1420 H 132.795 1.81727 2.686 0
M  V30 1421 H 132.58 3.41826 1.92087 0
M  V30 1422 H 134.07 3.05847 2.84337 0
M  V30 1423 N 134.507 -0.190092 1.56449 0
M  V30 1424 C 135.755 -0.907908 1.80559 0
M  V30 1425 C 136.076 -1.83583 0.657438 0
M  V30 1426 O 135.346 -1.93203 -0.323924 0
M  V30 1427 H 133.926 -0.338247 0.666032 0
M  V30 1428 H 136.588 -0.194403 1.93928 0
M  V30 1429 H 135.684 -1.49604 2.73907 0
M  V30 1430 N 135.985 -1.50799 -0.457987 0
M  V30 1431 C 137.233 -1.62121 -1.2067 0
M  V30 1432 C 137.554 -0.329793 -1.92191 0
M  V30 1433 O 136.824 0.653409 -1.84682 0
M  V30 1434 H 135.404 -0.597441 -0.448411 0
M  V30 1435 H 138.066 -1.87637 -0.527096 0
M  V30 1436 H 137.162 -2.43882 -1.94751 0
M  V30 1437 N 137.463 0.71206 -1.40597 0
M  V30 1438 C 138.688 1.50617 -1.42581 0
M  V30 1439 C 139.113 1.88079 -0.0282102 0
M  V30 1440 O 138.471 1.53511 0.964579 0
M  V30 1441 C 138.519 2.7557 -2.3258 0
M  V30 1442 O 137.623 3.72414 -1.77148 0
M  V30 1443 H 136.964 0.453966 -0.484573 0
M  V30 1444 H 139.494 0.876649 -1.84868 0
M  V30 1445 H 139.504 3.2406 -2.47889 0
M  V30 1446 H 138.179 2.47639 -3.34138 0
M  V30 1447 H 136.756 3.31276 -1.71204 0
M  V30 1448 N 138.941 1.26152 0.944643 0
M  V30 1449 C 139.904 1.07474 2.0244 0
M  V30 1450 C 140.904 0.0242064 1.60782 0
M  V30 1451 O 142.094 0.267302 1.72137 0
M  V30 1452 C 139.226 0.633956 3.34953 0
M  V30 1453 H 140.419 2.03336 2.20442 0
M  V30 1454 H 137.972 1.087 1.12312 0
M  V30 1455 H 138.707 -0.326811 3.22649 0
M  V30 1456 H 138.492 1.39247 3.66542 0
M  V30 1457 H 139.982 0.52501 4.14287 0
M  V30 1458 N 140.419 -1.14872 1.07899 0
M  V30 1459 C 141.83 -1.67367 0.827363 0
M  V30 1460 C 142.181 -1.85236 -0.646693 0
M  V30 1461 O 141.306 -1.55974 -1.50004 0
M  V30 1462 C 141.901 -3.04016 1.49532 0
M  V30 1463 C 140.46 -3.53566 1.29106 0
M  V30 1464 C 139.607 -2.29161 1.56143 0
M  V30 1465 H 142.558 -0.990083 1.24028 0
M  V30 1466 H 142.579 -3.69219 0.919643 0
M  V30 1467 H 142.091 -2.90978 2.56814 0
M  V30 1468 H 140.192 -3.71835 0.238713 0
M  V30 1469 H 140.305 -4.34661 2.01511 0
M  V30 1470 H 138.669 -2.34978 0.982717 0
M  V30 1471 H 139.452 -2.18705 2.64619 0
M  V30 1472 N 141.898 -0.863906 -1.31812 0
M  V30 1473 C 143.146 -0.470904 -1.96537 0
M  V30 1474 C 143.467 0.978771 -1.68657 0
M  V30 1475 O 142.737 1.6853 -0.998717 0
M  V30 1476 H 141.317 -0.171148 -0.72713 0
M  V30 1477 H 143.979 -1.10236 -1.60729 0
M  V30 1478 H 143.075 -0.623616 -3.05806 0
M  V30 1479 N 143.376 1.44774 -0.622745 0
M  V30 1480 C 144.604 2.06487 -0.130722 0
M  V30 1481 C 145.019 1.46476 1.19123 0
M  V30 1482 O 144.376 0.584502 1.72887 0
M  V30 1483 C 144.427 3.615 -0.000807207 0
M  V30 1484 O 144.148 4.19274 -1.27048 0
M  V30 1485 C 145.649 4.40229 0.520898 0
M  V30 1486 H 142.869 0.666704 -0.0758106 0
M  V30 1487 H 145.413 1.85779 -0.854774 0
M  V30 1488 H 143.568 3.81498 0.673643 0
M  V30 1489 H 143.982 5.12622 -1.1099 0
M  V30 1490 H 145.456 5.49144 0.560838 0
M  V30 1491 H 145.933 4.1108 1.54627 0
M  V30 1492 H 146.539 4.25131 -0.120018 0
M  V30 1493 N 144.854 0.36279 1.53368 0
M  V30 1494 C 146.079 -0.231226 2.06107 0
M  V30 1495 C 146.504 -1.419 1.23474 0
M  V30 1496 O 145.862 -1.79524 0.253128 0
M  V30 1497 C 145.91 -0.605523 3.5548 0
M  V30 1498 O 145.014 -1.70312 3.7559 0
M  V30 1499 H 144.355 -0.034327 0.663112 0
M  V30 1500 H 146.885 0.522584 1.97814 0
M  V30 1501 H 146.895 -0.877314 3.98456 0
M  V30 1502 H 145.57 0.263004 4.15068 0
M  V30 1503 H 144.147 -1.4271 3.44512 0
M  V30 1504 N 146.332 -1.57332 0.0918853 0
M  V30 1505 C 147.743 -1.81496 -0.437739 0
M  V30 1506 C 148.094 -1.00727 -1.6837 0
M  V30 1507 O 147.219 -0.235694 -2.15113 0
M  V30 1508 C 147.814 -3.29197 -0.800939 0
M  V30 1509 C 146.373 -3.54136 -1.27532 0
M  V30 1510 C 145.52 -2.75979 -0.270392 0
M  V30 1511 H 148.471 -1.55494 0.317366 0
M  V30 1512 H 148.492 -3.42344 -1.66074 0
M  V30 1513 H 148.004 -3.87955 0.106078 0
M  V30 1514 H 146.105 -3.00705 -2.20016 0
M  V30 1515 H 146.218 -4.62792 -1.23938 0
M  V30 1516 H 144.582 -2.43349 -0.751872 0
M  V30 1517 H 145.365 -3.37484 0.629248 0
M  V30 1518 N 147.81 0.181792 -1.56548 0
M  V30 1519 C 149.058 0.89832 -1.81038 0
M  V30 1520 C 149.379 1.83232 -0.667164 0
M  V30 1521 O 148.649 1.93372 0.313673 0
M  V30 1522 H 147.229 0.33471 -0.667816 0
M  V30 1523 H 149.891 0.184116 -1.94028 0
M  V30 1524 H 148.987 1.4815 -2.74696 0
M  V30 1525 N 149.288 1.51039 0.449983 0
M  V30 1526 C 150.704 1.38934 0.785462 0
M  V30 1527 C 150.904 0.461817 1.96136 0
M  V30 1528 O 149.96 -0.0877389 2.52348 0
M  V30 1529 C 151.273 2.80724 1.0777 0
M  V30 1530 C 152.821 2.89787 1.1829 0
M  V30 1531 C 153.296 4.32457 1.50815 0
M  V30 1532 N 154.787 4.35505 1.57764 0
M  V30 1533 C 155.522 5.42914 1.84477 0
M  V30 1534 N 155.018 6.60502 2.09068 0
M  V30 1535 N 156.811 5.3038 1.86155 0
M  V30 1536 H 148.962 2.09904 -0.324647 0
M  V30 1537 H 151.225 0.944378 -0.0827957 0
M  V30 1538 H 150.931 3.50531 0.286498 0
M  V30 1539 H 150.805 3.19273 2.00859 0
M  V30 1540 H 153.192 2.20186 1.96474 0
M  V30 1541 H 153.273 2.54752 0.231314 0
M  V30 1542 H 152.917 5.02603 0.731622 0
M  V30 1543 H 152.847 4.64995 2.47158 0
M  V30 1544 H 155.338 3.50724 1.40715 0
M  V30 1545 H 155.651 7.38158 2.28785 0
M  V30 1546 H 153.996 6.63639 2.06416 0
M  V30 1547 H 157.187 4.37505 1.66454 0
M  V30 1548 H 157.36 6.1417 2.06637 0
M  V30 1549 N 150.766 -0.704594 1.40972 0
M  V30 1550 C 151.991 -1.49858 1.43378 0
M  V30 1551 C 152.416 -1.88061 0.038184 0
M  V30 1552 O 151.774 -1.5402 -0.956425 0
M  V30 1553 C 151.822 -2.74333 2.34038 0
M  V30 1554 O 150.926 -3.7147 1.7912 0
M  V30 1555 H 150.267 -0.45139 0.486974 0
M  V30 1556 H 152.797 -0.866832 1.8533 0
M  V30 1557 H 152.807 -3.22741 2.49604 0
M  V30 1558 H 151.482 -2.45863 3.35446 0
M  V30 1559 H 150.059 -3.30363 1.72958 0
M  V30 1560 N 152.244 -1.26651 -0.937939 0
M  V30 1561 C 153.49 -1.12553 -1.687 0
M  V30 1562 C 153.823 0.329782 -1.91379 0
M  V30 1563 O 153.098 1.24202 -1.4968 0
M  V30 1564 C 153.381 -1.89862 -3.05981 0
M  V30 1565 C 153.234 -3.43318 -2.90607 0
M  V30 1566 C 154.553 -1.69499 -4.0615 0
M  V30 1567 H 151.672 -0.410257 -0.612257 0
M  V30 1568 H 154.314 -1.55685 -1.08913 0
M  V30 1569 H 152.464 -1.53204 -3.57017 0
M  V30 1570 H 154.136 -3.89747 -2.46769 0
M  V30 1571 H 152.379 -3.70179 -2.26164 0
M  V30 1572 H 153.05 -3.92642 -3.8799 0
M  V30 1573 H 155.526 -2.01442 -3.64088 0
M  V30 1574 H 154.402 -2.26002 -5.00214 0
M  V30 1575 H 154.663 -0.640365 -4.37438 0
M  V30 1576 N 153.722 1.14298 -1.08507 0
M  V30 1577 C 155.133 1.66926 -0.836227 0
M  V30 1578 C 155.484 1.85576 0.63686 0
M  V30 1579 O 154.609 1.56767 1.49175 0
M  V30 1580 C 155.204 3.03219 -1.51142 0
M  V30 1581 C 153.763 3.52876 -1.30979 0
M  V30 1582 C 152.91 2.2833 -1.57356 0
M  V30 1583 H 155.861 0.983491 -1.24552 0
M  V30 1584 H 155.882 3.68726 -0.939211 0
M  V30 1585 H 155.394 2.89612 -2.58353 0
M  V30 1586 H 153.495 3.71703 -0.258429 0
M  V30 1587 H 153.608 4.33586 -2.03814 0
M  V30 1588 H 151.972 2.34454 -0.995164 0
M  V30 1589 H 152.755 2.17298 -2.65775 0
M  V30 1590 N 155.201 0.870884 1.31352 0
M  V30 1591 C 156.612 0.534714 1.78879 0
M  V30 1592 C 156.963 -0.948423 1.71754 0
M  V30 1593 O 156.088 -1.74055 1.28584 0
M  V30 1594 C 156.683 0.963839 3.24801 0
M  V30 1595 C 155.242 0.679311 3.70219 0
M  V30 1596 C 154.389 1.15465 2.52117 0
M  V30 1597 H 157.34 1.05651 1.18421 0
M  V30 1598 H 157.361 0.286892 3.79417 0
M  V30 1599 H 156.873 2.04332 3.29955 0
M  V30 1600 H 154.974 -0.388769 3.70566 0
M  V30 1601 H 155.087 1.25698 4.62317 0
M  V30 1602 H 153.451 0.574383 2.48139 0
M  V30 1603 H 154.234 2.24157 2.60016 0
M  V30 1604 N 156.679 -1.44442 0.630414 0
M  V30 1605 C 157.925 -2.02351 0.134816 0
M  V30 1606 C 158.258 -1.4947 -1.23986 0
M  V30 1607 O 157.533 -0.678475 -1.82283 0
M  V30 1608 C 157.816 -3.59898 0.120707 0
M  V30 1609 C 157.669 -4.23063 1.52767 0
M  V30 1610 C 158.988 -4.36585 -0.555127 0
M  V30 1611 H 156.107 -0.73527 0.0504646 0
M  V30 1612 H 158.749 -1.72022 0.806751 0
M  V30 1613 H 156.899 -3.85868 -0.451477 0
M  V30 1614 H 158.571 -4.08202 2.14869 0
M  V30 1615 H 156.814 -3.80586 2.08175 0
M  V30 1616 H 157.485 -5.32071 1.46984 0
M  V30 1617 H 159.961 -4.16044 -0.0685429 0
M  V30 1618 H 158.837 -5.46294 -0.534185 0
M  V30 1619 H 159.098 -4.11138 -1.62535 0
M  V30 1620 N 158.157 -0.370918 -1.53173 0
M  V30 1621 C 159.12 0.460778 -2.24521 0
M  V30 1622 C 160.12 1.00536 -1.25496 0
M  V30 1623 O 161.31 0.890266 -1.49733 0
M  V30 1624 C 158.442 1.64457 -2.98608 0
M  V30 1625 H 159.635 -0.163613 -2.99453 0
M  V30 1626 H 157.188 -0.122699 -1.55818 0
M  V30 1627 H 157.923 2.30691 -2.2793 0
M  V30 1628 H 157.708 1.26099 -3.7127 0
M  V30 1629 H 159.198 2.23384 -3.5283 0
M  V30 1630 N 159.635 1.57281 -0.100228 0
M  V30 1631 C 161.051 1.57527 0.256416 0
M  V30 1632 C 161.251 1.11173 1.68056 0
M  V30 1633 O 160.307 0.79053 2.39806 0
M  V30 1634 C 161.62 3.00673 0.0401747 0
M  V30 1635 C 163.168 3.12815 0.107528 0
M  V30 1636 C 163.643 4.57929 -0.0807834 0
M  V30 1637 N 165.134 4.63193 -0.0261207 0
M  V30 1638 C 165.869 5.73212 -0.146999 0
M  V30 1639 N 165.365 6.92047 -0.322999 0
M  V30 1640 N 167.158 5.62031 -0.0879044 0
M  V30 1641 H 159.309 1.85718 -1.03065 0
M  V30 1642 H 161.572 0.857446 -0.404339 0
M  V30 1643 H 161.278 3.38804 -0.943649 0
M  V30 1644 H 161.152 3.69042 0.780262 0
M  V30 1645 H 163.539 2.74554 1.08186 0
M  V30 1646 H 163.62 2.47028 -0.664134 0
M  V30 1647 H 163.264 4.96886 -1.05201 0
M  V30 1648 H 163.194 5.21783 0.710635 0
M  V30 1649 H 165.685 3.77748 0.107161 0
M  V30 1650 H 165.998 7.7173 -0.406608 0
M  V30 1651 H 164.343 6.94074 -0.358733 0
M  V30 1652 H 167.534 4.68075 0.048498 0
M  V30 1653 H 167.707 6.47734 -0.185557 0
M  V30 1654 N 161.113 -0.173488 1.56642 0
M  V30 1655 C 162.338 -0.910149 1.86363 0
M  V30 1656 C 162.763 -1.75132 0.686318 0
M  V30 1657 O 162.121 -1.77595 -0.364643 0
M  V30 1658 C 162.169 -1.76447 3.14482 0
M  V30 1659 O 161.273 -2.86584 2.96553 0
M  V30 1660 H 160.614 -0.255086 0.613047 0
M  V30 1661 H 163.144 -0.172283 2.03873 0
M  V30 1662 H 163.154 -2.16483 3.45831 0
M  V30 1663 H 161.829 -1.14658 3.99783 0
M  V30 1664 H 160.406 -2.50146 2.76553 0
M  V30 1665 N 162.591 -1.51276 -0.441967 0
M  V30 1666 C 163.816 -1.67799 -1.21895 0
M  V30 1667 C 164.241 -0.372864 -1.84367 0
M  V30 1668 O 163.599 0.666501 -1.68604 0
M  V30 1669 C 163.647 -2.79199 -2.28211 0
M  V30 1670 O 162.751 -2.42479 -3.33583 0
M  V30 1671 H 162.092 -0.559649 -0.357336 0
M  V30 1672 H 164.622 -1.97815 -0.522522 0
M  V30 1673 H 164.632 -3.03146 -2.73069 0
M  V30 1674 H 163.307 -3.73906 -1.82118 0
M  V30 1675 H 161.884 -2.29087 -2.94234 0
M  V30 1676 N 164.069 0.697108 -1.41344 0
M  V30 1677 C 165.48 1.27697 -1.36199 0
M  V30 1678 C 165.831 1.9615 -0.0443463 0
M  V30 1679 O 164.956 1.98689 0.857419 0
M  V30 1680 C 165.551 2.32223 -2.46694 0
M  V30 1681 C 164.11 2.8579 -2.44952 0
M  V30 1682 C 163.257 1.59807 -2.26621 0
M  V30 1683 H 166.208 0.491968 -1.50882 0
M  V30 1684 H 166.229 3.1348 -2.15664 0
M  V30 1685 H 165.741 1.82373 -3.42581 0
M  V30 1686 H 163.842 3.3982 -1.52817 0
M  V30 1687 H 163.955 3.36325 -3.41207 0
M  V30 1688 H 162.319 1.8556 -1.7447 0
M  V30 1689 H 163.102 1.11956 -3.24532 0
M  V30 1690 N 165.547 1.27147 0.931209 0
M  V30 1691 C 166.479 1.05364 2.03546 0
M  V30 1692 C 167.492 0.0108438 1.62796 0
M  V30 1693 O 168.681 0.25202 1.76712 0
M  V30 1694 C 165.781 0.575566 3.33977 0
M  V30 1695 C 164.954 1.68985 4.03439 0
M  V30 1696 C 164.013 1.20813 5.12143 0
M  V30 1697 O 163.039 1.90712 5.363 0
M  V30 1698 N 164.241 0.0618851 5.80467 0
M  V30 1699 H 167.006 2.00454 2.22796 0
M  V30 1700 H 164.567 1.18666 1.10136 0
M  V30 1701 H 166.559 0.237264 4.04004 0
M  V30 1702 H 165.129 -0.282016 3.11325 0
M  V30 1703 H 164.349 2.19861 3.27192 0
M  V30 1704 H 165.637 2.4378 4.46597 0
M  V30 1705 H 165.035 -0.521621 5.6329 0
M  V30 1706 H 163.592 -0.217264 6.51438 0
M  V30 1707 N 167.025 -1.13721 1.09112 0
M  V30 1708 C 167.975 -2.17082 0.697091 0
M  V30 1709 C 168.959 -1.58321 -0.286923 0
M  V30 1710 O 170.151 -1.7673 -0.0978008 0
M  V30 1711 C 167.28 -3.43105 0.115729 0
M  V30 1712 C 166.366 -4.0888 1.12596 0
M  V30 1713 N 166.757 -4.4987 2.31195 0
M  V30 1714 C 165.055 -4.35471 0.963366 0
M  V30 1715 C 165.756 -5.01094 2.95431 0
M  V30 1716 N 164.732 -4.95751 2.23006 0
M  V30 1717 H 168.534 -2.46524 1.6001 0
M  V30 1718 H 166.048 -1.30481 0.966869 0
M  V30 1719 H 168.045 -4.16491 -0.184555 0
M  V30 1720 H 166.705 -3.15138 -0.78217 0
M  V30 1721 H 167.716 -4.42678 2.68806 0
M  V30 1722 H 164.393 -4.17328 0.119878 0
M  V30 1723 H 165.783 -5.4263 3.96236 0
M  V30 1724 N 168.503 -0.877838 -1.30888 0
M  V30 1725 C 169.728 -0.506629 -2.01117 0
M  V30 1726 C 170.153 0.895564 -1.65412 0
M  V30 1727 O 169.511 1.5923 -0.866922 0
M  V30 1728 C 169.559 -0.680223 -3.54126 0
M  V30 1729 O 168.663 0.277033 -4.11468 0
M  V30 1730 H 168.004 -0.200518 -0.633 0
M  V30 1731 H 170.534 -1.18342 -1.66902 0
M  V30 1732 H 170.544 -0.5765 -4.03907 0
M  V30 1733 H 169.219 -1.70261 -3.79452 0
M  V30 1734 H 167.796 0.127606 -3.72682 0
M  V30 1735 N 169.982 1.44106 -0.638065 0
M  V30 1736 C 170.912 2.33448 0.0494287 0
M  V30 1737 C 171.893 1.48606 0.827672 0
M  V30 1738 O 173.078 1.77308 0.792173 0
M  V30 1739 C 170.208 3.31771 1.02691 0
M  V30 1740 C 169.162 4.26485 0.359823 0
M  V30 1741 C 168.488 5.14729 1.44769 0
M  V30 1742 C 169.788 5.17056 -0.738296 0
M  V30 1743 H 171.482 2.91183 -0.696636 0
M  V30 1744 H 169.028 1.40014 -0.336456 0
M  V30 1745 H 170.981 3.93161 1.51666 0
M  V30 1746 H 169.705 2.7226 1.80395 0
M  V30 1747 H 168.364 3.66437 -0.10934 0
M  V30 1748 H 168.012 4.51566 2.21578 0
M  V30 1749 H 167.712 5.78913 1.00668 0
M  V30 1750 H 169.236 5.78991 1.93911 0
M  V30 1751 H 170.65 5.72342 -0.331354 0
M  V30 1752 H 169.047 5.89879 -1.10286 0
M  V30 1753 H 170.117 4.57652 -1.60258 0
M  V30 1754 N 171.46 0.379036 1.52974 0
M  V30 1755 C 172.685 -0.209353 2.06341 0
M  V30 1756 C 173.11 -1.40583 1.24972 0
M  V30 1757 O 172.468 -1.79246 0.272155 0
M  V30 1758 C 172.516 -0.567786 3.56102 0
M  V30 1759 O 171.62 -1.66318 3.77375 0
M  V30 1760 H 170.961 -0.0272919 0.663439 0
M  V30 1761 H 173.491 0.543536 1.97248 0
M  V30 1762 H 173.501 -0.835003 3.99364 0
M  V30 1763 H 172.176 0.307013 4.14765 0
M  V30 1764 H 170.753 -1.39048 3.46006 0
M  V30 1765 N 172.938 -1.57226 0.108567 0
M  V30 1766 C 173.886 -2.16002 -0.862885 0
M  V30 1767 C 174.88 -1.10644 -1.28274 0
M  V30 1768 O 176.086 -1.28966 -1.2557 0
M  V30 1769 H 172.461 -0.691148 -0.296342 0
M  V30 1770 H 174.432 -2.96427 -0.342575 0
M  V30 1771 C 173.181 -2.76576 -2.10716 0
M  V30 1772 H 172.504 -3.5734 -1.793 0
M  V30 1773 H 173.944 -3.21253 -2.76717 0
M  V30 1774 C 172.403 -1.73137 -2.89007 0
M  V30 1775 O 172.933 -1.17842 -3.84026 0
M  V30 1776 N 171.139 -1.43317 -2.52801 0
M  V30 1777 H 170.686 -1.88473 -1.75601 0
M  V30 1778 H 170.644 -0.743485 -3.05483 0
M  V30 1779 N 174.416 0.165178 -1.56732 0
M  V30 1780 C 175.827 0.727046 -1.71962 0
M  V30 1781 C 176.178 1.82508 -0.720078 0
M  V30 1782 O 175.303 2.16082 0.117242 0
M  V30 1783 C 175.898 1.32559 -3.11791 0
M  V30 1784 C 174.457 1.83422 -3.28684 0
M  V30 1785 C 173.604 0.715567 -2.67908 0
M  V30 1786 H 176.555 -0.0602896 -1.58585 0
M  V30 1787 H 176.576 2.19533 -3.10782 0
M  V30 1788 H 176.088 0.526195 -3.84516 0
M  V30 1789 H 174.189 2.65986 -2.60926 0
M  V30 1790 H 174.302 1.97543 -4.36478 0
M  V30 1791 H 172.666 1.13758 -2.27884 0
M  V30 1792 H 173.449 -0.0720836 -3.43224 0
M  V30 1793 N 175.894 1.51508 0.433938 0
M  V30 1794 C 176.824 1.76016 1.53429 0
M  V30 1795 C 177.805 0.610112 1.58782 0
M  V30 1796 O 178.99 0.853177 1.74455 0
M  V30 1797 C 176.12 1.88831 2.9148 0
M  V30 1798 C 175.074 3.04288 3.00987 0
M  V30 1799 C 174.4 3.0229 4.4105 0
M  V30 1800 C 175.7 4.44193 2.74754 0
M  V30 1801 H 177.394 2.68152 1.33171 0
M  V30 1802 H 174.94 1.29035 0.639214 0
M  V30 1803 H 176.893 2.04559 3.6842 0
M  V30 1804 H 175.617 0.933455 3.12976 0
M  V30 1805 H 174.276 2.8827 2.26486 0
M  V30 1806 H 173.924 2.04576 4.59519 0
M  V30 1807 H 173.624 3.79822 4.4834 0
M  V30 1808 H 175.148 3.20116 5.1996 0
M  V30 1809 H 176.562 4.60544 3.41426 0
M  V30 1810 H 174.959 5.23457 2.9345 0
M  V30 1811 H 176.029 4.53996 1.70339 0
M  V30 1812 N 177.372 -0.689602 1.41712 0
M  V30 1813 C 178.783 -1.26973 1.36875 0
M  V30 1814 C 179.134 -1.96124 0.054748 0
M  V30 1815 O 178.259 -1.99141 -0.84687 0
M  V30 1816 C 178.854 -2.30912 2.47922 0
M  V30 1817 C 177.413 -2.84486 2.46464 0
M  V30 1818 C 176.56 -1.58603 2.27465 0
M  V30 1819 H 179.511 -0.48396 1.51141 0
M  V30 1820 H 179.532 -3.12331 2.17323 0
M  V30 1821 H 179.044 -1.80554 3.43543 0
M  V30 1822 H 177.145 -3.39005 1.54617 0
M  V30 1823 H 177.258 -3.34511 3.42986 0
M  V30 1824 H 175.622 -1.84632 1.75451 0
M  V30 1825 H 176.405 -1.10233 3.25121 0
M  V30 1826 N 178.85 -1.27639 -0.924453 0
M  V30 1827 C 180.266 -1.05113 -1.20097 0
M  V30 1828 C 180.466 0.213262 -2.00368 0
M  V30 1829 O 179.522 0.91787 -2.35226 0
M  V30 1830 C 180.835 -2.29244 -1.94596 0
M  V30 1831 C 182.383 -2.34315 -2.07522 0
M  V30 1832 C 182.858 -3.58183 -2.85427 0
M  V30 1833 N 184.349 -3.5876 -2.92994 0
M  V30 1834 C 185.084 -4.51277 -3.53746 0
M  V30 1835 N 184.58 -5.54102 -4.15863 0
M  V30 1836 N 186.373 -4.38894 -3.51181 0
M  V30 1837 H 178.524 -2.08821 -0.388264 0
M  V30 1838 H 180.787 -0.918568 -0.234385 0
M  V30 1839 H 180.493 -3.21301 -1.43034 0
M  V30 1840 H 180.367 -2.34816 -2.95197 0
M  V30 1841 H 182.754 -1.42762 -2.58269 0
M  V30 1842 H 182.835 -2.32744 -1.06131 0
M  V30 1843 H 182.479 -4.50074 -2.35363 0
M  V30 1844 H 182.409 -3.57006 -3.8711 0
M  V30 1845 H 184.9 -2.84398 -2.4885 0
M  V30 1846 H 185.213 -6.20859 -4.60168 0
M  V30 1847 H 183.558 -5.57941 -4.144 0
M  V30 1848 H 186.749 -3.57772 -3.01856 0
M  V30 1849 H 186.922 -5.11186 -3.98237 0
M  V30 1850 N 180.328 1.1314 -1.09713 0
M  V30 1851 C 181.744 1.36477 -0.827423 0
M  V30 1852 C 181.944 1.93654 0.556817 0
M  V30 1853 O 181 2.15791 1.31112 0
M  V30 1854 C 182.313 2.31334 -1.92106 0
M  V30 1855 C 183.861 2.44943 -1.94864 0
M  V30 1856 C 184.336 3.4311 -3.0338 0
M  V30 1857 N 185.827 3.50662 -3.02639 0
M  V30 1858 C 186.562 4.2651 -3.83246 0
M  V30 1859 N 186.058 5.05485 -4.73768 0
M  V30 1860 N 187.851 4.2184 -3.71493 0
M  V30 1861 H 180.002 0.743807 -1.9895 0
M  V30 1862 H 182.265 0.389823 -0.864143 0
M  V30 1863 H 181.971 1.96483 -2.91698 0
M  V30 1864 H 181.845 3.31381 -1.80184 0
M  V30 1865 H 184.232 2.79079 -0.959099 0
M  V30 1866 H 184.313 1.4481 -2.10864 0
M  V30 1867 H 183.957 3.09704 -4.02549 0
M  V30 1868 H 183.887 4.43055 -2.84622 0
M  V30 1869 H 186.378 2.94315 -2.37039 0
M  V30 1870 H 186.691 5.60675 -5.3185 0
M  V30 1871 H 185.036 5.04708 -4.77802 0
M  V30 1872 H 188.227 3.5922 -3.00131 0
M  V30 1873 H 188.4 4.80697 -4.3455 0
M  V30 1874 N 181.806 0.884767 1.30421 0
M  V30 1875 C 183.052 0.503851 1.96441 0
M  V30 1876 C 183.385 -0.944518 1.69684 0
M  V30 1877 O 182.66 -1.66737 1.00145 0
M  V30 1878 C 182.943 0.779085 3.51571 0
M  V30 1879 C 182.796 2.27807 3.87846 0
M  V30 1880 C 184.115 0.255452 4.39358 0
M  V30 1881 H 181.234 0.184533 0.713524 0
M  V30 1882 H 183.876 1.10872 1.54297 0
M  V30 1883 H 182.026 0.264274 3.876 0
M  V30 1884 H 183.698 2.86127 3.61841 0
M  V30 1885 H 181.941 2.74479 3.35922 0
M  V30 1886 H 182.612 2.42125 4.96064 0
M  V30 1887 H 185.088 0.696079 4.10236 0
M  V30 1888 H 183.964 0.477361 5.4682 0
M  V30 1889 H 184.225 -0.843293 4.33983 0
M  V30 1890 N 183.284 -1.43765 0.645699 0
M  V30 1891 C 184.194 -2.34544 -0.0512957 0
M  V30 1892 C 185.21 -1.53455 -0.82022 0
M  V30 1893 O 186.386 -1.86133 -0.769176 0
M  V30 1894 C 183.451 -3.31636 -1.01087 0
M  V30 1895 C 182.512 -4.2863 -0.239712 0
M  V30 1896 C 181.745 -5.21084 -1.15358 0
M  V30 1897 O 181.968 -5.1779 -2.39269 0
M  V30 1898 O 180.902 -5.98593 -0.630038 0
M  V30 1899 H 184.728 -2.95624 0.695718 0
M  V30 1900 H 182.313 -1.43781 0.405882 0
M  V30 1901 H 184.195 -3.9136 -1.56254 0
M  V30 1902 H 182.87 -2.73069 -1.73824 0
M  V30 1903 H 181.777 -3.72408 0.355356 0
M  V30 1904 H 183.11 -4.90157 0.447936 0
M  V30 1905 N 184.763 -0.387143 -1.52771 0
M  V30 1906 C 185.695 0.484089 -2.2403 0
M  V30 1907 C 186.708 1.02849 -1.26198 0
M  V30 1908 O 187.897 0.931186 -1.52286 0
M  V30 1909 C 184.997 1.68337 -2.94136 0
M  V30 1910 C 184.17 1.26672 -4.18656 0
M  V30 1911 C 183.229 2.33045 -4.7178 0
M  V30 1912 O 182.255 1.94541 -5.34923 0
M  V30 1913 N 183.457 3.64929 -4.5145 0
M  V30 1914 H 186.222 -0.126404 -2.99433 0
M  V30 1915 H 183.783 -0.213392 -1.60488 0
M  V30 1916 H 185.775 2.39019 -3.26577 0
M  V30 1917 H 184.345 2.20025 -2.22053 0
M  V30 1918 H 183.565 0.388878 -3.92277 0
M  V30 1919 H 184.853 0.964964 -4.99566 0
M  V30 1920 H 184.251 3.98974 -4.01044 0
M  V30 1921 H 182.808 4.31651 -4.88386 0
M  V30 1922 N 186.241 1.57166 -0.116904 0
M  V30 1923 C 187.652 1.82169 0.408809 0
M  V30 1924 C 188.003 1.03393 1.66746 0
M  V30 1925 O 187.128 0.269886 2.1471 0
M  V30 1926 C 187.723 3.30429 0.748466 0
M  V30 1927 C 186.282 3.5612 1.21882 0
M  V30 1928 C 185.429 2.76374 0.226452 0
M  V30 1929 H 188.38 1.5497 -0.342063 0
M  V30 1930 H 188.401 3.44943 1.60607 0
M  V30 1931 H 187.913 3.87737 -0.167784 0
M  V30 1932 H 186.014 3.04168 2.15204 0
M  V30 1933 H 186.127 4.64705 1.16559 0
M  V30 1934 H 184.491 2.44515 0.713063 0
M  V30 1935 H 185.274 3.3644 -0.682859 0
M  V30 1936 N 187.719 -0.156864 1.56817 0
M  V30 1937 C 188.649 -1.19589 2.00551 0
M  V30 1938 C 189.63 -1.4536 0.883426 0
M  V30 1939 O 190.815 -1.56449 1.15054 0
M  V30 1940 C 187.945 -2.53143 2.37773 0
M  V30 1941 C 186.899 -2.41913 3.53075 0
M  V30 1942 C 186.225 -3.80088 3.76081 0
M  V30 1943 C 187.525 -1.91157 4.86062 0
M  V30 1944 H 189.219 -0.832293 2.87599 0
M  V30 1945 H 186.765 -0.398918 1.38364 0
M  V30 1946 H 188.718 -3.26047 2.66967 0
M  V30 1947 H 187.442 -2.91319 1.4765 0
M  V30 1948 H 186.101 -1.71462 3.24031 0
M  V30 1949 H 185.749 -4.15683 2.83225 0
M  V30 1950 H 185.449 -3.73439 4.53671 0
M  V30 1951 H 186.973 -4.54556 4.0769 0
M  V30 1952 H 188.387 -2.53846 5.14038 0
M  V30 1953 H 186.784 -1.95422 5.67389 0
M  V30 1954 H 187.854 -0.866673 4.77092 0
M  V30 1955 N 189.197 -1.51736 -0.425897 0
M  V30 1956 C 190.427 -1.68549 -1.19476 0
M  V30 1957 C 190.835 -0.387288 -1.85194 0
M  V30 1958 O 190.178 0.645142 -1.71999 0
M  V30 1959 C 190.24 -2.75275 -2.31223 0
M  V30 1960 C 189.904 -4.17534 -1.8578 0
M  V30 1961 C 190.901 -5.01936 -1.35485 0
M  V30 1962 C 188.586 -4.6369 -1.93123 0
M  V30 1963 C 190.58 -6.30559 -0.931347 0
M  V30 1964 C 188.267 -5.92307 -1.50384 0
M  V30 1965 C 189.265 -6.75569 -1.00473 0
M  V30 1966 O 188.953 -8.0178 -0.583452 0
M  V30 1967 H 188.685 -0.568525 -0.365725 0
M  V30 1968 H 191.239 -1.98982 -0.509444 0
M  V30 1969 H 189.469 -2.40182 -3.03067 0
M  V30 1970 H 191.158 -2.80853 -2.93047 0
M  V30 1971 H 191.924 -4.67475 -1.29197 0
M  V30 1972 H 187.803 -3.98997 -2.30916 0
M  V30 1973 H 191.347 -6.95498 -0.541084 0
M  V30 1974 H 187.244 -6.2628 -1.56346 0
M  V30 1975 H 188.012 -8.1543 -0.708275 0
M  V30 1976 N 190.675 0.682077 -1.42076 0
M  V30 1977 C 191.923 1.4393 -1.41876 0
M  V30 1978 C 192.244 1.94971 -0.0335599 0
M  V30 1979 O 191.514 1.72591 0.926773 0
M  V30 1980 H 190.094 0.534085 -0.522267 0
M  V30 1981 H 192.756 0.806427 -1.77434 0
M  V30 1982 H 191.852 2.29588 -2.11414 0
M  V30 1983 N 192.153 1.28127 0.917671 0
M  V30 1984 C 193.083 1.14248 2.03641 0
M  V30 1985 C 194.064 0.0412748 1.7005 0
M  V30 1986 O 195.249 0.217566 1.92977 0
M  V30 1987 C 192.379 0.799431 3.37974 0
M  V30 1988 C 191.333 1.85497 3.85713 0
M  V30 1989 C 190.659 1.36565 5.16966 0
M  V30 1990 C 191.959 3.26085 4.08002 0
M  V30 1991 H 193.653 2.07835 2.15511 0
M  V30 1992 H 191.199 1.00064 1.03553 0
M  V30 1993 H 193.152 0.689114 4.15727 0
M  V30 1994 H 191.876 -0.172145 3.26146 0
M  V30 1995 H 190.535 1.95437 3.10161 0
M  V30 1996 H 190.183 0.383253 5.01538 0
M  V30 1997 H 189.883 2.07143 5.49878 0
M  V30 1998 H 191.407 1.26848 5.97279 0
M  V30 1999 H 192.821 3.19089 4.76293 0
M  V30 2000 H 191.218 3.94462 4.52238 0
M  V30 2001 H 192.288 3.70394 3.12948 0
M  V30 2002 N 193.631 -1.12557 1.10312 0
M  V30 2003 C 194.908 -1.80363 0.756878 0
M  V30 2004 C 195.288 -1.97067 -0.756824 0
M  V30 2005 O 194.636 -1.54601 -1.68259 0
M  V30 2006 C 194.846 -3.14812 1.50647 0
M  V30 2007 C 196.194 -3.90029 1.67817 0
M  V30 2008 O 197.218 -3.24464 1.46974 0
M  V30 2009 O 196.077 -5.07652 2.02365 0
M  V30 2010 H 193.171 -0.780667 0.272926 0
M  V30 2011 H 195.717 -1.19404 1.20586 0
M  V30 2012 H 194.489 -2.97936 2.53672 0
M  V30 2013 H 194.112 -3.83478 1.05026 0
M  V30 2014 N 195.109 -0.891671 -1.2995 0
M  V30 2015 C 196.357 -0.512486 -1.95494 0
M  V30 2016 C 196.678 0.942776 -1.70695 0
M  V30 2017 O 195.948 1.66374 -1.03424 0
M  V30 2018 H 194.528 -0.186533 -0.723336 0
M  V30 2019 H 197.19 -1.13621 -1.58355 0
M  V30 2020 H 196.286 -0.688342 -3.04415 0
M  V30 2021 N 196.587 1.43421 -0.653314 0
M  V30 2022 C 197.812 2.06678 -0.172846 0
M  V30 2023 C 198.237 1.48648 1.15262 0
M  V30 2024 O 197.595 0.596457 1.71208 0
M  V30 2025 C 197.643 3.60474 -0.0953184 0
M  V30 2026 O 196.747 4.01487 0.942442 0
M  V30 2027 H 196.088 0.657181 -0.0949155 0
M  V30 2028 H 198.618 1.83925 -0.896265 0
M  V30 2029 H 198.628 4.07905 0.0879728 0
M  V30 2030 H 197.303 4.02088 -1.06291 0
M  V30 2031 H 195.88 3.65646 0.731932 0
M  V30 2032 N 198.065 0.39524 1.52563 0
M  V30 2033 C 199.028 -0.425001 2.25225 0
M  V30 2034 C 200.028 -0.985266 1.27079 0
M  V30 2035 O 201.218 -0.866332 1.5113 0
M  V30 2036 C 198.35 -1.59686 3.01186 0
M  V30 2037 H 199.543 0.211233 2.99155 0
M  V30 2038 H 197.096 0.147472 1.55603 0
M  V30 2039 H 197.831 -2.27035 2.31572 0
M  V30 2040 H 197.616 -1.20176 3.73229 0
M  V30 2041 H 199.106 -2.17743 3.5634 0
M  V30 2042 N 199.544 -1.57102 0.125237 0
M  V30 2043 C 200.507 -2.14471 -0.80838 0
M  V30 2044 C 201.507 -1.0811 -1.19033 0
M  V30 2045 O 202.697 -1.33856 -1.11482 0
M  V30 2046 C 199.829 -2.69005 -2.09402 0
M  V30 2047 H 201.022 -2.98297 -0.309696 0
M  V30 2048 H 198.575 -1.55807 -0.124051 0
M  V30 2049 H 199.31 -1.88785 -2.63687 0
M  V30 2050 H 199.095 -3.46799 -1.82957 0
M  V30 2051 H 200.585 -3.13278 -2.76128 0
M  V30 2052 N 201.022 0.148545 -1.56898 0
M  V30 2053 C 201.969 1.18345 -1.98149 0
M  V30 2054 C 202.939 1.42772 -0.848848 0
M  V30 2055 O 204.124 1.55132 -1.11079 0
M  V30 2056 C 201.264 2.51231 -2.36594 0
M  V30 2057 C 200.377 2.33991 -3.63142 0
M  V30 2058 C 199.512 3.59902 -3.90697 0
M  V30 2059 C 198.551 3.37692 -5.1052 0
M  V30 2060 N 197.688 4.5573 -5.34092 0
M  V30 2061 H 202.528 0.82467 -2.86362 0
M  V30 2062 H 200.065 0.395756 -1.41676 0
M  V30 2063 H 202.023 3.28713 -2.56912 0
M  V30 2064 H 200.653 2.85059 -1.51463 0
M  V30 2065 H 199.705 1.47572 -3.50609 0
M  V30 2066 H 201.017 2.13539 -4.5078 0
M  V30 2067 H 200.171 4.45813 -4.11505 0
M  V30 2068 H 198.91 3.83357 -3.01477 0
M  V30 2069 H 197.915 2.5017 -4.89587 0
M  V30 2070 H 199.14 3.15637 -6.0129 0
M  V30 2071 H 197.086 4.79361 -4.47827 0
M  V30 2072 H 197.003 4.38274 -6.15996 0
M  V30 2073 H 198.271 5.42858 -5.59397 0
M  V30 2074 N 202.5 1.5196 0.417844 0
M  V30 2075 C 203.41 1.77554 1.53336 0
M  V30 2076 C 204.426 0.660655 1.6097 0
M  V30 2077 O 205.602 0.945099 1.77848 0
M  V30 2078 C 202.667 1.91291 2.89152 0
M  V30 2079 C 201.728 3.15183 2.91475 0
M  V30 2080 C 200.961 3.28256 4.20813 0
M  V30 2081 O 201.184 2.46798 5.14244 0
M  V30 2082 O 200.118 4.21356 4.29817 0
M  V30 2083 H 203.944 2.7222 1.34647 0
M  V30 2084 H 201.529 1.36698 0.602828 0
M  V30 2085 H 203.411 2.02199 3.69721 0
M  V30 2086 H 202.086 0.998129 3.07927 0
M  V30 2087 H 200.993 3.09739 2.09791 0
M  V30 2088 H 202.326 4.06414 2.77648 0
M  V30 2089 N 203.978 -0.674533 1.42435 0
M  V30 2090 C 204.941 -1.76986 1.45632 0
M  V30 2091 C 205.941 -1.5708 0.343871 0
M  V30 2092 O 207.131 -1.63367 0.604709 0
M  V30 2093 C 204.263 -3.15623 1.28822 0
M  V30 2094 H 205.456 -1.75539 2.43158 0
M  V30 2095 H 203.009 -0.884189 1.28887 0
M  V30 2096 H 203.744 -3.22696 0.322193 0
M  V30 2097 H 203.529 -3.31475 2.09444 0
M  V30 2098 H 205.019 -3.95537 1.33942 0
M  V30 2099 N 205.456 -1.28612 -0.910864 0
M  V30 2100 C 206.684 -1.18792 -1.69399 0
M  V30 2101 C 207.099 0.253039 -1.87097 0
M  V30 2102 O 206.456 1.17071 -1.40003 0
M  V30 2103 C 206.507 -1.88511 -3.08457 0
M  V30 2104 O 206.228 -3.26979 -2.91576 0
M  V30 2105 C 207.729 -1.85029 -4.02839 0
M  V30 2106 H 204.949 -0.412233 -0.529438 0
M  V30 2107 H 207.493 -1.69788 -1.13984 0
M  V30 2108 H 205.648 -1.41379 -3.60681 0
M  V30 2109 H 206.062 -3.61936 -3.79608 0
M  V30 2110 H 207.536 -2.38395 -4.97867 0
M  V30 2111 H 208.013 -0.823303 -4.31414 0
M  V30 2112 H 208.619 -2.31853 -3.56545 0
M  V30 2113 N 206.934 1.1197 -1.10907 0
M  V30 2114 C 207.844 2.21433 -0.774896 0
M  V30 2115 C 208.86 1.72478 0.229657 0
M  V30 2116 O 210.036 2.01288 0.0672008 0
M  V30 2117 C 207.101 3.4602 -0.216986 0
M  V30 2118 C 206.162 4.09791 -1.27944 0
M  V30 2119 C 205.395 5.28431 -0.748055 0
M  V30 2120 O 205.618 5.68823 0.423833 0
M  V30 2121 O 204.552 5.82644 -1.51027 0
M  V30 2122 H 208.378 2.5242 -1.68873 0
M  V30 2123 H 205.963 1.20399 -0.884555 0
M  V30 2124 H 207.845 4.21304 0.090059 0
M  V30 2125 H 206.52 3.16698 0.669633 0
M  V30 2126 H 205.427 3.36265 -1.63941 0
M  V30 2127 H 206.76 4.4328 -2.13925 0
M  V30 2128 N 208.412 0.89855 1.29475 0
M  V30 2129 C 209.322 0.379974 2.31502 0
M  V30 2130 C 210.338 -0.524695 1.659 0
M  V30 2131 O 211.514 -0.414551 1.97087 0
M  V30 2132 C 208.579 -0.385138 3.44554 0
M  V30 2133 C 207.64 0.550914 4.2575 0
M  V30 2134 C 206.873 -0.177778 5.33404 0
M  V30 2135 O 207.096 -1.40189 5.52904 0
M  V30 2136 O 206.03 0.479106 5.9999 0
M  V30 2137 H 209.856 1.22639 2.77837 0
M  V30 2138 H 207.441 0.662834 1.33891 0
M  V30 2139 H 209.323 -0.817841 4.13388 0
M  V30 2140 H 207.998 -1.20763 3.0033 0
M  V30 2141 H 206.905 1.03271 3.59564 0
M  V30 2142 H 208.238 1.33979 4.73614 0
M  V30 2143 N 209.89 -1.43072 0.660911 0
M  V30 2144 C 210.822 -2.29108 -0.0647641 0
M  V30 2145 C 211.835 -1.42928 -0.779448 0
M  V30 2146 O 213.024 -1.66788 -0.635921 0
M  V30 2147 C 210.124 -3.20032 -1.11503 0
M  V30 2148 C 209.297 -4.34792 -0.476955 0
M  V30 2149 C 208.356 -5.06534 -1.42513 0
M  V30 2150 O 207.382 -5.61538 -0.930771 0
M  V30 2151 N 208.584 -5.1075 -2.75889 0
M  V30 2152 H 211.349 -2.92029 0.673731 0
M  V30 2153 H 208.91 -1.53846 0.50427 0
M  V30 2154 H 210.902 -3.64892 -1.75032 0
M  V30 2155 H 209.472 -2.58658 -1.75541 0
M  V30 2156 H 208.692 -3.92752 0.337572 0
M  V30 2157 H 209.98 -5.0879 -0.0318525 0
M  V30 2158 H 209.378 -4.67447 -3.18606 0
M  V30 2159 H 207.935 -5.59302 -3.347 0
M  V30 2160 N 211.368 -0.403325 -1.52352 0
M  V30 2161 C 212.593 0.176499 -2.06648 0
M  V30 2162 C 213.018 1.38577 -1.27193 0
M  V30 2163 O 212.376 1.7879 -0.300637 0
M  V30 2164 C 212.424 0.511061 -3.5696 0
M  V30 2165 O 211.528 1.60294 -3.79973 0
M  V30 2166 H 210.869 0.0167337 -0.663789 0
M  V30 2167 H 213.399 -0.574848 -1.96359 0
M  V30 2168 H 213.409 0.771362 -4.00642 0
M  V30 2169 H 212.084 -0.37296 -4.14224 0
M  V30 2170 H 210.661 1.33526 -3.48174 0
M  V30 2171 N 212.846 1.57033 -0.133567 0
M  V30 2172 C 213.809 2.14897 0.796995 0
M  V30 2173 C 214.809 1.0874 1.18458 0
M  V30 2174 O 215.999 1.34446 1.1077 0
M  V30 2175 C 213.131 2.70112 2.07973 0
M  V30 2176 H 214.324 2.98457 0.293873 0
M  V30 2177 H 211.877 1.55871 0.115787 0
M  V30 2178 H 212.612 1.9018 2.62682 0
M  V30 2179 H 212.397 3.47764 1.81115 0
M  V30 2180 H 213.887 3.14738 2.74462 0
M  V30 2181 N 214.325 -0.140222 1.56975 0
M  V30 2182 C 215.255 -1.17456 2.01808 0
M  V30 2183 C 216.236 -1.44415 0.898794 0
M  V30 2184 O 217.421 -1.5522 1.16707 0
M  V30 2185 C 214.551 -2.50607 2.40444 0
M  V30 2186 C 213.505 -2.38155 3.55621 0
M  V30 2187 C 212.831 -3.76078 3.80091 0
M  V30 2188 C 214.131 -1.85991 4.88062 0
M  V30 2189 H 215.825 -0.801743 2.88466 0
M  V30 2190 H 213.371 -0.38422 1.38779 0
M  V30 2191 H 215.324 -3.23197 2.7041 0
M  V30 2192 H 214.048 -2.89737 1.50732 0
M  V30 2193 H 212.707 -1.68016 3.25832 0
M  V30 2194 H 212.355 -4.12656 2.87618 0
M  V30 2195 H 212.055 -3.68606 4.57606 0
M  V30 2196 H 213.579 -4.50206 4.12488 0
M  V30 2197 H 214.993 -2.4838 5.16701 0
M  V30 2198 H 213.39 -1.89393 5.6943 0
M  V30 2199 H 214.46 -0.816023 4.77984 0
M  V30 2200 N 215.803 -1.52179 -0.40978 0
M  V30 2201 C 217.214 -1.58377 -0.988615 0
M  V30 2202 C 217.565 -0.423879 -1.91566 0
M  V30 2203 O 216.69 0.455844 -2.11544 0
M  V30 2204 C 217.285 -2.87044 -1.79976 0
M  V30 2205 C 215.844 -2.95722 -2.32863 0
M  V30 2206 C 214.991 -2.53309 -1.12828 0
M  V30 2207 H 217.942 -1.57558 -0.190039 0
M  V30 2208 H 217.963 -2.7236 -2.65707 0
M  V30 2209 H 217.475 -3.71444 -1.12478 0
M  V30 2210 H 215.576 -2.15814 -3.03735 0
M  V30 2211 H 215.689 -3.99951 -2.63773 0
M  V30 2212 H 214.053 -2.07142 -1.48204 0
M  V30 2213 H 214.836 -3.40082 -0.46897 0
M  V30 2214 N 217.281 0.66697 -1.42791 0
M  V30 2215 C 218.509 1.45505 -1.47091 0
M  V30 2216 C 218.924 1.8861 -0.0845873 0
M  V30 2217 O 218.281 1.58632 0.90234 0
M  V30 2218 C 218.332 2.69906 -2.40485 0
M  V30 2219 O 218.053 2.28608 -3.73725 0
M  V30 2220 C 219.554 3.63396 -2.53886 0
M  V30 2221 H 216.774 0.447459 -0.500022 0
M  V30 2222 H 219.318 0.818866 -1.8739 0
M  V30 2223 H 217.473 3.29696 -2.03419 0
M  V30 2224 H 217.887 3.08997 -4.23817 0
M  V30 2225 H 219.361 4.47387 -3.2334 0
M  V30 2226 H 219.838 4.09824 -1.57927 0
M  V30 2227 H 220.444 3.09495 -2.91706 0
M  V30 2228 N 218.759 1.29093 0.90403 0
M  V30 2229 C 219.689 1.16401 2.02418 0
M  V30 2230 C 220.67 0.0593085 1.69997 0
M  V30 2231 O 221.855 0.238021 1.92736 0
M  V30 2232 C 218.985 0.835233 3.37107 0
M  V30 2233 C 217.939 1.89578 3.83724 0
M  V30 2234 C 217.265 1.42041 5.15489 0
M  V30 2235 C 218.565 3.30394 4.04521 0
M  V30 2236 H 220.259 2.10109 2.13295 0
M  V30 2237 H 217.805 1.01157 1.02486 0
M  V30 2238 H 219.758 0.733169 4.14973 0
M  V30 2239 H 218.482 -0.137543 3.2631 0
M  V30 2240 H 217.141 1.98715 3.08071 0
M  V30 2241 H 216.789 0.436426 5.01103 0
M  V30 2242 H 216.489 2.12964 5.4765 0
M  V30 2243 H 218.013 1.33176 5.959 0
M  V30 2244 H 219.427 3.24123 4.72882 0
M  V30 2245 H 217.824 3.99237 4.48029 0
M  V30 2246 H 218.894 3.73692 3.09002 0
M  V30 2247 N 220.237 -1.11381 1.11499 0
M  V30 2248 C 221.17 -2.16621 0.71769 0
M  V30 2249 C 222.148 -1.60058 -0.286413 0
M  V30 2250 O 223.332 -1.87613 -0.182689 0
M  V30 2251 C 220.459 -3.38646 0.0607265 0
M  V30 2252 C 219.505 -4.13874 1.03008 0
M  V30 2253 S 220.338 -4.70731 2.55289 0
M  V30 2254 C 221.494 -5.96079 1.90895 0
M  V30 2255 H 221.727 -2.49987 1.60915 0
M  V30 2256 H 219.26 -1.23015 0.933092 0
M  V30 2257 H 221.218 -4.09313 -0.311965 0
M  V30 2258 H 219.879 -3.03537 -0.807702 0
M  V30 2259 H 219.072 -5.01333 0.517853 0
M  V30 2260 H 218.674 -3.4897 1.34522 0
M  V30 2261 H 220.966 -6.65948 1.24577 0
M  V30 2262 H 221.909 -6.51946 2.76354 0
M  V30 2263 H 222.317 -5.47652 1.36885 0
M  V30 2264 N 221.715 -0.905404 -1.28997 0
M  V30 2265 C 222.94 -0.549175 -1.99997 0
M  V30 2266 C 223.365 0.860276 -1.67275 0
M  V30 2267 O 222.723 1.57355 -0.900502 0
M  V30 2268 C 222.771 -0.755185 -3.52604 0
M  V30 2269 O 221.875 0.189692 -4.11964 0
M  V30 2270 H 221.216 -0.213899 -0.628604 0
M  V30 2271 H 223.746 -1.21856 -1.64354 0
M  V30 2272 H 223.756 -0.662045 -4.02593 0
M  V30 2273 H 222.431 -1.78271 -3.75755 0
M  V30 2274 H 221.008 0.0485257 -3.72868 0
M  V30 2275 N 223.193 1.4272 -0.668489 0
M  V30 2276 C 224.439 2.01923 -0.188419 0
M  V30 2277 C 224.772 1.52704 1.19979 0
M  V30 2278 O 224.047 0.726566 1.8042 0
M  V30 2279 C 224.33 3.59451 -0.216085 0
M  V30 2280 C 224.183 4.18864 -1.6393 0
M  V30 2281 C 225.502 4.37903 0.439179 0
M  V30 2282 H 222.621 0.733674 -0.0699412 0
M  V30 2283 H 225.263 1.69822 -0.852076 0
M  V30 2284 H 223.413 3.86929 0.349012 0
M  V30 2285 H 225.085 4.02362 -2.25616 0
M  V30 2286 H 223.328 3.74933 -2.18193 0
M  V30 2287 H 223.999 5.27987 -1.61039 0
M  V30 2288 H 226.475 4.16079 -0.0417878 0
M  V30 2289 H 225.351 5.47519 0.389157 0
M  V30 2290 H 225.612 4.15303 1.51577 0
M  V30 2291 N 224.671 0.411399 1.52136 0
M  V30 2292 C 225.604 -0.457614 2.23565 0
M  V30 2293 C 226.582 -1.04613 1.24478 0
M  V30 2294 O 227.766 -1.09356 1.53536 0
M  V30 2295 C 224.893 -1.6354 2.96602 0
M  V30 2296 C 223.939 -1.17005 4.10137 0
M  V30 2297 S 224.772 -0.13333 5.35334 0
M  V30 2298 C 225.928 -1.31638 6.119 0
M  V30 2299 H 226.161 0.148883 2.96927 0
M  V30 2300 H 223.694 0.195713 1.53155 0
M  V30 2301 H 225.652 -2.31074 3.39286 0
M  V30 2302 H 224.313 -2.21324 2.22878 0
M  V30 2303 H 223.506 -2.05005 4.60422 0
M  V30 2304 H 223.108 -0.573319 3.6958 0
M  V30 2305 H 225.4 -2.23957 6.39413 0
M  V30 2306 H 226.343 -0.854014 7.02931 0
M  V30 2307 H 226.751 -1.54321 5.42997 0
M  V30 2308 N 226.149 -1.5696 0.141893 0
M  V30 2309 C 227.079 -2.19516 -0.795936 0
M  V30 2310 C 228.06 -1.14187 -1.26077 0
M  V30 2311 O 229.245 -1.42511 -1.31925 0
M  V30 2312 C 226.375 -2.81272 -2.03723 0
M  V30 2313 C 225.329 -3.92384 -1.70936 0
M  V30 2314 C 224.655 -4.41052 -3.02287 0
M  V30 2315 C 225.955 -5.13403 -0.959954 0
M  V30 2316 H 227.649 -2.98138 -0.274596 0
M  V30 2317 H 225.195 -1.43406 -0.130636 0
M  V30 2318 H 227.148 -3.237 -2.69808 0
M  V30 2319 H 225.872 -1.99973 -2.58221 0
M  V30 2320 H 224.531 -3.50566 -1.07232 0
M  V30 2321 H 224.179 -3.56582 -3.54765 0
M  V30 2322 H 223.879 -5.15993 -2.81114 0
M  V30 2323 H 225.403 -4.86146 -3.69451 0
M  V30 2324 H 226.817 -5.52706 -1.52279 0
M  V30 2325 H 225.214 -5.94073 -0.848357 0
M  V30 2326 H 226.284 -4.84875 0.0492434 0
M  V30 2327 N 227.627 0.131896 -1.57047 0
M  V30 2328 C 228.59 1.14638 -1.98471 0
M  V30 2329 C 229.59 1.35029 -0.873148 0
M  V30 2330 O 230.78 1.31764 -1.13946 0
M  V30 2331 C 227.912 2.50358 -2.31373 0
M  V30 2332 H 229.105 0.79064 -2.8929 0
M  V30 2333 H 226.658 0.375761 -1.51716 0
M  V30 2334 H 227.393 2.90876 -1.43393 0
M  V30 2335 H 227.178 2.36915 -3.12432 0
M  V30 2336 H 228.668 3.23395 -2.64207 0
M  V30 2337 N 229.106 1.52395 0.401703 0
M  V30 2338 C 230.053 1.76268 1.48991 0
M  V30 2339 C 231.023 0.605386 1.54675 0
M  V30 2340 O 232.208 0.843742 1.7113 0
M  V30 2341 C 229.348 1.92592 2.86361 0
M  V30 2342 C 228.461 3.20259 2.89928 0
M  V30 2343 C 227.596 3.26972 4.18644 0
M  V30 2344 C 226.635 4.48812 4.16214 0
M  V30 2345 N 225.772 4.52877 5.36514 0
M  V30 2346 H 230.612 2.6914 1.27935 0
M  V30 2347 H 228.149 1.33355 0.620871 0
M  V30 2348 H 230.107 2.0004 3.66115 0
M  V30 2349 H 228.737 1.03093 3.05895 0
M  V30 2350 H 227.789 3.21945 2.02621 0
M  V30 2351 H 229.101 4.10056 2.83999 0
M  V30 2352 H 228.255 3.33533 5.06794 0
M  V30 2353 H 226.994 2.35126 4.27278 0
M  V30 2354 H 225.999 4.4239 3.26453 0
M  V30 2355 H 227.224 5.41961 4.09213 0
M  V30 2356 H 225.17 3.63917 5.45802 0
M  V30 2357 H 225.087 5.36529 5.32609 0
M  V30 2358 H 226.355 4.63676 6.26597 0
M  V30 2359 N 230.584 -0.659388 1.43143 0
M  V30 2360 C 231.995 -1.24041 1.39537 0
M  V30 2361 C 232.346 -1.95963 0.0963364 0
M  V30 2362 O 231.471 -2.00892 -0.804438 0
M  V30 2363 C 232.066 -2.25601 2.52764 0
M  V30 2364 C 230.625 -2.79195 2.52443 0
M  V30 2365 C 229.772 -1.53743 2.30778 0
M  V30 2366 H 232.723 -0.451792 1.52133 0
M  V30 2367 H 232.744 -3.07651 2.23899 0
M  V30 2368 H 232.256 -1.73226 3.47296 0
M  V30 2369 H 230.357 -3.35649 1.61773 0
M  V30 2370 H 230.47 -3.2716 3.50004 0
M  V30 2371 H 228.834 -1.80869 1.79328 0
M  V30 2372 H 229.617 -1.03312 3.27386 0
M  V30 2373 N 232.062 -1.29571 -0.897171 0
M  V30 2374 C 233.478 -1.07637 -1.17841 0
M  V30 2375 C 233.678 0.170713 -2.00776 0
M  V30 2376 O 232.734 0.867768 -2.3712 0
M  V30 2377 C 234.047 -2.3332 -1.8969 0
M  V30 2378 C 235.595 -2.38664 -2.02505 0
M  V30 2379 C 236.07 -3.64157 -2.77765 0
M  V30 2380 N 237.561 -3.64894 -2.85318 0
M  V30 2381 C 238.296 -4.58679 -3.44094 0
M  V30 2382 N 237.792 -5.62799 -4.04017 0
M  V30 2383 N 239.585 -4.46245 -3.41793 0
M  V30 2384 H 231.736 -2.09598 -0.343883 0
M  V30 2385 H 233.999 -0.923333 -0.214848 0
M  V30 2386 H 233.705 -3.24262 -1.36187 0
M  V30 2387 H 233.579 -2.41025 -2.9015 0
M  V30 2388 H 235.966 -1.48208 -2.55183 0
M  V30 2389 H 236.047 -2.34943 -1.01171 0
M  V30 2390 H 235.691 -4.54965 -2.25763 0
M  V30 2391 H 235.621 -3.65137 -3.7945 0
M  V30 2392 H 238.112 -2.89613 -2.42761 0
M  V30 2393 H 238.425 -6.3048 -4.46895 0
M  V30 2394 H 236.77 -5.66605 -4.02472 0
M  V30 2395 H 239.961 -3.64094 -2.94199 0
M  V30 2396 H 240.134 -5.19518 -3.87304 0
M  V30 2397 N 233.54 1.10788 -1.12088 0
M  V30 2398 C 234.47 2.19083 -0.807755 0
M  V30 2399 C 235.451 1.6858 0.226859 0
M  V30 2400 O 236.636 1.93997 0.0888475 0
M  V30 2401 C 233.766 3.46344 -0.257576 0
M  V30 2402 C 232.72 4.101 -1.22483 0
M  V30 2403 C 232.046 5.32016 -0.535052 0
M  V30 2404 C 233.346 4.54236 -2.57811 0
M  V30 2405 H 235.04 2.45534 -1.71328 0
M  V30 2406 H 232.586 1.1801 -0.825205 0
M  V30 2407 H 234.539 4.21392 -0.0262679 0
M  V30 2408 H 233.263 3.19373 0.683278 0
M  V30 2409 H 231.922 3.37054 -1.44189 0
M  V30 2410 H 231.57 5.01319 0.410827 0
M  V30 2411 H 231.27 5.75625 -1.18024 0
M  V30 2412 H 232.794 6.09799 -0.312695 0
M  V30 2413 H 234.208 5.20575 -2.40155 0
M  V30 2414 H 232.605 5.08682 -3.18375 0
M  V30 2415 H 233.675 3.6734 -3.16528 0
M  V30 2416 N 235.018 0.912232 1.28515 0
M  V30 2417 C 236.295 0.463597 1.90027 0
M  V30 2418 C 236.675 -1.05753 1.82701 0
M  V30 2419 O 236.023 -1.90492 1.26194 0
M  V30 2420 C 236.233 0.992253 3.34597 0
M  V30 2421 C 237.581 1.04344 4.11579 0
M  V30 2422 O 238.605 0.94079 3.43551 0
M  V30 2423 O 237.464 1.1995 5.33174 0
M  V30 2424 H 234.558 0.146666 0.813891 0
M  V30 2425 H 237.104 1.00292 1.36893 0
M  V30 2426 H 235.876 2.03623 3.34146 0
M  V30 2427 H 235.499 0.433672 3.95228 0
M  V30 2428 N 236.496 -1.42363 0.676048 0
M  V30 2429 C 237.724 -2.05859 0.207268 0
M  V30 2430 C 238.139 -1.50796 -1.13605 0
M  V30 2431 O 237.496 -0.648265 -1.70598 0
M  V30 2432 C 237.547 -3.61248 0.134975 0
M  V30 2433 O 237.268 -4.1427 1.42521 0
M  V30 2434 C 238.769 -4.41859 -0.357151 0
M  V30 2435 H 235.989 -0.663431 0.100503 0
M  V30 2436 H 238.533 -1.82479 0.923136 0
M  V30 2437 H 236.688 -3.83735 -0.531588 0
M  V30 2438 H 237.102 -5.0815 1.29939 0
M  V30 2439 H 238.576 -5.50847 -0.356641 0
M  V30 2440 H 239.053 -4.16536 -1.39264 0
M  V30 2441 H 239.659 -4.24392 0.27772 0
M  V30 2442 N 237.974 -0.419461 -1.51915 0
M  V30 2443 C 238.884 0.407528 -2.31033 0
M  V30 2444 C 239.9 1.04413 -1.3919 0
M  V30 2445 O 241.076 1.0434 -1.72265 0
M  V30 2446 C 238.141 1.50365 -3.12396 0
M  V30 2447 C 237.202 0.889029 -4.19994 0
M  V30 2448 C 236.435 1.93291 -4.97468 0
M  V30 2449 O 236.658 3.15259 -4.75361 0
M  V30 2450 O 235.592 1.53339 -5.8204 0
M  V30 2451 H 239.418 -0.237865 -3.02767 0
M  V30 2452 H 237.003 -0.182413 -1.48282 0
M  V30 2453 H 238.885 2.13975 -3.63032 0
M  V30 2454 H 237.56 2.13345 -2.43445 0
M  V30 2455 H 236.467 0.215353 -3.7348 0
M  V30 2456 H 237.8 0.302991 -4.91267 0
M  V30 2457 N 239.452 1.56882 -0.150215 0
M  V30 2458 C 240.384 2.14057 0.819286 0
M  V30 2459 C 241.397 1.09082 1.20851 0
M  V30 2460 O 242.586 1.36347 1.15203 0
M  V30 2461 C 239.686 2.65102 2.11127 0
M  V30 2462 C 238.859 3.94511 1.88891 0
M  V30 2463 C 237.918 4.30834 3.02107 0
M  V30 2464 O 236.944 4.99099 2.73659 0
M  V30 2465 N 238.146 3.90676 4.29363 0
M  V30 2466 H 240.911 2.97871 0.330618 0
M  V30 2467 H 238.472 1.61866 0.0332538 0
M  V30 2468 H 240.464 2.86411 2.85921 0
M  V30 2469 H 239.034 1.85994 2.51247 0
M  V30 2470 H 238.254 3.81795 0.981152 0
M  V30 2471 H 239.542 4.7907 1.71376 0
M  V30 2472 H 238.94 3.35677 4.55343 0
M  V30 2473 H 237.497 4.1703 5.00928 0
M  V30 2474 N 240.93 -0.123565 1.57115 0
M  V30 2475 C 241.86 -1.15309 2.03042 0
M  V30 2476 C 242.841 -1.43454 0.914061 0
M  V30 2477 O 244.026 -1.53973 1.18347 0
M  V30 2478 C 241.156 -2.48043 2.43089 0
M  V30 2479 C 240.11 -2.3437 3.58127 0
M  V30 2480 C 239.436 -3.72026 3.84059 0
M  V30 2481 C 240.736 -1.80804 4.90007 0
M  V30 2482 H 242.43 -0.771102 2.893 0
M  V30 2483 H 239.976 -0.369479 1.39179 0
M  V30 2484 H 241.929 -3.20311 2.73823 0
M  V30 2485 H 240.653 -2.88122 1.53796 0
M  V30 2486 H 239.312 -1.64551 3.27595 0
M  V30 2487 H 238.96 -4.09582 2.91979 0
M  V30 2488 H 238.66 -3.63732 4.6149 0
M  V30 2489 H 240.184 -4.45806 4.1724 0
M  V30 2490 H 241.598 -2.42886 5.19307 0
M  V30 2491 H 239.995 -1.83343 5.71407 0
M  V30 2492 H 241.065 -0.76528 4.78823 0
M  V30 2493 N 242.408 -1.52605 -0.393616 0
M  V30 2494 C 243.371 -1.76415 -1.46323 0
M  V30 2495 C 244.371 -0.634126 -1.47768 0
M  V30 2496 O 245.561 -0.902142 -1.4902 0
M  V30 2497 C 242.693 -1.8607 -2.85641 0
M  V30 2498 H 243.886 -2.71916 -1.26498 0
M  V30 2499 H 241.439 -1.43257 -0.625073 0
M  V30 2500 H 242.174 -0.925378 -3.10817 0
M  V30 2501 H 241.959 -2.68235 -2.85993 0
M  V30 2502 H 243.449 -2.06179 -3.63153 0
M  V30 2503 N 243.887 0.651787 -1.4349 0
M  V30 2504 C 244.819 1.77725 -1.44729 0
M  V30 2505 C 245.832 1.59141 -0.343231 0
M  V30 2506 O 247.021 1.67835 -0.607751 0
M  V30 2507 C 244.121 3.15172 -1.24579 0
M  V30 2508 C 243.294 3.60402 -2.47849 0
M  V30 2509 C 242.353 4.76656 -2.22902 0
M  V30 2510 O 241.379 4.86022 -2.96263 0
M  V30 2511 N 242.581 5.66958 -1.24656 0
M  V30 2512 H 245.346 1.77141 -2.41746 0
M  V30 2513 H 242.907 0.835678 -1.38665 0
M  V30 2514 H 244.899 3.90634 -1.0577 0
M  V30 2515 H 243.469 3.1052 -0.360015 0
M  V30 2516 H 242.689 2.75369 -2.82073 0
M  V30 2517 H 243.977 3.87368 -3.29884 0
M  V30 2518 H 243.375 5.62065 -0.640265 0
M  V30 2519 H 241.932 6.42135 -1.1183 0
M  V30 2520 N 245.365 1.30045 0.890287 0
M  V30 2521 C 246.781 1.08261 1.17268 0
M  V30 2522 C 246.981 -0.160063 2.00863 0
M  V30 2523 O 246.037 -0.855181 2.37577 0
M  V30 2524 C 247.35 2.34323 1.8845 0
M  V30 2525 C 248.898 2.39735 2.01237 0
M  V30 2526 C 249.373 3.65625 2.7583 0
M  V30 2527 N 250.864 3.66402 2.83379 0
M  V30 2528 C 251.599 4.60498 3.41657 0
M  V30 2529 N 251.095 5.64933 4.01026 0
M  V30 2530 N 252.888 4.48051 3.39421 0
M  V30 2531 H 245.039 2.09777 0.332762 0
M  V30 2532 H 247.302 0.92446 0.209948 0
M  V30 2533 H 247.008 3.2498 1.34465 0
M  V30 2534 H 246.882 2.4256 2.88867 0
M  V30 2535 H 249.269 1.4956 2.54393 0
M  V30 2536 H 249.35 2.35476 0.999232 0
M  V30 2537 H 248.994 4.56156 2.23347 0
M  V30 2538 H 248.924 3.67144 3.77509 0
M  V30 2539 H 251.415 2.90896 2.41222 0
M  V30 2540 H 251.728 6.32841 4.43545 0
M  V30 2541 H 250.073 5.68732 3.99461 0
M  V30 2542 H 253.264 3.65649 2.92264 0
M  V30 2543 H 253.437 5.21565 3.84544 0
M  V30 2544 N 246.843 -1.10192 1.12674 0
M  V30 2545 C 248.091 -1.81845 0.881861 0
M  V30 2546 C 248.412 -1.85737 -0.593867 0
M  V30 2547 O 247.682 -1.33724 -1.4316 0
M  V30 2548 H 246.262 -0.673432 0.323261 0
M  V30 2549 H 248.924 -1.33316 1.42172 0
M  V30 2550 H 248.02 -2.85288 1.2656 0
M  V30 2551 N 248.321 -0.919034 -1.28029 0
M  V30 2552 C 249.284 -0.416182 -2.2539 0
M  V30 2553 C 250.284 0.460438 -1.54067 0
M  V30 2554 O 251.474 0.262744 -1.72207 0
M  V30 2555 C 248.606 0.402707 -3.38513 0
M  V30 2556 H 249.799 -1.27629 -2.71387 0
M  V30 2557 H 247.352 -0.698919 -1.39803 0
M  V30 2558 H 248.087 1.282 -2.97885 0
M  V30 2559 H 247.872 -0.225698 -3.9145 0
M  V30 2560 H 249.362 0.745191 -4.10897 0
M  V30 2561 N 249.799 1.42003 -0.683588 0
M  V30 2562 C 251.047 2.01015 -0.209101 0
M  V30 2563 C 251.368 1.54365 1.19149 0
M  V30 2564 O 250.638 0.769083 1.80172 0
M  V30 2565 H 249.218 0.743294 -0.074315 0
M  V30 2566 H 251.88 1.73798 -0.882066 0
M  V30 2567 H 250.976 3.11343 -0.2172 0
M  V30 2568 N 251.277 0.427512 1.51691 0
M  V30 2569 C 252.207 -0.3796 2.30394 0
M  V30 2570 C 253.188 -1.02982 1.35384 0
M  V30 2571 O 254.373 -1.03534 1.643 0
M  V30 2572 C 251.503 -1.48649 3.1388 0
M  V30 2573 C 250.457 -0.960294 4.17088 0
M  V30 2574 C 249.783 -2.16219 4.89033 0
M  V30 2575 C 251.083 -0.00153679 5.223 0
M  V30 2576 H 252.777 0.277164 2.98114 0
M  V30 2577 H 250.323 0.134739 1.43368 0
M  V30 2578 H 252.276 -2.05826 3.67714 0
M  V30 2579 H 251 -2.1714 2.43962 0
M  V30 2580 H 249.659 -0.410806 3.64291 0
M  V30 2581 H 249.307 -2.83307 4.15628 0
M  V30 2582 H 249.007 -1.81654 5.58816 0
M  V30 2583 H 250.531 -2.73968 5.45687 0
M  V30 2584 H 251.945 -0.482687 5.71264 0
M  V30 2585 H 250.342 0.256199 5.99553 0
M  V30 2586 H 251.412 0.938174 4.75738 0
M  V30 2587 N 252.755 -1.56801 0.158532 0
M  V30 2588 C 253.995 -1.98383 -0.49229 0
M  V30 2589 C 254.359 -1.04184 -1.61275 0
M  V30 2590 O 255.56 -1.34856 -2.32524 0
M  V30 2591 C 253.831 -3.4385 -0.974766 0
M  V30 2592 S 255.39 -4.07459 -1.62857 0
M  V30 2593 H 252.208 -0.693041 -0.158794 0
M  V30 2594 H 254.81 -1.93856 0.252974 0
M  V30 2595 H 253.514 -4.10131 -0.148688 0
M  V30 2596 H 253.045 -3.52115 -1.75438 0
M  V30 2597 H 255.06 -4.01458 -2.91627 0
M  V30 2598 N 254.233 0.115231 -1.57178 0
M  V30 2599 C 255.48 0.822351 -1.8505 0
M  V30 2600 C 255.808 1.79701 -0.744168 0
M  V30 2601 O 255.063 1.93909 0.26414 0
M  V30 2602 C 255.362 1.60324 -3.19423 0
M  V30 2603 C 255.028 0.772536 -4.44233 0
M  V30 2604 C 253.69 0.543468 -4.78121 0
M  V30 2605 C 256.042 0.193746 -5.2084 0
M  V30 2606 C 253.37 -0.274583 -5.86057 0
M  V30 2607 C 255.722 -0.611517 -6.29637 0
M  V30 2608 C 254.386 -0.850867 -6.62055 0
M  V30 2609 H 253.656 0.30092 -0.677147 0
M  V30 2610 H 256.303 0.0845802 -1.91313 0
M  V30 2611 H 254.608 2.41203 -3.08753 0
M  V30 2612 H 256.305 2.1544 -3.38211 0
M  V30 2613 H 252.895 0.96117 -4.17683 0
M  V30 2614 H 257.079 0.357926 -4.95008 0
M  V30 2615 H 252.335 -0.469206 -6.09597 0
M  V30 2616 H 256.509 -1.06697 -6.88178 0
M  V30 2617 H 254.136 -1.48657 -7.45523 0
M  V30 2618 N 255.711 1.52812 0.385517 0
M  V30 2619 C 256.939 1.71907 1.15133 0
M  V30 2620 C 257.354 0.439004 1.83625 0
M  V30 2621 O 256.711 -0.586765 1.7281 0
M  V30 2622 C 256.762 2.87099 2.19673 0
M  V30 2623 O 256.483 4.10151 1.53973 0
M  V30 2624 C 257.984 3.17902 3.08955 0
M  V30 2625 H 255.204 0.575479 0.345057 0
M  V30 2626 H 257.748 1.99476 0.45052 0
M  V30 2627 H 255.903 2.61982 2.85384 0
M  V30 2628 H 256.317 4.74514 2.23465 0
M  V30 2629 H 257.791 4.01959 3.7833 0
M  V30 2630 H 258.268 2.3243 3.72657 0
M  V30 2631 H 258.874 3.44871 2.48885 0
M  V30 2632 N 257.189 -0.644168 1.43834 0
M  V30 2633 C 258.436 -1.40395 1.4593 0
M  V30 2634 C 258.764 -1.94305 0.0869658 0
M  V30 2635 O 258.019 -1.73288 -0.909378 0
M  V30 2636 C 258.318 -2.59615 2.45631 0
M  V30 2637 C 257.984 -2.2407 3.91284 0
M  V30 2638 C 256.646 -2.14089 4.30952 0
M  V30 2639 C 258.998 -1.95775 4.83034 0
M  V30 2640 C 256.326 -1.73981 5.6031 0
M  V30 2641 C 258.678 -1.57163 6.12766 0
M  V30 2642 C 257.342 -1.45713 6.51402 0
M  V30 2643 H 256.612 -0.513741 0.533995 0
M  V30 2644 H 259.259 -0.731724 1.76969 0
M  V30 2645 H 257.564 -3.32011 2.08028 0
M  V30 2646 H 259.261 -3.17834 2.44504 0
M  V30 2647 H 255.851 -2.32753 3.59895 0
M  V30 2648 H 260.035 -2.02403 4.53152 0
M  V30 2649 H 255.291 -1.63709 5.89075 0
M  V30 2650 H 259.465 -1.34303 6.83327 0
M  V30 2651 H 257.092 -1.14406 7.51542 0
M  V30 2652 N 258.668 -1.30515 -0.883378 0
M  V30 2653 C 259.914 -1.19607 -1.63774 0
M  V30 2654 C 260.247 0.248314 -1.92606 0
M  V30 2655 O 259.522 1.17742 -1.54813 0
M  V30 2656 C 259.805 -2.02669 -2.97653 0
M  V30 2657 C 259.658 -3.55335 -2.75784 0
M  V30 2658 C 260.977 -1.86573 -3.98596 0
M  V30 2659 H 258.096 -0.435856 -0.594305 0
M  V30 2660 H 260.738 -1.60165 -1.02212 0
M  V30 2661 H 258.888 -1.68208 -3.50197 0
M  V30 2662 H 260.56 -3.99863 -2.30016 0
M  V30 2663 H 258.803 -3.79438 -2.1026 0
M  V30 2664 H 259.474 -4.08745 -3.70988 0
M  V30 2665 H 261.95 -2.16703 -3.55217 0
M  V30 2666 H 260.826 -2.47014 -4.90179 0
M  V30 2667 H 261.087 -0.825321 -4.34328 0
M  V30 2668 N 260.146 1.09593 -1.13257 0
M  V30 2669 C 261.371 1.8604 -0.916732 0
M  V30 2670 C 261.796 1.80504 0.529146 0
M  V30 2671 O 261.154 1.18127 1.37534 0
M  V30 2672 C 261.202 3.32017 -1.40703 0
M  V30 2673 O 260.306 4.08141 -0.591153 0
M  V30 2674 H 259.647 0.576943 -0.328683 0
M  V30 2675 H 262.177 1.38405 -1.50682 0
M  V30 2676 H 262.187 3.82865 -1.4099 0
M  V30 2677 H 260.862 3.35361 -2.45979 0
M  V30 2678 H 259.439 3.67084 -0.656005 0
M  V30 2679 N 261.624 0.925811 1.2754 0
M  V30 2680 C 262.587 0.428129 2.25166 0
M  V30 2681 C 263.587 -0.452261 1.54309 0
M  V30 2682 O 264.777 -0.253608 1.72344 0
M  V30 2683 C 261.909 -0.384749 3.38722 0
M  V30 2684 H 263.102 1.29066 2.70706 0
M  V30 2685 H 260.655 0.706323 1.3943 0
M  V30 2686 H 261.39 -1.26618 2.98561 0
M  V30 2687 H 261.175 0.246454 3.91325 0
M  V30 2688 H 262.665 -0.723389 4.11287 0
M  V30 2689 N 263.102 -1.41638 0.69111 0
M  V30 2690 C 264.034 -2.29194 -0.0161523 0
M  V30 2691 C 265.047 -1.44549 -0.748955 0
M  V30 2692 O 266.236 -1.681 -0.6004 0
M  V30 2693 C 263.336 -3.22325 -1.0469 0
M  V30 2694 C 262.509 -4.35706 -0.384621 0
M  V30 2695 C 261.568 -5.09443 -1.31737 0
M  V30 2696 O 260.594 -5.63386 -0.811451 0
M  V30 2697 N 261.796 -5.16487 -2.64993 0
M  V30 2698 H 264.561 -2.90534 0.735523 0
M  V30 2699 H 262.122 -1.52742 0.53679 0
M  V30 2700 H 264.114 -3.68522 -1.67252 0
M  V30 2701 H 262.684 -2.62323 -1.70015 0
M  V30 2702 H 261.904 -3.91948 0.420804 0
M  V30 2703 H 263.192 -5.08743 0.0760765 0
M  V30 2704 H 262.59 -4.741 -3.08619 0
M  V30 2705 H 261.147 -5.66276 -3.22761 0
M  V30 2706 N 264.58 -0.43555 -1.51462 0
M  V30 2707 C 265.512 0.41257 -2.25456 0
M  V30 2708 C 266.525 0.987822 -1.29406 0
M  V30 2709 O 267.714 0.882266 -1.55172 0
M  V30 2710 C 264.814 1.58894 -2.99342 0
M  V30 2711 C 263.987 1.13288 -4.22474 0
M  V30 2712 C 263.046 2.17917 -4.78956 0
M  V30 2713 O 262.072 1.77425 -5.40841 0
M  V30 2714 N 263.274 3.50382 -4.62832 0
M  V30 2715 H 266.039 -0.221603 -2.9888 0
M  V30 2716 H 263.6 -0.264342 -1.59727 0
M  V30 2717 H 265.592 2.28508 -3.34015 0
M  V30 2718 H 264.162 2.12849 -2.28941 0
M  V30 2719 H 263.382 0.263881 -3.93316 0
M  V30 2720 H 264.67 0.805542 -5.02383 0
M  V30 2721 H 264.068 3.86013 -4.13534 0
M  V30 2722 H 262.625 4.15895 -5.01871 0
M  V30 2723 N 266.058 1.56714 -0.166846 0
M  V30 2724 C 267.006 2.19056 0.782123 0
M  V30 2725 C 268 1.15328 1.24079 0
M  V30 2726 O 269.206 1.33537 1.20697 0
M  V30 2727 H 265.581 0.70167 0.270486 0
M  V30 2728 H 267.552 2.97494 0.232322 0
M  V30 2729 C 266.301 2.84206 2.00306 0
M  V30 2730 H 265.624 3.63748 1.65914 0
M  V30 2731 H 267.064 3.31302 2.64604 0
M  V30 2732 C 265.523 1.83744 2.82382 0
M  V30 2733 O 266.053 1.32014 3.79388 0
M  V30 2734 N 264.259 1.52601 2.47308 0
M  V30 2735 H 263.806 1.9486 1.68485 0
M  V30 2736 H 263.764 0.856351 3.02513 0
M  V30 2737 N 267.536 -0.106894 1.57237 0
M  V30 2738 C 268.761 -0.830287 1.90055 0
M  V30 2739 C 269.186 -1.72064 0.75998 0
M  V30 2740 O 268.544 -1.78982 -0.288991 0
M  V30 2741 C 268.592 -1.6295 3.21683 0
M  V30 2742 O 267.696 -2.73748 3.08441 0
M  V30 2743 H 267.037 -0.228855 0.623315 0
M  V30 2744 H 269.567 -0.085658 2.04421 0
M  V30 2745 H 269.577 -2.01621 3.54701 0
M  V30 2746 H 268.252 -0.975989 4.04286 0
M  V30 2747 H 266.829 -2.38192 2.86913 0
M  V30 2748 N 269.014 -1.53014 -0.377408 0
M  V30 2749 C 270.425 -1.60438 -0.954798 0
M  V30 2750 C 270.776 -0.464418 -1.90624 0
M  V30 2751 O 269.901 0.41087 -2.12464 0
M  V30 2752 C 270.496 -2.90797 -1.73847 0
M  V30 2753 C 269.055 -3.00595 -2.26538 0
M  V30 2754 C 268.202 -2.55645 -1.07429 0
M  V30 2755 H 271.153 -1.57926 -0.156575 0
M  V30 2756 H 271.174 -2.77935 -2.5987 0
M  V30 2757 H 270.686 -3.73746 -1.04574 0
M  V30 2758 H 268.787 -2.22208 -2.99089 0
M  V30 2759 H 268.9 -4.05456 -2.5523 0
M  V30 2760 H 267.264 -2.10239 -1.43777 0
M  V30 2761 H 268.047 -3.41 -0.396728 0
M  V30 2762 N 270.492 0.636531 -1.44174 0
M  V30 2763 C 271.717 1.42847 -1.50364 0
M  V30 2764 C 272.142 1.87665 -0.127867 0
M  V30 2765 O 271.5 1.58408 0.88185 0
M  V30 2766 C 271.548 2.62854 -2.4686 0
M  V30 2767 O 270.652 3.62501 -1.9664 0
M  V30 2768 H 269.993 0.427642 -0.507955 0
M  V30 2769 H 272.523 0.777422 -1.89255 0
M  V30 2770 H 272.533 3.10465 -2.64718 0
M  V30 2771 H 271.208 2.29578 -3.46795 0
M  V30 2772 H 269.785 3.21735 -1.88523 0
M  V30 2773 N 271.97 1.30982 0.876444 0
M  V30 2774 C 273.195 1.23373 1.66715 0
M  V30 2775 C 273.62 -0.19885 1.87046 0
M  V30 2776 O 272.978 -1.1427 1.40756 0
M  V30 2777 C 273.026 1.97644 3.01611 0
M  V30 2778 O 272.13 1.30935 3.91062 0
M  V30 2779 H 271.471 0.426279 0.509099 0
M  V30 2780 H 274.001 1.72944 1.09323 0
M  V30 2781 H 274.011 2.06992 3.51594 0
M  V30 2782 H 272.686 3.01829 2.86133 0
M  V30 2783 H 271.263 1.29996 3.49507 0
M  V30 2784 N 273.449 -1.08991 1.13837 0
M  V30 2785 C 274.677 -1.85011 0.926202 0
M  V30 2786 C 275.092 -1.8135 -0.525127 0
M  V30 2787 O 274.449 -1.21287 -1.36366 0
M  V30 2788 C 274.5 -3.32802 1.41155 0
M  V30 2789 O 274.221 -3.36444 2.80601 0
M  V30 2790 C 275.722 -4.25649 1.23847 0
M  V30 2791 H 272.942 -0.584249 0.32999 0
M  V30 2792 H 275.486 -1.37688 1.51202 0
M  V30 2793 H 273.641 -3.77536 0.868631 0
M  V30 2794 H 274.055 -4.28657 3.02248 0
M  V30 2795 H 275.529 -5.27485 1.62675 0
M  V30 2796 H 276.006 -4.38828 0.18065 0
M  V30 2797 H 276.612 -3.86735 1.76964 0
M  V30 2798 N 274.927 -0.932562 -1.27047 0
M  V30 2799 C 276.175 -0.574422 -1.93765 0
M  V30 2800 C 276.496 0.887993 -1.73608 0
M  V30 2801 O 275.766 1.62999 -1.08665 0
M  V30 2802 H 274.346 -0.209451 -0.717035 0
M  V30 2803 H 277.008 -1.18601 -1.5466 0
M  V30 2804 H 276.104 -0.784841 -3.02071 0
M  V30 2805 N 276.405 1.4127 -0.698611 0
M  V30 2806 C 277.63 2.06024 -0.238512 0
M  V30 2807 C 278.055 1.5224 1.10475 0
M  V30 2808 O 277.413 0.650623 1.69223 0
M  V30 2809 C 277.461 3.59988 -0.209952 0
M  V30 2810 O 276.565 4.04282 0.814235 0
M  V30 2811 H 275.906 0.653829 -0.115775 0
M  V30 2812 H 278.436 1.8098 -0.954326 0
M  V30 2813 H 278.446 4.07979 -0.0418436 0
M  V30 2814 H 277.121 3.98503 -1.1903 0
M  V30 2815 H 275.698 3.6779 0.615234 0
M  V30 2816 N 277.883 0.443576 1.51229 0
M  V30 2817 C 279.131 -0.120557 2.0174 0
M  V30 2818 C 279.452 -1.42665 1.32935 0
M  V30 2819 O 278.722 -1.9028 0.465866 0
M  V30 2820 H 277.302 -0.0475426 0.745486 0
M  V30 2821 H 279.964 0.587711 1.85828 0
M  V30 2822 H 279.06 -0.291972 3.10731 0
M  V30 2823 N 279.361 -1.56624 0.175154 0
M  V30 2824 C 280.309 -2.19468 -0.770495 0
M  V30 2825 C 281.303 -1.15985 -1.23466 0
M  V30 2826 O 282.509 -1.34176 -1.19987 0
M  V30 2827 H 278.884 -0.703095 -0.266761 0
M  V30 2828 H 280.855 -2.97613 -0.216542 0
M  V30 2829 C 279.604 -2.85264 -1.98796 0
M  V30 2830 H 278.927 -3.64623 -1.63983 0
M  V30 2831 H 280.367 -3.327 -2.62843 0
M  V30 2832 C 278.826 -1.85239 -2.81404 0
M  V30 2833 O 279.356 -1.34024 -3.78682 0
M  V30 2834 N 277.562 -1.53911 -2.46495 0
M  V30 2835 H 277.109 -1.95751 -1.67449 0
M  V30 2836 H 277.067 -0.872382 -3.02054 0
M  V30 2837 N 280.839 0.0985539 -1.57292 0
M  V30 2838 C 282.067 0.816318 -1.90115 0
M  V30 2839 C 282.482 1.72451 -0.768509 0
M  V30 2840 O 281.839 1.80643 0.259687 0
M  V30 2841 C 281.89 1.63259 -3.22535 0
M  V30 2842 O 281.611 0.760934 -4.31441 0
M  V30 2843 C 283.112 2.45372 -3.69199 0
M  V30 2844 H 280.332 0.233595 -0.629027 0
M  V30 2845 H 282.876 0.0768229 -2.04356 0
M  V30 2846 H 281.031 2.32463 -3.09903 0
M  V30 2847 H 281.445 1.32595 -5.07463 0
M  V30 2848 H 282.919 2.98144 -4.64558 0
M  V30 2849 H 283.396 3.23677 -2.96867 0
M  V30 2850 H 284.002 1.81373 -3.84687 0
M  V30 2851 N 282.317 1.53212 0.369288 0
M  V30 2852 C 283.227 1.82342 1.47609 0
M  V30 2853 C 284.243 0.711532 1.58787 0
M  V30 2854 O 285.419 1.0012 1.74751 0
M  V30 2855 C 282.484 2.00393 2.8292 0
M  V30 2856 C 281.545 3.24297 2.81301 0
M  V30 2857 C 280.778 3.41478 4.10157 0
M  V30 2858 O 281.001 2.63033 5.06132 0
M  V30 2859 O 279.935 4.34817 4.16194 0
M  V30 2860 H 283.761 2.76366 1.25918 0
M  V30 2861 H 281.346 1.38547 0.559034 0
M  V30 2862 H 283.228 2.13859 3.63101 0
M  V30 2863 H 281.903 1.09559 3.04596 0
M  V30 2864 H 280.81 3.16257 1.99831 0
M  V30 2865 H 282.143 4.15041 2.64578 0
M  V30 2866 N 283.795 -0.628877 1.44509 0
M  V30 2867 C 284.745 -1.7345 1.47983 0
M  V30 2868 C 285.729 -1.5715 0.345373 0
M  V30 2869 O 286.921 -1.66848 0.590829 0
M  V30 2870 C 284.05 -3.12143 1.42904 0
M  V30 2871 C 283.136 -3.33906 2.61472 0
M  V30 2872 N 283.527 -3.26024 3.86706 0
M  V30 2873 C 281.825 -3.64709 2.56716 0
M  V30 2874 C 282.526 -3.48536 4.65722 0
M  V30 2875 N 281.502 -3.71517 3.96832 0
M  V30 2876 H 285.304 -1.65818 2.42655 0
M  V30 2877 H 282.818 -0.831419 1.39503 0
M  V30 2878 H 284.815 -3.91433 1.43476 0
M  V30 2879 H 283.475 -3.2094 0.492717 0
M  V30 2880 H 284.486 -3.04893 4.18641 0
M  V30 2881 H 281.163 -3.80473 1.71891 0
M  V30 2882 H 282.553 -3.48016 5.74747 0
M  V30 2883 N 285.273 -1.31445 -0.869486 0
M  V30 2884 C 286.498 -1.24256 -1.66058 0
M  V30 2885 C 286.923 0.188928 -1.87149 0
M  V30 2886 O 286.281 1.13522 -1.4136 0
M  V30 2887 C 286.329 -1.9924 -3.00559 0
M  V30 2888 O 285.433 -1.33007 -3.90362 0
M  V30 2889 H 284.774 -0.428973 -0.506831 0
M  V30 2890 H 287.304 -1.73521 -1.08404 0
M  V30 2891 H 287.314 -2.08854 -3.50491 0
M  V30 2892 H 285.989 -3.03342 -2.84528 0
M  V30 2893 H 284.566 -1.31848 -3.48813 0
M  V30 2894 N 286.751 1.08385 -1.14413 0
M  V30 2895 C 287.991 1.8238 -0.922868 0
M  V30 2896 C 288.355 1.84225 0.540842 0
M  V30 2897 O 289.556 2.53985 0.880058 0
M  V30 2898 C 287.827 3.24048 -1.50757 0
M  V30 2899 S 289.386 4.14917 -1.4279 0
M  V30 2900 H 286.204 0.628524 -0.332384 0
M  V30 2901 H 288.806 1.30278 -1.45766 0
M  V30 2902 H 287.51 3.20288 -2.56601 0
M  V30 2903 H 287.041 3.81224 -0.971178 0
M  V30 2904 H 289.056 4.94473 -0.413582 0
M  V30 2905 N 288.23 0.939286 1.26551 0
M  V30 2906 C 289.455 0.602008 1.98471 0
M  V30 2907 C 289.88 -0.815624 1.69497 0
M  V30 2908 O 289.238 -1.54912 0.941905 0
M  V30 2909 C 289.286 0.848407 3.50477 0
M  V30 2910 O 288.39 -0.0804009 4.12322 0
M  V30 2911 H 287.731 0.23049 0.622712 0
M  V30 2912 H 290.261 1.2617 1.61066 0
M  V30 2913 H 290.271 0.768553 4.00696 0
M  V30 2914 H 288.946 1.88171 3.70897 0
M  V30 2915 H 287.523 0.0503508 3.72866 0
M  V30 2916 N 289.708 -1.40897 0.706093 0
M  V30 2917 C 290.933 -2.05895 0.249435 0
M  V30 2918 C 291.358 -1.52823 -1.09666 0
M  V30 2919 O 290.716 -0.659589 -1.68876 0
M  V30 2920 C 290.764 -3.59872 0.22904 0
M  V30 2921 O 289.868 -4.04708 -0.792784 0
M  V30 2922 H 289.209 -0.653206 0.119241 0
M  V30 2923 H 291.739 -1.80471 0.96391 0
M  V30 2924 H 291.749 -4.07951 0.0634791 0
M  V30 2925 H 290.424 -3.97866 1.21141 0
M  V30 2926 H 289.001 -3.68111 -0.59572 0
M  V30 2927 N 291.186 -0.45159 -1.50991 0
M  V30 2928 C 292.118 0.388634 -2.25881 0
M  V30 2929 C 293.131 0.974041 -1.30446 0
M  V30 2930 O 294.32 0.865758 -1.56099 0
M  V30 2931 C 291.42 1.5571 -3.01011 0
M  V30 2932 C 290.593 1.08801 -4.23652 0
M  V30 2933 C 289.652 2.12825 -4.8124 0
M  V30 2934 O 288.678 1.71678 -5.42693 0
M  V30 2935 N 289.88 3.45453 -4.66522 0
M  V30 2936 H 292.645 -0.25329 -2.98628 0
M  V30 2937 H 290.206 -0.281268 -1.59438 0
M  V30 2938 H 292.198 2.24952 -3.3642 0
M  V30 2939 H 290.768 2.10409 -2.31186 0
M  V30 2940 H 289.988 0.22215 -3.93574 0
M  V30 2941 H 291.276 0.752213 -5.03209 0
M  V30 2942 H 290.674 3.81605 -4.17605 0
M  V30 2943 H 289.231 4.10549 -5.06254 0
M  V30 2944 N 292.664 1.56529 -0.183458 0
M  V30 2945 C 293.611 2.18546 0.742055 0
M  V30 2946 C 294.581 1.12912 1.2182 0
M  V30 2947 O 295.766 1.41115 1.28418 0
M  V30 2948 C 292.906 2.83977 1.96089 0
M  V30 2949 C 292.019 4.04105 1.52719 0
M  V30 2950 C 291.154 4.57427 2.70063 0
M  V30 2951 C 290.193 5.69938 2.23243 0
M  V30 2952 N 289.33 6.17717 3.33722 0
M  V30 2953 H 294.17 2.97284 0.206432 0
M  V30 2954 H 291.707 1.46823 0.0901571 0
M  V30 2955 H 293.665 3.20077 2.67594 0
M  V30 2956 H 292.295 2.07822 2.47002 0
M  V30 2957 H 291.347 3.73745 0.708436 0
M  V30 2958 H 292.659 4.85513 1.1436 0
M  V30 2959 H 291.813 4.95772 3.49708 0
M  V30 2960 H 290.552 3.75101 3.11689 0
M  V30 2961 H 289.557 5.31133 1.42048 0
M  V30 2962 H 290.782 6.54073 1.82661 0
M  V30 2963 H 288.728 5.38317 3.74902 0
M  V30 2964 H 288.645 6.94146 2.99495 0
M  V30 2965 H 289.913 6.60713 4.13616 0
M  V30 2966 N 294.142 -0.090211 1.57342 0
M  V30 2967 C 295.074 -1.13541 1.99101 0
M  V30 2968 C 296.087 -1.3604 0.894258 0
M  V30 2969 O 297.276 -1.34606 1.17233 0
M  V30 2970 C 294.376 -2.49001 2.29895 0
M  V30 2971 C 293.549 -2.46712 3.61182 0
M  V30 2972 C 292.608 -3.64136 3.79857 0
M  V30 2973 O 291.634 -3.46405 4.51655 0
M  V30 2974 N 292.836 -4.83802 3.20806 0
M  V30 2975 H 295.601 -0.779942 2.89373 0
M  V30 2976 H 293.162 -0.279125 1.59476 0
M  V30 2977 H 295.154 -3.26166 2.39578 0
M  V30 2978 H 293.724 -2.76619 1.45605 0
M  V30 2979 H 292.944 -1.55058 3.62423 0
M  V30 2980 H 294.232 -2.42265 4.4742 0
M  V30 2981 H 293.63 -5.01112 2.62494 0
M  V30 2982 H 292.187 -5.58543 3.35966 0
M  V30 2983 N 295.62 -1.53406 -0.361157 0
M  V30 2984 C 296.869 -1.69022 -1.10066 0
M  V30 2985 C 297.182 -0.450838 -1.90333 0
M  V30 2986 O 298.388 -0.487617 -2.67085 0
M  V30 2987 C 296.844 -2.98812 -2.00598 0
M  V30 2988 C 296.452 -4.30027 -1.25621 0
M  V30 2989 C 298.196 -3.23795 -2.74513 0
M  V30 2990 C 296.103 -5.50903 -2.1508 0
M  V30 2991 H 295.033 -0.629776 -0.414606 0
M  V30 2992 H 297.684 -1.79907 -0.361348 0
M  V30 2993 H 296.066 -2.8174 -2.78278 0
M  V30 2994 H 297.24 -4.57745 -0.529739 0
M  V30 2995 H 295.555 -4.11522 -0.635496 0
M  V30 2996 H 298.152 -4.11289 -3.41681 0
M  V30 2997 H 298.495 -2.40045 -3.40123 0
M  V30 2998 H 299.028 -3.41561 -2.03914 0
M  V30 2999 H 295.767 -6.37143 -1.54041 0
M  V30 3000 H 295.287 -5.27459 -2.85565 0
M  V30 3001 H 296.966 -5.85865 -2.74538 0
M  V30 3002 N 297.098 0.621204 -1.44841 0
M  V30 3003 C 298.323 1.41244 -1.51871 0
M  V30 3004 C 298.748 1.87519 -0.147764 0
M  V30 3005 O 298.106 1.59334 0.865 0
M  V30 3006 C 298.154 2.60221 -2.49634 0
M  V30 3007 O 297.258 3.60395 -2.00473 0
M  V30 3008 H 296.599 0.42223 -0.512463 0
M  V30 3009 H 299.129 0.757305 -1.90069 0
M  V30 3010 H 299.139 3.0764 -2.67996 0
M  V30 3011 H 297.814 2.25887 -3.4921 0
M  V30 3012 H 296.391 3.19717 -1.91925 0
M  V30 3013 N 298.576 1.31904 0.862503 0
M  V30 3014 C 299.825 1.21373 1.61094 0
M  V30 3015 C 300.138 -0.22504 1.94301 0
M  V30 3016 O 301.344 -0.452121 2.67709 0
M  V30 3017 C 299.8 2.12525 2.9045 0
M  V30 3018 C 299.408 3.61441 2.64697 0
M  V30 3019 C 301.152 2.10813 3.68454 0
M  V30 3020 C 299.059 4.44578 3.90006 0
M  V30 3021 H 297.989 0.450705 0.604468 0
M  V30 3022 H 300.64 1.56811 0.953027 0
M  V30 3023 H 299.022 1.69994 3.57656 0
M  V30 3024 H 300.196 4.12264 2.05851 0
M  V30 3025 H 298.511 3.65205 2.00036 0
M  V30 3026 H 301.108 2.70167 4.61426 0
M  V30 3027 H 301.451 1.09713 4.01583 0
M  V30 3028 H 301.984 2.51583 3.08141 0
M  V30 3029 H 298.723 5.46461 3.62023 0
M  V30 3030 H 298.243 3.98508 4.48276 0
M  V30 3031 H 299.922 4.57176 4.5782 0
M  V30 3032 N 300.054 -1.07777 1.14986 0
M  V30 3033 C 300.986 -2.14769 0.800436 0
M  V30 3034 C 301.999 -1.61739 -0.185595 0
M  V30 3035 O 303.188 -1.78462 0.0370358 0
M  V30 3036 C 300.288 -3.38481 0.168533 0
M  V30 3037 C 299.461 -4.20876 1.1909 0
M  V30 3038 C 298.52 -5.22976 0.581575 0
M  V30 3039 O 297.546 -5.55388 1.24633 0
M  V30 3040 N 298.748 -5.76976 -0.638706 0
M  V30 3041 H 301.513 -2.45348 1.72118 0
M  V30 3042 H 299.074 -1.23645 1.04515 0
M  V30 3043 H 301.066 -4.03916 -0.251764 0
M  V30 3044 H 299.636 -3.05651 -0.655467 0
M  V30 3045 H 298.856 -3.51322 1.78791 0
M  V30 3046 H 300.144 -4.7274 1.88133 0
M  V30 3047 H 299.542 -5.52886 -1.19723 0
M  V30 3048 H 298.099 -6.44061 -1.00142 0
M  V30 3049 N 301.532 -0.945985 -1.26051 0
M  V30 3050 C 302.482 -0.430164 -2.23905 0
M  V30 3051 C 303.466 0.47579 -1.53704 0
M  V30 3052 O 304.658 0.310252 -1.7426 0
M  V30 3053 C 301.787 0.298957 -3.41996 0
M  V30 3054 C 300.873 -0.624566 -4.19476 0
M  V30 3055 N 301.264 -1.75245 -4.74471 0
M  V30 3056 C 299.562 -0.431082 -4.43912 0
M  V30 3057 C 300.263 -2.32834 -5.3307 0
M  V30 3058 N 299.239 -1.61583 -5.1903 0
M  V30 3059 H 303.041 -1.29107 -2.64024 0
M  V30 3060 H 300.555 -0.802428 -1.41191 0
M  V30 3061 H 302.552 0.685565 -4.11225 0
M  V30 3062 H 301.212 1.15657 -3.03403 0
M  V30 3063 H 302.223 -2.13449 -4.71868 0
M  V30 3064 H 298.9 0.384364 -4.15727 0
M  V30 3065 H 300.29 -3.27893 -5.86461 0
M  V30 3066 N 303.011 1.40521 -0.713556 0
M  V30 3067 C 304.427 1.54839 -0.386907 0
M  V30 3068 C 304.627 1.68532 1.1045 0
M  V30 3069 O 303.683 1.67377 1.89053 0
M  V30 3070 C 304.996 2.77792 -1.15118 0
M  V30 3071 C 306.544 2.91607 -1.13729 0
M  V30 3072 C 307.019 4.1747 -1.88368 0
M  V30 3073 N 308.51 4.24466 -1.85427 0
M  V30 3074 C 309.245 5.20755 -2.40004 0
M  V30 3075 N 308.741 6.22965 -3.03129 0
M  V30 3076 N 310.534 5.1282 -2.30158 0
M  V30 3077 H 302.685 1.29879 -1.68063 0
M  V30 3078 H 304.948 0.627896 -0.710247 0
M  V30 3079 H 304.654 2.73944 -2.20561 0
M  V30 3080 H 304.528 3.6984 -0.741477 0
M  V30 3081 H 306.915 2.94959 -0.0910608 0
M  V30 3082 H 306.996 2.00682 -1.5862 0
M  V30 3083 H 306.64 4.1488 -2.9298 0
M  V30 3084 H 306.57 5.074 -1.40898 0
M  V30 3085 H 309.061 3.51241 -1.3942 0
M  V30 3086 H 309.374 6.92859 -3.42295 0
M  V30 3087 H 307.719 6.23415 -3.07212 0
M  V30 3088 H 310.91 4.31899 -1.80501 0
M  V30 3089 H 311.083 5.87689 -2.72993 0
M  V30 3090 N 304.489 0.459591 1.5075 0
M  V30 3091 C 305.421 -0.37665 2.26084 0
M  V30 3092 C 306.434 -0.967109 1.30961 0
M  V30 3093 O 307.623 -0.857468 1.56556 0
M  V30 3094 C 304.723 -1.54112 3.01832 0
M  V30 3095 C 303.896 -1.06553 4.24223 0
M  V30 3096 C 302.955 -2.1027 4.82362 0
M  V30 3097 O 301.981 -1.68798 5.43595 0
M  V30 3098 N 303.183 -3.42974 4.68347 0
M  V30 3099 H 305.948 0.269124 2.98489 0
M  V30 3100 H 303.509 0.28972 1.59287 0
M  V30 3101 H 305.501 -2.23165 3.37608 0
M  V30 3102 H 304.071 -2.0918 2.32298 0
M  V30 3103 H 303.291 -0.201274 3.93686 0
M  V30 3104 H 304.579 -0.725516 5.03601 0
M  V30 3105 H 303.977 -3.79385 4.19623 0
M  V30 3106 H 302.534 -4.07858 5.08424 0
M  V30 3107 N 305.967 -1.56429 0.191757 0
M  V30 3108 C 307.195 -2.01867 -0.453586 0
M  V30 3109 C 307.61 -1.07191 -1.5542 0
M  V30 3110 O 306.967 -0.0762108 -1.82341 0
M  V30 3111 C 307.018 -3.47017 -1.013 0
M  V30 3112 O 306.739 -4.38078 0.0437005 0
M  V30 3113 C 308.24 -4.07956 -1.73456 0
M  V30 3114 H 305.46 -0.661211 -0.114199 0
M  V30 3115 H 308.004 -2.02295 0.299483 0
M  V30 3116 H 306.159 -3.47298 -1.71647 0
M  V30 3117 H 306.573 -5.23178 -0.372212 0
M  V30 3118 H 308.047 -5.1138 -2.07833 0
M  V30 3119 H 308.524 -3.51222 -2.63704 0
M  V30 3120 H 309.13 -4.11437 -1.07702 0
M  V30 3121 N 307.445 0.0818655 -1.57387 0
M  V30 3122 C 308.377 1.12484 -1.997 0
M  V30 3123 C 309.39 1.35564 -0.90146 0
M  V30 3124 O 310.579 1.33982 -1.17945 0
M  V30 3125 C 307.679 2.47778 -2.31213 0
M  V30 3126 C 306.852 2.44793 -3.62485 0
M  V30 3127 C 305.911 3.62117 -3.81782 0
M  V30 3128 O 304.937 3.44005 -4.53486 0
M  V30 3129 N 306.139 4.82094 -3.23367 0
M  V30 3130 H 308.904 0.764585 -2.89783 0
M  V30 3131 H 306.465 0.270664 -1.59621 0
M  V30 3132 H 308.457 3.24891 -2.41304 0
M  V30 3133 H 307.027 2.75843 -1.4707 0
M  V30 3134 H 306.247 1.53134 -3.6324 0
M  V30 3135 H 307.535 2.39889 -4.48699 0
M  V30 3136 H 306.933 4.99713 -2.65148 0
M  V30 3137 H 305.49 5.56753 -3.38923 0
M  V30 3138 N 308.923 1.53595 0.353017 0
M  V30 3139 C 310.148 1.7462 1.11904 0
M  V30 3140 C 310.573 0.479721 1.8188 0
M  V30 3141 O 309.931 -0.567066 1.72204 0
M  V30 3142 C 309.979 2.92029 2.11545 0
M  V30 3143 O 309.083 2.61516 3.18878 0
M  V30 3144 H 308.424 0.579531 0.324099 0
M  V30 3145 H 310.954 2.00525 0.406301 0
M  V30 3146 H 310.964 3.18551 2.5493 0
M  V30 3147 H 309.639 3.83888 1.60008 0
M  V30 3148 H 308.216 2.45852 2.80377 0
M  V30 3149 N 310.401 -0.613514 1.45168 0
M  V30 3150 C 311.678 -1.37263 1.39349 0
M  V30 3151 C 312.058 -2.11012 0.0610848 0
M  V30 3152 O 311.406 -2.07502 -0.956825 0
M  V30 3153 C 311.616 -2.3244 2.60332 0
M  V30 3154 C 312.964 -2.9523 3.05163 0
M  V30 3155 O 313.988 -2.42762 2.60663 0
M  V30 3156 O 312.847 -3.90454 3.82372 0
M  V30 3157 H 309.941 -0.615188 0.552696 0
M  V30 3158 H 312.487 -0.637097 1.57287 0
M  V30 3159 H 311.259 -1.77164 3.48896 0
M  V30 3160 H 310.882 -3.13383 2.44698 0
M  V30 3161 N 311.879 -1.3236 -0.855495 0
M  V30 3162 C 312.809 -1.23833 -1.97958 0
M  V30 3163 C 313.79 -0.122361 -1.69659 0
M  V30 3164 O 314.975 -0.30939 -1.9172 0
M  V30 3165 C 312.105 -0.959772 -3.33775 0
M  V30 3166 C 311.059 -2.03689 -3.76424 0
M  V30 3167 C 310.385 -1.61075 -5.09862 0
M  V30 3168 C 311.685 -3.4518 -3.9198 0
M  V30 3169 H 313.379 -2.1788 -2.0535 0
M  V30 3170 H 310.925 -1.04891 -0.986605 0
M  V30 3171 H 312.878 -0.886678 -4.11966 0
M  V30 3172 H 311.602 0.0163404 -3.26596 0
M  V30 3173 H 310.261 -2.10012 -3.00484 0
M  V30 3174 H 309.909 -0.622107 -4.99138 0
M  V30 3175 H 309.609 -2.33143 -5.39368 0
M  V30 3176 H 311.133 -1.55201 -5.90546 0
M  V30 3177 H 312.547 -3.4145 -4.60526 0
M  V30 3178 H 310.944 -4.1559 -4.32903 0
M  V30 3179 H 312.014 -3.84903 -2.94919 0
M  V30 3180 N 313.357 1.07166 -1.15556 0
M  V30 3181 C 314.585 1.83514 -0.955519 0
M  V30 3182 C 315 1.82163 0.49621 0
M  V30 3183 O 314.357 1.23441 1.34419 0
M  V30 3184 C 314.408 3.30515 -1.46432 0
M  V30 3185 O 314.129 3.31937 -2.85918 0
M  V30 3186 C 315.63 4.23625 -1.30603 0
M  V30 3187 H 312.85 0.578926 -0.339244 0
M  V30 3188 H 315.394 1.35265 -1.53374 0
M  V30 3189 H 313.549 3.76106 -0.928584 0
M  V30 3190 H 313.963 4.23794 -3.09029 0
M  V30 3191 H 315.437 5.24831 -1.71047 0
M  V30 3192 H 315.914 4.38485 -0.250441 0
M  V30 3193 H 316.52 3.83871 -1.83094 0
M  V30 3194 N 314.835 0.952656 1.25548 0
M  V30 3195 C 316.084 0.602053 1.92505 0
M  V30 3196 C 316.397 -0.864663 1.75451 0
M  V30 3197 O 317.603 -1.32514 2.36965 0
M  V30 3198 C 316.059 1.02607 3.44963 0
M  V30 3199 C 315.667 2.51519 3.70732 0
M  V30 3200 C 317.411 0.747905 4.1786 0
M  V30 3201 C 315.318 2.87732 5.16686 0
M  V30 3202 H 314.248 0.22146 0.720744 0
M  V30 3203 H 316.899 1.15684 1.42441 0
M  V30 3204 H 315.281 0.399712 3.93978 0
M  V30 3205 H 316.455 3.19157 3.32378 0
M  V30 3206 H 314.77 2.76786 3.11092 0
M  V30 3207 H 317.367 0.994647 5.25367 0
M  V30 3208 H 317.71 -0.315629 4.15102 0
M  V30 3209 H 318.243 1.33452 3.74747 0
M  V30 3210 H 314.982 3.93095 5.24554 0
M  V30 3211 H 314.502 2.24765 5.56094 0
M  V30 3212 H 316.181 2.76817 5.84792 0
M  V30 3213 N 316.313 -1.40141 0.720998 0
M  V30 3214 C 317.223 -2.34486 0.0731031 0
M  V30 3215 C 318.239 -1.57587 -0.737723 0
M  V30 3216 O 319.415 -1.89949 -0.669429 0
M  V30 3217 C 316.48 -3.36528 -0.833656 0
M  V30 3218 C 315.541 -4.29298 -0.0121673 0
M  V30 3219 C 314.774 -5.26466 -0.875742 0
M  V30 3220 O 314.997 -5.29745 -2.11485 0
M  V30 3221 O 313.931 -6.01092 -0.31185 0
M  V30 3222 H 317.757 -2.9152 0.851444 0
M  V30 3223 H 315.342 -1.41427 0.481527 0
M  V30 3224 H 317.224 -3.99093 -1.35289 0
M  V30 3225 H 315.899 -2.81899 -1.59105 0
M  V30 3226 H 314.806 -3.70001 0.552262 0
M  V30 3227 H 316.139 -4.87094 0.707129 0
M  V30 3228 N 317.792 -0.46758 -1.50504 0
M  V30 3229 C 318.739 0.328413 -2.28452 0
M  V30 3230 C 319.709 0.990313 -1.33349 0
M  V30 3231 O 320.894 1.00343 -1.62284 0
M  V30 3232 C 318.034 1.40648 -3.15138 0
M  V30 3233 C 317.147 0.759709 -4.25267 0
M  V30 3234 C 316.282 1.81537 -4.99217 0
M  V30 3235 C 315.321 1.14866 -6.01226 0
M  V30 3236 N 314.458 2.14702 -6.68467 0
M  V30 3237 H 319.298 -0.342603 -2.96024 0
M  V30 3238 H 316.835 -0.180801 -1.45985 0
M  V30 3239 H 318.793 2.04315 -3.63746 0
M  V30 3240 H 317.423 2.04671 -2.49619 0
M  V30 3241 H 316.475 0.0105671 -3.80399 0
M  V30 3242 H 317.787 0.233243 -4.98254 0
M  V30 3243 H 316.941 2.52793 -5.51526 0
M  V30 3244 H 315.68 2.37564 -4.25928 0
M  V30 3245 H 314.685 0.42171 -5.4818 0
M  V30 3246 H 315.91 0.595334 -6.76485 0
M  V30 3247 H 313.856 2.69752 -5.97972 0
M  V30 3248 H 313.773 1.6703 -7.37317 0
M  V30 3249 H 315.041 2.85348 -7.25394 0
M  V30 3250 N 319.27 1.56325 -0.20005 0
M  V30 3251 C 320.519 1.96895 0.437652 0
M  V30 3252 C 320.832 1.08999 1.62415 0
M  V30 3253 O 322.038 1.39372 2.32997 0
M  V30 3254 C 320.494 3.50198 0.830025 0
M  V30 3255 C 320.102 4.46765 -0.332461 0
M  V30 3256 C 321.846 3.99526 1.43453 0
M  V30 3257 C 319.753 5.91344 0.0811468 0
M  V30 3258 H 318.683 0.735209 0.167282 0
M  V30 3259 H 321.334 1.81148 -0.292853 0
M  V30 3260 H 319.716 3.61467 1.61734 0
M  V30 3261 H 320.89 4.47231 -1.11 0
M  V30 3262 H 319.205 4.07657 -0.848789 0
M  V30 3263 H 321.802 5.05025 1.75652 0
M  V30 3264 H 322.145 3.44122 2.34277 0
M  V30 3265 H 322.678 3.91393 0.71109 0
M  V30 3266 H 319.417 6.50685 -0.793033 0
M  V30 3267 H 318.937 5.94121 0.823445 0
M  V30 3268 H 320.616 6.44945 0.515252 0
M  V30 3269 N 320.748 -0.0735177 1.57428 0
M  V30 3270 C 321.973 -0.789787 1.91774 0
M  V30 3271 C 322.398 -1.70413 0.796306 0
M  V30 3272 O 321.756 -1.79555 -0.250961 0
M  V30 3273 C 321.804 -1.5609 3.25067 0
M  V30 3274 O 320.908 -2.67144 3.14178 0
M  V30 3275 H 320.249 -0.215582 0.628029 0
M  V30 3276 H 322.779 -0.0422781 2.04556 0
M  V30 3277 H 322.789 -1.94052 3.58898 0
M  V30 3278 H 321.464 -0.890015 4.06265 0
M  V30 3279 H 320.041 -2.32052 2.91901 0
M  V30 3280 N 322.226 -1.5378 -0.344866 0
M  V30 3281 C 323.189 -1.80981 -1.40637 0
M  V30 3282 C 324.189 -0.680816 -1.45676 0
M  V30 3283 O 325.379 -0.949095 -1.46075 0
M  V30 3284 C 322.511 -1.95063 -2.79577 0
M  V30 3285 H 323.704 -2.75803 -1.17783 0
M  V30 3286 H 321.257 -1.45173 -0.579181 0
M  V30 3287 H 321.992 -1.02379 -3.07716 0
M  V30 3288 H 321.777 -2.77198 -2.77315 0
M  V30 3289 H 323.267 -2.17629 -3.56409 0
M  V30 3290 N 323.704 0.605807 -1.45491 0
M  V30 3291 C 324.634 1.72709 -1.57143 0
M  V30 3292 C 325.615 1.6476 -0.422884 0
M  V30 3293 O 326.8 1.83132 -0.646247 0
M  V30 3294 C 323.93 3.11316 -1.53948 0
M  V30 3295 C 322.884 3.34077 -2.67537 0
M  V30 3296 C 322.21 4.72975 -2.49397 0
M  V30 3297 C 323.51 3.24158 -4.09535 0
M  V30 3298 H 325.204 1.63214 -2.51001 0
M  V30 3299 H 322.75 0.78379 -1.208 0
M  V30 3300 H 324.703 3.89557 -1.60696 0
M  V30 3301 H 323.427 3.21655 -0.566205 0
M  V30 3302 H 322.086 2.58227 -2.6022 0
M  V30 3303 H 321.734 4.8005 -1.50205 0
M  V30 3304 H 321.434 4.8916 -3.25571 0
M  V30 3305 H 322.958 5.53414 -2.58002 0
M  V30 3306 H 324.372 3.92271 -4.18086 0
M  V30 3307 H 322.769 3.51872 -4.86113 0
M  V30 3308 H 323.839 2.2157 -4.31317 0
M  V30 3309 N 325.182 1.32811 0.848464 0
M  V30 3310 C 326.092 1.24278 1.98978 0
M  V30 3311 C 327.108 0.155176 1.73307 0
M  V30 3312 O 328.284 0.376999 1.9784 0
M  V30 3313 C 325.349 0.972444 3.32783 0
M  V30 3314 C 324.41 2.14911 3.71634 0
M  V30 3315 C 323.643 1.89157 4.99054 0
M  V30 3316 O 323.866 0.837165 5.64223 0
M  V30 3317 O 322.8 2.75433 5.35183 0
M  V30 3318 H 326.626 2.20238 2.09115 0
M  V30 3319 H 324.211 1.12762 0.980052 0
M  V30 3320 H 326.093 0.838432 4.12975 0
M  V30 3321 H 324.768 0.043051 3.23671 0
M  V30 3322 H 323.675 2.33862 2.91992 0
M  V30 3323 H 325.008 3.06151 3.85399 0
M  V30 3324 N 326.66 -1.06551 1.16123 0
M  V30 3325 C 327.608 -2.16063 0.861371 0
M  V30 3326 C 328.602 -1.6856 -0.168517 0
M  V30 3327 O 329.808 -1.79986 -0.0227579 0
M  V30 3328 H 326.183 -0.705278 0.260934 0
M  V30 3329 H 328.154 -2.38567 1.79244 0
M  V30 3330 C 326.903 -3.45661 0.376018 0
M  V30 3331 H 326.226 -3.82604 1.15992 0
M  V30 3332 H 327.666 -4.23504 0.204951 0
M  V30 3333 C 326.125 -3.24546 -0.903954 0
M  V30 3334 O 326.655 -3.49865 -1.97377 0
M  V30 3335 N 324.861 -2.77992 -0.846679 0
M  V30 3336 H 324.408 -2.57589 0.0241017 0
M  V30 3337 H 324.366 -2.64244 -1.70359 0
M  V30 3338 N 328.138 -0.959301 -1.25041 0
M  V30 3339 C 329.363 -0.633507 -1.97488 0
M  V30 3340 C 329.788 0.788555 -1.70773 0
M  V30 3341 O 329.146 1.53394 -0.966431 0
M  V30 3342 C 329.194 -0.904057 -3.49083 0
M  V30 3343 O 328.298 0.0147939 -4.12397 0
M  V30 3344 H 327.639 -0.240368 -0.618966 0
M  V30 3345 H 330.169 -1.28717 -1.59038 0
M  V30 3346 H 330.179 -0.832203 -3.99423 0
M  V30 3347 H 328.854 -1.94048 -3.67856 0
M  V30 3348 H 327.431 -0.109664 -3.72739 0
M  V30 3349 N 329.616 1.39756 -0.72842 0
M  V30 3350 C 330.563 2.30647 -0.0841519 0
M  V30 3351 C 331.533 1.48869 0.7367 0
M  V30 3352 O 332.718 1.77574 0.698015 0
M  V30 3353 C 329.858 3.35165 0.822091 0
M  V30 3354 C 328.971 4.31999 -0.0106663 0
M  V30 3355 C 328.106 5.23585 0.896241 0
M  V30 3356 C 327.145 6.12072 0.0583381 0
M  V30 3357 N 326.282 6.96035 0.920818 0
M  V30 3358 H 331.122 2.85173 -0.864891 0
M  V30 3359 H 328.659 1.40422 -0.438179 0
M  V30 3360 H 330.617 3.94345 1.36189 0
M  V30 3361 H 329.247 2.8211 1.56888 0
M  V30 3362 H 328.299 3.74492 -0.66781 0
M  V30 3363 H 329.611 4.9443 -0.658825 0
M  V30 3364 H 328.765 5.87759 1.50412 0
M  V30 3365 H 327.504 4.61459 1.57819 0
M  V30 3366 H 326.509 5.46916 -0.562389 0
M  V30 3367 H 327.734 6.76261 -0.6203 0
M  V30 3368 H 325.68 6.36485 1.58818 0
M  V30 3369 H 325.597 7.55284 0.32899 0
M  V30 3370 H 326.865 7.64646 1.51447 0
M  V30 3371 N 331.094 0.475555 1.50254 0
M  V30 3372 C 332.042 -0.330276 2.30243 0
M  V30 3373 C 333.036 -0.986306 1.37726 0
M  V30 3374 O 334.242 -0.9169 1.54897 0
M  V30 3375 H 330.617 -0.125353 0.741479 0
M  V30 3376 H 332.588 0.364702 2.96163 0
M  V30 3377 C 331.337 -1.39704 3.18399 0
M  V30 3378 H 330.66 -0.901621 3.89501 0
M  V30 3379 H 332.1 -1.93336 3.77355 0
M  V30 3380 C 330.559 -2.4014 2.36293 0
M  V30 3381 O 331.089 -3.45504 2.04914 0
M  V30 3382 N 329.295 -2.1197 1.98789 0
M  V30 3383 H 328.842 -1.2631 2.24507 0
M  V30 3384 H 328.8 -2.79403 1.44157 0
M  V30 3385 N 332.573 -1.56217 0.208337 0
M  V30 3386 C 333.798 -2.02782 -0.435222 0
M  V30 3387 C 334.223 -1.08738 -1.53485 0
M  V30 3388 O 333.581 -0.0731855 -1.81152 0
M  V30 3389 C 333.629 -3.47687 -0.956335 0
M  V30 3390 O 332.733 -3.56773 -2.06849 0
M  V30 3391 H 332.074 -0.656403 -0.100158 0
M  V30 3392 H 334.604 -2.02033 0.3231 0
M  V30 3393 H 334.614 -3.87745 -1.26955 0
M  V30 3394 H 333.289 -4.15624 -0.15143 0
M  V30 3395 H 331.866 -3.28597 -1.76292 0
M  V30 3396 N 334.051 0.0651679 -1.57465 0
M  V30 3397 C 335.328 0.79644 -1.78651 0
M  V30 3398 C 335.708 1.95454 -0.797566 0
M  V30 3399 O 335.056 2.27882 0.167946 0
M  V30 3400 C 335.266 1.26322 -3.25337 0
M  V30 3401 C 336.614 1.6939 -3.89348 0
M  V30 3402 O 337.638 1.35872 -3.29268 0
M  V30 3403 O 336.497 2.31471 -4.95059 0
M  V30 3404 H 333.591 0.382157 -0.733407 0
M  V30 3405 H 336.137 0.0447311 -1.69641 0
M  V30 3406 H 334.909 0.434859 -3.88876 0
M  V30 3407 H 334.532 2.07604 -3.39096 0
M  V30 3408 N 335.529 1.53961 0.336706 0
M  V30 3409 C 336.459 1.85417 1.41925 0
M  V30 3410 C 337.44 0.709856 1.5458 0
M  V30 3411 O 338.625 0.962396 1.68676 0
M  V30 3412 C 335.755 2.06985 2.78881 0
M  V30 3413 C 334.709 3.22813 2.81026 0
M  V30 3414 C 334.035 3.29727 4.20932 0
M  V30 3415 C 335.335 4.60767 2.45949 0
M  V30 3416 H 337.029 2.76079 1.15848 0
M  V30 3417 H 334.575 1.32839 0.555859 0
M  V30 3418 H 336.528 2.27575 3.54665 0
M  V30 3419 H 335.252 1.13061 3.06406 0
M  V30 3420 H 333.911 3.0209 2.07695 0
M  V30 3421 H 333.559 2.33385 4.45579 0
M  V30 3422 H 333.259 4.07566 4.23277 0
M  V30 3423 H 334.783 3.52536 4.98549 0
M  V30 3424 H 336.197 4.81325 3.11446 0
M  V30 3425 H 334.594 5.4106 2.59566 0
M  V30 3426 H 335.664 4.6391 1.41122 0
M  V30 3427 N 337.007 -0.598083 1.45811 0
M  V30 3428 C 337.917 -1.73632 1.57763 0
M  V30 3429 C 338.933 -1.67763 0.461676 0
M  V30 3430 O 340.109 -1.87949 0.723685 0
M  V30 3431 C 337.174 -3.10114 1.55018 0
M  V30 3432 C 336.235 -3.27364 2.77726 0
M  V30 3433 C 335.468 -4.57334 2.75102 0
M  V30 3434 O 335.691 -5.40258 1.8297 0
M  V30 3435 O 334.625 -4.77502 3.66437 0
M  V30 3436 H 338.451 -1.66498 2.53992 0
M  V30 3437 H 336.036 -0.763308 1.28429 0
M  V30 3438 H 337.918 -3.9141 1.56129 0
M  V30 3439 H 336.593 -3.17718 0.619431 0
M  V30 3440 H 335.5 -2.45619 2.82174 0
M  V30 3441 H 336.833 -3.24641 3.69958 0
M  V30 3442 N 338.485 -1.33259 -0.841409 0
M  V30 3443 C 339.432 -1.23302 -1.95103 0
M  V30 3444 C 340.402 -0.112204 -1.65721 0
M  V30 3445 O 341.587 -0.290038 -1.88583 0
M  V30 3446 C 338.727 -0.975583 -3.31023 0
M  V30 3447 C 337.84 -2.18243 -3.72819 0
M  V30 3448 C 336.975 -1.85936 -4.97595 0
M  V30 3449 C 336.014 -3.02866 -5.3192 0
M  V30 3450 N 335.151 -2.70565 -6.47873 0
M  V30 3451 H 339.991 -2.18207 -2.02952 0
M  V30 3452 H 337.528 -1.0851 -0.993173 0
M  V30 3453 H 339.486 -0.80677 -4.09325 0
M  V30 3454 H 338.116 -0.0632755 -3.22738 0
M  V30 3455 H 337.168 -2.46107 -2.90061 0
M  V30 3456 H 338.48 -3.05666 -3.94169 0
M  V30 3457 H 337.634 -1.65684 -5.83638 0
M  V30 3458 H 336.373 -0.957452 -4.78209 0
M  V30 3459 H 335.378 -3.23736 -4.44382 0
M  V30 3460 H 336.603 -3.93809 -5.53255 0
M  V30 3461 H 334.549 -1.8293 -6.29978 0
M  V30 3462 H 334.466 -3.51519 -6.69306 0
M  V30 3463 H 335.734 -2.53774 -7.37034 0
M  V30 3464 N 339.963 1.05934 -1.16686 0
M  V30 3465 C 340.91 2.13499 -0.876748 0
M  V30 3466 C 341.88 1.65162 0.176299 0
M  V30 3467 O 343.065 1.90757 0.0407143 0
M  V30 3468 C 340.205 3.42912 -0.387967 0
M  V30 3469 C 339.318 4.04964 -1.50426 0
M  V30 3470 C 338.453 5.22266 -0.970125 0
M  V30 3471 C 337.492 5.76309 -2.06238 0
M  V30 3472 N 336.629 6.84922 -1.54356 0
M  V30 3473 H 341.469 2.37654 -1.7979 0
M  V30 3474 H 339.006 1.16598 -0.896843 0
M  V30 3475 H 340.964 4.17111 -0.086186 0
M  V30 3476 H 339.594 3.18963 0.496235 0
M  V30 3477 H 338.646 3.28277 -1.92193 0
M  V30 3478 H 339.958 4.41122 -2.32836 0
M  V30 3479 H 339.112 6.03506 -0.621743 0
M  V30 3480 H 337.851 4.87564 -0.115377 0
M  V30 3481 H 336.856 4.93704 -2.41942 0
M  V30 3482 H 338.081 6.13062 -2.92115 0
M  V30 3483 H 336.027 6.52131 -0.711406 0
M  V30 3484 H 335.944 7.20043 -2.30379 0
M  V30 3485 H 337.212 7.69832 -1.22387 0
M  V30 3486 N 341.441 0.965919 1.2453 0
M  V30 3487 C 342.351 0.502154 2.29163 0
M  V30 3488 C 343.367 -0.436017 1.68448 0
M  V30 3489 O 344.543 -0.309497 1.99008 0
M  V30 3490 C 341.608 -0.201956 3.46111 0
M  V30 3491 C 340.669 0.775821 4.22232 0
M  V30 3492 C 339.902 0.105217 5.33596 0
M  V30 3493 O 340.125 -1.10683 5.59558 0
M  V30 3494 O 339.059 0.796475 5.96607 0
M  V30 3495 H 342.885 1.37194 2.70946 0
M  V30 3496 H 340.47 0.732875 1.30189 0
M  V30 3497 H 342.352 -0.597564 4.17142 0
M  V30 3498 H 341.027 -1.04673 3.06309 0
M  V30 3499 H 339.934 1.22185 3.53584 0
M  V30 3500 H 341.267 1.58896 4.65846 0
M  V30 3501 N 342.919 -1.39368 0.735821 0
M  V30 3502 C 344.167 -2.00101 0.283562 0
M  V30 3503 C 344.488 -1.5868 -1.13338 0
M  V30 3504 O 343.758 -0.835423 -1.77193 0
M  V30 3505 H 342.338 -0.740024 0.101851 0
M  V30 3506 H 345 -1.70404 0.945962 0
M  V30 3507 H 344.096 -3.10323 0.332604 0
M  V30 3508 N 344.397 -0.483516 -1.5 0
M  V30 3509 C 345.813 -0.138404 -1.58999 0
M  V30 3510 C 346.013 1.35597 -1.4905 0
M  V30 3511 O 345.069 2.13039 -1.35539 0
M  V30 3512 C 346.382 -0.699658 -2.92447 0
M  V30 3513 C 347.93 -0.664195 -3.05872 0
M  V30 3514 C 348.405 -1.20321 -4.41913 0
M  V30 3515 N 349.896 -1.16315 -4.48358 0
M  V30 3516 C 350.631 -1.55058 -5.52037 0
M  V30 3517 N 350.127 -2.01311 -6.62907 0
M  V30 3518 N 351.92 -1.46584 -5.42651 0
M  V30 3519 H 344.071 -1.45529 -1.5471 0
M  V30 3520 H 346.334 -0.60258 -0.731848 0
M  V30 3521 H 346.04 -1.747 -3.05242 0
M  V30 3522 H 345.914 -0.150194 -3.76901 0
M  V30 3523 H 348.301 0.374272 -2.92717 0
M  V30 3524 H 348.382 -1.25061 -2.23144 0
M  V30 3525 H 348.026 -2.24037 -4.55818 0
M  V30 3526 H 347.956 -0.592896 -5.23252 0
M  V30 3527 H 350.447 -0.824058 -3.68806 0
M  V30 3528 H 350.76 -2.2899 -7.38095 0
M  V30 3529 H 349.105 -2.05273 -6.63994 0
M  V30 3530 H 352.296 -1.10281 -4.54924 0
M  V30 3531 H 352.469 -1.77103 -6.23329 0
M  V30 3532 N 345.875 1.56104 -0.216619 0
M  V30 3533 C 347.124 1.97348 0.416744 0
M  V30 3534 C 347.437 1.10715 1.6125 0
M  V30 3535 O 348.643 1.41836 2.31506 0
M  V30 3536 C 347.099 3.51059 0.792835 0
M  V30 3537 C 346.707 4.46387 -0.379828 0
M  V30 3538 C 348.451 4.01026 1.39208 0
M  V30 3539 C 346.358 5.91397 0.0184223 0
M  V30 3540 H 345.288 0.736942 0.159475 0
M  V30 3541 H 347.939 1.80827 -0.31205 0
M  V30 3542 H 346.321 3.63162 1.57891 0
M  V30 3543 H 347.495 4.46029 -1.15737 0
M  V30 3544 H 345.81 4.06734 -0.891979 0
M  V30 3545 H 348.407 5.0686 1.70286 0
M  V30 3546 H 348.75 3.46587 2.30614 0
M  V30 3547 H 349.283 3.92125 0.669537 0
M  V30 3548 H 346.022 6.49807 -0.862002 0
M  V30 3549 H 345.542 5.94961 0.760384 0
M  V30 3550 H 347.221 6.45455 0.446818 0
M  V30 3551 N 347.353 -0.0568162 1.57498 0
M  V30 3552 C 348.63 -0.786954 1.79071 0
M  V30 3553 C 349.01 -1.95028 0.80792 0
M  V30 3554 O 348.358 -2.27968 -0.155858 0
M  V30 3555 C 348.568 -1.24594 3.26002 0
M  V30 3556 C 349.916 -1.67323 3.90241 0
M  V30 3557 O 350.94 -1.34124 3.29984 0
M  V30 3558 O 349.799 -2.28842 4.9628 0
M  V30 3559 H 346.893 -0.378262 0.735423 0
M  V30 3560 H 349.439 -0.035734 1.69662 0
M  V30 3561 H 348.211 -0.41423 3.89101 0
M  V30 3562 H 347.834 -2.05803 3.40192 0
M  V30 3563 N 348.832 -1.54138 -0.328536 0
M  V30 3564 C 350.109 -1.62749 -1.08499 0
M  V30 3565 C 350.489 -0.458198 -2.06067 0
M  V30 3566 O 349.837 0.548046 -2.2183 0
M  V30 3567 C 350.047 -2.99519 -1.79135 0
M  V30 3568 C 351.395 -3.55394 -2.32337 0
M  V30 3569 O 352.419 -3.01792 -1.89209 0
M  V30 3570 O 351.278 -4.49186 -3.11279 0
M  V30 3571 H 348.372 -0.65886 -0.499832 0
M  V30 3572 H 350.918 -1.66484 -0.328826 0
M  V30 3573 H 349.69 -3.76061 -1.08139 0
M  V30 3574 H 349.313 -2.99441 -2.61574 0
M  V30 3575 N 350.31 0.590341 -1.46126 0
M  V30 3576 C 351.24 1.71032 -1.58966 0
M  V30 3577 C 352.221 1.64302 -0.440335 0
M  V30 3578 O 353.406 1.82436 -0.665634 0
M  V30 3579 C 350.536 3.09665 -1.57241 0
M  V30 3580 C 349.49 3.31221 -2.71066 0
M  V30 3581 C 348.816 4.70303 -2.54399 0
M  V30 3582 C 350.116 3.19796 -4.1295 0
M  V30 3583 H 351.81 1.60543 -2.52718 0
M  V30 3584 H 349.356 0.770933 -1.21625 0
M  V30 3585 H 351.309 3.87831 -1.64819 0
M  V30 3586 H 350.033 3.21036 -0.600289 0
M  V30 3587 H 348.692 2.55452 -2.62944 0
M  V30 3588 H 348.34 4.78429 -1.55288 0
M  V30 3589 H 348.04 4.85679 -3.30741 0
M  V30 3590 H 349.564 5.50647 -2.63857 0
M  V30 3591 H 350.978 3.87815 -4.22223 0
M  V30 3592 H 349.375 3.46696 -4.89818 0
M  V30 3593 H 350.445 2.16983 -4.33643 0
M  V30 3594 N 351.788 1.33704 0.83433 0
M  V30 3595 C 352.718 1.26967 1.95963 0
M  V30 3596 C 353.699 0.149337 1.69443 0
M  V30 3597 O 354.884 0.339852 1.91203 0
M  V30 3598 C 352.014 1.01275 3.32206 0
M  V30 3599 C 350.968 2.09652 3.73136 0
M  V30 3600 C 350.294 1.69166 5.07235 0
M  V30 3601 C 351.594 3.51372 3.86439 0
M  V30 3602 H 353.288 2.2112 2.01857 0
M  V30 3603 H 350.834 1.06447 0.969793 0
M  V30 3604 H 352.787 0.952106 4.10503 0
M  V30 3605 H 351.511 0.0356203 3.26581 0
M  V30 3606 H 350.17 2.14766 2.97104 0
M  V30 3607 H 349.818 0.701437 4.98085 0
M  V30 3608 H 349.518 2.41694 5.35591 0
M  V30 3609 H 351.042 1.64576 5.88003 0
M  V30 3610 H 352.456 3.48734 4.55036 0
M  V30 3611 H 350.853 4.22425 4.26236 0
M  V30 3612 H 351.923 3.89546 2.88759 0
M  V30 3613 N 353.266 -1.05314 1.17247 0
M  V30 3614 C 354.682 -1.30452 0.919473 0
M  V30 3615 C 354.882 -1.9703 -0.42209 0
M  V30 3616 O 353.938 -2.24311 -1.15935 0
M  V30 3617 C 355.251 -2.17551 2.07586 0
M  V30 3618 C 356.799 -2.30937 2.11275 0
M  V30 3619 C 357.274 -3.21396 3.26296 0
M  V30 3620 N 358.765 -3.28981 3.26076 0
M  V30 3621 C 359.5 -3.99095 4.11716 0
M  V30 3622 N 358.996 -4.71648 5.07465 0
M  V30 3623 N 360.789 -3.95247 3.9967 0
M  V30 3624 H 352.94 -0.604988 2.03602 0
M  V30 3625 H 355.203 -0.329368 0.888944 0
M  V30 3626 H 354.909 -1.75921 3.0454 0
M  V30 3627 H 354.783 -3.18182 2.02584 0
M  V30 3628 H 357.17 -2.71809 1.14907 0
M  V30 3629 H 357.251 -1.2994 2.20339 0
M  V30 3630 H 356.895 -2.81238 4.22927 0
M  V30 3631 H 356.825 -4.22395 3.14467 0
M  V30 3632 H 359.316 -2.77286 2.5675 0
M  V30 3633 H 359.629 -5.22705 5.6921 0
M  V30 3634 H 357.974 -4.70594 5.11435 0
M  V30 3635 H 361.165 -3.37691 3.24164 0
M  V30 3636 H 361.338 -4.4962 4.66632 0
M  V30 3637 N 354.744 -0.972509 -1.24016 0
M  V30 3638 C 355.707 -0.511403 -2.23422 0
M  V30 3639 C 356.707 0.394679 -1.55881 0
M  V30 3640 O 357.897 0.189469 -1.73167 0
M  V30 3641 C 355.029 0.258769 -3.39916 0
M  V30 3642 H 356.222 -1.39024 -2.6573 0
M  V30 3643 H 353.775 -0.757585 -1.36713 0
M  V30 3644 H 354.51 1.1545 -3.03054 0
M  V30 3645 H 354.295 -0.391522 -3.9014 0
M  V30 3646 H 355.785 0.570244 -4.13688 0
M  V30 3647 N 356.222 1.38976 -0.743202 0
M  V30 3648 C 357.17 2.32394 -0.0978389 0
M  V30 3649 C 358.164 1.53486 0.716824 0
M  V30 3650 O 359.37 1.69092 0.617088 0
M  V30 3651 H 355.745 0.75189 -0.0128402 0
M  V30 3652 H 357.716 2.84441 -0.901981 0
M  V30 3653 C 356.465 3.38629 0.789036 0
M  V30 3654 H 355.788 3.99432 0.171559 0
M  V30 3655 H 357.228 4.06426 1.20807 0
M  V30 3656 C 355.687 2.76347 1.92702 0
M  V30 3657 O 356.217 2.64836 3.02034 0
M  V30 3658 N 354.423 2.34311 1.71891 0
M  V30 3659 H 353.97 2.43873 0.829675 0
M  V30 3660 H 353.928 1.9298 2.48205 0
M  V30 3661 N 357.7 0.491464 1.49741 0
M  V30 3662 C 358.94 -0.0549118 2.04326 0
M  V30 3663 C 359.304 -1.35148 1.36378 0
M  V30 3664 O 360.505 -1.9815 1.81631 0
M  V30 3665 C 358.776 -0.213841 3.5676 0
M  V30 3666 S 360.335 -0.715839 4.32922 0
M  V30 3667 H 357.153 -0.00630513 0.710972 0
M  V30 3668 H 359.755 0.663257 1.83905 0
M  V30 3669 H 358.459 0.73527 4.0376 0
M  V30 3670 H 357.99 -0.957529 3.81569 0
M  V30 3671 H 360.005 -1.9864 4.54705 0
M  V30 3672 N 359.178 -1.55987 0.224894 0
M  V30 3673 C 360.455 -1.90232 -0.455083 0
M  V30 3674 C 360.835 -1.14269 -1.77499 0
M  V30 3675 O 360.183 -0.253079 -2.27094 0
M  V30 3676 C 360.393 -3.42993 -0.644758 0
M  V30 3677 C 361.741 -4.13821 -0.950669 0
M  V30 3678 O 362.765 -3.4861 -0.731423 0
M  V30 3679 O 361.624 -5.29128 -1.36695 0
M  V30 3680 H 358.718 -0.79108 -0.241084 0
M  V30 3681 H 361.264 -1.67581 0.267327 0
M  V30 3682 H 360.036 -3.90252 0.28613 0
M  V30 3683 H 359.659 -3.71434 -1.41853 0
M  V30 3684 N 360.656 0.0484629 -1.57525 0
M  V30 3685 C 361.586 1.0549 -2.08313 0
M  V30 3686 C 362.567 1.38929 -0.981463 0
M  V30 3687 O 363.752 1.48151 -1.25558 0
M  V30 3688 C 360.882 2.36162 -2.54646 0
M  V30 3689 C 359.836 2.17016 -3.68901 0
M  V30 3690 C 359.162 3.53278 -4.01371 0
M  V30 3691 C 360.462 1.57219 -4.98076 0
M  V30 3692 H 362.156 0.632195 -2.92649 0
M  V30 3693 H 359.702 0.302654 -1.40784 0
M  V30 3694 H 361.655 3.06882 -2.88793 0
M  V30 3695 H 360.379 2.80456 -1.67368 0
M  V30 3696 H 359.038 1.48733 -3.35073 0
M  V30 3697 H 358.686 3.95185 -3.11188 0
M  V30 3698 H 358.386 3.41299 -4.78318 0
M  V30 3699 H 359.91 4.25391 -4.38035 0
M  V30 3700 H 361.324 2.17832 -5.30304 0
M  V30 3701 H 359.721 1.55871 -5.79503 0
M  V30 3702 H 360.791 0.535956 -4.81929 0
M  V30 3703 N 362.134 1.5431 0.320358 0
M  V30 3704 C 363.55 1.45091 0.664889 0
M  V30 3705 C 363.75 0.626382 1.91517 0
M  V30 3706 O 362.806 0.126443 2.52183 0
M  V30 3707 C 364.119 2.88848 0.83591 0
M  V30 3708 C 365.667 2.9877 0.933046 0
M  V30 3709 C 366.142 4.43683 1.13621 0
M  V30 3710 N 367.633 4.47309 1.20287 0
M  V30 3711 C 368.368 5.56595 1.37801 0
M  V30 3712 N 367.864 6.75844 1.52338 0
M  V30 3713 N 369.657 5.44248 1.40535 0
M  V30 3714 H 361.808 2.06398 -0.501374 0
M  V30 3715 H 364.071 0.933963 -0.162534 0
M  V30 3716 H 363.777 3.51698 -0.0116092 0
M  V30 3717 H 363.651 3.35148 1.73078 0
M  V30 3718 H 366.038 2.36045 1.77107 0
M  V30 3719 H 366.119 2.55796 0.0145782 0
M  V30 3720 H 365.763 5.06995 0.303032 0
M  V30 3721 H 365.693 4.84269 2.0686 0
M  V30 3722 H 368.184 3.61388 1.10485 0
M  V30 3723 H 368.497 7.54892 1.65403 0
M  V30 3724 H 366.842 6.78746 1.4943 0
M  V30 3725 H 370.033 4.50038 1.28777 0
M  V30 3726 H 370.206 6.29473 1.53842 0
M  V30 3727 N 363.613 -0.582584 1.46437 0
M  V30 3728 C 365.029 -0.905962 1.31394 0
M  V30 3729 C 365.229 -1.99468 0.285476 0
M  V30 3730 O 364.285 -2.50566 -0.311914 0
M  V30 3731 C 365.598 -1.3232 2.70022 0
M  V30 3732 C 367.146 -1.43604 2.78113 0
M  V30 3733 C 367.621 -1.88694 4.17323 0
M  V30 3734 N 369.112 -1.95887 4.19741 0
M  V30 3735 C 369.847 -2.32051 5.24347 0
M  V30 3736 N 369.343 -2.67006 6.39281 0
M  V30 3737 N 371.136 -2.32606 5.11713 0
M  V30 3738 H 363.287 0.1366 2.1196 0
M  V30 3739 H 365.55 -0.00155736 0.947999 0
M  V30 3740 H 365.256 -0.597242 3.46592 0
M  V30 3741 H 365.13 -2.28469 3.00136 0
M  V30 3742 H 367.517 -2.15286 2.01832 0
M  V30 3743 H 367.598 -0.457059 2.51684 0
M  V30 3744 H 367.242 -1.1759 4.941 0
M  V30 3745 H 367.172 -2.8755 4.4116 0
M  V30 3746 H 369.663 -1.71362 3.36814 0
M  V30 3747 H 369.976 -2.93554 7.14875 0
M  V30 3748 H 368.321 -2.64644 6.42642 0
M  V30 3749 H 371.512 -2.04721 4.2096 0
M  V30 3750 H 371.685 -2.60462 5.93349 0
M  V30 3751 N 365.091 -1.34144 -0.827227 0
M  V30 3752 C 366.023 -1.21206 -1.9453 0
M  V30 3753 C 367.036 -0.140176 -1.62195 0
M  V30 3754 O 368.225 -0.391647 -1.7415 0
M  V30 3755 C 365.325 -0.839141 -3.28347 0
M  V30 3756 C 364.498 -2.0051 -3.88734 0
M  V30 3757 C 363.557 -1.61128 -5.00923 0
M  V30 3758 O 362.583 -2.32726 -5.19449 0
M  V30 3759 N 363.785 -0.522958 -5.7814 0
M  V30 3760 H 366.55 -2.17525 -2.06162 0
M  V30 3761 H 364.111 -1.27043 -1.00358 0
M  V30 3762 H 366.103 -0.557556 -4.00841 0
M  V30 3763 H 364.673 0.0337293 -3.12582 0
M  V30 3764 H 363.893 -2.45166 -3.08686 0
M  V30 3765 H 365.181 -2.78498 -4.25812 0
M  V30 3766 H 364.579 0.0723518 -5.65654 0
M  V30 3767 H 363.136 -0.301089 -6.51104 0
M  V30 3768 N 366.569 1.04691 -1.17803 0
M  V30 3769 C 367.818 1.77176 -0.963931 0
M  V30 3770 C 368.131 1.88888 0.508015 0
M  V30 3771 O 369.337 2.58164 0.840465 0
M  V30 3772 C 367.793 3.18518 -1.67555 0
M  V30 3773 C 367.401 3.14919 -3.18637 0
M  V30 3774 C 369.145 3.95424 -1.54402 0
M  V30 3775 C 367.052 4.51081 -3.82466 0
M  V30 3776 H 365.982 0.664116 -0.357023 0
M  V30 3777 H 368.633 1.17303 -1.4111 0
M  V30 3778 H 367.015 3.78748 -1.15613 0
M  V30 3779 H 368.189 2.64178 -3.77554 0
M  V30 3780 H 366.504 2.51512 -3.31859 0
M  V30 3781 H 369.101 4.96106 -1.99456 0
M  V30 3782 H 369.444 4.13343 -0.495329 0
M  V30 3783 H 369.977 3.41754 -2.0359 0
M  V30 3784 H 366.716 4.38368 -4.87354 0
M  V30 3785 H 366.236 5.01951 -3.28337 0
M  V30 3786 H 367.915 5.2001 -3.84965 0
M  V30 3787 N 368.047 0.979072 1.23499 0
M  V30 3788 C 369.324 0.563674 1.87302 0
M  V30 3789 C 369.704 -0.959199 1.88049 0
M  V30 3790 O 369.052 -1.83535 1.36114 0
M  V30 3791 C 369.262 1.16822 3.28867 0
M  V30 3792 C 370.61 1.26014 4.0547 0
M  V30 3793 O 371.634 1.12158 3.38082 0
M  V30 3794 O 370.493 1.48044 5.26066 0
M  V30 3795 H 367.587 0.189602 0.804972 0
M  V30 3796 H 370.133 1.07407 1.31384 0
M  V30 3797 H 368.905 2.21049 3.22883 0
M  V30 3798 H 368.528 0.642564 3.92373 0
M  V30 3799 N 369.525 -1.3858 0.750561 0
M  V30 3800 C 370.435 -2.34278 0.122825 0
M  V30 3801 C 371.451 -1.59116 -0.704131 0
M  V30 3802 O 372.627 -1.91326 -0.628987 0
M  V30 3803 C 369.692 -3.38221 -0.762086 0
M  V30 3804 C 368.753 -4.29227 0.078896 0
M  V30 3805 C 367.986 -5.28205 -0.763874 0
M  V30 3806 O 368.209 -5.34112 -2.00201 0
M  V30 3807 O 367.143 -6.01618 -0.18428 0
M  V30 3808 H 370.969 -2.89649 0.913088 0
M  V30 3809 H 368.554 -1.40374 0.511417 0
M  V30 3810 H 370.436 -4.01872 -1.26793 0
M  V30 3811 H 369.111 -2.85211 -1.5309 0
M  V30 3812 H 368.018 -3.68747 0.630621 0
M  V30 3813 H 369.351 -4.85484 0.810289 0
M  V30 3814 N 371.003 -0.499398 -1.49478 0
M  V30 3815 C 371.935 0.316575 -2.27003 0
M  V30 3816 C 372.948 0.932047 -1.33479 0
M  V30 3817 O 374.137 0.815658 -1.58774 0
M  V30 3818 C 371.237 1.46055 -3.05812 0
M  V30 3819 C 370.41 0.952679 -4.26899 0
M  V30 3820 C 369.469 1.97407 -4.87767 0
M  V30 3821 O 368.495 1.54326 -5.4788 0
M  V30 3822 N 369.697 3.30436 -4.77276 0
M  V30 3823 H 372.462 -0.348168 -2.97671 0
M  V30 3824 H 370.023 -0.33185 -1.58463 0
M  V30 3825 H 372.015 2.14135 -3.43407 0
M  V30 3826 H 370.585 2.02948 -2.37762 0
M  V30 3827 H 369.805 0.0968248 -3.94081 0
M  V30 3828 H 371.093 0.59174 -5.05347 0
M  V30 3829 H 370.491 3.68126 -4.29534 0
M  V30 3830 H 369.048 3.94235 -5.19059 0
M  V30 3831 N 372.481 1.55866 -0.233164 0
M  V30 3832 C 373.413 2.18099 0.704668 0
M  V30 3833 C 374.426 1.15334 1.14899 0
M  V30 3834 O 375.615 1.42262 1.07814 0
M  V30 3835 C 372.715 2.7592 1.96777 0
M  V30 3836 C 371.888 4.03969 1.67713 0
M  V30 3837 C 370.947 4.46242 2.78845 0
M  V30 3838 O 369.973 5.12903 2.46818 0
M  V30 3839 N 371.175 4.12886 4.08051 0
M  V30 3840 H 373.94 2.99205 0.172258 0
M  V30 3841 H 371.501 1.61815 -0.0525945 0
M  V30 3842 H 373.493 3.01165 2.70337 0
M  V30 3843 H 372.063 1.99051 2.41034 0
M  V30 3844 H 371.283 3.86459 0.777391 0
M  V30 3845 H 372.571 4.8748 1.4574 0
M  V30 3846 H 371.969 3.59342 4.3691 0
M  V30 3847 H 370.526 4.42997 4.78118 0
M  V30 3848 N 373.959 -0.0401083 1.57549 0
M  V30 3849 C 374.906 -1.04413 2.05831 0
M  V30 3850 C 375.876 -1.36585 0.945184 0
M  V30 3851 O 377.061 -1.47112 1.21502 0
M  V30 3852 C 374.201 -2.34336 2.53339 0
M  V30 3853 C 373.314 -2.08419 3.78398 0
M  V30 3854 C 372.449 -3.32133 4.14561 0
M  V30 3855 C 371.488 -3.01721 5.3257 0
M  V30 3856 N 370.625 -4.17855 5.64218 0
M  V30 3857 H 375.465 -0.625442 2.91363 0
M  V30 3858 H 373.002 -0.297218 1.44066 0
M  V30 3859 H 374.96 -3.10234 2.78946 0
M  V30 3860 H 373.59 -2.73948 1.7074 0
M  V30 3861 H 372.642 -1.23069 3.59942 0
M  V30 3862 H 373.954 -1.81978 4.64419 0
M  V30 3863 H 373.108 -4.16406 4.41238 0
M  V30 3864 H 371.847 -3.61678 3.2717 0
M  V30 3865 H 370.852 -2.15849 5.05657 0
M  V30 3866 H 372.077 -2.73466 6.21605 0
M  V30 3867 H 370.023 -4.47372 4.79786 0
M  V30 3868 H 369.94 -3.94798 6.44725 0
M  V30 3869 H 371.208 -5.03033 5.95465 0
M  V30 3870 N 375.437 -1.54477 -0.31217 0
M  V30 3871 C 376.37 -1.79519 -1.40884 0
M  V30 3872 C 377.348 -0.645753 -1.49227 0
M  V30 3873 O 378.532 -0.884468 -1.66461 0
M  V30 3874 C 375.659 -1.92194 -2.78889 0
M  V30 3875 C 374.705 -3.14555 -2.88023 0
M  V30 3876 S 375.538 -4.72893 -2.51262 0
M  V30 3877 C 376.694 -4.8849 -3.91317 0
M  V30 3878 H 376.927 -2.72256 -1.19432 0
M  V30 3879 H 374.46 -1.45746 -0.509654 0
M  V30 3880 H 376.418 -2.00182 -3.58382 0
M  V30 3881 H 375.079 -1.00414 -2.97617 0
M  V30 3882 H 374.272 -3.20193 -3.89221 0
M  V30 3883 H 373.874 -3.04955 -2.16514 0
M  V30 3884 H 376.166 -4.71826 -4.86196 0
M  V30 3885 H 377.109 -5.90588 -3.90656 0
M  V30 3886 H 377.517 -4.16715 -3.80801 0
M  V30 3887 N 376.915 0.57481 -1.46744 0
M  V30 3888 C 377.845 1.69337 -1.60771 0
M  V30 3889 C 378.826 1.63825 -0.457736 0
M  V30 3890 O 380.011 1.8172 -0.684947 0
M  V30 3891 C 377.141 3.0798 -1.60517 0
M  V30 3892 C 376.095 3.28327 -2.74564 0
M  V30 3893 C 375.421 4.67578 -2.59373 0
M  V30 3894 C 376.721 3.15398 -4.16319 0
M  V30 3895 H 378.415 1.57853 -2.54407 0
M  V30 3896 H 375.961 0.75799 -1.22436 0
M  V30 3897 H 377.914 3.86061 -1.68923 0
M  V30 3898 H 376.638 3.20381 -0.634305 0
M  V30 3899 H 375.297 2.52649 -2.65639 0
M  V30 3900 H 374.945 4.76755 -1.60353 0
M  V30 3901 H 374.645 4.82144 -3.35873 0
M  V30 3902 H 376.169 5.47817 -2.69682 0
M  V30 3903 H 377.583 3.83315 -4.26313 0
M  V30 3904 H 375.98 3.41482 -4.93468 0
M  V30 3905 H 377.05 2.12372 -4.3592 0
M  V30 3906 N 378.394 1.34581 0.820102 0
M  V30 3907 C 379.304 1.28471 1.96297 0
M  V30 3908 C 380.32 0.191902 1.72939 0
M  V30 3909 O 381.496 0.418879 1.96996 0
M  V30 3910 C 378.561 1.04281 3.30645 0
M  V30 3911 C 377.622 2.22745 3.66992 0
M  V30 3912 C 376.855 1.997 4.9493 0
M  V30 3913 O 377.078 0.956656 5.6232 0
M  V30 3914 O 376.012 2.86723 5.2922 0
M  V30 3915 H 379.838 2.24624 2.04396 0
M  V30 3916 H 377.423 1.14816 0.955913 0
M  V30 3917 H 379.305 0.925841 4.11104 0
M  V30 3918 H 377.98 0.111697 3.23507 0
M  V30 3919 H 376.887 2.40003 2.86966 0
M  V30 3920 H 378.22 3.14257 3.78819 0
M  V30 3921 N 379.872 -1.04064 1.18357 0
M  V30 3922 C 380.819 -2.12077 0.910603 0
M  V30 3923 C 381.789 -1.65421 -0.15 0
M  V30 3924 O 382.974 -1.90797 -0.0103614 0
M  V30 3925 C 380.114 -3.42252 0.442472 0
M  V30 3926 C 379.227 -4.0252 1.5685 0
M  V30 3927 C 378.362 -5.20657 1.05309 0
M  V30 3928 C 377.401 -5.72955 2.1538 0
M  V30 3929 N 376.538 -6.8238 1.65233 0
M  V30 3930 H 381.378 -2.34764 1.83548 0
M  V30 3931 H 378.915 -1.15157 0.915279 0
M  V30 3932 H 380.873 -4.16921 0.152534 0
M  V30 3933 H 379.503 -3.19712 -0.445428 0
M  V30 3934 H 378.555 -3.25178 1.97391 0
M  V30 3935 H 379.867 -4.37362 2.39824 0
M  V30 3936 H 379.021 -6.0244 0.717677 0
M  V30 3937 H 377.76 -4.87318 0.19293 0
M  V30 3938 H 376.765 -4.89793 2.49766 0
M  V30 3939 H 377.99 -6.08337 3.01832 0
M  V30 3940 H 375.936 -6.50917 0.815064 0
M  V30 3941 H 375.853 -7.16286 2.41805 0
M  V30 3942 H 377.121 -7.67788 1.34619 0
M  V30 3943 N 381.35 -0.985608 -1.22978 0
M  V30 3944 C 382.58 -0.674603 -1.95276 0
M  V30 3945 C 382.988 0.763483 -1.73111 0
M  V30 3946 O 382.331 1.52601 -1.02268 0
M  V30 3947 C 382.393 -0.891597 -3.48268 0
M  V30 3948 C 382.057 -2.31275 -3.94158 0
M  V30 3949 C 383.054 -3.29179 -4.02415 0
M  V30 3950 C 380.739 -2.64524 -4.27004 0
M  V30 3951 C 382.733 -4.58407 -4.42879 0
M  V30 3952 C 380.42 -3.93974 -4.67149 0
M  V30 3953 C 381.418 -4.90727 -4.75053 0
M  V30 3954 O 381.106 -6.17865 -5.14294 0
M  V30 3955 H 380.838 -0.249251 -0.628371 0
M  V30 3956 H 383.392 -1.32106 -1.5728 0
M  V30 3957 H 381.622 -0.187962 -3.86243 0
M  V30 3958 H 383.311 -0.576957 -4.01779 0
M  V30 3959 H 384.077 -3.04823 -3.77237 0
M  V30 3960 H 379.956 -1.89923 -4.2006 0
M  V30 3961 H 383.5 -5.33926 -4.48964 0
M  V30 3962 H 379.397 -4.18122 -4.91777 0
M  V30 3963 H 380.165 -6.21694 -5.32389 0
M  V30 3964 N 382.828 1.3818 -0.7579 0
M  V30 3965 C 383.775 2.30416 -0.133057 0
M  V30 3966 C 384.745 1.50398 0.704957 0
M  V30 3967 O 385.93 1.79014 0.660192 0
M  V30 3968 C 383.07 3.36834 0.750813 0
M  V30 3969 C 382.183 4.31879 -0.102297 0
M  V30 3970 C 381.318 5.25368 0.784979 0
M  V30 3971 C 380.357 6.12058 -0.0715046 0
M  V30 3972 N 379.494 6.97832 0.772972 0
M  V30 3973 H 384.334 2.83274 -0.925186 0
M  V30 3974 H 381.871 1.39461 -0.467866 0
M  V30 3975 H 383.829 3.97145 1.27794 0
M  V30 3976 H 382.459 2.85374 1.50868 0
M  V30 3977 H 381.511 3.72991 -0.747095 0
M  V30 3978 H 382.823 4.92921 -0.763552 0
M  V30 3979 H 381.977 5.90818 1.37911 0
M  V30 3980 H 380.716 4.64703 1.47996 0
M  V30 3981 H 379.721 5.456 -0.678272 0
M  V30 3982 H 380.946 6.74793 -0.763606 0
M  V30 3983 H 378.892 6.3971 1.45282 0
M  V30 3984 H 378.809 7.55812 0.168709 0
M  V30 3985 H 380.077 7.67687 1.35194 0
M  V30 3986 N 384.306 0.507319 1.49211 0
M  V30 3987 C 385.216 -0.272136 2.33016 0
M  V30 3988 C 386.232 -0.961206 1.45041 0
M  V30 3989 O 387.408 -0.941191 1.78055 0
M  V30 3990 C 384.473 -1.31895 3.20631 0
M  V30 3991 C 383.534 -0.642648 4.24463 0
M  V30 3992 C 382.767 -1.63959 5.07891 0
M  V30 3993 O 382.99 -2.87007 4.92933 0
M  V30 3994 O 381.924 -1.19143 5.8999 0
M  V30 3995 H 385.75 0.413982 3.00865 0
M  V30 3996 H 383.335 0.268556 1.46966 0
M  V30 3997 H 385.217 -1.92446 3.7489 0
M  V30 3998 H 383.892 -1.98788 2.5547 0
M  V30 3999 H 382.799 0.00276252 3.741 0
M  V30 4000 H 384.132 -0.0160534 4.92197 0
M  V30 4001 N 385.784 -1.5574 0.241426 0
M  V30 4002 C 387.2 -1.59196 -0.113548 0
M  V30 4003 C 387.4 -1.25852 -1.57364 0
M  V30 4004 O 386.456 -1.00322 -2.31715 0
M  V30 4005 C 387.769 -2.99814 0.230695 0
M  V30 4006 C 389.317 -3.12513 0.174547 0
M  V30 4007 C 389.792 -4.55342 0.492744 0
M  V30 4008 N 391.283 -4.61076 0.443043 0
M  V30 4009 C 392.018 -5.6956 0.662484 0
M  V30 4010 N 391.514 -6.86328 0.944761 0
M  V30 4011 N 393.307 -5.58957 0.593564 0
M  V30 4012 H 385.458 -1.75685 1.19368 0
M  V30 4013 H 387.721 -0.81756 0.479896 0
M  V30 4014 H 387.427 -3.28932 1.24485 0
M  V30 4015 H 387.301 -3.74568 -0.444833 0
M  V30 4016 H 389.688 -2.83179 -0.830277 0
M  V30 4017 H 389.769 -2.40045 0.883845 0
M  V30 4018 H 389.413 -4.85396 1.4951 0
M  V30 4019 H 389.343 -5.26062 -0.23797 0
M  V30 4020 H 391.834 -3.77179 0.233374 0
M  V30 4021 H 392.147 -7.64935 1.09977 0
M  V30 4022 H 390.492 -6.88025 0.982175 0
M  V30 4023 H 393.683 -4.66611 0.373123 0
M  V30 4024 H 393.856 -6.43433 0.767981 0
M  V30 4025 N 387.262 0.0317525 -1.57568 0
M  V30 4026 C 388.192 1.03274 -2.0942 0
M  V30 4027 C 389.173 1.3788 -0.996143 0
M  V30 4028 O 390.358 1.46811 -1.27122 0
M  V30 4029 C 387.488 2.33448 -2.57137 0
M  V30 4030 C 386.442 2.13091 -3.71182 0
M  V30 4031 C 385.768 3.49001 -4.05095 0
M  V30 4032 C 387.068 1.51928 -4.99715 0
M  V30 4033 H 388.762 0.60112 -2.93303 0
M  V30 4034 H 386.308 0.287705 -1.41097 0
M  V30 4035 H 388.261 3.03802 -2.92032 0
M  V30 4036 H 386.985 2.78665 -1.70333 0
M  V30 4037 H 385.644 1.45171 -3.36632 0
M  V30 4038 H 385.292 3.91862 -3.15362 0
M  V30 4039 H 384.992 3.36207 -4.81911 0
M  V30 4040 H 386.516 4.20721 -4.42522 0
M  V30 4041 H 387.93 2.12196 -5.32584 0
M  V30 4042 H 386.327 1.49716 -5.81124 0
M  V30 4043 H 387.397 0.484811 -4.8247 0
M  V30 4044 N 388.74 1.54641 0.303973 0
M  V30 4045 C 389.688 1.86137 1.39484 0
M  V30 4046 C 390.682 0.734854 1.52631 0
M  V30 4047 O 391.888 0.918803 1.54784 0
M  V30 4048 H 388.263 0.590324 0.465856 0
M  V30 4049 H 390.234 2.77324 1.10154 0
M  V30 4050 C 388.983 2.12274 2.75382 0
M  V30 4051 H 388.306 2.98429 2.66046 0
M  V30 4052 H 389.746 2.38254 3.5073 0
M  V30 4053 C 388.205 0.920365 3.24085 0
M  V30 4054 O 388.735 0.139377 4.01458 0
M  V30 4055 N 386.941 0.726566 2.81371 0
M  V30 4056 H 386.488 1.36332 2.18567 0
M  V30 4057 H 386.446 -0.0763799 3.14307 0
M  V30 4058 N 390.218 -0.567019 1.47046 0
M  V30 4059 C 391.634 -0.891975 1.32348 0
M  V30 4060 C 391.834 -1.99154 0.306616 0
M  V30 4061 O 390.89 -2.50883 -0.28532 0
M  V30 4062 C 392.203 -1.29449 2.7141 0
M  V30 4063 C 393.751 -1.40646 2.79621 0
M  V30 4064 C 394.226 -1.84257 4.19301 0
M  V30 4065 N 395.717 -1.91424 4.21795 0
M  V30 4066 C 396.452 -2.26476 5.26779 0
M  V30 4067 N 395.948 -2.60211 6.42077 0
M  V30 4068 N 397.741 -2.27166 5.14152 0
M  V30 4069 H 389.892 0.159074 2.11803 0
M  V30 4070 H 392.155 0.00849752 0.947962 0
M  V30 4071 H 391.861 -0.560448 3.47206 0
M  V30 4072 H 391.735 -2.25273 3.02542 0
M  V30 4073 H 394.122 -2.13133 2.04104 0
M  V30 4074 H 394.203 -0.430339 2.52154 0
M  V30 4075 H 393.847 -1.12343 4.95319 0
M  V30 4076 H 393.777 -2.82855 4.44185 0
M  V30 4077 H 396.268 -1.6778 3.38612 0
M  V30 4078 H 396.581 -2.85956 7.17948 0
M  V30 4079 H 394.926 -2.57813 6.45413 0
M  V30 4080 H 398.117 -2.00244 4.23107 0
M  V30 4081 H 398.29 -2.54154 5.96079 0
M  V30 4082 N 391.696 -1.35014 -0.812953 0
M  V30 4083 C 392.936 -1.29289 -1.58315 0
M  V30 4084 C 393.3 0.132727 -1.91541 0
M  V30 4085 O 394.501 0.314269 -2.66957 0
M  V30 4086 C 392.772 -2.1681 -2.84127 0
M  V30 4087 S 394.331 -2.28538 -3.74588 0
M  V30 4088 H 391.149 -0.459569 -0.542511 0
M  V30 4089 H 393.751 -1.70336 -0.959467 0
M  V30 4090 H 392.455 -3.19379 -2.57731 0
M  V30 4091 H 391.986 -1.76697 -3.51485 0
M  V30 4092 H 394.001 -1.4655 -4.74065 0
M  V30 4093 N 393.175 1.03435 -1.18907 0
M  V30 4094 C 394.421 1.77005 -0.989798 0
M  V30 4095 C 394.754 1.88205 0.478816 0
M  V30 4096 O 394.029 1.39481 1.35556 0
M  V30 4097 C 394.312 3.19925 -1.65287 0
M  V30 4098 C 394.165 3.1663 -3.19477 0
M  V30 4099 C 395.484 4.18189 -1.37134 0
M  V30 4100 H 392.603 0.642538 -0.360991 0
M  V30 4101 H 395.245 1.20784 -1.46667 0
M  V30 4102 H 393.395 3.67929 -1.24741 0
M  V30 4103 H 395.067 2.76567 -3.692 0
M  V30 4104 H 393.31 2.54491 -3.51307 0
M  V30 4105 H 393.981 4.1758 -3.61013 0
M  V30 4106 H 396.457 3.78761 -1.72276 0
M  V30 4107 H 395.333 5.16394 -1.86087 0
M  V30 4108 H 395.594 4.41112 -0.295424 0
M  V30 4109 N 394.653 0.992116 1.22453 0
M  V30 4110 C 395.881 0.685944 1.95198 0
M  V30 4111 C 396.296 -0.749233 1.73297 0
M  V30 4112 O 395.653 -1.50549 1.03156 0
M  V30 4113 C 395.704 0.981395 3.47924 0
M  V30 4114 O 395.425 2.36018 3.6909 0
M  V30 4115 C 396.926 0.692815 4.37853 0
M  V30 4116 H 394.146 0.253821 0.621141 0
M  V30 4117 H 396.69 1.32668 1.55626 0
M  V30 4118 H 394.845 0.386481 3.85467 0
M  V30 4119 H 395.259 2.45884 4.63294 0
M  V30 4120 H 396.733 0.949818 5.43767 0
M  V30 4121 H 397.21 -0.373181 4.37612 0
M  V30 4122 H 397.816 1.26874 4.05935 0
M  V30 4123 N 396.131 -1.37776 0.765217 0
M  V30 4124 C 397.064 -2.28008 0.0935025 0
M  V30 4125 C 398.042 -1.45985 -0.716047 0
M  V30 4126 O 399.226 -1.75331 -0.692203 0
M  V30 4127 C 396.353 -3.27228 -0.874052 0
M  V30 4128 C 395.399 -4.26239 -0.149307 0
M  V30 4129 S 396.232 -5.22827 1.15809 0
M  V30 4130 C 397.388 -6.256 0.193906 0
M  V30 4131 H 397.621 -2.84631 0.858637 0
M  V30 4132 H 395.154 -1.43952 0.558313 0
M  V30 4133 H 397.112 -3.84902 -1.42691 0
M  V30 4134 H 395.773 -2.69565 -1.61225 0
M  V30 4135 H 394.966 -4.96213 -0.88254 0
M  V30 4136 H 394.568 -3.7252 0.332366 0
M  V30 4137 H 396.86 -6.74508 -0.636011 0
M  V30 4138 H 397.803 -7.02838 0.861638 0
M  V30 4139 H 398.211 -5.64173 -0.191975 0
M  V30 4140 N 397.609 -0.515225 -1.4894 0
M  V30 4141 C 398.834 0.022727 -2.07388 0
M  V30 4142 C 399.259 1.2876 -1.37122 0
M  V30 4143 O 398.617 1.76067 -0.432431 0
M  V30 4144 C 398.665 0.244869 -3.59768 0
M  V30 4145 O 397.769 1.31667 -3.90817 0
M  V30 4146 H 397.11 -0.0325506 -0.663202 0
M  V30 4147 H 399.64 -0.718918 -1.91553 0
M  V30 4148 H 399.65 0.47205 -4.0526 0
M  V30 4149 H 398.325 -0.679194 -4.10317 0
M  V30 4150 H 396.902 1.07331 -3.5712 0
M  V30 4151 N 399.087 1.5561 -0.249682 0
M  V30 4152 C 400.034 2.21496 0.648694 0
M  V30 4153 C 401.004 1.17977 1.16921 0
M  V30 4154 O 402.189 1.46434 1.22318 0
M  V30 4155 C 399.329 2.92039 1.83868 0
M  V30 4156 C 398.442 4.10219 1.35442 0
M  V30 4157 C 397.577 4.6847 2.50419 0
M  V30 4158 C 396.616 5.78893 1.98869 0
M  V30 4159 N 395.753 6.31315 3.07223 0
M  V30 4160 H 400.593 2.97892 0.0801582 0
M  V30 4161 H 398.13 1.47074 0.0278031 0
M  V30 4162 H 400.088 3.31138 2.53778 0
M  V30 4163 H 398.718 2.18111 2.37965 0
M  V30 4164 H 397.77 3.76413 0.54928 0
M  V30 4165 H 399.082 4.89927 0.936649 0
M  V30 4166 H 398.236 5.10158 3.28366 0
M  V30 4167 H 396.975 3.87984 2.95499 0
M  V30 4168 H 395.98 5.3668 1.19393 0
M  V30 4169 H 397.205 6.61232 1.54755 0
M  V30 4170 H 395.151 5.53733 3.51732 0
M  V30 4171 H 395.068 7.06224 2.69784 0
M  V30 4172 H 396.336 6.77662 3.8522 0
M  V30 4173 N 400.565 -0.0233959 1.57583 0
M  V30 4174 C 401.512 -1.02224 2.06927 0
M  V30 4175 C 402.482 -1.35575 0.959617 0
M  V30 4176 O 403.667 -1.45815 1.23055 0
M  V30 4177 C 400.807 -2.31636 2.5581 0
M  V30 4178 C 399.92 -2.04394 3.80588 0
M  V30 4179 C 399.055 -3.27717 4.18061 0
M  V30 4180 C 398.094 -2.96056 5.3574 0
M  V30 4181 N 397.231 -4.11847 5.68618 0
M  V30 4182 H 402.071 -0.594504 2.9201 0
M  V30 4183 H 399.608 -0.281921 1.44373 0
M  V30 4184 H 401.566 -3.07258 2.82221 0
M  V30 4185 H 400.196 -2.72122 1.73636 0
M  V30 4186 H 399.248 -1.19244 3.61227 0
M  V30 4187 H 400.56 -1.77042 4.66323 0
M  V30 4188 H 399.714 -4.11702 4.4563 0
M  V30 4189 H 398.453 -3.58188 3.30988 0
M  V30 4190 H 397.458 -2.10474 5.07918 0
M  V30 4191 H 398.683 -2.66857 6.24471 0
M  V30 4192 H 396.629 -4.42258 4.84504 0
M  V30 4193 H 396.546 -3.87938 6.48876 0
M  V30 4194 H 397.814 -4.96689 6.00766 0
M  V30 4195 N 402.043 -1.548 -0.295768 0
M  V30 4196 C 402.973 -1.89115 -1.36959 0
M  V30 4197 C 403.954 -0.75059 -1.52644 0
M  V30 4198 O 405.139 -1.00678 -1.66065 0
M  V30 4199 C 402.269 -2.14307 -2.73295 0
M  V30 4200 C 401.223 -3.30151 -2.72368 0
M  V30 4201 C 400.549 -3.40772 -4.12042 0
M  V30 4202 C 401.849 -4.67126 -2.33646 0
M  V30 4203 H 403.543 -2.79053 -1.08488 0
M  V30 4204 H 401.089 -1.34266 -0.520443 0
M  V30 4205 H 403.042 -2.36898 -3.48507 0
M  V30 4206 H 401.766 -1.21145 -3.03301 0
M  V30 4207 H 400.425 -3.0749 -1.99613 0
M  V30 4208 H 400.073 -2.45117 -4.39234 0
M  V30 4209 H 399.773 -4.18645 -4.12322 0
M  V30 4210 H 401.297 -3.6563 -4.89027 0
M  V30 4211 H 402.711 -4.89414 -2.98575 0
M  V30 4212 H 401.108 -5.47751 -2.45129 0
M  V30 4213 H 402.178 -4.67489 -1.28772 0
M  V30 4214 N 403.521 0.559213 -1.47345 0
M  V30 4215 C 404.451 1.67622 -1.62558 0
M  V30 4216 C 405.432 1.63331 -0.475087 0
M  V30 4217 O 406.617 1.80983 -0.704182 0
M  V30 4218 C 403.747 3.0626 -1.63774 0
M  V30 4219 C 402.701 3.25397 -2.7803 0
M  V30 4220 C 402.027 4.64801 -2.64318 0
M  V30 4221 C 403.327 3.10965 -4.19641 0
M  V30 4222 H 405.021 1.55146 -2.56067 0
M  V30 4223 H 402.567 0.744961 -1.23233 0
M  V30 4224 H 404.52 3.84247 -1.73008 0
M  V30 4225 H 403.244 3.1969 -0.66825 0
M  V30 4226 H 401.903 2.49817 -2.68304 0
M  V30 4227 H 401.551 4.75028 -1.65401 0
M  V30 4228 H 401.251 4.78555 -3.40968 0
M  V30 4229 H 402.775 5.44926 -2.75478 0
M  V30 4230 H 404.189 3.78772 -4.30354 0
M  V30 4231 H 402.586 3.36229 -4.97062 0
M  V30 4232 H 403.656 2.07736 -4.38148 0
M  V30 4233 N 404.999 1.35443 0.805782 0
M  V30 4234 C 406.248 1.28097 1.55801 0
M  V30 4235 C 406.561 -0.142428 1.95081 0
M  V30 4236 O 407.767 -0.33817 2.69386 0
M  V30 4237 C 406.223 2.24653 2.81174 0
M  V30 4238 C 405.831 3.72342 2.49129 0
M  V30 4239 C 407.575 2.2625 3.59181 0
M  V30 4240 C 405.482 4.60719 3.70799 0
M  V30 4241 H 404.412 0.475937 0.584808 0
M  V30 4242 H 407.063 1.60712 0.885661 0
M  V30 4243 H 405.445 1.85011 3.50124 0
M  V30 4244 H 406.619 4.20624 1.88181 0
M  V30 4245 H 404.934 3.73361 1.84366 0
M  V30 4246 H 407.531 2.89495 4.49552 0
M  V30 4247 H 407.874 1.26647 3.96568 0
M  V30 4248 H 408.407 2.64426 2.97193 0
M  V30 4249 H 405.146 5.61324 3.3852 0
M  V30 4250 H 404.666 4.17163 4.3097 0
M  V30 4251 H 406.345 4.76182 4.38018 0
M  V30 4252 N 406.477 -1.02803 1.19454 0
M  V30 4253 C 407.387 -2.14575 0.948408 0
M  V30 4254 C 408.403 -1.73757 -0.091871 0
M  V30 4255 O 409.579 -2.01185 0.0929654 0
M  V30 4256 C 406.644 -3.43202 0.491265 0
M  V30 4257 C 405.705 -3.98328 1.60103 0
M  V30 4258 C 404.938 -5.20816 1.16561 0
M  V30 4259 O 405.161 -5.70392 0.0295238 0
M  V30 4260 O 404.095 -5.68801 1.96849 0
M  V30 4261 H 407.921 -2.38202 1.88397 0
M  V30 4262 H 405.506 -1.12989 0.977433 0
M  V30 4263 H 407.388 -4.20687 0.245015 0
M  V30 4264 H 406.063 -3.21018 -0.415851 0
M  V30 4265 H 404.97 -3.22174 1.90144 0
M  V30 4266 H 406.303 -4.24879 2.48473 0
M  V30 4267 N 407.956 -0.998596 -1.21925 0
M  V30 4268 C 408.903 -0.553621 -2.24062 0
M  V30 4269 C 409.873 0.416999 -1.6078 0
M  V30 4270 O 411.058 0.320482 -1.88089 0
M  V30 4271 C 408.198 0.119959 -3.44891 0
M  V30 4272 C 407.311 -0.893077 -4.22668 0
M  V30 4273 C 406.446 -0.192424 -5.30851 0
M  V30 4274 C 405.485 -1.19344 -6.00353 0
M  V30 4275 N 404.622 -0.520707 -7.00166 0
M  V30 4276 H 409.462 -1.4293 -2.61486 0
M  V30 4277 H 406.999 -0.715838 -1.28507 0
M  V30 4278 H 408.957 0.527459 -4.13852 0
M  V30 4279 H 407.587 0.959389 -3.08214 0
M  V30 4280 H 406.639 -1.41886 -3.52948 0
M  V30 4281 H 407.951 -1.65512 -4.70539 0
M  V30 4282 H 407.105 0.271515 -6.06092 0
M  V30 4283 H 405.844 0.602075 -4.83969 0
M  V30 4284 H 404.849 -1.66795 -5.23889 0
M  V30 4285 H 406.074 -1.98891 -6.49322 0
M  V30 4286 H 404.02 0.254252 -6.55507 0
M  V30 4287 H 403.937 -1.2211 -7.46073 0
M  V30 4288 H 405.205 -0.0797596 -7.79459 0
M  V30 4289 N 409.434 1.37368 -0.772513 0
M  V30 4290 C 410.659 2.0447 -0.347386 0
M  V30 4291 C 411.084 1.57882 1.0225 0
M  V30 4292 O 410.442 0.73941 1.65537 0
M  V30 4293 C 410.49 3.58369 -0.400479 0
M  V30 4294 O 409.594 4.0803 0.598789 0
M  V30 4295 H 408.935 0.646773 -0.15027 0
M  V30 4296 H 411.465 1.75667 -1.04892 0
M  V30 4297 H 411.475 4.07183 -0.258045 0
M  V30 4298 H 410.15 3.91633 -1.39986 0
M  V30 4299 H 408.727 3.70534 0.419411 0
M  V30 4300 N 410.912 0.523116 1.48665 0
M  V30 4301 C 411.859 -0.243398 2.29513 0
M  V30 4302 C 412.829 -0.940139 1.36933 0
M  V30 4303 O 414.014 -0.942503 1.65896 0
M  V30 4304 C 411.154 -1.28855 3.20141 0
M  V30 4305 C 410.267 -0.60135 4.27794 0
M  V30 4306 C 409.402 -1.62884 5.05611 0
M  V30 4307 C 408.441 -0.924726 6.05075 0
M  V30 4308 N 407.578 -1.89744 6.75975 0
M  V30 4309 H 412.418 0.452234 2.94549 0
M  V30 4310 H 409.955 0.234858 1.45213 0
M  V30 4311 H 411.913 -1.90674 3.71079 0
M  V30 4312 H 410.543 -1.95266 2.57043 0
M  V30 4313 H 409.595 0.130623 3.80176 0
M  V30 4314 H 410.907 -0.0481585 4.98777 0
M  V30 4315 H 410.061 -2.32149 5.60528 0
M  V30 4316 H 408.8 -2.21592 4.34452 0
M  V30 4317 H 407.805 -0.217966 5.49368 0
M  V30 4318 H 409.03 -0.343851 6.78229 0
M  V30 4319 H 406.976 -2.47373 6.07571 0
M  V30 4320 H 406.893 -1.3955 7.43009 0
M  V30 4321 H 408.161 -2.58229 7.35485 0
M  V30 4322 N 412.39 -1.55475 0.257931 0
M  V30 4323 C 413.322 -2.19192 -0.669881 0
M  V30 4324 C 414.335 -1.17148 -1.1305 0
M  V30 4325 O 415.524 -1.43959 -1.05537 0
M  V30 4326 C 412.624 -2.79016 -1.92363 0
M  V30 4327 C 411.797 -4.06586 -1.61265 0
M  V30 4328 C 410.856 -4.50622 -2.7171 0
M  V30 4329 O 409.882 -5.16765 -2.38627 0
M  V30 4330 N 411.084 -4.19325 -4.01431 0
M  V30 4331 H 413.849 -2.99441 -0.124635 0
M  V30 4332 H 411.41 -1.6171 0.0783311 0
M  V30 4333 H 413.402 -3.05427 -2.65511 0
M  V30 4334 H 411.972 -2.0286 -2.37837 0
M  V30 4335 H 411.192 -3.87646 -0.715811 0
M  V30 4336 H 412.48 -4.89737 -1.37967 0
M  V30 4337 H 411.878 -3.66247 -4.31138 0
M  V30 4338 H 410.435 -4.50547 -4.7101 0
M  V30 4339 N 413.868 0.0150385 -1.57593 0
M  V30 4340 C 414.778 1.02791 -2.10882 0
M  V30 4341 C 415.794 1.38702 -1.0506 0
M  V30 4342 O 416.97 1.47739 -1.36877 0
M  V30 4343 C 414.035 2.30568 -2.58919 0
M  V30 4344 C 413.096 2.01108 -3.79281 0
M  V30 4345 C 412.329 3.22794 -4.25018 0
M  V30 4346 O 412.552 4.33959 -3.70183 0
M  V30 4347 O 411.486 3.07672 -5.17322 0
M  V30 4348 H 415.312 0.604973 -2.97613 0
M  V30 4349 H 412.897 0.23292 -1.47573 0
M  V30 4350 H 414.779 3.05662 -2.90084 0
M  V30 4351 H 413.454 2.72129 -1.75293 0
M  V30 4352 H 412.361 1.23537 -3.53114 0
M  V30 4353 H 413.694 1.64394 -4.63935 0
M  V30 4354 N 415.346 1.54954 0.287554 0
M  V30 4355 C 416.293 1.86834 1.35505 0
M  V30 4356 C 417.263 0.718452 1.49758 0
M  V30 4357 O 418.448 0.968358 1.644 0
M  V30 4358 C 415.588 2.13303 2.71286 0
M  V30 4359 C 414.701 3.40883 2.65373 0
M  V30 4360 C 413.836 3.57125 3.93236 0
M  V30 4361 C 412.875 4.78449 3.81776 0
M  V30 4362 N 412.012 4.91426 5.01443 0
M  V30 4363 H 416.852 2.77889 1.07619 0
M  V30 4364 H 414.389 1.37593 0.520241 0
M  V30 4365 H 416.347 2.26646 3.50267 0
M  V30 4366 H 414.977 1.25499 2.97405 0
M  V30 4367 H 414.029 3.36088 1.78182 0
M  V30 4368 H 415.341 4.29993 2.52799 0
M  V30 4369 H 414.495 3.70207 4.80658 0
M  V30 4370 H 413.234 2.66173 4.0866 0
M  V30 4371 H 412.239 4.65386 2.92738 0
M  V30 4372 H 413.464 5.70822 3.67884 0
M  V30 4373 H 411.41 4.03401 5.17304 0
M  V30 4374 H 411.327 5.74559 4.91343 0
M  V30 4375 H 412.595 5.08879 5.90477 0
M  V30 4376 N 416.824 -0.551391 1.4764 0
M  V30 4377 C 417.757 -1.6738 1.5511 0
M  V30 4378 C 418.735 -1.5753 0.402856 0
M  V30 4379 O 419.919 -1.78307 0.611475 0
M  V30 4380 C 417.046 -3.05661 1.45908 0
M  V30 4381 C 416.092 -3.33938 2.65307 0
M  V30 4382 S 416.925 -3.22553 4.27457 0
M  V30 4383 C 418.081 -4.63317 4.20818 0
M  V30 4384 H 418.314 -1.6079 2.50068 0
M  V30 4385 H 415.847 -0.732674 1.35909 0
M  V30 4386 H 417.805 -3.8542 1.41286 0
M  V30 4387 H 416.466 -3.09711 0.523248 0
M  V30 4388 H 415.659 -4.34761 2.54948 0
M  V30 4389 H 415.261 -2.61809 2.67081 0
M  V30 4390 H 417.553 -5.54391 3.89431 0
M  V30 4391 H 418.496 -4.78732 5.21748 0
M  V30 4392 H 418.904 -4.41636 3.51593 0
M  V30 4393 N 418.302 -1.35869 -0.798587 0
M  V30 4394 C 419.265 -1.29307 -1.89242 0
M  V30 4395 C 420.265 -0.202747 -1.59517 0
M  V30 4396 O 421.455 -0.456957 -1.681 0
M  V30 4397 C 418.587 -1.00229 -3.25833 0
M  V30 4398 H 419.78 -2.26576 -1.96478 0
M  V30 4399 H 417.333 -1.20509 -0.995358 0
M  V30 4400 H 418.068 -0.033801 -3.24282 0
M  V30 4401 H 417.853 -1.79121 -3.48795 0
M  V30 4402 H 419.343 -0.98219 -4.05885 0
M  V30 4403 N 419.78 1.02168 -1.19998 0
M  V30 4404 C 421.02 1.77232 -1.01825 0
M  V30 4405 C 421.384 1.86833 0.442428 0
M  V30 4406 O 422.585 2.58293 0.744189 0
M  V30 4407 C 420.856 3.15601 -1.67722 0
M  V30 4408 S 422.415 4.06765 -1.64584 0
M  V30 4409 H 419.233 0.610021 -0.365233 0
M  V30 4410 H 421.835 1.22368 -1.52467 0
M  V30 4411 H 420.539 3.06235 -2.73218 0
M  V30 4412 H 420.07 3.7554 -1.17189 0
M  V30 4413 H 422.085 4.91586 -0.67511 0
M  V30 4414 N 421.258 1.00505 1.21394 0
M  V30 4415 C 422.674 0.717873 1.42544 0
M  V30 4416 C 422.874 -0.706936 1.88692 0
M  V30 4417 O 421.93 -1.47627 2.04847 0
M  V30 4418 C 423.243 1.73377 2.45684 0
M  V30 4419 C 424.791 1.75059 2.59467 0
M  V30 4420 C 425.266 2.75545 3.6584 0
M  V30 4421 N 426.757 2.74213 3.73311 0
M  V30 4422 C 427.492 3.48626 4.55245 0
M  V30 4423 N 426.988 4.32678 5.41075 0
M  V30 4424 N 428.781 3.37276 4.49668 0
M  V30 4425 H 420.932 1.92506 0.897503 0
M  V30 4426 H 423.195 0.830919 0.456375 0
M  V30 4427 H 422.901 2.75395 2.18748 0
M  V30 4428 H 422.775 1.53647 3.44489 0
M  V30 4429 H 425.162 0.737337 2.8574 0
M  V30 4430 H 425.243 1.98861 1.60897 0
M  V30 4431 H 424.887 3.77028 3.40313 0
M  V30 4432 H 424.817 2.49009 4.64007 0
M  V30 4433 H 427.308 2.13234 3.11993 0
M  V30 4434 H 427.621 4.86253 6.00648 0
M  V30 4435 H 425.966 4.3676 5.40616 0
M  V30 4436 H 429.157 2.71043 3.81646 0
M  V30 4437 H 429.33 3.95524 5.13288 0
M  V30 4438 N 422.737 -1.36956 0.779787 0
M  V30 4439 C 424.014 -1.93697 0.272156 0
M  V30 4440 C 424.394 -1.71267 -1.23413 0
M  V30 4441 O 423.742 -1.06607 -2.02107 0
M  V30 4442 C 423.952 -3.42812 0.654291 0
M  V30 4443 C 425.3 -4.19921 0.628602 0
M  V30 4444 O 426.324 -3.51209 0.594172 0
M  V30 4445 O 425.183 -5.42465 0.662864 0
M  V30 4446 H 422.277 -0.824447 0.0649286 0
M  V30 4447 H 424.823 -1.46196 0.861682 0
M  V30 4448 H 423.595 -3.52754 1.69353 0
M  V30 4449 H 423.218 -3.97582 0.0381369 0
M  V30 4450 N 424.215 -0.530993 -1.48385 0
M  V30 4451 C 425.162 0.231223 -2.29639 0
M  V30 4452 C 426.132 0.932864 -1.37429 0
M  V30 4453 O 427.317 0.933692 -1.66394 0
M  V30 4454 C 424.457 1.27155 -3.2082 0
M  V30 4455 C 423.57 0.578655 -4.28107 0
M  V30 4456 C 422.705 1.602 -5.06467 0
M  V30 4457 C 421.744 0.892625 -6.05556 0
M  V30 4458 N 420.881 1.86157 -6.76971 0
M  V30 4459 H 425.721 -0.467848 -2.94305 0
M  V30 4460 H 423.258 -0.242556 -1.45086 0
M  V30 4461 H 425.216 1.88703 -3.72085 0
M  V30 4462 H 423.846 1.939 -2.58075 0
M  V30 4463 H 422.898 -0.150782 -3.80101 0
M  V30 4464 H 424.21 0.0217065 -4.98795 0
M  V30 4465 H 423.364 2.29173 -5.61751 0
M  V30 4466 H 422.103 2.19285 -4.35621 0
M  V30 4467 H 421.108 0.188829 -5.49476 0
M  V30 4468 H 422.333 0.307878 -6.78402 0
M  V30 4469 H 420.279 2.44147 -6.08875 0
M  V30 4470 H 420.196 1.35608 -7.43738 0
M  V30 4471 H 421.464 2.54325 -7.36844 0
M  V30 4472 N 425.693 1.55336 -0.266172 0
M  V30 4473 C 426.918 2.04258 0.359661 0
M  V30 4474 C 427.343 1.14359 1.49344 0
M  V30 4475 O 426.701 0.140369 1.80756 0
M  V30 4476 C 426.749 3.50997 0.826635 0
M  V30 4477 O 425.853 3.64204 1.93466 0
M  V30 4478 H 425.194 0.659668 0.075727 0
M  V30 4479 H 427.724 2.00694 -0.39786 0
M  V30 4480 H 427.734 3.9219 1.12477 0
M  V30 4481 H 426.409 4.159 -0.00293032 0
M  V30 4482 H 424.986 3.34913 1.63974 0
M  V30 4483 N 427.171 -0.0066808 1.57599 0
M  V30 4484 C 428.104 -1.03397 2.03431 0
M  V30 4485 C 429.082 -1.33872 0.922877 0
M  V30 4486 O 430.266 -1.4615 1.19048 0
M  V30 4487 C 427.393 -2.36325 2.42628 0
M  V30 4488 C 426.439 -2.21557 3.64438 0
M  V30 4489 S 427.272 -1.54789 5.12641 0
M  V30 4490 C 428.428 -2.8916 5.55101 0
M  V30 4491 H 428.661 -0.643687 2.90248 0
M  V30 4492 H 426.194 -0.217349 1.52863 0
M  V30 4493 H 428.152 -3.12759 2.65879 0
M  V30 4494 H 426.813 -2.72495 1.56222 0
M  V30 4495 H 426.006 -3.1974 3.89592 0
M  V30 4496 H 425.608 -1.53267 3.41153 0
M  V30 4497 H 427.9 -3.8547 5.57153 0
M  V30 4498 H 428.843 -2.68713 6.55133 0
M  V30 4499 H 429.251 -2.92762 4.82649 0
M  V30 4500 N 428.649 -1.55105 -0.279332 0
M  V30 4501 C 429.581 -1.83952 -1.36727 0
M  V30 4502 C 430.594 -0.723642 -1.45833 0
M  V30 4503 O 431.783 -1.00141 -1.47763 0
M  V30 4504 C 428.883 -1.98183 -2.74912 0
M  V30 4505 C 428.056 -3.28787 -2.88475 0
M  V30 4506 C 427.115 -3.33162 -4.07295 0
M  V30 4507 O 426.141 -4.06576 -3.98353 0
M  V30 4508 N 427.343 -2.60109 -5.18964 0
M  V30 4509 H 430.108 -2.77853 -1.12328 0
M  V30 4510 H 427.669 -1.54945 -0.469442 0
M  V30 4511 H 429.661 -1.98488 -3.52682 0
M  V30 4512 H 428.231 -1.11177 -2.92162 0
M  V30 4513 H 427.451 -3.41075 -1.97641 0
M  V30 4514 H 428.739 -4.14933 -2.94463 0
M  V30 4515 H 428.137 -2.00136 -5.29115 0
M  V30 4516 H 426.694 -2.66143 -5.94988 0
M  V30 4517 N 430.127 0.543554 -1.4793 0
M  V30 4518 C 431.404 1.30458 -1.4574 0
M  V30 4519 C 431.784 2.1048 -0.161692 0
M  V30 4520 O 431.132 2.11831 0.856734 0
M  V30 4521 C 431.342 2.19754 -2.71126 0
M  V30 4522 C 432.69 2.80334 -3.18901 0
M  V30 4523 O 433.714 2.30049 -2.71948 0
M  V30 4524 O 432.573 3.71766 -4.00565 0
M  V30 4525 H 429.667 0.588117 -0.581418 0
M  V30 4526 H 432.213 0.561328 -1.60147 0
M  V30 4527 H 430.985 1.60316 -3.56952 0
M  V30 4528 H 430.608 3.01351 -2.59371 0
M  V30 4529 N 431.605 1.3629 0.791371 0
M  V30 4530 C 433.021 1.16661 1.08914 0
M  V30 4531 C 433.221 -0.0106266 2.01497 0
M  V30 4532 O 432.277 -0.676596 2.43266 0
M  V30 4533 C 433.59 2.47656 1.70549 0
M  V30 4534 C 435.138 2.54002 1.82899 0
M  V30 4535 C 435.613 3.85078 2.47949 0
M  V30 4536 N 437.104 3.86413 2.5542 0
M  V30 4537 C 437.839 4.84572 3.06557 0
M  V30 4538 N 437.335 5.93124 3.58016 0
M  V30 4539 N 439.128 4.71994 3.05251 0
M  V30 4540 H 431.279 2.11668 0.176238 0
M  V30 4541 H 433.542 0.937486 0.140796 0
M  V30 4542 H 433.248 3.34059 1.09989 0
M  V30 4543 H 433.122 2.63319 2.70079 0
M  V30 4544 H 435.509 1.68018 2.42598 0
M  V30 4545 H 435.59 2.42239 0.821808 0
M  V30 4546 H 435.234 4.71467 1.88895 0
M  V30 4547 H 435.164 3.94135 3.49235 0
M  V30 4548 H 437.655 3.07988 2.18979 0
M  V30 4549 H 437.968 6.63999 3.95381 0
M  V30 4550 H 436.313 5.96796 3.56173 0
M  V30 4551 H 439.504 3.86321 2.64336 0
M  V30 4552 H 439.677 5.48653 3.44796 0
M  V30 4553 N 433.083 -1.0153 1.20538 0
M  V30 4554 C 434.013 -2.11972 0.979295 0
M  V30 4555 C 434.994 -1.6985 -0.0921787 0
M  V30 4556 O 436.179 -1.94089 0.0655932 0
M  V30 4557 C 433.309 -3.43201 0.531984 0
M  V30 4558 C 432.263 -3.9907 1.54685 0
M  V30 4559 C 431.589 -5.26082 0.956127 0
M  V30 4560 C 432.889 -4.32313 2.93092 0
M  V30 4561 H 434.583 -2.31143 1.90298 0
M  V30 4562 H 432.129 -1.11079 0.916372 0
M  V30 4563 H 434.082 -4.1985 0.361044 0
M  V30 4564 H 432.806 -3.23792 -0.427327 0
M  V30 4565 H 431.465 -3.2453 1.70517 0
M  V30 4566 H 431.113 -5.02999 -0.0111538 0
M  V30 4567 H 430.813 -5.64426 1.63393 0
M  V30 4568 H 432.337 -6.05386 0.796284 0
M  V30 4569 H 433.751 -4.99845 2.80763 0
M  V30 4570 H 432.148 -4.81774 3.57791 0
M  V30 4571 H 433.218 -3.41025 3.44717 0
M  V30 4572 N 434.561 -1.01147 -1.20859 0
M  V30 4573 C 435.977 -0.725422 -1.42161 0
M  V30 4574 C 436.177 0.696919 -1.89064 0
M  V30 4575 O 435.233 1.46539 -2.05627 0
M  V30 4576 C 436.546 -1.74678 -2.44761 0
M  V30 4577 C 438.094 -1.76433 -2.58535 0
M  V30 4578 C 438.569 -2.77481 -3.64374 0
M  V30 4579 N 440.06 -2.76189 -3.71852 0
M  V30 4580 C 440.795 -3.51035 -4.53389 0
M  V30 4581 N 440.291 -4.35541 -5.38773 0
M  V30 4582 N 442.084 -3.39655 -4.47873 0
M  V30 4583 H 434.235 -1.92979 -0.887282 0
M  V30 4584 H 436.498 -0.833327 -0.451962 0
M  V30 4585 H 436.204 -2.76551 -2.17285 0
M  V30 4586 H 436.078 -1.55472 -3.43669 0
M  V30 4587 H 438.465 -0.75248 -2.85345 0
M  V30 4588 H 438.546 -1.99712 -1.5984 0
M  V30 4589 H 438.19 -3.78827 -3.38308 0
M  V30 4590 H 438.12 -2.51466 -4.6268 0
M  V30 4591 H 440.611 -2.14885 -3.10858 0
M  V30 4592 H 440.924 -4.89432 -5.98061 0
M  V30 4593 H 439.269 -4.39621 -5.38292 0
M  V30 4594 H 442.46 -2.73063 -3.80203 0
M  V30 4595 H 442.633 -3.9824 -5.11184 0
M  V30 4596 N 436.039 1.36541 -0.78704 0
M  V30 4597 C 436.969 2.32659 -0.197992 0
M  V30 4598 C 437.95 1.56533 0.665697 0
M  V30 4599 O 439.135 1.84698 0.60001 0
M  V30 4600 C 436.265 3.40778 0.669901 0
M  V30 4601 C 435.219 4.27897 -0.0937039 0
M  V30 4602 C 434.545 5.27163 0.894629 0
M  V30 4603 C 435.845 5.06334 -1.28154 0
M  V30 4604 H 437.539 2.82171 -1.00099 0
M  V30 4605 H 435.085 1.35665 -0.482793 0
M  V30 4606 H 437.038 4.07008 1.09191 0
M  V30 4607 H 435.762 2.89827 1.50558 0
M  V30 4608 H 434.421 3.6322 -0.49666 0
M  V30 4609 H 434.069 4.72486 1.72527 0
M  V30 4610 H 433.769 5.86317 0.388149 0
M  V30 4611 H 435.293 5.96266 1.31525 0
M  V30 4612 H 436.707 5.65617 -0.93541 0
M  V30 4613 H 435.104 5.74888 -1.72115 0
M  V30 4614 H 436.174 4.38114 -2.07807 0
M  V30 4615 N 437.518 0.538854 1.48102 0
M  V30 4616 C 438.766 0.00798599 2.02098 0
M  V30 4617 C 439.087 -1.33922 1.41739 0
M  V30 4618 O 438.357 -1.86932 0.585934 0
M  V30 4619 H 436.937 -3.62179e-05 0.747 0
M  V30 4620 H 439.599 0.7047 1.81714 0
M  V30 4621 H 438.695 -0.0937672 3.11959 0
M  V30 4622 N 438.996 -1.55193 0.274407 0
M  V30 4623 C 439.946 -2.19184 -0.627882 0
M  V30 4624 C 440.93 -1.15625 -1.11892 0
M  V30 4625 O 442.122 -1.41441 -1.06411 0
M  V30 4626 C 439.251 -2.91591 -1.81189 0
M  V30 4627 C 438.337 -4.02438 -1.33807 0
M  V30 4628 N 438.728 -5.0246 -0.580349 0
M  V30 4629 C 437.026 -4.15496 -1.62109 0
M  V30 4630 C 437.727 -5.80756 -0.331344 0
M  V30 4631 N 436.703 -5.36038 -0.903556 0
M  V30 4632 H 440.505 -2.93871 -0.0411216 0
M  V30 4633 H 438.019 -1.62213 0.0779348 0
M  V30 4634 H 440.016 -3.35883 -2.46957 0
M  V30 4635 H 438.676 -2.18414 -2.40261 0
M  V30 4636 H 439.687 -5.17399 -0.227762 0
M  V30 4637 H 436.364 -3.53509 -2.22121 0
M  V30 4638 H 437.754 -6.71335 0.275454 0
M  V30 4639 N 440.474 -0.00167713 -1.576 0
M  V30 4640 C 441.721 0.68282 -1.90641 0
M  V30 4641 C 442.049 1.73686 -0.875415 0
M  V30 4642 O 441.304 1.95334 0.119575 0
M  V30 4643 C 441.603 1.36189 -3.30435 0
M  V30 4644 C 441.269 0.440887 -4.48739 0
M  V30 4645 C 439.931 0.187312 -4.80835 0
M  V30 4646 C 442.283 -0.193134 -5.20842 0
M  V30 4647 C 439.611 -0.70855 -5.82406 0
M  V30 4648 C 441.963 -1.07688 -6.23367 0
M  V30 4649 C 440.627 -1.33962 -6.53919 0
M  V30 4650 H 439.897 0.249862 -0.697603 0
M  V30 4651 H 442.544 -0.0575642 -1.91413 0
M  V30 4652 H 440.849 2.17636 -3.25794 0
M  V30 4653 H 442.546 1.89759 -3.5326 0
M  V30 4654 H 439.136 0.648694 -4.23663 0
M  V30 4655 H 443.32 -0.0102445 -4.96299 0
M  V30 4656 H 438.576 -0.920097 -6.04437 0
M  V30 4657 H 442.75 -1.57451 -6.78367 0
M  V30 4658 H 440.377 -2.03549 -7.32442 0
M  V30 4659 N 441.952 1.55251 0.271103 0
M  V30 4660 C 443.18 1.79974 1.02064 0
M  V30 4661 C 443.595 0.574003 1.79863 0
M  V30 4662 O 442.952 -0.456962 1.76686 0
M  V30 4663 C 443.003 3.02603 1.97772 0
M  V30 4664 O 442.724 4.20443 1.23124 0
M  V30 4665 C 444.225 3.39944 2.84522 0
M  V30 4666 H 441.445 0.599489 0.301419 0
M  V30 4667 H 443.989 2.02268 0.301313 0
M  V30 4668 H 442.144 2.8243 2.65165 0
M  V30 4669 H 442.558 4.89783 1.87651 0
M  V30 4670 H 444.032 4.28915 3.47471 0
M  V30 4671 H 444.509 2.59432 3.54389 0
M  V30 4672 H 445.115 3.62383 2.22618 0
M  V30 4673 N 443.43 -0.535701 1.48216 0
M  V30 4674 C 444.658 -1.31671 1.59594 0
M  V30 4675 C 445.073 -1.87083 0.254056 0
M  V30 4676 O 444.43 -1.66112 -0.755854 0
M  V30 4677 C 444.481 -2.47158 2.63809 0
M  V30 4678 O 444.202 -1.94032 3.92789 0
M  V30 4679 C 445.703 -3.39062 2.85573 0
M  V30 4680 H 442.923 -0.400623 0.538277 0
M  V30 4681 H 445.467 -0.646827 1.94001 0
M  V30 4682 H 443.622 -3.10043 2.32276 0
M  V30 4683 H 444.036 -2.69585 4.49916 0
M  V30 4684 H 445.51 -4.16459 3.62306 0
M  V30 4685 H 445.987 -3.93941 1.94184 0
M  V30 4686 H 446.593 -2.81975 3.18387 0
M  V30 4687 N 444.908 -1.36708 -0.784132 0
M  V30 4688 C 446.154 -1.31426 -1.54451 0
M  V30 4689 C 446.487 0.10476 -1.93917 0
M  V30 4690 O 445.762 1.05934 -1.6312 0
M  V30 4691 C 446.045 -2.24189 -2.818 0
M  V30 4692 C 445.898 -3.74813 -2.48667 0
M  V30 4693 C 447.217 -2.15626 -3.83658 0
M  V30 4694 H 444.336 -0.478739 -0.560337 0
M  V30 4695 H 446.978 -1.67305 -0.900498 0
M  V30 4696 H 445.128 -1.93722 -3.36755 0
M  V30 4697 H 446.8 -4.15823 -1.99722 0
M  V30 4698 H 445.043 -3.93989 -1.81535 0
M  V30 4699 H 445.714 -4.35138 -3.39646 0
M  V30 4700 H 448.19 -2.42456 -3.38163 0
M  V30 4701 H 447.066 -2.82694 -4.70506 0
M  V30 4702 H 447.327 -1.14522 -4.27009 0
M  V30 4703 N 446.386 1.0089 -1.21074 0
M  V30 4704 C 447.802 1.2695 -0.967257 0
M  V30 4705 C 448.002 1.9846 0.348673 0
M  V30 4706 O 447.058 2.28459 1.0753 0
M  V30 4707 C 448.371 2.09697 -2.15517 0
M  V30 4708 C 449.919 2.22937 -2.197 0
M  V30 4709 C 450.394 3.09064 -3.37999 0
M  V30 4710 N 451.885 3.16653 -3.38061 0
M  V30 4711 C 452.62 3.8354 -4.26245 0
M  V30 4712 N 452.116 4.52488 -5.2462 0
M  V30 4713 N 453.909 3.80141 -4.14064 0
M  V30 4714 H 446.06 0.529005 -2.05707 0
M  V30 4715 H 448.323 0.296148 -0.900556 0
M  V30 4716 H 448.029 1.64497 -3.10859 0
M  V30 4717 H 447.903 3.10444 -2.14253 0
M  V30 4718 H 450.29 2.67357 -1.24916 0
M  V30 4719 H 450.371 1.21673 -2.2501 0
M  V30 4720 H 450.015 2.65347 -4.33074 0
M  V30 4721 H 449.945 4.10433 -3.29928 0
M  V30 4722 H 452.436 2.67566 -2.66865 0
M  V30 4723 H 452.749 5.01219 -5.88217 0
M  V30 4724 H 451.094 4.51288 -5.28549 0
M  V30 4725 H 454.285 3.25427 -3.36474 0
M  V30 4726 H 454.458 4.31992 -4.82998 0
M  V30 4727 N 447.864 1.01787 1.20321 0
M  V30 4728 C 448.814 0.559976 2.21016 0
M  V30 4729 C 449.798 -0.385366 1.56217 0
M  V30 4730 O 450.99 -0.208126 1.75772 0
M  V30 4731 C 448.119 -0.0990553 3.43157 0
M  V30 4732 C 447.205 0.86807 4.15121 0
M  V30 4733 N 447.596 2.0261 4.63447 0
M  V30 4734 C 445.894 0.689162 4.40643 0
M  V30 4735 C 446.595 2.63518 5.18588 0
M  V30 4736 N 445.571 1.91569 5.08726 0
M  V30 4737 H 449.373 1.44281 2.56048 0
M  V30 4738 H 446.887 0.883381 1.36272 0
M  V30 4739 H 448.884 -0.444643 4.14522 0
M  V30 4740 H 447.544 -0.977709 3.0963 0
M  V30 4741 H 448.555 2.40598 4.58621 0
M  V30 4742 H 445.232 -0.14133 4.17261 0
M  V30 4743 H 446.622 3.61527 5.66346 0
M  V30 4744 N 449.342 -1.36122 0.79427 0
M  V30 4745 C 450.59 -1.98718 0.368177 0
M  V30 4746 C 450.911 -1.63345 -1.06506 0
M  V30 4747 O 450.181 -0.909825 -1.73491 0
M  V30 4748 H 448.761 -0.735038 0.133146 0
M  V30 4749 H 451.423 -1.66239 1.01739 0
M  V30 4750 H 450.519 -3.08633 0.463923 0
M  V30 4751 N 450.82 -0.546701 -1.47814 0
M  V30 4752 C 451.783 0.196287 -2.28358 0
M  V30 4753 C 452.783 0.852437 -1.36346 0
M  V30 4754 O 453.973 0.709913 -1.59078 0
M  V30 4755 C 451.105 1.28579 -3.15722 0
M  V30 4756 H 452.298 -0.511086 -2.95513 0
M  V30 4757 H 449.851 -0.303248 -1.5333 0
M  V30 4758 H 450.586 2.0259 -2.53235 0
M  V30 4759 H 450.371 0.820229 -3.83425 0
M  V30 4760 H 451.861 1.80793 -3.76435 0
M  V30 4761 N 452.299 1.55045 -0.282633 0
M  V30 4762 C 453.524 2.04628 0.337977 0
M  V30 4763 C 453.949 1.15937 1.48123 0
M  V30 4764 O 453.307 0.159532 1.80597 0
M  V30 4765 C 453.355 3.51854 0.78936 0
M  V30 4766 O 452.459 3.66236 1.89592 0
M  V30 4767 H 451.8 0.660434 0.0687261 0
M  V30 4768 H 454.33 2.00261 -0.419124 0
M  V30 4769 H 454.34 3.93361 1.08311 0
M  V30 4770 H 453.015 4.15873 -0.0470419 0
M  V30 4771 H 451.592 3.36633 1.60413 0
M  V30 4772 N 453.777 0.010035 1.57597 0
M  V30 4773 C 455.024 -0.6727 1.91 0
M  V30 4774 C 455.352 -1.73219 0.884614 0
M  V30 4775 O 454.607 -1.95395 -0.109215 0
M  V30 4776 C 454.906 -1.34434 3.31153 0
M  V30 4777 C 454.572 -0.417083 4.48967 0
M  V30 4778 C 453.234 -0.161809 4.80928 0
M  V30 4779 C 455.586 0.220753 5.20732 0
M  V30 4780 C 452.914 0.739426 5.82022 0
M  V30 4781 C 455.266 1.10993 6.22787 0
M  V30 4782 C 453.93 1.37428 6.532 0
M  V30 4783 H 453.2 -0.246158 0.698918 0
M  V30 4784 H 455.847 0.0677145 1.9138 0
M  V30 4785 H 454.152 -2.15905 3.26944 0
M  V30 4786 H 455.849 -1.87883 3.54261 0
M  V30 4787 H 452.439 -0.626217 4.24001 0
M  V30 4788 H 456.623 0.0365643 4.96287 0
M  V30 4789 H 451.879 0.952139 6.03941 0
M  V30 4790 H 456.053 1.61046 6.77523 0
M  V30 4791 H 453.68 2.0743 7.31353 0
M  V30 4792 N 455.255 -1.55392 -0.262866 0
M  V30 4793 C 456.483 -1.80513 -1.01108 0
M  V30 4794 C 456.898 -0.583533 -1.79556 0
M  V30 4795 O 456.255 0.447585 -1.76926 0
M  V30 4796 C 456.306 -3.03648 -1.96164 0
M  V30 4797 O 456.027 -4.2109 -1.20893 0
M  V30 4798 C 457.528 -3.41448 -2.82715 0
M  V30 4799 H 454.748 -0.601079 -0.298236 0
M  V30 4800 H 457.292 -2.02425 -0.290582 0
M  V30 4801 H 455.447 -2.83832 -2.63663 0
M  V30 4802 H 455.861 -4.90771 -1.85051 0
M  V30 4803 H 457.335 -4.30751 -3.45192 0
M  V30 4804 H 457.812 -2.61308 -3.53008 0
M  V30 4805 H 458.418 -3.63559 -2.20693 0
M  V30 4806 N 456.733 0.527833 -1.48498 0
M  V30 4807 C 457.643 1.65907 -1.65867 0
M  V30 4808 C 458.659 1.6537 -0.541192 0
M  V30 4809 O 459.835 1.84282 -0.812534 0
M  V30 4810 C 456.9 3.02364 -1.69637 0
M  V30 4811 C 455.961 3.1374 -2.93028 0
M  V30 4812 C 455.194 4.43688 -2.96609 0
M  V30 4813 O 455.417 5.30913 -2.08538 0
M  V30 4814 O 454.351 4.59475 -3.88802 0
M  V30 4815 H 458.177 1.5419 -2.61647 0
M  V30 4816 H 455.762 0.701163 -1.31924 0
M  V30 4817 H 457.644 3.83515 -1.74625 0
M  V30 4818 H 456.319 3.14401 -0.770312 0
M  V30 4819 H 455.226 2.31877 -2.93571 0
M  V30 4820 H 456.559 3.06621 -3.85026 0
M  V30 4821 N 458.211 1.37122 0.776871 0
M  V30 4822 C 459.143 1.28342 1.89897 0
M  V30 4823 C 460.156 0.200277 1.61563 0
M  V30 4824 O 461.345 0.456012 1.72577 0
M  V30 4825 C 458.445 0.960427 3.25006 0
M  V30 4826 C 457.618 2.148 3.81025 0
M  V30 4827 C 456.677 1.79608 4.94598 0
M  V30 4828 O 455.703 2.51845 5.10454 0
M  V30 4829 N 456.905 0.737171 5.758 0
M  V30 4830 H 459.67 2.25027 1.97947 0
M  V30 4831 H 457.231 1.3068 0.955739 0
M  V30 4832 H 459.223 0.705942 3.98495 0
M  V30 4833 H 457.793 0.0823066 3.12492 0
M  V30 4834 H 457.013 2.56454 2.99374 0
M  V30 4835 H 458.301 2.9411 4.15183 0
M  V30 4836 H 457.699 0.137637 5.65533 0
M  V30 4837 H 456.256 0.542534 6.49538 0
M  V30 4838 N 459.689 -1.00246 1.21608 0
M  V30 4839 C 460.935 -1.74417 1.04643 0
M  V30 4840 C 461.29 -1.87862 -0.415387 0
M  V30 4841 O 460.583 -1.40373 -1.30407 0
M  V30 4842 C 460.777 -3.15448 1.68009 0
M  V30 4843 C 460.606 -3.15755 3.20201 0
M  V30 4844 C 459.376 -3.2219 3.89258 0
M  V30 4845 C 461.574 -3.00668 4.17257 0
M  V30 4846 N 459.556 -3.1215 5.28617 0
M  V30 4847 C 460.927 -2.98553 5.43384 0
M  V30 4848 C 462.982 -2.84989 4.08272 0
M  V30 4849 C 461.685 -2.82364 6.61561 0
M  V30 4850 C 463.711 -2.70158 5.26088 0
M  V30 4851 C 463.073 -2.68721 6.51128 0
M  V30 4852 H 459.172 -0.648317 0.437274 0
M  V30 4853 H 461.756 -1.19129 1.54001 0
M  V30 4854 H 459.927 -3.69001 1.21215 0
M  V30 4855 H 461.659 -3.78128 1.44226 0
M  V30 4856 H 458.414 -3.29488 3.40198 0
M  V30 4857 H 458.838 -3.10465 6.01615 0
M  V30 4858 H 463.48 -2.84904 3.12393 0
M  V30 4859 H 461.198 -2.81196 7.57598 0
M  V30 4860 H 464.784 -2.59022 5.20959 0
M  V30 4861 H 463.664 -2.57382 7.40759 0
M  V30 4862 N 461.167 -1.02423 -1.1978 0
M  V30 4863 C 462.395 -0.737456 -1.93311 0
M  V30 4864 C 462.81 0.703023 -1.75223 0
M  V30 4865 O 462.167 1.47761 -1.07112 0
M  V30 4866 C 462.218 -1.0733 -3.45199 0
M  V30 4867 O 461.939 -2.4572 -3.62702 0
M  V30 4868 C 463.44 -0.80866 -4.35862 0
M  V30 4869 H 460.66 -0.2702 -0.614193 0
M  V30 4870 H 463.204 -1.36747 -1.52054 0
M  V30 4871 H 461.359 -0.488545 -3.84307 0
M  V30 4872 H 461.773 -2.58081 -4.56612 0
M  V30 4873 H 463.247 -1.09365 -5.41057 0
M  V30 4874 H 463.724 0.257025 -4.38447 0
M  V30 4875 H 464.33 -1.37592 -4.02428 0
M  V30 4876 N 462.645 1.35699 -0.801477 0
M  V30 4877 C 463.922 1.9324 -0.302937 0
M  V30 4878 C 464.302 1.73209 1.20672 0
M  V30 4879 O 463.65 1.09809 2.00385 0
M  V30 4880 C 463.86 3.41728 -0.708747 0
M  V30 4881 C 465.208 4.18868 -0.695328 0
M  V30 4882 O 466.232 3.5022 -0.649971 0
M  V30 4883 O 465.091 5.41342 -0.749081 0
M  V30 4884 H 462.185 0.82331 -0.0780367 0
M  V30 4885 H 464.731 1.44806 -0.884832 0
M  V30 4886 H 463.503 3.50015 -1.74944 0
M  V30 4887 H 463.126 3.97471 -0.101384 0
M  V30 4888 N 464.123 0.554532 1.47522 0
M  V30 4889 C 465.371 0.0294208 2.02079 0
M  V30 4890 C 465.692 -1.32411 1.43151 0
M  V30 4891 O 464.962 -1.863 0.605728 0
M  V30 4892 H 463.542 0.00788672 0.746958 0
M  V30 4893 H 466.204 0.723934 1.80956 0
M  V30 4894 H 465.3 -0.0606745 3.12041 0
M  V30 4895 N 465.601 -1.54893 0.290851 0
M  V30 4896 C 466.831 -2.04047 -0.323818 0
M  V30 4897 C 467.239 -1.16809 -1.48837 0
M  V30 4898 O 466.582 -0.184145 -1.82775 0
M  V30 4899 C 466.644 -3.49248 -0.852395 0
M  V30 4900 C 466.308 -4.56623 0.185557 0
M  V30 4901 C 467.305 -5.09985 1.01053 0
M  V30 4902 C 464.99 -5.01252 0.324332 0
M  V30 4903 C 466.984 -6.06507 1.96031 0
M  V30 4904 C 464.671 -5.97596 1.27757 0
M  V30 4905 C 465.669 -6.50107 2.09405 0
M  V30 4906 O 465.357 -7.44565 3.03114 0
M  V30 4907 H 465.089 -0.671735 -0.0758129 0
M  V30 4908 H 467.643 -2.00947 0.425393 0
M  V30 4909 H 465.873 -3.49639 -1.65195 0
M  V30 4910 H 467.562 -3.81654 -1.38185 0
M  V30 4911 H 468.328 -4.76307 0.914129 0
M  V30 4912 H 464.207 -4.60015 -0.301213 0
M  V30 4913 H 467.751 -6.47418 2.598 0
M  V30 4914 H 463.648 -6.30691 1.37473 0
M  V30 4915 H 464.416 -7.62334 2.97976 0
M  V30 4916 N 467.08 -0.0183926 -1.57589 0
M  V30 4917 C 468.043 0.951986 -2.08494 0
M  V30 4918 C 469.043 1.26092 -0.997874 0
M  V30 4919 O 470.233 1.20304 -1.25987 0
M  V30 4920 C 467.365 2.27165 -2.54182 0
M  V30 4921 H 468.558 0.511307 -2.95509 0
M  V30 4922 H 466.111 0.229444 -1.54607 0
M  V30 4923 H 466.846 2.75884 -1.70465 0
M  V30 4924 H 466.631 2.06057 -3.33591 0
M  V30 4925 H 468.121 2.9674 -2.93828 0
M  V30 4926 N 468.558 1.5553 0.254621 0
M  V30 4927 C 469.805 1.77 0.983736 0
M  V30 4928 C 470.133 0.58133 1.85609 0
M  V30 4929 O 469.388 -0.435621 1.9079 0
M  V30 4930 C 469.687 3.03891 1.88109 0
M  V30 4931 C 469.353 4.35597 1.16472 0
M  V30 4932 C 468.015 4.7139 0.966714 0
M  V30 4933 C 470.367 5.1705 0.656387 0
M  V30 4934 C 467.695 5.86176 0.247942 0
M  V30 4935 C 470.047 6.32581 -0.0488807 0
M  V30 4936 C 468.711 6.67 -0.258438 0
M  V30 4937 H 467.981 0.647688 0.359974 0
M  V30 4938 H 470.628 1.89802 0.254463 0
M  V30 4939 H 468.933 2.86068 2.67717 0
M  V30 4940 H 470.63 3.17701 2.44677 0
M  V30 4941 H 467.22 4.07475 1.32899 0
M  V30 4942 H 471.404 4.8986 0.796933 0
M  V30 4943 H 466.66 6.11354 0.075035 0
M  V30 4944 H 470.834 6.94942 -0.450444 0
M  V30 4945 H 468.461 7.55793 -0.817358 0
M  V30 4946 N 470.036 -0.519951 1.48776 0
M  V30 4947 C 470.968 -1.63973 1.60142 0
M  V30 4948 C 471.981 -1.55404 0.485117 0
M  V30 4949 O 473.17 -1.61682 0.756391 0
M  V30 4950 C 470.27 -3.02676 1.52449 0
M  V30 4951 C 469.443 -3.36624 2.79291 0
M  V30 4952 C 468.502 -4.54652 2.64912 0
M  V30 4953 O 467.528 -4.57374 3.38818 0
M  V30 4954 N 468.73 -5.53432 1.75195 0
M  V30 4955 H 471.495 -1.54656 2.56713 0
M  V30 4956 H 469.056 -0.707439 1.45626 0
M  V30 4957 H 471.048 -3.79525 1.4051 0
M  V30 4958 H 469.618 -3.06018 0.638125 0
M  V30 4959 H 468.838 -2.48855 3.0572 0
M  V30 4960 H 470.126 -3.56094 3.6342 0
M  V30 4961 H 469.524 -5.54018 1.14371 0
M  V30 4962 H 468.081 -6.29459 1.69189 0
M  V30 4963 N 471.514 -1.37532 -0.769588 0
M  V30 4964 C 472.462 -1.33561 -1.90432 0
M  V30 4965 C 473.456 -0.224027 -1.67912 0
M  V30 4966 O 474.662 -0.392174 -1.75676 0
M  V30 4967 H 471.037 -0.416279 -0.626271 0
M  V30 4968 H 473.008 -2.29348 -1.90899 0
M  V30 4969 C 471.757 -1.16162 -3.27722 0
M  V30 4970 H 471.08 -2.00951 -3.45628 0
M  V30 4971 H 472.52 -1.17434 -4.07413 0
M  V30 4972 C 470.979 0.132583 -3.36639 0
M  V30 4973 O 471.509 1.11539 -3.85904 0
M  V30 4974 N 469.715 0.184013 -2.90017 0
M  V30 4975 H 469.262 -0.616415 -2.50116 0
M  V30 4976 H 469.22 1.04956 -2.96364 0
M  V30 4977 N 472.992 0.995999 -1.22138 0
M  V30 4978 C 473.922 2.10387 -1.01289 0
M  V30 4979 C 474.903 1.69975 0.0651454 0
M  V30 4980 O 476.088 1.9396 -0.0964628 0
M  V30 4981 C 473.218 3.42312 -0.586517 0
M  V30 4982 C 472.172 3.96558 -1.61014 0
M  V30 4983 C 471.498 5.24494 -1.0397 0
M  V30 4984 C 472.798 4.27595 -2.99933 0
M  V30 4985 H 474.492 2.28086 -1.93951 0
M  V30 4986 H 472.038 1.09607 -0.933928 0
M  V30 4987 H 473.991 4.19223 -0.427793 0
M  V30 4988 H 472.715 3.24431 0.375761 0
M  V30 4989 H 471.374 3.21776 -1.75658 0
M  V30 4990 H 471.022 5.02953 -0.0688703 0
M  V30 4991 H 470.722 5.61755 -1.72352 0
M  V30 4992 H 472.246 6.04042 -0.892494 0
M  V30 4993 H 473.66 4.95315 -2.8868 0
M  V30 4994 H 472.057 4.76021 -3.6541 0
M  V30 4995 H 473.127 3.35498 -3.50099 0
M  V30 4996 N 474.47 1.03057 1.19235 0
M  V30 4997 C 475.719 0.72326 1.88287 0
M  V30 4998 C 476.032 -0.751333 1.80594 0
M  V30 4999 O 477.238 -1.17176 2.44912 0
M  V30 5000 C 475.694 1.24338 3.3774 0
M  V30 5001 C 475.302 2.74587 3.53986 0
M  V30 5002 C 477.046 1.01213 4.12257 0
M  V30 5003 C 474.953 3.20009 4.97341 0
M  V30 5004 H 473.883 0.266848 0.705201 0
M  V30 5005 H 476.534 1.24509 1.34795 0
M  V30 5006 H 474.916 0.649457 3.90638 0
M  V30 5007 H 476.09 3.39649 3.11408 0
M  V30 5008 H 474.405 2.9601 2.9286 0
M  V30 5009 H 477.002 1.32675 5.17978 0
M  V30 5010 H 477.345 -0.051001 4.16269 0
M  V30 5011 H 477.878 1.57014 3.65501 0
M  V30 5012 H 474.617 4.25659 4.98493 0
M  V30 5013 H 474.137 2.59676 5.40674 0
M  V30 5014 H 475.816 3.13447 5.66003 0
M  V30 5015 N 475.948 -1.35272 0.808662 0
M  V30 5016 C 476.895 -2.29764 0.218482 0
M  V30 5017 C 477.865 -1.52911 -0.648652 0
M  V30 5018 O 479.05 -1.81341 -0.593297 0
M  V30 5019 C 476.19 -3.39388 -0.625282 0
M  V30 5020 C 475.303 -4.31202 0.262516 0
M  V30 5021 C 474.438 -5.27919 -0.589451 0
M  V30 5022 C 473.477 -6.11371 0.298617 0
M  V30 5023 N 472.614 -7.0022 -0.513443 0
M  V30 5024 H 477.454 -2.79645 1.02968 0
M  V30 5025 H 474.991 -1.37629 0.519303 0
M  V30 5026 H 476.949 -4.01615 -1.12966 0
M  V30 5027 H 475.579 -2.90777 -1.40173 0
M  V30 5028 H 474.631 -3.69962 0.885013 0
M  V30 5029 H 475.943 -4.89748 0.945971 0
M  V30 5030 H 475.097 -5.95529 -1.15888 0
M  V30 5031 H 473.836 -4.69875 -1.30647 0
M  V30 5032 H 472.841 -5.42707 0.880301 0
M  V30 5033 H 474.066 -6.71494 1.01352 0
M  V30 5034 H 472.012 -6.44662 -1.21439 0
M  V30 5035 H 471.929 -7.55917 0.111922 0
M  V30 5036 H 473.197 -7.72175 -1.06608 0
M  V30 5037 N 477.426 -0.562348 -1.47226 0
M  V30 5038 C 478.358 0.220011 -2.28142 0
M  V30 5039 C 479.371 0.874596 -1.37312 0
M  V30 5040 O 480.56 0.747583 -1.62091 0
M  V30 5041 C 477.66 1.32953 -3.11732 0
M  V30 5042 C 476.833 0.770759 -4.30556 0
M  V30 5043 C 475.892 1.76541 -4.95701 0
M  V30 5044 O 474.918 1.3095 -5.53932 0
M  V30 5045 N 476.12 3.09896 -4.90861 0
M  V30 5046 H 478.885 -0.474107 -2.95926 0
M  V30 5047 H 476.446 -0.398761 -1.56912 0
M  V30 5048 H 478.438 1.99378 -3.5218 0
M  V30 5049 H 477.008 1.92681 -2.46156 0
M  V30 5050 H 476.228 -0.0704056 -3.94137 0
M  V30 5051 H 477.516 0.376872 -5.07402 0
M  V30 5052 H 476.914 3.49577 -4.44761 0
M  V30 5053 H 475.471 3.71865 -5.35313 0
M  V30 5054 N 478.904 1.54736 -0.299062 0
M  V30 5055 C 479.836 2.20891 0.61153 0
M  V30 5056 C 480.849 1.20104 1.09904 0
M  V30 5057 O 482.038 1.46707 1.01683 0
M  V30 5058 C 479.138 2.84018 1.84897 0
M  V30 5059 C 478.311 4.10719 1.50428 0
M  V30 5060 C 477.37 4.57667 2.59667 0
M  V30 5061 O 476.396 5.2291 2.24842 0
M  V30 5062 N 477.598 4.29821 3.90172 0
M  V30 5063 H 480.363 2.99666 0.0452001 0
M  V30 5064 H 477.924 1.61446 -0.121178 0
M  V30 5065 H 479.916 3.1236 2.5732 0
M  V30 5066 H 478.486 2.09095 2.32375 0
M  V30 5067 H 477.706 3.89408 0.612781 0
M  V30 5068 H 478.994 4.93223 1.24934 0
M  V30 5069 H 478.392 3.77549 4.21276 0
M  V30 5070 H 476.949 4.62877 4.58899 0
M  V30 5071 N 480.382 0.0267497 1.57577 0
M  V30 5072 C 481.292 -0.971633 2.13533 0
M  V30 5073 C 482.308 -1.35868 1.08701 0
M  V30 5074 O 483.484 -1.44058 1.40746 0
M  V30 5075 C 480.549 -2.23622 2.64941 0
M  V30 5076 C 479.61 -1.90982 3.8448 0
M  V30 5077 C 478.843 -3.11411 4.33427 0
M  V30 5078 O 479.066 -4.23992 3.81558 0
M  V30 5079 O 478 -2.93848 5.25297 0
M  V30 5080 H 481.826 -0.525853 2.99113 0
M  V30 5081 H 479.411 -0.193712 1.48139 0
M  V30 5082 H 481.293 -2.97864 2.98086 0
M  V30 5083 H 479.968 -2.67386 1.82446 0
M  V30 5084 H 478.875 -1.14132 3.56265 0
M  V30 5085 H 480.208 -1.52036 4.6813 0
M  V30 5086 N 481.861 -1.55662 -0.24637 0
M  V30 5087 C 483.277 -1.48098 -0.594907 0
M  V30 5088 C 483.477 -0.717044 -1.8831 0
M  V30 5089 O 482.533 -0.246618 -2.51293 0
M  V30 5090 C 483.846 -2.92507 -0.697146 0
M  V30 5091 C 485.394 -3.02881 -0.789436 0
M  V30 5092 C 485.869 -4.48598 -0.923232 0
M  V30 5093 N 487.36 -4.52538 -0.988088 0
M  V30 5094 C 488.095 -5.62536 -1.11089 0
M  V30 5095 N 487.591 -6.82342 -1.19919 0
M  V30 5096 N 489.384 -5.50334 -1.14408 0
M  V30 5097 H 481.535 -2.0377 0.599278 0
M  V30 5098 H 483.798 -0.925145 0.20691 0
M  V30 5099 H 483.504 -3.51242 0.179396 0
M  V30 5100 H 483.378 -3.43024 -1.5689 0
M  V30 5101 H 485.765 -2.44226 -1.65643 0
M  V30 5102 H 485.846 -2.55574 0.107482 0
M  V30 5103 H 485.49 -5.07864 -0.0607927 0
M  V30 5104 H 485.42 -4.93587 -1.8352 0
M  V30 5105 H 487.911 -3.66248 -0.931167 0
M  V30 5106 H 488.224 -7.61924 -1.29197 0
M  V30 5107 H 486.569 -6.85102 -1.16876 0
M  V30 5108 H 489.76 -4.5567 -1.07158 0
M  V30 5109 H 489.933 -6.36096 -1.23634 0
M  V30 5110 N 483.339 0.512053 -1.4905 0
M  V30 5111 C 484.588 1.26343 -1.57227 0
M  V30 5112 C 484.901 1.93876 -0.259155 0
M  V30 5113 O 486.107 2.70612 -0.219358 0
M  V30 5114 C 484.563 2.29343 -2.77362 0
M  V30 5115 C 484.171 1.67799 -4.15388 0
M  V30 5116 C 485.915 3.05378 -2.94864 0
M  V30 5117 C 483.822 2.68845 -5.2676 0
M  V30 5118 H 482.752 0.475231 -0.585382 0
M  V30 5119 H 485.403 0.53862 -1.75417 0
M  V30 5120 H 483.785 3.04938 -2.52643 0
M  V30 5121 H 484.959 0.982715 -4.50199 0
M  V30 5122 H 483.274 1.04194 -4.03153 0
M  V30 5123 H 485.871 3.80921 -3.75238 0
M  V30 5124 H 486.214 3.62327 -2.05 0
M  V30 5125 H 486.747 2.36898 -3.19569 0
M  V30 5126 H 483.486 2.16692 -6.18647 0
M  V30 5127 H 483.006 3.36647 -4.96416 0
M  V30 5128 H 484.685 3.31487 -5.5563 0
M  V30 5129 N 484.817 1.37938 0.762283 0
M  V30 5130 C 485.765 1.34569 1.89721 0
M  V30 5131 C 486.759 0.232929 1.67791 0
M  V30 5132 O 487.965 0.401485 1.75465 0
M  V30 5133 H 484.34 0.419594 0.624055 0
M  V30 5134 H 486.311 2.30357 1.8968 0
M  V30 5135 C 485.06 1.17898 3.27101 0
M  V30 5136 H 484.383 2.02781 3.44558 0
M  V30 5137 H 485.823 1.19593 4.06784 0
M  V30 5138 C 484.282 -0.114728 3.36705 0
M  V30 5139 O 484.812 -1.0949 3.8649 0
M  V30 5140 N 483.018 -0.16863 2.9011 0
M  V30 5141 H 482.565 0.62967 2.49786 0
M  V30 5142 H 482.523 -1.03383 2.96916 0
M  V30 5143 N 486.295 -0.989507 1.22664 0
M  V30 5144 C 487.52 -1.77031 1.08051 0
M  V30 5145 C 487.945 -1.84535 -0.364483 0
M  V30 5146 O 487.303 -1.3003 -1.2634 0
M  V30 5147 C 487.351 -3.18 1.70024 0
M  V30 5148 O 486.455 -4.01161 0.956216 0
M  V30 5149 H 485.796 -0.545008 0.379292 0
M  V30 5150 H 488.326 -1.24277 1.62531 0
M  V30 5151 H 488.336 -3.68616 1.74888 0
M  V30 5152 H 487.011 -3.11853 2.75174 0
M  V30 5153 H 485.588 -3.59687 0.98384 0
M  V30 5154 N 487.773 -1.03688 -1.18687 0
M  V30 5155 C 488.705 -0.582696 -2.21669 0
M  V30 5156 C 489.718 0.345656 -1.59088 0
M  V30 5157 O 490.907 0.140776 -1.77944 0
M  V30 5158 C 488.007 0.169204 -3.38477 0
M  V30 5159 C 487.18 -0.766079 -4.30639 0
M  V30 5160 C 486.239 -0.0581541 -5.26168 0
M  V30 5161 O 485.265 -0.687346 -5.65035 0
M  V30 5162 N 486.467 1.20981 -5.67753 0
M  V30 5163 H 489.232 -1.46843 -2.61261 0
M  V30 5164 H 486.793 -0.916896 -1.33434 0
M  V30 5165 H 488.785 0.652543 -3.99405 0
M  V30 5166 H 487.355 0.956435 -2.97609 0
M  V30 5167 H 486.575 -1.42935 -3.67373 0
M  V30 5168 H 487.863 -1.40146 -4.89118 0
M  V30 5169 H 487.261 1.74159 -5.38224 0
M  V30 5170 H 485.818 1.6375 -6.30896 0
M  V30 5171 N 489.251 1.34841 -0.815825 0
M  V30 5172 C 490.667 1.51543 -0.500697 0
M  V30 5173 C 490.867 1.76261 0.976444 0
M  V30 5174 O 489.923 1.8094 1.76117 0
M  V30 5175 C 491.236 2.68487 -1.35407 0
M  V30 5176 C 492.784 2.82368 -1.35046 0
M  V30 5177 C 493.259 4.02347 -2.18816 0
M  V30 5178 N 494.75 4.09542 -2.16402 0
M  V30 5179 C 495.485 5.01517 -2.77971 0
M  V30 5180 N 494.981 5.98763 -3.48503 0
M  V30 5181 N 496.774 4.94334 -2.67563 0
M  V30 5182 H 488.925 1.17055 -1.77234 0
M  V30 5183 H 491.188 0.573481 -0.754866 0
M  V30 5184 H 490.894 2.56829 -2.40274 0
M  V30 5185 H 490.768 3.63321 -1.01377 0
M  V30 5186 H 493.155 2.93471 -0.309604 0
M  V30 5187 H 493.236 1.88363 -1.73069 0
M  V30 5188 H 492.88 3.92004 -3.22948 0
M  V30 5189 H 492.81 4.95551 -1.78148 0
M  V30 5190 H 495.301 3.39932 -1.65091 0
M  V30 5191 H 495.614 6.6556 -3.92747 0
M  V30 5192 H 493.959 5.98909 -3.52609 0
M  V30 5193 H 497.15 4.1732 -2.12041 0
M  V30 5194 H 497.323 5.6582 -3.15834 0
M  V30 5195 N 490.729 0.570148 1.46925 0
M  V30 5196 C 491.639 -0.173061 2.33961 0
M  V30 5197 C 492.655 -0.898825 1.48987 0
M  V30 5198 O 493.831 -0.864825 1.81887 0
M  V30 5199 C 490.896 -1.18177 3.25937 0
M  V30 5200 C 489.957 -0.462041 4.26806 0
M  V30 5201 C 489.19 -1.4227 5.14388 0
M  V30 5202 O 489.413 -2.65842 5.04662 0
M  V30 5203 O 488.347 -0.940127 5.94513 0
M  V30 5204 H 492.173 0.541216 2.98839 0
M  V30 5205 H 489.758 0.330647 1.45695 0
M  V30 5206 H 491.64 -1.76372 3.82715 0
M  V30 5207 H 490.315 -1.87774 2.63671 0
M  V30 5208 H 489.222 0.161429 3.73752 0
M  V30 5209 H 490.555 0.192719 4.91823 0
M  V30 5210 N 492.207 -1.54576 0.307264 0
M  V30 5211 C 493.117 -2.27435 -0.57536 0
M  V30 5212 C 494.133 -1.31183 -1.14311 0
M  V30 5213 O 495.309 -1.64175 -1.16656 0
M  V30 5214 C 492.374 -3.00566 -1.72803 0
M  V30 5215 C 491.435 -4.12369 -1.19373 0
M  V30 5216 C 490.668 -4.82003 -2.29147 0
M  V30 5217 O 490.891 -4.51038 -3.49171 0
M  V30 5218 O 489.825 -5.69271 -1.95485 0
M  V30 5219 H 493.651 -3.03696 0.0158558 0
M  V30 5220 H 491.236 -1.49219 0.0735064 0
M  V30 5221 H 493.118 -3.46416 -2.39946 0
M  V30 5222 H 491.793 -2.27195 -2.30574 0
M  V30 5223 H 490.7 -3.70905 -0.487851 0
M  V30 5224 H 492.033 -4.87736 -0.661376 0
M  V30 5225 N 493.685 -0.035106 -1.57561 0
M  V30 5226 C 494.934 0.641604 -1.91223 0
M  V30 5227 C 495.247 1.72944 -0.913761 0
M  V30 5228 O 496.453 2.46321 -1.14185 0
M  V30 5229 C 494.909 1.19249 -3.3957 0
M  V30 5230 C 494.517 0.137616 -4.47789 0
M  V30 5231 C 496.261 1.84537 -3.82291 0
M  V30 5232 C 494.168 0.700478 -5.87237 0
M  V30 5233 H 493.098 0.243417 -0.713627 0
M  V30 5234 H 495.749 -0.101382 -1.8322 0
M  V30 5235 H 494.131 1.98728 -3.42525 0
M  V30 5236 H 495.305 -0.635153 -4.56402 0
M  V30 5237 H 493.62 -0.416855 -4.14308 0
M  V30 5238 H 496.217 2.27616 -4.83834 0
M  V30 5239 H 496.56 2.69054 -3.17672 0
M  V30 5240 H 497.093 1.11739 -3.81784 0
M  V30 5241 H 493.832 -0.106693 -6.55413 0
M  V30 5242 H 493.352 1.4416 -5.82218 0
M  V30 5243 H 495.031 1.18837 -6.35993 0
M  V30 5244 N 495.163 1.55791 0.238111 0
M  V30 5245 C 496.073 1.94196 1.31625 0
M  V30 5246 C 497.089 0.843545 1.52185 0
M  V30 5247 O 498.265 1.1457 1.65637 0
M  V30 5248 C 495.33 2.2365 2.64918 0
M  V30 5249 C 494.391 3.46971 2.52804 0
M  V30 5250 C 493.624 3.7501 3.79741 0
M  V30 5251 O 493.847 3.04982 4.82019 0
M  V30 5252 O 492.781 4.68525 3.77846 0
M  V30 5253 H 496.607 2.86044 1.02043 0
M  V30 5254 H 494.192 1.42786 0.439603 0
M  V30 5255 H 496.074 2.43863 3.4367 0
M  V30 5256 H 494.749 1.34979 2.94215 0
M  V30 5257 H 493.656 3.32055 1.72309 0
M  V30 5258 H 494.989 4.35971 2.28451 0
M  V30 5259 N 496.642 -0.504142 1.49319 0
M  V30 5260 C 498.058 -0.835039 1.36012 0
M  V30 5261 C 498.258 -1.97674 0.390808 0
M  V30 5262 O 497.314 -2.51867 -0.178655 0
M  V30 5263 C 498.627 -1.17821 2.76656 0
M  V30 5264 C 500.175 -1.2866 2.85334 0
M  V30 5265 C 500.65 -1.66307 4.26739 0
M  V30 5266 N 502.141 -1.73362 4.29534 0
M  V30 5267 C 502.876 -2.0393 5.35911 0
M  V30 5268 N 502.372 -2.32744 6.52535 0
M  V30 5269 N 504.165 -2.05155 5.23324 0
M  V30 5270 H 496.316 0.248764 2.10938 0
M  V30 5271 H 498.579 0.0486962 0.946748 0
M  V30 5272 H 498.285 -0.412682 3.4927 0
M  V30 5273 H 498.159 -2.12239 3.11825 0
M  V30 5274 H 500.546 -2.04285 2.1296 0
M  V30 5275 H 500.627 -0.323004 2.53752 0
M  V30 5276 H 500.271 -0.91234 4.99639 0
M  V30 5277 H 500.201 -2.63761 4.55782 0
M  V30 5278 H 502.692 -1.53268 3.45424 0
M  V30 5279 H 503.005 -2.55248 7.2943 0
M  V30 5280 H 501.35 -2.30207 6.55767 0
M  V30 5281 H 504.541 -1.82119 4.3122 0
M  V30 5282 H 504.714 -2.28644 6.06322 0
M  V30 5283 N 498.12 -1.38341 -0.754957 0
M  V30 5284 C 499.052 -1.31347 -1.87831 0
M  V30 5285 C 500.065 -0.225955 -1.61224 0
M  V30 5286 O 501.254 -0.48341 -1.7183 0
M  V30 5287 C 498.354 -1.01201 -3.23437 0
M  V30 5288 C 497.527 -2.20834 -3.77559 0
M  V30 5289 C 496.586 -1.87454 -4.91678 0
M  V30 5290 O 495.612 -2.59934 -5.06382 0
M  V30 5291 N 496.814 -0.828682 -5.74555 0
M  V30 5292 H 499.579 -2.28147 -1.94342 0
M  V30 5293 H 497.14 -1.32184 -0.934828 0
M  V30 5294 H 499.132 -0.769249 -3.97322 0
M  V30 5295 H 497.702 -0.132011 -3.12321 0
M  V30 5296 H 496.922 -2.61184 -2.95256 0
M  V30 5297 H 498.21 -3.00678 -4.10451 0
M  V30 5298 H 497.608 -0.227591 -5.65242 0
M  V30 5299 H 496.165 -0.645802 -6.48593 0
M  V30 5300 N 499.598 0.982988 -1.23187 0
M  V30 5301 C 501.014 1.2487 -0.993967 0
M  V30 5302 C 501.214 1.99155 0.306498 0
M  V30 5303 O 500.27 2.30688 1.0266 0
M  V30 5304 C 501.583 2.05078 -2.19917 0
M  V30 5305 C 503.131 2.18227 -2.2438 0
M  V30 5306 C 503.606 3.01825 -3.44479 0
M  V30 5307 N 505.097 3.09411 -3.44702 0
M  V30 5308 C 505.832 3.74412 -4.34285 0
M  V30 5309 N 505.328 4.41259 -5.341 0
M  V30 5310 N 507.121 3.71273 -4.22035 0
M  V30 5311 H 499.272 0.485253 -2.06783 0
M  V30 5312 H 501.535 0.276979 -0.906635 0
M  V30 5313 H 501.241 1.57867 -3.14279 0
M  V30 5314 H 501.115 3.05829 -2.2079 0
M  V30 5315 H 503.502 2.64648 -1.30559 0
M  V30 5316 H 503.583 1.16873 -2.2754 0
M  V30 5317 H 503.227 2.56102 -4.38605 0
M  V30 5318 H 503.157 4.03342 -3.38559 0
M  V30 5319 H 505.648 2.61845 -2.7248 0
M  V30 5320 H 505.961 4.88629 -5.98717 0
M  V30 5321 H 504.306 4.39975 -5.38002 0
M  V30 5322 H 507.497 3.18217 -3.43301 0
M  V30 5323 H 507.67 4.21649 -4.92053 0
M  V30 5324 N 501.076 1.04316 1.18135 0
M  V30 5325 C 502.023 0.636398 2.21853 0
M  V30 5326 C 502.993 -0.357039 1.62217 0
M  V30 5327 O 504.178 -0.250453 1.89149 0
M  V30 5328 C 501.318 0.00812779 3.45099 0
M  V30 5329 C 500.431 1.04933 4.19062 0
M  V30 5330 C 499.566 0.389313 5.29771 0
M  V30 5331 C 498.605 1.41544 5.9551 0
M  V30 5332 N 497.742 0.78021 6.97751 0
M  V30 5333 H 502.582 1.52536 2.56002 0
M  V30 5334 H 500.119 0.76304 1.25762 0
M  V30 5335 H 502.077 -0.373497 4.15525 0
M  V30 5336 H 500.707 -0.844336 3.11562 0
M  V30 5337 H 499.759 1.54888 3.47439 0
M  V30 5338 H 501.071 1.82862 4.64072 0
M  V30 5339 H 500.225 -0.0463805 6.06682 0
M  V30 5340 H 498.964 -0.422038 4.8587 0
M  V30 5341 H 497.969 1.86124 5.17337 0
M  V30 5342 H 499.194 2.22854 6.41493 0
M  V30 5343 H 497.14 -0.0107899 6.55999 0
M  V30 5344 H 497.057 1.49716 7.41027 0
M  V30 5345 H 498.325 0.368996 7.78626 0
M  V30 5346 N 502.554 -1.34406 0.822964 0
M  V30 5347 C 503.487 -2.27407 0.190124 0
M  V30 5348 C 504.465 -1.4889 -0.653486 0
M  V30 5349 O 505.649 -1.78109 -0.617216 0
M  V30 5350 C 502.776 -3.3064 -0.734477 0
M  V30 5351 C 501.822 -4.26488 0.0316099 0
M  V30 5352 S 502.655 -5.17445 1.3788 0
M  V30 5353 C 503.811 -6.24214 0.45907 0
M  V30 5354 H 504.044 -2.80733 0.978586 0
M  V30 5355 H 501.577 -1.41455 0.618866 0
M  V30 5356 H 503.535 -3.90607 -1.26238 0
M  V30 5357 H 502.196 -2.76161 -1.49646 0
M  V30 5358 H 501.389 -4.9951 -0.671285 0
M  V30 5359 H 500.991 -3.70775 0.490066 0
M  V30 5360 H 503.283 -6.76599 -0.349357 0
M  V30 5361 H 504.226 -6.98551 1.15896 0
M  V30 5362 H 504.634 -5.6448 0.0474825 0
M  V30 5363 N 504.032 -0.577932 -1.46621 0
M  V30 5364 C 504.962 0.145917 -2.33044 0
M  V30 5365 C 505.943 0.888412 -1.45056 0
M  V30 5366 O 507.128 0.864812 -1.73881 0
M  V30 5367 C 504.258 1.16322 -3.27241 0
M  V30 5368 C 503.212 0.535868 -4.24632 0
M  V30 5369 C 502.538 1.65929 -5.08303 0
M  V30 5370 C 503.838 -0.523861 -5.19666 0
M  V30 5371 H 505.532 -0.575636 -2.93814 0
M  V30 5372 H 503.078 -0.278272 -1.41286 0
M  V30 5373 H 505.031 1.67793 -3.86553 0
M  V30 5374 H 503.755 1.91498 -2.64567 0
M  V30 5375 H 502.414 0.0422759 -3.66576 0
M  V30 5376 H 502.062 2.40061 -4.42018 0
M  V30 5377 H 501.762 1.2452 -5.74255 0
M  V30 5378 H 503.286 2.17686 -5.70478 0
M  V30 5379 H 504.7 -0.0944059 -5.73222 0
M  V30 5380 H 503.097 -0.858 -5.93935 0
M  V30 5381 H 504.167 -1.41197 -4.63887 0
M  V30 5382 N 505.51 1.54411 -0.315457 0
M  V30 5383 C 506.473 2.22713 0.54142 0
M  V30 5384 C 507.473 1.2179 1.04995 0
M  V30 5385 O 508.663 1.46426 0.943667 0
M  V30 5386 C 505.795 2.92485 1.75116 0
M  V30 5387 H 506.988 2.99849 -0.0555508 0
M  V30 5388 H 504.541 1.56159 -0.0664453 0
M  V30 5389 H 505.276 2.19466 2.38758 0
M  V30 5390 H 505.061 3.66483 1.39401 0
M  V30 5391 H 506.551 3.44548 2.35959 0
M  V30 5392 N 506.988 0.0434614 1.5754 0
M  V30 5393 C 507.935 -0.93356 2.11077 0
M  V30 5394 C 508.905 -1.31383 1.01626 0
M  V30 5395 O 510.09 -1.40465 1.29129 0
M  V30 5396 C 507.23 -2.20578 2.65404 0
M  V30 5397 C 506.343 -1.88068 3.88914 0
M  V30 5398 C 505.478 -3.09691 4.31584 0
M  V30 5399 C 504.517 -2.73067 5.47815 0
M  V30 5400 N 503.654 -3.87359 5.85574 0
M  V30 5401 H 508.494 -0.470118 2.94268 0
M  V30 5402 H 506.031 -0.220434 1.45439 0
M  V30 5403 H 507.989 -2.95011 2.94999 0
M  V30 5404 H 506.619 -2.64513 1.85021 0
M  V30 5405 H 505.671 -1.03816 3.6596 0
M  V30 5406 H 506.983 -1.57104 4.73413 0
M  V30 5407 H 506.137 -3.92431 4.62691 0
M  V30 5408 H 504.876 -3.43827 3.45882 0
M  V30 5409 H 503.881 -1.88742 5.16388 0
M  V30 5410 H 505.106 -2.40131 6.35227 0
M  V30 5411 H 503.052 -4.21311 5.02825 0
M  V30 5412 H 502.969 -3.60068 6.64746 0
M  V30 5413 H 504.237 -4.70761 6.21292 0
M  V30 5414 N 508.466 -1.55915 -0.229846 0
M  V30 5415 C 509.882 -1.48721 -0.579166 0
M  V30 5416 C 510.082 -0.736976 -1.87539 0
M  V30 5417 O 509.138 -0.273258 -2.51017 0
M  V30 5418 C 510.451 -2.9323 -0.666082 0
M  V30 5419 C 511.999 -3.03701 -0.757267 0
M  V30 5420 C 512.474 -4.49552 -0.8756 0
M  V30 5421 N 513.965 -4.53561 -0.940035 0
M  V30 5422 C 514.7 -5.63683 -1.05116 0
M  V30 5423 N 514.196 -6.83576 -1.12675 0
M  V30 5424 N 515.989 -5.51516 -1.08565 0
M  V30 5425 H 508.14 -2.03123 0.620857 0
M  V30 5426 H 510.403 -0.922898 0.21671 0
M  V30 5427 H 510.109 -3.51032 0.21664 0
M  V30 5428 H 509.983 -3.44668 -1.53243 0
M  V30 5429 H 512.37 -2.45969 -1.63043 0
M  V30 5430 H 512.451 -2.55446 0.134583 0
M  V30 5431 H 512.095 -5.079 -0.00692351 0
M  V30 5432 H 512.025 -4.95506 -1.78274 0
M  V30 5433 H 514.516 -3.67215 -0.892269 0
M  V30 5434 H 514.829 -7.63251 -1.21109 0
M  V30 5435 H 513.174 -6.86303 -1.09603 0
M  V30 5436 H 516.365 -4.5678 -1.02319 0
M  V30 5437 H 516.538 -6.37372 -1.1688 0
M  V30 5438 N 509.944 0.496216 -1.49584 0
M  V30 5439 C 510.891 1.59722 -1.66606 0
M  V30 5440 C 511.861 1.58158 -0.507477 0
M  V30 5441 O 513.046 1.76072 -0.735076 0
M  V30 5442 C 510.186 2.97844 -1.74308 0
M  V30 5443 C 509.299 3.09388 -3.01502 0
M  V30 5444 C 508.434 4.38271 -3.00153 0
M  V30 5445 C 507.473 4.43466 -4.21906 0
M  V30 5446 N 506.61 5.63784 -4.1844 0
M  V30 5447 H 511.45 1.44515 -2.60613 0
M  V30 5448 H 508.987 0.703048 -1.29212 0
M  V30 5449 H 510.945 3.77907 -1.76754 0
M  V30 5450 H 509.575 3.11743 -0.837619 0
M  V30 5451 H 508.627 2.22357 -3.08645 0
M  V30 5452 H 509.939 3.09085 -3.91494 0
M  V30 5453 H 509.093 5.2666 -3.01188 0
M  V30 5454 H 507.832 4.41146 -2.07947 0
M  V30 5455 H 506.837 3.53478 -4.21109 0
M  V30 5456 H 508.062 4.42303 -5.1531 0
M  V30 5457 H 506.008 5.67491 -3.29074 0
M  V30 5458 H 505.925 5.65118 -5.02173 0
M  V30 5459 H 507.193 6.54367 -4.23585 0
M  V30 5460 N 511.423 1.38739 0.74761 0
M  V30 5461 C 512.834 1.31507 1.32524 0
M  V30 5462 C 513.185 -0.0263963 1.96182 0
M  V30 5463 O 512.31 -0.92849 1.95469 0
M  V30 5464 C 512.905 2.38162 2.40966 0
M  V30 5465 C 511.464 2.34489 2.94434 0
M  V30 5466 C 510.611 2.20712 1.67873 0
M  V30 5467 H 513.562 1.4901 0.546043 0
M  V30 5468 H 513.583 2.04222 3.21051 0
M  V30 5469 H 513.095 3.35783 1.94605 0
M  V30 5470 H 511.196 1.40467 3.45108 0
M  V30 5471 H 511.309 3.28861 3.48407 0
M  V30 5472 H 509.673 1.67667 1.91729 0
M  V30 5473 H 510.456 3.20285 1.23582 0
M  V30 5474 N 512.901 -0.976442 1.23707 0
M  V30 5475 C 514.312 -1.53284 1.06587 0
M  V30 5476 C 514.663 -1.92765 -0.365526 0
M  V30 5477 O 513.788 -1.7645 -1.25277 0
M  V30 5478 C 514.383 -2.78548 1.92864 0
M  V30 5479 C 512.942 -3.30574 1.79994 0
M  V30 5480 C 512.089 -2.03538 1.88328 0
M  V30 5481 H 515.04 -0.795692 1.37311 0
M  V30 5482 H 515.061 -3.5155 1.45577 0
M  V30 5483 H 514.573 -2.49782 2.97037 0
M  V30 5484 H 512.674 -3.64211 0.786202 0
M  V30 5485 H 512.787 -4.00065 2.636 0
M  V30 5486 H 511.151 -2.17853 1.31954 0
M  V30 5487 H 511.934 -1.77149 2.94063 0
M  V30 5488 N 514.379 -1.04941 -1.1758 0
M  V30 5489 C 515.342 -0.652456 -2.19717 0
M  V30 5490 C 516.342 0.294745 -1.58076 0
M  V30 5491 O 517.532 0.0789579 -1.74021 0
M  V30 5492 C 514.664 0.0420712 -3.40874 0
M  V30 5493 H 515.857 -1.55642 -2.5635 0
M  V30 5494 H 513.41 -0.842995 -1.31618 0
M  V30 5495 H 514.145 0.95943 -3.09783 0
M  V30 5496 H 513.93 -0.638844 -3.86861 0
M  V30 5497 H 515.42 0.306 -4.16477 0
M  V30 5498 N 515.857 1.33968 -0.830081 0
M  V30 5499 C 516.79 2.27303 -0.202182 0
M  V30 5500 C 517.768 1.49235 0.645581 0
M  V30 5501 O 518.952 1.78433 0.607762 0
M  V30 5502 C 516.079 3.31025 0.716932 0
M  V30 5503 C 515.125 4.26466 -0.0542271 0
M  V30 5504 S 515.958 5.16707 -1.40622 0
M  V30 5505 C 517.114 6.23962 -0.492167 0
M  V30 5506 H 517.347 2.8021 -0.99346 0
M  V30 5507 H 514.88 1.41124 -0.626359 0
M  V30 5508 H 516.838 3.91271 1.24165 0
M  V30 5509 H 515.499 2.76951 1.4818 0
M  V30 5510 H 514.692 4.99858 0.644785 0
M  V30 5511 H 514.294 3.7051 -0.509722 0
M  V30 5512 H 516.586 6.76774 0.31347 0
M  V30 5513 H 517.529 6.97927 -1.19599 0
M  V30 5514 H 517.937 5.64447 -0.0774176 0
M  V30 5515 N 517.335 0.585699 1.46312 0
M  V30 5516 C 518.583 0.072278 2.01971 0
M  V30 5517 C 518.904 -1.29345 1.45928 0
M  V30 5518 O 518.174 -1.84973 0.645109 0
M  V30 5519 H 516.754 0.023729 0.746623 0
M  V30 5520 H 519.416 0.762155 1.7938 0
M  V30 5521 H 518.512 0.00552767 3.121 0
M  V30 5522 N 518.813 -1.54241 0.323641 0
M  V30 5523 C 519.745 -2.21836 -0.576311 0
M  V30 5524 C 520.758 -1.21837 -1.07979 0
M  V30 5525 O 521.947 -1.48306 -0.99336 0
M  V30 5526 C 519.047 -2.86923 -1.80356 0
M  V30 5527 C 518.22 -4.1306 -1.43875 0
M  V30 5528 C 517.279 -4.6174 -2.52353 0
M  V30 5529 O 516.305 -5.26421 -2.16494 0
M  V30 5530 N 517.507 -4.35974 -3.83284 0
M  V30 5531 H 520.272 -2.997 0.00247987 0
M  V30 5532 H 517.833 -1.61233 0.146848 0
M  V30 5533 H 519.825 -3.16414 -2.52318 0
M  V30 5534 H 518.395 -2.12765 -2.29019 0
M  V30 5535 H 517.615 -3.90334 -0.550752 0
M  V30 5536 H 518.903 -4.95148 -1.17071 0
M  V30 5537 H 518.301 -3.84203 -4.15216 0
M  V30 5538 H 516.858 -4.70119 -4.51477 0
M  V30 5539 N 520.291 -0.0518155 -1.57515 0
M  V30 5540 C 521.254 0.907547 -2.10467 0
M  V30 5541 C 522.254 1.23947 -1.02439 0
M  V30 5542 O 523.444 1.17604 -1.2851 0
M  V30 5543 C 520.576 2.21723 -2.58944 0
M  V30 5544 H 521.769 0.44851 -2.96527 0
M  V30 5545 H 519.322 0.196598 -1.55059 0
M  V30 5546 H 520.057 2.72206 -1.76279 0
M  V30 5547 H 519.842 1.98935 -3.37886 0
M  V30 5548 H 521.332 2.90441 -3.00056 0
M  V30 5549 N 521.769 1.56035 0.221574 0
M  V30 5550 C 523.18 1.69229 0.788567 0
M  V30 5551 C 523.531 0.653814 1.84986 0
M  V30 5552 O 522.656 -0.195065 2.15519 0
M  V30 5553 C 523.251 3.06809 1.43713 0
M  V30 5554 C 521.81 3.21858 1.95152 0
M  V30 5555 C 520.957 2.65155 0.811685 0
M  V30 5556 H 523.908 1.587 -0.00307894 0
M  V30 5557 H 523.929 3.02666 2.30594 0
M  V30 5558 H 523.441 3.82369 0.664475 0
M  V30 5559 H 521.542 2.51167 2.7522 0
M  V30 5560 H 521.655 4.29073 2.1315 0
M  V30 5561 H 520.019 2.23635 1.21899 0
M  V30 5562 H 520.802 3.43261 0.0516987 0
M  V30 5563 N 523.247 -0.488276 1.49845 0
M  V30 5564 C 524.658 -1.06955 1.53028 0
M  V30 5565 C 525.009 -1.9351 0.323797 0
M  V30 5566 O 524.134 -2.08891 -0.565116 0
M  V30 5567 C 524.729 -1.94643 2.77307 0
M  V30 5568 C 523.288 -2.4791 2.83227 0
M  V30 5569 C 522.435 -1.25833 2.47106 0
M  V30 5570 H 525.386 -0.271626 1.56358 0
M  V30 5571 H 525.407 -2.79496 2.5819 0
M  V30 5572 H 524.919 -1.31621 3.65099 0
M  V30 5573 H 523.02 -3.14535 1.99745 0
M  V30 5574 H 523.133 -2.84193 3.85709 0
M  V30 5575 H 521.497 -1.58764 1.99163 0
M  V30 5576 H 522.28 -0.644993 3.37186 0
M  V30 5577 N 524.725 -1.39134 -0.740242 0
M  V30 5578 C 525.688 -1.37217 -1.83587 0
M  V30 5579 C 526.688 -0.270221 -1.58513 0
M  V30 5580 O 527.878 -0.527843 -1.6601 0
M  V30 5581 C 525.01 -1.13959 -3.21288 0
M  V30 5582 H 526.203 -2.34705 -1.86691 0
M  V30 5583 H 523.756 -1.24622 -0.94335 0
M  V30 5584 H 524.491 -0.17131 -3.23847 0
M  V30 5585 H 524.276 -1.93754 -3.40884 0
M  V30 5586 H 525.766 -1.15346 -4.01354 0
M  V30 5587 N 526.204 0.969867 -1.24223 0
M  V30 5588 C 527.432 1.74756 -1.10761 0
M  V30 5589 C 527.847 1.85713 0.340041 0
M  V30 5590 O 527.204 1.34389 1.23474 0
M  V30 5591 C 527.255 3.16915 -1.73917 0
M  V30 5592 O 526.976 3.06511 -3.13021 0
M  V30 5593 C 528.477 4.11032 -1.66036 0
M  V30 5594 H 525.697 0.548092 -0.387087 0
M  V30 5595 H 528.241 1.2178 -1.64286 0
M  V30 5596 H 526.396 3.66884 -1.244 0
M  V30 5597 H 526.81 3.96079 -3.43834 0
M  V30 5598 H 528.284 5.08446 -2.14911 0
M  V30 5599 H 528.761 4.34785 -0.621159 0
M  V30 5600 H 529.367 3.66972 -2.14969 0
M  V30 5601 N 527.682 1.05563 1.17022 0
M  V30 5602 C 528.63 0.653887 2.2322 0
M  V30 5603 C 529.624 -0.326642 1.66221 0
M  V30 5604 O 530.83 -0.192301 1.7897 0
M  V30 5605 H 527.205 0.193297 0.726733 0
M  V30 5606 H 529.176 1.5596 2.54399 0
M  V30 5607 C 527.925 0.0485434 3.47666 0
M  V30 5608 H 527.248 0.79413 3.91834 0
M  V30 5609 H 528.688 -0.195133 4.23551 0
M  V30 5610 C 527.147 -1.20583 3.14581 0
M  V30 5611 O 527.677 -2.29475 3.29703 0
M  V30 5612 N 525.883 -1.10493 2.68774 0
M  V30 5613 H 525.43 -0.218795 2.56669 0
M  V30 5614 H 525.388 -1.94507 2.47011 0
M  V30 5615 N 529.16 -1.33526 0.837174 0
M  V30 5616 C 530.07 -2.33023 0.271568 0
M  V30 5617 C 531.086 -1.63272 -0.601514 0
M  V30 5618 O 532.262 -1.94939 -0.506038 0
M  V30 5619 C 529.327 -3.42382 -0.545448 0
M  V30 5620 C 528.388 -4.27857 0.351709 0
M  V30 5621 C 527.621 -5.31994 -0.426409 0
M  V30 5622 O 527.844 -5.45763 -1.65828 0
M  V30 5623 O 526.778 -6.01572 0.1987 0
M  V30 5624 H 530.604 -2.83256 1.09545 0
M  V30 5625 H 528.189 -1.36837 0.599655 0
M  V30 5626 H 530.071 -4.09122 -1.00979 0
M  V30 5627 H 528.746 -2.94369 -1.34641 0
M  V30 5628 H 527.653 -3.6399 0.863853 0
M  V30 5629 H 528.986 -4.79349 1.1174 0
M  V30 5630 N 530.638 -0.59345 -1.46 0
M  V30 5631 C 531.57 0.171569 -2.28557 0
M  V30 5632 C 532.583 0.845273 -1.39137 0
M  V30 5633 O 533.772 0.713033 -1.6364 0
M  V30 5634 C 530.872 1.26311 -3.14482 0
M  V30 5635 C 530.045 0.679258 -4.32094 0
M  V30 5636 C 529.104 1.65987 -4.99334 0
M  V30 5637 O 528.13 1.19171 -5.56585 0
M  V30 5638 N 529.332 2.99414 -4.97324 0
M  V30 5639 H 532.097 -0.536771 -2.94854 0
M  V30 5640 H 529.658 -0.431954 -1.56031 0
M  V30 5641 H 531.65 1.91863 -3.5633 0
M  V30 5642 H 530.22 1.87416 -2.50188 0
M  V30 5643 H 529.44 -0.153992 -3.93899 0
M  V30 5644 H 530.728 0.26916 -5.08088 0
M  V30 5645 H 530.126 3.40064 -4.52076 0
M  V30 5646 H 528.683 3.60426 -5.4308 0
M  V30 5647 N 532.116 1.54067 -0.331816 0
M  V30 5648 C 533.063 2.24623 0.530372 0
M  V30 5649 C 534.033 1.24009 1.10503 0
M  V30 5650 O 535.218 1.52712 1.14384 0
M  V30 5651 C 532.358 3.01374 1.68129 0
M  V30 5652 C 531.471 4.16821 1.13507 0
M  V30 5653 C 530.606 4.81085 2.25234 0
M  V30 5654 C 529.645 5.88621 1.67903 0
M  V30 5655 N 528.782 6.46713 2.73326 0
M  V30 5656 H 533.622 2.97898 -0.0778607 0
M  V30 5657 H 531.159 1.47014 -0.0501965 0
M  V30 5658 H 533.117 3.44125 2.35868 0
M  V30 5659 H 531.747 2.30419 2.26069 0
M  V30 5660 H 530.799 3.78796 0.348979 0
M  V30 5661 H 532.111 4.94203 0.675633 0
M  V30 5662 H 531.265 5.26846 3.00862 0
M  V30 5663 H 530.004 4.03102 2.74518 0
M  V30 5664 H 529.009 5.42254 0.907773 0
M  V30 5665 H 530.234 6.68506 1.19487 0
M  V30 5666 H 528.18 5.71599 3.21886 0
M  V30 5667 H 528.097 7.19532 2.3197 0
M  V30 5668 H 529.365 6.97129 3.48758 0
M  V30 5669 N 533.594 0.0601682 1.57485 0
M  V30 5670 C 534.526 -0.94047 2.09016 0
M  V30 5671 C 535.539 -1.26897 1.01985 0
M  V30 5672 O 536.728 -1.22819 1.29529 0
M  V30 5673 C 533.828 -2.25955 2.52582 0
M  V30 5674 C 533.001 -2.11163 3.83052 0
M  V30 5675 C 532.06 -3.26273 4.12835 0
M  V30 5676 O 531.086 -3.01779 4.82616 0
M  V30 5677 N 532.288 -4.51022 3.65458 0
M  V30 5678 H 535.053 -0.500578 2.9549 0
M  V30 5679 H 532.614 -0.125852 1.6141 0
M  V30 5680 H 534.606 -3.01846 2.69575 0
M  V30 5681 H 533.176 -2.61481 1.71308 0
M  V30 5682 H 532.396 -1.19808 3.75552 0
M  V30 5683 H 533.684 -1.98517 4.68475 0
M  V30 5684 H 533.082 -4.73811 3.09062 0
M  V30 5685 H 531.639 -5.23978 3.87673 0
M  V30 5686 N 535.072 -1.5615 -0.213296 0
M  V30 5687 C 536.488 -1.49327 -0.56336 0
M  V30 5688 C 536.688 -0.756826 -1.86747 0
M  V30 5689 O 535.744 -0.299866 -2.50713 0
M  V30 5690 C 537.057 -2.9392 -0.634944 0
M  V30 5691 C 538.605 -3.04487 -0.725013 0
M  V30 5692 C 539.08 -4.50456 -0.82787 0
M  V30 5693 N 540.571 -4.54533 -0.891876 0
M  V30 5694 C 541.306 -5.64766 -0.991315 0
M  V30 5695 N 540.802 -6.84733 -1.05419 0
M  V30 5696 N 542.595 -5.52637 -1.02709 0
M  V30 5697 H 534.746 -2.02453 0.642366 0
M  V30 5698 H 537.009 -0.920548 0.226487 0
M  V30 5699 H 536.715 -3.50783 0.253859 0
M  V30 5700 H 536.589 -3.46274 -1.49579 0
M  V30 5701 H 538.976 -2.47685 -1.60425 0
M  V30 5702 H 539.057 -2.55289 0.161669 0
M  V30 5703 H 538.701 -5.07878 0.0469464 0
M  V30 5704 H 538.631 -4.97369 -1.73009 0
M  V30 5705 H 541.122 -3.68141 -0.85327 0
M  V30 5706 H 541.435 -7.64493 -1.13007 0
M  V30 5707 H 539.78 -6.87427 -1.02318 0
M  V30 5708 H 542.971 -4.5784 -0.974687 0
M  V30 5709 H 543.144 -6.38576 -1.10113 0
M  V30 5710 N 536.55 0.480323 -1.50102 0
M  V30 5711 C 537.497 1.57946 -1.6829 0
M  V30 5712 C 538.467 1.57611 -0.524223 0
M  V30 5713 O 539.652 1.75282 -0.753709 0
M  V30 5714 C 536.792 2.95978 -1.77457 0
M  V30 5715 C 535.905 3.06173 -3.04766 0
M  V30 5716 C 535.04 4.35063 -3.04784 0
M  V30 5717 C 534.079 4.38966 -4.26586 0
M  V30 5718 N 533.216 5.59314 -4.24396 0
M  V30 5719 H 538.056 1.41743 -2.62131 0
M  V30 5720 H 535.593 0.689304 -1.2995 0
M  V30 5721 H 537.551 3.76011 -1.80752 0
M  V30 5722 H 536.181 3.10837 -0.870637 0
M  V30 5723 H 535.233 2.19071 -3.10986 0
M  V30 5724 H 536.545 3.04916 -3.9475 0
M  V30 5725 H 535.699 5.23436 -3.06757 0
M  V30 5726 H 534.438 4.38915 -2.12614 0
M  V30 5727 H 533.443 3.48992 -4.24835 0
M  V30 5728 H 534.668 4.36813 -5.19972 0
M  V30 5729 H 532.614 5.63969 -3.35074 0
M  V30 5730 H 532.531 5.5976 -5.08138 0
M  V30 5731 H 533.799 6.49837 -4.30502 0
M  V30 5732 N 538.028 1.39524 0.732853 0
M  V30 5733 C 539.253 1.40329 1.52717 0
M  V30 5734 C 539.678 0.000286574 1.881 0
M  V30 5735 O 539.036 -0.987262 1.52062 0
M  V30 5736 C 539.084 2.28464 2.78992 0
M  V30 5737 O 538.188 1.716 3.75003 0
M  V30 5738 H 537.529 0.47778 0.461109 0
M  V30 5739 H 540.059 1.83546 0.903996 0
M  V30 5740 H 540.069 2.43051 3.27705 0
M  V30 5741 H 538.744 3.30425 2.52572 0
M  V30 5742 H 537.321 1.66267 3.33781 0
M  V30 5743 N 539.506 -0.963266 1.24736 0
M  V30 5744 C 540.453 -2.05857 1.04363 0
M  V30 5745 C 541.423 -1.6604 -0.0444951 0
M  V30 5746 O 542.608 -1.90477 0.110999 0
M  V30 5747 C 539.748 -3.38745 0.659235 0
M  V30 5748 C 538.861 -3.9173 1.82131 0
M  V30 5749 C 537.996 -5.12906 1.38208 0
M  V30 5750 C 537.035 -5.58098 2.51382 0
M  V30 5751 N 536.172 -6.7049 2.08295 0
M  V30 5752 H 541.012 -2.22616 1.98107 0
M  V30 5753 H 538.549 -1.09103 0.986661 0
M  V30 5754 H 540.507 -4.15107 0.417371 0
M  V30 5755 H 539.137 -3.21898 -0.241201 0
M  V30 5756 H 538.189 -3.11966 2.17672 0
M  V30 5757 H 539.501 -4.21225 2.67153 0
M  V30 5758 H 538.655 -5.96657 1.09935 0
M  V30 5759 H 537.394 -4.85105 0.502456 0
M  V30 5760 H 536.399 -4.72917 2.80409 0
M  V30 5761 H 537.624 -5.87911 3.39909 0
M  V30 5762 H 535.57 -6.44416 1.22737 0
M  V30 5763 H 535.487 -6.99458 2.86869 0
M  V30 5764 H 536.755 -7.57672 1.83175 0
M  V30 5765 N 540.985 -1.06182 -1.16461 0
M  V30 5766 C 542.213 -0.798583 -1.90867 0
M  V30 5767 C 542.628 0.646921 -1.77371 0
M  V30 5768 O 541.985 1.44279 -1.11758 0
M  V30 5769 C 542.036 -1.18258 -3.4161 0
M  V30 5770 O 541.757 -2.57135 -3.54701 0
M  V30 5771 C 543.258 -0.946917 -4.33069 0
M  V30 5772 H 540.478 -0.289603 -0.605286 0
M  V30 5773 H 543.022 -1.41515 -1.47627 0
M  V30 5774 H 541.177 -0.610562 -3.82558 0
M  V30 5775 H 541.591 -2.72477 -4.4817 0
M  V30 5776 H 543.065 -1.26523 -5.37304 0
M  V30 5777 H 543.542 0.117406 -4.39043 0
M  V30 5778 H 544.148 -1.50326 -3.97847 0
M  V30 5779 N 542.463 1.3308 -0.844243 0
M  V30 5780 C 543.411 2.31028 -0.269954 0
M  V30 5781 C 544.405 1.58381 0.600997 0
M  V30 5782 O 545.611 1.73203 0.48996 0
M  V30 5783 H 541.986 0.748866 -0.0685782 0
M  V30 5784 H 543.957 2.76967 -1.11049 0
M  V30 5785 C 542.706 3.43549 0.535676 0
M  V30 5786 H 542.029 3.99604 -0.125202 0
M  V30 5787 H 543.469 4.14267 0.903262 0
M  V30 5788 C 541.928 2.8988 1.71672 0
M  V30 5789 O 542.458 2.86511 2.81557 0
M  V30 5790 N 540.664 2.46416 1.54037 0
M  V30 5791 H 540.211 2.49356 0.64649 0
M  V30 5792 H 540.169 2.1086 2.33207 0
M  V30 5793 N 543.941 0.601185 1.45683 0
M  V30 5794 C 545.189 0.0936957 2.01883 0
M  V30 5795 C 545.51 -1.2779 1.47291 0
M  V30 5796 O 544.78 -1.84279 0.664691 0
M  V30 5797 H 543.36 0.0316466 0.746329 0
M  V30 5798 H 546.022 0.781137 1.78562 0
M  V30 5799 H 545.118 0.0386297 3.12076 0
M  V30 5800 N 545.419 -1.53889 0.339982 0
M  V30 5801 C 546.382 -2.23547 -0.50592 0
M  V30 5802 C 547.382 -1.23445 -1.03044 0
M  V30 5803 O 548.572 -1.47909 -0.920253 0
M  V30 5804 C 545.704 -2.95234 -1.7044 0
M  V30 5805 H 546.897 -2.99722 0.103247 0
M  V30 5806 H 544.45 -1.56033 0.0912804 0
M  V30 5807 H 545.185 -2.23236 -2.35236 0
M  V30 5808 H 544.97 -3.68654 -1.33553 0
M  V30 5809 H 546.46 -3.48258 -2.30447 0
M  V30 5810 N 546.897 -0.0685191 -1.57451 0
M  V30 5811 C 547.807 0.914677 -2.16034 0
M  V30 5812 C 548.823 1.32938 -1.12265 0
M  V30 5813 O 549.999 1.40275 -1.44516 0
M  V30 5814 C 547.064 2.16519 -2.70777 0
M  V30 5815 C 546.125 1.80721 -3.89408 0
M  V30 5816 C 545.358 2.9981 -4.41531 0
M  V30 5817 O 545.581 4.13727 -3.92666 0
M  V30 5818 O 544.515 2.79817 -5.32903 0
M  V30 5819 H 548.341 0.446364 -3.00402 0
M  V30 5820 H 545.926 0.154367 -1.486 0
M  V30 5821 H 547.808 2.89856 -3.05878 0
M  V30 5822 H 546.483 2.62454 -1.89471 0
M  V30 5823 H 545.39 1.04646 -3.59166 0
M  V30 5824 H 546.723 1.39571 -4.71997 0
M  V30 5825 N 548.375 1.56261 0.205012 0
M  V30 5826 C 549.323 1.94631 1.27364 0
M  V30 5827 C 550.317 0.830434 1.47649 0
M  V30 5828 O 551.523 1.01538 1.48627 0
M  V30 5829 H 547.898 0.618755 0.427371 0
M  V30 5830 H 549.869 2.83768 0.922941 0
M  V30 5831 C 548.618 2.29358 2.61324 0
M  V30 5832 H 547.941 3.14744 2.46528 0
M  V30 5833 H 549.381 2.60076 3.34868 0
M  V30 5834 C 547.84 1.12461 3.17575 0
M  V30 5835 O 548.37 0.394407 3.99759 0
M  V30 5836 N 546.576 0.904036 2.7618 0
M  V30 5837 H 546.123 1.49956 2.09454 0
M  V30 5838 H 546.081 0.123662 3.14157 0
M  V30 5839 N 549.853 -0.472356 1.50355 0
M  V30 5840 C 550.763 -1.59637 1.7191 0
M  V30 5841 C 551.779 -1.63247 0.602195 0
M  V30 5842 O 552.955 -1.81139 0.880369 0
M  V30 5843 C 550.02 -2.9586 1.80742 0
M  V30 5844 C 549.081 -3.02649 3.04471 0
M  V30 5845 C 548.314 -4.32374 3.12872 0
M  V30 5846 O 548.537 -5.22807 2.28099 0
M  V30 5847 O 547.471 -4.44728 4.05587 0
M  V30 5848 H 551.297 -1.44373 2.67189 0
M  V30 5849 H 548.882 -0.651717 1.34436 0
M  V30 5850 H 550.764 -3.7677 1.88739 0
M  V30 5851 H 549.439 -3.11325 0.88647 0
M  V30 5852 H 548.346 -2.20821 3.01975 0
M  V30 5853 H 549.679 -2.92119 3.9614 0
M  V30 5854 N 551.331 -1.39911 -0.725443 0
M  V30 5855 C 552.559 -1.40949 -1.51463 0
M  V30 5856 C 552.974 -0.0065242 -1.88799 0
M  V30 5857 O 552.331 0.967163 -1.54765 0
M  V30 5858 C 552.382 -2.29119 -2.79619 0
M  V30 5859 O 552.103 -3.63952 -2.43866 0
M  V30 5860 C 553.604 -2.38642 -3.73584 0
M  V30 5861 H 550.824 -0.481091 -0.467752 0
M  V30 5862 H 553.368 -1.83843 -0.895651 0
M  V30 5863 H 551.523 -1.89612 -3.37826 0
M  V30 5864 H 551.937 -4.10677 -3.26258 0
M  V30 5865 H 553.411 -3.04563 -4.60375 0
M  V30 5866 H 553.888 -1.40846 -4.16004 0
M  V30 5867 H 554.494 -2.78659 -3.21293 0
M  V30 5868 N 552.809 0.956637 -1.25245 0
M  V30 5869 C 554.22 1.51569 -1.09012 0
M  V30 5870 C 554.571 1.93322 0.334813 0
M  V30 5871 O 553.696 1.78421 1.22454 0
M  V30 5872 C 554.291 2.75444 -1.97271 0
M  V30 5873 C 552.85 3.27669 -1.8523 0
M  V30 5874 C 551.997 2.00517 -1.91542 0
M  V30 5875 H 554.948 0.773746 -1.3856 0
M  V30 5876 H 554.969 3.4919 -1.51151 0
M  V30 5877 H 554.481 2.45024 -3.00973 0
M  V30 5878 H 552.582 3.62914 -0.844045 0
M  V30 5879 H 552.695 3.9582 -2.69932 0
M  V30 5880 H 551.059 2.15727 -1.35404 0
M  V30 5881 H 551.842 1.72448 -2.96844 0
M  V30 5882 N 554.287 1.06798 1.15896 0
M  V30 5883 C 555.512 0.808739 1.90982 0
M  V30 5884 C 555.937 -0.6316 1.77179 0
M  V30 5885 O 555.295 -1.4407 1.10061 0
M  V30 5886 C 555.343 1.21468 3.39526 0
M  V30 5887 O 554.447 0.356562 4.10856 0
M  V30 5888 H 553.788 0.29512 0.594811 0
M  V30 5889 H 556.318 1.42513 1.46804 0
M  V30 5890 H 556.328 1.18844 3.90308 0
M  V30 5891 H 555.003 2.26379 3.48891 0
M  V30 5892 H 553.58 0.444808 3.70238 0
M  V30 5893 N 555.766 -1.3263 0.851289 0
M  V30 5894 C 556.991 -2.02097 0.466006 0
M  V30 5895 C 557.416 -1.63574 -0.928709 0
M  V30 5896 O 556.774 -0.834665 -1.60944 0
M  V30 5897 C 556.822 -3.55425 0.608737 0
M  V30 5898 O 555.926 -4.10827 -0.359878 0
M  V30 5899 H 555.267 -0.636911 0.187724 0
M  V30 5900 H 557.797 -1.69253 1.14955 0
M  V30 5901 H 557.807 -4.04986 0.495006 0
M  V30 5902 H 556.482 -3.82806 1.62581 0
M  V30 5903 H 555.059 -3.72349 -0.202666 0
M  V30 5904 N 557.244 -0.608902 -1.45362 0
M  V30 5905 C 558.492 -0.104401 -2.0183 0
M  V30 5906 C 558.813 1.27007 -1.47967 0
M  V30 5907 O 558.083 1.83924 -0.674455 0
M  V30 5908 H 556.663 -0.0356042 -0.746151 0
M  V30 5909 H 559.325 -0.790596 -1.78145 0
M  V30 5910 H 558.421 -0.0551793 -3.12051 0
M  V30 5911 N 558.722 1.53707 -0.348139 0
M  V30 5912 C 559.67 2.26671 0.521808 0
M  V30 5913 C 560.664 1.28988 1.09811 0
M  V30 5914 O 561.87 1.4668 1.04332 0
M  V30 5915 H 558.245 0.728387 0.186968 0
M  V30 5916 H 560.216 2.98176 -0.115563 0
M  V30 5917 C 558.965 3.05591 1.6586 0
M  V30 5918 H 558.288 3.80589 1.22443 0
M  V30 5919 H 559.728 3.59851 2.24239 0
M  V30 5920 C 558.187 2.15366 2.59073 0
M  V30 5921 O 558.717 1.7528 3.61441 0
M  V30 5922 N 556.923 1.80352 2.27863 0
M  V30 5923 H 556.47 2.13149 1.44656 0
M  V30 5924 H 556.428 1.20268 2.90488 0
M  V30 5925 N 560.2 0.0768682 1.57412 0
M  V30 5926 C 561.428 -0.59997 1.9801 0
M  V30 5927 C 561.843 -1.62842 0.955408 0
M  V30 5928 O 561.2 -1.8241 -0.057314 0
M  V30 5929 C 561.251 -1.26401 3.38681 0
M  V30 5930 O 560.972 -0.276723 4.37225 0
M  V30 5931 C 562.473 -2.0282 3.94182 0
M  V30 5932 H 559.693 -0.162239 0.651091 0
M  V30 5933 H 562.237 0.150771 2.03943 0
M  V30 5934 H 560.392 -1.96581 3.33819 0
M  V30 5935 H 560.806 -0.753744 5.19056 0
M  V30 5936 H 562.28 -2.44667 4.94815 0
M  V30 5937 H 562.757 -2.88678 3.31001 0
M  V30 5938 H 563.363 -1.37496 4.02461 0
M  V30 5939 N 561.678 -1.56367 -0.196722 0
M  V30 5940 C 562.588 -1.97617 -1.2643 0
M  V30 5941 C 563.604 -0.883598 -1.49895 0
M  V30 5942 O 564.78 -1.18921 -1.62541 0
M  V30 5943 C 561.845 -2.30595 -2.58895 0
M  V30 5944 C 560.906 -3.53551 -2.43516 0
M  V30 5945 C 560.139 -3.84946 -3.69665 0
M  V30 5946 O 560.362 -3.17655 -4.73763 0
M  V30 5947 O 559.296 -4.78379 -3.65291 0
M  V30 5948 H 563.122 -2.88648 -0.944233 0
M  V30 5949 H 560.707 -1.43901 -0.401592 0
M  V30 5950 H 562.589 -2.52889 -3.37083 0
M  V30 5951 H 561.264 -1.42732 -2.90533 0
M  V30 5952 H 560.171 -3.36507 -1.63445 0
M  V30 5953 H 561.504 -4.41875 -2.16812 0
M  V30 5954 N 563.156 0.464375 -1.50603 0
M  V30 5955 C 564.086 1.56944 -1.72889 0
M  V30 5956 C 565.067 1.59979 -0.577997 0
M  V30 5957 O 566.252 1.76138 -0.817855 0
M  V30 5958 C 563.382 2.95225 -1.8292 0
M  V30 5959 C 562.336 3.07056 -2.98162 0
M  V30 5960 C 561.662 4.47051 -2.93343 0
M  V30 5961 C 562.962 2.83648 -4.38567 0
M  V30 5962 H 564.656 1.38547 -2.65415 0
M  V30 5963 H 562.202 0.665082 -1.27721 0
M  V30 5964 H 564.155 3.72467 -1.97095 0
M  V30 5965 H 562.879 3.14793 -0.870209 0
M  V30 5966 H 561.538 2.32248 -2.83648 0
M  V30 5967 H 561.186 4.63547 -1.95276 0
M  V30 5968 H 560.886 4.55902 -3.70712 0
M  V30 5969 H 562.41 5.26304 -3.09575 0
M  V30 5970 H 563.824 3.50636 -4.53572 0
M  V30 5971 H 562.221 3.03937 -5.17438 0
M  V30 5972 H 563.291 1.79451 -4.50472 0
M  V30 5973 N 564.634 1.40294 0.718013 0
M  V30 5974 C 565.581 1.40367 1.8321 0
M  V30 5975 C 566.551 0.260952 1.64037 0
M  V30 5976 O 567.736 0.458648 1.85205 0
M  V30 5977 C 564.876 1.26965 3.20895 0
M  V30 5978 C 563.989 2.50922 3.51656 0
M  V30 5979 C 563.124 2.29981 4.78834 0
M  V30 5980 C 562.163 3.49527 5.02491 0
M  V30 5981 N 561.3 3.27796 6.20882 0
M  V30 5982 H 566.14 2.35593 1.82482 0
M  V30 5983 H 563.677 1.17012 0.891444 0
M  V30 5984 H 565.635 1.17202 4.00399 0
M  V30 5985 H 564.265 0.353591 3.20858 0
M  V30 5986 H 563.317 2.71223 2.66725 0
M  V30 5987 H 564.629 3.39913 3.65048 0
M  V30 5988 H 563.783 2.17558 5.66351 0
M  V30 5989 H 562.522 1.38411 4.67647 0
M  V30 5990 H 561.527 3.6243 4.1343 0
M  V30 5991 H 562.752 4.42021 5.15553 0
M  V30 5992 H 560.698 2.38906 6.1095 0
M  V30 5993 H 560.615 4.10351 6.34939 0
M  V30 5994 H 561.883 3.19101 7.11193 0
M  V30 5995 N 566.112 -0.949982 1.2575 0
M  V30 5996 C 567.389 -1.6718 1.01539 0
M  V30 5997 C 567.769 -2.06095 -0.456942 0
M  V30 5998 O 567.117 -1.77792 -1.43534 0
M  V30 5999 C 567.327 -2.8906 1.95564 0
M  V30 6000 C 568.675 -3.60909 2.23673 0
M  V30 6001 O 569.699 -2.9915 1.9336 0
M  V30 6002 O 568.558 -4.72127 2.75243 0
M  V30 6003 H 565.652 -0.731697 0.385419 0
M  V30 6004 H 568.198 -1.00249 1.36924 0
M  V30 6005 H 566.97 -2.57128 2.94959 0
M  V30 6006 H 566.593 -3.63719 1.60605 0
M  V30 6007 N 567.59 -1.07411 -1.15328 0
M  V30 6008 C 568.818 -0.818782 -1.90009 0
M  V30 6009 C 569.233 0.628072 -1.78047 0
M  V30 6010 O 568.59 1.43085 -1.13282 0
M  V30 6011 C 568.641 -1.21874 -3.40337 0
M  V30 6012 O 568.362 -2.60883 -3.51954 0
M  V30 6013 C 569.863 -0.992796 -4.3204 0
M  V30 6014 H 567.083 -0.296007 -0.60218 0
M  V30 6015 H 569.627 -1.43073 -1.46117 0
M  V30 6016 H 567.782 -0.651103 -3.81889 0
M  V30 6017 H 568.196 -2.77216 -4.45255 0
M  V30 6018 H 569.67 -1.32215 -5.35932 0
M  V30 6019 H 570.147 0.0708331 -4.39143 0
M  V30 6020 H 570.753 -1.54537 -3.9623 0
M  V30 6021 N 569.068 1.32177 -0.85831 0
M  V30 6022 C 570.031 2.27086 -0.310588 0
M  V30 6023 C 571.031 1.51751 0.531806 0
M  V30 6024 O 572.221 1.70794 0.34279 0
M  V30 6025 C 569.353 3.36266 0.560179 0
M  V30 6026 H 570.546 2.77045 -1.1483 0
M  V30 6027 H 568.099 1.42911 -0.632942 0
M  V30 6028 H 568.834 2.9158 1.41956 0
M  V30 6029 H 568.619 3.92077 -0.0428473 0
M  V30 6030 H 570.109 4.06974 0.936056 0
M  V30 6031 N 570.547 0.616602 1.45037 0
M  V30 6032 C 571.958 0.199359 1.85633 0
M  V30 6033 C 572.309 -1.24588 1.51566 0
M  V30 6034 O 571.434 -1.94594 0.94668 0
M  V30 6035 C 572.029 0.355033 3.36935 0
M  V30 6036 C 570.588 -0.00758748 3.76399 0
M  V30 6037 C 569.735 0.675256 2.68953 0
M  V30 6038 H 572.686 0.822708 1.3571 0
M  V30 6039 H 572.707 -0.410201 3.78282 0
M  V30 6040 H 572.219 1.40699 3.61698 0
M  V30 6041 H 570.32 -1.05837 3.57252 0
M  V30 6042 H 570.433 0.392346 4.77491 0
M  V30 6043 H 568.797 0.111992 2.54454 0
M  V30 6044 H 569.58 1.72952 2.96551 0
M  V30 6045 N 572.025 -1.5352 0.356285 0
M  V30 6046 C 572.988 -2.24071 -0.482182 0
M  V30 6047 C 573.988 -1.24531 -1.01729 0
M  V30 6048 O 575.178 -1.48876 -0.904513 0
M  V30 6049 C 572.31 -2.97025 -1.67299 0
M  V30 6050 H 573.503 -2.99596 0.135031 0
M  V30 6051 H 571.056 -1.55928 0.107825 0
M  V30 6052 H 571.791 -2.25719 -2.32855 0
M  V30 6053 H 571.576 -3.7005 -1.29636 0
M  V30 6054 H 573.066 -3.50683 -2.26741 0
M  V30 6055 N 573.503 -0.0852151 -1.57369 0
M  V30 6056 C 574.433 0.874556 -2.16503 0
M  V30 6057 C 575.414 1.30111 -1.09568 0
M  V30 6058 O 576.599 1.36977 -1.37662 0
M  V30 6059 C 573.729 2.13731 -2.73745 0
M  V30 6060 C 572.683 1.84971 -3.85966 0
M  V30 6061 C 572.009 3.17991 -4.29867 0
M  V30 6062 C 573.309 1.14442 -5.09608 0
M  V30 6063 H 575.003 0.381899 -2.96954 0
M  V30 6064 H 572.549 0.18225 -1.42842 0
M  V30 6065 H 574.502 2.81302 -3.13763 0
M  V30 6066 H 573.226 2.65263 -1.90534 0
M  V30 6067 H 571.885 1.19801 -3.46473 0
M  V30 6068 H 571.533 3.6739 -3.4356 0
M  V30 6069 H 571.233 2.99534 -5.05523 0
M  V30 6070 H 572.757 3.86737 -4.72511 0
M  V30 6071 H 574.171 1.72105 -5.46857 0
M  V30 6072 H 572.568 1.06197 -5.90629 0
M  V30 6073 H 573.638 0.12559 -4.84737 0
M  V30 6074 N 574.981 1.5647 0.188427 0
M  V30 6075 C 576.229 1.80655 0.905986 0
M  V30 6076 C 576.55 0.659391 1.83513 0
M  V30 6077 O 575.82 -0.321868 1.93238 0
M  V30 6078 H 574.4 0.666391 0.337538 0
M  V30 6079 H 577.062 1.93949 0.192339 0
M  V30 6080 H 576.158 2.74066 1.49313 0
M  V30 6081 N 576.459 -0.456382 1.50847 0
M  V30 6082 C 577.422 -1.53493 1.70213 0
M  V30 6083 C 578.422 -1.50264 0.572481 0
M  V30 6084 O 579.612 -1.52623 0.839751 0
M  V30 6085 C 576.744 -2.93091 1.741 0
M  V30 6086 H 577.937 -1.37633 2.66453 0
M  V30 6087 H 575.49 -0.683776 1.4055 0
M  V30 6088 H 576.225 -3.14378 0.796063 0
M  V30 6089 H 576.01 -2.9684 2.5618 0
M  V30 6090 H 577.5 -3.71368 1.90987 0
M  V30 6091 N 577.937 -1.40673 -0.710563 0
M  V30 6092 C 578.887 -1.37812 -1.81636 0
M  V30 6093 C 579.871 -0.254853 -1.58869 0
M  V30 6094 O 581.063 -0.494356 -1.69956 0
M  V30 6095 C 578.192 -1.24802 -3.19811 0
M  V30 6096 C 577.278 -2.41931 -3.48325 0
M  V30 6097 N 577.669 -3.67411 -3.47625 0
M  V30 6098 C 575.967 -2.35419 -3.78806 0
M  V30 6099 C 576.668 -4.45008 -3.74623 0
M  V30 6100 N 575.644 -3.74916 -3.93623 0
M  V30 6101 H 579.446 -2.32766 -1.79436 0
M  V30 6102 H 576.96 -1.34516 -0.909909 0
M  V30 6103 H 578.957 -1.20835 -3.99004 0
M  V30 6104 H 577.617 -0.308202 -3.23234 0
M  V30 6105 H 578.628 -4.00503 -3.28356 0
M  V30 6106 H 575.305 -1.4983 -3.89689 0
M  V30 6107 H 576.695 -5.53884 -3.80344 0
M  V30 6108 N 579.415 0.9433 -1.26252 0
M  V30 6109 C 580.64 1.72898 -1.14547 0
M  V30 6110 C 581.065 1.85761 0.295743 0
M  V30 6111 O 580.423 1.3463 1.21427 0
M  V30 6112 C 580.471 3.11471 -1.8171 0
M  V30 6113 O 579.575 3.97336 -1.10445 0
M  V30 6114 H 578.916 0.530555 -0.399259 0
M  V30 6115 H 581.446 1.18159 -1.67032 0
M  V30 6116 H 581.456 3.61872 -1.88449 0
M  V30 6117 H 580.131 3.01425 -2.86558 0
M  V30 6118 H 578.708 3.55788 -1.11666 0
M  V30 6119 N 580.893 1.08022 1.14757 0
M  V30 6120 C 581.823 0.728248 2.21853 0
M  V30 6121 C 582.804 -0.287486 1.67653 0
M  V30 6122 O 583.989 -0.158727 1.9355 0
M  V30 6123 C 581.119 0.132549 3.47047 0
M  V30 6124 C 580.073 1.07619 4.14249 0
M  V30 6125 C 579.399 0.342907 5.33599 0
M  V30 6126 C 580.699 2.41268 4.63235 0
M  V30 6127 H 582.393 1.62365 2.51551 0
M  V30 6128 H 579.939 0.782125 1.20908 0
M  V30 6129 H 581.892 -0.125665 4.21213 0
M  V30 6130 H 580.616 -0.797971 3.16702 0
M  V30 6131 H 579.275 1.31944 3.42033 0
M  V30 6132 H 578.923 -0.59129 4.99513 0
M  V30 6133 H 578.623 0.971955 5.79506 0
M  V30 6134 H 580.147 0.0926538 6.1053 0
M  V30 6135 H 581.561 2.21232 5.28894 0
M  V30 6136 H 579.958 2.9983 5.19829 0
M  V30 6137 H 581.028 3.03079 3.78512 0
M  V30 6138 N 582.371 -1.3172 0.865308 0
M  V30 6139 C 583.301 -2.31109 0.333302 0
M  V30 6140 C 584.282 -1.60148 -0.573301 0
M  V30 6141 O 585.467 -1.87882 -0.491305 0
M  V30 6142 C 582.597 -3.44104 -0.470078 0
M  V30 6143 C 581.551 -4.26623 0.343021 0
M  V30 6144 C 580.877 -5.31482 -0.585756 0
M  V30 6145 C 582.177 -4.98001 1.57456 0
M  V30 6146 H 583.871 -2.75855 1.1638 0
M  V30 6147 H 581.417 -1.3262 0.561069 0
M  V30 6148 H 583.37 -4.12682 -0.852752 0
M  V30 6149 H 582.094 -2.98112 -1.33404 0
M  V30 6150 H 580.753 -3.59707 0.707583 0
M  V30 6151 H 580.401 -4.81741 -1.44686 0
M  V30 6152 H 580.101 -5.87582 -0.0456494 0
M  V30 6153 H 581.625 -6.0292 -0.965375 0
M  V30 6154 H 583.039 -5.59201 1.26359 0
M  V30 6155 H 581.436 -5.63876 2.05339 0
M  V30 6156 H 582.506 -4.25253 2.32997 0
M  V30 6157 N 583.85 -0.624285 -1.44708 0
M  V30 6158 C 585.266 -0.289322 -1.56956 0
M  V30 6159 C 585.466 1.20773 -1.61295 0
M  V30 6160 O 584.522 1.9915 -1.55227 0
M  V30 6161 C 585.835 -0.975215 -2.84447 0
M  V30 6162 C 587.383 -0.952709 -2.98148 0
M  V30 6163 C 587.858 -1.61893 -4.28433 0
M  V30 6164 N 589.349 -1.5852 -4.35231 0
M  V30 6165 C 590.084 -2.06969 -5.34744 0
M  V30 6166 N 589.58 -2.63579 -6.40701 0
M  V30 6167 N 591.373 -1.97638 -5.26209 0
M  V30 6168 H 583.524 -1.59612 -1.40135 0
M  V30 6169 H 585.787 -0.669592 -0.671081 0
M  V30 6170 H 585.493 -2.02999 -2.87201 0
M  V30 6171 H 585.367 -0.508749 -3.73753 0
M  V30 6172 H 587.754 0.093568 -2.94952 0
M  V30 6173 H 587.835 -1.4576 -2.10209 0
M  V30 6174 H 587.479 -2.66463 -4.32389 0
M  V30 6175 H 587.409 -1.08893 -5.15218 0
M  V30 6176 H 589.899 -1.17183 -3.59272 0
M  V30 6177 H 590.213 -2.98298 -7.12908 0
M  V30 6178 H 588.558 -2.67626 -6.41406 0
M  V30 6179 H 591.749 -1.5314 -4.42341 0
M  V30 6180 H 591.922 -2.35708 -6.03611 0
M  V30 6181 N 585.328 1.53329 -0.364422 0
M  V30 6182 C 586.258 2.28627 0.474543 0
M  V30 6183 C 587.239 1.31009 1.08492 0
M  V30 6184 O 588.424 1.59878 1.10239 0
M  V30 6185 C 585.554 3.07465 1.61501 0
M  V30 6186 C 584.508 4.1276 1.13194 0
M  V30 6187 C 583.834 4.79674 2.36255 0
M  V30 6188 C 585.134 5.21847 0.217507 0
M  V30 6189 H 586.828 2.99005 -0.153656 0
M  V30 6190 H 584.374 1.43803 -0.0753406 0
M  V30 6191 H 586.327 3.58889 2.20855 0
M  V30 6192 H 585.051 2.34775 2.27042 0
M  V30 6193 H 583.71 3.62281 0.56109 0
M  V30 6194 H 583.358 4.03557 3.00251 0
M  V30 6195 H 583.058 5.50827 2.04606 0
M  V30 6196 H 584.582 5.33892 2.96297 0
M  V30 6197 H 585.996 5.6878 0.718493 0
M  V30 6198 H 584.393 6.00099 -0.00806408 0
M  V30 6199 H 585.463 4.7921 -0.740653 0
M  V30 6200 N 586.806 0.0935595 1.57322 0
M  V30 6201 C 588.034 -0.578934 1.98635 0
M  V30 6202 C 588.449 -1.61819 0.972626 0
M  V30 6203 O 587.806 -1.82461 -0.0379638 0
M  V30 6204 C 587.857 -1.22802 3.40003 0
M  V30 6205 O 587.578 -0.230334 4.37494 0
M  V30 6206 C 589.079 -1.98627 3.96311 0
M  V30 6207 H 586.299 -0.155324 0.652775 0
M  V30 6208 H 588.843 0.172393 2.03772 0
M  V30 6209 H 586.998 -1.93029 3.35885 0
M  V30 6210 H 587.412 -0.698649 5.19826 0
M  V30 6211 H 588.886 -2.39405 4.97382 0
M  V30 6212 H 589.363 -2.85151 3.34044 0
M  V30 6213 H 589.969 -1.3322 4.03897 0
M  V30 6214 N 588.284 -1.56567 -0.180126 0
M  V30 6215 C 589.214 -1.98753 -1.22553 0
M  V30 6216 C 590.195 -0.86175 -1.46656 0
M  V30 6217 O 591.38 -1.12719 -1.58139 0
M  V30 6218 C 588.51 -2.33988 -2.56645 0
M  V30 6219 C 587.464 -3.49445 -2.47128 0
M  V30 6220 C 586.79 -3.70397 -3.8563 0
M  V30 6221 C 588.09 -4.83171 -1.98352 0
M  V30 6222 H 589.784 -2.86332 -0.874896 0
M  V30 6223 H 587.33 -1.37757 -0.419414 0
M  V30 6224 H 589.283 -2.62097 -3.29974 0
M  V30 6225 H 588.007 -1.43309 -2.93479 0
M  V30 6226 H 586.666 -3.2145 -1.76254 0
M  V30 6227 H 586.314 -2.77023 -4.19842 0
M  V30 6228 H 586.014 -4.48077 -3.80132 0
M  V30 6229 H 587.538 -4.00897 -4.60558 0
M  V30 6230 H 588.952 -5.10213 -2.61449 0
M  V30 6231 H 587.349 -5.64425 -2.03823 0
M  V30 6232 H 588.419 -4.75753 -0.937402 0
M  V30 6233 N 589.762 0.448376 -1.51087 0
M  V30 6234 C 590.725 1.52588 -1.71025 0
M  V30 6235 C 591.725 1.49958 -0.580442 0
M  V30 6236 O 592.915 1.52176 -0.847833 0
M  V30 6237 C 590.047 2.92163 -1.75652 0
M  V30 6238 H 591.24 1.36218 -2.67179 0
M  V30 6239 H 588.793 0.676313 -1.4091 0
M  V30 6240 H 589.528 3.13951 -0.812724 0
M  V30 6241 H 589.313 2.95478 -2.57751 0
M  V30 6242 H 590.803 3.70349 -1.92953 0
M  V30 6243 N 591.24 1.41047 0.703093 0
M  V30 6244 C 592.15 1.44645 1.84703 0
M  V30 6245 C 593.166 0.337778 1.7069 0
M  V30 6246 O 594.342 0.584327 1.92737 0
M  V30 6247 C 591.407 1.31928 3.20618 0
M  V30 6248 C 590.468 2.53047 3.46794 0
M  V30 6249 C 589.701 2.40927 4.76224 0
M  V30 6250 O 589.924 1.42978 5.5219 0
M  V30 6251 O 588.858 3.30543 5.03016 0
M  V30 6252 H 592.684 2.41139 1.84624 0
M  V30 6253 H 590.269 1.22504 0.855167 0
M  V30 6254 H 592.151 1.27092 4.01778 0
M  V30 6255 H 590.826 0.385469 3.21397 0
M  V30 6256 H 589.733 2.6346 2.65593 0
M  V30 6257 H 591.066 3.45231 3.50822 0
M  V30 6258 N 592.718 -0.936591 1.26751 0
M  V30 6259 C 593.948 -1.71509 1.15188 0
M  V30 6260 C 594.356 -1.86885 -0.295037 0
M  V30 6261 O 593.699 -1.37915 -1.21347 0
M  V30 6262 C 593.761 -3.13853 1.75318 0
M  V30 6263 C 593.425 -3.21845 3.24445 0
M  V30 6264 C 594.422 -3.04771 4.21201 0
M  V30 6265 C 592.107 -3.45088 3.64992 0
M  V30 6266 C 594.101 -3.10816 5.56482 0
M  V30 6267 C 591.788 -3.50767 5.00405 0
M  V30 6268 C 592.786 -3.33648 5.9596 0
M  V30 6269 O 592.474 -3.39045 7.28906 0
M  V30 6270 H 592.206 -0.543658 0.401761 0
M  V30 6271 H 594.76 -1.18234 1.67958 0
M  V30 6272 H 592.99 -3.6857 1.17016 0
M  V30 6273 H 594.679 -3.73634 1.58596 0
M  V30 6274 H 595.445 -2.86665 3.91214 0
M  V30 6275 H 591.324 -3.57467 2.91098 0
M  V30 6276 H 594.868 -2.97372 6.31043 0
M  V30 6277 H 590.765 -3.68396 5.30052 0
M  V30 6278 H 591.533 -3.55558 7.37238 0
M  V30 6279 N 594.196 -1.08629 -1.14182 0
M  V30 6280 C 595.146 -0.687882 -2.17376 0
M  V30 6281 C 596.13 0.293632 -1.58198 0
M  V30 6282 O 597.322 0.105292 -1.76687 0
M  V30 6283 C 594.451 -0.101184 -3.43151 0
M  V30 6284 C 593.537 -1.10862 -4.09354 0
M  V30 6285 N 593.928 -2.29285 -4.50846 0
M  V30 6286 C 592.226 -0.944897 -4.35876 0
M  V30 6287 C 592.927 -2.93305 -5.02342 0
M  V30 6288 N 591.903 -2.20903 -4.96692 0
M  V30 6289 H 595.705 -1.58963 -2.472 0
M  V30 6290 H 593.219 -0.961329 -1.3089 0
M  V30 6291 H 595.216 0.202209 -4.16409 0
M  V30 6292 H 593.876 0.795522 -3.14804 0
M  V30 6293 H 594.887 -2.66927 -4.43813 0
M  V30 6294 H 591.564 -0.102186 -4.17375 0
M  V30 6295 H 592.954 -3.93932 -5.44304 0
M  V30 6296 N 595.674 1.31259 -0.872281 0
M  V30 6297 C 596.584 2.32221 -0.333255 0
M  V30 6298 C 597.6 1.6481 0.558013 0
M  V30 6299 O 598.776 1.96212 0.454175 0
M  V30 6300 C 595.841 3.43708 0.454479 0
M  V30 6301 C 594.902 4.26774 -0.465024 0
M  V30 6302 C 594.135 5.32937 0.28521 0
M  V30 6303 O 594.358 5.49968 1.513 0
M  V30 6304 O 593.292 6.00834 -0.358126 0
M  V30 6305 H 597.118 2.80252 -1.17016 0
M  V30 6306 H 594.703 1.352 -0.635724 0
M  V30 6307 H 596.585 4.11656 0.900963 0
M  V30 6308 H 595.26 2.97836 1.26789 0
M  V30 6309 H 594.167 3.61571 -0.960055 0
M  V30 6310 H 595.5 4.76217 -1.2441 0
M  V30 6311 N 597.152 0.631951 1.44375 0
M  V30 6312 C 598.084 -0.110911 2.28931 0
M  V30 6313 C 599.097 -0.808086 1.41329 0
M  V30 6314 O 600.286 -0.669396 1.65473 0
M  V30 6315 C 597.386 -1.17928 3.1772 0
M  V30 6316 C 596.559 -0.564458 4.33743 0
M  V30 6317 C 595.618 -1.5269 5.0356 0
M  V30 6318 O 594.644 -1.04372 5.59549 0
M  V30 6319 N 595.846 -2.86123 5.05088 0
M  V30 6320 H 598.611 0.614758 2.93327 0
M  V30 6321 H 596.172 0.473171 1.54831 0
M  V30 6322 H 598.164 -1.82348 3.61291 0
M  V30 6323 H 596.734 -1.80717 2.55069 0
M  V30 6324 H 595.954 0.258373 3.93352 0
M  V30 6325 H 597.242 -0.134355 5.08623 0
M  V30 6326 H 596.64 -3.27959 4.60933 0
M  V30 6327 H 595.197 -3.45901 5.52445 0
M  V30 6328 N 598.631 -1.53133 0.372548 0
M  V30 6329 C 599.541 -2.29671 -0.478379 0
M  V30 6330 C 600.557 -1.35913 -1.08644 0
M  V30 6331 O 601.733 -1.68975 -1.09588 0
M  V30 6332 C 598.798 -3.07625 -1.599 0
M  V30 6333 C 597.859 -4.17061 -1.01776 0
M  V30 6334 C 597.092 -4.91289 -2.08497 0
M  V30 6335 O 597.315 -4.65442 -3.29727 0
M  V30 6336 O 596.249 -5.7705 -1.71164 0
M  V30 6337 H 600.075 -3.03355 0.144649 0
M  V30 6338 H 597.66 -1.48773 0.136729 0
M  V30 6339 H 599.542 -3.56281 -2.25038 0
M  V30 6340 H 598.217 -2.3677 -2.2073 0
M  V30 6341 H 597.124 -3.72641 -0.330098 0
M  V30 6342 H 598.457 -4.90102 -0.453915 0
M  V30 6343 N 600.109 -0.101901 -1.5727 0
M  V30 6344 C 601.019 0.868647 -2.17926 0
M  V30 6345 C 602.035 1.30527 -1.1506 0
M  V30 6346 O 603.211 1.37178 -1.47459 0
M  V30 6347 C 600.276 2.10727 -2.75309 0
M  V30 6348 C 599.337 1.7242 -3.93154 0
M  V30 6349 C 598.57 2.90377 -4.47791 0
M  V30 6350 O 598.793 4.05305 -4.01353 0
M  V30 6351 O 597.727 2.6845 -5.38719 0
M  V30 6352 H 601.553 0.382544 -3.01281 0
M  V30 6353 H 599.138 0.122812 -1.48894 0
M  V30 6354 H 601.02 2.83303 -3.11958 0
M  V30 6355 H 599.695 2.58376 -1.94996 0
M  V30 6356 H 598.602 0.970039 -3.61305 0
M  V30 6357 H 599.935 1.29528 -4.74851 0
M  V30 6358 N 601.587 1.56661 0.17182 0
M  V30 6359 C 602.836 1.81158 0.886831 0
M  V30 6360 C 603.149 0.679072 1.83434 0
M  V30 6361 O 604.355 0.808964 2.59168 0
M  V30 6362 C 602.811 3.20999 1.6275 0
M  V30 6363 C 602.419 4.42117 0.723652 0
M  V30 6364 C 604.163 3.5479 2.33076 0
M  V30 6365 C 602.07 5.7298 1.46452 0
M  V30 6366 H 601 0.675543 0.334899 0
M  V30 6367 H 603.651 1.82967 0.139765 0
M  V30 6368 H 602.033 3.13506 2.4193 0
M  V30 6369 H 603.207 4.60789 -0.0311485 0
M  V30 6370 H 601.522 4.16197 0.130063 0
M  V30 6371 H 604.119 4.49806 2.89099 0
M  V30 6372 H 604.462 2.79646 3.08389 0
M  V30 6373 H 604.995 3.63834 1.6084 0
M  V30 6374 H 601.734 6.51152 0.753729 0
M  V30 6375 H 601.254 5.58285 2.19266 0
M  V30 6376 H 602.933 6.14916 2.01214 0
M  V30 6377 N 603.065 -0.440357 1.51323 0
M  V30 6378 C 604.312 -1.19004 1.63842 0
M  V30 6379 C 604.64 -1.91266 0.35321 0
M  V30 6380 O 603.895 -1.84143 -0.662565 0
M  V30 6381 C 604.194 -2.2339 2.78984 0
M  V30 6382 C 603.86 -1.68162 4.18369 0
M  V30 6383 C 602.522 -1.52823 4.56288 0
M  V30 6384 C 604.874 -1.27524 5.05358 0
M  V30 6385 C 602.202 -0.953157 5.78906 0
M  V30 6386 C 604.554 -0.714474 6.28552 0
M  V30 6387 C 603.218 -0.547961 6.65247 0
M  V30 6388 H 602.488 -0.435468 0.59954 0
M  V30 6389 H 605.135 -0.481538 1.85347 0
M  V30 6390 H 603.44 -3.00267 2.51688 0
M  V30 6391 H 605.137 -2.81211 2.85869 0
M  V30 6392 H 601.727 -1.81077 3.8847 0
M  V30 6393 H 605.911 -1.38197 4.76671 0
M  V30 6394 H 601.167 -0.811882 6.05986 0
M  V30 6395 H 605.341 -0.391059 6.95301 0
M  V30 6396 H 602.968 -0.100222 7.60134 0
M  V30 6397 N 604.543 -1.41418 -0.695603 0
M  V30 6398 C 605.49 -1.43264 -1.80954 0
M  V30 6399 C 606.46 -0.287016 -1.63601 0
M  V30 6400 O 607.645 -0.488054 -1.84452 0
M  V30 6401 C 604.785 -1.32054 -3.18835 0
M  V30 6402 C 603.898 -2.56485 -3.4762 0
M  V30 6403 C 603.033 -2.3757 -4.75115 0
M  V30 6404 C 602.072 -3.57477 -4.96867 0
M  V30 6405 N 601.209 -3.37632 -6.15588 0
M  V30 6406 H 606.049 -2.38467 -1.78711 0
M  V30 6407 H 603.586 -1.18415 -0.872715 0
M  V30 6408 H 605.544 -1.23558 -3.98484 0
M  V30 6409 H 604.174 -0.404592 -3.20254 0
M  V30 6410 H 603.226 -2.75432 -2.62376 0
M  V30 6411 H 604.538 -3.45678 -3.59594 0
M  V30 6412 H 603.692 -2.2654 -5.62818 0
M  V30 6413 H 602.431 -1.45834 -4.65386 0
M  V30 6414 H 601.436 -3.68961 -4.07612 0
M  V30 6415 H 602.661 -4.50167 -5.08455 0
M  V30 6416 H 600.607 -2.48596 -6.07072 0
M  V30 6417 H 600.524 -4.20401 -6.2833 0
M  V30 6418 H 601.792 -3.30375 -7.06026 0
M  V30 6419 N 606.021 0.929856 -1.27246 0
M  V30 6420 C 606.951 2.04722 -1.12299 0
M  V30 6421 C 607.932 1.70082 -0.0250464 0
M  V30 6422 O 609.117 1.93176 -0.199141 0
M  V30 6423 C 606.247 3.38721 -0.767145 0
M  V30 6424 C 605.201 3.87466 -1.81808 0
M  V30 6425 C 604.527 5.18246 -1.31626 0
M  V30 6426 C 605.827 4.11095 -3.22177 0
M  V30 6427 H 607.521 2.17485 -2.05769 0
M  V30 6428 H 605.067 1.04503 -0.990715 0
M  V30 6429 H 607.02 4.16366 -0.649413 0
M  V30 6430 H 605.744 3.25967 0.203259 0
M  V30 6431 H 604.403 3.12012 -1.92468 0
M  V30 6432 H 604.051 5.01881 -0.335378 0
M  V30 6433 H 603.751 5.51829 -2.01887 0
M  V30 6434 H 605.275 5.98462 -1.21143 0
M  V30 6435 H 606.689 4.79316 -3.1453 0
M  V30 6436 H 605.086 4.55982 -3.90129 0
M  V30 6437 H 606.156 3.16468 -3.67391 0
M  V30 6438 N 607.499 1.09233 1.13605 0
M  V30 6439 C 608.915 0.82163 1.36826 0
M  V30 6440 C 609.115 -0.565021 1.93416 0
M  V30 6441 O 608.171 -1.32026 2.15234 0
M  V30 6442 C 609.484 1.91124 2.32147 0
M  V30 6443 C 611.032 1.93824 2.45767 0
M  V30 6444 C 611.507 3.01923 3.44393 0
M  V30 6445 N 612.998 3.01149 3.51942 0
M  V30 6446 C 613.733 3.81434 4.2813 0
M  V30 6447 N 613.229 4.71621 5.07489 0
M  V30 6448 N 615.022 3.69702 4.23411 0
M  V30 6449 H 607.173 1.98633 0.752234 0
M  V30 6450 H 609.436 0.862482 0.393482 0
M  V30 6451 H 609.142 2.90862 1.97717 0
M  V30 6452 H 609.016 1.78777 3.32142 0
M  V30 6453 H 611.403 0.94726 2.79483 0
M  V30 6454 H 611.484 2.10248 1.45703 0
M  V30 6455 H 611.128 4.01232 3.11408 0
M  V30 6456 H 611.058 2.82742 4.44257 0
M  V30 6457 H 613.549 2.35789 2.95317 0
M  V30 6458 H 613.862 5.29468 5.62924 0
M  V30 6459 H 612.207 4.75658 5.06729 0
M  V30 6460 H 615.398 2.98606 3.60489 0
M  V30 6461 H 615.571 4.32509 4.82535 0
M  V30 6462 N 608.977 -1.30795 0.87923 0
M  V30 6463 C 609.907 -2.30742 0.357796 0
M  V30 6464 C 610.888 -1.60747 -0.556283 0
M  V30 6465 O 612.073 -1.88393 -0.47135 0
M  V30 6466 C 609.203 -3.44583 -0.433555 0
M  V30 6467 C 608.157 -4.26235 0.388251 0
M  V30 6468 C 607.483 -5.32073 -0.529352 0
M  V30 6469 C 608.783 -4.96303 1.62729 0
M  V30 6470 H 610.477 -2.74605 1.19299 0
M  V30 6471 H 608.023 -1.32017 0.575104 0
M  V30 6472 H 609.976 -4.13563 -0.808934 0
M  V30 6473 H 608.7 -2.99511 -1.30234 0
M  V30 6474 H 607.359 -3.58936 0.745695 0
M  V30 6475 H 607.007 -4.83249 -1.39569 0
M  V30 6476 H 606.707 -5.87598 0.0166741 0
M  V30 6477 H 608.231 -6.0391 -0.901373 0
M  V30 6478 H 609.645 -5.5783 1.32283 0
M  V30 6479 H 608.042 -5.61666 2.11309 0
M  V30 6480 H 609.112 -4.22758 2.37494 0
M  V30 6481 N 610.455 -0.639598 -1.44038 0
M  V30 6482 C 611.703 -0.147188 -2.01563 0
M  V30 6483 C 612.024 1.2384 -1.50628 0
M  V30 6484 O 611.294 1.82452 -0.713316 0
M  V30 6485 H 609.874 -0.0514231 -0.745228 0
M  V30 6486 H 612.536 -0.828205 -1.76428 0
M  V30 6487 H 611.632 -0.121358 -3.11864 0
M  V30 6488 N 611.933 1.52934 -0.380664 0
M  V30 6489 C 612.883 2.22989 0.475399 0
M  V30 6490 C 613.867 1.23058 1.03661 0
M  V30 6491 O 615.059 1.48436 0.964146 0
M  V30 6492 C 612.188 3.0338 1.60671 0
M  V30 6493 C 611.274 4.107 1.05766 0
M  V30 6494 N 611.665 5.05264 0.232837 0
M  V30 6495 C 609.963 4.25676 1.33101 0
M  V30 6496 C 610.664 5.81658 -0.0695134 0
M  V30 6497 N 609.64 5.40989 0.532144 0
M  V30 6498 H 613.442 2.93456 -0.161418 0
M  V30 6499 H 610.956 1.61291 -0.189495 0
M  V30 6500 H 612.953 3.52098 2.23232 0
M  V30 6501 H 611.613 2.34446 2.24644 0
M  V30 6502 H 612.624 5.17739 -0.129204 0
M  V30 6503 H 609.301 3.6797 1.97241 0
M  V30 6504 H 610.691 6.67843 -0.737269 0
M  V30 6505 N 613.412 0.11024 1.57214 0
M  V30 6506 C 614.342 -0.840002 2.17867 0
M  V30 6507 C 615.323 -1.28352 1.11624 0
M  V30 6508 O 616.508 -1.3477 1.39824 0
M  V30 6509 C 613.638 -2.09349 2.77111 0
M  V30 6510 C 612.592 -1.78807 3.8886 0
M  V30 6511 C 611.918 -3.11112 4.34872 0
M  V30 6512 C 613.218 -1.0632 5.11364 0
M  V30 6513 H 614.912 -0.334608 2.97524 0
M  V30 6514 H 612.458 -0.159502 1.43114 0
M  V30 6515 H 614.411 -2.76275 3.18198 0
M  V30 6516 H 613.135 -2.62198 1.9473 0
M  V30 6517 H 611.794 -1.14273 3.48335 0
M  V30 6518 H 611.442 -3.61877 3.49362 0
M  V30 6519 H 611.142 -2.91453 5.10224 0
M  V30 6520 H 612.666 -3.79171 4.78604 0
M  V30 6521 H 614.08 -1.63383 5.49526 0
M  V30 6522 H 612.477 -0.967876 5.92243 0
M  V30 6523 H 613.547 -0.0484569 4.84876 0
M  V30 6524 N 614.89 -1.56749 -0.16351 0
M  V30 6525 C 615.837 -1.97011 -1.2023 0
M  V30 6526 C 616.807 -0.835186 -1.43575 0
M  V30 6527 O 617.992 -1.09594 -1.56185 0
M  V30 6528 C 615.132 -2.34186 -2.53478 0
M  V30 6529 C 614.245 -3.60893 -2.37446 0
M  V30 6530 C 613.38 -3.87245 -3.63614 0
M  V30 6531 C 612.419 -5.07274 -3.42548 0
M  V30 6532 N 611.556 -5.29719 -4.60806 0
M  V30 6533 H 616.396 -2.85562 -0.851958 0
M  V30 6534 H 613.933 -1.41292 -0.409257 0
M  V30 6535 H 615.891 -2.53764 -3.31149 0
M  V30 6536 H 614.521 -1.48736 -2.86492 0
M  V30 6537 H 613.573 -3.49185 -1.50911 0
M  V30 6538 H 614.885 -4.48722 -2.1783 0
M  V30 6539 H 614.039 -4.07232 -4.49719 0
M  V30 6540 H 612.778 -2.97806 -3.86216 0
M  V30 6541 H 611.783 -4.87177 -2.5483 0
M  V30 6542 H 613.008 -5.98251 -3.2136 0
M  V30 6543 H 610.954 -4.43233 -4.83612 0
M  V30 6544 H 610.871 -6.11786 -4.44132 0
M  V30 6545 H 612.139 -5.54192 -5.48171 0
M  V30 6546 N 616.368 0.432326 -1.51554 0
M  V30 6547 C 617.315 1.52512 -1.7323 0
M  V30 6548 C 618.285 1.55863 -0.5741 0
M  V30 6549 O 619.47 1.72796 -0.809093 0
M  V30 6550 C 616.61 2.90183 -1.86783 0
M  V30 6551 C 615.723 2.96322 -3.14352 0
M  V30 6552 C 614.858 4.25147 -3.18471 0
M  V30 6553 C 613.897 4.25172 -4.40335 0
M  V30 6554 N 613.034 5.45529 -4.41975 0
M  V30 6555 H 617.874 1.33332 -2.66508 0
M  V30 6556 H 615.411 0.647613 -1.32077 0
M  V30 6557 H 617.369 3.70071 -1.92623 0
M  V30 6558 H 615.999 3.0791 -0.969087 0
M  V30 6559 H 615.051 2.09066 -3.17798 0
M  V30 6560 H 616.363 2.92203 -4.04251 0
M  V30 6561 H 615.517 5.13411 -3.23255 0
M  V30 6562 H 614.256 4.31929 -2.2647 0
M  V30 6563 H 613.261 3.353 -4.35723 0
M  V30 6564 H 614.486 4.20049 -5.33606 0
M  V30 6565 H 612.432 5.53024 -3.52847 0
M  V30 6566 H 612.349 5.43311 -5.25689 0
M  V30 6567 H 613.617 6.35812 -4.50958 0
M  V30 6568 N 617.846 1.41785 0.688094 0
M  V30 6569 C 618.756 1.46596 1.83158 0
M  V30 6570 C 619.772 0.355862 1.70322 0
M  V30 6571 O 620.948 0.604737 1.92106 0
M  V30 6572 C 618.013 1.35322 3.192 0
M  V30 6573 C 617.074 2.56711 3.4409 0
M  V30 6574 C 616.307 2.45965 4.73642 0
M  V30 6575 O 616.53 1.48827 5.50642 0
M  V30 6576 O 615.464 3.35859 4.99482 0
M  V30 6577 H 619.29 2.43083 1.82056 0
M  V30 6578 H 616.875 1.23404 0.842126 0
M  V30 6579 H 618.757 1.31347 4.00407 0
M  V30 6580 H 617.432 0.419536 3.2097 0
M  V30 6581 H 616.339 2.66262 2.62784 0
M  V30 6582 H 617.672 3.48933 3.47141 0
M  V30 6583 N 619.324 -0.923095 1.27737 0
M  V30 6584 C 620.234 -2.05765 1.12685 0
M  V30 6585 C 621.25 -1.73911 0.0557197 0
M  V30 6586 O 622.426 -1.99674 0.263137 0
M  V30 6587 C 619.491 -3.37804 0.780363 0
M  V30 6588 C 618.552 -3.83326 1.93286 0
M  V30 6589 C 617.785 -5.09064 1.60281 0
M  V30 6590 O 618.008 -5.6809 0.512828 0
M  V30 6591 O 616.942 -5.50071 2.44347 0
M  V30 6592 H 620.768 -2.21378 2.07907 0
M  V30 6593 H 618.353 -1.04299 1.06968 0
M  V30 6594 H 620.235 -4.17097 0.600668 0
M  V30 6595 H 618.91 -3.23387 -0.142291 0
M  V30 6596 H 617.817 -3.049 2.16764 0
M  V30 6597 H 619.15 -4.02292 2.83588 0
M  V30 6598 N 620.802 -1.09834 -1.13024 0
M  V30 6599 C 621.765 -0.745058 -2.16752 0
M  V30 6600 C 622.765 0.227435 -1.59183 0
M  V30 6601 O 623.955 0.0050786 -1.74199 0
M  V30 6602 C 621.087 -0.102543 -3.40746 0
M  V30 6603 H 622.28 -1.66375 -2.49518 0
M  V30 6604 H 619.833 -0.898061 -1.27924 0
M  V30 6605 H 620.568 0.827177 -3.13573 0
M  V30 6606 H 620.353 -0.80235 -3.83803 0
M  V30 6607 H 621.843 0.129082 -4.174 0
M  V30 6608 N 622.28 1.30327 -0.886154 0
M  V30 6609 C 623.19 2.31854 -0.357866 0
M  V30 6610 C 624.206 1.65392 0.540502 0
M  V30 6611 O 625.382 1.96683 0.433339 0
M  V30 6612 C 622.447 3.44171 0.417999 0
M  V30 6613 C 621.508 4.26257 -0.510263 0
M  V30 6614 C 620.741 5.3321 0.228669 0
M  V30 6615 O 620.964 5.51542 1.45458 0
M  V30 6616 O 619.898 6.0042 -0.421832 0
M  V30 6617 H 623.724 2.78995 -1.19982 0
M  V30 6618 H 621.309 1.34518 -0.650028 0
M  V30 6619 H 623.191 4.12588 0.857251 0
M  V30 6620 H 621.866 2.99164 1.23623 0
M  V30 6621 H 620.773 3.60533 -0.99835 0
M  V30 6622 H 622.106 4.74871 -1.29454 0
M  V30 6623 N 623.758 0.647228 1.43697 0
M  V30 6624 C 625.007 0.155552 2.01099 0
M  V30 6625 C 625.32 -1.23569 1.51624 0
M  V30 6626 O 626.526 -1.82226 2.01261 0
M  V30 6627 C 624.982 0.227296 3.59182 0
M  V30 6628 C 624.59 1.62086 4.17651 0
M  V30 6629 C 626.334 -0.207085 4.23995 0
M  V30 6630 C 624.241 1.64685 5.68008 0
M  V30 6631 H 623.171 0.0543895 0.752036 0
M  V30 6632 H 625.822 0.808386 1.64734 0
M  V30 6633 H 624.204 -0.492937 3.9292 0
M  V30 6634 H 625.378 2.36597 3.95422 0
M  V30 6635 H 623.693 2.0007 3.65186 0
M  V30 6636 H 626.29 -0.207426 5.34298 0
M  V30 6637 H 626.633 -1.23742 3.97484 0
M  V30 6638 H 627.166 0.461193 3.95118 0
M  V30 6639 H 623.905 2.65608 5.99277 0
M  V30 6640 H 623.425 0.944914 5.9231 0
M  V30 6641 H 625.104 1.38792 6.31938 0
M  V30 6642 N 625.236 -1.5273 0.388769 0
M  V30 6643 C 626.168 -2.24081 -0.481704 0
M  V30 6644 C 627.181 -1.26307 -1.02715 0
M  V30 6645 O 628.37 -1.52386 -0.929565 0
M  V30 6646 C 625.47 -2.94315 -1.68024 0
M  V30 6647 C 624.643 -4.18791 -1.26226 0
M  V30 6648 C 623.702 -4.72028 -2.32542 0
M  V30 6649 O 622.728 -5.35129 -1.93972 0
M  V30 6650 N 623.93 -4.51838 -3.64448 0
M  V30 6651 H 626.695 -2.9942 0.129591 0
M  V30 6652 H 624.256 -1.60465 0.2151 0
M  V30 6653 H 626.248 -3.26831 -2.38671 0
M  V30 6654 H 624.818 -2.22287 -2.19789 0
M  V30 6655 H 624.038 -3.92318 -0.384703 0
M  V30 6656 H 625.326 -4.99668 -0.959647 0
M  V30 6657 H 624.724 -4.01468 -3.98547 0
M  V30 6658 H 623.281 -4.88845 -4.31131 0
M  V30 6659 N 626.714 -0.118576 -1.57153 0
M  V30 6660 C 627.677 0.817464 -2.14127 0
M  V30 6661 C 628.677 1.1949 -1.07604 0
M  V30 6662 O 629.867 1.12048 -1.33382 0
M  V30 6663 C 626.999 2.10541 -2.68115 0
M  V30 6664 H 628.192 0.322339 -2.98163 0
M  V30 6665 H 625.745 0.130655 -1.55753 0
M  V30 6666 H 626.48 2.64485 -1.87665 0
M  V30 6667 H 626.265 1.84425 -3.4602 0
M  V30 6668 H 627.755 2.77453 -3.12105 0
M  V30 6669 N 628.193 1.56834 0.155195 0
M  V30 6670 C 629.103 2.009 1.21146 0
M  V30 6671 C 630.119 0.923029 1.475 0
M  V30 6672 O 631.295 1.23189 1.59331 0
M  V30 6673 C 628.36 2.37378 2.52691 0
M  V30 6674 C 627.421 3.59883 2.34057 0
M  V30 6675 C 626.654 3.94612 3.59329 0
M  V30 6676 O 626.877 3.30104 4.65175 0
M  V30 6677 O 625.811 4.87895 3.52479 0
M  V30 6678 H 629.637 2.9105 0.867371 0
M  V30 6679 H 627.222 1.44916 0.363298 0
M  V30 6680 H 629.104 2.61737 3.3026 0
M  V30 6681 H 627.779 1.50385 2.86646 0
M  V30 6682 H 626.686 3.40722 1.54465 0
M  V30 6683 H 628.019 4.47468 2.0502 0
M  V30 6684 N 629.671 -0.424282 1.51781 0
M  V30 6685 C 630.601 -1.52305 1.7699 0
M  V30 6686 C 631.582 -1.5839 0.620209 0
M  V30 6687 O 632.767 -1.73908 0.864268 0
M  V30 6688 C 629.897 -2.90271 1.90683 0
M  V30 6689 C 628.851 -2.99043 3.06198 0
M  V30 6690 C 628.177 -4.39116 3.05092 0
M  V30 6691 C 629.477 -2.7192 4.45934 0
M  V30 6692 H 631.171 -1.31461 2.68995 0
M  V30 6693 H 628.717 -0.630985 1.29439 0
M  V30 6694 H 630.67 -3.6711 2.06901 0
M  V30 6695 H 629.394 -3.12376 0.953365 0
M  V30 6696 H 628.053 -2.24646 2.89706 0
M  V30 6697 H 627.701 -4.58207 2.07498 0
M  V30 6698 H 627.401 -4.45912 3.82669 0
M  V30 6699 H 628.925 -5.17911 3.2342 0
M  V30 6700 H 630.339 -3.38487 4.62709 0
M  V30 6701 H 628.736 -2.90111 5.25315 0
M  V30 6702 H 629.806 -1.67445 4.55072 0
M  V30 6703 N 631.149 -1.42148 -0.680565 0
M  V30 6704 C 632.059 -1.47565 -1.82378 0
M  V30 6705 C 633.075 -0.36489 -1.70131 0
M  V30 6706 O 634.251 -0.614916 -1.91783 0
M  V30 6707 C 631.316 -1.37013 -3.18478 0
M  V30 6708 C 630.377 -2.58532 -3.42724 0
M  V30 6709 C 629.61 -2.48473 -4.72331 0
M  V30 6710 O 629.833 -1.51745 -5.49845 0
M  V30 6711 O 628.767 -3.38503 -4.97694 0
M  V30 6712 H 632.593 -2.44045 -1.80764 0
M  V30 6713 H 630.178 -1.23849 -0.835569 0
M  V30 6714 H 632.06 -1.33468 -3.99705 0
M  V30 6715 H 630.735 -0.436552 -3.20743 0
M  V30 6716 H 629.642 -2.67652 -2.61368 0
M  V30 6717 H 630.975 -3.50769 -3.45286 0
M  V30 6718 N 632.627 0.916307 -1.28225 0
M  V30 6719 C 634.043 1.19425 -1.05876 0
M  V30 6720 C 634.243 2.005 0.2005 0
M  V30 6721 O 633.299 2.35806 0.902873 0
M  V30 6722 C 634.612 1.93133 -2.30478 0
M  V30 6723 C 636.16 2.06026 -2.35632 0
M  V30 6724 C 636.635 2.83141 -3.59994 0
M  V30 6725 N 638.126 2.90704 -3.60618 0
M  V30 6726 C 638.861 3.50865 -4.53521 0
M  V30 6727 N 638.357 4.12327 -5.56739 0
M  V30 6728 N 640.15 3.48379 -4.41122 0
M  V30 6729 H 632.301 0.37496 -2.09064 0
M  V30 6730 H 634.564 0.228531 -0.920042 0
M  V30 6731 H 634.27 1.40985 -3.22205 0
M  V30 6732 H 634.144 2.93696 -2.36691 0
M  V30 6733 H 636.531 2.57355 -1.44404 0
M  V30 6734 H 636.612 1.04647 -2.33415 0
M  V30 6735 H 636.256 2.32492 -4.51564 0
M  V30 6736 H 636.186 3.84829 -3.59464 0
M  V30 6737 H 638.677 2.47034 -2.85977 0
M  V30 6738 H 638.99 4.56205 -6.23776 0
M  V30 6739 H 637.335 4.10839 -5.60568 0
M  V30 6740 H 640.526 2.99572 -3.59686 0
M  V30 6741 H 640.699 3.94974 -5.13712 0
M  V30 6742 N 634.105 1.10431 1.1244 0
M  V30 6743 C 635.035 0.775143 2.20258 0
M  V30 6744 C 636.016 -0.25186 1.68225 0
M  V30 6745 O 637.201 -0.117637 1.93843 0
M  V30 6746 C 634.331 0.206133 3.46688 0
M  V30 6747 C 633.285 1.16382 4.11873 0
M  V30 6748 C 632.611 0.456014 5.32752 0
M  V30 6749 C 633.911 2.5104 4.58013 0
M  V30 6750 H 635.605 1.67665 2.4805 0
M  V30 6751 H 633.151 0.807595 1.19222 0
M  V30 6752 H 635.104 -0.036291 4.21384 0
M  V30 6753 H 633.828 -0.730614 3.18323 0
M  V30 6754 H 632.487 1.39169 3.39157 0
M  V30 6755 H 632.135 -0.485203 5.00654 0
M  V30 6756 H 631.835 1.09466 5.77314 0
M  V30 6757 H 633.359 0.222135 6.10196 0
M  V30 6758 H 634.773 2.32401 5.24083 0
M  V30 6759 H 633.17 3.10789 5.13352 0
M  V30 6760 H 634.24 3.11039 3.71998 0
M  V30 6761 N 635.583 -1.29855 0.893053 0
M  V30 6762 C 636.493 -2.31661 0.370157 0
M  V30 6763 C 637.509 -1.65677 -0.531723 0
M  V30 6764 O 638.685 -1.9691 -0.422902 0
M  V30 6765 C 635.75 -3.44388 -0.399741 0
M  V30 6766 C 634.811 -4.2598 0.532861 0
M  V30 6767 C 634.044 -5.33324 -0.200388 0
M  V30 6768 O 634.267 -5.52305 -1.42531 0
M  V30 6769 O 633.201 -6.00188 0.453668 0
M  V30 6770 H 637.027 -2.78354 1.2146 0
M  V30 6771 H 634.612 -1.34171 0.657153 0
M  V30 6772 H 636.494 -4.13037 -0.835358 0
M  V30 6773 H 635.169 -2.99815 -1.22035 0
M  V30 6774 H 634.076 -3.59998 1.01746 0
M  V30 6775 H 635.409 -4.74178 1.3197 0
M  V30 6776 N 637.061 -0.65484 -1.43351 0
M  V30 6777 C 638.477 -0.32255 -1.56307 0
M  V30 6778 C 638.677 1.17324 -1.63821 0
M  V30 6779 O 637.733 1.95813 -1.59417 0
M  V30 6780 C 639.046 -1.03533 -2.82314 0
M  V30 6781 C 640.594 -1.01574 -2.9606 0
M  V30 6782 C 641.069 -1.70945 -4.24902 0
M  V30 6783 N 642.56 -1.67716 -4.3177 0
M  V30 6784 C 643.295 -2.18265 -5.30234 0
M  V30 6785 N 642.791 -2.7711 -6.34966 0
M  V30 6786 N 644.584 -2.08756 -5.21898 0
M  V30 6787 H 636.735 -1.62549 -1.36717 0
M  V30 6788 H 638.998 -0.683676 -0.656727 0
M  V30 6789 H 638.704 -2.09045 -2.8283 0
M  V30 6790 H 638.578 -0.587913 -3.7259 0
M  V30 6791 H 640.965 0.0309834 -2.95084 0
M  V30 6792 H 641.046 -1.50186 -2.07069 0
M  V30 6793 H 640.69 -2.75574 -4.26639 0
M  V30 6794 H 640.62 -1.19797 -5.12793 0
M  V30 6795 H 643.111 -1.24777 -3.56706 0
M  V30 6796 H 643.424 -3.13353 -7.06421 0
M  V30 6797 H 641.769 -2.81171 -6.35585 0
M  V30 6798 H 644.96 -1.62488 -4.38994 0
M  V30 6799 H 645.133 -2.48459 -5.98475 0
M  V30 6800 N 638.539 1.52521 -0.396863 0
M  V30 6801 C 639.785 2.01971 0.183169 0
M  V30 6802 C 640.118 1.2825 1.45827 0
M  V30 6803 O 639.393 0.385179 1.90648 0
M  V30 6804 C 639.676 3.5736 0.443391 0
M  V30 6805 C 639.529 4.41743 -0.84753 0
M  V30 6806 C 640.848 4.22539 1.2308 0
M  V30 6807 H 637.967 0.734119 0.0650976 0
M  V30 6808 H 640.609 1.82519 -0.527918 0
M  V30 6809 H 638.759 3.74066 1.04914 0
M  V30 6810 H 640.431 4.36773 -1.48414 0
M  V30 6811 H 638.674 4.0845 -1.4612 0
M  V30 6812 H 639.345 5.48507 -0.620003 0
M  V30 6813 H 641.821 4.09857 0.718084 0
M  V30 6814 H 640.697 5.31227 1.38162 0
M  V30 6815 H 640.958 3.80675 2.24808 0
M  V30 6816 N 640.017 0.126909 1.57088 0
M  V30 6817 C 641.433 -0.229641 1.57939 0
M  V30 6818 C 641.633 -1.66145 1.1401 0
M  V30 6819 O 640.689 -2.3843 0.831119 0
M  V30 6820 C 642.002 0.0108648 3.00698 0
M  V30 6821 C 643.55 -0.054418 3.12953 0
M  V30 6822 C 644.025 0.158497 4.57726 0
M  V30 6823 N 645.516 0.104735 4.63082 0
M  V30 6824 C 646.251 0.24427 5.72879 0
M  V30 6825 N 645.747 0.440415 6.91399 0
M  V30 6826 N 647.54 0.183286 5.61801 0
M  V30 6827 H 639.691 1.06203 1.83942 0
M  V30 6828 H 641.954 0.418834 0.85046 0
M  V30 6829 H 641.66 1.00102 3.37154 0
M  V30 6830 H 641.534 -0.717512 3.70313 0
M  V30 6831 H 643.921 -1.0351 2.7635 0
M  V30 6832 H 644.002 0.705967 2.45865 0
M  V30 6833 H 643.646 1.13619 4.95028 0
M  V30 6834 H 643.576 -0.62197 5.22914 0
M  V30 6835 H 646.067 -0.0430298 3.77876 0
M  V30 6836 H 646.38 0.537536 7.70928 0
M  V30 6837 H 644.725 0.476488 6.93365 0
M  V30 6838 H 647.916 0.0309561 4.6809 0
M  V30 6839 H 648.089 0.295471 6.47326 0
M  V30 6840 N 641.495 -1.56914 -0.146875 0
M  V30 6841 C 642.443 -1.99224 -1.20053 0
M  V30 6842 C 643.437 -0.884661 -1.44465 0
M  V30 6843 O 644.643 -1.06984 -1.44756 0
M  V30 6844 H 641.018 -0.634191 -0.404112 0
M  V30 6845 H 642.989 -2.86998 -0.816987 0
M  V30 6846 C 641.738 -2.38899 -2.52632 0
M  V30 6847 H 641.061 -3.23677 -2.34677 0
M  V30 6848 H 642.501 -2.72326 -3.24984 0
M  V30 6849 C 640.96 -1.2417 -3.13183 0
M  V30 6850 O 641.49 -0.542503 -3.9802 0
M  V30 6851 N 639.696 -1.00592 -2.72635 0
M  V30 6852 H 639.243 -1.57627 -2.03744 0
M  V30 6853 H 639.201 -0.240174 -3.13481 0
M  V30 6854 N 642.974 0.416227 -1.52004 0
M  V30 6855 C 643.904 1.51365 -1.77795 0
M  V30 6856 C 644.885 1.58059 -0.628601 0
M  V30 6857 O 646.07 1.73447 -0.873478 0
M  V30 6858 C 643.2 2.89256 -1.92219 0
M  V30 6859 C 642.154 2.97415 -3.0778 0
M  V30 6860 C 641.48 4.37492 -3.07417 0
M  V30 6861 C 642.78 2.69551 -4.47369 0
M  V30 6862 H 644.474 1.30033 -2.69688 0
M  V30 6863 H 642.02 0.624112 -1.29772 0
M  V30 6864 H 643.973 3.66008 -2.08845 0
M  V30 6865 H 642.697 3.11866 -0.969917 0
M  V30 6866 H 641.356 2.23107 -2.90893 0
M  V30 6867 H 641.004 4.571 -2.09925 0
M  V30 6868 H 640.704 4.43877 -3.85029 0
M  V30 6869 H 642.228 5.16188 -3.26162 0
M  V30 6870 H 643.642 3.36028 -4.64497 0
M  V30 6871 H 642.039 2.87321 -5.26846 0
M  V30 6872 H 643.109 1.65029 -4.55953 0
M  V30 6873 N 644.452 1.42507 0.673017 0
M  V30 6874 C 645.402 1.4258 1.77919 0
M  V30 6875 C 646.386 0.296885 1.58137 0
M  V30 6876 O 647.578 0.539243 1.68586 0
M  V30 6877 C 644.707 1.33238 3.1639 0
M  V30 6878 C 643.793 2.51081 3.41788 0
M  V30 6879 N 644.184 3.76498 3.37761 0
M  V30 6880 C 642.482 2.4538 3.72431 0
M  V30 6881 C 643.183 4.54784 3.62693 0
M  V30 6882 N 642.159 3.8522 3.83544 0
M  V30 6883 H 645.961 2.37442 1.73201 0
M  V30 6884 H 643.475 1.36881 0.873924 0
M  V30 6885 H 645.472 1.31372 3.9566 0
M  V30 6886 H 644.132 0.393794 3.22303 0
M  V30 6887 H 645.143 4.09068 3.17622 0
M  V30 6888 H 641.82 1.60109 3.85579 0
M  V30 6889 H 643.21 5.63774 3.65525 0
M  V30 6890 N 645.93 -0.909495 1.28709 0
M  V30 6891 C 647.179 -1.65365 1.15487 0
M  V30 6892 C 647.492 -1.93364 -0.294941 0
M  V30 6893 O 648.698 -2.65905 -0.548338 0
M  V30 6894 C 647.154 -2.97923 2.01916 0
M  V30 6895 C 646.762 -2.77556 3.51663 0
M  V30 6896 C 648.506 -3.75814 1.97393 0
M  V30 6897 C 646.413 -4.0578 4.30229 0
M  V30 6898 H 645.343 -0.620323 0.42862 0
M  V30 6899 H 647.994 -1.00894 1.53273 0
M  V30 6900 H 646.376 -3.63552 1.5699 0
M  V30 6901 H 647.55 -2.2058 4.04575 0
M  V30 6902 H 645.865 -2.13072 3.57756 0
M  V30 6903 H 648.462 -4.70866 2.53357 0
M  V30 6904 H 648.805 -4.05277 0.951643 0
M  V30 6905 H 649.338 -3.1701 2.40311 0
M  V30 6906 H 646.077 -3.81488 5.33055 0
M  V30 6907 H 645.597 -4.62351 3.82089 0
M  V30 6908 H 647.276 -4.74004 4.40374 0
M  V30 6909 N 647.408 -1.11026 -1.11852 0
M  V30 6910 C 648.824 -0.843294 -1.35502 0
M  V30 6911 C 649.024 0.534179 -1.9429 0
M  V30 6912 O 648.08 1.28585 -2.17307 0
M  V30 6913 C 649.393 -1.94793 -2.29077 0
M  V30 6914 C 650.941 -1.97709 -2.42652 0
M  V30 6915 C 651.416 -3.07364 -3.39546 0
M  V30 6916 N 652.907 -3.0671 -3.47107 0
M  V30 6917 C 653.642 -3.88197 -4.22008 0
M  V30 6918 N 653.138 -4.79635 -4.99922 0
M  V30 6919 N 654.931 -3.76391 -4.17476 0
M  V30 6920 H 647.082 -1.99805 -0.720538 0
M  V30 6921 H 649.345 -0.868633 -0.379711 0
M  V30 6922 H 649.051 -2.93971 -1.93065 0
M  V30 6923 H 648.925 -1.84039 -3.29256 0
M  V30 6924 H 651.312 -0.991604 -2.77941 0
M  V30 6925 H 651.393 -2.1254 -1.4234 0
M  V30 6926 H 651.037 -4.06136 -3.04985 0
M  V30 6927 H 650.967 -2.89774 -4.39703 0
M  V30 6928 H 653.458 -2.40457 -2.91528 0
M  V30 6929 H 653.771 -5.38357 -5.54429 0
M  V30 6930 H 652.116 -4.8366 -4.99097 0
M  V30 6931 H 655.307 -3.04303 -3.55693 0
M  V30 6932 H 655.48 -4.40131 -4.75593 0
M  V30 6933 N 648.886 1.2938 -0.899927 0
M  V30 6934 C 649.796 2.31462 -0.382437 0
M  V30 6935 C 650.812 1.65956 0.522929 0
M  V30 6936 O 651.988 1.97131 0.412454 0
M  V30 6937 C 649.053 3.44595 0.381472 0
M  V30 6938 C 648.114 4.25692 -0.555444 0
M  V30 6939 C 647.347 5.33422 0.172102 0
M  V30 6940 O 647.57 5.53053 1.396 0
M  V30 6941 O 646.504 5.99939 -0.485491 0
M  V30 6942 H 650.33 2.77706 -1.22934 0
M  V30 6943 H 647.915 1.33821 -0.664259 0
M  V30 6944 H 649.797 4.13474 0.813442 0
M  V30 6945 H 648.472 3.00458 1.20443 0
M  V30 6946 H 647.379 3.59453 -1.03653 0
M  V30 6947 H 648.712 4.73471 -1.34483 0
M  V30 6948 N 650.364 0.662433 1.43002 0
M  V30 6949 C 651.294 -0.00979809 2.33498 0
M  V30 6950 C 652.275 -0.802329 1.49989 0
M  V30 6951 O 653.46 -0.761964 1.78627 0
M  V30 6952 C 650.59 -0.970446 3.33466 0
M  V30 6953 C 649.544 -0.287383 4.27034 0
M  V30 6954 C 648.87 -1.36012 5.17112 0
M  V30 6955 C 650.17 0.82595 5.15728 0
M  V30 6956 H 651.864 0.745959 2.89958 0
M  V30 6957 H 649.41 0.360172 1.39423 0
M  V30 6958 H 651.363 -1.44971 3.95679 0
M  V30 6959 H 650.087 -1.75748 2.75282 0
M  V30 6960 H 648.746 0.17152 3.66199 0
M  V30 6961 H 648.394 -2.13882 4.55262 0
M  V30 6962 H 648.094 -0.908276 5.80538 0
M  V30 6963 H 649.618 -1.84056 5.82199 0
M  V30 6964 H 651.032 0.42845 5.71697 0
M  V30 6965 H 649.429 1.20282 5.87922 0
M  V30 6966 H 650.499 1.68003 4.54866 0
M  V30 6967 N 651.842 -1.52309 0.404946 0
M  V30 6968 C 652.789 -2.26898 -0.422597 0
M  V30 6969 C 653.759 -1.2914 -1.04461 0
M  V30 6970 O 654.944 -1.57996 -1.06967 0
M  V30 6971 C 652.084 -3.09053 -1.53559 0
M  V30 6972 C 651.197 -4.21762 -0.934908 0
M  V30 6973 C 650.332 -4.91283 -2.02025 0
M  V30 6974 C 649.371 -5.95962 -1.39628 0
M  V30 6975 N 648.508 -6.59017 -2.42159 0
M  V30 6976 H 653.348 -2.97188 0.219903 0
M  V30 6977 H 650.885 -1.46607 0.120282 0
M  V30 6978 H 652.843 -3.54987 -2.19181 0
M  V30 6979 H 651.473 -2.40942 -2.14818 0
M  V30 6980 H 650.525 -3.80029 -0.167854 0
M  V30 6981 H 651.837 -4.96864 -0.439073 0
M  V30 6982 H 650.991 -5.40601 -2.75383 0
M  V30 6983 H 649.73 -4.15741 -2.54973 0
M  V30 6984 H 648.735 -5.45968 -0.648023 0
M  V30 6985 H 649.96 -6.73445 -0.874553 0
M  V30 6986 H 647.906 -5.86306 -2.94247 0
M  V30 6987 H 647.823 -7.2978 -1.97376 0
M  V30 6988 H 649.091 -7.12974 -3.15099 0
M  V30 6989 N 653.32 -0.135238 -1.57019 0
M  V30 6990 C 654.736 0.221262 -1.58059 0
M  V30 6991 C 654.936 1.65538 -1.14889 0
M  V30 6992 O 653.992 2.37985 -0.843751 0
M  V30 6993 C 655.305 -0.0268114 -3.00688 0
M  V30 6994 C 656.853 0.0378206 -3.12977 0
M  V30 6995 C 657.328 -0.182769 -4.57635 0
M  V30 6996 N 658.819 -0.129292 -4.6302 0
M  V30 6997 C 659.554 -0.274648 -5.72742 0
M  V30 6998 N 659.05 -0.477075 -6.91155 0
M  V30 6999 N 660.843 -0.213077 -5.61696 0
M  V30 7000 H 652.994 -1.07177 -1.83376 0
M  V30 7001 H 655.257 -0.423338 -0.848227 0
M  V30 7002 H 654.963 -1.01889 -3.36618 0
M  V30 7003 H 654.837 0.697863 -3.70688 0
M  V30 7004 H 657.224 1.02043 -2.76896 0
M  V30 7005 H 657.305 -0.718996 -2.45487 0
M  V30 7006 H 656.949 -1.16243 -4.94419 0
M  V30 7007 H 656.879 0.59423 -5.23237 0
M  V30 7008 H 659.37 0.0229896 -3.77893 0
M  V30 7009 H 659.683 -0.578413 -7.70632 0
M  V30 7010 H 658.028 -0.513252 -6.93102 0
M  V30 7011 H 661.219 -0.0557796 -4.68067 0
M  V30 7012 H 661.392 -0.329796 -6.4716 0
M  V30 7013 N 654.798 1.5699 0.138552 0
M  V30 7014 C 656.047 1.82998 0.848205 0
M  V30 7015 C 656.36 0.717829 1.81952 0
M  V30 7016 O 657.566 0.863756 2.57394 0
M  V30 7017 C 656.022 3.24379 1.55904 0
M  V30 7018 C 655.63 4.43552 0.62971 0
M  V30 7019 C 657.374 3.59654 2.25498 0
M  V30 7020 C 655.281 5.75957 1.34266 0
M  V30 7021 H 654.211 0.682495 0.320495 0
M  V30 7022 H 656.862 1.83222 0.100924 0
M  V30 7023 H 655.244 3.18567 2.35226 0
M  V30 7024 H 656.418 4.6062 -0.128882 0
M  V30 7025 H 654.733 4.16379 0.0417526 0
M  V30 7026 H 657.33 4.55837 2.79493 0
M  V30 7027 H 657.673 2.86124 3.02388 0
M  V30 7028 H 658.206 3.67164 1.53087 0
M  V30 7029 H 654.945 6.52604 0.615441 0
M  V30 7030 H 654.465 5.62811 2.07375 0
M  V30 7031 H 656.144 6.19046 1.88126 0
M  V30 7032 N 656.276 -0.40816 1.52223 0
M  V30 7033 C 657.226 -1.49648 1.72016 0
M  V30 7034 C 658.21 -1.50311 0.574069 0
M  V30 7035 O 659.402 -1.56271 0.831173 0
M  V30 7036 C 656.531 -2.87566 1.87512 0
M  V30 7037 C 655.617 -2.91547 3.07995 0
M  V30 7038 N 656.008 -2.65225 4.30685 0
M  V30 7039 C 654.306 -3.22715 3.07849 0
M  V30 7040 C 655.007 -2.75799 5.12162 0
M  V30 7041 N 653.983 -3.08719 4.4743 0
M  V30 7042 H 657.785 -1.28093 2.64517 0
M  V30 7043 H 655.299 -0.61588 1.50269 0
M  V30 7044 H 657.296 -3.65899 1.99809 0
M  V30 7045 H 655.956 -3.10118 0.962114 0
M  V30 7046 H 656.967 -2.39601 4.59142 0
M  V30 7047 H 653.644 -3.50856 2.26289 0
M  V30 7048 H 655.034 -2.59155 6.1991 0
M  V30 7049 N 657.755 -1.42862 -0.66545 0
M  V30 7050 C 658.703 -1.47319 -1.8 0
M  V30 7051 C 659.697 -0.347963 -1.65788 0
M  V30 7052 O 660.903 -0.521406 -1.72283 0
M  V30 7053 H 657.278 -0.461588 -0.593667 0
M  V30 7054 H 659.249 -2.42876 -1.7336 0
M  V30 7055 C 657.998 -1.40152 -3.18203 0
M  V30 7056 H 657.321 -2.26035 -3.2977 0
M  V30 7057 H 658.761 -1.47331 -3.9758 0
M  V30 7058 C 657.22 -0.117493 -3.36695 0
M  V30 7059 O 657.75 0.826058 -3.93115 0
M  V30 7060 N 655.956 -0.0316218 -2.90583 0
M  V30 7061 H 655.503 -0.800247 -2.44855 0
M  V30 7062 H 655.461 0.826835 -3.03333 0
M  V30 7063 N 659.233 0.902656 -1.29189 0
M  V30 7064 C 660.143 2.03946 -1.15944 0
M  V30 7065 C 661.159 1.738 -0.0833803 0
M  V30 7066 O 662.335 1.9923 -0.29487 0
M  V30 7067 C 659.4 3.36519 -0.834006 0
M  V30 7068 C 658.461 3.80203 -1.9936 0
M  V30 7069 C 657.694 5.06449 -1.68359 0
M  V30 7070 O 657.917 5.67202 -0.603141 0
M  V30 7071 O 656.851 5.46114 -2.53067 0
M  V30 7072 H 660.677 2.18043 -2.11403 0
M  V30 7073 H 658.262 1.02584 -1.08613 0
M  V30 7074 H 660.144 4.16089 -0.666949 0
M  V30 7075 H 658.819 3.23573 0.0908245 0
M  V30 7076 H 657.726 3.01413 -2.21588 0
M  V30 7077 H 659.059 3.97729 -2.89952 0
M  V30 7078 N 660.711 1.11618 1.11262 0
M  V30 7079 C 661.988 0.777876 1.79467 0
M  V30 7080 C 662.368 -0.733774 1.97937 0
M  V30 7081 O 661.716 -1.66443 1.56554 0
M  V30 7082 C 661.926 1.5431 3.13032 0
M  V30 7083 C 663.274 1.72357 3.88044 0
M  V30 7084 O 664.298 1.5075 3.22727 0
M  V30 7085 O 663.157 2.08276 5.05256 0
M  V30 7086 H 660.251 0.282018 0.777428 0
M  V30 7087 H 662.797 1.21971 1.17988 0
M  V30 7088 H 661.569 2.57132 2.94956 0
M  V30 7089 H 661.192 1.09495 3.82226 0
M  V30 7090 N 662.189 -1.289 0.906776 0
M  V30 7091 C 663.137 -2.29477 0.379873 0
M  V30 7092 C 664.131 -1.61068 -0.524747 0
M  V30 7093 O 665.337 -1.75344 -0.406765 0
M  V30 7094 H 661.712 -0.744742 0.10423 0
M  V30 7095 H 663.683 -2.71353 1.24137 0
M  V30 7096 C 662.432 -3.45713 -0.371154 0
M  V30 7097 H 661.755 -3.98551 0.315716 0
M  V30 7098 H 663.195 -4.18105 -0.704581 0
M  V30 7099 C 661.654 -2.9774 -1.57646 0
M  V30 7100 O 662.184 -2.99618 -2.67567 0
M  V30 7101 N 660.39 -2.53485 -1.42105 0
M  V30 7102 H 659.937 -2.52156 -0.526783 0
M  V30 7103 H 659.895 -2.21747 -2.22881 0
M  V30 7104 N 663.667 -0.670007 -1.42649 0
M  V30 7105 C 664.892 -0.196955 -2.06463 0
M  V30 7106 C 665.317 1.1352 -1.49983 0
M  V30 7107 O 664.675 1.705 -0.616397 0
M  V30 7108 C 664.723 -0.137381 -3.60338 0
M  V30 7109 O 663.827 0.895523 -4.02559 0
M  V30 7110 H 663.168 -0.102579 -0.656029 0
M  V30 7111 H 665.698 -0.917669 -1.82866 0
M  V30 7112 H 665.708 0.0403625 -4.0798 0
M  V30 7113 H 664.383 -1.10977 -4.0082 0
M  V30 7114 H 662.96 0.689209 -3.66476 0
M  V30 7115 N 665.145 1.52092 -0.413018 0
M  V30 7116 C 666.077 2.24819 0.445994 0
M  V30 7117 C 667.09 1.27925 1.00692 0
M  V30 7118 O 668.279 1.53845 0.905204 0
M  V30 7119 C 665.379 2.96951 1.6332 0
M  V30 7120 C 664.552 4.20746 1.19548 0
M  V30 7121 C 663.611 4.75668 2.25003 0
M  V30 7122 O 662.637 5.38148 1.85434 0
M  V30 7123 N 663.839 4.57579 3.57214 0
M  V30 7124 H 666.604 2.99176 -0.177209 0
M  V30 7125 H 664.165 1.60102 -0.240601 0
M  V30 7126 H 666.157 3.30586 2.33441 0
M  V30 7127 H 664.727 2.25756 2.16225 0
M  V30 7128 H 663.947 3.92881 0.32224 0
M  V30 7129 H 665.235 5.01132 0.880033 0
M  V30 7130 H 664.633 4.07758 3.92109 0
M  V30 7131 H 663.19 4.95642 4.23299 0
M  V30 7132 N 666.623 0.143563 1.56945 0
M  V30 7133 C 667.87 -0.508407 1.96014 0
M  V30 7134 C 668.198 -1.65099 1.02824 0
M  V30 7135 O 667.453 -1.95618 0.0567764 0
M  V30 7136 C 667.752 -1.05885 3.41355 0
M  V30 7137 C 667.418 -0.0350809 4.50886 0
M  V30 7138 C 666.08 0.246362 4.80569 0
M  V30 7139 C 668.432 0.661282 5.16988 0
M  V30 7140 C 665.76 1.23003 5.73661 0
M  V30 7141 C 668.112 1.63375 6.11139 0
M  V30 7142 C 666.776 1.92292 6.39203 0
M  V30 7143 H 666.046 -0.186039 0.717266 0
M  V30 7144 H 668.693 0.229667 1.90118 0
M  V30 7145 H 666.998 -1.87419 3.44066 0
M  V30 7146 H 668.695 -1.57183 3.6891 0
M  V30 7147 H 665.285 -0.264622 4.27782 0
M  V30 7148 H 669.469 0.457038 4.94191 0
M  V30 7149 H 664.725 1.46056 5.93698 0
M  V30 7150 H 668.899 2.17887 6.61436 0
M  V30 7151 H 666.526 2.68666 7.11142 0
M  V30 7152 N 668.101 -1.57061 -0.130224 0
M  V30 7153 C 669.048 -1.99517 -1.16024 0
M  V30 7154 C 670.018 -0.865452 -1.41771 0
M  V30 7155 O 671.203 -1.12882 -1.53826 0
M  V30 7156 C 668.343 -2.3951 -2.48453 0
M  V30 7157 C 667.456 -3.65848 -2.29737 0
M  V30 7158 C 666.591 -3.9487 -3.55318 0
M  V30 7159 C 665.63 -5.14426 -3.31711 0
M  V30 7160 N 664.767 -5.39375 -4.49466 0
M  V30 7161 H 669.607 -2.87305 -0.791194 0
M  V30 7162 H 667.144 -1.42129 -0.379195 0
M  V30 7163 H 669.102 -2.60731 -3.25692 0
M  V30 7164 H 667.732 -1.54779 -2.83272 0
M  V30 7165 H 666.784 -3.52307 -1.4347 0
M  V30 7166 H 668.096 -4.53241 -2.08263 0
M  V30 7167 H 667.25 -4.16679 -4.4098 0
M  V30 7168 H 665.989 -3.05931 -3.79813 0
M  V30 7169 H 664.994 -4.92473 -2.44439 0
M  V30 7170 H 666.219 -6.04933 -3.08598 0
M  V30 7171 H 664.165 -4.53391 -4.74102 0
M  V30 7172 H 664.082 -6.21069 -4.31055 0
M  V30 7173 H 665.35 -5.65694 -5.36293 0
M  V30 7174 N 669.579 0.400081 -1.52437 0
M  V30 7175 C 670.856 1.15973 -1.57511 0
M  V30 7176 C 671.236 2.0798 -0.361572 0
M  V30 7177 O 670.584 2.19032 0.650929 0
M  V30 7178 C 670.794 1.92912 -2.90837 0
M  V30 7179 C 672.142 2.48662 -3.44169 0
M  V30 7180 O 673.166 2.03081 -2.92637 0
M  V30 7181 O 672.025 3.31894 -4.34176 0
M  V30 7182 H 669.119 0.530023 -0.634827 0
M  V30 7183 H 671.665 0.40613 -1.64769 0
M  V30 7184 H 670.437 1.25564 -3.70607 0
M  V30 7185 H 670.06 2.75257 -2.86913 0
M  V30 7186 N 671.057 1.43213 0.657864 0
M  V30 7187 C 672.007 1.44459 1.76396 0
M  V30 7188 C 672.991 0.313641 1.57814 0
M  V30 7189 O 674.183 0.557094 1.68004 0
M  V30 7190 C 671.312 1.36586 3.14959 0
M  V30 7191 C 670.398 2.54692 3.39106 0
M  V30 7192 N 670.789 3.80059 3.33749 0
M  V30 7193 C 669.087 2.49316 3.69807 0
M  V30 7194 C 669.788 4.58606 3.57849 0
M  V30 7195 N 668.764 3.89267 3.79437 0
M  V30 7196 H 672.566 2.39265 1.70673 0
M  V30 7197 H 670.08 1.378 0.859357 0
M  V30 7198 H 672.077 1.35561 3.94245 0
M  V30 7199 H 670.737 0.427956 3.21867 0
M  V30 7200 H 671.748 4.12414 3.13266 0
M  V30 7201 H 668.425 1.6419 3.83859 0
M  V30 7202 H 669.815 5.67619 3.59525 0
M  V30 7203 N 672.536 -0.895792 1.29666 0
M  V30 7204 C 673.947 -1.46195 1.1612 0
M  V30 7205 C 674.298 -1.94699 -0.242195 0
M  V30 7206 O 673.423 -1.8406 -1.13802 0
M  V30 7207 C 674.018 -2.65718 2.10189 0
M  V30 7208 C 672.577 -3.18458 2.00653 0
M  V30 7209 C 671.724 -1.91149 2.00891 0
M  V30 7210 H 674.675 -0.706756 1.42094 0
M  V30 7211 H 674.696 -3.4158 1.6764 0
M  V30 7212 H 674.208 -2.30386 3.12321 0
M  V30 7213 H 672.309 -3.58474 1.01623 0
M  V30 7214 H 672.422 -3.82491 2.88509 0
M  V30 7215 H 670.786 -2.09021 1.45542 0
M  V30 7216 H 671.569 -1.58089 3.04734 0
M  V30 7217 N 674.014 -1.12206 -1.10668 0
M  V30 7218 C 675.242 -0.898635 -1.86366 0
M  V30 7219 C 675.657 0.551991 -1.80551 0
M  V30 7220 O 675.014 1.38152 -1.19249 0
M  V30 7221 C 675.065 -1.36199 -3.34861 0
M  V30 7222 O 674.786 -2.75576 -3.40573 0
M  V30 7223 C 676.287 -1.17515 -4.2744 0
M  V30 7224 H 673.507 -0.321281 -0.589084 0
M  V30 7225 H 676.051 -1.49142 -1.39918 0
M  V30 7226 H 674.206 -0.81249 -3.78784 0
M  V30 7227 H 674.62 -2.95851 -4.33096 0
M  V30 7228 H 676.094 -1.54827 -5.29842 0
M  V30 7229 H 676.571 -0.115486 -4.39048 0
M  V30 7230 H 677.177 -1.71203 -3.89319 0
M  V30 7231 N 675.492 1.28418 -0.913599 0
M  V30 7232 C 676.422 2.29713 -0.418847 0
M  V30 7233 C 677.403 1.62165 0.513469 0
M  V30 7234 O 678.588 1.89576 0.421235 0
M  V30 7235 C 675.718 3.45612 0.342042 0
M  V30 7236 C 674.672 4.25056 -0.501123 0
M  V30 7237 C 673.998 5.3329 0.388097 0
M  V30 7238 C 675.298 4.91814 -1.75831 0
M  V30 7239 H 676.992 2.71346 -1.26538 0
M  V30 7240 H 674.538 1.30446 -0.609903 0
M  V30 7241 H 676.491 4.15562 0.699 0
M  V30 7242 H 675.215 3.02858 1.22248 0
M  V30 7243 H 673.874 3.56833 -0.840598 0
M  V30 7244 H 673.522 4.8678 1.26707 0
M  V30 7245 H 673.222 5.87347 -0.172459 0
M  V30 7246 H 674.746 6.06088 0.74094 0
M  V30 7247 H 676.16 5.54126 -1.47026 0
M  V30 7248 H 674.557 5.55866 -2.26126 0
M  V30 7249 H 675.627 4.16313 -2.4862 0
M  V30 7250 N 676.97 0.677563 1.42291 0
M  V30 7251 C 677.918 -0.0106755 2.32598 0
M  V30 7252 C 678.912 -0.787643 1.49975 0
M  V30 7253 O 680.118 -0.695295 1.66029 0
M  V30 7254 H 676.493 -0.0222482 0.751671 0
M  V30 7255 H 678.464 0.768312 2.88339 0
M  V30 7256 C 677.213 -0.946142 3.3458 0
M  V30 7257 H 676.536 -0.357701 3.98197 0
M  V30 7258 H 677.976 -1.39634 4.00348 0
M  V30 7259 C 676.435 -2.05383 2.67057 0
M  V30 7260 O 676.965 -3.1406 2.50458 0
M  V30 7261 N 675.171 -1.82635 2.26038 0
M  V30 7262 H 674.718 -0.942534 2.39737 0
M  V30 7263 H 674.676 -2.56937 1.81192 0
M  V30 7264 N 678.448 -1.51871 0.421078 0
M  V30 7265 C 679.725 -1.9447 -0.20993 0
M  V30 7266 C 680.105 -1.35875 -1.61558 0
M  V30 7267 O 679.453 -0.539294 -2.22045 0
M  V30 7268 C 679.663 -3.48402 -0.204165 0
M  V30 7269 C 681.011 -4.2254 -0.417696 0
M  V30 7270 O 682.035 -3.55074 -0.282999 0
M  V30 7271 O 680.894 -5.422 -0.684239 0
M  V30 7272 H 677.988 -0.815283 -0.138718 0
M  V30 7273 H 680.534 -1.62832 0.477884 0
M  V30 7274 H 679.306 -3.83464 0.779183 0
M  V30 7275 H 678.929 -3.86436 -0.935576 0
M  V30 7276 N 679.926 -0.151884 -1.56866 0
M  V30 7277 C 681.342 0.204486 -1.58285 0
M  V30 7278 C 681.542 1.6431 -1.16639 0
M  V30 7279 O 680.598 2.37077 -0.868946 0
M  V30 7280 C 681.911 -0.0587019 -3.00643 0
M  V30 7281 C 683.459 0.00462303 -3.13 0
M  V30 7282 C 683.934 -0.231297 -4.57416 0
M  V30 7283 N 685.425 -0.178394 -4.62856 0
M  V30 7284 C 686.16 -0.335379 -5.72418 0
M  V30 7285 N 685.656 -0.550355 -6.90611 0
M  V30 7286 N 687.449 -0.272641 -5.61438 0
M  V30 7287 H 679.6 -1.09116 -1.82229 0
M  V30 7288 H 681.863 -0.432311 -0.843689 0
M  V30 7289 H 681.569 -1.05453 -3.35518 0
M  V30 7290 H 681.443 0.658508 -3.71407 0
M  V30 7291 H 683.83 0.991009 -2.77962 0
M  V30 7292 H 683.911 -0.744992 -2.44711 0
M  V30 7293 H 683.555 -1.2148 -4.93158 0
M  V30 7294 H 683.485 0.5387 -5.23837 0
M  V30 7295 H 685.976 -0.0170923 -3.77896 0
M  V30 7296 H 686.289 -0.660116 -7.69976 0
M  V30 7297 H 684.634 -0.586736 -6.92519 0
M  V30 7298 H 687.825 -0.105421 -4.67981 0
M  V30 7299 H 687.998 -0.398418 -6.46774 0
M  V30 7300 N 681.404 1.57128 0.121893 0
M  V30 7301 C 682.634 1.88609 0.843227 0
M  V30 7302 C 683.042 0.740917 1.74089 0
M  V30 7303 O 682.385 -0.297426 1.81276 0
M  V30 7304 C 682.447 3.15073 1.73117 0
M  V30 7305 C 682.111 4.45742 1.0081 0
M  V30 7306 C 683.108 5.18719 0.350255 0
M  V30 7307 C 680.793 4.92444 0.99014 0
M  V30 7308 C 682.787 6.36617 -0.315889 0
M  V30 7309 C 680.474 6.10261 0.320196 0
M  V30 7310 C 681.472 6.82194 -0.331666 0
M  V30 7311 O 681.16 7.97769 -0.990927 0
M  V30 7312 H 680.892 0.628919 0.247865 0
M  V30 7313 H 683.446 2.05096 0.111725 0
M  V30 7314 H 681.676 2.9466 2.50424 0
M  V30 7315 H 683.365 3.32597 2.32667 0
M  V30 7316 H 684.131 4.83693 0.35577 0
M  V30 7317 H 680.01 4.36361 1.48695 0
M  V30 7318 H 683.554 6.92701 -0.825272 0
M  V30 7319 H 679.451 6.44743 0.312433 0
M  V30 7320 H 680.219 8.13591 -0.895113 0
M  V30 7321 N 682.882 -0.391992 1.52647 0
M  V30 7322 C 683.812 -1.48517 1.8018 0
M  V30 7323 C 684.793 -1.57039 0.653667 0
M  V30 7324 O 685.978 -1.72036 0.900962 0
M  V30 7325 C 683.108 -2.86161 1.96797 0
M  V30 7326 C 682.062 -2.92481 3.12472 0
M  V30 7327 C 681.388 -4.32546 3.14338 0
M  V30 7328 C 682.688 -2.624 4.51601 0
M  V30 7329 H 684.382 -1.25726 2.71723 0
M  V30 7330 H 681.928 -0.603387 1.30749 0
M  V30 7331 H 683.881 -3.62639 2.14641 0
M  V30 7332 H 682.605 -3.10283 1.01941 0
M  V30 7333 H 681.264 -2.18451 2.94406 0
M  V30 7334 H 680.912 -4.53703 2.1717 0
M  V30 7335 H 680.612 -4.37695 3.92042 0
M  V30 7336 H 682.136 -5.10934 3.34333 0
M  V30 7337 H 683.55 -3.28596 4.69785 0
M  V30 7338 H 681.947 -2.78903 5.3135 0
M  V30 7339 H 683.017 -1.57754 4.58521 0
M  V30 7340 N 684.36 -1.4356 -0.65026 0
M  V30 7341 C 685.29 -1.51758 -1.77459 0
M  V30 7342 C 686.271 -0.372019 -1.65982 0
M  V30 7343 O 687.456 -0.589627 -1.85033 0
M  V30 7344 C 684.586 -1.44302 -3.15902 0
M  V30 7345 C 683.54 -2.57138 -3.42146 0
M  V30 7346 C 682.866 -2.34735 -4.8042 0
M  V30 7347 C 684.166 -3.99373 -3.36598 0
M  V30 7348 H 685.86 -2.45863 -1.70855 0
M  V30 7349 H 683.406 -1.18333 -0.820566 0
M  V30 7350 H 685.359 -1.48641 -3.94314 0
M  V30 7351 H 684.083 -0.467026 -3.23244 0
M  V30 7352 H 682.742 -2.52157 -2.66106 0
M  V30 7353 H 682.39 -1.35372 -4.84441 0
M  V30 7354 H 682.09 -3.10375 -4.9894 0
M  V30 7355 H 683.614 -2.40862 -5.61086 0
M  V30 7356 H 685.028 -4.05826 -4.04942 0
M  V30 7357 H 683.425 -4.75063 -3.66654 0
M  V30 7358 H 684.495 -4.243 -2.34729 0
M  V30 7359 N 685.838 0.888903 -1.30139 0
M  V30 7360 C 686.768 2.01046 -1.18755 0
M  V30 7361 C 687.749 1.69916 -0.0791438 0
M  V30 7362 O 688.934 1.92445 -0.260498 0
M  V30 7363 C 686.064 3.36109 -0.874518 0
M  V30 7364 C 685.018 3.81486 -1.94043 0
M  V30 7365 C 684.344 5.13796 -1.48047 0
M  V30 7366 C 685.644 4.00637 -3.35093 0
M  V30 7367 H 687.338 2.10828 -2.12584 0
M  V30 7368 H 684.884 1.01298 -1.02346 0
M  V30 7369 H 686.837 4.14089 -0.781548 0
M  V30 7370 H 685.561 3.26449 0.0994519 0
M  V30 7371 H 684.22 3.05731 -2.02297 0
M  V30 7372 H 683.868 5.0056 -0.494878 0
M  V30 7373 H 683.568 5.45127 -2.19341 0
M  V30 7374 H 685.092 5.94305 -1.40121 0
M  V30 7375 H 686.506 4.69067 -3.2962 0
M  V30 7376 H 684.903 4.43339 -4.04438 0
M  V30 7377 H 685.973 3.0462 -3.77273 0
M  V30 7378 N 687.317 1.12792 1.10072 0
M  V30 7379 C 688.267 0.768086 2.14673 0
M  V30 7380 C 689.251 -0.234716 1.59179 0
M  V30 7381 O 690.443 -0.039643 1.76956 0
M  V30 7382 C 687.572 0.228472 3.42539 0
M  V30 7383 C 686.658 1.25979 4.04957 0
M  V30 7384 N 687.049 2.4586 4.42025 0
M  V30 7385 C 685.347 1.10602 4.32069 0
M  V30 7386 C 686.048 3.11747 4.9111 0
M  V30 7387 N 685.024 2.39185 4.88151 0
M  V30 7388 H 688.826 1.68029 2.4113 0
M  V30 7389 H 686.34 1.00925 1.27232 0
M  V30 7390 H 688.337 -0.0475216 4.16873 0
M  V30 7391 H 686.997 -0.678136 3.1754 0
M  V30 7392 H 688.008 2.83215 4.33601 0
M  V30 7393 H 684.685 0.257021 4.16708 0
M  V30 7394 H 686.075 4.13862 5.29309 0
M  V30 7395 N 688.795 -1.27931 0.920396 0
M  V30 7396 C 689.725 -2.29487 0.431024 0
M  V30 7397 C 690.706 -1.62435 -0.504861 0
M  V30 7398 O 691.891 -1.89797 -0.411176 0
M  V30 7399 C 689.021 -3.45788 -0.323709 0
M  V30 7400 C 687.975 -4.24784 0.523658 0
M  V30 7401 C 687.301 -5.33488 -0.359809 0
M  V30 7402 C 688.601 -4.90874 1.78437 0
M  V30 7403 H 690.295 -2.70671 1.27975 0
M  V30 7404 H 687.841 -1.30121 0.616813 0
M  V30 7405 H 689.794 -4.15927 -0.676952 0
M  V30 7406 H 688.518 -3.03502 -1.2064 0
M  V30 7407 H 687.177 -3.56382 0.85951 0
M  V30 7408 H 686.825 -4.87445 -1.24124 0
M  V30 7409 H 686.525 -5.87247 0.203605 0
M  V30 7410 H 688.049 -6.06472 -0.708787 0
M  V30 7411 H 689.463 -5.53339 1.49963 0
M  V30 7412 H 687.86 -5.54659 2.29071 0
M  V30 7413 H 688.93 -4.14988 2.50824 0
M  V30 7414 N 690.273 -0.685099 -1.4193 0
M  V30 7415 C 691.203 -0.0273506 -2.33484 0
M  V30 7416 C 692.184 0.778366 -1.51246 0
M  V30 7417 O 693.369 0.733449 -1.79817 0
M  V30 7418 C 690.499 0.917272 -3.34968 0
M  V30 7419 C 689.453 0.21941 -4.27437 0
M  V30 7420 C 688.779 1.27768 -5.1921 0
M  V30 7421 C 690.079 -0.907894 -5.14349 0
M  V30 7422 H 691.773 -0.791994 -2.88735 0
M  V30 7423 H 689.319 -0.382308 -1.38832 0
M  V30 7424 H 691.272 1.38657 -3.97935 0
M  V30 7425 H 689.996 1.71346 -2.78043 0
M  V30 7426 H 688.655 -0.229757 -3.65879 0
M  V30 7427 H 688.303 2.06612 -4.58607 0
M  V30 7428 H 688.003 0.815803 -5.81909 0
M  V30 7429 H 689.527 1.7477 -5.85054 0
M  V30 7430 H 690.941 -0.519348 -5.70943 0
M  V30 7431 H 689.338 -1.2962 -5.85934 0
M  V30 7432 H 690.408 -1.75218 -4.52136 0
M  V30 7433 N 691.751 1.51645 -0.429126 0
M  V30 7434 C 692.999 2.01616 0.139802 0
M  V30 7435 C 693.32 1.31568 1.43927 0
M  V30 7436 O 692.59 0.447688 1.90716 0
M  V30 7437 H 691.17 0.744998 0.054654 0
M  V30 7438 H 693.832 1.8638 -0.569952 0
M  V30 7439 H 692.928 3.10439 0.321609 0
M  V30 7440 N 693.229 0.160201 1.56784 0
M  V30 7441 C 694.645 -0.196089 1.58391 0
M  V30 7442 C 694.845 -1.63689 1.17508 0
M  V30 7443 O 693.901 -2.36613 0.881506 0
M  V30 7444 C 695.214 0.0746449 3.00607 0
M  V30 7445 C 696.762 0.0119762 3.12998 0
M  V30 7446 C 697.237 0.255551 4.57286 0
M  V30 7447 N 698.728 0.202938 4.62755 0
M  V30 7448 C 699.463 0.365731 5.72232 0
M  V30 7449 N 698.959 0.586972 6.90309 0
M  V30 7450 N 700.752 0.302411 5.61286 0
M  V30 7451 H 692.903 1.1008 1.81648 0
M  V30 7452 H 695.166 0.436779 0.841384 0
M  V30 7453 H 694.872 1.07231 3.34954 0
M  V30 7454 H 694.746 -0.638802 3.71751 0
M  V30 7455 H 697.133 -0.976254 2.78484 0
M  V30 7456 H 697.214 0.75796 2.44313 0
M  V30 7457 H 696.858 1.24094 4.92507 0
M  V30 7458 H 696.788 -0.510912 5.24116 0
M  V30 7459 H 699.279 0.0371328 3.77882 0
M  V30 7460 H 699.592 0.700941 7.69615 0
M  V30 7461 H 697.937 0.623453 6.92198 0
M  V30 7462 H 701.128 0.130238 4.67919 0
M  V30 7463 H 701.301 0.432712 6.46554 0
M  V30 7464 N 694.707 -1.5719 -0.113559 0
M  V30 7465 C 695.955 -1.84772 -0.818761 0
M  V30 7466 C 696.276 -0.746196 -1.80158 0
M  V30 7467 O 695.546 0.229305 -1.94553 0
M  V30 7468 H 694.126 -0.681737 -0.305359 0
M  V30 7469 H 696.788 -1.94645 -0.0995845 0
M  V30 7470 H 695.884 -2.80878 -1.36067 0
M  V30 7471 N 696.185 0.383891 -1.52853 0
M  V30 7472 C 697.433 1.12619 -1.67814 0
M  V30 7473 C 697.754 1.90354 -0.423141 0
M  V30 7474 O 697.024 1.87649 0.562554 0
M  V30 7475 H 695.604 0.418738 -0.618601 0
M  V30 7476 H 698.266 0.43495 -1.89985 0
M  V30 7477 H 697.362 1.82624 -2.5309 0
M  V30 7478 N 697.663 1.43903 0.642637 0
M  V30 7479 C 698.91 1.46079 1.40239 0
M  V30 7480 C 699.238 0.0890335 1.94296 0
M  V30 7481 O 698.493 -0.907533 1.73385 0
M  V30 7482 C 698.792 2.45907 2.59354 0
M  V30 7483 C 698.458 3.91522 2.23654 0
M  V30 7484 C 697.12 4.31179 2.1363 0
M  V30 7485 C 699.472 4.83242 1.95261 0
M  V30 7486 C 696.8 5.60495 1.73384 0
M  V30 7487 C 699.152 6.12933 1.56511 0
M  V30 7488 C 697.816 6.51556 1.4502 0
M  V30 7489 H 697.086 0.534542 0.513172 0
M  V30 7490 H 699.733 1.77047 0.72984 0
M  V30 7491 H 698.038 2.08381 3.3179 0
M  V30 7492 H 699.735 2.44842 3.17574 0
M  V30 7493 H 696.325 3.60142 2.32369 0
M  V30 7494 H 700.509 4.53367 2.0192 0
M  V30 7495 H 695.765 5.89249 1.63082 0
M  V30 7496 H 699.939 6.83469 1.33576 0
M  V30 7497 H 697.566 7.51663 1.13606 0
M  V30 7498 N 699.141 -0.881989 1.30609 0
M  V30 7499 C 700.366 -1.67236 1.22665 0
M  V30 7500 C 700.791 -1.8696 -0.206777 0
M  V30 7501 O 700.149 -1.4027 -1.14865 0
M  V30 7502 C 700.197 -3.02446 1.96363 0
M  V30 7503 O 699.301 -3.91614 1.29276 0
M  V30 7504 H 698.642 -0.510902 0.424117 0
M  V30 7505 H 701.172 -1.10055 1.72479 0
M  V30 7506 H 701.182 -3.52468 2.055 0
M  V30 7507 H 699.857 -2.8741 3.00613 0
M  V30 7508 H 698.434 -3.50055 1.28514 0
M  V30 7509 N 700.619 -1.13374 -1.09472 0
M  V30 7510 C 701.529 -0.824029 -2.19652 0
M  V30 7511 C 702.545 0.19118 -1.72947 0
M  V30 7512 O 703.721 0.0223464 -2.01388 0
M  V30 7513 C 700.786 -0.294009 -3.45451 0
M  V30 7514 C 699.847 -1.3704 -4.0684 0
M  V30 7515 C 699.08 -0.86558 -5.26634 0
M  V30 7516 O 699.303 0.29702 -5.69626 0
M  V30 7517 O 698.237 -1.63968 -5.79136 0
M  V30 7518 H 702.063 -1.74454 -2.48595 0
M  V30 7519 H 699.648 -0.911155 -1.18399 0
M  V30 7520 H 701.53 -0.00381039 -4.214 0
M  V30 7521 H 700.205 0.598921 -3.18111 0
M  V30 7522 H 699.112 -1.71391 -3.3253 0
M  V30 7523 H 700.445 -2.23746 -4.38405 0
M  V30 7524 N 702.098 1.27442 -0.927168 0
M  V30 7525 C 703.344 1.94679 -0.568164 0
M  V30 7526 C 703.677 1.72697 0.888219 0
M  V30 7527 O 702.952 1.05573 1.63354 0
M  V30 7528 C 703.235 3.4882 -0.894253 0
M  V30 7529 C 703.088 3.80146 -2.40435 0
M  V30 7530 C 704.407 4.38281 -0.399766 0
M  V30 7531 H 701.526 0.707071 -0.207892 0
M  V30 7532 H 704.168 1.50568 -1.15885 0
M  V30 7533 H 702.318 3.86522 -0.391566 0
M  V30 7534 H 703.99 3.52238 -2.97869 0
M  V30 7535 H 702.233 3.26716 -2.85375 0
M  V30 7536 H 702.904 4.87835 -2.58304 0
M  V30 7537 H 705.38 4.07726 -0.83058 0
M  V30 7538 H 704.256 5.44955 -0.656885 0
M  V30 7539 H 704.517 4.36521 0.700153 0
M  V30 7540 N 703.576 0.692616 1.41565 0
M  V30 7541 C 704.806 0.230943 2.05305 0
M  V30 7542 C 705.214 -1.12379 1.52209 0
M  V30 7543 O 704.557 -1.71281 0.663968 0
M  V30 7544 C 704.619 0.107894 3.59338 0
M  V30 7545 C 704.283 1.39419 4.35214 0
M  V30 7546 C 705.28 2.33143 4.64694 0
M  V30 7547 C 702.965 1.64674 4.74539 0
M  V30 7548 C 704.959 3.50385 5.32456 0
M  V30 7549 C 702.646 2.82202 5.42038 0
M  V30 7550 C 703.644 3.74881 5.70923 0
M  V30 7551 O 703.332 4.90351 6.37033 0
M  V30 7552 H 703.064 0.105708 0.667684 0
M  V30 7553 H 705.618 0.94488 1.82376 0
M  V30 7554 H 703.848 -0.661785 3.80995 0
M  V30 7555 H 705.537 -0.316213 4.04666 0
M  V30 7556 H 706.303 2.14887 4.34797 0
M  V30 7557 H 702.182 0.934007 4.51439 0
M  V30 7558 H 705.726 4.22743 5.54918 0
M  V30 7559 H 701.623 3.00376 5.71353 0
M  V30 7560 H 702.391 4.90128 6.55528 0
M  V30 7561 N 705.054 -1.51416 0.437162 0
M  V30 7562 C 706.001 -2.27743 -0.374374 0
M  V30 7563 C 706.971 -1.31327 -1.01698 0
M  V30 7564 O 708.156 -1.60229 -1.03592 0
M  V30 7565 C 705.296 -3.12241 -1.46969 0
M  V30 7566 C 704.409 -4.23651 -0.845236 0
M  V30 7567 C 703.544 -4.95458 -1.91559 0
M  V30 7568 C 702.583 -5.98789 -1.26956 0
M  V30 7569 N 701.72 -6.64005 -2.28126 0
M  V30 7570 H 706.56 -2.96654 0.282892 0
M  V30 7571 H 704.097 -1.46319 0.151352 0
M  V30 7572 H 706.055 -3.59556 -2.11602 0
M  V30 7573 H 704.685 -2.45445 -2.09659 0
M  V30 7574 H 703.737 -3.803 -0.0872059 0
M  V30 7575 H 705.049 -4.97683 -0.333582 0
M  V30 7576 H 704.203 -5.46321 -2.63854 0
M  V30 7577 H 702.942 -4.21055 -2.46097 0
M  V30 7578 H 701.947 -5.47219 -0.53207 0
M  V30 7579 H 703.172 -6.75149 -0.731509 0
M  V30 7580 H 701.118 -5.92415 -2.81745 0
M  V30 7581 H 701.035 -7.33802 -1.81852 0
M  V30 7582 H 702.303 -7.19498 -2.99905 0
M  V30 7583 N 706.532 -0.168513 -1.56696 0
M  V30 7584 C 707.495 0.748928 -2.16619 0
M  V30 7585 C 708.495 1.16007 -1.11351 0
M  V30 7586 O 709.685 1.07748 -1.3688 0
M  V30 7587 C 706.817 2.01904 -2.74677 0
M  V30 7588 H 708.01 0.227317 -2.99037 0
M  V30 7589 H 705.563 0.0810372 -1.5609 0
M  V30 7590 H 706.298 2.58381 -1.95985 0
M  V30 7591 H 706.083 1.73323 -3.51712 0
M  V30 7592 H 707.573 2.67383 -3.20774 0
M  V30 7593 N 708.01 1.57248 0.105221 0
M  V30 7594 C 709.257 1.8557 0.810552 0
M  V30 7595 C 709.585 0.755595 1.79223 0
M  V30 7596 O 708.84 -0.251788 1.94073 0
M  V30 7597 C 709.139 3.20437 1.58287 0
M  V30 7598 C 708.805 4.44716 0.744235 0
M  V30 7599 C 707.467 4.78458 0.513013 0
M  V30 7600 C 709.819 5.20953 0.160578 0
M  V30 7601 C 707.147 5.8587 -0.311894 0
M  V30 7602 C 709.499 6.29235 -0.651596 0
M  V30 7603 C 708.163 6.615 -0.893005 0
M  V30 7604 H 707.433 0.67905 0.296602 0
M  V30 7605 H 710.08 1.91363 0.0723968 0
M  V30 7606 H 708.385 3.10283 2.39232 0
M  V30 7607 H 710.082 3.39576 2.13282 0
M  V30 7608 H 706.672 4.18287 0.934555 0
M  V30 7609 H 710.856 4.95226 0.3264 0
M  V30 7610 H 706.112 6.09286 -0.508012 0
M  V30 7611 H 710.286 6.87484 -1.11077 0
M  V30 7612 H 707.913 7.44562 -1.53401 0
M  V30 7613 N 709.488 -0.375779 1.53054 0
M  V30 7614 C 710.765 -1.13453 1.59336 0
M  V30 7615 C 711.145 -2.07379 0.394614 0
M  V30 7616 O 710.493 -2.2004 -0.616 0
M  V30 7617 C 710.703 -1.8826 2.93869 0
M  V30 7618 C 712.051 -2.43155 3.48081 0
M  V30 7619 O 713.075 -1.984 2.95831 0
M  V30 7620 O 711.934 -3.24944 4.39401 0
M  V30 7621 H 709.028 -0.519856 0.643179 0
M  V30 7622 H 711.574 -0.379865 1.65394 0
M  V30 7623 H 710.346 -1.19652 3.72558 0
M  V30 7624 H 709.969 -2.70658 2.91256 0
M  V30 7625 N 710.966 -1.44241 -0.634997 0
M  V30 7626 C 711.896 -1.53632 -1.7584 0
M  V30 7627 C 712.877 -0.389603 -1.65578 0
M  V30 7628 O 714.062 -0.609219 -1.84397 0
M  V30 7629 C 711.192 -1.47644 -3.14354 0
M  V30 7630 C 710.146 -2.60752 -3.394 0
M  V30 7631 C 709.472 -2.39817 -4.77904 0
M  V30 7632 C 710.772 -4.02921 -3.32343 0
M  V30 7633 H 712.466 -2.47662 -1.68238 0
M  V30 7634 H 710.012 -1.19197 -0.807969 0
M  V30 7635 H 711.965 -1.52815 -3.92716 0
M  V30 7636 H 710.689 -0.501284 -3.2273 0
M  V30 7637 H 709.348 -2.54965 -2.63417 0
M  V30 7638 H 708.996 -1.40502 -4.82978 0
M  V30 7639 H 708.696 -3.15649 -4.9562 0
M  V30 7640 H 710.22 -2.46799 -5.585 0
M  V30 7641 H 711.634 -4.10098 -4.00615 0
M  V30 7642 H 710.031 -4.78925 -3.61595 0
M  V30 7643 H 711.101 -4.26766 -2.30215 0
M  V30 7644 N 712.444 0.87505 -1.31075 0
M  V30 7645 C 713.672 1.66058 -1.23419 0
M  V30 7646 C 714.087 1.87723 0.201347 0
M  V30 7647 O 713.444 1.43178 1.13165 0
M  V30 7648 C 713.495 3.03142 -1.96945 0
M  V30 7649 O 713.216 2.82448 -3.34895 0
M  V30 7650 C 714.717 3.97583 -1.96067 0
M  V30 7651 H 711.937 0.517868 -0.426677 0
M  V30 7652 H 714.481 1.09258 -1.72867 0
M  V30 7653 H 712.636 3.56645 -1.51271 0
M  V30 7654 H 713.05 3.69483 -3.72267 0
M  V30 7655 H 714.524 4.91104 -2.52034 0
M  V30 7656 H 715.001 4.2898 -0.941961 0
M  V30 7657 H 715.607 3.50015 -2.41597 0
M  V30 7658 N 713.922 1.13953 1.08869 0
M  V30 7659 C 714.832 0.835666 2.19212 0
M  V30 7660 C 715.848 -0.182005 1.73045 0
M  V30 7661 O 717.024 -0.0116661 2.01397 0
M  V30 7662 C 714.089 0.312325 3.4529 0
M  V30 7663 C 713.15 1.39196 4.06107 0
M  V30 7664 C 712.383 0.893496 5.26168 0
M  V30 7665 O 712.606 -0.266807 5.69776 0
M  V30 7666 O 711.54 1.67037 5.78258 0
M  V30 7667 H 715.366 1.75769 2.47667 0
M  V30 7668 H 712.951 0.917421 1.17914 0
M  V30 7669 H 714.833 0.0261582 4.21392 0
M  V30 7670 H 713.508 -0.582042 3.18424 0
M  V30 7671 H 712.415 1.73152 3.31616 0
M  V30 7672 H 713.748 2.26068 4.37212 0
M  V30 7673 N 715.4 -1.26948 0.933913 0
M  V30 7674 C 716.332 -2.25768 0.395137 0
M  V30 7675 C 717.345 -1.55637 -0.477585 0
M  V30 7676 O 718.534 -1.76142 -0.289204 0
M  V30 7677 C 715.634 -3.35874 -0.451882 0
M  V30 7678 C 714.807 -4.3554 0.40299 0
M  V30 7679 C 713.866 -5.24809 -0.3824 0
M  V30 7680 O 712.892 -5.68805 0.212057 0
M  V30 7681 N 714.094 -5.55636 -1.68072 0
M  V30 7682 H 716.859 -2.72634 1.24463 0
M  V30 7683 H 714.42 -1.40639 0.802008 0
M  V30 7684 H 716.412 -3.92542 -0.984516 0
M  V30 7685 H 714.982 -2.8856 -1.20215 0
M  V30 7686 H 714.202 -3.78047 1.11688 0
M  V30 7687 H 715.49 -4.99131 0.987201 0
M  V30 7688 H 714.888 -5.2176 -2.18592 0
M  V30 7689 H 713.445 -6.14978 -2.15975 0
M  V30 7690 N 716.879 -0.700114 -1.41195 0
M  V30 7691 C 718.295 -0.372114 -1.55201 0
M  V30 7692 C 718.495 1.12053 -1.6747 0
M  V30 7693 O 717.551 1.90642 -1.65566 0
M  V30 7694 C 718.864 -1.12462 -2.78878 0
M  V30 7695 C 720.412 -1.10941 -2.92679 0
M  V30 7696 C 720.887 -1.84376 -4.19249 0
M  V30 7697 N 722.378 -1.81368 -4.26216 0
M  V30 7698 C 723.113 -2.35024 -5.23021 0
M  V30 7699 N 722.609 -2.9717 -6.25829 0
M  V30 7700 N 724.402 -2.25254 -5.14992 0
M  V30 7701 H 716.553 -1.66816 -1.31477 0
M  V30 7702 H 718.816 -0.704223 -0.634644 0
M  V30 7703 H 718.522 -2.17937 -2.76037 0
M  V30 7704 H 718.396 -0.706152 -3.70531 0
M  V30 7705 H 720.783 -0.062911 -2.95033 0
M  V30 7706 H 720.864 -1.56698 -2.02187 0
M  V30 7707 H 720.508 -2.89008 -4.17656 0
M  V30 7708 H 720.438 -1.3605 -5.08722 0
M  V30 7709 H 722.929 -1.36062 -3.52556 0
M  V30 7710 H 723.242 -3.35668 -6.96094 0
M  V30 7711 H 721.587 -3.01249 -6.26318 0
M  V30 7712 H 724.778 -1.76372 -4.33602 0
M  V30 7713 H 724.951 -2.67373 -5.90268 0
M  V30 7714 N 718.357 1.51182 -0.445186 0
M  V30 7715 C 719.587 2.06269 0.116922 0
M  V30 7716 C 719.995 1.31188 1.36332 0
M  V30 7717 O 719.338 0.367067 1.79995 0
M  V30 7718 C 719.4 3.56051 0.496757 0
M  V30 7719 C 719.064 4.52441 -0.64394 0
M  V30 7720 C 720.061 4.97233 -1.5184 0
M  V30 7721 C 717.746 4.95447 -0.826905 0
M  V30 7722 C 719.74 5.83712 -2.56046 0
M  V30 7723 C 717.427 5.81714 -1.87222 0
M  V30 7724 C 718.425 6.25745 -2.73738 0
M  V30 7725 O 718.113 7.10298 -3.76474 0
M  V30 7726 H 717.845 0.675954 0.00785733 0
M  V30 7727 H 720.399 1.95648 -0.625371 0
M  V30 7728 H 718.629 3.64483 1.29187 0
M  V30 7729 H 720.318 3.93618 0.990928 0
M  V30 7730 H 721.084 4.64696 -1.38862 0
M  V30 7731 H 716.963 4.60712 -0.163052 0
M  V30 7732 H 720.507 6.18 -3.23607 0
M  V30 7733 H 716.404 6.13664 -2.00218 0
M  V30 7734 H 717.172 7.28493 -3.73149 0
M  V30 7735 N 719.835 0.176821 1.56605 0
M  V30 7736 C 721.081 -0.467406 1.9734 0
M  V30 7737 C 721.414 -1.62523 1.06301 0
M  V30 7738 O 720.689 -1.94182 0.11125 0
M  V30 7739 C 720.972 -0.945106 3.47476 0
M  V30 7740 C 720.825 0.213273 4.49294 0
M  V30 7741 C 722.144 -1.8169 4.00845 0
M  V30 7742 H 719.263 -0.168426 0.717497 0
M  V30 7743 H 721.905 0.264065 1.88156 0
M  V30 7744 H 720.055 -1.56841 3.55434 0
M  V30 7745 H 721.727 0.850508 4.53392 0
M  V30 7746 H 719.97 0.867918 4.25029 0
M  V30 7747 H 720.641 -0.163187 5.51759 0
M  V30 7748 H 723.117 -1.29139 3.95553 0
M  V30 7749 H 721.993 -2.12015 5.06301 0
M  V30 7750 H 722.254 -2.76463 3.44994 0
M  V30 7751 N 721.313 -1.57302 -0.09688 0
M  V30 7752 C 722.276 -2.00976 -1.10188 0
M  V30 7753 C 723.276 -0.903009 -1.3305 0
M  V30 7754 O 724.466 -1.16853 -1.29194 0
M  V30 7755 C 721.598 -2.36893 -2.45142 0
M  V30 7756 H 722.791 -2.9098 -0.726003 0
M  V30 7757 H 720.344 -1.52515 -0.341872 0
M  V30 7758 H 721.079 -1.49837 -2.8761 0
M  V30 7759 H 720.864 -3.17632 -2.29897 0
M  V30 7760 H 722.354 -2.71345 -3.1743 0
M  V30 7761 N 722.791 0.367657 -1.53252 0
M  V30 7762 C 724.037 1.11216 -1.69584 0
M  V30 7763 C 724.37 1.89026 -0.445269 0
M  V30 7764 O 723.645 1.86342 0.557404 0
M  V30 7765 C 723.928 2.07308 -2.94441 0
M  V30 7766 C 723.781 1.3312 -4.2965 0
M  V30 7767 C 725.1 3.07459 -3.14892 0
M  V30 7768 H 722.219 0.40294 -0.617096 0
M  V30 7769 H 724.861 0.393201 -1.85887 0
M  V30 7770 H 723.011 2.68617 -2.80673 0
M  V30 7771 H 724.683 0.746111 -4.55226 0
M  V30 7772 H 722.926 0.633051 -4.29156 0
M  V30 7773 H 723.597 2.03443 -5.13142 0
M  V30 7774 H 726.073 2.56252 -3.27832 0
M  V30 7775 H 724.949 3.71919 -4.03693 0
M  V30 7776 H 725.21 3.77514 -2.30077 0
M  V30 7777 N 724.269 1.44576 0.627338 0
M  V30 7778 C 725.216 1.51734 1.73912 0
M  V30 7779 C 726.186 0.364745 1.62046 0
M  V30 7780 O 727.371 0.575503 1.81914 0
M  V30 7781 C 724.511 1.47116 3.12171 0
M  V30 7782 C 723.624 2.72778 3.34986 0
M  V30 7783 C 722.759 2.59968 4.63239 0
M  V30 7784 C 721.798 3.80776 4.79245 0
M  V30 7785 N 720.935 3.66618 5.98778 0
M  V30 7786 H 725.775 2.46722 1.6713 0
M  V30 7787 H 723.312 1.22444 0.815224 0
M  V30 7788 H 725.27 1.42429 3.92135 0
M  V30 7789 H 723.9 0.556928 3.17959 0
M  V30 7790 H 722.952 2.87637 2.48936 0
M  V30 7791 H 724.264 3.62441 3.42692 0
M  V30 7792 H 723.418 2.53135 5.51369 0
M  V30 7793 H 722.157 1.67872 4.57898 0
M  V30 7794 H 721.162 3.87989 3.89544 0
M  V30 7795 H 722.387 4.73913 4.86398 0
M  V30 7796 H 720.333 2.77277 5.9452 0
M  V30 7797 H 720.25 4.499 6.07557 0
M  V30 7798 H 721.518 3.63684 6.89459 0
M  V30 7799 N 725.747 -0.868086 1.31537 0
M  V30 7800 C 726.996 -1.61607 1.20689 0
M  V30 7801 C 727.309 -1.94204 -0.233275 0
M  V30 7802 O 728.515 -2.67515 -0.463465 0
M  V30 7803 C 726.971 -2.91348 2.11292 0
M  V30 7804 C 726.579 -2.66227 3.60315 0
M  V30 7805 C 728.323 -3.69344 2.09249 0
M  V30 7806 C 726.23 -3.91887 4.42921 0
M  V30 7807 H 725.16 -0.606373 0.448138 0
M  V30 7808 H 727.811 -0.959666 1.56405 0
M  V30 7809 H 726.193 -3.58374 1.68477 0
M  V30 7810 H 727.367 -2.07597 4.11388 0
M  V30 7811 H 725.682 -2.01582 3.64354 0
M  V30 7812 H 728.279 -4.62567 2.68209 0
M  V30 7813 H 728.622 -4.02044 1.0801 0
M  V30 7814 H 729.155 -3.09205 2.50274 0
M  V30 7815 H 725.894 -3.64336 5.44922 0
M  V30 7816 H 725.414 -4.49961 3.96605 0
M  V30 7817 H 727.093 -4.59754 4.55231 0
M  V30 7818 N 727.225 -1.14528 -1.08264 0
M  V30 7819 C 728.175 -0.802141 -2.13424 0
M  V30 7820 C 729.159 0.209362 -1.59532 0
M  V30 7821 O 730.351 0.0114859 -1.76996 0
M  V30 7822 C 727.48 -0.282938 -3.42132 0
M  V30 7823 C 726.566 -1.32405 -4.02902 0
M  V30 7824 N 726.957 -2.52861 -4.38058 0
M  V30 7825 C 725.255 -1.17462 -4.30254 0
M  V30 7826 C 725.956 -3.1952 -4.86088 0
M  V30 7827 N 724.932 -2.46921 -4.84284 0
M  V30 7828 H 728.734 -1.71843 -2.38426 0
M  V30 7829 H 726.248 -1.02936 -1.2561 0
M  V30 7830 H 728.245 -0.0188053 -4.16896 0
M  V30 7831 H 726.905 0.627533 -3.18578 0
M  V30 7832 H 727.916 -2.90078 -4.2904 0
M  V30 7833 H 724.593 -0.323283 -4.16246 0
M  V30 7834 H 725.983 -4.2223 -5.22658 0
M  V30 7835 N 728.703 1.26451 -0.940633 0
M  V30 7836 C 729.635 2.25556 -0.407104 0
M  V30 7837 C 730.648 1.55888 0.469324 0
M  V30 7838 O 731.837 1.76292 0.279858 0
M  V30 7839 C 728.937 3.36109 0.434064 0
M  V30 7840 C 728.11 4.3532 -0.426082 0
M  V30 7841 C 727.169 5.25004 0.354563 0
M  V30 7842 O 726.195 5.68684 -0.242219 0
M  V30 7843 N 727.397 5.5652 1.65123 0
M  V30 7844 H 730.162 2.7197 -1.25907 0
M  V30 7845 H 727.723 1.40212 -0.809456 0
M  V30 7846 H 729.715 3.93059 0.963684 0
M  V30 7847 H 728.285 2.89194 1.18683 0
M  V30 7848 H 727.505 3.77449 -1.13692 0
M  V30 7849 H 728.793 4.986 -1.01366 0
M  V30 7850 H 728.191 5.22912 2.15822 0
M  V30 7851 H 726.748 6.16115 2.12711 0
M  V30 7852 N 730.181 0.707592 1.40822 0
M  V30 7853 C 731.111 0.0644925 2.33411 0
M  V30 7854 C 732.092 -0.754205 1.52466 0
M  V30 7855 O 733.277 -0.704749 1.80961 0
M  V30 7856 C 730.407 -0.863865 3.36385 0
M  V30 7857 C 729.361 -0.15138 4.27732 0
M  V30 7858 C 728.687 -1.19491 5.21177 0
M  V30 7859 C 729.987 0.989607 5.12839 0
M  V30 7860 H 731.681 0.837829 2.87438 0
M  V30 7861 H 729.227 0.404346 1.38207 0
M  V30 7862 H 731.18 -1.32309 4.0009 0
M  V30 7863 H 729.904 -1.66901 2.80734 0
M  V30 7864 H 728.563 0.287937 3.65467 0
M  V30 7865 H 728.211 -1.9929 4.61836 0
M  V30 7866 H 727.911 -0.723123 5.83134 0
M  V30 7867 H 729.435 -1.6544 5.8776 0
M  V30 7868 H 730.849 0.610114 5.70044 0
M  V30 7869 H 729.246 1.38926 5.83798 0
M  V30 7870 H 730.316 1.82389 4.49291 0
M  V30 7871 N 731.66 -1.50943 0.453197 0
M  V30 7872 C 732.608 -2.29728 -0.364419 0
M  V30 7873 C 733.602 -1.36246 -1.00664 0
M  V30 7874 O 734.808 -1.53518 -0.939794 0
M  V30 7875 H 731.183 -0.739536 -0.136347 0
M  V30 7876 H 733.154 -2.96672 0.320696 0
M  V30 7877 C 731.903 -3.1629 -1.44415 0
M  V30 7878 H 731.226 -3.88119 -0.959343 0
M  V30 7879 H 732.666 -3.74444 -1.98917 0
M  V30 7880 C 731.125 -2.32702 -2.43622 0
M  V30 7881 O 731.655 -1.99763 -3.48508 0
M  V30 7882 N 729.861 -1.95621 -2.14897 0
M  V30 7883 H 729.408 -2.22607 -1.29629 0
M  V30 7884 H 729.366 -1.39993 -2.81513 0
M  V30 7885 N 733.138 -0.185124 -1.56509 0
M  V30 7886 C 734.085 0.739729 -2.18624 0
M  V30 7887 C 735.055 1.217 -1.13042 0
M  V30 7888 O 736.24 1.28268 -1.41251 0
M  V30 7889 C 733.38 1.95787 -2.84186 0
M  V30 7890 C 732.493 1.52289 -4.04267 0
M  V30 7891 C 731.628 2.69576 -4.57714 0
M  V30 7892 C 730.667 2.22636 -5.70175 0
M  V30 7893 N 729.804 3.33065 -6.18071 0
M  V30 7894 H 734.644 0.203269 -2.97306 0
M  V30 7895 H 732.181 0.0885946 -1.46833 0
M  V30 7896 H 734.139 2.67253 -3.20361 0
M  V30 7897 H 732.769 2.4678 -2.08085 0
M  V30 7898 H 731.821 0.704458 -3.7382 0
M  V30 7899 H 733.133 1.13843 -4.85635 0
M  V30 7900 H 732.287 3.4918 -4.96143 0
M  V30 7901 H 731.026 3.1129 -3.75433 0
M  V30 7902 H 730.031 1.41483 -5.31284 0
M  V30 7903 H 731.256 1.81964 -6.54267 0
M  V30 7904 H 729.202 3.74328 -5.38715 0
M  V30 7905 H 729.119 2.98756 -6.94464 0
M  V30 7906 H 730.387 4.12912 -6.61153 0
M  V30 7907 N 734.616 1.57351 0.0885366 0
M  V30 7908 C 735.564 2.03542 1.12576 0
M  V30 7909 C 736.558 0.937668 1.41082 0
M  V30 7910 O 737.764 1.12283 1.40686 0
M  V30 7911 H 734.139 0.648752 0.380296 0
M  V30 7912 H 736.11 2.89833 0.709906 0
M  V30 7913 C 734.859 2.4811 2.43591 0
M  V30 7914 H 734.182 3.32164 2.22502 0
M  V30 7915 H 735.622 2.842 3.14653 0
M  V30 7916 C 734.081 1.35708 3.08359 0
M  V30 7917 O 734.611 0.689852 3.95732 0
M  V30 7918 N 732.817 1.10641 2.68713 0
M  V30 7919 H 732.364 1.6508 1.97753 0
M  V30 7920 H 732.322 0.356355 3.12374 0
M  V30 7921 N 736.094 -0.359525 1.53444 0
M  V30 7922 C 737.34 -1.09958 1.71116 0
M  V30 7923 C 737.695 -1.8681 0.460414 0
M  V30 7924 O 736.988 -1.83635 -0.5467 0
M  V30 7925 C 737.182 -2.08287 2.90433 0
M  V30 7926 C 737.011 -1.41098 4.26991 0
M  V30 7927 C 735.781 -1.16255 4.91745 0
M  V30 7928 C 737.979 -0.845517 5.07302 0
M  V30 7929 N 735.961 -0.454798 6.12213 0
M  V30 7930 C 737.332 -0.267455 6.19423 0
M  V30 7931 C 739.387 -0.744797 4.92298 0
M  V30 7932 C 738.09 0.401511 7.18179 0
M  V30 7933 C 740.116 -0.0896013 5.91332 0
M  V30 7934 C 739.478 0.47756 7.02779 0
M  V30 7935 H 735.577 -0.387305 0.679352 0
M  V30 7936 H 738.161 -0.38519 1.90852 0
M  V30 7937 H 736.332 -2.77034 2.72226 0
M  V30 7938 H 738.064 -2.75015 2.96899 0
M  V30 7939 H 734.819 -1.44544 4.51003 0
M  V30 7940 H 735.243 -0.116108 6.769 0
M  V30 7941 H 739.885 -1.16905 4.06317 0
M  V30 7942 H 737.603 0.837694 8.03746 0
M  V30 7943 H 741.189 -0.0125162 5.81799 0
M  V30 7944 H 740.069 0.976522 7.78096 0
M  V30 7945 N 737.572 -1.44907 -0.619662 0
M  V30 7946 C 738.988 -1.29046 -0.939107 0
M  V30 7947 C 739.188 -0.23462 -2.00129 0
M  V30 7948 O 738.244 0.37558 -2.49691 0
M  V30 7949 C 739.557 -2.66567 -1.39149 0
M  V30 7950 C 741.105 -2.74368 -1.50635 0
M  V30 7951 C 741.58 -4.12386 -1.99253 0
M  V30 7952 N 743.071 -4.1462 -2.06506 0
M  V30 7953 C 743.806 -5.18272 -2.4532 0
M  V30 7954 N 743.302 -6.32278 -2.83189 0
M  V30 7955 N 745.095 -5.05628 -2.45554 0
M  V30 7956 H 737.246 -2.12239 0.0826135 0
M  V30 7957 H 739.509 -0.947652 -0.0256829 0
M  V30 7958 H 739.215 -3.4496 -0.685254 0
M  V30 7959 H 739.089 -2.94224 -2.36034 0
M  V30 7960 H 741.476 -1.96287 -2.20353 0
M  V30 7961 H 741.557 -2.50439 -0.520963 0
M  V30 7962 H 741.201 -4.90947 -1.30127 0
M  V30 7963 H 741.131 -4.33699 -2.98684 0
M  V30 7964 H 743.622 -3.32343 -1.79878 0
M  V30 7965 H 743.935 -7.07172 -3.11652 0
M  V30 7966 H 742.28 -6.35699 -2.80913 0
M  V30 7967 H 745.471 -4.15613 -2.15367 0
M  V30 7968 H 745.644 -5.86529 -2.75478 0
M  V30 7969 N 739.05 0.861098 -1.31996 0
M  V30 7970 C 740.327 1.59788 -1.12814 0
M  V30 7971 C 740.707 2.08753 0.313882 0
M  V30 7972 O 740.055 1.87258 1.30946 0
M  V30 7973 C 740.265 2.74901 -2.15012 0
M  V30 7974 C 741.613 3.44643 -2.48004 0
M  V30 7975 O 742.637 2.85119 -2.13508 0
M  V30 7976 O 741.496 4.52044 -3.07113 0
M  V30 7977 H 738.59 0.703408 -0.434909 0
M  V30 7978 H 741.136 0.905788 -1.43505 0
M  V30 7979 H 739.908 2.36198 -3.11971 0
M  V30 7980 H 739.531 3.51792 -1.85279 0
M  V30 7981 N 740.528 1.15101 1.07655 0
M  V30 7982 C 741.438 0.858869 2.18313 0
M  V30 7983 C 742.454 -0.163641 1.73229 0
M  V30 7984 O 743.63 0.00969541 2.01398 0
M  V30 7985 C 740.695 0.34893 3.4494 0
M  V30 7986 C 739.756 1.43495 4.04608 0
M  V30 7987 C 738.989 0.949253 5.2519 0
M  V30 7988 O 739.212 -0.20636 5.70027 0
M  V30 7989 O 738.146 1.73161 5.76454 0
M  V30 7990 H 741.972 1.78386 2.45788 0
M  V30 7991 H 739.557 0.929876 1.16934 0
M  V30 7992 H 741.439 0.070851 4.2134 0
M  V30 7993 H 740.114 -0.548237 3.19024 0
M  V30 7994 H 739.021 1.7666 3.29761 0
M  V30 7995 H 740.354 2.30692 4.3479 0
M  V30 7996 N 742.006 -1.2595 0.947325 0
M  V30 7997 C 742.953 -2.26159 0.460497 0
M  V30 7998 C 743.923 -1.58919 -0.483125 0
M  V30 7999 O 745.108 -1.86603 -0.397983 0
M  V30 8000 C 742.248 -3.441 -0.26247 0
M  V30 8001 C 741.361 -4.25999 0.717539 0
M  V30 8002 C 740.496 -5.31193 -0.0272486 0
M  V30 8003 C 739.535 -6.04774 0.944177 0
M  V30 8004 N 738.672 -7.01721 0.230741 0
M  V30 8005 H 743.512 -2.67173 1.31995 0
M  V30 8006 H 741.049 -1.31358 0.662088 0
M  V30 8007 H 743.007 -4.11317 -0.698137 0
M  V30 8008 H 741.637 -3.03983 -1.08602 0
M  V30 8009 H 740.689 -3.58513 1.27171 0
M  V30 8010 H 742.001 -4.76981 1.45913 0
M  V30 8011 H 741.155 -6.04451 -0.521903 0
M  V30 8012 H 739.894 -4.81066 -0.801682 0
M  V30 8013 H 738.899 -5.30338 1.4499 0
M  V30 8014 H 740.124 -6.56991 1.71872 0
M  V30 8015 H 738.07 -6.53895 -0.525088 0
M  V30 8016 H 737.987 -7.50484 0.911556 0
M  V30 8017 H 739.255 -7.79122 -0.242616 0
M  V30 8018 N 743.484 -0.715051 -1.40445 0
M  V30 8019 C 744.431 -0.0621393 -2.30716 0
M  V30 8020 C 745.401 0.750871 -1.48159 0
M  V30 8021 O 746.586 0.714928 -1.76899 0
M  V30 8022 C 743.726 0.854036 -3.34365 0
M  V30 8023 C 742.839 0.0305565 -4.31989 0
M  V30 8024 C 741.974 0.946162 -5.22706 0
M  V30 8025 C 741.013 0.116741 -6.11989 0
M  V30 8026 N 740.15 0.987194 -6.95125 0
M  V30 8027 H 744.99 -0.83764 -2.85985 0
M  V30 8028 H 742.527 -0.424759 -1.40834 0
M  V30 8029 H 744.485 1.39946 -3.93028 0
M  V30 8030 H 743.115 1.59572 -2.806 0
M  V30 8031 H 742.167 -0.632044 -3.75112 0
M  V30 8032 H 743.479 -0.611615 -4.95036 0
M  V30 8033 H 742.633 1.56014 -5.86297 0
M  V30 8034 H 741.372 1.62216 -4.59932 0
M  V30 8035 H 740.377 -0.510176 -5.47428 0
M  V30 8036 H 741.602 -0.555742 -6.76822 0
M  V30 8037 H 739.548 1.64885 -6.3494 0
M  V30 8038 H 739.465 0.401046 -7.54936 0
M  V30 8039 H 740.733 1.58737 -7.63166 0
M  V30 8040 N 744.962 1.50701 -0.461195 0
M  V30 8041 C 745.872 2.32069 0.343661 0
M  V30 8042 C 746.888 1.42016 1.00535 0
M  V30 8043 O 748.064 1.75077 0.995498 0
M  V30 8044 C 745.129 3.16424 1.41692 0
M  V30 8045 C 744.19 4.22286 0.772869 0
M  V30 8046 C 743.423 5.02609 1.79499 0
M  V30 8047 O 743.646 4.83874 3.0203 0
M  V30 8048 O 742.58 5.86047 1.3723 0
M  V30 8049 H 746.406 3.01996 -0.321268 0
M  V30 8050 H 743.991 1.47723 -0.223235 0
M  V30 8051 H 745.873 3.68795 2.03883 0
M  V30 8052 H 744.548 2.49236 2.0655 0
M  V30 8053 H 743.455 3.73931 0.112277 0
M  V30 8054 H 744.788 4.91915 0.167399 0
M  V30 8055 N 746.441 0.193421 1.56409 0
M  V30 8056 C 747.389 -0.744829 2.20352 0
M  V30 8057 C 748.383 -1.22104 1.17418 0
M  V30 8058 O 749.589 -1.18413 1.35567 0
M  V30 8059 H 745.964 -0.258538 0.70616 0
M  V30 8060 H 747.935 -0.181794 2.97846 0
M  V30 8061 C 746.684 -1.95453 2.87565 0
M  V30 8062 H 746.007 -1.59716 3.66512 0
M  V30 8063 H 747.447 -2.58942 3.35745 0
M  V30 8064 C 745.906 -2.79223 1.8851 0
M  V30 8065 O 746.436 -3.77093 1.38434 0
M  V30 8066 N 744.642 -2.44682 1.56777 0
M  V30 8067 H 744.189 -1.65153 1.97692 0
M  V30 8068 H 744.147 -3.01016 0.907573 0
M  V30 8069 N 747.919 -1.57396 -0.0801906 0
M  V30 8070 C 749.149 -1.90778 -0.792924 0
M  V30 8071 C 749.557 -0.786814 -1.72064 0
M  V30 8072 O 748.9 0.249259 -1.82001 0
M  V30 8073 C 748.962 -3.19552 -1.64702 0
M  V30 8074 C 748.626 -4.48259 -0.889567 0
M  V30 8075 C 749.623 -5.19465 -0.212602 0
M  V30 8076 C 747.308 -4.94896 -0.859229 0
M  V30 8077 C 749.302 -6.35555 0.484566 0
M  V30 8078 C 746.989 -6.10895 -0.158284 0
M  V30 8079 C 747.987 -6.81075 0.512421 0
M  V30 8080 O 747.675 -7.94862 1.20209 0
M  V30 8081 H 747.407 -0.63527 -0.231103 0
M  V30 8082 H 749.961 -2.0532 -0.0573081 0
M  V30 8083 H 748.191 -3.01196 -2.42524 0
M  V30 8084 H 749.88 -3.38649 -2.23767 0
M  V30 8085 H 750.646 -4.84467 -0.227403 0
M  V30 8086 H 746.525 -4.4015 -1.37073 0
M  V30 8087 H 750.069 -6.9027 1.00864 0
M  V30 8088 H 745.966 -6.45345 -0.141381 0
M  V30 8089 H 746.734 -8.10932 1.11051 0
M  V30 8090 N 749.397 0.351382 -1.53633 0
M  V30 8091 C 750.347 1.4316 -1.77452 0
M  V30 8092 C 751.331 1.48076 -0.62946 0
M  V30 8093 O 752.523 1.53078 -0.888599 0
M  V30 8094 C 749.652 2.80409 -1.98055 0
M  V30 8095 C 748.738 2.79915 -3.18604 0
M  V30 8096 N 749.129 2.49057 -4.40232 0
M  V30 8097 C 747.427 3.11067 -3.19614 0
M  V30 8098 C 748.128 2.566 -5.22045 0
M  V30 8099 N 747.104 2.919 -4.5858 0
M  V30 8100 H 750.906 1.18188 -2.69089 0
M  V30 8101 H 748.42 0.559684 -1.52451 0
M  V30 8102 H 750.417 3.58231 -2.13251 0
M  V30 8103 H 749.077 3.06334 -1.07655 0
M  V30 8104 H 750.088 2.22395 -4.67719 0
M  V30 8105 H 746.765 3.42215 -2.39154 0
M  V30 8106 H 748.155 2.35968 -6.29101 0
M  V30 8107 N 750.875 1.45233 0.611969 0
M  V30 8108 C 751.822 1.5357 1.72293 0
M  V30 8109 C 752.792 0.381912 1.6165 0
M  V30 8110 O 753.977 0.594765 1.81293 0
M  V30 8111 C 751.117 1.50419 3.10593 0
M  V30 8112 C 750.23 2.76316 3.32074 0
M  V30 8113 C 749.365 2.64866 4.60456 0
M  V30 8114 C 748.404 3.85838 4.7518 0
M  V30 8115 N 747.541 3.72949 5.94856 0
M  V30 8116 H 752.381 2.4848 1.64504 0
M  V30 8117 H 749.918 1.23302 0.802191 0
M  V30 8118 H 751.876 1.4658 3.90602 0
M  V30 8119 H 750.506 0.590621 3.17351 0
M  V30 8120 H 749.558 2.90261 2.45872 0
M  V30 8121 H 750.87 3.66055 3.38829 0
M  V30 8122 H 750.024 2.58969 5.48653 0
M  V30 8123 H 748.763 1.72719 4.56092 0
M  V30 8124 H 747.768 3.92099 3.85407 0
M  V30 8125 H 748.993 4.79045 4.81344 0
M  V30 8126 H 746.939 2.83567 5.91545 0
M  V30 8127 H 746.856 4.56319 6.02751 0
M  V30 8128 H 748.124 3.70976 6.85563 0
M  V30 8129 N 752.353 -0.854086 1.3245 0
M  V30 8130 C 753.303 -1.9508 1.18016 0
M  V30 8131 C 754.287 -1.60665 0.0869417 0
M  V30 8132 O 755.479 -1.74201 0.313505 0
M  V30 8133 C 752.608 -3.3113 0.905961 0
M  V30 8134 C 751.694 -3.71763 2.04091 0
M  V30 8135 N 752.085 -3.84218 3.28953 0
M  V30 8136 C 750.383 -4.01393 1.94421 0
M  V30 8137 C 751.084 -4.192 4.03294 0
M  V30 8138 N 750.06 -4.30749 3.31596 0
M  V30 8139 H 753.862 -2.02843 2.12678 0
M  V30 8140 H 751.376 -1.04588 1.24238 0
M  V30 8141 H 753.373 -4.09471 0.783508 0
M  V30 8142 H 752.033 -3.24684 -0.0322715 0
M  V30 8143 H 753.044 -3.68524 3.63883 0
M  V30 8144 H 749.721 -4.03246 1.08162 0
M  V30 8145 H 751.111 -4.36301 5.1097 0
M  V30 8146 N 753.831 -1.1567 -1.07043 0
M  V30 8147 C 754.794 -0.858906 -2.12498 0
M  V30 8148 C 755.794 0.142735 -1.60165 0
M  V30 8149 O 756.984 -0.0872678 -1.73981 0
M  V30 8150 C 754.116 -0.283021 -3.39723 0
M  V30 8151 H 755.309 -1.79368 -2.40348 0
M  V30 8152 H 752.862 -0.964608 -1.22984 0
M  V30 8153 H 753.597 0.659796 -3.17517 0
M  V30 8154 H 753.382 -1.00467 -3.7901 0
M  V30 8155 H 754.872 -0.0923543 -4.17498 0
M  V30 8156 N 755.309 1.25446 -0.953992 0
M  V30 8157 C 756.549 1.94894 -0.616087 0
M  V30 8158 C 756.913 1.73067 0.831374 0
M  V30 8159 O 758.114 2.3643 1.27884 0
M  V30 8160 C 756.385 3.44147 -0.964225 0
M  V30 8161 S 757.944 4.32536 -0.738798 0
M  V30 8162 H 754.762 0.673967 -0.226472 0
M  V30 8163 H 757.364 1.52117 -1.22803 0
M  V30 8164 H 756.068 3.57537 -2.01484 0
M  V30 8165 H 755.599 3.91906 -0.342507 0
M  V30 8166 H 757.614 4.94659 0.390732 0
M  V30 8167 N 756.787 0.722489 1.40064 0
M  V30 8168 C 758.203 0.396758 1.5459 0
M  V30 8169 C 758.403 -1.09375 1.69232 0
M  V30 8170 O 757.459 -1.87984 1.68578 0
M  V30 8171 C 758.772 1.16885 2.77053 0
M  V30 8172 C 760.32 1.15583 2.90877 0
M  V30 8173 C 760.795 1.91023 4.16262 0
M  V30 8174 N 762.286 1.88126 4.23276 0
M  V30 8175 C 763.021 2.43315 5.19216 0
M  V30 8176 N 762.517 3.07089 6.21022 0
M  V30 8177 N 764.31 2.33418 5.11344 0
M  V30 8178 H 756.461 1.68887 1.28806 0
M  V30 8179 H 758.724 0.714231 0.62336 0
M  V30 8180 H 758.43 2.22301 2.72534 0
M  V30 8181 H 758.304 0.765011 3.69361 0
M  V30 8182 H 760.691 0.10984 2.94896 0
M  V30 8183 H 760.772 1.59895 1.99668 0
M  V30 8184 H 760.416 2.95616 4.13006 0
M  V30 8185 H 760.346 1.44126 5.06493 0
M  V30 8186 H 762.837 1.41654 3.50346 0
M  V30 8187 H 763.15 3.467 6.90666 0
M  V30 8188 H 761.495 3.11175 6.21446 0
M  V30 8189 H 764.686 1.83248 4.30741 0
M  V30 8190 H 764.859 2.7673 5.85939 0
M  V30 8191 N 758.265 -1.50454 0.469181 0
M  V30 8192 C 759.175 -2.32248 -0.331349 0
M  V30 8193 C 760.191 -1.42548 -0.997807 0
M  V30 8194 O 761.367 -1.75602 -0.9862 0
M  V30 8195 C 758.432 -3.17171 -1.40012 0
M  V30 8196 C 757.493 -4.2269 -0.750463 0
M  V30 8197 C 756.726 -5.03554 -1.76831 0
M  V30 8198 O 756.949 -4.85469 -2.99459 0
M  V30 8199 O 755.883 -5.86767 -1.3412 0
M  V30 8200 H 759.709 -3.01821 0.337279 0
M  V30 8201 H 757.294 -1.47602 0.231066 0
M  V30 8202 H 759.176 -3.69871 -2.01924 0
M  V30 8203 H 757.851 -2.50328 -2.05226 0
M  V30 8204 H 756.758 -3.73986 -0.0924446 0
M  V30 8205 H 758.091 -4.91997 -0.14131 0
M  V30 8206 N 759.743 -0.201713 -1.56304 0
M  V30 8207 C 760.973 0.440084 -2.01858 0
M  V30 8208 C 761.381 1.55279 -1.08098 0
M  V30 8209 O 760.724 1.83529 -0.0792216 0
M  V30 8210 C 760.786 1.05091 -3.43797 0
M  V30 8211 C 760.45 0.0761208 -4.56937 0
M  V30 8212 C 761.447 -0.716951 -5.14933 0
M  V30 8213 C 759.132 -0.0368815 -5.02286 0
M  V30 8214 C 761.126 -1.60993 -6.16733 0
M  V30 8215 C 758.813 -0.933409 -6.03929 0
M  V30 8216 C 759.811 -1.71849 -6.61027 0
M  V30 8217 O 759.499 -2.59998 -7.60695 0
M  V30 8218 H 759.231 0.114139 -0.666294 0
M  V30 8219 H 761.785 -0.309672 -2.03052 0
M  V30 8220 H 760.015 1.84938 -3.3961 0
M  V30 8221 H 761.704 1.59804 -3.73118 0
M  V30 8222 H 762.47 -0.63999 -4.80759 0
M  V30 8223 H 758.349 0.564034 -4.57537 0
M  V30 8224 H 761.893 -2.22315 -6.61227 0
M  V30 8225 H 757.79 -1.01146 -6.37526 0
M  V30 8226 H 758.558 -2.53851 -7.7814 0
M  V30 8227 N 761.222 1.57436 0.0718424 0
M  V30 8228 C 762.638 1.53792 0.426628 0
M  V30 8229 C 762.838 0.921887 1.79174 0
M  V30 8230 O 761.894 0.524374 2.46995 0
M  V30 8231 C 763.207 2.98443 0.367739 0
M  V30 8232 C 764.755 3.09778 0.447928 0
M  V30 8233 C 765.23 4.5608 0.418946 0
M  V30 8234 N 766.721 4.60716 0.479022 0
M  V30 8235 C 767.456 5.71397 0.47881 0
M  V30 8236 N 766.952 6.91443 0.433417 0
M  V30 8237 N 768.745 5.59639 0.525364 0
M  V30 8238 H 760.896 1.95848 -0.822033 0
M  V30 8239 H 763.159 0.896418 -0.308447 0
M  V30 8240 H 762.865 3.47072 -0.56865 0
M  V30 8241 H 762.739 3.58335 1.17795 0
M  V30 8242 H 765.126 2.61122 1.37474 0
M  V30 8243 H 765.207 2.52796 -0.390857 0
M  V30 8244 H 764.851 5.05393 -0.504016 0
M  V30 8245 H 764.781 5.10925 1.27526 0
M  V30 8246 H 767.272 3.74328 0.518355 0
M  V30 8247 H 767.585 7.71562 0.43718 0
M  V30 8248 H 765.93 6.93847 0.400106 0
M  V30 8249 H 769.121 4.64756 0.558519 0
M  V30 8250 H 769.294 6.45896 0.52173 0
M  V30 8251 N 762.7 -0.34323 1.53817 0
M  V30 8252 C 763.949 -1.08086 1.70295 0
M  V30 8253 C 764.262 -1.89794 0.47302 0
M  V30 8254 O 765.468 -2.66498 0.518754 0
M  V30 8255 C 763.924 -1.97097 3.01133 0
M  V30 8256 C 763.532 -1.20594 4.31464 0
M  V30 8257 C 765.276 -2.70715 3.26976 0
M  V30 8258 C 763.183 -2.08636 5.53376 0
M  V30 8259 H 762.113 -0.407228 0.634572 0
M  V30 8260 H 764.764 -0.340328 1.80316 0
M  V30 8261 H 763.146 -2.74971 2.84969 0
M  V30 8262 H 764.32 -0.476282 4.58332 0
M  V30 8263 H 762.635 -0.587426 4.12236 0
M  V30 8264 H 765.232 -3.36857 4.15248 0
M  V30 8265 H 765.575 -3.37299 2.43998 0
M  V30 8266 H 766.108 -1.99914 3.43917 0
M  V30 8267 H 762.847 -1.46594 6.38898 0
M  V30 8268 H 762.367 -2.7939 5.30755 0
M  V30 8269 H 764.046 -2.67682 5.89029 0
M  V30 8270 N 764.178 -1.45556 -0.604258 0
M  V30 8271 C 765.128 -1.50906 -1.70913 0
M  V30 8272 C 766.112 -0.371996 -1.56541 0
M  V30 8273 O 767.304 -0.619064 -1.65821 0
M  V30 8274 C 764.433 -1.48181 -3.09673 0
M  V30 8275 C 763.519 -2.67102 -3.2942 0
M  V30 8276 N 763.91 -3.92184 -3.19414 0
M  V30 8277 C 762.208 -2.6287 -3.60299 0
M  V30 8278 C 762.909 -4.71571 -3.40581 0
M  V30 8279 N 761.885 -4.03081 -3.64728 0
M  V30 8280 H 765.687 -2.45435 -1.61675 0
M  V30 8281 H 763.201 -1.40894 -0.807622 0
M  V30 8282 H 765.198 -1.501 -3.88942 0
M  V30 8283 H 763.858 -0.54712 -3.20057 0
M  V30 8284 H 764.869 -4.23756 -2.97743 0
M  V30 8285 H 761.546 -1.78324 -3.77501 0
M  V30 8286 H 762.936 -5.80571 -3.38211 0
M  V30 8287 N 765.656 0.84705 -1.32902 0
M  V30 8288 C 766.603 1.95624 -1.22473 0
M  V30 8289 C 767.573 1.65767 -0.105178 0
M  V30 8290 O 768.758 1.88704 -0.282042 0
M  V30 8291 C 765.898 3.31434 -0.961542 0
M  V30 8292 C 765.011 3.73741 -2.1666 0
M  V30 8293 C 764.146 4.98379 -1.83825 0
M  V30 8294 C 763.185 5.33199 -3.00609 0
M  V30 8295 N 762.322 6.49014 -2.67816 0
M  V30 8296 H 767.162 2.03875 -2.17345 0
M  V30 8297 H 764.699 0.997764 -1.08088 0
M  V30 8298 H 766.657 4.09663 -0.789411 0
M  V30 8299 H 765.287 3.22762 -0.0495938 0
M  V30 8300 H 764.339 2.91102 -2.44875 0
M  V30 8301 H 765.651 3.95462 -3.03993 0
M  V30 8302 H 764.805 5.84336 -1.63208 0
M  V30 8303 H 763.544 4.78611 -0.937172 0
M  V30 8304 H 762.549 4.4575 -3.21849 0
M  V30 8305 H 763.774 5.5492 -3.9146 0
M  V30 8306 H 761.72 6.30748 -1.80258 0
M  V30 8307 H 761.637 6.7079 -3.48679 0
M  V30 8308 H 762.905 7.38103 -2.50647 0
M  V30 8309 N 767.134 1.16236 1.06428 0
M  V30 8310 C 768.044 0.881976 2.1739 0
M  V30 8311 C 769.06 -0.145259 1.73393 0
M  V30 8312 O 770.236 0.0310558 2.01376 0
M  V30 8313 C 767.301 0.385496 3.4455 0
M  V30 8314 C 766.362 1.47779 4.03063 0
M  V30 8315 C 765.595 1.0049 5.24154 0
M  V30 8316 O 765.818 -0.145889 5.70213 0
M  V30 8317 O 764.752 1.79265 5.74585 0
M  V30 8318 H 768.578 1.80983 2.43883 0
M  V30 8319 H 766.163 0.942226 1.15942 0
M  V30 8320 H 768.045 0.115536 4.21242 0
M  V30 8321 H 766.72 -0.514369 3.19587 0
M  V30 8322 H 765.627 1.80147 3.27869 0
M  V30 8323 H 766.96 2.35291 4.32318 0
M  V30 8324 N 768.612 -1.24939 0.960631 0
M  V30 8325 C 769.542 -2.28 0.503815 0
M  V30 8326 C 770.523 -1.63959 -0.452928 0
M  V30 8327 O 771.708 -1.91009 -0.350585 0
M  V30 8328 C 768.838 -3.46643 -0.213535 0
M  V30 8329 C 767.792 -4.22903 0.658535 0
M  V30 8330 C 767.118 -5.34363 -0.189902 0
M  V30 8331 C 768.418 -4.84949 1.93963 0
M  V30 8332 H 770.112 -2.66462 1.36521 0
M  V30 8333 H 767.658 -1.28093 0.657897 0
M  V30 8334 H 769.611 -4.1787 -0.544286 0
M  V30 8335 H 768.335 -3.07187 -1.10923 0
M  V30 8336 H 766.994 -3.53467 0.972455 0
M  V30 8337 H 766.642 -4.91147 -1.08553 0
M  V30 8338 H 766.342 -5.86302 0.390331 0
M  V30 8339 H 767.866 -6.0842 -0.515484 0
M  V30 8340 H 769.28 -5.48288 1.67491 0
M  V30 8341 H 767.677 -5.47091 2.46601 0
M  V30 8342 H 768.747 -4.06799 2.639 0
M  V30 8343 N 770.09 -0.729906 -1.39679 0
M  V30 8344 C 771.367 -0.202149 -1.94553 0
M  V30 8345 C 771.747 1.29507 -1.66707 0
M  V30 8346 O 771.095 2.05819 -0.992517 0
M  V30 8347 C 771.305 -0.530279 -3.44948 0
M  V30 8348 C 772.653 -0.476808 -4.21914 0
M  V30 8349 O 773.677 -0.467171 -3.53123 0
M  V30 8350 O 772.536 -0.466869 -5.44502 0
M  V30 8351 H 769.63 -0.0351644 -0.826252 0
M  V30 8352 H 772.176 -0.808417 -1.49207 0
M  V30 8353 H 770.948 -1.56526 -3.5863 0
M  V30 8354 H 770.571 0.10522 -3.97461 0
M  V30 8355 N 771.568 1.50203 -0.477153 0
M  V30 8356 C 772.518 2.25561 0.332625 0
M  V30 8357 C 773.502 1.29401 0.956249 0
M  V30 8358 O 774.694 1.54267 0.867795 0
M  V30 8359 C 771.823 3.12984 1.41052 0
M  V30 8360 C 770.909 4.16595 0.79433 0
M  V30 8361 N 771.3 5.05722 -0.0889633 0
M  V30 8362 C 769.598 4.33279 1.0576 0
M  V30 8363 C 770.299 5.80039 -0.439286 0
M  V30 8364 N 769.275 5.43278 0.187018 0
M  V30 8365 H 773.077 2.91836 -0.347718 0
M  V30 8366 H 770.591 1.59759 -0.291686 0
M  V30 8367 H 772.588 3.65582 2.00388 0
M  V30 8368 H 771.248 2.48258 2.09279 0
M  V30 8369 H 772.259 5.15869 -0.458205 0
M  V30 8370 H 768.936 3.79769 1.7344 0
M  V30 8371 H 770.326 6.61802 -1.1605 0
M  V30 8372 N 773.046 0.209999 1.56195 0
M  V30 8373 C 774.457 -0.299943 1.84275 0
M  V30 8374 C 774.808 -1.60314 1.1311 0
M  V30 8375 O 773.933 -2.1273 0.396874 0
M  V30 8376 C 774.528 -0.550986 3.3429 0
M  V30 8377 C 773.087 -1.00526 3.62728 0
M  V30 8378 C 772.234 -0.0619828 2.77231 0
M  V30 8379 H 775.185 0.433458 1.52666 0
M  V30 8380 H 775.206 -1.39846 3.53869 0
M  V30 8381 H 774.718 0.397669 3.86057 0
M  V30 8382 H 772.819 -1.96768 3.16407 0
M  V30 8383 H 772.932 -0.887664 4.70805 0
M  V30 8384 H 771.296 -0.566648 2.48317 0
M  V30 8385 H 772.079 0.881383 3.31793 0
M  V30 8386 N 774.524 -1.57472 -0.0634922 0
M  V30 8387 C 775.94 -1.54016 -0.418466 0
M  V30 8388 C 776.14 -0.931376 -1.78683 0
M  V30 8389 O 775.196 -0.537465 -2.46714 0
M  V30 8390 C 776.509 -2.98634 -0.351906 0
M  V30 8391 C 778.057 -3.10012 -0.431494 0
M  V30 8392 C 778.532 -4.56296 -0.394754 0
M  V30 8393 N 780.023 -4.60964 -0.454583 0
M  V30 8394 C 780.758 -5.71643 -0.448501 0
M  V30 8395 N 780.254 -6.91663 -0.396742 0
M  V30 8396 N 782.047 -5.5991 -0.495677 0
M  V30 8397 H 774.198 -1.95409 0.832408 0
M  V30 8398 H 776.461 -0.894769 0.313197 0
M  V30 8399 H 776.167 -3.46766 0.587048 0
M  V30 8400 H 776.041 -3.58955 -1.15893 0
M  V30 8401 H 778.428 -2.61848 -1.36087 0
M  V30 8402 H 778.509 -2.52585 0.404258 0
M  V30 8403 H 778.153 -5.05119 0.530811 0
M  V30 8404 H 778.083 -5.11594 -1.24815 0
M  V30 8405 H 780.574 -3.74598 -0.498496 0
M  V30 8406 H 780.887 -7.71783 -0.396256 0
M  V30 8407 H 779.232 -6.9405 -0.363304 0
M  V30 8408 H 782.423 -4.65046 -0.533864 0
M  V30 8409 H 782.596 -6.46164 -0.487469 0
M  V30 8410 N 776.003 0.335068 -1.53997 0
M  V30 8411 C 777.252 1.07182 -1.70865 0
M  V30 8412 C 777.565 1.89541 -0.483078 0
M  V30 8413 O 778.771 2.66219 -0.532879 0
M  V30 8414 C 777.227 1.95497 -3.02174 0
M  V30 8415 C 776.835 1.18304 -4.32097 0
M  V30 8416 C 778.579 2.68978 -3.28407 0
M  V30 8417 C 776.486 2.05699 -5.54474 0
M  V30 8418 H 775.416 0.403857 -0.636722 0
M  V30 8419 H 778.067 0.33076 -1.80494 0
M  V30 8420 H 776.449 2.73456 -2.86423 0
M  V30 8421 H 777.623 0.451969 -4.58578 0
M  V30 8422 H 775.938 0.565556 -4.12541 0
M  V30 8423 H 778.535 3.34651 -4.17029 0
M  V30 8424 H 778.878 3.36 -2.45784 0
M  V30 8425 H 779.411 1.98087 -3.44973 0
M  V30 8426 H 776.15 1.43204 -6.39666 0
M  V30 8427 H 775.67 2.76572 -5.32229 0
M  V30 8428 H 777.349 2.64554 -5.90441 0
M  V30 8429 N 777.481 1.45874 0.596531 0
M  V30 8430 C 778.727 1.5069 1.35722 0
M  V30 8431 C 779.06 0.152506 1.936 0
M  V30 8432 O 778.335 -0.834411 1.75692 0
M  V30 8433 C 778.618 2.59474 2.4969 0
M  V30 8434 C 778.471 4.04396 1.96937 0
M  V30 8435 C 779.79 2.64451 3.51787 0
M  V30 8436 H 776.909 0.548611 0.492133 0
M  V30 8437 H 779.551 1.77741 0.671428 0
M  V30 8438 H 777.701 2.36539 3.08191 0
M  V30 8439 H 779.373 4.38576 1.43 0
M  V30 8440 H 777.616 4.14529 1.27859 0
M  V30 8441 H 778.287 4.76218 2.79143 0
M  V30 8442 H 780.763 2.85031 3.03145 0
M  V30 8443 H 779.639 3.42411 4.29006 0
M  V30 8444 H 779.9 1.69965 4.08123 0
M  V30 8445 N 778.959 -0.83999 1.33349 0
M  V30 8446 C 779.906 -1.94972 1.23509 0
M  V30 8447 C 780.876 -1.65709 0.113967 0
M  V30 8448 O 782.061 -1.88552 0.292045 0
M  V30 8449 C 779.201 -3.30919 0.979105 0
M  V30 8450 C 778.314 -3.72587 2.18639 0
M  V30 8451 C 777.449 -4.97397 1.86465 0
M  V30 8452 C 776.488 -5.31597 3.03432 0
M  V30 8453 N 775.625 -6.47584 2.71254 0
M  V30 8454 H 780.465 -2.0272 2.18423 0
M  V30 8455 H 778.002 -0.992017 1.08616 0
M  V30 8456 H 779.96 -4.09239 0.811126 0
M  V30 8457 H 778.59 -3.22731 0.0667099 0
M  V30 8458 H 777.642 -2.89799 2.46416 0
M  V30 8459 H 778.954 -3.93844 3.06086 0
M  V30 8460 H 778.108 -5.83462 1.66305 0
M  V30 8461 H 776.847 -4.78107 0.96254 0
M  V30 8462 H 775.852 -4.44037 3.24208 0
M  V30 8463 H 777.077 -5.52836 3.94397 0
M  V30 8464 H 775.023 -6.29783 1.836 0
M  V30 8465 H 774.94 -6.68931 3.52231 0
M  V30 8466 H 776.208 -7.36764 2.54558 0
M  V30 8467 N 780.437 -1.16799 -1.0581 0
M  V30 8468 C 781.367 -0.902241 -2.15364 0
M  V30 8469 C 782.348 0.153351 -1.69407 0
M  V30 8470 O 783.533 0.00442032 -1.94199 0
M  V30 8471 C 780.663 -0.407911 -3.44896 0
M  V30 8472 C 779.617 -1.40197 -4.04387 0
M  V30 8473 C 778.943 -0.765848 -5.29187 0
M  V30 8474 C 780.243 -2.77316 -4.42598 0
M  V30 8475 H 781.937 -1.81841 -2.37853 0
M  V30 8476 H 779.483 -0.875731 -1.14311 0
M  V30 8477 H 781.436 -0.20945 -4.20879 0
M  V30 8478 H 780.16 0.54378 -3.22041 0
M  V30 8479 H 778.819 -1.58707 -3.30466 0
M  V30 8480 H 778.467 0.192482 -5.02632 0
M  V30 8481 H 778.167 -1.42939 -5.69949 0
M  V30 8482 H 779.691 -0.577519 -6.07863 0
M  V30 8483 H 781.105 -2.62561 -5.09642 0
M  V30 8484 H 779.502 -3.4019 -4.94359 0
M  V30 8485 H 780.572 -3.32199 -3.53231 0
M  V30 8486 N 781.915 1.24427 -0.967243 0
M  V30 8487 C 783.145 1.96256 -0.64554 0
M  V30 8488 C 783.553 1.71959 0.789098 0
M  V30 8489 O 782.896 0.999913 1.54102 0
M  V30 8490 C 782.958 3.49553 -0.839798 0
M  V30 8491 C 782.622 3.97548 -2.25399 0
M  V30 8492 C 783.619 4.07257 -3.23168 0
M  V30 8493 C 781.304 4.30884 -2.58156 0
M  V30 8494 C 783.298 4.49635 -4.51782 0
M  V30 8495 C 780.985 4.72946 -3.86996 0
M  V30 8496 C 781.983 4.82286 -4.83621 0
M  V30 8497 O 781.671 5.23409 -6.10162 0
M  V30 8498 H 781.403 0.632002 -0.239895 0
M  V30 8499 H 783.957 1.59224 -1.29757 0
M  V30 8500 H 782.187 3.86479 -0.130603 0
M  V30 8501 H 783.876 4.02591 -0.517249 0
M  V30 8502 H 784.642 3.8172 -2.9919 0
M  V30 8503 H 780.521 4.22833 -1.83666 0
M  V30 8504 H 784.065 4.5684 -5.27203 0
M  V30 8505 H 779.962 4.9793 -4.10775 0
M  V30 8506 H 780.73 5.4156 -6.13722 0
M  V30 8507 N 783.393 0.737304 1.3929 0
M  V30 8508 C 784.67 0.212464 1.94443 0
M  V30 8509 C 785.05 -1.28621 1.67391 0
M  V30 8510 O 784.398 -2.0529 1.00342 0
M  V30 8511 C 784.608 0.548565 3.44662 0
M  V30 8512 C 785.956 0.499177 4.21656 0
M  V30 8513 O 786.98 0.485892 3.5287 0
M  V30 8514 O 785.839 0.495739 5.44247 0
M  V30 8515 H 782.933 0.0395457 0.826054 0
M  V30 8516 H 785.479 0.816319 1.48776 0
M  V30 8517 H 784.251 1.58426 3.57795 0
M  V30 8518 H 783.874 -0.0841399 3.97511 0
M  V30 8519 N 784.871 -1.49948 0.485112 0
M  V30 8520 C 786.101 -2.06506 -0.0621921 0
M  V30 8521 C 786.509 -1.34756 -1.32806 0
M  V30 8522 O 785.852 -0.41466 -1.78959 0
M  V30 8523 C 785.914 -3.57243 -0.402182 0
M  V30 8524 C 785.578 -4.50574 0.763671 0
M  V30 8525 C 786.575 -4.93032 1.6497 0
M  V30 8526 C 784.26 -4.9308 0.957973 0
M  V30 8527 C 786.254 -5.76718 2.71432 0
M  V30 8528 C 783.941 -5.76546 2.0258 0
M  V30 8529 C 784.939 -6.18267 2.90232 0
M  V30 8530 O 784.627 -7.00066 3.95174 0
M  V30 8531 H 784.359 -0.675925 0.0100672 0
M  V30 8532 H 786.913 -1.93922 0.677023 0
M  V30 8533 H 785.143 -3.6778 -1.19478 0
M  V30 8534 H 786.832 -3.96107 -0.886219 0
M  V30 8535 H 787.598 -4.60851 1.51134 0
M  V30 8536 H 783.477 -4.60117 0.285144 0
M  V30 8537 H 787.021 -6.09203 3.39878 0
M  V30 8538 H 782.918 -6.0814 2.16417 0
M  V30 8539 H 783.686 -7.18343 3.92333 0
M  V30 8540 N 786.349 -0.21828 -1.56081 0
M  V30 8541 C 787.596 0.414307 -1.98216 0
M  V30 8542 C 787.924 1.60005 -1.10584 0
M  V30 8543 O 787.179 1.95124 -0.150043 0
M  V30 8544 C 787.478 0.894782 -3.46018 0
M  V30 8545 C 787.144 -0.180083 -4.5054 0
M  V30 8546 C 785.806 -0.475367 -4.78846 0
M  V30 8547 C 788.158 -0.907191 -5.13244 0
M  V30 8548 C 785.486 -1.50233 -5.67139 0
M  V30 8549 C 787.838 -1.92347 -6.02649 0
M  V30 8550 C 786.502 -2.22571 -6.293 0
M  V30 8551 H 785.772 0.151606 -0.725325 0
M  V30 8552 H 788.419 -0.320113 -1.88806 0
M  V30 8553 H 786.724 1.7079 -3.52616 0
M  V30 8554 H 788.421 1.39403 -3.75989 0
M  V30 8555 H 785.011 0.06022 -4.28558 0
M  V30 8556 H 789.195 -0.692303 -4.91448 0
M  V30 8557 H 784.451 -1.74215 -5.86054 0
M  V30 8558 H 788.625 -2.49197 -6.50288 0
M  V30 8559 H 786.252 -3.0229 -6.97513 0
M  V30 8560 N 787.827 1.57504 0.0551401 0
M  V30 8561 C 789.052 1.92682 0.767352 0
M  V30 8562 C 789.477 0.81614 1.69472 0
M  V30 8563 O 788.835 -0.229989 1.79835 0
M  V30 8564 C 788.883 3.26866 1.52286 0
M  V30 8565 O 787.987 3.17274 2.63459 0
M  V30 8566 H 787.328 0.630502 0.208238 0
M  V30 8567 H 789.858 2.04592 0.0184026 0
M  V30 8568 H 789.868 3.61138 1.8985 0
M  V30 8569 H 788.543 4.07276 0.842541 0
M  V30 8570 H 787.12 2.94589 2.2863 0
M  V30 8571 N 789.305 -0.326896 1.54172 0
M  V30 8572 C 790.235 -1.40741 1.86317 0
M  V30 8573 C 791.216 -1.54125 0.719684 0
M  V30 8574 O 792.401 -1.6806 0.973117 0
M  V30 8575 C 789.531 -2.77557 2.08757 0
M  V30 8576 C 788.485 -2.78965 3.24596 0
M  V30 8577 C 787.811 -4.18824 3.32401 0
M  V30 8578 C 789.111 -2.4301 4.62324 0
M  V30 8579 H 790.805 -1.14088 2.76811 0
M  V30 8580 H 788.351 -0.547389 1.3319 0
M  V30 8581 H 790.304 -3.53209 2.29829 0
M  V30 8582 H 789.028 -3.0568 1.15009 0
M  V30 8583 H 787.687 -2.05767 3.03406 0
M  V30 8584 H 787.335 -4.44083 2.36218 0
M  V30 8585 H 787.035 -4.20673 4.10253 0
M  V30 8586 H 788.559 -4.96294 3.55703 0
M  V30 8587 H 789.973 -3.08375 4.83299 0
M  V30 8588 H 788.37 -2.56116 5.42701 0
M  V30 8589 H 789.44 -1.38165 4.64799 0
M  V30 8590 N 790.784 -1.46188 -0.588786 0
M  V30 8591 C 792.061 -1.41659 -1.34878 0
M  V30 8592 C 792.441 -0.0968913 -2.10878 0
M  V30 8593 O 791.789 0.921468 -2.09096 0
M  V30 8594 C 791.999 -2.6424 -2.27988 0
M  V30 8595 C 793.347 -3.1013 -2.90008 0
M  V30 8596 O 794.371 -2.64745 -2.38303 0
M  V30 8597 O 793.23 -3.88944 -3.83908 0
M  V30 8598 H 790.324 -0.563058 -0.605718 0
M  V30 8599 H 792.87 -1.58346 -0.610309 0
M  V30 8600 H 791.642 -3.51853 -1.71217 0
M  V30 8601 H 791.265 -2.49982 -3.09184 0
M  V30 8602 N 792.262 0.832906 -1.33792 0
M  V30 8603 C 793.49 1.62048 -1.28639 0
M  V30 8604 C 793.905 1.88269 0.141522 0
M  V30 8605 O 793.262 1.46706 1.08553 0
M  V30 8606 C 793.313 2.96722 -2.0649 0
M  V30 8607 O 793.034 2.7165 -3.43712 0
M  V30 8608 C 794.535 3.91144 -2.08617 0
M  V30 8609 H 791.755 0.504032 -0.442937 0
M  V30 8610 H 794.299 1.03704 -1.76255 0
M  V30 8611 H 792.454 3.51652 -1.62541 0
M  V30 8612 H 792.868 3.57453 -3.83833 0
M  V30 8613 H 794.342 4.82837 -2.67531 0
M  V30 8614 H 794.819 4.25766 -1.07796 0
M  V30 8615 H 795.425 3.42152 -2.52611 0
M  V30 8616 N 793.74 1.17359 1.05189 0
M  V30 8617 C 795.017 0.871914 1.75091 0
M  V30 8618 C 795.397 -0.627821 2.01548 0
M  V30 8619 O 794.745 -1.5791 1.65156 0
M  V30 8620 C 794.955 1.70687 3.04413 0
M  V30 8621 C 796.303 1.92684 3.78362 0
M  V30 8622 O 797.327 1.67645 3.14282 0
M  V30 8623 O 796.186 2.34765 4.93505 0
M  V30 8624 H 793.28 0.322831 0.761386 0
M  V30 8625 H 795.826 1.28054 1.11357 0
M  V30 8626 H 794.598 2.72405 2.80911 0
M  V30 8627 H 794.221 1.29602 3.75884 0
M  V30 8628 N 795.218 -1.23913 0.973828 0
M  V30 8629 C 796.443 -1.96735 0.656511 0
M  V30 8630 C 796.868 -1.71682 -0.768571 0
M  V30 8631 O 796.226 -0.984267 -1.52256 0
M  V30 8632 C 796.274 -3.48004 0.944735 0
M  V30 8633 O 795.378 -4.12387 0.0333357 0
M  V30 8634 H 794.719 -0.616119 0.247575 0
M  V30 8635 H 797.249 -1.57525 1.30564 0
M  V30 8636 H 797.259 -3.98424 0.87876 0
M  V30 8637 H 795.934 -3.65567 1.98328 0
M  V30 8638 H 794.511 -3.72585 0.153157 0
M  V30 8639 N 796.696 -0.74468 -1.38897 0
M  V30 8640 C 797.943 -0.296884 -2.00312 0
M  V30 8641 C 798.271 1.11878 -1.59102 0
M  V30 8642 O 797.526 1.7789 -0.815702 0
M  V30 8643 C 797.825 -0.357302 -3.55609 0
M  V30 8644 C 797.491 -1.72736 -4.16501 0
M  V30 8645 C 796.153 -2.10232 -4.32846 0
M  V30 8646 C 798.505 -2.62647 -4.50184 0
M  V30 8647 C 795.833 -3.3713 -4.80167 0
M  V30 8648 C 798.185 -3.88926 -4.98918 0
M  V30 8649 C 796.849 -4.26503 -5.1347 0
M  V30 8650 H 796.119 -0.108638 -0.732993 0
M  V30 8651 H 798.766 -0.953419 -1.66079 0
M  V30 8652 H 797.071 0.382805 -3.89925 0
M  V30 8653 H 798.768 0.0074596 -4.00999 0
M  V30 8654 H 795.358 -1.42585 -4.04187 0
M  V30 8655 H 799.542 -2.34945 -4.37166 0
M  V30 8656 H 794.798 -3.66174 -4.89619 0
M  V30 8657 H 798.972 -4.58745 -5.23952 0
M  V30 8658 H 796.599 -5.24896 -5.49898 0
M  V30 8659 N 798.174 1.49689 -0.493057 0
M  V30 8660 C 799.414 2.04332 0.0527374 0
M  V30 8661 C 799.778 1.36522 1.35003 0
M  V30 8662 O 800.979 1.81842 1.97957 0
M  V30 8663 C 799.25 3.56782 0.210044 0
M  V30 8664 S 800.809 4.32998 0.711232 0
M  V30 8665 H 797.627 0.710978 0.00554853 0
M  V30 8666 H 800.229 1.83835 -0.665213 0
M  V30 8667 H 798.933 4.03681 -0.739566 0
M  V30 8668 H 798.464 3.81671 0.953468 0
M  V30 8669 H 800.479 4.54916 1.98156 0
M  V30 8670 N 799.652 0.226554 1.55963 0
M  V30 8671 C 800.88 -0.408507 2.02827 0
M  V30 8672 C 801.295 -1.52994 1.10627 0
M  V30 8673 O 800.652 -1.82126 0.116809 0
M  V30 8674 C 800.703 -0.93545 3.49187 0
M  V30 8675 O 800.424 0.141273 4.37872 0
M  V30 8676 C 801.925 -1.64325 4.11719 0
M  V30 8677 H 799.145 -0.099442 0.66359 0
M  V30 8678 H 801.689 0.344471 2.01578 0
M  V30 8679 H 799.844 -1.63868 3.51036 0
M  V30 8680 H 800.258 -0.25558 5.23877 0
M  V30 8681 H 801.732 -1.9639 5.15883 0
M  V30 8682 H 802.209 -2.55815 3.57009 0
M  V30 8683 H 802.815 -0.9851 4.13734 0
M  V30 8684 N 801.13 -1.57531 -0.0467866 0
M  V30 8685 C 802.376 -1.8873 -0.742218 0
M  V30 8686 C 802.709 -0.822084 -1.75941 0
M  V30 8687 O 801.984 0.164922 -1.938 0
M  V30 8688 C 802.267 -3.30586 -1.42776 0
M  V30 8689 C 802.12 -4.47785 -0.425285 0
M  V30 8690 C 803.439 -3.71068 -2.36636 0
M  V30 8691 H 800.558 -0.686406 -0.268359 0
M  V30 8692 H 803.2 -1.89999 -0.00511341 0
M  V30 8693 H 801.35 -3.29634 -2.05605 0
M  V30 8694 H 803.022 -4.60867 0.199721 0
M  V30 8695 H 801.265 -4.33037 0.25713 0
M  V30 8696 H 801.936 -5.43884 -0.943086 0
M  V30 8697 H 804.412 -3.73273 -1.83866 0
M  V30 8698 H 803.288 -4.71165 -2.81593 0
M  V30 8699 H 803.549 -3.02355 -3.22542 0
M  V30 8700 N 802.608 0.318715 -1.54344 0
M  V30 8701 C 803.538 1.39751 -1.87061 0
M  V30 8702 C 804.519 1.53741 -0.727848 0
M  V30 8703 O 805.704 1.67541 -0.982016 0
M  V30 8704 C 802.834 2.76446 -2.10226 0
M  V30 8705 C 801.788 2.77239 -3.26071 0
M  V30 8706 C 801.114 4.17056 -3.34617 0
M  V30 8707 C 802.414 2.40555 -4.63606 0
M  V30 8708 H 804.108 1.12619 -2.77412 0
M  V30 8709 H 801.654 0.540318 -1.33479 0
M  V30 8710 H 803.607 3.51985 -2.31699 0
M  V30 8711 H 802.331 3.05066 -1.16629 0
M  V30 8712 H 800.99 2.04155 -3.04493 0
M  V30 8713 H 800.638 4.42824 -2.3857 0
M  V30 8714 H 800.338 4.18492 -4.12478 0
M  V30 8715 H 801.862 4.94401 -3.5833 0
M  V30 8716 H 803.276 3.05808 -4.84927 0
M  V30 8717 H 801.673 2.53234 -5.44052 0
M  V30 8718 H 802.743 1.35698 -4.65526 0
M  V30 8719 N 804.086 1.46499 0.581025 0
M  V30 8720 C 804.996 1.59778 1.71779 0
M  V30 8721 C 806.012 0.481223 1.67213 0
M  V30 8722 O 807.188 0.74557 1.87091 0
M  V30 8723 C 804.253 1.58626 3.08283 0
M  V30 8724 C 803.314 2.81527 3.241 0
M  V30 8725 C 802.547 2.80421 4.54092 0
M  V30 8726 O 802.77 1.89262 5.38085 0
M  V30 8727 O 801.704 3.71984 4.73193 0
M  V30 8728 H 805.53 2.55918 1.63523 0
M  V30 8729 H 803.115 1.29311 0.748267 0
M  V30 8730 H 804.997 1.60686 3.89561 0
M  V30 8731 H 803.672 0.656467 3.16973 0
M  V30 8732 H 802.579 2.85021 2.42309 0
M  V30 8733 H 803.912 3.73721 3.20302 0
M  V30 8734 N 805.565 -0.825799 1.34232 0
M  V30 8735 C 806.795 -1.61129 1.29309 0
M  V30 8736 C 807.203 -1.88714 -0.135589 0
M  V30 8737 O 806.546 -1.47703 -1.09222 0
M  V30 8738 C 806.608 -2.97866 2.01287 0
M  V30 8739 C 806.272 -2.9319 3.50555 0
M  V30 8740 C 807.269 -2.67978 4.45515 0
M  V30 8741 C 804.954 -3.12913 3.92926 0
M  V30 8742 C 806.948 -2.62536 5.80822 0
M  V30 8743 C 804.635 -3.07096 5.28333 0
M  V30 8744 C 805.633 -2.8194 6.22092 0
M  V30 8745 O 805.321 -2.7605 7.55018 0
M  V30 8746 H 805.053 -0.507652 0.446391 0
M  V30 8747 H 807.607 -1.03575 1.77374 0
M  V30 8748 H 805.837 -3.57327 1.47832 0
M  V30 8749 H 807.526 -3.58848 1.89691 0
M  V30 8750 H 808.292 -2.52478 4.14101 0
M  V30 8751 H 804.171 -3.3151 3.20347 0
M  V30 8752 H 807.715 -2.42821 6.53975 0
M  V30 8753 H 803.612 -3.22148 5.59367 0
M  V30 8754 H 804.38 -2.91798 7.6472 0
M  V30 8755 N 807.043 -1.17915 -1.04565 0
M  V30 8756 C 808.283 -0.982331 -1.79247 0
M  V30 8757 C 808.647 0.47998 -1.85904 0
M  V30 8758 O 809.848 0.796078 -2.56741 0
M  V30 8759 C 808.119 -1.61329 -3.18916 0
M  V30 8760 S 809.678 -1.56355 -4.09998 0
M  V30 8761 H 806.496 -0.352869 -0.617256 0
M  V30 8762 H 809.098 -1.49971 -1.25415 0
M  V30 8763 H 807.802 -2.66993 -3.11678 0
M  V30 8764 H 807.333 -1.09599 -3.77825 0
M  V30 8765 H 809.348 -0.57593 -4.92846 0
M  V30 8766 N 808.521 1.23394 -0.980386 0
M  V30 8767 C 809.431 2.28561 -0.528864 0
M  V30 8768 C 810.447 1.68946 0.416329 0
M  V30 8769 O 811.623 1.99355 0.286251 0
M  V30 8770 C 808.688 3.46323 0.16155 0
M  V30 8771 C 807.749 4.21297 -0.825044 0
M  V30 8772 C 806.982 5.33437 -0.167483 0
M  V30 8773 O 807.205 5.60812 1.04146 0
M  V30 8774 O 806.139 5.95637 -0.866047 0
M  V30 8775 H 809.965 2.69326 -1.40346 0
M  V30 8776 H 807.55 1.29325 -0.748019 0
M  V30 8777 H 809.432 4.17811 0.548841 0
M  V30 8778 H 808.107 3.0751 1.01092 0
M  V30 8779 H 807.014 3.52134 -1.26303 0
M  V30 8780 H 808.347 4.6396 -1.64322 0
M  V30 8781 N 809.999 0.752036 1.385 0
M  V30 8782 C 811.247 0.306895 1.99756 0
M  V30 8783 C 811.568 -1.11478 1.59992 0
M  V30 8784 O 810.838 -1.76206 0.856045 0
M  V30 8785 H 809.418 0.11048 0.738785 0
M  V30 8786 H 812.08 0.965785 1.69289 0
M  V30 8787 H 811.176 0.368797 3.09913 0
M  V30 8788 N 811.477 -1.49425 0.500989 0
M  V30 8789 C 812.425 -2.30771 -0.291149 0
M  V30 8790 C 813.419 -1.3938 -0.962787 0
M  V30 8791 O 814.625 -1.56431 -0.890477 0
M  V30 8792 H 811 -0.743499 -0.11275 0
M  V30 8793 H 812.971 -2.95501 0.414917 0
M  V30 8794 C 811.72 -3.20725 -1.34279 0
M  V30 8795 H 811.043 -3.90975 -0.83538 0
M  V30 8796 H 812.483 -3.80583 -1.86903 0
M  V30 8797 C 810.942 -2.40334 -2.36095 0
M  V30 8798 O 811.472 -2.10749 -3.41976 0
M  V30 8799 N 809.678 -2.02359 -2.08565 0
M  V30 8800 H 809.225 -2.26619 -1.22482 0
M  V30 8801 H 809.183 -1.48878 -2.76916 0
M  V30 8802 N 812.955 -0.234822 -1.55841 0
M  V30 8803 C 814.232 0.442961 -1.90518 0
M  V30 8804 C 814.612 1.76768 -1.15397 0
M  V30 8805 O 813.96 2.26928 -0.267534 0
M  V30 8806 C 814.17 0.622905 -3.43396 0
M  V30 8807 C 815.518 0.9243 -4.14417 0
M  V30 8808 O 816.542 0.709211 -3.49068 0
M  V30 8809 O 815.401 1.33323 -5.29988 0
M  V30 8810 H 812.495 0.236042 -0.792599 0
M  V30 8811 H 815.041 -0.277992 -1.67408 0
M  V30 8812 H 813.813 -0.310973 -3.90062 0
M  V30 8813 H 813.436 1.39485 -3.7233 0
M  V30 8814 N 814.433 1.57553 0.0384317 0
M  V30 8815 C 815.363 2.0898 1.04161 0
M  V30 8816 C 816.344 0.99029 1.38301 0
M  V30 8817 O 817.529 1.26499 1.47349 0
M  V30 8818 C 814.659 2.56145 2.34536 0
M  V30 8819 C 813.613 3.70275 2.14663 0
M  V30 8820 C 812.939 4.03612 3.50715 0
M  V30 8821 C 814.239 4.99067 1.54045 0
M  V30 8822 H 815.933 2.93046 0.613548 0
M  V30 8823 H 813.479 1.40973 0.293684 0
M  V30 8824 H 815.432 2.90741 3.05037 0
M  V30 8825 H 814.156 1.6915 2.79385 0
M  V30 8826 H 812.815 3.36013 1.46597 0
M  V30 8827 H 812.463 3.13698 3.93195 0
M  V30 8828 H 812.163 4.80482 3.38247 0
M  V30 8829 H 813.687 4.40735 4.22593 0
M  V30 8830 H 815.101 5.3168 2.14451 0
M  V30 8831 H 813.498 5.80484 1.52178 0
M  V30 8832 H 814.568 4.8226 0.505259 0
M  V30 8833 N 815.911 -0.310526 1.54511 0
M  V30 8834 C 817.188 -1.06593 1.64004 0
M  V30 8835 C 817.568 -2.05519 0.482216 0
M  V30 8836 O 816.916 -2.22455 -0.52212 0
M  V30 8837 C 817.126 -1.75627 3.01589 0
M  V30 8838 C 818.474 -2.28173 3.58081 0
M  V30 8839 O 819.498 -1.85674 3.03979 0
M  V30 8840 O 818.357 -3.06015 4.52788 0
M  V30 8841 H 815.451 -0.492109 0.664649 0
M  V30 8842 H 817.997 -0.309374 1.66856 0
M  V30 8843 H 816.769 -1.03743 3.77297 0
M  V30 8844 H 816.392 -2.58061 3.02473 0
M  V30 8845 N 817.389 -1.46805 -0.573248 0
M  V30 8846 C 818.636 -1.52604 -1.3311 0
M  V30 8847 C 818.964 -0.181633 -1.9365 0
M  V30 8848 O 818.219 0.823775 -1.77517 0
M  V30 8849 C 818.518 -2.58001 -2.47326 0
M  V30 8850 C 818.184 -4.01747 -2.04719 0
M  V30 8851 C 816.846 -4.40881 -1.92814 0
M  V30 8852 C 819.198 -4.92008 -1.71982 0
M  V30 8853 C 816.526 -5.68129 -1.46445 0
M  V30 8854 C 818.878 -6.19703 -1.27089 0
M  V30 8855 C 817.542 -6.57733 -1.13768 0
M  V30 8856 H 816.812 -0.558417 -0.487084 0
M  V30 8857 H 819.459 -1.80327 -0.644538 0
M  V30 8858 H 817.764 -2.23974 -3.2147 0
M  V30 8859 H 819.461 -2.59715 -3.05531 0
M  V30 8860 H 816.051 -3.70819 -2.14922 0
M  V30 8861 H 820.235 -4.62485 -1.8006 0
M  V30 8862 H 815.491 -5.96359 -1.34783 0
M  V30 8863 H 819.665 -6.89064 -1.00814 0
M  V30 8864 H 817.292 -7.56228 -0.776142 0
M  V30 8865 N 818.867 0.818669 -1.34668 0
M  V30 8866 C 820.097 1.60441 -1.30162 0
M  V30 8867 C 820.505 1.88783 0.125579 0
M  V30 8868 O 819.848 1.48281 1.08437 0
M  V30 8869 C 819.91 2.96794 -2.02864 0
M  V30 8870 C 819.574 2.91327 -3.52105 0
M  V30 8871 C 820.571 2.65611 -4.4693 0
M  V30 8872 C 818.256 3.10825 -3.9458 0
M  V30 8873 C 820.25 2.59452 -5.82206 0
M  V30 8874 C 817.937 3.0429 -5.29954 0
M  V30 8875 C 818.935 2.78637 -6.23579 0
M  V30 8876 O 818.623 2.72042 -7.56471 0
M  V30 8877 H 818.355 0.505278 -0.449077 0
M  V30 8878 H 820.909 1.02632 -1.77921 0
M  V30 8879 H 819.139 3.56538 -1.49725 0
M  V30 8880 H 820.828 3.57837 -1.91592 0
M  V30 8881 H 821.594 2.50278 -4.15434 0
M  V30 8882 H 817.473 3.29807 -3.221 0
M  V30 8883 H 821.017 2.39349 -6.55254 0
M  V30 8884 H 816.914 3.19177 -5.61067 0
M  V30 8885 H 817.682 2.87738 -7.66257 0
M  V30 8886 N 820.346 1.18468 1.03938 0
M  V30 8887 C 821.276 0.936389 2.13902 0
M  V30 8888 C 822.257 -0.126381 1.6963 0
M  V30 8889 O 823.442 0.0264757 1.94182 0
M  V30 8890 C 820.572 0.462729 3.44204 0
M  V30 8891 C 819.526 1.46613 4.02105 0
M  V30 8892 C 818.852 0.84994 5.27902 0
M  V30 8893 C 820.152 2.84323 4.3813 0
M  V30 8894 H 821.846 1.85602 2.3493 0
M  V30 8895 H 819.392 0.893806 1.12903 0
M  V30 8896 H 821.345 0.276382 4.20493 0
M  V30 8897 H 820.069 -0.492477 3.22866 0
M  V30 8898 H 818.728 1.63944 3.27899 0
M  V30 8899 H 818.376 -0.112493 5.02874 0
M  V30 8900 H 818.076 1.51988 5.67603 0
M  V30 8901 H 819.6 0.674152 6.06867 0
M  V30 8902 H 821.014 2.70636 5.054 0
M  V30 8903 H 819.411 3.48012 4.88884 0
M  V30 8904 H 820.481 3.37776 3.47901 0
M  V30 8905 N 821.824 -1.22873 0.986916 0
M  V30 8906 C 822.771 -2.2458 0.532215 0
M  V30 8907 C 823.741 -1.60375 -0.432322 0
M  V30 8908 O 824.926 -1.87775 -0.338416 0
M  V30 8909 C 822.066 -3.44761 -0.152864 0
M  V30 8910 C 821.179 -4.23501 0.852704 0
M  V30 8911 C 820.314 -5.31011 0.14176 0
M  V30 8912 C 819.353 -6.01464 1.1361 0
M  V30 8913 N 818.49 -7.00631 0.453871 0
M  V30 8914 H 823.33 -2.62838 1.40428 0
M  V30 8915 H 820.867 -1.29185 0.703543 0
M  V30 8916 H 822.825 -4.1333 -0.566926 0
M  V30 8917 H 821.455 -3.07284 -0.988756 0
M  V30 8918 H 820.507 -3.54286 1.38512 0
M  V30 8919 H 821.819 -4.72097 1.61014 0
M  V30 8920 H 820.973 -6.05805 -0.329337 0
M  V30 8921 H 819.712 -4.83373 -0.648229 0
M  V30 8922 H 818.717 -5.25456 1.61789 0
M  V30 8923 H 819.942 -6.5119 1.92686 0
M  V30 8924 H 817.888 -6.55235 -0.316791 0
M  V30 8925 H 817.805 -7.47204 1.14986 0
M  V30 8926 H 819.073 -7.795 0.00537823 0
M  V30 8927 N 823.302 -0.75937 -1.38099 0
M  V30 8928 C 824.234 -0.0956547 -2.29 0
M  V30 8929 C 825.247 0.677561 -1.4803 0
M  V30 8930 O 826.436 0.517696 -1.70828 0
M  V30 8931 C 823.536 0.88844 -3.27047 0
M  V30 8932 C 822.709 0.171652 -4.37063 0
M  V30 8933 C 821.768 1.06733 -5.15262 0
M  V30 8934 O 820.794 0.535698 -5.66674 0
M  V30 8935 N 821.996 2.39486 -5.28797 0
M  V30 8936 H 824.761 -0.876354 -2.86601 0
M  V30 8937 H 822.322 -0.61065 -1.49942 0
M  V30 8938 H 824.314 1.49079 -3.76241 0
M  V30 8939 H 822.884 1.57018 -2.70304 0
M  V30 8940 H 822.104 -0.611473 -3.89429 0
M  V30 8941 H 823.392 -0.324121 -5.07767 0
M  V30 8942 H 822.79 2.85127 -4.88589 0
M  V30 8943 H 821.347 2.94758 -5.81344 0
M  V30 8944 N 824.78 1.49157 -0.508906 0
M  V30 8945 C 825.73 2.26215 0.284705 0
M  V30 8946 C 826.714 1.31401 0.928586 0
M  V30 8947 O 827.906 1.56073 0.834877 0
M  V30 8948 C 825.035 3.15906 1.34382 0
M  V30 8949 C 824.121 4.18186 0.705785 0
M  V30 8950 N 824.512 5.05419 -0.196214 0
M  V30 8951 C 822.81 4.35425 0.965457 0
M  V30 8952 C 823.511 5.78977 -0.562222 0
M  V30 8953 N 822.487 5.43553 0.0717389 0
M  V30 8954 H 826.289 2.91033 -0.409543 0
M  V30 8955 H 823.803 1.59104 -0.325508 0
M  V30 8956 H 825.8 3.6975 1.92589 0
M  V30 8957 H 824.46 2.52642 2.03966 0
M  V30 8958 H 825.471 5.14781 -0.567526 0
M  V30 8959 H 822.148 3.83363 1.65346 0
M  V30 8960 H 823.538 6.59192 -1.30062 0
M  V30 8961 N 826.258 0.243083 1.55714 0
M  V30 8962 C 827.205 -0.658078 2.21219 0
M  V30 8963 C 828.175 -1.1742 1.17481 0
M  V30 8964 O 829.36 -1.22937 1.45915 0
M  V30 8965 C 826.5 -1.85104 2.91257 0
M  V30 8966 C 825.613 -1.3718 4.09641 0
M  V30 8967 C 824.748 -2.52403 4.67404 0
M  V30 8968 C 823.787 -2.01321 5.78045 0
M  V30 8969 N 822.924 -3.09896 6.30007 0
M  V30 8970 H 827.764 -0.0927854 2.97856 0
M  V30 8971 H 825.301 -0.0340375 1.47061 0
M  V30 8972 H 827.259 -2.55179 3.3006 0
M  V30 8973 H 825.889 -2.38887 2.17101 0
M  V30 8974 H 824.941 -0.565232 3.76177 0
M  V30 8975 H 826.253 -0.957409 4.89525 0
M  V30 8976 H 825.407 -3.30525 5.08761 0
M  V30 8977 H 824.146 -2.97142 3.86728 0
M  V30 8978 H 823.151 -1.21667 5.36169 0
M  V30 8979 H 824.376 -1.57556 6.6057 0
M  V30 8980 H 822.322 -3.54077 5.52237 0
M  V30 8981 H 822.239 -2.72776 7.05074 0
M  V30 8982 H 823.507 -3.8809 6.76023 0
M  V30 8983 N 827.736 -1.57571 -0.0300757 0
M  V30 8984 C 828.666 -2.0953 -1.03051 0
M  V30 8985 C 829.647 -0.99761 -1.37774 0
M  V30 8986 O 830.832 -1.27279 -1.46676 0
M  V30 8987 C 827.962 -2.57385 -2.33174 0
M  V30 8988 C 826.916 -3.71409 -2.12696 0
M  V30 8989 C 826.242 -4.05467 -3.4857 0
M  V30 8990 C 827.542 -4.99877 -1.51396 0
M  V30 8991 H 829.236 -2.93367 -0.597999 0
M  V30 8992 H 826.782 -1.41127 -0.286203 0
M  V30 8993 H 828.735 -2.92355 -3.03491 0
M  V30 8994 H 827.459 -1.70629 -2.78484 0
M  V30 8995 H 826.118 -3.36786 -1.44813 0
M  V30 8996 H 825.766 -3.15779 -3.91526 0
M  V30 8997 H 825.466 -4.82269 -3.35694 0
M  V30 8998 H 826.99 -4.4297 -4.2025 0
M  V30 8999 H 828.404 -5.3281 -2.11629 0
M  V30 9000 H 826.801 -5.81283 -1.49098 0
M  V30 9001 H 827.871 -4.82522 -0.479676 0
M  V30 9002 N 829.214 0.302327 -1.54673 0
M  V30 9003 C 830.147 1.39738 -1.80412 0
M  V30 9004 C 831.125 1.48813 -0.655241 0
M  V30 9005 O 832.309 1.65895 -0.89505 0
M  V30 9006 C 829.436 2.7766 -1.93966 0
M  V30 9007 C 828.482 2.86014 -3.16383 0
M  V30 9008 S 829.315 2.48246 -4.74483 0
M  V30 9009 C 830.471 3.88198 -4.90971 0
M  V30 9010 H 830.704 1.17696 -2.73011 0
M  V30 9011 H 828.237 0.500364 -1.46068 0
M  V30 9012 H 830.195 3.571 -2.0246 0
M  V30 9013 H 828.856 2.96971 -1.02307 0
M  V30 9014 H 828.049 3.87174 -3.22664 0
M  V30 9015 H 827.651 2.14568 -3.06328 0
M  V30 9016 H 829.943 4.83181 -4.74913 0
M  V30 9017 H 830.886 3.86887 -5.93063 0
M  V30 9018 H 831.294 3.78139 -4.19131 0
M  V30 9019 N 830.692 1.47107 0.565454 0
M  V30 9020 C 831.917 1.57153 1.35343 0
M  V30 9021 C 832.342 0.219247 1.86818 0
M  V30 9022 O 831.7 -0.803539 1.62521 0
M  V30 9023 C 831.748 2.59387 2.50501 0
M  V30 9024 O 830.852 2.14086 3.52478 0
M  V30 9025 H 830.193 0.528209 0.402357 0
M  V30 9026 H 832.723 1.92821 0.684189 0
M  V30 9027 H 832.733 2.79546 2.97184 0
M  V30 9028 H 831.408 3.57579 2.12391 0
M  V30 9029 H 829.985 2.03991 3.12157 0
M  V30 9030 N 832.17 -0.811516 1.35101 0
M  V30 9031 C 833.08 -1.95475 1.29718 0
M  V30 9032 C 834.096 -1.72813 0.202909 0
M  V30 9033 O 835.272 -1.96725 0.431414 0
M  V30 9034 C 832.337 -3.29975 1.06385 0
M  V30 9035 C 831.398 -3.65566 2.25077 0
M  V30 9036 C 830.631 -4.93648 2.02848 0
M  V30 9037 O 830.854 -5.617 0.992442 0
M  V30 9038 O 829.788 -5.27384 2.90087 0
M  V30 9039 H 833.614 -2.02961 2.25921 0
M  V30 9040 H 831.199 -0.948583 1.15422 0
M  V30 9041 H 833.081 -4.10506 0.951999 0
M  V30 9042 H 831.756 -3.2343 0.132294 0
M  V30 9043 H 830.663 -2.85432 2.41825 0
M  V30 9044 H 831.996 -3.7681 3.16662 0
M  V30 9045 N 833.648 -1.19017 -1.03309 0
M  V30 9046 C 834.595 -0.924088 -2.11493 0
M  V30 9047 C 835.565 0.139464 -1.65513 0
M  V30 9048 O 836.75 -0.00178761 -1.908 0
M  V30 9049 C 833.89 -0.464255 -3.41963 0
M  V30 9050 C 833.003 -1.5941 -4.01513 0
M  V30 9051 C 832.138 -1.08622 -5.19976 0
M  V30 9052 C 831.177 -2.19024 -5.71572 0
M  V30 9053 N 830.314 -1.69575 -6.81314 0
M  V30 9054 H 835.154 -1.85039 -2.33591 0
M  V30 9055 H 832.691 -0.922593 -1.14572 0
M  V30 9056 H 834.649 -0.179078 -4.16815 0
M  V30 9057 H 833.279 0.425062 -3.19989 0
M  V30 9058 H 832.331 -1.99458 -3.23915 0
M  V30 9059 H 833.643 -2.42604 -4.35826 0
M  V30 9060 H 832.797 -0.756022 -6.01971 0
M  V30 9061 H 831.536 -0.223955 -4.87186 0
M  V30 9062 H 830.541 -2.5288 -4.88193 0
M  V30 9063 H 831.766 -3.05699 -6.06403 0
M  V30 9064 H 829.712 -0.856494 -6.50385 0
M  V30 9065 H 829.629 -2.46361 -7.14732 0
M  V30 9066 H 830.897 -1.39505 -7.66915 0
M  V30 9067 N 835.127 1.22348 -0.993418 0
M  V30 9068 C 836.037 2.27987 -0.553076 0
M  V30 9069 C 837.053 1.69378 0.398386 0
M  V30 9070 O 838.229 1.99648 0.26509 0
M  V30 9071 C 835.294 3.46475 0.124809 0
M  V30 9072 C 834.355 4.20399 -0.869682 0
M  V30 9073 C 833.588 5.33229 -0.224052 0
M  V30 9074 O 833.811 5.61885 0.981915 0
M  V30 9075 O 832.745 5.94685 -0.929174 0
M  V30 9076 H 836.571 2.67822 -1.43195 0
M  V30 9077 H 834.156 1.28525 -0.761694 0
M  V30 9078 H 836.038 4.18369 0.504496 0
M  V30 9079 H 834.713 3.08565 0.978243 0
M  V30 9080 H 833.62 3.50774 -1.30031 0
M  V30 9081 H 834.953 4.62191 -1.69233 0
M  V30 9082 N 836.605 0.766683 1.37694 0
M  V30 9083 C 837.568 0.155849 2.2867 0
M  V30 9084 C 838.568 -0.633509 1.47795 0
M  V30 9085 O 839.758 -0.457844 1.68076 0
M  V30 9086 C 836.89 -0.786965 3.31692 0
M  V30 9087 H 838.083 0.957748 2.84196 0
M  V30 9088 H 835.636 0.534554 1.46875 0
M  V30 9089 H 836.371 -1.61406 2.8128 0
M  V30 9090 H 836.156 -0.223182 3.91464 0
M  V30 9091 H 837.646 -1.20994 3.99688 0
M  V30 9092 N 838.083 -1.48885 0.516809 0
M  V30 9093 C 839.499 -1.58651 0.173788 0
M  V30 9094 C 839.699 -1.52033 -1.32243 0
M  V30 9095 O 838.755 -1.40251 -2.09967 0
M  V30 9096 C 840.068 -2.90816 0.764628 0
M  V30 9097 C 841.616 -3.04316 0.732164 0
M  V30 9098 C 842.091 -4.39123 1.30135 0
M  V30 9099 N 843.582 -4.45656 1.26273 0
M  V30 9100 C 844.317 -5.48446 1.67317 0
M  V30 9101 N 843.813 -6.58258 2.16028 0
M  V30 9102 N 845.606 -5.39251 1.58635 0
M  V30 9103 H 837.757 -1.5143 1.48939 0
M  V30 9104 H 840.02 -0.718243 0.618733 0
M  V30 9105 H 839.726 -3.01275 1.81456 0
M  V30 9106 H 839.6 -3.76473 0.234113 0
M  V30 9107 H 841.987 -2.93478 -0.308975 0
M  V30 9108 H 842.068 -2.20303 1.3 0
M  V30 9109 H 841.712 -4.50714 2.34135 0
M  V30 9110 H 841.642 -5.21801 0.709305 0
M  V30 9111 H 844.133 -3.66879 0.906006 0
M  V30 9112 H 844.446 -7.32811 2.45374 0
M  V30 9113 H 842.791 -6.59257 2.20013 0
M  V30 9114 H 845.982 -4.52354 1.20387 0
M  V30 9115 H 846.155 -6.19229 1.90944 0
M  V30 9116 N 839.561 -0.251338 -1.55583 0
M  V30 9117 C 840.786 0.379136 -2.03905 0
M  V30 9118 C 841.211 1.50428 -1.12929 0
M  V30 9119 O 840.569 1.80882 -0.123114 0
M  V30 9120 C 840.617 0.86009 -3.50193 0
M  V30 9121 O 839.721 1.96932 -3.62342 0
M  V30 9122 H 839.062 0.0820183 -0.658915 0
M  V30 9123 H 841.592 -0.378692 -2.01065 0
M  V30 9124 H 841.602 1.16214 -3.91099 0
M  V30 9125 H 840.277 0.0367559 -4.15884 0
M  V30 9126 H 838.854 1.67163 -3.33333 0
M  V30 9127 N 841.039 1.57585 0.0217189 0
M  V30 9128 C 842.288 1.88786 0.710125 0
M  V30 9129 C 842.601 0.850819 1.76126 0
M  V30 9130 O 843.807 1.0523 2.50277 0
M  V30 9131 C 842.263 3.3505 1.31413 0
M  V30 9132 C 841.871 4.47001 0.298959 0
M  V30 9133 C 843.615 3.7539 1.98199 0
M  V30 9134 C 841.522 5.8433 0.911727 0
M  V30 9135 H 840.452 0.704388 0.268986 0
M  V30 9136 H 843.103 1.83466 -0.0352638 0
M  V30 9137 H 841.485 3.35138 2.10947 0
M  V30 9138 H 842.659 4.58395 -0.470203 0
M  V30 9139 H 840.974 4.15542 -0.267222 0
M  V30 9140 H 843.571 4.75314 2.4491 0
M  V30 9141 H 843.914 3.07766 2.80331 0
M  V30 9142 H 844.447 3.77508 1.2543 0
M  V30 9143 H 841.186 6.55372 0.129659 0
M  V30 9144 H 840.706 5.76643 1.65056 0
M  V30 9145 H 842.385 6.31295 1.41688 0
M  V30 9146 N 842.517 -0.29412 1.54831 0
M  V30 9147 C 843.766 -1.02614 1.73647 0
M  V30 9148 C 844.079 -1.88193 0.533162 0
M  V30 9149 O 845.285 -2.64713 0.603275 0
M  V30 9150 C 843.741 -1.87417 3.07251 0
M  V30 9151 C 843.349 -1.06806 4.35082 0
M  V30 9152 C 845.093 -2.60176 3.35423 0
M  V30 9153 C 843 -1.90926 5.59733 0
M  V30 9154 H 841.93 -0.386834 0.647206 0
M  V30 9155 H 844.581 -0.282789 1.81308 0
M  V30 9156 H 842.963 -2.65765 2.93572 0
M  V30 9157 H 844.137 -0.330226 4.59615 0
M  V30 9158 H 842.452 -0.455979 4.13896 0
M  V30 9159 H 845.049 -3.23476 4.25755 0
M  V30 9160 H 845.392 -3.29365 2.54606 0
M  V30 9161 H 845.925 -1.88871 3.50103 0
M  V30 9162 H 842.664 -1.26194 6.43238 0
M  V30 9163 H 842.184 -2.62363 5.39375 0
M  V30 9164 H 843.863 -2.48807 5.97247 0
M  V30 9165 N 843.995 -1.47404 -0.557645 0
M  V30 9166 C 844.928 -1.54399 -1.68036 0
M  V30 9167 C 845.906 -0.396175 -1.577 0
M  V30 9168 O 847.09 -0.603911 -1.78564 0
M  V30 9169 C 844.217 -1.44611 -3.06277 0
M  V30 9170 C 843.263 -2.63889 -3.35059 0
M  V30 9171 S 844.096 -4.26086 -3.24362 0
M  V30 9172 C 845.252 -4.1885 -4.65097 0
M  V30 9173 H 845.485 -2.49384 -1.61849 0
M  V30 9174 H 843.018 -1.35597 -0.738429 0
M  V30 9175 H 844.976 -1.39651 -3.86015 0
M  V30 9176 H 843.637 -0.510114 -3.0993 0
M  V30 9177 H 842.83 -2.53103 -4.35838 0
M  V30 9178 H 842.432 -2.65969 -2.62938 0
M  V30 9179 H 844.724 -3.87077 -5.56037 0
M  V30 9180 H 845.667 -5.19714 -4.8094 0
M  V30 9181 H 846.075 -3.49717 -4.43123 0
M  V30 9182 N 845.473 0.80434 -1.35529 0
M  V30 9183 C 846.405 1.92445 -1.2449 0
M  V30 9184 C 847.418 1.61934 -0.167685 0
M  V30 9185 O 848.607 1.73461 -0.42115 0
M  V30 9186 C 845.707 3.26875 -0.894751 0
M  V30 9187 C 844.88 3.85275 -2.07079 0
M  V30 9188 C 843.939 4.98116 -1.69607 0
M  V30 9189 O 842.965 5.15424 -2.41509 0
M  V30 9190 N 844.167 5.77169 -0.621012 0
M  V30 9191 H 846.932 2.02441 -2.20993 0
M  V30 9192 H 844.493 0.981874 -1.28728 0
M  V30 9193 H 846.485 3.99837 -0.625511 0
M  V30 9194 H 845.055 3.12594 -0.0193306 0
M  V30 9195 H 844.275 3.0448 -2.5037 0
M  V30 9196 H 845.563 4.21024 -2.85685 0
M  V30 9197 H 844.961 5.65695 -0.0236679 0
M  V30 9198 H 843.518 6.50499 -0.411558 0
M  V30 9199 N 846.951 1.19563 1.02676 0
M  V30 9200 C 848.2 0.993864 1.75514 0
M  V30 9201 C 848.513 -0.475882 1.89723 0
M  V30 9202 O 849.719 -0.796525 2.59553 0
M  V30 9203 C 848.175 1.72937 3.15628 0
M  V30 9204 C 847.783 3.23937 3.09466 0
M  V30 9205 C 849.527 1.61092 3.92746 0
M  V30 9206 C 847.434 3.90067 4.44524 0
M  V30 9207 H 846.364 0.368244 0.657961 0
M  V30 9208 H 849.015 1.43081 1.14891 0
M  V30 9209 H 847.397 1.22025 3.76731 0
M  V30 9210 H 848.571 3.81983 2.57731 0
M  V30 9211 H 846.886 3.3608 2.45843 0
M  V30 9212 H 849.483 2.07848 4.92649 0
M  V30 9213 H 849.826 0.565415 4.12442 0
M  V30 9214 H 850.359 2.09361 3.3825 0
M  V30 9215 H 847.098 4.94725 4.30032 0
M  V30 9216 H 846.618 3.36809 4.96306 0
M  V30 9217 H 848.297 3.93736 5.13401 0
M  V30 9218 N 848.429 -1.21819 0.999893 0
M  V30 9219 C 849.675 -1.91035 0.680701 0
M  V30 9220 C 850.008 -1.77582 -0.786021 0
M  V30 9221 O 849.283 -1.14917 -1.56921 0
M  V30 9222 C 849.566 -3.43013 1.0961 0
M  V30 9223 C 849.419 -3.65481 2.6219 0
M  V30 9224 C 850.738 -4.35204 0.654616 0
M  V30 9225 H 847.857 -0.693748 0.248763 0
M  V30 9226 H 850.499 -1.43555 1.24466 0
M  V30 9227 H 848.649 -3.83581 0.616253 0
M  V30 9228 H 850.321 -3.34273 3.17899 0
M  V30 9229 H 848.564 -3.09522 3.03938 0
M  V30 9230 H 849.235 -4.71945 2.86307 0
M  V30 9231 H 851.711 -4.0219 1.06688 0
M  V30 9232 H 850.587 -5.40198 0.973492 0
M  V30 9233 H 850.848 -4.3986 -0.444458 0
M  V30 9234 N 849.908 -0.773975 -1.37286 0
M  V30 9235 C 850.856 -0.149581 -2.32119 0
M  V30 9236 C 851.85 0.682457 -1.55045 0
M  V30 9237 O 853.056 0.579269 -1.70424 0
M  V30 9238 H 849.431 -0.0295857 -0.751418 0
M  V30 9239 H 851.402 -0.965117 -2.82362 0
M  V30 9240 C 850.151 0.713409 -3.40302 0
M  V30 9241 H 849.474 0.0825416 -3.99715 0
M  V30 9242 H 850.914 1.11723 -4.09016 0
M  V30 9243 C 849.373 1.86498 -2.80571 0
M  V30 9244 O 849.903 2.9606 -2.71498 0
M  V30 9245 N 848.109 1.66629 -2.38082 0
M  V30 9246 H 847.656 0.775145 -2.45661 0
M  V30 9247 H 847.614 2.43845 -1.98461 0
M  V30 9248 N 851.386 1.48609 -0.524698 0
M  V30 9249 C 852.349 2.28041 0.230166 0
M  V30 9250 C 853.349 1.35065 0.872584 0
M  V30 9251 O 854.539 1.58007 0.73345 0
M  V30 9252 C 851.671 3.13778 1.33252 0
M  V30 9253 H 852.864 2.96239 -0.467161 0
M  V30 9254 H 850.417 1.53763 -0.280452 0
M  V30 9255 H 851.152 2.502 2.06327 0
M  V30 9256 H 850.937 3.82165 0.877058 0
M  V30 9257 H 852.427 3.7371 1.86362 0
M  V30 9258 N 852.864 0.259585 1.55447 0
M  V30 9259 C 853.794 -0.62852 2.24882 0
M  V30 9260 C 854.775 -1.17128 1.23349 0
M  V30 9261 O 855.96 -1.20829 1.52033 0
M  V30 9262 C 853.09 -1.81983 2.95803 0
M  V30 9263 C 852.044 -1.40929 4.04132 0
M  V30 9264 C 851.37 -2.68246 4.62545 0
M  V30 9265 C 852.67 -0.570956 5.1917 0
M  V30 9266 H 854.364 -0.0495021 2.99359 0
M  V30 9267 H 851.91 -0.0223688 1.43983 0
M  V30 9268 H 853.863 -2.44689 3.43082 0
M  V30 9269 H 852.587 -2.42444 2.18835 0
M  V30 9270 H 851.246 -0.805519 3.57641 0
M  V30 9271 H 850.894 -3.26931 3.82263 0
M  V30 9272 H 850.594 -2.41495 5.35681 0
M  V30 9273 H 852.118 -3.31827 5.12565 0
M  V30 9274 H 853.532 -1.10262 5.62597 0
M  V30 9275 H 851.929 -0.398979 5.98772 0
M  V30 9276 H 852.999 0.413918 4.8313 0
M  V30 9277 N 854.342 -1.57594 -0.0133615 0
M  V30 9278 C 855.289 -2.07574 -1.00905 0
M  V30 9279 C 856.259 -0.968231 -1.34961 0
M  V30 9280 O 857.444 -1.23981 -1.45028 0
M  V30 9281 C 854.584 -2.5728 -2.30002 0
M  V30 9282 C 853.697 -3.81881 -2.01967 0
M  V30 9283 C 852.832 -4.20139 -3.25049 0
M  V30 9284 C 851.871 -5.37614 -2.92639 0
M  V30 9285 N 851.008 -5.71229 -4.08218 0
M  V30 9286 H 855.848 -2.92382 -0.575899 0
M  V30 9287 H 853.385 -1.4455 -0.272722 0
M  V30 9288 H 855.343 -2.84171 -3.05454 0
M  V30 9289 H 853.973 -1.75365 -2.71011 0
M  V30 9290 H 853.025 -3.61979 -1.16942 0
M  V30 9291 H 854.337 -4.67441 -1.74069 0
M  V30 9292 H 853.491 -4.48242 -4.08857 0
M  V30 9293 H 852.23 -3.33262 -3.56073 0
M  V30 9294 H 851.235 -5.09248 -2.07235 0
M  V30 9295 H 852.46 -6.26157 -2.62876 0
M  V30 9296 H 850.406 -4.8731 -4.39164 0
M  V30 9297 H 850.323 -6.51333 -3.83799 0
M  V30 9298 H 851.591 -6.03917 -4.92854 0
M  V30 9299 N 855.82 0.285905 -1.54985 0
M  V30 9300 C 857.05 1.03626 -1.78732 0
M  V30 9301 C 857.458 1.80896 -0.554377 0
M  V30 9302 O 856.801 1.77161 0.48578 0
M  V30 9303 C 856.863 2.05185 -2.95193 0
M  V30 9304 C 856.527 1.46973 -4.32722 0
M  V30 9305 C 857.524 0.891986 -5.12191 0
M  V30 9306 C 855.209 1.50081 -4.79355 0
M  V30 9307 C 857.203 0.353078 -6.36421 0
M  V30 9308 C 854.89 0.958037 -6.03544 0
M  V30 9309 C 855.888 0.385157 -6.81913 0
M  V30 9310 O 855.576 -0.149341 -8.03761 0
M  V30 9311 H 855.308 0.312416 -0.599477 0
M  V30 9312 H 857.862 0.326067 -2.02795 0
M  V30 9313 H 856.092 2.79928 -2.66791 0
M  V30 9314 H 857.781 2.66244 -3.0638 0
M  V30 9315 H 858.547 0.860762 -4.77301 0
M  V30 9316 H 854.426 1.9361 -4.18373 0
M  V30 9317 H 857.97 -0.0947181 -6.97536 0
M  V30 9318 H 853.867 0.986458 -6.37918 0
M  V30 9319 H 854.635 -0.0374719 -8.18491 0
M  V30 9320 N 857.298 1.47698 0.54982 0
M  V30 9321 C 858.228 1.63622 1.66583 0
M  V30 9322 C 859.209 0.485477 1.63025 0
M  V30 9323 O 860.394 0.715692 1.80531 0
M  V30 9324 C 857.524 1.65721 3.05211 0
M  V30 9325 C 856.478 2.80097 3.2362 0
M  V30 9326 C 855.804 2.67272 4.63109 0
M  V30 9327 C 857.104 4.21612 3.08286 0
M  V30 9328 H 858.798 2.57049 1.53512 0
M  V30 9329 H 856.344 1.23705 0.737099 0
M  V30 9330 H 858.297 1.75451 3.83138 0
M  V30 9331 H 857.021 0.688593 3.19258 0
M  V30 9332 H 855.68 2.69889 2.48104 0
M  V30 9333 H 855.328 1.68422 4.73965 0
M  V30 9334 H 855.028 3.44008 4.76374 0
M  V30 9335 H 856.552 2.78942 5.43161 0
M  V30 9336 H 857.966 4.32758 3.76024 0
M  V30 9337 H 856.363 4.99193 3.33057 0
M  V30 9338 H 857.433 4.39462 2.04942 0
M  V30 9339 N 858.776 -0.797141 1.35954 0
M  V30 9340 C 859.724 -1.93084 1.29697 0
M  V30 9341 C 860.718 -1.68329 0.190152 0
M  V30 9342 O 861.924 -1.7643 0.3567 0
M  V30 9343 H 858.299 -0.634531 0.403577 0
M  V30 9344 H 860.27 -1.95481 2.25455 0
M  V30 9345 C 859.019 -3.29996 1.09536 0
M  V30 9346 H 858.342 -3.49607 1.93946 0
M  V30 9347 H 859.782 -4.09696 1.09202 0
M  V30 9348 C 858.241 -3.36304 -0.200381 0
M  V30 9349 O 858.771 -3.83579 -1.19291 0
M  V30 9350 N 856.977 -2.89587 -0.242406 0
M  V30 9351 H 856.524 -2.51307 0.565897 0
M  V30 9352 H 856.482 -2.94189 -1.10906 0
M  V30 9353 N 860.254 -1.20106 -1.0204 0
M  V30 9354 C 861.164 -0.962051 -2.13967 0
M  V30 9355 C 862.18 0.0808053 -1.73812 0
M  V30 9356 O 863.356 -0.105774 -2.01122 0
M  V30 9357 C 860.421 -0.513108 -3.42882 0
M  V30 9358 C 859.482 -1.62636 -3.97301 0
M  V30 9359 C 858.715 -1.19875 -5.20063 0
M  V30 9360 O 858.938 -0.0658423 -5.70362 0
M  V30 9361 O 857.872 -2.00467 -5.67536 0
M  V30 9362 H 861.698 -1.8991 -2.36998 0
M  V30 9363 H 859.283 -0.984608 -1.12365 0
M  V30 9364 H 861.165 -0.271797 -4.20523 0
M  V30 9365 H 859.84 0.395402 -3.21276 0
M  V30 9366 H 858.747 -1.92192 -3.20957 0
M  V30 9367 H 860.08 -2.51174 -4.23288 0
M  V30 9368 N 861.732 1.21287 -1.00634 0
M  V30 9369 C 862.981 1.89706 -0.685178 0
M  V30 9370 C 863.294 1.79044 0.787566 0
M  V30 9371 O 864.5 2.42502 1.22086 0
M  V30 9372 C 862.956 3.40176 -1.17508 0
M  V30 9373 C 862.564 3.59446 -2.674 0
M  V30 9374 C 864.308 4.14213 -0.928869 0
M  V30 9375 C 862.215 5.03688 -3.09923 0
M  V30 9376 H 861.145 0.710434 -0.252586 0
M  V30 9377 H 863.796 1.37277 -1.21768 0
M  V30 9378 H 862.178 3.91867 -0.570622 0
M  V30 9379 H 863.352 3.18188 -3.33306 0
M  V30 9380 H 861.667 2.98764 -2.9005 0
M  V30 9381 H 864.264 5.20546 -1.22212 0
M  V30 9382 H 864.607 4.16082 0.134859 0
M  V30 9383 H 865.14 3.68591 -1.49619 0
M  V30 9384 H 861.879 5.06968 -4.15529 0
M  V30 9385 H 861.399 5.45796 -2.4873 0
M  V30 9386 H 863.078 5.72204 -3.0198 0
M  V30 9387 N 863.21 0.781244 1.36873 0
M  V30 9388 C 864.157 0.172146 2.30157 0
M  V30 9389 C 865.127 -0.679328 1.51573 0
M  V30 9390 O 866.312 -0.629713 1.80109 0
M  V30 9391 C 863.452 -0.693534 3.38059 0
M  V30 9392 C 862.565 0.175586 4.31643 0
M  V30 9393 C 861.7 -0.695695 5.26625 0
M  V30 9394 C 860.739 0.17538 6.11849 0
M  V30 9395 N 859.876 -0.654416 6.99043 0
M  V30 9396 H 864.716 0.973133 2.81663 0
M  V30 9397 H 862.253 0.491469 1.38647 0
M  V30 9398 H 864.211 -1.21035 3.99257 0
M  V30 9399 H 862.841 -1.46003 2.87894 0
M  V30 9400 H 861.893 0.810295 3.7167 0
M  V30 9401 H 863.205 0.847107 4.91554 0
M  V30 9402 H 862.359 -1.27863 5.93073 0
M  V30 9403 H 861.098 -1.40087 4.67148 0
M  V30 9404 H 860.103 0.77078 5.4437 0
M  V30 9405 H 861.328 0.87803 6.734 0
M  V30 9406 H 859.274 -1.34403 6.42084 0
M  V30 9407 H 859.191 -0.0403998 7.55989 0
M  V30 9408 H 860.459 -1.22144 7.69871 0
M  V30 9409 N 864.689 -1.48329 0.532571 0
M  V30 9410 C 866.1 -1.86469 0.0927749 0
M  V30 9411 C 866.451 -1.44186 -1.3306 0
M  V30 9412 O 865.576 -0.833741 -1.99694 0
M  V30 9413 C 866.171 -3.38414 0.161588 0
M  V30 9414 C 864.73 -3.75739 -0.223028 0
M  V30 9415 C 863.877 -2.72377 0.520199 0
M  V30 9416 H 866.828 -1.40197 0.743678 0
M  V30 9417 H 866.849 -3.75314 -0.626059 0
M  V30 9418 H 866.361 -3.69159 1.19765 0
M  V30 9419 H 864.462 -3.50608 -1.26113 0
M  V30 9420 H 864.575 -4.78954 0.118385 0
M  V30 9421 H 862.939 -2.54678 -0.0338425 0
M  V30 9422 H 863.722 -3.05965 1.55694 0
M  V30 9423 N 866.167 -0.267825 -1.55308 0
M  V30 9424 C 867.578 0.231344 -1.85261 0
M  V30 9425 C 867.929 1.56006 -1.18982 0
M  V30 9426 O 867.054 2.1111 -0.475554 0
M  V30 9427 C 867.649 0.426537 -3.36104 0
M  V30 9428 C 866.208 0.869945 -3.66209 0
M  V30 9429 C 865.355 -0.0409522 -2.7727 0
M  V30 9430 H 868.306 -0.489821 -1.50952 0
M  V30 9431 H 868.327 1.26616 -3.58816 0
M  V30 9432 H 867.839 -0.540678 -3.84315 0
M  V30 9433 H 865.94 1.84889 -3.23492 0
M  V30 9434 H 866.053 0.712316 -4.73775 0
M  V30 9435 H 864.417 0.474097 -2.50249 0
M  V30 9436 H 865.2 -1.00392 -3.28293 0
M  V30 9437 N 867.645 1.57599 0.00500368 0
M  V30 9438 C 868.894 1.89528 0.690061 0
M  V30 9439 C 869.207 0.869451 1.75214 0
M  V30 9440 O 870.413 1.07879 2.49147 0
M  V30 9441 C 868.869 3.36425 1.27852 0
M  V30 9442 C 868.477 4.47293 0.251531 0
M  V30 9443 C 870.221 3.77471 1.94206 0
M  V30 9444 C 868.128 5.85264 0.8497 0
M  V30 9445 H 867.058 0.707201 0.2615 0
M  V30 9446 H 869.709 1.83418 -0.0547209 0
M  V30 9447 H 868.091 3.37356 2.07381 0
M  V30 9448 H 869.265 4.5787 -0.518796 0
M  V30 9449 H 867.58 4.15235 -0.311281 0
M  V30 9450 H 870.177 4.77884 2.39855 0
M  V30 9451 H 870.52 3.10722 2.77051 0
M  V30 9452 H 871.053 3.78817 1.21419 0
M  V30 9453 H 867.792 6.55472 0.0601408 0
M  V30 9454 H 867.312 5.78361 1.5893 0
M  V30 9455 H 868.991 6.32762 1.34984 0
M  V30 9456 N 869.123 -0.277682 1.55134 0
M  V30 9457 C 870.372 -1.00766 1.74726 0
M  V30 9458 C 870.685 -1.87617 0.553092 0
M  V30 9459 O 871.891 -2.64058 0.631318 0
M  V30 9460 C 870.347 -1.84147 3.09221 0
M  V30 9461 C 869.955 -1.02186 4.3619 0
M  V30 9462 C 871.699 -2.56604 3.38164 0
M  V30 9463 C 869.606 -1.84978 5.61727 0
M  V30 9464 H 868.536 -0.379948 0.651273 0
M  V30 9465 H 871.187 -0.263543 1.81598 0
M  V30 9466 H 869.569 -2.62637 2.96375 0
M  V30 9467 H 870.743 -0.281459 4.5994 0
M  V30 9468 H 869.058 -0.412054 4.14356 0
M  V30 9469 H 871.655 -3.18942 4.29162 0
M  V30 9470 H 871.998 -3.26647 2.58085 0
M  V30 9471 H 872.531 -1.85147 3.52087 0
M  V30 9472 H 869.27 -1.19365 6.4454 0
M  V30 9473 H 868.79 -2.56628 5.42128 0
M  V30 9474 H 870.469 -2.42458 5.99853 0
M  V30 9475 N 870.601 -1.47988 -0.541979 0
M  V30 9476 C 871.551 -1.58019 -1.64359 0
M  V30 9477 C 872.535 -0.438056 -1.54822 0
M  V30 9478 O 873.727 -0.688837 -1.63046 0
M  V30 9479 C 870.856 -1.61182 -3.03109 0
M  V30 9480 C 869.942 -2.80834 -3.17794 0
M  V30 9481 N 870.333 -4.05379 -3.02492 0
M  V30 9482 C 868.631 -2.77914 -3.48826 0
M  V30 9483 C 869.332 -4.85592 -3.20274 0
M  V30 9484 N 868.308 -4.18188 -3.47304 0
M  V30 9485 H 872.11 -2.52071 -1.5112 0
M  V30 9486 H 869.624 -1.44193 -0.747137 0
M  V30 9487 H 871.621 -1.66461 -3.82226 0
M  V30 9488 H 870.281 -0.682375 -3.17449 0
M  V30 9489 H 871.292 -4.36003 -2.79503 0
M  V30 9490 H 867.969 -1.94174 -3.69598 0
M  V30 9491 H 869.359 -5.94394 -3.13282 0
M  V30 9492 N 872.079 0.78992 -1.36375 0
M  V30 9493 C 873.309 1.57644 -1.33536 0
M  V30 9494 C 873.717 1.89007 0.0855075 0
M  V30 9495 O 873.06 1.50547 1.05267 0
M  V30 9496 C 873.122 2.92424 -2.09113 0
M  V30 9497 C 872.786 2.83793 -3.58205 0
M  V30 9498 C 873.783 2.56072 -4.52464 0
M  V30 9499 C 871.468 3.02386 -4.01084 0
M  V30 9500 C 873.462 2.47044 -5.87578 0
M  V30 9501 C 871.149 2.9298 -5.36289 0
M  V30 9502 C 872.147 2.65347 -6.29349 0
M  V30 9503 O 871.835 2.55935 -7.62071 0
M  V30 9504 H 871.567 0.495639 -0.459694 0
M  V30 9505 H 874.121 0.988354 -1.80058 0
M  V30 9506 H 872.351 3.53282 -1.57254 0
M  V30 9507 H 874.04 3.53693 -1.99139 0
M  V30 9508 H 874.806 2.4141 -4.2065 0
M  V30 9509 H 870.685 3.229 -3.29023 0
M  V30 9510 H 874.229 2.25396 -6.60184 0
M  V30 9511 H 870.126 3.07204 -5.67711 0
M  V30 9512 H 870.894 2.7142 -7.72187 0
M  V30 9513 N 873.557 1.20646 1.01402 0
M  V30 9514 C 874.834 0.927176 1.72229 0
M  V30 9515 C 875.214 -0.563382 2.03443 0
M  V30 9516 O 874.562 -1.52576 1.70096 0
M  V30 9517 C 874.772 1.80285 2.98828 0
M  V30 9518 C 876.12 2.04624 3.72041 0
M  V30 9519 O 877.144 1.77559 3.0879 0
M  V30 9520 O 876.003 2.50347 4.85787 0
M  V30 9521 H 873.097 0.346891 0.75073 0
M  V30 9522 H 875.643 1.31532 1.07227 0
M  V30 9523 H 874.415 2.81204 2.72102 0
M  V30 9524 H 874.038 1.41495 3.71571 0
M  V30 9525 N 875.035 -1.20752 1.01276 0
M  V30 9526 C 875.965 -2.25658 0.600064 0
M  V30 9527 C 876.946 -1.65733 -0.38298 0
M  V30 9528 O 878.131 -1.92324 -0.269256 0
M  V30 9529 C 875.261 -3.47237 -0.0663197 0
M  V30 9530 C 874.215 -4.1973 0.83731 0
M  V30 9531 C 873.541 -5.34687 0.0369102 0
M  V30 9532 C 874.841 -4.76286 2.14357 0
M  V30 9533 H 876.535 -2.60432 1.477 0
M  V30 9534 H 874.081 -1.25187 0.711634 0
M  V30 9535 H 876.034 -4.19803 -0.366563 0
M  V30 9536 H 874.758 -3.11615 -0.977944 0
M  V30 9537 H 873.417 -3.49024 1.1215 0
M  V30 9538 H 873.065 -4.95309 -0.876244 0
M  V30 9539 H 872.765 -5.84119 0.63865 0
M  V30 9540 H 874.289 -6.10059 -0.256968 0
M  V30 9541 H 875.703 -5.40691 1.90595 0
M  V30 9542 H 874.1 -5.36139 2.69583 0
M  V30 9543 H 875.17 -3.9524 2.80916 0
M  V30 9544 N 876.513 -0.788492 -1.36457 0
M  V30 9545 C 877.46 -0.18435 -2.30063 0
M  V30 9546 C 878.43 0.67128 -1.51931 0
M  V30 9547 O 879.615 0.620152 -1.8044 0
M  V30 9548 C 876.755 0.675596 -3.38422 0
M  V30 9549 C 875.868 -0.198475 -4.31544 0
M  V30 9550 C 875.003 0.667757 -5.26986 0
M  V30 9551 C 874.042 -0.207825 -6.11747 0
M  V30 9552 N 873.179 0.617335 -6.99381 0
M  V30 9553 H 878.019 -0.988056 -2.81143 0
M  V30 9554 H 875.556 -0.498815 -1.38384 0
M  V30 9555 H 877.514 1.18916 -3.99894 0
M  V30 9556 H 876.144 1.44474 -2.88664 0
M  V30 9557 H 875.196 -0.829995 -3.71235 0
M  V30 9558 H 876.508 -0.873163 -4.91098 0
M  V30 9559 H 875.662 1.24716 -5.93743 0
M  V30 9560 H 874.401 1.37607 -4.67884 0
M  V30 9561 H 873.406 -0.799638 -5.43954 0
M  V30 9562 H 874.631 -0.913729 -6.72925 0
M  V30 9563 H 872.577 1.30996 -6.42788 0
M  V30 9564 H 872.494 0.000307255 -7.56 0
M  V30 9565 H 873.762 1.1806 -7.70508 0
M  V30 9566 N 877.991 1.48044 -0.54043 0
M  V30 9567 C 879.402 1.86418 -0.102662 0
M  V30 9568 C 879.753 1.4489 1.32293 0
M  V30 9569 O 878.878 0.844319 1.99249 0
M  V30 9570 C 879.473 3.38324 -0.179533 0
M  V30 9571 C 878.032 3.75852 0.203098 0
M  V30 9572 C 877.179 2.72097 -0.534637 0
M  V30 9573 H 880.13 1.398 -0.751103 0
M  V30 9574 H 880.151 3.75641 0.606147 0
M  V30 9575 H 879.663 3.68518 -1.21721 0
M  V30 9576 H 877.764 3.51272 1.24252 0
M  V30 9577 H 877.877 4.78884 -0.143784 0
M  V30 9578 H 876.241 2.54692 0.0203358 0
M  V30 9579 H 877.024 3.05135 -1.57314 0
M  V30 9580 N 879.47 0.276058 1.55163 0
M  V30 9581 C 880.718 -0.339782 1.99223 0
M  V30 9582 C 881.039 -1.56307 1.16589 0
M  V30 9583 O 880.309 -1.94225 0.25564 0
M  V30 9584 H 878.889 -0.128534 0.735859 0
M  V30 9585 H 881.551 0.381612 1.91128 0
M  V30 9586 H 880.647 -0.629 3.05696 0
M  V30 9587 N 880.948 -1.576 0.00335426 0
M  V30 9588 C 881.896 -2.09759 -1.00517 0
M  V30 9589 C 882.89 -1.01833 -1.35375 0
M  V30 9590 O 884.096 -1.20294 -1.339 0
M  V30 9591 H 880.471 -0.669821 -0.341825 0
M  V30 9592 H 882.442 -2.93478 -0.539718 0
M  V30 9593 C 881.191 -2.6189 -2.28711 0
M  V30 9594 H 880.514 -3.44571 -2.02758 0
M  V30 9595 H 881.954 -3.02061 -2.97548 0
M  V30 9596 C 880.413 -1.53455 -2.99922 0
M  V30 9597 O 880.943 -0.919402 -3.91037 0
M  V30 9598 N 879.149 -1.2612 -2.61806 0
M  V30 9599 H 878.696 -1.76329 -1.87792 0
M  V30 9600 H 878.654 -0.537872 -3.09765 0
M  V30 9601 N 882.426 0.269451 -1.5528 0
M  V30 9602 C 883.675 0.998381 -1.75258 0
M  V30 9603 C 883.988 1.87321 -0.563034 0
M  V30 9604 O 885.194 2.63719 -0.645313 0
M  V30 9605 C 883.65 1.82505 -3.10193 0
M  V30 9606 C 883.258 0.99871 -4.36726 0
M  V30 9607 C 885.002 2.54807 -3.3952 0
M  V30 9608 C 882.909 1.81997 -5.627 0
M  V30 9609 H 881.839 0.376488 -0.653278 0
M  V30 9610 H 884.49 0.253909 -1.81735 0
M  V30 9611 H 882.872 2.61061 -2.97763 0
M  V30 9612 H 884.046 0.257064 -4.60082 0
M  V30 9613 H 882.361 0.390074 -4.14569 0
M  V30 9614 H 884.958 3.16662 -4.30847 0
M  V30 9615 H 885.301 3.25273 -2.59813 0
M  V30 9616 H 885.834 1.83278 -3.53064 0
M  V30 9617 H 882.573 1.15945 -6.45164 0
M  V30 9618 H 882.093 2.53749 -5.43481 0
M  V30 9619 H 883.772 2.39274 -6.0113 0
M  V30 9620 N 883.904 1.48273 0.534124 0
M  V30 9621 C 884.834 1.6538 1.64839 0
M  V30 9622 C 885.815 0.502741 1.62501 0
M  V30 9623 O 887 0.734799 1.79762 0
M  V30 9624 C 884.13 1.68949 3.03436 0
M  V30 9625 C 883.084 2.83513 3.20631 0
M  V30 9626 C 882.41 2.72169 4.60248 0
M  V30 9627 C 883.71 4.24858 3.03797 0
M  V30 9628 H 885.404 2.58663 1.50777 0
M  V30 9629 H 882.95 1.24479 0.723937 0
M  V30 9630 H 884.903 1.79505 3.81256 0
M  V30 9631 H 883.627 0.722415 3.1851 0
M  V30 9632 H 882.286 2.72505 2.45227 0
M  V30 9633 H 881.934 1.7344 4.72152 0
M  V30 9634 H 881.634 3.49042 4.72698 0
M  V30 9635 H 883.158 2.84687 5.40172 0
M  V30 9636 H 884.572 4.36721 3.71413 0
M  V30 9637 H 882.969 5.02697 3.27743 0
M  V30 9638 H 884.039 4.41611 2.0027 0
M  V30 9639 N 885.382 -0.782676 1.36792 0
M  V30 9640 C 886.312 -1.90973 1.34356 0
M  V30 9641 C 887.293 -1.6875 0.213917 0
M  V30 9642 O 888.478 -1.89766 0.412601 0
M  V30 9643 C 885.608 -3.28097 1.13884 0
M  V30 9644 C 884.562 -3.6486 2.23744 0
M  V30 9645 C 883.888 -5.00406 1.88408 0
M  V30 9646 C 885.188 -3.72742 3.6587 0
M  V30 9647 H 886.882 -1.93268 2.28665 0
M  V30 9648 H 884.428 -0.928447 1.10072 0
M  V30 9649 H 886.381 -4.06569 1.10813 0
M  V30 9650 H 885.105 -3.26206 0.160275 0
M  V30 9651 H 883.764 -2.88689 2.25952 0
M  V30 9652 H 883.412 -4.95044 0.891083 0
M  V30 9653 H 883.112 -5.25973 2.61966 0
M  V30 9654 H 884.636 -5.81291 1.86905 0
M  V30 9655 H 886.05 -4.4139 3.65852 0
M  V30 9656 H 884.447 -4.09798 4.38389 0
M  V30 9657 H 885.517 -2.73676 4.00287 0
M  V30 9658 N 886.86 -1.21182 -1.00761 0
M  V30 9659 C 888.106 -1.02898 -1.74756 0
M  V30 9660 C 888.439 0.436774 -1.89225 0
M  V30 9661 O 887.714 1.32415 -1.42466 0
M  V30 9662 C 887.997 -1.72372 -3.16164 0
M  V30 9663 C 887.85 -3.2645 -3.09435 0
M  V30 9664 C 889.169 -1.46415 -4.15031 0
M  V30 9665 H 886.288 -0.375214 -0.634337 0
M  V30 9666 H 888.93 -1.49321 -1.17487 0
M  V30 9667 H 887.08 -1.32906 -3.65059 0
M  V30 9668 H 888.752 -3.75269 -2.68274 0
M  V30 9669 H 886.995 -3.56889 -2.46603 0
M  V30 9670 H 887.666 -3.70226 -4.09435 0
M  V30 9671 H 890.142 -1.80671 -3.7483 0
M  V30 9672 H 889.018 -1.97544 -5.12121 0
M  V30 9673 H 889.279 -0.39361 -4.40344 0
M  V30 9674 N 888.338 1.20213 -1.01915 0
M  V30 9675 C 889.286 2.25125 -0.584936 0
M  V30 9676 C 890.28 1.65138 0.377602 0
M  V30 9677 O 891.486 1.78294 0.247245 0
M  V30 9678 H 887.861 0.732333 -0.170858 0
M  V30 9679 H 889.832 2.59075 -1.48063 0
M  V30 9680 C 888.581 3.47651 0.058389 0
M  V30 9681 H 887.904 3.9409 -0.673263 0
M  V30 9682 H 889.344 4.2275 0.325285 0
M  V30 9683 C 887.803 3.10725 1.30199 0
M  V30 9684 O 888.333 3.22491 2.39505 0
M  V30 9685 N 886.539 2.6525 1.18706 0
M  V30 9686 H 886.086 2.55875 0.297618 0
M  V30 9687 H 886.044 2.40913 2.02011 0
M  V30 9688 N 889.816 0.795718 1.36037 0
M  V30 9689 C 891.064 0.370291 1.98679 0
M  V30 9690 C 891.385 -1.06332 1.63458 0
M  V30 9691 O 890.655 -1.73394 0.911671 0
M  V30 9692 H 889.235 0.133928 0.734896 0
M  V30 9693 H 891.897 1.01915 1.6613 0
M  V30 9694 H 890.993 0.467207 3.08583 0
M  V30 9695 N 891.294 -1.47756 0.548274 0
M  V30 9696 C 892.522 -2.06884 0.0254873 0
M  V30 9697 C 892.937 -1.40225 -1.26422 0
M  V30 9698 O 892.294 -0.495776 -1.75637 0
M  V30 9699 C 892.345 -3.61036 -0.183134 0
M  V30 9700 O 892.066 -4.25195 1.05549 0
M  V30 9701 C 893.567 -4.37008 -0.744222 0
M  V30 9702 H 890.787 -0.669697 0.041789 0
M  V30 9703 H 893.331 -1.89888 0.759138 0
M  V30 9704 H 891.486 -3.77576 -0.866886 0
M  V30 9705 H 891.9 -5.17606 0.847629 0
M  V30 9706 H 893.374 -5.45579 -0.839529 0
M  V30 9707 H 893.851 -4.0268 -1.75344 0
M  V30 9708 H 894.457 -4.25191 -0.0964542 0
M  V30 9709 N 892.772 -0.284283 -1.55015 0
M  V30 9710 C 893.735 0.586182 -2.21577 0
M  V30 9711 C 894.735 1.07427 -1.1965 0
M  V30 9712 O 895.925 0.972977 -1.44495 0
M  V30 9713 C 893.057 1.80973 -2.88897 0
M  V30 9714 H 894.25 0.00487253 -2.999 0
M  V30 9715 H 891.803 -0.0349696 -1.56261 0
M  V30 9716 H 892.538 2.43131 -2.14611 0
M  V30 9717 H 892.323 1.46757 -3.636 0
M  V30 9718 H 893.813 2.42853 -3.39724 0
M  V30 9719 N 894.251 1.57596 -0.0117121 0
M  V30 9720 C 895.491 1.92932 0.675031 0
M  V30 9721 C 895.855 0.887004 1.70283 0
M  V30 9722 O 897.056 1.12599 2.4408 0
M  V30 9723 C 895.327 3.3327 1.29098 0
M  V30 9724 S 896.886 3.90509 2.00121 0
M  V30 9725 H 893.704 0.675226 0.22269 0
M  V30 9726 H 896.306 1.9537 -0.071208 0
M  V30 9727 H 895.01 4.0696 0.530262 0
M  V30 9728 H 894.541 3.34233 2.0749 0
M  V30 9729 H 896.556 3.72532 3.27771 0
M  V30 9730 N 895.729 -0.261212 1.5542 0
M  V30 9731 C 896.977 -0.989272 1.76232 0
M  V30 9732 C 897.298 -1.86389 0.573067 0
M  V30 9733 O 896.568 -1.91526 -0.41166 0
M  V30 9734 H 895.148 -0.368256 0.64992 0
M  V30 9735 H 897.81 -0.282603 1.9284 0
M  V30 9736 H 896.906 -1.61935 2.66802 0
M  V30 9737 N 897.207 -1.48554 -0.526253 0
M  V30 9738 C 898.117 -1.66044 -1.65731 0
M  V30 9739 C 899.133 -0.542951 -1.65312 0
M  V30 9740 O 900.309 -0.814495 -1.84195 0
M  V30 9741 C 897.374 -1.69959 -3.02184 0
M  V30 9742 C 896.435 -2.93362 -3.13428 0
M  V30 9743 C 895.668 -2.97081 -4.43372 0
M  V30 9744 O 895.891 -2.09103 -5.3069 0
M  V30 9745 O 894.825 -3.8929 -4.59061 0
M  V30 9746 H 898.651 -2.61811 -1.53912 0
M  V30 9747 H 896.236 -1.31999 -0.699759 0
M  V30 9748 H 898.118 -1.75033 -3.83329 0
M  V30 9749 H 896.793 -0.773658 -3.14319 0
M  V30 9750 H 895.7 -2.93818 -2.31564 0
M  V30 9751 H 897.033 -3.85352 -3.06211 0
M  V30 9752 N 898.685 0.775411 -1.37205 0
M  V30 9753 C 899.934 1.52909 -1.31536 0
M  V30 9754 C 900.247 1.9535 0.0989374 0
M  V30 9755 O 901.453 2.70072 0.278079 0
M  V30 9756 C 899.909 2.761 -2.30861 0
M  V30 9757 C 899.517 2.40773 -3.77799 0
M  V30 9758 C 901.261 3.54052 -2.34195 0
M  V30 9759 C 899.168 3.60444 -4.68865 0
M  V30 9760 H 898.098 0.574061 -0.488845 0
M  V30 9761 H 900.749 0.849642 -1.62645 0
M  V30 9762 H 899.131 3.45916 -1.92764 0
M  V30 9763 H 900.305 1.78764 -4.24712 0
M  V30 9764 H 898.62 1.76004 -3.77375 0
M  V30 9765 H 901.217 4.42992 -2.99437 0
M  V30 9766 H 901.56 3.93649 -1.35449 0
M  V30 9767 H 902.093 2.91229 -2.7098 0
M  V30 9768 H 898.832 3.25932 -5.68725 0
M  V30 9769 H 898.352 4.21571 -4.26659 0
M  V30 9770 H 900.031 4.27302 -4.85821 0
M  V30 9771 N 900.163 1.21714 1.00117 0
M  V30 9772 C 901.11 0.979837 2.08968 0
M  V30 9773 C 902.08 -0.0955324 1.65825 0
M  V30 9774 O 903.265 0.0523742 1.90728 0
M  V30 9775 C 900.405 0.554758 3.40612 0
M  V30 9776 C 899.518 1.69999 3.97145 0
M  V30 9777 C 898.653 1.2237 5.16913 0
M  V30 9778 C 897.692 2.34101 5.65564 0
M  V30 9779 N 896.829 1.87579 6.76579 0
M  V30 9780 H 901.669 1.91167 2.28602 0
M  V30 9781 H 899.206 0.952645 1.12085 0
M  V30 9782 H 901.164 0.289526 4.16194 0
M  V30 9783 H 899.794 -0.340073 3.21004 0
M  V30 9784 H 898.846 2.07976 3.18512 0
M  V30 9785 H 900.158 2.54074 4.29241 0
M  V30 9786 H 899.312 0.915358 5.99755 0
M  V30 9787 H 898.051 0.353045 4.8642 0
M  V30 9788 H 897.056 2.65734 4.81316 0
M  V30 9789 H 898.281 3.21669 5.98085 0
M  V30 9790 H 896.227 1.02863 6.47885 0
M  V30 9791 H 896.144 2.65225 7.07949 0
M  V30 9792 H 897.412 1.5979 7.62947 0
M  V30 9793 N 901.641 -1.19671 1.02551 0
M  V30 9794 C 902.89 -1.88591 0.715272 0
M  V30 9795 C 903.203 -1.80274 -0.758982 0
M  V30 9796 O 904.409 -2.44413 -1.18213 0
M  V30 9797 C 902.865 -3.38264 1.22905 0
M  V30 9798 C 902.473 -3.55146 2.73084 0
M  V30 9799 C 904.217 -4.12683 0.994649 0
M  V30 9800 C 902.124 -4.98693 3.17897 0
M  V30 9801 H 901.054 -0.706326 0.263857 0
M  V30 9802 H 903.705 -1.35322 1.23936 0
M  V30 9803 H 902.087 -3.9091 0.632892 0
M  V30 9804 H 903.261 -3.12845 3.38326 0
M  V30 9805 H 901.576 -2.94112 2.94766 0
M  V30 9806 H 904.173 -5.18536 1.30478 0
M  V30 9807 H 904.516 -4.16243 -0.0686466 0
M  V30 9808 H 905.049 -3.66164 1.55464 0
M  V30 9809 H 901.788 -5.00293 4.23542 0
M  V30 9810 H 901.308 -5.4177 2.57381 0
M  V30 9811 H 902.987 -5.67327 3.11045 0
M  V30 9812 N 903.119 -0.802921 -1.35613 0
M  V30 9813 C 904.347 -0.39393 -2.03115 0
M  V30 9814 C 904.762 0.993961 -1.60517 0
M  V30 9815 O 904.119 1.63984 -0.800973 0
M  V30 9816 C 904.17 -0.463486 -3.58516 0
M  V30 9817 O 903.891 -1.79666 -3.99565 0
M  V30 9818 C 905.392 -0.0468377 -4.43275 0
M  V30 9819 H 902.612 -0.160519 -0.651517 0
M  V30 9820 H 905.156 -1.08552 -1.73311 0
M  V30 9821 H 903.311 0.179821 -3.86982 0
M  V30 9822 H 903.725 -1.75688 -4.942 0
M  V30 9823 H 905.199 -0.146626 -5.51805 0
M  V30 9824 H 905.676 1.00741 -4.2749 0
M  V30 9825 H 906.282 -0.663158 -4.20098 0
M  V30 9826 N 904.597 1.47463 -0.556102 0
M  V30 9827 C 905.874 1.9557 0.0339892 0
M  V30 9828 C 906.254 1.49869 1.48669 0
M  V30 9829 O 905.602 0.737019 2.16288 0
M  V30 9830 C 905.812 3.48826 -0.110343 0
M  V30 9831 C 907.16 4.24585 0.0355716 0
M  V30 9832 O 908.184 3.5618 -0.0378356 0
M  V30 9833 O 907.043 5.46158 0.193299 0
M  V30 9834 H 904.137 0.824461 0.0647521 0
M  V30 9835 H 906.683 1.57868 -0.622547 0
M  V30 9836 H 905.455 3.74891 -1.12126 0
M  V30 9837 H 905.078 3.9329 0.583855 0
M  V30 9838 N 906.075 0.2925 1.54862 0
M  V30 9839 C 907.322 -0.319263 1.99967 0
M  V30 9840 C 907.65 -1.54547 1.18092 0
M  V30 9841 O 906.905 -1.94186 0.242969 0
M  V30 9842 C 907.204 -0.728674 3.49893 0
M  V30 9843 C 906.87 0.394836 4.49168 0
M  V30 9844 C 905.532 0.703289 4.76033 0
M  V30 9845 C 907.884 1.15103 5.08331 0
M  V30 9846 C 905.212 1.77121 5.59325 0
M  V30 9847 C 907.564 2.20881 5.92785 0
M  V30 9848 C 906.228 2.52342 6.17964 0
M  V30 9849 H 905.498 -0.116827 0.731733 0
M  V30 9850 H 908.145 0.40983 1.87063 0
M  V30 9851 H 906.45 -1.53772 3.60363 0
M  V30 9852 H 908.147 -1.21305 3.82212 0
M  V30 9853 H 904.737 0.144319 4.28357 0
M  V30 9854 H 908.921 0.92599 4.87585 0
M  V30 9855 H 904.177 2.01978 5.77074 0
M  V30 9856 H 908.351 2.79939 6.37657 0
M  V30 9857 H 905.978 3.35225 6.82296 0
M  V30 9858 N 907.553 -1.57587 0.0200696 0
M  V30 9859 C 908.801 -1.91046 -0.65922 0
M  V30 9860 C 909.122 -0.896197 -1.73186 0
M  V30 9861 O 908.392 0.0635952 -1.95797 0
M  V30 9862 H 906.972 -0.705163 -0.246483 0
M  V30 9863 H 909.634 -1.94789 0.0657368 0
M  V30 9864 H 908.73 -2.91399 -1.11773 0
M  V30 9865 N 909.032 0.252966 -1.55557 0
M  V30 9866 C 909.962 1.31691 -1.9282 0
M  V30 9867 C 910.943 1.50516 -0.7924 0
M  V30 9868 O 912.128 1.63225 -1.05219 0
M  V30 9869 C 909.258 2.67281 -2.21762 0
M  V30 9870 C 908.212 2.6316 -3.37536 0
M  V30 9871 C 907.538 4.02488 -3.52005 0
M  V30 9872 C 908.838 2.20675 -4.73392 0
M  V30 9873 H 910.532 1.00751 -2.81939 0
M  V30 9874 H 908.078 0.483219 -1.3565 0
M  V30 9875 H 910.031 3.41842 -2.46419 0
M  V30 9876 H 908.755 2.99845 -1.29463 0
M  V30 9877 H 907.414 1.91057 -3.12878 0
M  V30 9878 H 907.062 4.32307 -2.57137 0
M  V30 9879 H 906.762 4.00621 -4.29857 0
M  V30 9880 H 908.286 4.78758 -3.78977 0
M  V30 9881 H 909.7 2.84965 -4.97461 0
M  V30 9882 H 908.097 2.29931 -5.54303 0
M  V30 9883 H 909.167 1.15831 -4.70862 0
M  V30 9884 N 910.51 1.48831 0.518367 0
M  V30 9885 C 911.735 1.61379 1.30275 0
M  V30 9886 C 912.16 0.278571 1.86026 0
M  V30 9887 O 911.518 -0.751427 1.64995 0
M  V30 9888 C 911.566 2.67225 2.42122 0
M  V30 9889 O 910.67 2.25192 3.45489 0
M  V30 9890 H 910.011 0.540742 0.385349 0
M  V30 9891 H 912.541 1.949 0.622498 0
M  V30 9892 H 912.551 2.88859 2.8814 0
M  V30 9893 H 911.226 3.64155 2.00907 0
M  V30 9894 H 909.803 2.13819 3.05509 0
M  V30 9895 N 911.988 -0.768124 1.37614 0
M  V30 9896 C 912.935 -1.88151 1.33671 0
M  V30 9897 C 913.905 -1.64871 0.201645 0
M  V30 9898 O 915.09 -1.86739 0.391582 0
M  V30 9899 C 912.23 -3.25264 1.15314 0
M  V30 9900 C 911.343 -3.60473 2.38082 0
M  V30 9901 C 910.478 -4.86814 2.12569 0
M  V30 9902 C 909.517 -5.14765 3.31184 0
M  V30 9903 N 908.654 -6.32295 3.052 0
M  V30 9904 H 913.494 -1.90857 2.28862 0
M  V30 9905 H 911.031 -0.933048 1.13722 0
M  V30 9906 H 912.989 -4.04364 1.02691 0
M  V30 9907 H 911.619 -3.21924 0.237689 0
M  V30 9908 H 910.671 -2.7633 2.61431 0
M  V30 9909 H 911.983 -3.77065 3.26532 0
M  V30 9910 H 911.137 -5.73826 1.96999 0
M  V30 9911 H 909.876 -4.72333 1.21462 0
M  V30 9912 H 908.881 -4.26227 3.4729 0
M  V30 9913 H 910.106 -5.31153 4.23147 0
M  V30 9914 H 908.052 -6.19166 2.16726 0
M  V30 9915 H 907.969 -6.4932 3.87195 0
M  V30 9916 H 909.237 -7.22234 2.93254 0
M  V30 9917 N 913.466 -1.22244 -0.994698 0
M  V30 9918 C 914.715 -1.04005 -1.72817 0
M  V30 9919 C 915.028 0.425413 -1.90918 0
M  V30 9920 O 916.234 0.727429 -2.61574 0
M  V30 9921 C 914.69 -1.81244 -3.10932 0
M  V30 9922 C 914.298 -3.32028 -3.00768 0
M  V30 9923 C 916.042 -1.71448 -3.88337 0
M  V30 9924 C 913.949 -4.01716 -4.34026 0
M  V30 9925 H 912.879 -0.385559 -0.647966 0
M  V30 9926 H 915.53 -1.46077 -1.11058 0
M  V30 9927 H 913.912 -1.3197 -3.73363 0
M  V30 9928 H 915.086 -3.88682 -2.47513 0
M  V30 9929 H 913.401 -3.4248 -2.36846 0
M  V30 9930 H 915.998 -2.20836 -4.86965 0
M  V30 9931 H 916.341 -0.674568 -4.10798 0
M  V30 9932 H 916.874 -2.18256 -3.3258 0
M  V30 9933 H 913.613 -5.05952 -4.16765 0
M  V30 9934 H 913.133 -3.49849 -4.87202 0
M  V30 9935 H 914.812 -4.0721 -5.02782 0
M  V30 9936 N 914.944 1.19125 -1.03184 0
M  V30 9937 C 915.877 2.21229 -0.559739 0
M  V30 9938 C 916.855 1.57578 0.400998 0
M  V30 9939 O 918.039 1.85809 0.317399 0
M  V30 9940 C 915.166 3.38203 0.183442 0
M  V30 9941 C 914.212 4.2022 -0.729182 0
M  V30 9942 S 915.045 4.87903 -2.20706 0
M  V30 9943 C 916.201 6.08284 -1.47448 0
M  V30 9944 H 916.434 2.60932 -1.42484 0
M  V30 9945 H 913.967 1.29419 -0.842028 0
M  V30 9946 H 915.925 4.06001 0.606084 0
M  V30 9947 H 914.586 2.96929 1.02432 0
M  V30 9948 H 913.779 5.03761 -0.155272 0
M  V30 9949 H 913.381 3.57755 -1.09028 0
M  V30 9950 H 915.673 6.73193 -0.762687 0
M  V30 9951 H 916.616 6.70165 -2.28659 0
M  V30 9952 H 917.024 5.56092 -0.97068 0
M  V30 9953 N 916.422 0.810101 1.35185 0
M  V30 9954 C 917.699 0.315235 1.93043 0
M  V30 9955 C 918.079 -1.19567 1.73974 0
M  V30 9956 O 917.427 -1.99682 1.11083 0
M  V30 9957 C 917.637 0.730492 3.41269 0
M  V30 9958 C 918.985 0.721985 4.18417 0
M  V30 9959 O 920.009 0.672258 3.49799 0
M  V30 9960 O 918.868 0.783535 5.40854 0
M  V30 9961 H 915.962 0.0832774 0.822796 0
M  V30 9962 H 918.508 0.894034 1.4424 0
M  V30 9963 H 917.28 1.77169 3.48894 0
M  V30 9964 H 916.903 0.12669 3.97398 0
M  V30 9965 N 917.9 -1.47166 0.563914 0
M  V30 9966 C 919.177 -1.95586 -0.0236172 0
M  V30 9967 C 919.557 -1.50655 -1.47872 0
M  V30 9968 O 918.905 -0.748479 -2.15894 0
M  V30 9969 C 919.115 -3.48762 0.128841 0
M  V30 9970 C 920.463 -4.24598 -0.0130544 0
M  V30 9971 O 921.487 -3.56155 0.0567242 0
M  V30 9972 O 920.346 -5.46253 -0.164332 0
M  V30 9973 H 917.44 -0.824793 -0.0603789 0
M  V30 9974 H 919.986 -1.57536 0.63091 0
M  V30 9975 H 918.758 -3.74291 1.14113 0
M  V30 9976 H 918.381 -3.93594 -0.56299 0
M  V30 9977 N 919.378 -0.300708 -1.54705 0
M  V30 9978 C 920.655 0.361757 -1.92226 0
M  V30 9979 C 921.035 1.71714 -1.2279 0
M  V30 9980 O 920.383 2.2559 -0.363542 0
M  V30 9981 C 920.593 0.476699 -3.45729 0
M  V30 9982 C 921.941 0.7477 -4.17965 0
M  V30 9983 O 922.965 0.560521 -3.51762 0
M  V30 9984 O 921.824 1.10724 -5.35166 0
M  V30 9985 H 918.918 0.202213 -0.801897 0
M  V30 9986 H 921.464 -0.348746 -1.66078 0
M  V30 9987 H 920.236 -0.476132 -3.88392 0
M  V30 9988 H 919.859 1.23568 -3.77911 0
M  V30 9989 N 920.856 1.57574 -0.0284266 0
M  V30 9990 C 922.081 1.96479 0.664137 0
M  V30 9991 C 922.506 0.904826 1.64908 0
M  V30 9992 O 921.864 -0.134339 1.80802 0
M  V30 9993 C 921.912 3.34479 1.34745 0
M  V30 9994 O 921.016 3.30794 2.46271 0
M  V30 9995 H 920.357 0.640654 0.174524 0
M  V30 9996 H 922.887 2.04402 -0.0900729 0
M  V30 9997 H 922.897 3.70694 1.7044 0
M  V30 9998 H 921.572 4.1117 0.625468 0
M  V30 9999 H 920.149 3.06294 2.12693 0
M  V30 10000 N 922.334 -0.244713 1.55689 0
M  V30 10001 C 923.564 -0.988508 1.81417 0
M  V30 10002 C 923.972 -1.79362 0.602143 0
M  V30 10003 O 923.315 -1.78386 -0.438639 0
M  V30 10004 C 923.377 -1.97287 3.0053 0
M  V30 10005 C 923.041 -1.35448 4.36466 0
M  V30 10006 C 924.038 -0.755874 5.14376 0
M  V30 10007 C 921.723 -1.37319 4.83165 0
M  V30 10008 C 923.717 -0.184218 6.37134 0
M  V30 10009 C 921.404 -0.797681 6.05871 0
M  V30 10010 C 922.402 -0.204224 6.82695 0
M  V30 10011 O 922.09 0.362392 8.03083 0
M  V30 10012 H 921.822 -0.296412 0.607549 0
M  V30 10013 H 924.376 -0.272185 2.03589 0
M  V30 10014 H 922.606 -2.72756 2.74119 0
M  V30 10015 H 924.295 -2.58028 3.13331 0
M  V30 10016 H 925.061 -0.733912 4.79415 0
M  V30 10017 H 920.94 -1.8245 4.23359 0
M  V30 10018 H 924.484 0.279624 6.97039 0
M  V30 10019 H 920.381 -0.816978 6.40309 0
M  V30 10020 H 921.149 0.254467 8.18104 0
M  V30 10021 N 923.813 -1.49104 -0.510467 0
M  V30 10022 C 924.761 -1.65547 -1.63392 0
M  V30 10023 C 925.755 -0.521522 -1.61172 0
M  V30 10024 O 926.961 -0.700865 -1.65795 0
M  V30 10025 H 923.336 -0.521843 -0.541464 0
M  V30 10026 H 925.307 -2.59864 -1.46673 0
M  V30 10027 C 924.056 -1.73051 -3.01577 0
M  V30 10028 H 923.379 -2.59676 -3.03987 0
M  V30 10029 H 924.819 -1.88594 -3.79748 0
M  V30 10030 C 923.278 -0.47328 -3.33559 0
M  V30 10031 O 923.808 0.405239 -3.99651 0
M  V30 10032 N 922.014 -0.339074 -2.88615 0
M  V30 10033 H 921.561 -1.05497 -2.35007 0
M  V30 10034 H 921.519 0.501061 -3.10382 0
M  V30 10035 N 925.291 0.760815 -1.38019 0
M  V30 10036 C 926.516 1.55513 -1.37224 0
M  V30 10037 C 926.941 1.88062 0.037611 0
M  V30 10038 O 926.299 1.50042 1.0177 0
M  V30 10039 C 926.347 2.83539 -2.22796 0
M  V30 10040 O 925.451 3.78384 -1.64009 0
M  V30 10041 H 924.792 0.470642 -0.468393 0
M  V30 10042 H 927.322 0.940792 -1.81687 0
M  V30 10043 H 927.332 3.32535 -2.36399 0
M  V30 10044 H 926.007 2.59178 -3.25269 0
M  V30 10045 H 924.584 3.37063 -1.59508 0
M  V30 10046 N 926.769 1.22769 0.988202 0
M  V30 10047 C 928.015 1.05665 1.73097 0
M  V30 10048 C 928.348 -0.406615 1.89895 0
M  V30 10049 O 927.623 -1.30132 1.44554 0
M  V30 10050 C 927.906 1.77381 3.13382 0
M  V30 10051 C 927.759 3.31332 3.04203 0
M  V30 10052 C 929.078 1.52999 4.12649 0
M  V30 10053 H 926.197 0.385258 0.628288 0
M  V30 10054 H 928.839 1.51171 1.15097 0
M  V30 10055 H 926.989 1.38696 3.62899 0
M  V30 10056 H 928.661 3.79489 2.6227 0
M  V30 10057 H 926.904 3.60767 2.40894 0
M  V30 10058 H 927.575 3.76692 4.03493 0
M  V30 10059 H 930.051 1.86611 3.71908 0
M  V30 10060 H 928.927 2.05666 5.08913 0
M  V30 10061 H 929.188 0.463615 4.39662 0
M  V30 10062 N 928.247 -1.18576 1.03814 0
M  V30 10063 C 929.524 -1.8433 0.654358 0
M  V30 10064 C 929.904 -1.92504 -0.866338 0
M  V30 10065 O 929.252 -1.44904 -1.76678 0
M  V30 10066 C 929.462 -3.22778 1.32723 0
M  V30 10067 C 930.81 -3.98841 1.45641 0
M  V30 10068 O 931.834 -3.32209 1.28514 0
M  V30 10069 O 930.693 -5.18219 1.73526 0
M  V30 10070 H 927.787 -0.794766 0.228638 0
M  V30 10071 H 930.333 -1.25989 1.13687 0
M  V30 10072 H 929.105 -3.11717 2.36534 0
M  V30 10073 H 928.728 -3.88772 0.833176 0
M  V30 10074 N 929.725 -0.817259 -1.34754 0
M  V30 10075 C 930.973 -0.401852 -1.98065 0
M  V30 10076 C 931.294 1.03718 -1.65129 0
M  V30 10077 O 930.564 1.71921 -0.939141 0
M  V30 10078 H 929.144 -0.145603 -0.732672 0
M  V30 10079 H 931.806 -1.04545 -1.64488 0
M  V30 10080 H 930.902 -0.516241 -3.07801 0
M  V30 10081 N 931.203 1.46865 -0.571711 0
M  V30 10082 C 932.136 2.27176 0.215944 0
M  V30 10083 C 933.114 1.34951 0.907035 0
M  V30 10084 O 934.298 1.64349 0.923127 0
M  V30 10085 C 931.425 3.12388 1.30888 0
M  V30 10086 C 930.471 4.20296 0.724804 0
M  V30 10087 S 931.304 5.33691 -0.439839 0
M  V30 10088 C 932.46 6.22468 0.654564 0
M  V30 10089 H 932.693 2.93633 -0.465518 0
M  V30 10090 H 930.226 1.50184 -0.358351 0
M  V30 10091 H 932.184 3.62049 1.93471 0
M  V30 10092 H 930.845 2.45265 1.96224 0
M  V30 10093 H 930.038 4.79703 1.54599 0
M  V30 10094 H 929.64 3.73591 0.174861 0
M  V30 10095 H 931.932 6.59694 1.54304 0
M  V30 10096 H 932.875 7.08033 0.0975111 0
M  V30 10097 H 933.283 5.56384 0.953762 0
M  V30 10098 N 932.681 0.308908 1.54543 0
M  V30 10099 C 933.591 -0.572939 2.27496 0
M  V30 10100 C 934.607 -1.14171 1.31305 0
M  V30 10101 O 935.783 -1.16481 1.64299 0
M  V30 10102 C 932.848 -1.72483 3.0075 0
M  V30 10103 C 931.909 -1.18934 4.12496 0
M  V30 10104 C 931.142 -2.28634 4.82247 0
M  V30 10105 O 931.365 -3.48691 4.5141 0
M  V30 10106 O 930.299 -1.94879 5.69478 0
M  V30 10107 H 934.125 0.0190877 3.03694 0
M  V30 10108 H 931.71 0.0750943 1.49211 0
M  V30 10109 H 933.592 -2.39578 3.46671 0
M  V30 10110 H 932.267 -2.30332 2.2744 0
M  V30 10111 H 931.174 -0.483904 3.70957 0
M  V30 10112 H 932.507 -0.656185 4.87806 0
M  V30 10113 N 934.159 -1.57557 0.0367827 0
M  V30 10114 C 935.089 -2.13712 -0.940719 0
M  V30 10115 C 936.07 -1.05515 -1.33419 0
M  V30 10116 O 937.255 -1.33385 -1.41146 0
M  V30 10117 C 934.385 -2.67043 -2.22048 0
M  V30 10118 C 933.339 -3.80096 -1.96752 0
M  V30 10119 C 932.665 -4.19886 -3.31059 0
M  V30 10120 C 933.965 -5.05848 -1.30058 0
M  V30 10121 H 935.659 -2.9564 -0.473033 0
M  V30 10122 H 933.205 -1.42214 -0.226089 0
M  V30 10123 H 935.158 -3.04964 -2.90818 0
M  V30 10124 H 933.882 -1.82287 -2.70996 0
M  V30 10125 H 932.541 -3.42625 -1.30398 0
M  V30 10126 H 932.189 -3.32101 -3.77781 0
M  V30 10127 H 931.889 -4.96073 -3.14937 0
M  V30 10128 H 933.413 -4.60395 -4.01084 0
M  V30 10129 H 934.827 -5.41306 -1.8884 0
M  V30 10130 H 933.224 -5.87084 -1.24309 0
M  V30 10131 H 934.294 -4.84122 -0.274591 0
M  V30 10132 N 935.637 0.236453 -1.55816 0
M  V30 10133 C 936.865 0.980295 -1.82203 0
M  V30 10134 C 937.28 1.7854 -0.613926 0
M  V30 10135 O 936.637 1.77661 0.417491 0
M  V30 10136 C 936.688 1.90982 -3.06933 0
M  V30 10137 O 936.409 1.13728 -4.23081 0
M  V30 10138 C 937.91 2.76879 -3.46198 0
M  V30 10139 H 935.13 0.28799 -0.606055 0
M  V30 10140 H 937.674 0.256182 -2.02889 0
M  V30 10141 H 935.829 2.58808 -2.88266 0
M  V30 10142 H 936.243 1.76694 -4.93842 0
M  V30 10143 H 937.717 3.37831 -4.36548 0
M  V30 10144 H 938.194 3.48522 -2.67262 0
M  V30 10145 H 938.8 2.1449 -3.67252 0
M  V30 10146 N 937.115 1.49373 0.502552 0
M  V30 10147 C 938.34 1.62752 1.28556 0
M  V30 10148 C 938.765 0.298285 1.8572 0
M  V30 10149 O 938.123 -0.733885 1.65782 0
M  V30 10150 C 938.171 2.69778 2.39274 0
M  V30 10151 O 937.275 2.28843 3.43081 0
M  V30 10152 H 936.616 0.544799 0.379592 0
M  V30 10153 H 939.146 1.9555 0.601792 0
M  V30 10154 H 939.156 2.91899 2.8506 0
M  V30 10155 H 937.831 3.66266 1.97033 0
M  V30 10156 H 936.408 2.17047 3.03224 0
M  V30 10157 N 938.594 -0.753485 1.38421 0
M  V30 10158 C 939.526 -1.87692 1.31547 0
M  V30 10159 C 940.539 -1.612 0.227671 0
M  V30 10160 O 941.728 -1.71778 0.485238 0
M  V30 10161 C 938.828 -3.23329 1.01545 0
M  V30 10162 C 938.001 -3.77324 2.21236 0
M  V30 10163 C 937.06 -4.91478 1.87977 0
M  V30 10164 O 936.086 -5.06106 2.60472 0
M  V30 10165 N 937.288 -5.74466 0.834796 0
M  V30 10166 H 940.053 -1.94099 2.28354 0
M  V30 10167 H 937.614 -0.933421 1.32283 0
M  V30 10168 H 939.606 -3.9724 0.773477 0
M  V30 10169 H 938.176 -3.12307 0.135334 0
M  V30 10170 H 937.396 -2.94978 2.61498 0
M  V30 10171 H 938.684 -4.10131 3.01115 0
M  V30 10172 H 938.082 -5.65217 0.233606 0
M  V30 10173 H 936.639 -6.48524 0.652703 0
M  V30 10174 N 940.072 -1.23292 -0.981677 0
M  V30 10175 C 941.32 -1.06214 -1.71939 0
M  V30 10176 C 941.641 0.401989 -1.90812 0
M  V30 10177 O 940.911 1.28825 -1.47584 0
M  V30 10178 H 939.491 -0.390042 -0.637084 0
M  V30 10179 H 942.153 -1.54988 -1.18173 0
M  V30 10180 H 941.249 -1.54904 -2.70945 0
M  V30 10181 N 941.55 1.18024 -1.04442 0
M  V30 10182 C 942.513 2.19992 -0.643136 0
M  V30 10183 C 943.513 1.57949 0.301444 0
M  V30 10184 O 944.703 1.73986 0.0863341 0
M  V30 10185 C 941.835 3.40853 0.0565208 0
M  V30 10186 H 943.028 2.57008 -1.54554 0
M  V30 10187 H 940.581 1.31974 -0.837408 0
M  V30 10188 H 941.316 3.09373 0.972553 0
M  V30 10189 H 941.101 3.87128 -0.622439 0
M  V30 10190 H 942.591 4.16344 0.323652 0
M  V30 10191 N 943.028 0.824394 1.34319 0
M  V30 10192 C 944.276 0.41235 1.97849 0
M  V30 10193 C 944.597 -1.02841 1.65677 0
M  V30 10194 O 943.867 -1.71421 0.948245 0
M  V30 10195 H 942.447 0.149486 0.73189 0
M  V30 10196 H 945.109 1.05416 1.63931 0
M  V30 10197 H 944.205 0.532557 3.07523 0
M  V30 10198 N 944.506 -1.46559 0.579492 0
M  V30 10199 C 945.734 -2.06784 0.0693648 0
M  V30 10200 C 946.149 -1.42875 -1.23419 0
M  V30 10201 O 945.506 -0.532919 -1.74546 0
M  V30 10202 C 945.557 -3.61343 -0.106511 0
M  V30 10203 O 945.278 -4.22861 1.14545 0
M  V30 10204 C 946.779 -4.38489 -0.651359 0
M  V30 10205 H 943.999 -0.66866 0.0559848 0
M  V30 10206 H 946.543 -1.88235 0.799245 0
M  V30 10207 H 944.698 -3.7933 -0.786601 0
M  V30 10208 H 945.112 -5.15691 0.95723 0
M  V30 10209 H 946.586 -5.47237 -0.723615 0
M  V30 10210 H 947.063 -4.06309 -1.66763 0
M  V30 10211 H 947.669 -4.253 -0.0062433 0
M  V30 10212 N 945.984 -0.3171 -1.54377 0
M  V30 10213 C 947.214 0.289138 -2.04567 0
M  V30 10214 C 947.622 1.46833 -1.19318 0
M  V30 10215 O 946.965 1.82436 -0.215141 0
M  V30 10216 C 947.027 0.792994 -3.50645 0
M  V30 10217 C 946.691 -0.263033 -4.56242 0
M  V30 10218 C 947.688 -1.09694 -5.08196 0
M  V30 10219 C 945.373 -0.409364 -5.00629 0
M  V30 10220 C 947.367 -2.06297 -6.03092 0
M  V30 10221 C 945.054 -1.37882 -5.95342 0
M  V30 10222 C 946.052 -2.20409 -6.46459 0
M  V30 10223 O 945.74 -3.15708 -7.39313 0
M  V30 10224 H 945.472 0.0644005 -0.672925 0
M  V30 10225 H 948.026 -0.459438 -2.00196 0
M  V30 10226 H 946.256 1.59237 -3.52392 0
M  V30 10227 H 947.945 1.31687 -3.83944 0
M  V30 10228 H 948.711 -0.994842 -4.74687 0
M  V30 10229 H 944.59 0.223091 -4.6046 0
M  V30 10230 H 948.134 -2.70751 -6.42915 0
M  V30 10231 H 944.031 -1.48158 -6.28267 0
M  V30 10232 H 944.799 -3.10873 -7.57166 0
M  V30 10233 N 947.462 1.57535 -0.0451378 0
M  V30 10234 C 948.708 1.93558 0.62505 0
M  V30 10235 C 949.063 0.923159 1.68806 0
M  V30 10236 O 948.356 -0.0585419 1.91511 0
M  V30 10237 C 948.55 3.34065 1.27024 0
M  V30 10238 C 948.379 4.48881 0.271253 0
M  V30 10239 C 947.149 5.05121 -0.13462 0
M  V30 10240 C 949.347 5.12047 -0.480911 0
M  V30 10241 N 947.329 6.03465 -1.1271 0
M  V30 10242 C 948.7 6.0564 -1.32666 0
M  V30 10243 C 950.755 4.94964 -0.539878 0
M  V30 10244 C 949.458 6.83987 -2.22608 0
M  V30 10245 C 951.484 5.73933 -1.4267 0
M  V30 10246 C 950.846 6.67154 -2.26019 0
M  V30 10247 H 946.945 0.755846 0.20055 0
M  V30 10248 H 949.529 1.94354 -0.116059 0
M  V30 10249 H 947.7 3.34058 1.98141 0
M  V30 10250 H 949.432 3.57393 1.89875 0
M  V30 10251 H 946.187 4.72976 0.243112 0
M  V30 10252 H 946.611 6.5733 -1.62006 0
M  V30 10253 H 951.253 4.22704 0.0902834 0
M  V30 10254 H 948.971 7.55543 -2.86672 0
M  V30 10255 H 952.557 5.62744 -1.47682 0
M  V30 10256 H 951.437 7.27194 -2.93528 0
M  V30 10257 N 948.94 -0.228186 1.55939 0
M  V30 10258 C 950.17 -0.969211 1.82455 0
M  V30 10259 C 950.578 -1.78714 0.621133 0
M  V30 10260 O 949.921 -1.78841 -0.419694 0
M  V30 10261 C 949.983 -1.94088 3.02605 0
M  V30 10262 C 949.647 -1.30811 4.37878 0
M  V30 10263 C 950.644 -0.701275 5.15149 0
M  V30 10264 C 948.329 -1.32187 4.84595 0
M  V30 10265 C 950.323 -0.116631 6.37293 0
M  V30 10266 C 948.01 -0.733375 6.06683 0
M  V30 10267 C 949.008 -0.131804 6.82873 0
M  V30 10268 O 948.696 0.447549 8.02653 0
M  V30 10269 H 948.428 -0.289951 0.610659 0
M  V30 10270 H 950.982 -0.250576 2.03866 0
M  V30 10271 H 949.212 -2.69833 2.76996 0
M  V30 10272 H 950.901 -2.5469 3.1605 0
M  V30 10273 H 951.667 -0.683022 4.80166 0
M  V30 10274 H 947.546 -1.77949 4.25271 0
M  V30 10275 H 951.09 0.353539 6.96704 0
M  V30 10276 H 946.987 -0.749019 6.4114 0
M  V30 10277 H 947.755 0.341224 8.17788 0
M  V30 10278 N 950.418 -1.49637 -0.494624 0
M  V30 10279 C 951.348 -1.69692 -1.60396 0
M  V30 10280 C 952.329 -0.545648 -1.61111 0
M  V30 10281 O 953.514 -0.782202 -1.77751 0
M  V30 10282 C 950.644 -1.76934 -2.9885 0
M  V30 10283 C 949.598 -2.91915 -3.13001 0
M  V30 10284 C 948.924 -2.84276 -4.5287 0
M  V30 10285 C 950.224 -4.32764 -2.92426 0
M  V30 10286 H 951.918 -2.6257 -1.43866 0
M  V30 10287 H 949.464 -1.26355 -0.690679 0
M  V30 10288 H 951.417 -1.8955 -3.76362 0
M  V30 10289 H 950.141 -0.806609 -3.16483 0
M  V30 10290 H 948.8 -2.78911 -2.37916 0
M  V30 10291 H 948.448 -1.85897 -4.67388 0
M  V30 10292 H 948.148 -3.61452 -4.63278 0
M  V30 10293 H 949.672 -2.98909 -5.32434 0
M  V30 10294 H 951.086 -4.46415 -3.59703 0
M  V30 10295 H 949.483 -5.1121 -3.143 0
M  V30 10296 H 950.553 -4.46765 -1.88491 0
M  V30 10297 N 951.896 0.746133 -1.38819 0
M  V30 10298 C 953.307 1.32384 -1.31648 0
M  V30 10299 C 953.658 1.96185 0.0243086 0
M  V30 10300 O 952.783 1.95567 0.92641 0
M  V30 10301 C 953.378 2.40712 -2.38418 0
M  V30 10302 C 951.937 2.94185 -2.34803 0
M  V30 10303 C 951.084 1.67639 -2.20891 0
M  V30 10304 H 954.035 0.544457 -1.49068 0
M  V30 10305 H 954.056 3.20833 -2.04564 0
M  V30 10306 H 953.568 1.94247 -3.3599 0
M  V30 10307 H 951.669 3.44959 -1.40834 0
M  V30 10308 H 951.782 3.48057 -3.29231 0
M  V30 10309 H 950.146 1.9155 -1.67871 0
M  V30 10310 H 950.929 1.23242 -3.20416 0
M  V30 10311 N 953.375 1.23811 0.975125 0
M  V30 10312 C 954.786 1.0675 1.53171 0
M  V30 10313 C 955.137 -0.363475 1.92804 0
M  V30 10314 O 954.262 -1.25089 1.76583 0
M  V30 10315 C 954.857 1.93161 2.78342 0
M  V30 10316 C 953.416 1.80346 3.30382 0
M  V30 10317 C 952.563 1.88544 2.03338 0
M  V30 10318 H 955.514 1.37396 0.79423 0
M  V30 10319 H 955.535 1.45951 3.51395 0
M  V30 10320 H 955.047 2.97302 2.49465 0
M  V30 10321 H 953.148 0.790077 3.64127 0
M  V30 10322 H 953.261 2.64026 3.99784 0
M  V30 10323 H 951.625 1.32186 2.17713 0
M  V30 10324 H 952.408 2.94252 1.76836 0
M  V30 10325 N 954.853 -1.17469 1.05066 0
M  V30 10326 C 955.763 -2.25089 0.661222 0
M  V30 10327 C 956.779 -1.71086 -0.31712 0
M  V30 10328 O 957.955 -2.00685 -0.169534 0
M  V30 10329 C 955.02 -3.46676 0.0406415 0
M  V30 10330 C 954.081 -4.15771 1.06927 0
M  V30 10331 C 953.314 -5.31553 0.478208 0
M  V30 10332 O 953.537 -5.6593 -0.712714 0
M  V30 10333 O 952.471 -5.89574 1.21185 0
M  V30 10334 H 956.297 -2.60685 1.5581 0
M  V30 10335 H 953.882 -1.24744 0.822147 0
M  V30 10336 H 955.764 -4.203 -0.304312 0
M  V30 10337 H 954.439 -3.1288 -0.829909 0
M  V30 10338 H 953.346 -3.44171 1.46619 0
M  V30 10339 H 954.679 -4.53591 1.91092 0
M  V30 10340 N 956.331 -0.831506 -1.3388 0
M  V30 10341 C 957.571 -0.429648 -1.99833 0
M  V30 10342 C 957.935 0.990796 -1.6446 0
M  V30 10343 O 959.136 1.49599 -2.23324 0
M  V30 10344 C 957.407 -0.635558 -3.51704 0
M  V30 10345 S 958.966 -0.327824 -4.37574 0
M  V30 10346 H 955.784 -0.161939 -0.692313 0
M  V30 10347 H 958.386 -1.07919 -1.63015 0
M  V30 10348 H 957.09 -1.66887 -3.74936 0
M  V30 10349 H 956.621 0.0284073 -3.9339 0
M  V30 10350 H 958.636 0.855231 -4.88774 0
M  V30 10351 N 957.809 1.4625 -0.587256 0
M  V30 10352 C 959.056 2.02363 -0.0745746 0
M  V30 10353 C 959.384 1.4582 1.28712 0
M  V30 10354 O 958.639 0.614922 1.85788 0
M  V30 10355 C 958.938 3.57382 0.036328 0
M  V30 10356 C 958.604 4.32985 -1.25837 0
M  V30 10357 C 957.266 4.53358 -1.61306 0
M  V30 10358 C 959.618 4.76361 -2.11494 0
M  V30 10359 C 956.946 5.14361 -2.82223 0
M  V30 10360 C 959.298 5.38699 -3.31641 0
M  V30 10361 C 957.962 5.57299 -3.67388 0
M  V30 10362 H 957.232 0.740497 -0.0272888 0
M  V30 10363 H 959.879 1.75565 -0.764804 0
M  V30 10364 H 958.184 3.83342 0.809712 0
M  V30 10365 H 959.881 3.9848 0.448838 0
M  V30 10366 H 956.471 4.17427 -0.972251 0
M  V30 10367 H 960.655 4.60372 -1.85394 0
M  V30 10368 H 955.911 5.26952 -3.10051 0
M  V30 10369 H 960.085 5.71267 -3.9828 0
M  V30 10370 H 957.712 6.04338 -4.61173 0
M  V30 10371 N 959.287 0.325282 1.54207 0
M  V30 10372 C 960.533 -0.277185 2.00897 0
M  V30 10373 C 960.866 -1.51651 1.21308 0
M  V30 10374 O 960.141 -1.92237 0.295825 0
M  V30 10375 C 960.424 -0.60961 3.54902 0
M  V30 10376 C 960.277 0.640542 4.45216 0
M  V30 10377 C 961.596 -1.42656 4.16338 0
M  V30 10378 H 958.715 -0.0992722 0.730284 0
M  V30 10379 H 961.357 0.442201 1.84783 0
M  V30 10380 H 959.507 -1.22249 3.68765 0
M  V30 10381 H 961.179 1.27878 4.43221 0
M  V30 10382 H 959.422 1.26908 4.14821 0
M  V30 10383 H 960.093 0.363459 5.50802 0
M  V30 10384 H 962.569 -0.908494 4.06061 0
M  V30 10385 H 961.445 -1.62792 5.24204 0
M  V30 10386 H 961.706 -2.42321 3.69774 0
M  V30 10387 N 960.765 -1.57509 0.0534917 0
M  V30 10388 C 962.011 -1.93068 -0.62069 0
M  V30 10389 C 962.344 -0.932313 -1.70357 0
M  V30 10390 O 961.619 0.0413393 -1.94456 0
M  V30 10391 C 961.902 -3.38997 -1.21463 0
M  V30 10392 C 961.755 -4.49583 -0.13965 0
M  V30 10393 C 963.074 -3.85366 -2.12558 0
M  V30 10394 H 960.193 -0.702083 -0.224163 0
M  V30 10395 H 962.835 -1.89647 0.115729 0
M  V30 10396 H 960.985 -3.42043 -1.84226 0
M  V30 10397 H 962.657 -4.58664 0.492411 0
M  V30 10398 H 960.9 -4.30525 0.532006 0
M  V30 10399 H 961.571 -5.48781 -0.595287 0
M  V30 10400 H 964.047 -3.8421 -1.59755 0
M  V30 10401 H 962.923 -4.8812 -2.51058 0
M  V30 10402 H 963.184 -3.22256 -3.02661 0
M  V30 10403 N 962.243 0.219913 -1.56058 0
M  V30 10404 C 963.491 0.942199 -1.78793 0
M  V30 10405 C 963.812 1.84804 -0.622284 0
M  V30 10406 O 963.082 1.9255 0.360735 0
M  V30 10407 H 961.662 0.350895 -0.659455 0
M  V30 10408 H 964.324 0.231376 -1.93522 0
M  V30 10409 H 963.42 1.54804 -2.71002 0
M  V30 10410 N 963.721 1.49897 0.486681 0
M  V30 10411 C 964.668 1.67619 1.58658 0
M  V30 10412 C 965.638 0.517537 1.57831 0
M  V30 10413 O 966.823 0.746272 1.756 0
M  V30 10414 C 963.963 1.762 2.96728 0
M  V30 10415 C 963.076 3.03465 3.07462 0
M  V30 10416 C 962.211 3.02937 4.36351 0
M  V30 10417 C 961.25 4.24721 4.4077 0
M  V30 10418 N 960.387 4.22021 5.61108 0
M  V30 10419 H 965.227 2.61528 1.42853 0
M  V30 10420 H 962.764 1.29657 0.694807 0
M  V30 10421 H 964.722 1.79156 3.76774 0
M  V30 10422 H 963.352 0.857452 3.11203 0
M  V30 10423 H 962.404 3.10054 2.20387 0
M  V30 10424 H 963.716 3.93454 3.06586 0
M  V30 10425 H 962.87 3.04536 5.24731 0
M  V30 10426 H 961.609 2.10751 4.39813 0
M  V30 10427 H 960.614 4.23352 3.5079 0
M  V30 10428 H 961.839 5.18116 4.39013 0
M  V30 10429 H 959.785 3.3268 5.65385 0
M  V30 10430 H 959.702 5.05761 5.61909 0
M  V30 10431 H 960.97 4.27743 6.51656 0
M  V30 10432 N 965.199 -0.738761 1.39212 0
M  V30 10433 C 966.109 -1.88324 1.39897 0
M  V30 10434 C 967.125 -1.71494 0.294229 0
M  V30 10435 O 968.301 -1.94162 0.535087 0
M  V30 10436 C 965.366 -3.23871 1.23726 0
M  V30 10437 C 964.427 -3.53121 2.44139 0
M  V30 10438 C 963.66 -4.82202 2.2873 0
M  V30 10439 O 963.883 -5.55649 1.28879 0
M  V30 10440 O 962.817 -5.11265 3.17634 0
M  V30 10441 H 966.643 -1.90701 2.36362 0
M  V30 10442 H 964.228 -0.886067 1.20288 0
M  V30 10443 H 966.11 -4.04882 1.16826 0
M  V30 10444 H 964.785 -3.22274 0.303551 0
M  V30 10445 H 963.692 -2.72212 2.56615 0
M  V30 10446 H 965.025 -3.59495 3.36191 0
M  V30 10447 N 966.677 -1.24326 -0.968545 0
M  V30 10448 C 968.088 -1.07561 -1.52603 0
M  V30 10449 C 968.439 0.353245 -1.92994 0
M  V30 10450 O 967.564 1.24151 -1.77244 0
M  V30 10451 C 968.159 -1.94634 -2.77314 0
M  V30 10452 C 966.718 -1.82095 -3.29421 0
M  V30 10453 C 965.865 -1.8962 -2.02335 0
M  V30 10454 H 968.816 -1.37815 -0.786932 0
M  V30 10455 H 968.837 -1.47812 -3.50616 0
M  V30 10456 H 968.349 -2.98621 -2.47885 0
M  V30 10457 H 966.45 -0.809376 -3.63703 0
M  V30 10458 H 966.563 -2.66142 -3.98378 0
M  V30 10459 H 964.927 -1.33339 -2.17009 0
M  V30 10460 H 965.71 -2.95185 -1.75273 0
M  V30 10461 N 968.156 1.1691 -1.05688 0
M  V30 10462 C 969.567 1.68915 -0.795273 0
M  V30 10463 C 969.918 1.83968 0.681925 0
M  V30 10464 O 969.043 1.53083 1.52953 0
M  V30 10465 C 969.638 3.06814 -1.43703 0
M  V30 10466 C 968.197 3.55965 -1.22335 0
M  V30 10467 C 967.344 2.32099 -1.51741 0
M  V30 10468 H 970.295 1.01357 -1.22116 0
M  V30 10469 H 970.316 3.70907 -0.849016 0
M  V30 10470 H 969.828 2.95826 -2.51214 0
M  V30 10471 H 967.929 3.72222 -0.16771 0
M  V30 10472 H 968.042 4.38427 -1.9318 0
M  V30 10473 H 966.406 2.36811 -0.937696 0
M  V30 10474 H 967.189 2.23715 -2.60397 0
M  V30 10475 N 969.634 0.838594 1.33437 0
M  V30 10476 C 970.581 0.269609 2.2922 0
M  V30 10477 C 971.551 -0.614429 1.54318 0
M  V30 10478 O 972.736 -0.552756 1.82618 0
M  V30 10479 C 969.876 -0.549527 3.40697 0
M  V30 10480 C 968.989 0.358502 4.3051 0
M  V30 10481 C 968.124 -0.471709 5.29101 0
M  V30 10482 C 967.163 0.434728 6.10554 0
M  V30 10483 N 966.3 -0.357339 7.0119 0
M  V30 10484 H 971.14 1.09172 2.77282 0
M  V30 10485 H 968.677 0.549832 1.36438 0
M  V30 10486 H 970.635 -1.03992 4.04032 0
M  V30 10487 H 969.265 -1.33661 2.93828 0
M  V30 10488 H 968.317 0.967204 3.67899 0
M  V30 10489 H 969.629 1.05483 4.87519 0
M  V30 10490 H 968.783 -1.02594 5.97963 0
M  V30 10491 H 967.522 -1.20147 4.72669 0
M  V30 10492 H 966.527 1.00097 5.40611 0
M  V30 10493 H 967.752 1.16285 6.6907 0
M  V30 10494 H 965.698 -1.07049 6.47207 0
M  V30 10495 H 965.615 0.280277 7.5548 0
M  V30 10496 H 966.883 -0.893814 7.74359 0
M  V30 10497 N 971.112 -1.45937 0.595003 0
M  V30 10498 C 972.361 -2.01529 0.0829531 0
M  V30 10499 C 972.674 -1.47071 -1.28955 0
M  V30 10500 O 973.88 -1.94561 -1.89363 0
M  V30 10501 C 972.336 -3.59767 0.0976597 0
M  V30 10502 C 971.944 -4.23223 1.46924 0
M  V30 10503 C 973.688 -4.22972 -0.359805 0
M  V30 10504 C 971.595 -5.73576 1.44101 0
M  V30 10505 H 970.525 -0.753508 0.0272425 0
M  V30 10506 H 973.176 -1.67541 0.748473 0
M  V30 10507 H 971.558 -3.90888 -0.634268 0
M  V30 10508 H 972.732 -4.03695 2.22187 0
M  V30 10509 H 971.047 -3.72161 1.86775 0
M  V30 10510 H 973.644 -5.33202 -0.39991 0
M  V30 10511 H 973.987 -3.92765 -1.37991 0
M  V30 10512 H 974.52 -3.96523 0.31845 0
M  V30 10513 H 971.259 -6.08462 2.43831 0
M  V30 10514 H 970.779 -5.95332 0.730767 0
M  V30 10515 H 972.458 -6.36531 1.1592 0
M  V30 10516 N 972.59 -0.333456 -1.54032 0
M  V30 10517 C 973.815 0.270517 -2.05628 0
M  V30 10518 C 974.24 1.44231 -1.20744 0
M  V30 10519 O 973.598 1.79975 -0.218822 0
M  V30 10520 C 973.646 0.673251 -3.54259 0
M  V30 10521 O 972.75 1.77448 -3.72271 0
M  V30 10522 H 972.091 0.0469753 -0.662336 0
M  V30 10523 H 974.621 -0.484739 -1.98775 0
M  V30 10524 H 974.631 0.953194 -3.96709 0
M  V30 10525 H 973.306 -0.183747 -4.15494 0
M  V30 10526 H 971.883 1.49259 -3.41725 0
M  V30 10527 N 974.068 1.57479 -0.061844 0
M  V30 10528 C 975.016 2.13346 0.926629 0
M  V30 10529 C 976.01 1.06787 1.31502 0
M  V30 10530 O 977.216 1.25181 1.29343 0
M  V30 10531 H 973.591 0.682046 0.316729 0
M  V30 10532 H 975.562 2.95279 0.430424 0
M  V30 10533 C 974.311 2.70198 2.18834 0
M  V30 10534 H 973.634 3.51859 1.89829 0
M  V30 10535 H 975.074 3.12897 2.86132 0
M  V30 10536 C 973.533 1.64481 2.9402 0
M  V30 10537 O 974.063 1.0639 3.87355 0
M  V30 10538 N 972.269 1.35749 2.56944 0
M  V30 10539 H 971.816 1.83177 1.81119 0
M  V30 10540 H 971.774 0.652469 3.07555 0
M  V30 10541 N 975.546 -0.211634 1.56173 0
M  V30 10542 C 976.493 -1.26231 1.93221 0
M  V30 10543 C 977.463 -1.46076 0.790641 0
M  V30 10544 O 978.648 -1.59482 1.04739 0
M  V30 10545 C 975.788 -2.60559 2.26281 0
M  V30 10546 C 974.901 -2.48431 3.5342 0
M  V30 10547 C 974.036 -3.7535 3.7588 0
M  V30 10548 C 973.075 -3.57985 4.96501 0
M  V30 10549 N 972.212 -4.76877 5.15299 0
M  V30 10550 H 977.052 -0.939367 2.82807 0
M  V30 10551 H 974.589 -0.452511 1.39967 0
M  V30 10552 H 976.547 -3.38796 2.43461 0
M  V30 10553 H 975.177 -2.9093 1.39855 0
M  V30 10554 H 974.229 -1.61577 3.44379 0
M  V30 10555 H 975.541 -2.31526 4.41811 0
M  V30 10556 H 974.695 -4.62029 3.9321 0
M  V30 10557 H 973.434 -3.95191 2.85788 0
M  V30 10558 H 972.439 -2.69691 4.79111 0
M  V30 10559 H 973.664 -3.39605 5.88086 0
M  V30 10560 H 971.61 -4.97013 4.28152 0
M  V30 10561 H 971.527 -4.62735 5.9784 0
M  V30 10562 H 972.795 -5.64954 5.37073 0
M  V30 10563 N 977.024 -1.50153 -0.478725 0
M  V30 10564 C 978.27 -1.60998 -1.23318 0
M  V30 10565 C 978.603 -0.305868 -1.91776 0
M  V30 10566 O 977.878 0.692158 -1.81767 0
M  V30 10567 C 978.161 -2.78495 -2.28282 0
M  V30 10568 C 978.014 -4.18767 -1.64178 0
M  V30 10569 C 979.333 -2.91569 -3.2966 0
M  V30 10570 H 976.452 -0.585983 -0.446982 0
M  V30 10571 H 979.094 -1.82514 -0.528063 0
M  V30 10572 H 977.244 -2.60281 -2.8842 0
M  V30 10573 H 978.916 -4.48552 -1.07696 0
M  V30 10574 H 977.159 -4.23379 -0.94514 0
M  V30 10575 H 977.83 -4.96894 -2.40417 0
M  V30 10576 H 980.306 -3.08219 -2.79536 0
M  V30 10577 H 979.182 -3.75419 -4.0044 0
M  V30 10578 H 979.443 -2.01859 -3.93326 0
M  V30 10579 N 978.502 0.731368 -1.39602 0
M  V30 10580 C 979.779 1.48308 -1.27531 0
M  V30 10581 C 980.159 2.10795 0.113482 0
M  V30 10582 O 979.507 1.98886 1.12501 0
M  V30 10583 C 979.717 2.53156 -2.40235 0
M  V30 10584 C 981.065 3.19436 -2.79725 0
M  V30 10585 O 982.089 2.6347 -2.39712 0
M  V30 10586 O 980.948 4.20714 -3.48801 0
M  V30 10587 H 978.042 0.658753 -0.499973 0
M  V30 10588 H 980.588 0.764884 -1.51485 0
M  V30 10589 H 979.36 2.05387 -3.33064 0
M  V30 10590 H 978.983 3.3253 -2.17966 0
M  V30 10591 N 979.98 1.24838 0.961938 0
M  V30 10592 C 981.226 1.09313 1.70817 0
M  V30 10593 C 981.559 -0.366244 1.90715 0
M  V30 10594 O 980.834 -1.27036 1.47282 0
M  V30 10595 C 981.117 1.83988 3.09549 0
M  V30 10596 C 980.97 3.3771 2.97106 0
M  V30 10597 C 982.289 1.61718 4.09311 0
M  V30 10598 H 979.408 0.398498 0.619974 0
M  V30 10599 H 982.05 1.53579 1.11864 0
M  V30 10600 H 980.2 1.46363 3.59875 0
M  V30 10601 H 981.872 3.84967 2.54161 0
M  V30 10602 H 980.115 3.65795 2.33187 0
M  V30 10603 H 980.786 3.85166 3.95412 0
M  V30 10604 H 983.262 1.94458 3.67866 0
M  V30 10605 H 982.138 2.16415 5.04436 0
M  V30 10606 H 982.399 0.55677 4.3858 0
M  V30 10607 N 981.458 -1.16348 1.06306 0
M  V30 10608 C 982.704 -1.87397 0.79082 0
M  V30 10609 C 983.059 -1.80156 -0.675382 0
M  V30 10610 O 982.352 -1.20644 -1.48847 0
M  V30 10611 C 982.546 -3.35936 1.21991 0
M  V30 10612 C 982.375 -3.57637 2.72628 0
M  V30 10613 C 981.145 -3.73717 3.40094 0
M  V30 10614 C 983.343 -3.56345 3.70841 0
M  V30 10615 N 981.325 -3.83369 4.7948 0
M  V30 10616 C 982.696 -3.71983 4.96013 0
M  V30 10617 C 984.751 -3.39558 3.64149 0
M  V30 10618 C 983.454 -3.7257 6.15292 0
M  V30 10619 C 985.48 -3.41439 4.8288 0
M  V30 10620 C 984.842 -3.57596 6.06881 0
M  V30 10621 H 980.941 -0.703355 0.341782 0
M  V30 10622 H 983.525 -1.39597 1.35723 0
M  V30 10623 H 981.696 -3.82378 0.681319 0
M  V30 10624 H 983.428 -3.94649 0.896319 0
M  V30 10625 H 980.183 -3.74045 2.90495 0
M  V30 10626 H 980.607 -3.91964 5.5199 0
M  V30 10627 H 985.249 -3.25994 2.69235 0
M  V30 10628 H 982.967 -3.84916 7.10539 0
M  V30 10629 H 986.553 -3.29693 4.79368 0
M  V30 10630 H 985.433 -3.58971 6.97216 0
M  V30 10631 N 982.937 -0.845659 -1.3299 0
M  V30 10632 C 984.162 -0.457435 -2.02293 0
M  V30 10633 C 984.587 0.935634 -1.63179 0
M  V30 10634 O 983.945 1.61297 -0.827835 0
M  V30 10635 C 983.993 -0.593665 -3.5568 0
M  V30 10636 O 983.097 0.37729 -4.10671 0
M  V30 10637 H 982.438 -0.185022 -0.637701 0
M  V30 10638 H 984.968 -1.14237 -1.69738 0
M  V30 10639 H 984.978 -0.477834 -4.05192 0
M  V30 10640 H 983.653 -1.60957 -3.83491 0
M  V30 10641 H 982.23 0.218448 -3.7226 0
M  V30 10642 N 984.415 1.45619 -0.602734 0
M  V30 10643 C 985.661 2.02572 -0.0961759 0
M  V30 10644 C 985.994 1.47076 1.26815 0
M  V30 10645 O 985.269 0.643566 1.83544 0
M  V30 10646 C 985.552 3.60062 -0.0520032 0
M  V30 10647 C 985.405 4.25901 -1.44665 0
M  V30 10648 C 986.724 4.35446 0.638342 0
M  V30 10649 H 983.843 0.736099 -0.0364238 0
M  V30 10650 H 986.485 1.7353 -0.773776 0
M  V30 10651 H 984.635 3.84936 0.525032 0
M  V30 10652 H 986.307 4.12228 -2.0704 0
M  V30 10653 H 984.55 3.84489 -2.00874 0
M  V30 10654 H 985.221 5.34779 -1.36803 0
M  V30 10655 H 987.697 4.15837 0.147926 0
M  V30 10656 H 986.573 5.45176 0.63834 0
M  V30 10657 H 986.834 4.07962 1.70351 0
M  V30 10658 N 985.893 0.34162 1.53853 0
M  V30 10659 C 987.141 -0.254979 2.00485 0
M  V30 10660 C 987.462 -1.51222 1.23114 0
M  V30 10661 O 986.732 -1.92966 0.337787 0
M  V30 10662 H 985.312 -0.0972084 0.740648 0
M  V30 10663 H 987.974 0.462332 1.89337 0
M  V30 10664 H 987.07 -0.498778 3.08089 0
M  V30 10665 N 987.371 -1.57444 0.0701946 0
M  V30 10666 C 988.617 -1.93716 -0.600178 0
M  V30 10667 C 988.95 -0.950329 -1.69359 0
M  V30 10668 O 988.225 0.0207123 -1.94489 0
M  V30 10669 C 988.508 -3.40266 -1.17861 0
M  V30 10670 C 988.361 -4.49706 -0.0919575 0
M  V30 10671 C 989.68 -3.87599 -2.08459 0
M  V30 10672 H 986.799 -0.704421 -0.216704 0
M  V30 10673 H 989.441 -1.89514 0.135838 0
M  V30 10674 H 987.591 -3.43977 -1.80587 0
M  V30 10675 H 989.263 -4.58116 0.541031 0
M  V30 10676 H 987.506 -4.29937 0.577639 0
M  V30 10677 H 988.177 -5.49381 -0.537048 0
M  V30 10678 H 990.653 -3.85883 -1.5567 0
M  V30 10679 H 989.529 -4.90755 -2.45867 0
M  V30 10680 H 989.79 -3.25448 -2.99226 0
M  V30 10681 N 988.849 0.203349 -1.56283 0
M  V30 10682 C 990.098 0.92315 -1.79334 0
M  V30 10683 C 990.411 1.84765 -0.641977 0
M  V30 10684 O 991.617 2.60745 -0.756584 0
M  V30 10685 C 990.073 1.69184 -3.17655 0
M  V30 10686 C 989.681 0.812581 -4.40569 0
M  V30 10687 C 991.425 2.40177 -3.50022 0
M  V30 10688 C 989.332 1.57967 -5.69913 0
M  V30 10689 H 988.262 0.348442 -0.668659 0
M  V30 10690 H 990.913 0.1766 -1.82648 0
M  V30 10691 H 989.295 2.48197 -3.08568 0
M  V30 10692 H 990.469 0.0616956 -4.60759 0
M  V30 10693 H 988.784 0.21389 -4.1585 0
M  V30 10694 H 991.381 2.98103 -4.4389 0
M  V30 10695 H 991.724 3.13961 -2.73376 0
M  V30 10696 H 992.257 1.68138 -3.6052 0
M  V30 10697 H 988.996 0.884767 -6.49501 0
M  V30 10698 H 988.516 2.3047 -5.53754 0
M  V30 10699 H 990.195 2.13562 -6.10737 0
M  V30 10700 N 990.327 1.50405 0.470755 0
M  V30 10701 C 991.574 1.61411 1.22281 0
M  V30 10702 C 991.902 0.314603 1.91939 0
M  V30 10703 O 991.157 -0.699531 1.82771 0
M  V30 10704 C 991.456 2.74426 2.28965 0
M  V30 10705 C 991.122 4.14896 1.76557 0
M  V30 10706 C 989.784 4.53116 1.61985 0
M  V30 10707 C 992.136 5.02686 1.3768 0
M  V30 10708 C 989.464 5.76868 1.0696 0
M  V30 10709 C 991.816 6.26985 0.840967 0
M  V30 10710 C 990.48 6.64008 0.68188 0
M  V30 10711 H 989.75 0.590645 0.447459 0
M  V30 10712 H 992.397 1.84339 0.518783 0
M  V30 10713 H 990.702 2.45588 3.05277 0
M  V30 10714 H 992.399 2.80146 2.86914 0
M  V30 10715 H 988.989 3.84743 1.88867 0
M  V30 10716 H 993.173 4.7379 1.47772 0
M  V30 10717 H 988.429 6.04227 0.933808 0
M  V30 10718 H 992.603 6.94372 0.531066 0
M  V30 10719 H 990.23 7.59778 0.25335 0
M  V30 10720 N 991.805 -0.723954 1.39988 0
M  V30 10721 C 993.035 -1.51094 1.40905 0
M  V30 10722 C 993.443 -1.89199 0.00476744 0
M  V30 10723 O 992.786 -1.55398 -0.979646 0
M  V30 10724 C 992.848 -2.82114 2.22827 0
M  V30 10725 C 992.512 -2.66379 3.71337 0
M  V30 10726 C 993.509 -2.34192 4.64166 0
M  V30 10727 C 991.194 -2.82905 4.15054 0
M  V30 10728 C 993.188 -2.18729 5.98696 0
M  V30 10729 C 990.875 -2.67059 5.49657 0
M  V30 10730 C 991.873 -2.35018 6.41292 0
M  V30 10731 O 991.561 -2.19284 7.73414 0
M  V30 10732 H 991.293 -0.473142 0.482818 0
M  V30 10733 H 993.847 -0.901321 1.84568 0
M  V30 10734 H 992.077 -3.45377 1.7393 0
M  V30 10735 H 993.766 -3.43789 2.15787 0
M  V30 10736 H 994.532 -2.21065 4.31689 0
M  V30 10737 H 990.411 -3.06834 3.44055 0
M  V30 10738 H 993.955 -1.93641 6.70186 0
M  V30 10739 H 989.852 -2.79768 5.81722 0
M  V30 10740 H 990.62 -2.34269 7.84258 0
M  V30 10741 N 993.283 -1.25346 -0.955304 0
M  V30 10742 C 994.215 -1.0146 -2.0552 0
M  V30 10743 C 995.228 0.0202256 -1.62787 0
M  V30 10744 O 996.417 -0.218251 -1.77161 0
M  V30 10745 C 993.517 -0.511727 -3.35014 0
M  V30 10746 C 992.69 -1.61256 -4.0659 0
M  V30 10747 C 991.749 -1.11017 -5.14356 0
M  V30 10748 O 990.775 -1.80443 -5.39842 0
M  V30 10749 N 991.977 0.0489001 -5.80479 0
M  V30 10750 H 994.742 -1.96166 -2.26581 0
M  V30 10751 H 992.303 -1.16543 -1.12381 0
M  V30 10752 H 994.295 -0.160123 -4.04383 0
M  V30 10753 H 992.865 0.341377 -3.1073 0
M  V30 10754 H 992.085 -2.13577 -3.31328 0
M  V30 10755 H 993.373 -2.35213 -4.51168 0
M  V30 10756 H 992.771 0.629021 -5.62192 0
M  V30 10757 H 991.328 0.341542 -6.50905 0
M  V30 10758 N 994.761 1.15782 -1.06922 0
M  V30 10759 C 996.001 1.88135 -0.799043 0
M  V30 10760 C 996.365 1.80203 0.662632 0
M  V30 10761 O 997.566 2.47543 1.04767 0
M  V30 10762 C 995.837 3.3339 -1.28786 0
M  V30 10763 S 997.396 4.23525 -1.1477 0
M  V30 10764 H 994.214 0.649313 -0.289679 0
M  V30 10765 H 996.816 1.3972 -1.36743 0
M  V30 10766 H 995.52 3.36705 -2.34645 0
M  V30 10767 H 995.051 3.86857 -0.714489 0
M  V30 10768 H 997.066 4.96131 -0.0825264 0
M  V30 10769 N 996.239 0.8527 1.3254 0
M  V30 10770 C 997.169 0.311234 2.31416 0
M  V30 10771 C 998.15 -0.588557 1.59593 0
M  V30 10772 O 999.335 -0.509211 1.87405 0
M  V30 10773 C 996.465 -0.502892 3.4364 0
M  V30 10774 C 995.419 0.302296 4.26931 0
M  V30 10775 C 994.745 -0.636445 5.30899 0
M  V30 10776 C 996.045 1.52697 4.99481 0
M  V30 10777 H 997.739 1.13742 2.76953 0
M  V30 10778 H 995.285 0.548389 1.33149 0
M  V30 10779 H 997.238 -0.892092 4.11849 0
M  V30 10780 H 995.962 -1.36242 2.96826 0
M  V30 10781 H 994.621 0.673226 3.60365 0
M  V30 10782 H 994.269 -1.49277 4.80339 0
M  V30 10783 H 993.969 -0.101716 5.87512 0
M  V30 10784 H 995.493 -1.02286 6.01972 0
M  V30 10785 H 996.907 1.21017 5.60382 0
M  V30 10786 H 995.304 1.9995 5.65809 0
M  V30 10787 H 996.374 2.28929 4.27457 0
M  V30 10788 N 997.718 -1.45297 0.610449 0
M  V30 10789 C 998.948 -2.0629 0.113047 0
M  V30 10790 C 999.356 -1.45527 -1.20907 0
M  V30 10791 O 998.699 -0.564837 -1.74801 0
M  V30 10792 C 998.761 -3.59366 -0.0979692 0
M  V30 10793 C 998.425 -4.42481 1.14279 0
M  V30 10794 C 999.422 -4.77277 2.06161 0
M  V30 10795 C 997.107 -4.83187 1.37241 0
M  V30 10796 C 999.101 -5.51639 3.19333 0
M  V30 10797 C 996.788 -5.57303 2.50713 0
M  V30 10798 C 997.786 -5.91445 3.41587 0
M  V30 10799 O 997.474 -6.64056 4.53083 0
M  V30 10800 H 997.206 -0.67264 0.0673159 0
M  V30 10801 H 999.76 -1.87486 0.838937 0
M  V30 10802 H 997.99 -3.76582 -0.878783 0
M  V30 10803 H 999.679 -4.02193 -0.547327 0
M  V30 10804 H 1000.44 -4.46384 1.89647 0
M  V30 10805 H 996.324 -4.56045 0.67407 0
M  V30 10806 H 999.868 -5.78207 3.90286 0
M  V30 10807 H 995.765 -5.8761 2.67179 0
M  V30 10808 H 996.533 -6.82509 4.51801 0
M  V30 10809 N 999.196 -0.349774 -1.5367 0
M  V30 10810 C 1000.44 0.244343 -2.00617 0
M  V30 10811 C 1000.76 1.50567 -1.23914 0
M  V30 10812 O 1000.03 1.92784 -0.348016 0
M  V30 10813 H 998.615 0.0932792 -0.741153 0
M  V30 10814 H 1001.28 -0.472367 -1.89089 0
M  V30 10815 H 1000.37 0.482433 -3.08349 0
M  V30 10816 N 1000.67 1.57404 -0.0785433 0
M  V30 10817 C 1002.09 1.57158 0.2781 0
M  V30 10818 C 1002.29 1.08847 1.69572 0
M  V30 10819 O 1001.35 0.757407 2.40873 0
M  V30 10820 C 1002.66 3.00589 0.0816067 0
M  V30 10821 C 1004.21 3.12637 0.150627 0
M  V30 10822 C 1004.68 4.57997 -0.0176685 0
M  V30 10823 N 1006.17 4.63185 0.0377145 0
M  V30 10824 C 1006.91 5.7336 -0.0679907 0
M  V30 10825 N 1006.4 6.92426 -0.227598 0
M  V30 10826 N 1008.2 5.62099 -0.0104424 0
M  V30 10827 H 1000.35 1.87121 -1.00496 0
M  V30 10828 H 1002.61 0.862937 -0.392484 0
M  V30 10829 H 1002.32 3.40072 -0.896869 0
M  V30 10830 H 1002.19 3.67931 0.831046 0
M  V30 10831 H 1004.58 2.73037 1.11959 0
M  V30 10832 H 1004.66 2.4792 -0.630028 0
M  V30 10833 H 1004.3 4.98288 -0.983431 0
M  V30 10834 H 1004.23 5.20754 0.782475 0
M  V30 10835 H 1006.72 3.77564 0.159208 0
M  V30 10836 H 1007.04 7.72217 -0.300217 0
M  V30 10837 H 1005.38 6.94502 -0.263049 0
M  V30 10838 H 1008.57 4.67964 0.112999 0
M  V30 10839 H 1008.75 6.47928 -0.0962747 0
M  V30 10840 N 1002.15 -0.195058 1.56388 0
M  V30 10841 C 1003.1 -1.24175 1.94549 0
M  V30 10842 C 1004.07 -1.45229 0.806089 0
M  V30 10843 O 1005.25 -1.58362 1.06425 0
M  V30 10844 C 1002.39 -2.58145 2.29031 0
M  V30 10845 C 1001.51 -2.44669 3.56035 0
M  V30 10846 C 1000.64 -3.71342 3.7984 0
M  V30 10847 C 999.681 -3.52699 5.0027 0
M  V30 10848 N 998.818 -4.71385 5.20328 0
M  V30 10849 H 1003.66 -0.909319 2.83788 0
M  V30 10850 H 1001.19 -0.437641 1.40439 0
M  V30 10851 H 1003.15 -3.36195 2.4704 0
M  V30 10852 H 1001.78 -2.8943 1.42933 0
M  V30 10853 H 1000.83 -1.57916 3.46073 0
M  V30 10854 H 1002.15 -2.26827 4.44242 0
M  V30 10855 H 1001.3 -4.57832 3.98088 0
M  V30 10856 H 1000.04 -3.92138 2.89964 0
M  V30 10857 H 999.045 -2.64594 4.81944 0
M  V30 10858 H 1000.27 -3.33349 5.91655 0
M  V30 10859 H 998.216 -4.92444 4.33399 0
M  V30 10860 H 998.133 -4.56368 6.02714 0
M  V30 10861 H 999.401 -5.59226 5.43035 0
M  V30 10862 N 1003.63 -1.50653 -0.462772 0
M  V30 10863 C 1005.04 -1.54821 -1.04342 0
M  V30 10864 C 1005.39 -0.356595 -1.92932 0
M  V30 10865 O 1004.52 0.529579 -2.0982 0
M  V30 10866 C 1005.11 -2.80571 -1.89909 0
M  V30 10867 C 1003.67 -2.87394 -2.43067 0
M  V30 10868 C 1002.82 -2.49206 -1.21621 0
M  V30 10869 H 1005.77 -1.56797 -0.245048 0
M  V30 10870 H 1005.79 -2.62897 -2.75074 0
M  V30 10871 H 1005.3 -3.67281 -1.25405 0
M  V30 10872 H 1003.4 -2.05055 -3.111 0
M  V30 10873 H 1003.52 -3.90477 -2.77605 0
M  V30 10874 H 1001.88 -2.01829 -1.55361 0
M  V30 10875 H 1002.66 -3.38233 -0.587669 0
M  V30 10876 N 1005.11 0.71652 -1.4037 0
M  V30 10877 C 1006.36 1.47638 -1.38597 0
M  V30 10878 C 1006.68 1.94496 0.0120141 0
M  V30 10879 O 1005.94 1.68437 0.996373 0
M  V30 10880 C 1006.24 2.71777 -2.32103 0
M  V30 10881 C 1005.9 2.43689 -3.79376 0
M  V30 10882 C 1004.57 2.35739 -4.195 0
M  V30 10883 C 1006.92 2.20099 -4.72447 0
M  V30 10884 C 1004.25 2.02265 -5.50732 0
M  V30 10885 C 1006.6 1.88138 -6.03976 0
M  V30 10886 C 1005.26 1.78669 -6.43143 0
M  V30 10887 H 1004.53 0.540246 -0.507163 0
M  V30 10888 H 1007.18 0.820822 -1.73017 0
M  V30 10889 H 1005.48 3.42166 -1.90865 0
M  V30 10890 H 1007.18 3.29864 -2.28015 0
M  V30 10891 H 1003.77 2.50763 -3.47585 0
M  V30 10892 H 1007.95 2.25198 -4.42266 0
M  V30 10893 H 1003.21 1.93471 -5.79982 0
M  V30 10894 H 1007.38 1.68898 -6.75608 0
M  V30 10895 H 1005.01 1.52498 -7.44747 0
M  V30 10896 N 1006.59 1.25851 0.948643 0
M  V30 10897 C 1007.83 1.10735 1.69062 0
M  V30 10898 C 1008.16 -0.351257 1.9181 0
M  V30 10899 O 1007.43 -1.24867 1.50947 0
M  V30 10900 H 1006.01 0.406796 0.626519 0
M  V30 10901 H 1008.67 1.58066 1.14022 0
M  V30 10902 H 1007.76 1.62033 2.66743 0
M  V30 10903 N 1008.06 -1.15214 1.07534 0
M  V30 10904 C 1009.01 -2.18022 0.667108 0
M  V30 10905 C 1010 -1.57911 -0.308714 0
M  V30 10906 O 1011.19 -1.76578 -0.122147 0
M  V30 10907 C 1008.32 -3.43232 0.0684348 0
M  V30 10908 C 1007.41 -4.10393 1.06951 0
M  V30 10909 N 1007.8 -4.53013 2.24973 0
M  V30 10910 C 1006.09 -4.36758 0.903262 0
M  V30 10911 C 1006.8 -5.05118 2.88498 0
M  V30 10912 N 1005.77 -4.98777 2.16153 0
M  V30 10913 H 1009.57 -2.48706 1.56597 0
M  V30 10914 H 1007.09 -1.31801 0.948796 0
M  V30 10915 H 1009.08 -4.16197 -0.241934 0
M  V30 10916 H 1007.74 -3.14031 -0.825525 0
M  V30 10917 H 1008.76 -4.4634 2.6268 0
M  V30 10918 H 1005.43 -4.17453 0.0623543 0
M  V30 10919 H 1006.82 -5.48039 3.8872 0
M  V30 10920 N 1009.54 -0.859717 -1.32086 0
M  V30 10921 C 1010.49 -0.296897 -2.30697 0
M  V30 10922 C 1011.48 0.582473 -1.59071 0
M  V30 10923 O 1012.69 0.469713 -1.73763 0
M  V30 10924 H 1009.07 -0.0773132 -0.748015 0
M  V30 10925 H 1011.04 -1.14273 -2.75652 0
M  V30 10926 C 1009.79 0.495546 -3.44151 0
M  V30 10927 H 1009.11 -0.171829 -3.99431 0
M  V30 10928 H 1010.55 0.854854 -4.15293 0
M  V30 10929 C 1009.01 1.68278 -2.91863 0
M  V30 10930 O 1009.54 2.78194 -2.89777 0
M  V30 10931 N 1007.74 1.51151 -2.48197 0
M  V30 10932 H 1007.29 0.617345 -2.50093 0
M  V30 10933 H 1007.25 2.3073 -2.13567 0
M  V30 10934 N 1011.02 1.44971 -0.618145 0
M  V30 10935 C 1011.95 2.28815 0.132751 0
M  V30 10936 C 1012.97 1.40551 0.821535 0
M  V30 10937 O 1014.15 1.64827 0.685155 0
M  V30 10938 C 1011.25 3.1658 1.20955 0
M  V30 10939 C 1010.43 4.33184 0.605821 0
M  V30 10940 C 1009.49 5.0208 1.57488 0
M  V30 10941 O 1008.51 5.58528 1.09706 0
M  V30 10942 N 1009.71 5.02335 2.9093 0
M  V30 10943 H 1012.48 2.939 -0.58674 0
M  V30 10944 H 1010.04 1.55276 -0.458375 0
M  V30 10945 H 1012.03 3.59535 1.85787 0
M  V30 10946 H 1010.6 2.53333 1.83143 0
M  V30 10947 H 1009.82 3.93581 -0.220827 0
M  V30 10948 H 1011.11 5.08471 0.182883 0
M  V30 10949 H 1010.51 4.57783 3.32342 0
M  V30 10950 H 1009.07 5.49119 3.51157 0
M  V30 10951 N 1012.5 0.357919 1.53482 0
M  V30 10952 C 1013.72 -0.237769 2.06033 0
M  V30 10953 C 1014.15 -1.42292 1.23023 0
M  V30 10954 O 1013.51 -1.79604 0.247427 0
M  V30 10955 C 1013.55 -0.616806 3.55286 0
M  V30 10956 O 1012.66 -1.71503 3.75047 0
M  V30 10957 H 1012 -0.0364322 0.663 0
M  V30 10958 H 1014.53 0.516301 1.97979 0
M  V30 10959 H 1014.54 -0.88996 3.98175 0
M  V30 10960 H 1013.21 0.249825 4.15149 0
M  V30 10961 H 1011.79 -1.43803 3.44057 0
M  V30 10962 N 1013.98 -1.5736 0.0868897 0
M  V30 10963 C 1014.91 -2.10582 -0.904858 0
M  V30 10964 C 1015.92 -1.04124 -1.25148 0
M  V30 10965 O 1017.11 -1.31595 -1.20603 0
M  V30 10966 C 1014.21 -2.56381 -2.21635 0
M  V30 10967 C 1013.38 -3.86581 -2.04631 0
M  V30 10968 C 1012.44 -4.18313 -3.19219 0
M  V30 10969 O 1011.47 -4.87669 -2.93544 0
M  V30 10970 N 1012.67 -3.73061 -4.44754 0
M  V30 10971 H 1015.44 -2.96297 -0.450352 0
M  V30 10972 H 1013 -1.616 -0.0984376 0
M  V30 10973 H 1014.99 -2.7466 -2.97227 0
M  V30 10974 H 1013.56 -1.75721 -2.58536 0
M  V30 10975 H 1012.78 -3.77532 -1.13417 0
M  V30 10976 H 1014.07 -4.71777 -1.90537 0
M  V30 10977 H 1013.46 -3.1706 -4.68497 0
M  V30 10978 H 1012.02 -3.96511 -5.17322 0
M  V30 10979 N 1015.45 0.186762 -1.56489 0
M  V30 10980 C 1016.39 1.25565 -1.91745 0
M  V30 10981 C 1017.4 1.4128 -0.80894 0
M  V30 10982 O 1018.59 1.41558 -1.08737 0
M  V30 10983 C 1015.69 2.62662 -2.14154 0
M  V30 10984 C 1014.86 2.68448 -3.45333 0
M  V30 10985 C 1013.92 3.86798 -3.56754 0
M  V30 10986 O 1012.95 3.73514 -4.29507 0
M  V30 10987 N 1014.15 5.02607 -2.90459 0
M  V30 10988 H 1016.91 0.956351 -2.84032 0
M  V30 10989 H 1014.47 0.376631 -1.57458 0
M  V30 10990 H 1016.47 3.40277 -2.19075 0
M  V30 10991 H 1015.04 2.85046 -1.28326 0
M  V30 10992 H 1014.26 1.77044 -3.52206 0
M  V30 10993 H 1015.54 2.69311 -4.31682 0
M  V30 10994 H 1014.94 5.163 -2.31194 0
M  V30 10995 H 1013.5 5.78139 -3.00996 0
M  V30 10996 N 1016.93 1.50896 0.454776 0
M  V30 10997 C 1018.21 1.53227 1.21576 0
M  V30 10998 C 1018.59 0.286358 2.09149 0
M  V30 10999 O 1017.94 -0.729469 2.16543 0
M  V30 11000 C 1018.15 2.83693 2.03271 0
M  V30 11001 C 1019.5 3.34981 2.60908 0
M  V30 11002 O 1020.52 2.85126 2.13499 0
M  V30 11003 O 1019.38 4.21929 3.4733 0
M  V30 11004 H 1016.47 0.615306 0.552564 0
M  V30 11005 H 1019.02 1.63197 0.465266 0
M  V30 11006 H 1017.79 3.65839 1.38843 0
M  V30 11007 H 1017.41 2.76803 2.85422 0
M  V30 11008 N 1018.41 -0.709066 1.40748 0
M  V30 11009 C 1019.66 -1.4646 1.38681 0
M  V30 11010 C 1019.97 -1.95599 -0.0056209 0
M  V30 11011 O 1021.18 -2.71091 -0.148907 0
M  V30 11012 C 1019.63 -2.64771 2.43771 0
M  V30 11013 C 1019.24 -2.22474 3.88856 0
M  V30 11014 C 1020.99 -3.42475 2.50821 0
M  V30 11015 C 1018.89 -3.37663 4.85528 0
M  V30 11016 H 1017.82 -0.550084 0.515678 0
M  V30 11017 H 1020.47 -0.771074 1.66513 0
M  V30 11018 H 1018.86 -3.36325 2.09048 0
M  V30 11019 H 1020.03 -1.58297 4.32757 0
M  V30 11020 H 1018.35 -1.57798 3.85342 0
M  V30 11021 H 1020.94 -4.28201 3.20232 0
M  V30 11022 H 1021.29 -3.86738 1.54076 0
M  V30 11023 H 1021.82 -2.77969 2.84567 0
M  V30 11024 H 1018.56 -2.98426 5.83628 0
M  V30 11025 H 1018.08 -4.00734 4.46287 0
M  V30 11026 H 1019.76 -4.03636 5.05655 0
M  V30 11027 N 1019.89 -1.26353 -0.941956 0
M  V30 11028 C 1020.82 -1.10341 -2.05784 0
M  V30 11029 C 1021.8 -0.00881565 -1.70098 0
M  V30 11030 O 1022.99 -0.180699 -1.93357 0
M  V30 11031 C 1020.12 -0.734788 -3.39438 0
M  V30 11032 C 1019.07 -1.78103 -3.89183 0
M  V30 11033 C 1018.4 -1.26675 -5.19478 0
M  V30 11034 C 1019.7 -3.1824 -4.14151 0
M  V30 11035 H 1021.39 -2.03684 -2.19438 0
M  V30 11036 H 1018.94 -0.980698 -1.05443 0
M  V30 11037 H 1020.89 -0.609653 -4.16967 0
M  V30 11038 H 1019.61 0.234354 -3.25758 0
M  V30 11039 H 1018.27 -1.89482 -3.13835 0
M  V30 11040 H 1017.92 -0.287472 -5.02178 0
M  V30 11041 H 1017.62 -1.96612 -5.53731 0
M  V30 11042 H 1019.14 -1.15427 -5.99591 0
M  V30 11043 H 1020.56 -3.09942 -4.82296 0
M  V30 11044 H 1018.95 -3.8576 -4.59684 0
M  V30 11045 H 1020.02 -3.64354 -3.19959 0
M  V30 11046 N 1021.37 1.14642 -1.08144 0
M  V30 11047 C 1022.3 2.19283 -0.6669 0
M  V30 11048 C 1023.31 1.60292 0.284668 0
M  V30 11049 O 1024.5 1.78352 0.0727383 0
M  V30 11050 C 1021.6 3.38877 0.0398572 0
M  V30 11051 C 1020.77 4.274 -0.929929 0
M  V30 11052 C 1019.83 5.25562 -0.258991 0
M  V30 11053 O 1018.86 5.61999 -0.902563 0
M  V30 11054 N 1020.06 5.71958 0.992177 0
M  V30 11055 H 1022.83 2.55464 -1.5671 0
M  V30 11056 H 1020.39 1.29836 -0.96717 0
M  V30 11057 H 1022.38 4.01605 0.499583 0
M  V30 11058 H 1020.95 3.01043 0.842118 0
M  V30 11059 H 1020.17 3.61649 -1.56857 0
M  V30 11060 H 1021.46 4.83411 -1.58717 0
M  V30 11061 H 1020.86 5.44481 1.53484 0
M  V30 11062 H 1019.41 6.36687 1.39544 0
M  V30 11063 N 1022.85 0.866709 1.31628 0
M  V30 11064 C 1023.76 0.323408 2.3236 0
M  V30 11065 C 1024.77 -0.564995 1.64572 0
M  V30 11066 O 1025.95 -0.462489 1.96018 0
M  V30 11067 C 1023.01 -0.469045 3.43513 0
M  V30 11068 C 1022.07 0.446928 4.26967 0
M  V30 11069 C 1021.31 -0.307799 5.32812 0
M  V30 11070 O 1021.53 -1.5363 5.49321 0
M  V30 11071 O 1020.46 0.332653 6.0098 0
M  V30 11072 H 1024.29 1.15827 2.80745 0
M  V30 11073 H 1021.87 0.629987 1.35468 0
M  V30 11074 H 1023.76 -0.918405 4.1127 0
M  V30 11075 H 1022.43 -1.28051 2.97296 0
M  V30 11076 H 1021.34 0.944719 3.61975 0
M  V30 11077 H 1022.67 1.2239 4.76741 0
M  V30 11078 N 1024.32 -1.44642 0.625825 0
M  V30 11079 C 1025.27 -2.32408 -0.0945221 0
M  V30 11080 C 1026.27 -1.47038 -0.841198 0
M  V30 11081 O 1027.47 -1.63415 -0.754698 0
M  V30 11082 H 1023.85 -0.75038 -0.0493321 0
M  V30 11083 H 1025.82 -2.90922 0.663863 0
M  V30 11084 C 1024.57 -3.30951 -1.06615 0
M  V30 11085 H 1023.89 -3.96648 -0.501021 0
M  V30 11086 H 1025.33 -3.95054 -1.53976 0
M  V30 11087 C 1023.79 -2.59479 -2.14877 0
M  V30 11088 O 1024.32 -2.38974 -3.22885 0
M  V30 11089 N 1022.52 -2.19307 -1.90665 0
M  V30 11090 H 1022.07 -2.36184 -1.02835 0
M  V30 11091 H 1022.03 -1.71811 -2.63303 0
M  V30 11092 N 1025.8 -0.366053 -1.5329 0
M  V30 11093 C 1027.03 0.224236 -2.05681 0
M  V30 11094 C 1027.44 1.42412 -1.23952 0
M  V30 11095 O 1026.8 1.80334 -0.280309 0
M  V30 11096 C 1026.85 0.617266 -3.56191 0
M  V30 11097 O 1026.57 -0.534931 -4.34822 0
M  V30 11098 C 1028.07 1.26589 -4.24841 0
M  V30 11099 H 1025.29 0.0392928 -0.669849 0
M  V30 11100 H 1027.84 -0.52456 -1.97658 0
M  V30 11101 H 1025.99 1.31598 -3.64364 0
M  V30 11102 H 1026.41 -0.217123 -5.2405 0
M  V30 11103 H 1027.88 1.49146 -5.31469 0
M  V30 11104 H 1028.36 2.22633 -3.78591 0
M  V30 11105 H 1028.96 0.6086 -4.20923 0
M  V30 11106 N 1027.28 1.57312 -0.0952337 0
M  V30 11107 C 1028.53 1.93533 0.568131 0
M  V30 11108 C 1028.84 0.979121 1.6933 0
M  V30 11109 O 1030.05 1.23506 2.41782 0
M  V30 11110 C 1028.5 3.43875 1.06198 0
M  V30 11111 C 1028.11 4.47988 -0.0334397 0
M  V30 11112 C 1029.86 3.89057 1.69807 0
M  V30 11113 C 1027.76 5.89483 0.475774 0
M  V30 11114 H 1026.69 0.7224 0.215995 0
M  V30 11115 H 1029.34 1.82699 -0.171257 0
M  V30 11116 H 1027.73 3.49862 1.85506 0
M  V30 11117 H 1028.9 4.53644 -0.808934 0
M  V30 11118 H 1027.21 4.12415 -0.574725 0
M  V30 11119 H 1029.81 4.92171 2.08978 0
M  V30 11120 H 1030.15 3.27713 2.5673 0
M  V30 11121 H 1030.69 3.85772 0.970815 0
M  V30 11122 H 1027.43 6.54528 -0.356837 0
M  V30 11123 H 1026.95 5.87297 1.21827 0
M  V30 11124 H 1028.63 6.40066 0.944697 0
M  V30 11125 N 1028.76 -0.17846 1.56586 0
M  V30 11126 C 1029.69 -1.22342 1.98884 0
M  V30 11127 C 1030.67 -1.46564 0.86331 0
M  V30 11128 O 1031.85 -1.58019 1.12887 0
M  V30 11129 C 1028.98 -2.56396 2.34261 0
M  V30 11130 C 1027.94 -2.46756 3.49708 0
M  V30 11131 C 1027.26 -3.85235 3.70807 0
M  V30 11132 C 1028.56 -1.97838 4.83381 0
M  V30 11133 H 1030.26 -0.871848 2.86425 0
M  V30 11134 H 1027.8 -0.417948 1.37801 0
M  V30 11135 H 1029.76 -3.29695 2.62448 0
M  V30 11136 H 1028.48 -2.93327 1.43621 0
M  V30 11137 H 1027.14 -1.75912 3.21637 0
M  V30 11138 H 1026.79 -4.19547 2.7747 0
M  V30 11139 H 1026.49 -3.79655 4.48481 0
M  V30 11140 H 1028.01 -4.60131 4.01387 0
M  V30 11141 H 1029.43 -2.60906 5.10491 0
M  V30 11142 H 1027.82 -2.03223 5.64642 0
M  V30 11143 H 1028.89 -0.932339 4.75852 0
M  V30 11144 N 1030.24 -1.51135 -0.446768 0
M  V30 11145 C 1031.18 -1.71767 -1.54158 0
M  V30 11146 C 1032.15 -0.559201 -1.56404 0
M  V30 11147 O 1033.34 -0.792567 -1.7356 0
M  V30 11148 C 1030.48 -1.84006 -2.91952 0
M  V30 11149 C 1029.59 -3.11511 -2.99308 0
M  V30 11150 C 1028.73 -3.144 -4.28166 0
M  V30 11151 C 1027.76 -4.36258 -4.29355 0
M  V30 11152 N 1026.9 -4.3675 -5.49722 0
M  V30 11153 H 1031.74 -2.65224 -1.35869 0
M  V30 11154 H 1029.28 -1.31453 -0.660186 0
M  V30 11155 H 1031.24 -1.89083 -3.71892 0
M  V30 11156 H 1029.87 -0.939661 -3.08821 0
M  V30 11157 H 1028.92 -3.15788 -2.12089 0
M  V30 11158 H 1030.23 -4.01445 -2.96047 0
M  V30 11159 H 1029.38 -3.18341 -5.16473 0
M  V30 11160 H 1028.12 -2.22338 -4.3407 0
M  V30 11161 H 1027.13 -4.32503 -3.39442 0
M  V30 11162 H 1028.35 -5.29574 -4.25122 0
M  V30 11163 H 1026.3 -3.47554 -5.56365 0
M  V30 11164 H 1026.22 -5.20481 -5.48302 0
M  V30 11165 H 1027.48 -4.4487 -6.40086 0
M  V30 11166 N 1031.71 0.701592 -1.41122 0
M  V30 11167 C 1032.68 1.79733 -1.42227 0
M  V30 11168 C 1033.68 1.57708 -0.313831 0
M  V30 11169 O 1034.87 1.64492 -0.573423 0
M  V30 11170 C 1032 3.18024 -1.22775 0
M  V30 11171 H 1033.19 1.80148 -2.39764 0
M  V30 11172 H 1030.74 0.908624 -1.27176 0
M  V30 11173 H 1031.48 3.23252 -0.260552 0
M  V30 11174 H 1031.26 3.35411 -2.0308 0
M  V30 11175 H 1032.75 3.98021 -1.2637 0
M  V30 11176 N 1033.19 1.2685 0.935242 0
M  V30 11177 C 1034.42 1.15538 1.71635 0
M  V30 11178 C 1034.83 -0.288698 1.8658 0
M  V30 11179 O 1034.19 -1.19721 1.37743 0
M  V30 11180 C 1034.24 1.8259 3.11999 0
M  V30 11181 O 1033.96 3.21355 2.97763 0
M  V30 11182 C 1035.46 1.77307 4.06297 0
M  V30 11183 H 1032.68 0.402055 0.537208 0
M  V30 11184 H 1035.23 1.67582 1.17203 0
M  V30 11185 H 1033.38 1.3447 3.63313 0
M  V30 11186 H 1033.8 3.54626 3.86446 0
M  V30 11187 H 1035.27 2.28851 5.02326 0
M  V30 11188 H 1035.75 0.740823 4.32907 0
M  V30 11189 H 1036.35 2.25007 3.60904 0
M  V30 11190 N 1034.67 -1.14067 1.0875 0
M  V30 11191 C 1035.58 -2.22871 0.732498 0
M  V30 11192 C 1036.6 -1.72008 -0.26253 0
M  V30 11193 O 1037.77 -2.01123 -0.105601 0
M  V30 11194 C 1034.84 -3.46371 0.150913 0
M  V30 11195 C 1033.9 -4.12158 1.201 0
M  V30 11196 C 1033.13 -5.29763 0.647075 0
M  V30 11197 O 1033.35 -5.67911 -0.532307 0
M  V30 11198 O 1032.29 -5.8542 1.3988 0
M  V30 11199 H 1036.11 -2.55596 1.64025 0
M  V30 11200 H 1033.7 -1.22065 0.861417 0
M  V30 11201 H 1035.58 -4.21055 -0.170442 0
M  V30 11202 H 1034.26 -3.15362 -0.729948 0
M  V30 11203 H 1033.16 -3.39332 1.57494 0
M  V30 11204 H 1034.5 -4.47282 2.05426 0
M  V30 11205 N 1036.15 -0.873678 -1.31166 0
M  V30 11206 C 1037.39 -0.487178 -1.96861 0
M  V30 11207 C 1037.73 0.95887 -1.68877 0
M  V30 11208 O 1037 1.6758 -0.987279 0
M  V30 11209 C 1037.29 -0.74925 -3.52219 0
M  V30 11210 C 1037.14 -2.2451 -3.89763 0
M  V30 11211 C 1038.46 -0.218194 -4.39559 0
M  V30 11212 H 1035.58 -0.178477 -0.715063 0
M  V30 11213 H 1038.22 -1.0956 -1.55231 0
M  V30 11214 H 1036.37 -0.231403 -3.8781 0
M  V30 11215 H 1038.04 -2.83049 -3.64254 0
M  V30 11216 H 1036.28 -2.71621 -3.38237 0
M  V30 11217 H 1036.95 -2.37911 -4.98099 0
M  V30 11218 H 1039.43 -0.661274 -4.10812 0
M  V30 11219 H 1038.31 -0.430983 -5.47205 0
M  V30 11220 H 1038.57 0.880056 -4.33252 0
M  V30 11221 N 1037.63 1.44308 -0.633487 0
M  V30 11222 C 1038.56 2.28943 0.108474 0
M  V30 11223 C 1039.57 1.41415 0.806582 0
M  V30 11224 O 1040.76 1.65544 0.667634 0
M  V30 11225 C 1037.86 3.17845 1.1759 0
M  V30 11226 C 1037.03 4.33802 0.559842 0
M  V30 11227 C 1036.09 5.03722 1.52154 0
M  V30 11228 O 1035.12 5.5966 1.03776 0
M  V30 11229 N 1036.32 5.05392 2.85586 0
M  V30 11230 H 1039.09 2.93262 -0.617879 0
M  V30 11231 H 1036.65 1.54781 -0.474819 0
M  V30 11232 H 1038.64 3.61485 1.81963 0
M  V30 11233 H 1037.21 2.55261 1.80445 0
M  V30 11234 H 1036.43 3.93325 -0.262559 0
M  V30 11235 H 1037.72 5.08637 0.128942 0
M  V30 11236 H 1037.11 4.61282 3.27468 0
M  V30 11237 H 1035.67 5.52813 3.45313 0
M  V30 11238 N 1039.1 0.374177 1.53094 0
M  V30 11239 C 1040.35 -0.212816 2.01379 0
M  V30 11240 C 1040.68 -1.48069 1.26118 0
M  V30 11241 O 1039.93 -1.92625 0.345561 0
M  V30 11242 C 1040.23 -0.542179 3.53264 0
M  V30 11243 C 1039.9 0.632375 4.46444 0
M  V30 11244 C 1038.56 0.954635 4.71636 0
M  V30 11245 C 1040.91 1.41887 5.01515 0
M  V30 11246 C 1038.24 2.06521 5.4915 0
M  V30 11247 C 1040.59 2.51993 5.80243 0
M  V30 11248 C 1039.26 2.84744 6.03719 0
M  V30 11249 H 1038.53 -0.0778749 0.736897 0
M  V30 11250 H 1041.17 0.508412 1.84628 0
M  V30 11251 H 1039.48 -1.34454 3.68007 0
M  V30 11252 H 1041.18 -1.00874 3.88105 0
M  V30 11253 H 1037.77 0.371179 4.2699 0
M  V30 11254 H 1041.95 1.18315 4.81991 0
M  V30 11255 H 1037.21 2.32284 5.65557 0
M  V30 11256 H 1041.38 3.13346 6.21922 0
M  V30 11257 H 1039.01 3.70921 6.63568 0
M  V30 11258 N 1040.58 -1.57259 0.103575 0
M  V30 11259 C 1041.99 -1.81816 -0.424239 0
M  V30 11260 C 1042.34 -1.01976 -1.67617 0
M  V30 11261 O 1041.47 -0.251673 -2.14932 0
M  V30 11262 C 1042.06 -3.29783 -0.776453 0
M  V30 11263 C 1040.62 -3.55074 -1.24897 0
M  V30 11264 C 1039.77 -2.76172 -0.249875 0
M  V30 11265 H 1042.72 -1.55254 0.328913 0
M  V30 11266 H 1042.74 -3.43569 -1.63526 0
M  V30 11267 H 1042.25 -3.87865 0.134906 0
M  V30 11268 H 1040.36 -3.02332 -2.17775 0
M  V30 11269 H 1040.47 -4.637 -1.20495 0
M  V30 11270 H 1038.83 -2.43902 -0.733767 0
M  V30 11271 H 1039.62 -3.37007 0.65431 0
M  V30 11272 N 1042.06 0.170153 -1.56679 0
M  V30 11273 C 1043.47 0.732502 -1.7173 0
M  V30 11274 C 1043.82 1.82736 -0.71428 0
M  V30 11275 O 1042.95 2.16044 0.124102 0
M  V30 11276 C 1043.54 1.33548 -3.11368 0
M  V30 11277 C 1042.1 1.84464 -3.281 0
M  V30 11278 C 1041.25 0.724069 -2.6768 0
M  V30 11279 H 1044.2 -0.0552543 -1.58604 0
M  V30 11280 H 1044.22 2.20519 -3.10083 0
M  V30 11281 H 1043.73 0.5384 -3.84347 0
M  V30 11282 H 1041.83 2.66813 -2.6008 0
M  V30 11283 H 1041.95 1.98928 -4.35849 0
M  V30 11284 H 1040.31 1.14481 -2.27522 0
M  V30 11285 H 1041.09 -0.0611861 -3.43245 0
M  V30 11286 N 1043.54 1.5137 0.438746 0
M  V30 11287 C 1044.49 1.72582 1.53245 0
M  V30 11288 C 1045.46 0.567488 1.56105 0
M  V30 11289 O 1046.64 0.80176 1.73137 0
M  V30 11290 C 1043.78 1.85551 2.90972 0
M  V30 11291 C 1042.89 3.13094 2.97652 0
M  V30 11292 C 1042.03 3.16666 4.26493 0
M  V30 11293 C 1041.07 4.38529 4.27035 0
M  V30 11294 N 1040.2 4.39659 5.47398 0
M  V30 11295 H 1045.04 2.65941 1.3446 0
M  V30 11296 H 1042.58 1.31801 0.653206 0
M  V30 11297 H 1044.54 1.91053 3.70884 0
M  V30 11298 H 1043.17 0.956025 3.08318 0
M  V30 11299 H 1042.22 3.16909 2.10412 0
M  V30 11300 H 1043.53 4.03009 2.93914 0
M  V30 11301 H 1042.69 3.21075 5.14777 0
M  V30 11302 H 1041.43 2.24637 4.32885 0
M  V30 11303 H 1040.43 4.34297 3.37144 0
M  V30 11304 H 1041.66 5.31821 4.22307 0
M  V30 11305 H 1039.6 3.50499 5.54514 0
M  V30 11306 H 1039.52 5.23382 5.45534 0
M  V30 11307 H 1040.79 4.48259 6.37718 0
M  V30 11308 N 1045.02 -0.694098 1.41492 0
M  V30 11309 C 1046.43 -1.27407 1.36471 0
M  V30 11310 C 1046.78 -1.9614 0.0485209 0
M  V30 11311 O 1045.9 -1.98871 -0.853188 0
M  V30 11312 C 1046.5 -2.31698 2.47188 0
M  V30 11313 C 1045.06 -2.85268 2.45559 0
M  V30 11314 C 1044.2 -1.59325 2.2696 0
M  V30 11315 H 1047.16 -0.488756 1.50986 0
M  V30 11316 H 1047.18 -3.1302 2.1633 0
M  V30 11317 H 1046.69 -1.81644 3.42968 0
M  V30 11318 H 1044.79 -3.39494 1.5354 0
M  V30 11319 H 1044.9 -3.35598 3.41922 0
M  V30 11320 H 1043.27 -1.85188 1.74864 0
M  V30 11321 H 1044.05 -1.11265 3.24769 0
M  V30 11322 N 1046.49 -1.27344 -0.928501 0
M  V30 11323 C 1047.74 -1.13804 -1.67859 0
M  V30 11324 C 1048.07 0.31555 -1.91619 0
M  V30 11325 O 1047.35 1.23087 -1.50599 0
M  V30 11326 C 1047.63 -1.9213 -3.04562 0
M  V30 11327 C 1047.48 -3.45468 -2.88048 0
M  V30 11328 C 1048.8 -1.72513 -4.04879 0
M  V30 11329 H 1045.92 -0.414796 -0.609191 0
M  V30 11330 H 1048.56 -1.5649 -1.07753 0
M  V30 11331 H 1046.71 -1.55853 -3.55868 0
M  V30 11332 H 1048.39 -3.9157 -2.43865 0
M  V30 11333 H 1046.63 -3.71849 -2.23407 0
M  V30 11334 H 1047.3 -3.95515 -3.85061 0
M  V30 11335 H 1049.78 -2.04143 -3.62581 0
M  V30 11336 H 1048.65 -2.29713 -4.98521 0
M  V30 11337 H 1048.91 -0.672856 -4.3695 0
M  V30 11338 N 1047.97 1.13488 -1.09353 0
M  V30 11339 C 1049.22 1.85022 -0.830354 0
M  V30 11340 C 1049.55 1.83266 0.64242 0
M  V30 11341 O 1048.83 1.27024 1.47293 0
M  V30 11342 C 1049.11 3.33218 -1.36521 0
M  V30 11343 C 1048.96 3.43491 -2.90404 0
M  V30 11344 C 1050.28 4.28626 -0.998381 0
M  V30 11345 H 1047.4 0.671786 -0.303105 0
M  V30 11346 H 1050.04 1.33211 -1.3548 0
M  V30 11347 H 1048.19 3.77471 -0.919117 0
M  V30 11348 H 1049.86 3.07954 -3.43456 0
M  V30 11349 H 1048.11 2.84391 -3.27573 0
M  V30 11350 H 1048.78 4.47702 -3.22905 0
M  V30 11351 H 1051.25 3.9244 -1.38311 0
M  V30 11352 H 1050.13 5.30754 -1.39968 0
M  V30 11353 H 1050.39 4.42001 0.093517 0
M  V30 11354 N 1049.45 0.880621 1.30701 0
M  V30 11355 C 1050.68 0.511682 2.00473 0
M  V30 11356 C 1051.09 -0.898684 1.6604 0
M  V30 11357 O 1050.45 -1.59035 0.895218 0
M  V30 11358 C 1050.5 0.671723 3.55204 0
M  V30 11359 O 1050.22 2.02656 3.8841 0
M  V30 11360 C 1051.72 0.3052 4.42248 0
M  V30 11361 H 1048.94 0.198231 0.64105 0
M  V30 11362 H 1051.49 1.18472 1.66687 0
M  V30 11363 H 1049.64 0.0461066 3.87373 0
M  V30 11364 H 1050.06 2.04202 4.83117 0
M  V30 11365 H 1051.53 0.468095 5.50012 0
M  V30 11366 H 1052.01 -0.756456 4.32637 0
M  V30 11367 H 1052.61 0.906959 4.15517 0
M  V30 11368 N 1050.93 -1.4397 0.641131 0
M  V30 11369 C 1052.34 -1.85267 0.230838 0
M  V30 11370 C 1052.69 -1.53659 -1.21998 0
M  V30 11371 O 1051.82 -0.979572 -1.92959 0
M  V30 11372 C 1052.41 -3.36284 0.412171 0
M  V30 11373 C 1050.97 -3.76358 0.0563004 0
M  V30 11374 C 1050.12 -2.67768 0.720809 0
M  V30 11375 H 1053.07 -1.34294 0.845624 0
M  V30 11376 H 1053.09 -3.78924 -0.345936 0
M  V30 11377 H 1052.6 -3.59258 1.46818 0
M  V30 11378 H 1050.7 -3.58997 -0.997582 0
M  V30 11379 H 1050.82 -4.76756 0.473335 0
M  V30 11380 H 1049.18 -2.54227 0.155164 0
M  V30 11381 H 1049.96 -2.93573 1.77961 0
M  V30 11382 N 1052.41 -0.382291 -1.52893 0
M  V30 11383 C 1053.32 0.463745 -2.29971 0
M  V30 11384 C 1054.33 1.07777 -1.36602 0
M  V30 11385 O 1055.51 1.0851 -1.69669 0
M  V30 11386 C 1052.57 1.57938 -3.08637 0
M  V30 11387 C 1051.64 0.991182 -4.17701 0
M  V30 11388 C 1050.87 2.05365 -4.92606 0
M  V30 11389 O 1051.09 3.26757 -4.67532 0
M  V30 11390 O 1050.03 1.67487 -5.78128 0
M  V30 11391 H 1053.85 -0.163962 -3.03257 0
M  V30 11392 H 1051.44 -0.146199 -1.48683 0
M  V30 11393 H 1053.32 2.22765 -3.57706 0
M  V30 11394 H 1051.99 2.19218 -2.3817 0
M  V30 11395 H 1050.9 0.306364 -3.72843 0
M  V30 11396 H 1052.23 0.422699 -4.90382 0
M  V30 11397 N 1053.89 1.57202 -0.111913 0
M  V30 11398 C 1054.85 2.13778 0.826534 0
M  V30 11399 C 1055.85 1.07097 1.19945 0
M  V30 11400 O 1057.04 1.32906 1.12613 0
M  V30 11401 C 1054.17 2.6722 2.11675 0
M  V30 11402 H 1055.36 2.98023 0.334975 0
M  V30 11403 H 1052.92 1.55696 0.137256 0
M  V30 11404 H 1053.65 1.86542 2.65278 0
M  V30 11405 H 1053.44 3.45235 1.8589 0
M  V30 11406 H 1054.93 3.10926 2.78774 0
M  V30 11407 N 1055.36 -0.161842 1.56767 0
M  V30 11408 C 1056.31 -1.2002 1.97139 0
M  V30 11409 C 1057.28 -1.43486 0.836713 0
M  V30 11410 O 1058.47 -1.56069 1.0976 0
M  V30 11411 C 1055.61 -2.53228 2.34456 0
M  V30 11412 C 1054.72 -2.37062 3.61145 0
M  V30 11413 C 1053.85 -3.63202 3.87631 0
M  V30 11414 C 1052.89 -3.42008 5.07638 0
M  V30 11415 N 1052.03 -4.60242 5.30209 0
M  V30 11416 H 1056.87 -0.848918 2.85653 0
M  V30 11417 H 1054.41 -0.407753 1.41336 0
M  V30 11418 H 1056.36 -3.30879 2.54116 0
M  V30 11419 H 1054.99 -2.86333 1.4904 0
M  V30 11420 H 1054.05 -1.50539 3.49345 0
M  V30 11421 H 1055.36 -2.17353 4.48953 0
M  V30 11422 H 1054.51 -4.49285 4.0771 0
M  V30 11423 H 1053.25 -3.85899 2.98216 0
M  V30 11424 H 1052.26 -2.54312 4.87448 0
M  V30 11425 H 1053.48 -3.20724 5.98593 0
M  V30 11426 H 1051.43 -4.8314 4.43747 0
M  V30 11427 H 1051.34 -4.43481 6.12259 0
M  V30 11428 H 1052.61 -5.47581 5.54775 0
M  V30 11429 N 1056.84 -1.516 -0.430713 0
M  V30 11430 C 1057.8 -1.72794 -1.50582 0
M  V30 11431 C 1058.8 -0.597903 -1.49271 0
M  V30 11432 O 1059.99 -0.865535 -1.51176 0
M  V30 11433 C 1057.13 -1.79049 -2.90093 0
M  V30 11434 H 1058.32 -2.68751 -1.33091 0
M  V30 11435 H 1055.87 -1.4169 -0.659822 0
M  V30 11436 H 1056.61 -0.849309 -3.12981 0
M  V30 11437 H 1056.39 -2.61181 -2.92449 0
M  V30 11438 H 1057.88 -1.97262 -3.68072 0
M  V30 11439 N 1058.32 0.686584 -1.41858 0
M  V30 11440 C 1059.57 1.44665 -1.41698 0
M  V30 11441 C 1059.89 1.94478 -0.0292442 0
M  V30 11442 O 1059.15 1.70512 0.960421 0
M  V30 11443 C 1059.45 2.66793 -2.37816 0
M  V30 11444 C 1059.11 2.35587 -3.8446 0
M  V30 11445 C 1057.78 2.26788 -4.24406 0
M  V30 11446 C 1060.13 2.10028 -4.77009 0
M  V30 11447 C 1057.46 1.90538 -5.54898 0
M  V30 11448 C 1059.81 1.75285 -6.07831 0
M  V30 11449 C 1058.47 1.64987 -6.46789 0
M  V30 11450 H 1057.74 0.529367 -0.518509 0
M  V30 11451 H 1060.39 0.783938 -1.74719 0
M  V30 11452 H 1058.69 3.38041 -1.9808 0
M  V30 11453 H 1060.39 3.24953 -2.34961 0
M  V30 11454 H 1056.98 2.43334 -3.52826 0
M  V30 11455 H 1061.17 2.15766 -4.46944 0
M  V30 11456 H 1056.42 1.81125 -5.83955 0
M  V30 11457 H 1060.6 1.5453 -6.79039 0
M  V30 11458 H 1058.22 1.36667 -7.47814 0
M  V30 11459 N 1059.8 1.27835 0.921735 0
M  V30 11460 C 1061.05 1.13904 1.6646 0
M  V30 11461 C 1061.36 -0.313379 1.93073 0
M  V30 11462 O 1062.57 -0.573687 2.6537 0
M  V30 11463 C 1061.02 1.99064 2.99836 0
M  V30 11464 C 1060.63 3.48998 2.80899 0
M  V30 11465 C 1062.37 1.93797 3.77681 0
M  V30 11466 C 1060.28 4.26337 4.09867 0
M  V30 11467 H 1059.21 0.422681 0.624385 0
M  V30 11468 H 1061.86 1.52303 1.02352 0
M  V30 11469 H 1060.24 1.53514 3.65034 0
M  V30 11470 H 1061.42 4.02452 2.24431 0
M  V30 11471 H 1059.73 3.55707 2.16476 0
M  V30 11472 H 1062.33 2.48852 4.73262 0
M  V30 11473 H 1062.67 0.912928 4.06167 0
M  V30 11474 H 1063.21 2.37275 3.19289 0
M  V30 11475 H 1059.94 5.2939 3.86557 0
M  V30 11476 H 1059.46 3.77659 4.65976 0
M  V30 11477 H 1061.14 4.3583 4.78185 0
M  V30 11478 N 1061.28 -1.12907 1.09954 0
M  V30 11479 C 1062.69 -1.363 0.830326 0
M  V30 11480 C 1062.89 -1.93772 -0.552694 0
M  V30 11481 O 1061.95 -2.1607 -1.30652 0
M  V30 11482 C 1063.26 -2.30925 1.92598 0
M  V30 11483 C 1064.81 -2.44528 1.95385 0
M  V30 11484 C 1065.28 -3.42464 3.0411 0
M  V30 11485 N 1066.77 -3.50018 3.03384 0
M  V30 11486 C 1067.51 -4.25693 3.84152 0
M  V30 11487 N 1067.01 -5.04476 4.74843 0
M  V30 11488 N 1068.8 -4.21049 3.7239 0
M  V30 11489 H 1060.95 -0.739571 1.99108 0
M  V30 11490 H 1063.21 -0.387983 0.86497 0
M  V30 11491 H 1062.92 -1.95861 2.92115 0
M  V30 11492 H 1062.79 -3.30997 1.80889 0
M  V30 11493 H 1065.18 -2.78875 0.965037 0
M  V30 11494 H 1065.26 -1.44361 2.11172 0
M  V30 11495 H 1064.9 -3.08847 4.03207 0
M  V30 11496 H 1064.83 -4.42448 2.85565 0
M  V30 11497 H 1067.33 -2.93809 2.37665 0
M  V30 11498 H 1067.64 -5.59541 5.33042 0
M  V30 11499 H 1065.98 -5.0369 4.78875 0
M  V30 11500 H 1069.17 -3.5858 3.00895 0
M  V30 11501 H 1069.35 -4.79771 4.35572 0
M  V30 11502 N 1062.75 -0.88754 -1.30232 0
M  V30 11503 C 1064.17 -0.581904 -1.48614 0
M  V30 11504 C 1064.37 0.879711 -1.81282 0
M  V30 11505 O 1063.43 1.66076 -1.90198 0
M  V30 11506 C 1064.74 -1.49726 -2.60773 0
M  V30 11507 C 1066.29 -1.50117 -2.74653 0
M  V30 11508 C 1066.76 -2.40251 -3.89927 0
M  V30 11509 N 1068.25 -2.38229 -3.97242 0
M  V30 11510 C 1068.99 -3.04682 -4.85754 0
M  V30 11511 N 1068.48 -3.80369 -5.79043 0
M  V30 11512 N 1070.28 -2.93901 -4.79144 0
M  V30 11513 H 1062.43 -1.83304 -1.073 0
M  V30 11514 H 1064.69 -0.78477 -0.531826 0
M  V30 11515 H 1064.4 -2.5381 -2.43462 0
M  V30 11516 H 1064.27 -1.20874 -3.57308 0
M  V30 11517 H 1066.66 -0.467832 -2.91368 0
M  V30 11518 H 1066.74 -1.83001 -1.7873 0
M  V30 11519 H 1066.38 -3.43671 -3.73969 0
M  V30 11520 H 1066.31 -2.04682 -4.85194 0
M  V30 11521 H 1068.8 -1.83229 -3.30508 0
M  V30 11522 H 1069.12 -4.28159 -6.4335 0
M  V30 11523 H 1067.46 -3.84477 -5.78967 0
M  V30 11524 H 1070.65 -2.34296 -4.05245 0
M  V30 11525 H 1070.83 -3.45967 -5.47915 0
M  V30 11526 N 1064.23 1.43628 -0.648757 0
M  V30 11527 C 1065.47 2.03742 -0.163878 0
M  V30 11528 C 1065.84 1.50047 1.19791 0
M  V30 11529 O 1067.04 2.01777 1.77594 0
M  V30 11530 C 1065.31 3.57001 -0.168849 0
M  V30 11531 S 1066.87 4.38094 0.248835 0
M  V30 11532 H 1063.69 0.70757 -0.0697515 0
M  V30 11533 H 1066.29 1.75759 -0.856094 0
M  V30 11534 H 1064.99 3.93583 -1.16277 0
M  V30 11535 H 1064.52 3.8962 0.544048 0
M  V30 11536 H 1066.54 4.73338 1.48882 0
M  V30 11537 N 1065.71 0.390394 1.52688 0
M  V30 11538 C 1066.64 -0.43567 2.294 0
M  V30 11539 C 1067.62 -1.06253 1.32832 0
M  V30 11540 O 1068.81 -1.07509 1.61726 0
M  V30 11541 C 1065.94 -1.56259 3.10162 0
M  V30 11542 C 1064.89 -1.06172 4.14622 0
M  V30 11543 C 1064.22 -2.2808 4.83615 0
M  V30 11544 C 1065.52 -0.128902 5.22141 0
M  V30 11545 H 1067.21 0.204384 2.98702 0
M  V30 11546 H 1064.76 0.0997377 1.43654 0
M  V30 11547 H 1066.71 -2.14732 3.62585 0
M  V30 11548 H 1065.43 -2.23025 2.38595 0
M  V30 11549 H 1064.09 -0.499518 3.63181 0
M  V30 11550 H 1063.74 -2.93358 4.08595 0
M  V30 11551 H 1063.44 -1.95227 5.5422 0
M  V30 11552 H 1064.96 -2.87193 5.38844 0
M  V30 11553 H 1066.38 -0.621849 5.69917 0
M  V30 11554 H 1064.78 0.109919 5.99999 0
M  V30 11555 H 1065.85 0.821884 4.77884 0
M  V30 11556 N 1067.19 -1.57141 0.120249 0
M  V30 11557 C 1068.15 -2.14213 -0.815185 0
M  V30 11558 C 1069.15 -1.07731 -1.19376 0
M  V30 11559 O 1070.34 -1.33502 -1.11906 0
M  V30 11560 C 1067.47 -2.68339 -2.10255 0
M  V30 11561 H 1068.67 -2.98197 -0.319166 0
M  V30 11562 H 1066.22 -1.55767 -0.128997 0
M  V30 11563 H 1066.95 -1.87946 -2.64285 0
M  V30 11564 H 1066.74 -3.46216 -1.84057 0
M  V30 11565 H 1068.23 -3.124 -2.77121 0
M  V30 11566 N 1068.67 0.153526 -1.5685 0
M  V30 11567 C 1069.9 0.881055 -1.86872 0
M  V30 11568 C 1070.3 1.75547 -0.705692 0
M  V30 11569 O 1069.65 1.8064 0.333888 0
M  V30 11570 C 1069.71 1.79429 -3.11521 0
M  V30 11571 C 1069.37 1.0977 -4.43621 0
M  V30 11572 C 1070.37 0.454693 -5.17908 0
M  V30 11573 C 1068.06 1.08915 -4.9035 0
M  V30 11574 C 1070.05 -0.187562 -6.37124 0
M  V30 11575 C 1067.74 0.443084 -6.09492 0
M  V30 11576 C 1068.73 -0.194154 -6.82724 0
M  V30 11577 O 1068.42 -0.829995 -7.99604 0
M  V30 11578 H 1068.15 0.260486 -0.623797 0
M  V30 11579 H 1070.71 0.153024 -2.04829 0
M  V30 11580 H 1068.94 2.5631 -2.89555 0
M  V30 11581 H 1070.63 2.39321 -3.27842 0
M  V30 11582 H 1071.39 0.453151 -4.82878 0
M  V30 11583 H 1067.27 1.57456 -4.33276 0
M  V30 11584 H 1070.82 -0.685542 -6.94223 0
M  V30 11585 H 1066.71 0.44227 -6.43983 0
M  V30 11586 H 1067.48 -0.731013 -8.15229 0
M  V30 11587 N 1070.14 1.51827 0.422667 0
M  V30 11588 C 1071.56 1.40328 0.760275 0
M  V30 11589 C 1071.76 0.497119 1.95272 0
M  V30 11590 O 1070.82 -0.0422083 2.52465 0
M  V30 11591 C 1072.13 2.82622 1.02689 0
M  V30 11592 C 1073.68 2.91874 1.13044 0
M  V30 11593 C 1074.15 4.35107 1.4299 0
M  V30 11594 N 1075.64 4.3828 1.49883 0
M  V30 11595 C 1076.38 5.46153 1.74655 0
M  V30 11596 N 1075.87 6.64165 1.9712 0
M  V30 11597 N 1077.67 5.33651 1.76558 0
M  V30 11598 H 1069.82 2.09285 -0.362455 0
M  V30 11599 H 1072.08 0.94273 -0.0998161 0
M  V30 11600 H 1071.79 3.50991 0.223226 0
M  V30 11601 H 1071.66 3.22844 1.95068 0
M  V30 11602 H 1074.05 2.23694 1.92471 0
M  V30 11603 H 1074.13 2.55128 0.185326 0
M  V30 11604 H 1073.77 5.03841 0.640848 0
M  V30 11605 H 1073.7 4.69377 2.38731 0
M  V30 11606 H 1076.19 3.53206 1.34366 0
M  V30 11607 H 1076.51 7.42165 2.15434 0
M  V30 11608 H 1074.85 6.67255 1.94413 0
M  V30 11609 H 1078.04 4.40436 1.58536 0
M  V30 11610 H 1078.22 6.17798 1.95525 0
M  V30 11611 N 1071.62 -0.679052 1.4222 0
M  V30 11612 C 1072.57 -1.79269 1.45366 0
M  V30 11613 C 1073.54 -1.63255 0.306089 0
M  V30 11614 O 1074.72 -1.8387 0.509548 0
M  V30 11615 C 1071.86 -3.17272 1.35766 0
M  V30 11616 C 1070.98 -3.44603 2.60525 0
M  V30 11617 C 1070.11 -4.7231 2.43098 0
M  V30 11618 C 1069.15 -4.92661 3.63251 0
M  V30 11619 N 1068.29 -6.11606 3.44794 0
M  V30 11620 H 1073.13 -1.75916 2.40536 0
M  V30 11621 H 1070.67 -0.858836 1.19425 0
M  V30 11622 H 1072.62 -3.97015 1.282 0
M  V30 11623 H 1071.25 -3.1976 0.441939 0
M  V30 11624 H 1070.31 -2.59144 2.78475 0
M  V30 11625 H 1071.62 -3.55536 3.49851 0
M  V30 11626 H 1070.77 -5.60136 2.33093 0
M  V30 11627 H 1069.51 -4.63652 1.51255 0
M  V30 11628 H 1068.52 -4.03278 3.73693 0
M  V30 11629 H 1069.74 -5.03167 4.5607 0
M  V30 11630 H 1067.69 -6.04129 2.55663 0
M  V30 11631 H 1067.6 -6.23381 4.27705 0
M  V30 11632 H 1068.87 -7.02122 3.38592 0
M  V30 11633 N 1073.1 -1.28322 -0.914942 0
M  V30 11634 C 1074.01 -1.13993 -2.05043 0
M  V30 11635 C 1075.03 -0.0667921 -1.73872 0
M  V30 11636 O 1076.2 -0.275845 -1.99502 0
M  V30 11637 C 1073.27 -0.801856 -3.373 0
M  V30 11638 C 1072.33 -1.95723 -3.82088 0
M  V30 11639 C 1071.56 -1.63519 -5.08033 0
M  V30 11640 O 1071.78 -0.54899 -5.67752 0
M  V30 11641 O 1070.72 -2.47844 -5.48504 0
M  V30 11642 H 1074.54 -2.09313 -2.2005 0
M  V30 11643 H 1072.13 -1.0763 -1.03616 0
M  V30 11644 H 1074.01 -0.627214 -4.16706 0
M  V30 11645 H 1072.69 0.121696 -3.23471 0
M  V30 11646 H 1071.59 -2.18702 -3.03514 0
M  V30 11647 H 1072.93 -2.86144 -4.00478 0
M  V30 11648 N 1074.58 1.12322 -1.10551 0
M  V30 11649 C 1075.86 1.80201 -0.760715 0
M  V30 11650 C 1076.24 1.97228 0.752628 0
M  V30 11651 O 1075.58 1.54958 1.67929 0
M  V30 11652 C 1075.79 3.14491 -1.51316 0
M  V30 11653 C 1077.14 3.89671 -1.68647 0
M  V30 11654 O 1078.17 3.24151 -1.47664 0
M  V30 11655 O 1077.02 5.0722 -2.03445 0
M  V30 11656 H 1074.12 0.780084 -0.274587 0
M  V30 11657 H 1076.66 1.19147 -1.20839 0
M  V30 11658 H 1075.44 2.97396 -2.54306 0
M  V30 11659 H 1075.06 3.83253 -1.05842 0
M  V30 11660 N 1076.06 0.894434 1.2976 0
M  V30 11661 C 1077.47 0.589778 1.48303 0
M  V30 11662 C 1077.67 -0.870085 1.81746 0
M  V30 11663 O 1076.73 -1.65065 1.91076 0
M  V30 11664 C 1078.04 1.51107 2.59975 0
M  V30 11665 C 1079.59 1.51571 2.73853 0
M  V30 11666 C 1080.06 2.42316 3.88648 0
M  V30 11667 N 1081.56 2.40333 3.95973 0
M  V30 11668 C 1082.29 3.07254 4.84131 0
M  V30 11669 N 1081.79 3.83435 5.77018 0
M  V30 11670 N 1083.58 2.96438 4.77578 0
M  V30 11671 H 1075.73 1.83871 1.06327 0
M  V30 11672 H 1077.99 0.78758 0.527657 0
M  V30 11673 H 1077.7 2.55097 2.42112 0
M  V30 11674 H 1077.57 1.22767 3.56662 0
M  V30 11675 H 1079.96 0.483277 2.91116 0
M  V30 11676 H 1080.04 1.83946 1.77757 0
M  V30 11677 H 1079.69 3.4565 3.72141 0
M  V30 11678 H 1079.62 2.07252 4.84101 0
M  V30 11679 H 1082.11 1.84979 3.29532 0
M  V30 11680 H 1082.42 4.31565 6.4107 0
M  V30 11681 H 1080.76 3.87542 5.7692 0
M  V30 11682 H 1083.96 2.36442 4.03996 0
M  V30 11683 H 1084.13 3.48867 5.46073 0
M  V30 11684 N 1077.53 -1.43282 0.656365 0
M  V30 11685 C 1078.78 -2.00996 0.168354 0
M  V30 11686 C 1079.1 -1.52408 -1.22601 0
M  V30 11687 O 1080.3 -2.02417 -1.80941 0
M  V30 11688 C 1078.76 -3.5903 0.250161 0
M  V30 11689 C 1078.37 -4.1661 1.64742 0
M  V30 11690 C 1080.11 -4.24118 -0.180084 0
M  V30 11691 C 1078.02 -5.66948 1.68299 0
M  V30 11692 H 1076.95 -0.751674 0.0591769 0
M  V30 11693 H 1079.6 -1.64216 0.818859 0
M  V30 11694 H 1077.98 -3.93226 -0.467908 0
M  V30 11695 H 1079.15 -3.93908 2.3911 0
M  V30 11696 H 1077.47 -3.63905 2.02391 0
M  V30 11697 H 1080.07 -5.34419 -0.173401 0
M  V30 11698 H 1080.41 -3.98264 -1.21208 0
M  V30 11699 H 1080.94 -3.94816 0.486343 0
M  V30 11700 H 1077.68 -5.97573 2.69419 0
M  V30 11701 H 1077.2 -5.91697 0.98261 0
M  V30 11702 H 1078.88 -6.31041 1.42813 0
M  V30 11703 N 1079.01 -0.398486 -1.52479 0
M  V30 11704 C 1080.29 0.238776 -1.94137 0
M  V30 11705 C 1080.67 1.63558 -1.33462 0
M  V30 11706 O 1080.02 2.22821 -0.506272 0
M  V30 11707 C 1080.23 0.255863 -3.48061 0
M  V30 11708 C 1081.58 0.480376 -4.21874 0
M  V30 11709 O 1082.6 0.335679 -3.54615 0
M  V30 11710 O 1081.46 0.764654 -5.41124 0
M  V30 11711 H 1078.55 0.150806 -0.813134 0
M  V30 11712 H 1081.1 -0.453659 -1.63524 0
M  V30 11713 H 1079.87 -0.722171 -3.84578 0
M  V30 11714 H 1079.49 0.99284 -3.85004 0
M  V30 11715 N 1080.49 1.57075 -0.12858 0
M  V30 11716 C 1081.74 1.9581 0.527868 0
M  V30 11717 C 1082.07 1.01253 1.65715 0
M  V30 11718 O 1081.35 0.0514853 1.94432 0
M  V30 11719 C 1081.63 3.44406 1.05151 0
M  V30 11720 C 1081.48 4.49737 -0.0750113 0
M  V30 11721 C 1082.8 3.95069 1.9393 0
M  V30 11722 H 1079.92 0.711978 0.19041 0
M  V30 11723 H 1082.56 1.88879 -0.206081 0
M  V30 11724 H 1080.71 3.50443 1.67697 0
M  V30 11725 H 1082.38 4.55793 -0.710685 0
M  V30 11726 H 1080.63 4.27497 -0.736809 0
M  V30 11727 H 1081.3 5.50996 0.332779 0
M  V30 11728 H 1083.77 3.91395 1.41241 0
M  V30 11729 H 1082.65 4.99542 2.27484 0
M  V30 11730 H 1082.91 3.36329 2.86941 0
M  V30 11731 N 1081.97 -0.145205 1.5693 0
M  V30 11732 C 1082.9 -1.20438 1.95006 0
M  V30 11733 C 1083.91 -1.39085 0.846114 0
M  V30 11734 O 1085.1 -1.38625 1.12452 0
M  V30 11735 C 1082.2 -2.56892 2.21043 0
M  V30 11736 C 1081.38 -2.59197 3.52329 0
M  V30 11737 C 1080.44 -3.77204 3.66884 0
M  V30 11738 O 1079.46 -3.61995 4.39259 0
M  V30 11739 N 1080.66 -4.9473 3.03682 0
M  V30 11740 H 1083.43 -0.880709 2.86467 0
M  V30 11741 H 1080.99 -0.334751 1.58401 0
M  V30 11742 H 1082.98 -3.34349 2.2802 0
M  V30 11743 H 1081.55 -2.81544 1.35838 0
M  V30 11744 H 1080.77 -1.67644 3.56776 0
M  V30 11745 H 1082.06 -2.57771 4.3867 0
M  V30 11746 H 1081.46 -5.09989 2.44801 0
M  V30 11747 H 1080.01 -5.69956 3.16218 0
M  V30 11748 N 1083.45 -1.52049 -0.414609 0
M  V30 11749 C 1084.38 -1.7122 -1.52369 0
M  V30 11750 C 1085.39 -0.592634 -1.5163 0
M  V30 11751 O 1086.58 -0.867634 -1.55995 0
M  V30 11752 C 1083.68 -1.73247 -2.91271 0
M  V30 11753 C 1082.85 -3.02153 -3.16263 0
M  V30 11754 C 1081.91 -2.96066 -4.35007 0
M  V30 11755 O 1080.94 -3.69981 -4.32554 0
M  V30 11756 N 1082.14 -2.13478 -5.39822 0
M  V30 11757 H 1084.91 -2.66902 -1.3632 0
M  V30 11758 H 1082.47 -1.50218 -0.603842 0
M  V30 11759 H 1084.46 -1.66714 -3.68766 0
M  V30 11760 H 1083.03 -0.85062 -3.00804 0
M  V30 11761 H 1082.25 -3.22379 -2.2686 0
M  V30 11762 H 1083.54 -3.87439 -3.29801 0
M  V30 11763 H 1082.94 -1.52844 -5.44661 0
M  V30 11764 H 1081.49 -2.12805 -6.16082 0
M  V30 11765 N 1084.93 0.6715 -1.42579 0
M  V30 11766 C 1085.86 1.79693 -1.49107 0
M  V30 11767 C 1086.84 1.66516 -0.347338 0
M  V30 11768 O 1088.02 1.85887 -0.562094 0
M  V30 11769 C 1085.15 3.1801 -1.39596 0
M  V30 11770 C 1084.11 3.45926 -2.5203 0
M  V30 11771 C 1083.43 4.83852 -2.27577 0
M  V30 11772 C 1084.73 3.4249 -3.94333 0
M  V30 11773 H 1086.43 1.74486 -2.433 0
M  V30 11774 H 1083.97 0.838042 -1.17102 0
M  V30 11775 H 1085.92 3.96478 -1.42771 0
M  V30 11776 H 1084.65 3.23901 -0.418989 0
M  V30 11777 H 1083.31 2.6982 -2.48178 0
M  V30 11778 H 1082.96 4.86398 -1.28165 0
M  V30 11779 H 1082.66 5.03493 -3.02934 0
M  V30 11780 H 1084.18 5.646 -2.32506 0
M  V30 11781 H 1085.59 4.10922 -3.9977 0
M  V30 11782 H 1083.99 3.73666 -4.69568 0
M  V30 11783 H 1085.06 2.41002 -4.20768 0
M  V30 11784 N 1086.4 1.28806 0.908124 0
M  V30 11785 C 1087.37 1.13228 1.99279 0
M  V30 11786 C 1088.37 0.0702456 1.60646 0
M  V30 11787 O 1089.56 0.316494 1.71301 0
M  V30 11788 C 1086.69 0.729629 3.33 0
M  V30 11789 H 1087.88 2.09566 2.14528 0
M  V30 11790 H 1085.43 1.11872 1.09153 0
M  V30 11791 H 1086.17 -0.234268 3.23453 0
M  V30 11792 H 1085.95 1.49688 3.62403 0
M  V30 11793 H 1087.44 0.643449 4.12613 0
M  V30 11794 N 1087.88 -1.11734 1.11145 0
M  V30 11795 C 1089.12 -1.85039 0.868318 0
M  V30 11796 C 1089.49 -1.82538 -0.595294 0
M  V30 11797 O 1090.69 -2.5126 -0.955071 0
M  V30 11798 C 1088.96 -3.28381 1.4107 0
M  V30 11799 S 1090.52 -4.18973 1.3041 0
M  V30 11800 H 1087.33 -0.638114 0.313578 0
M  V30 11801 H 1089.94 -1.34548 1.41835 0
M  V30 11802 H 1088.64 -3.27764 2.46979 0
M  V30 11803 H 1088.17 -3.83939 0.857576 0
M  V30 11804 H 1090.19 -4.95483 0.266605 0
M  V30 11805 N 1089.36 -0.901303 -1.29284 0
M  V30 11806 C 1090.64 -0.44747 -1.90413 0
M  V30 11807 C 1091.02 1.07298 -1.81797 0
M  V30 11808 O 1090.36 1.91555 -1.24574 0
M  V30 11809 C 1090.57 -0.963849 -3.35427 0
M  V30 11810 C 1091.92 -1.00851 -4.12449 0
M  V30 11811 O 1092.95 -0.91163 -3.44337 0
M  V30 11812 O 1091.81 -1.15426 -5.34171 0
M  V30 11813 H 1088.9 -0.13976 -0.815105 0
M  V30 11814 H 1091.45 -0.991274 -1.37738 0
M  V30 11815 H 1090.22 -2.00782 -3.3586 0
M  V30 11816 H 1089.84 -0.400149 -3.95581 0
M  V30 11817 N 1090.84 1.42931 -0.663954 0
M  V30 11818 C 1092.25 1.84877 -0.260283 0
M  V30 11819 C 1092.6 1.5558 1.19538 0
M  V30 11820 O 1091.72 1.01015 1.91377 0
M  V30 11821 C 1092.32 3.35585 -0.465618 0
M  V30 11822 C 1090.88 3.76221 -0.116169 0
M  V30 11823 C 1090.03 2.66587 -0.763317 0
M  V30 11824 H 1092.98 1.32932 -0.866882 0
M  V30 11825 H 1093 3.79427 0.285608 0
M  V30 11826 H 1092.51 3.56877 -1.52515 0
M  V30 11827 H 1090.61 3.60539 0.940342 0
M  V30 11828 H 1090.72 4.75943 -0.549123 0
M  V30 11829 H 1089.09 2.53948 -0.19559 0
M  V30 11830 H 1089.87 2.90704 -1.82609 0
M  V30 11831 N 1092.32 0.406567 1.52266 0
M  V30 11832 C 1093.55 -0.169378 2.05905 0
M  V30 11833 C 1093.95 -1.39626 1.27676 0
M  V30 11834 O 1093.3 -1.80871 0.32114 0
M  V30 11835 C 1093.36 -0.587209 3.54672 0
M  V30 11836 C 1093.02 0.528588 4.53933 0
M  V30 11837 C 1094.02 1.39137 5.00936 0
M  V30 11838 C 1091.7 0.700549 4.97391 0
M  V30 11839 C 1093.7 2.41108 5.90039 0
M  V30 11840 C 1091.39 1.72357 5.8629 0
M  V30 11841 C 1092.38 2.57725 6.32509 0
M  V30 11842 O 1092.07 3.58275 7.19649 0
M  V30 11843 H 1091.8 -0.0250574 0.675535 0
M  V30 11844 H 1094.36 0.575377 1.97177 0
M  V30 11845 H 1092.59 -1.38421 3.61077 0
M  V30 11846 H 1094.28 -1.09078 3.90969 0
M  V30 11847 H 1095.04 1.26991 4.68079 0
M  V30 11848 H 1090.92 0.0457503 4.60977 0
M  V30 11849 H 1094.47 3.07774 6.26036 0
M  V30 11850 H 1090.36 1.84535 6.1856 0
M  V30 11851 H 1091.13 3.54489 7.37753 0
M  V30 11852 N 1093.79 -1.57004 0.136909 0
M  V30 11853 C 1094.72 -2.19262 -0.802902 0
M  V30 11854 C 1095.71 -1.13786 -1.26439 0
M  V30 11855 O 1096.89 -1.42091 -1.32377 0
M  V30 11856 C 1094.02 -2.80624 -2.04615 0
M  V30 11857 C 1092.97 -3.91839 -1.72181 0
M  V30 11858 C 1092.3 -4.4009 -3.03686 0
M  V30 11859 C 1093.6 -5.13095 -0.976249 0
M  V30 11860 H 1095.29 -2.98049 -0.28406 0
M  V30 11861 H 1092.84 -1.43364 -0.135189 0
M  V30 11862 H 1094.79 -3.22842 -2.70834 0
M  V30 11863 H 1093.52 -1.99153 -2.58855 0
M  V30 11864 H 1092.18 -3.50224 -1.08344 0
M  V30 11865 H 1091.82 -3.55454 -3.55896 0
M  V30 11866 H 1091.52 -5.15098 -2.82751 0
M  V30 11867 H 1093.05 -4.84971 -3.70993 0
M  V30 11868 H 1094.46 -5.5222 -1.54033 0
M  V30 11869 H 1092.86 -5.93801 -0.867214 0
M  V30 11870 H 1093.93 -4.84888 0.0338488 0
M  V30 11871 N 1095.27 0.136881 -1.57004 0
M  V30 11872 C 1096.2 1.17026 -2.02057 0
M  V30 11873 C 1097.18 1.44223 -0.901866 0
M  V30 11874 O 1098.37 1.54971 -1.17037 0
M  V30 11875 C 1095.5 2.50095 -2.40977 0
M  V30 11876 C 1094.45 2.37398 -3.56127 0
M  V30 11877 C 1093.78 3.75268 -3.80891 0
M  V30 11878 C 1095.08 1.84952 -4.88457 0
M  V30 11879 H 1096.77 0.795601 -2.88636 0
M  V30 11880 H 1094.32 0.381266 -1.38861 0
M  V30 11881 H 1096.27 3.22621 -2.71097 0
M  V30 11882 H 1095 2.89416 -1.51348 0
M  V30 11883 H 1093.65 1.67322 -3.26188 0
M  V30 11884 H 1093.3 4.12043 -2.88496 0
M  V30 11885 H 1093 3.67631 -4.5839 0
M  V30 11886 H 1094.53 4.49327 -4.13446 0
M  V30 11887 H 1095.94 2.4728 -5.17229 0
M  V30 11888 H 1094.34 1.88181 -5.69832 0
M  V30 11889 H 1095.41 0.805848 -4.78157 0
M  V30 11890 N 1096.75 1.52266 0.40654 0
M  V30 11891 C 1098.16 1.58587 0.985241 0
M  V30 11892 C 1098.51 0.427955 1.91476 0
M  V30 11893 O 1097.64 -0.451341 2.11641 0
M  V30 11894 C 1098.23 2.87426 1.79365 0
M  V30 11895 C 1096.79 2.96217 2.32233 0
M  V30 11896 C 1095.94 2.53548 1.12288 0
M  V30 11897 H 1098.89 1.57598 0.186685 0
M  V30 11898 H 1098.91 2.72925 2.65127 0
M  V30 11899 H 1098.42 3.71682 1.11687 0
M  V30 11900 H 1096.52 2.1646 3.03275 0
M  V30 11901 H 1096.64 4.00511 2.62922 0
M  V30 11902 H 1095 2.07457 1.47763 0
M  V30 11903 H 1095.78 3.40181 0.461731 0
M  V30 11904 N 1098.23 -0.663929 1.42933 0
M  V30 11905 C 1099.18 -1.77007 1.4371 0
M  V30 11906 C 1100.16 -1.57945 0.306948 0
M  V30 11907 O 1101.35 -1.68239 0.549967 0
M  V30 11908 C 1098.48 -3.15535 1.3525 0
M  V30 11909 C 1097.57 -3.40183 2.53252 0
M  V30 11910 N 1097.96 -3.35357 3.78641 0
M  V30 11911 C 1096.26 -3.70861 2.47746 0
M  V30 11912 C 1096.96 -3.5979 4.57085 0
M  V30 11913 N 1095.94 -3.81084 3.87655 0
M  V30 11914 H 1099.74 -1.71686 2.3854 0
M  V30 11915 H 1097.25 -0.865191 1.37434 0
M  V30 11916 H 1099.25 -3.94816 1.33888 0
M  V30 11917 H 1097.91 -3.22046 0.414308 0
M  V30 11918 H 1098.92 -3.15011 4.11082 0
M  V30 11919 H 1095.6 -3.84552 1.62561 0
M  V30 11920 H 1096.99 -3.61928 5.6609 0
M  V30 11921 N 1099.71 -1.29285 -0.901281 0
M  V30 11922 C 1100.96 -1.16538 -1.64626 0
M  V30 11923 C 1101.27 0.282623 -1.93547 0
M  V30 11924 O 1102.47 0.531396 -2.66249 0
M  V30 11925 C 1100.93 -2.03809 -2.96631 0
M  V30 11926 C 1100.54 -3.53423 -2.75311 0
M  V30 11927 C 1102.28 -1.99782 -3.7455 0
M  V30 11928 C 1100.19 -4.32804 -4.03032 0
M  V30 11929 H 1099.12 -0.432561 -0.617581 0
M  V30 11930 H 1101.77 -1.53912 -0.999159 0
M  V30 11931 H 1100.15 -1.59302 -3.62545 0
M  V30 11932 H 1101.33 -4.05971 -2.18 0
M  V30 11933 H 1099.64 -3.59106 -2.10789 0
M  V30 11934 H 1102.24 -2.5635 -4.69243 0
M  V30 11935 H 1102.58 -0.97743 -4.04663 0
M  V30 11936 H 1103.11 -2.42324 -3.15474 0
M  V30 11937 H 1099.85 -5.35473 -3.78086 0
M  V30 11938 H 1099.37 -3.85025 -4.59909 0
M  V30 11939 H 1101.05 -4.43383 -4.71191 0
M  V30 11940 N 1101.18 1.11143 -1.11736 0
M  V30 11941 C 1102.6 1.34962 -0.851905 0
M  V30 11942 C 1102.8 1.94627 0.521797 0
M  V30 11943 O 1101.86 2.18121 1.27198 0
M  V30 11944 C 1103.17 2.27832 -1.96248 0
M  V30 11945 C 1104.72 2.41388 -1.9925 0
M  V30 11946 C 1105.19 3.37582 -3.09519 0
M  V30 11947 N 1106.68 3.45147 -3.08914 0
M  V30 11948 C 1107.42 4.19527 -3.90876 0
M  V30 11949 N 1106.91 4.96858 -4.82809 0
M  V30 11950 N 1108.71 4.15071 -3.79042 0
M  V30 11951 H 1100.86 0.707801 -2.0026 0
M  V30 11952 H 1103.12 0.374172 -0.871033 0
M  V30 11953 H 1102.83 1.91189 -2.95194 0
M  V30 11954 H 1102.7 3.28078 -1.86132 0
M  V30 11955 H 1105.09 2.77304 -1.00928 0
M  V30 11956 H 1105.17 1.40983 -2.13442 0
M  V30 11957 H 1104.81 3.02393 -4.0807 0
M  V30 11958 H 1104.74 4.37849 -2.92568 0
M  V30 11959 H 1107.23 2.89991 -2.42309 0
M  V30 11960 H 1107.55 5.5099 -5.41876 0
M  V30 11961 H 1105.89 4.96008 -4.86828 0
M  V30 11962 H 1109.08 3.53748 -3.06562 0
M  V30 11963 H 1109.26 4.72781 -4.4315 0
M  V30 11964 N 1102.66 0.908147 1.28804 0
M  V30 11965 C 1103.61 0.390734 2.27468 0
M  V30 11966 C 1104.58 -0.531765 1.57358 0
M  V30 11967 O 1105.76 -0.455177 1.85291 0
M  V30 11968 C 1102.9 -0.368159 3.43131 0
M  V30 11969 C 1102.02 0.586202 4.28004 0
M  V30 11970 C 1101.15 -0.190581 5.30858 0
M  V30 11971 C 1100.19 0.757758 6.07391 0
M  V30 11972 N 1099.33 0.0148488 7.02098 0
M  V30 11973 H 1104.17 1.23717 2.71105 0
M  V30 11974 H 1101.71 0.621382 1.33331 0
M  V30 11975 H 1103.66 -0.824289 4.08976 0
M  V30 11976 H 1102.29 -1.17898 3.00499 0
M  V30 11977 H 1101.35 1.16086 3.62254 0
M  V30 11978 H 1102.66 1.31177 4.81242 0
M  V30 11979 H 1101.81 -0.707528 6.0256 0
M  V30 11980 H 1100.55 -0.949234 4.78373 0
M  V30 11981 H 1099.56 1.28613 5.34545 0
M  V30 11982 H 1100.78 1.51588 6.61965 0
M  V30 11983 H 1098.73 -0.725916 6.51971 0
M  V30 11984 H 1098.64 0.680347 7.52932 0
M  V30 11985 H 1099.91 -0.482086 7.78008 0
M  V30 11986 N 1104.14 -1.42577 0.671525 0
M  V30 11987 C 1105.37 -2.06442 0.199152 0
M  V30 11988 C 1105.79 -1.50104 -1.1336 0
M  V30 11989 O 1105.15 -0.618211 -1.70434 0
M  V30 11990 C 1105.2 -3.60323 0.141215 0
M  V30 11991 O 1104.3 -4.02655 -0.891238 0
M  V30 11992 H 1103.64 -0.655919 0.103277 0
M  V30 11993 H 1106.17 -1.82768 0.919614 0
M  V30 11994 H 1106.18 -4.07984 -0.0360209 0
M  V30 11995 H 1104.86 -4.00702 1.11403 0
M  V30 11996 H 1103.43 -3.66549 -0.685309 0
M  V30 11997 N 1105.62 -0.414636 -1.52048 0
M  V30 11998 C 1106.86 0.159585 -2.02171 0
M  V30 11999 C 1107.2 1.44321 -1.29943 0
M  V30 12000 O 1106.47 1.90185 -0.407402 0
M  V30 12001 C 1106.76 0.401655 -3.57853 0
M  V30 12002 C 1106.61 -0.899026 -4.40724 0
M  V30 12003 C 1107.93 1.1814 -4.23947 0
M  V30 12004 H 1105.05 0.0565257 -0.734829 0
M  V30 12005 H 1107.69 -0.549183 -1.8189 0
M  V30 12006 H 1105.84 1.00541 -3.75265 0
M  V30 12007 H 1107.51 -1.53502 -4.35011 0
M  V30 12008 H 1105.75 -1.50877 -4.06717 0
M  V30 12009 H 1106.42 -0.683974 -5.47746 0
M  V30 12010 H 1108.9 0.670203 -4.10667 0
M  V30 12011 H 1107.78 1.31953 -5.32804 0
M  V30 12012 H 1108.04 2.2035 -3.83273 0
M  V30 12013 N 1107.1 1.56929 -0.145233 0
M  V30 12014 C 1108.32 2.00864 0.516564 0
M  V30 12015 C 1108.75 1.02466 1.57741 0
M  V30 12016 O 1108.1 0.000145439 1.813 0
M  V30 12017 C 1108.15 3.43552 1.09563 0
M  V30 12018 O 1107.26 3.4815 2.21055 0
M  V30 12019 H 1106.6 0.651835 0.126521 0
M  V30 12020 H 1109.13 2.0317 -0.241445 0
M  V30 12021 H 1109.14 3.82316 1.42473 0
M  V30 12022 H 1107.81 4.14677 0.318749 0
M  V30 12023 H 1106.39 3.21228 1.89387 0
M  V30 12024 N 1108.58 -0.128553 1.57075 0
M  V30 12025 C 1109.8 -0.85245 1.88523 0
M  V30 12026 C 1110.22 -1.73886 0.735459 0
M  V30 12027 O 1109.58 -1.80114 -0.294113 0
M  V30 12028 C 1109.63 -1.69384 3.19361 0
M  V30 12029 O 1109.35 -0.84313 4.2991 0
M  V30 12030 C 1110.85 -2.52373 3.64449 0
M  V30 12031 H 1108.07 -0.245556 0.624454 0
M  V30 12032 H 1110.61 -0.115807 2.04172 0
M  V30 12033 H 1108.77 -2.38335 3.0541 0
M  V30 12034 H 1109.18 -1.42255 5.0484 0
M  V30 12035 H 1110.66 -3.06955 4.58784 0
M  V30 12036 H 1111.13 -3.29283 2.90636 0
M  V30 12037 H 1111.74 -1.88681 3.81155 0
M  V30 12038 N 1110.05 -1.5248 -0.398459 0
M  V30 12039 C 1111.28 -1.71221 -1.17039 0
M  V30 12040 C 1111.7 -0.425515 -1.83224 0
M  V30 12041 O 1111.06 0.617938 -1.70444 0
M  V30 12042 C 1111.11 -2.8562 -2.20121 0
M  V30 12043 O 1110.21 -2.51934 -3.26501 0
M  V30 12044 H 1109.55 -0.569654 -0.34116 0
M  V30 12045 H 1112.08 -1.99231 -0.465652 0
M  V30 12046 H 1112.09 -3.10842 -2.64275 0
M  V30 12047 H 1110.77 -3.78969 -1.71334 0
M  V30 12048 H 1109.35 -2.3742 -2.87552 0
M  V30 12049 N 1111.53 0.65634 -1.43283 0
M  V30 12050 C 1112.76 1.44906 -1.48382 0
M  V30 12051 C 1113.18 1.87823 -0.101993 0
M  V30 12052 O 1112.54 1.57178 0.903597 0
M  V30 12053 C 1112.59 2.66231 -2.43215 0
M  V30 12054 O 1111.69 3.65176 -1.91625 0
M  V30 12055 H 1111.03 0.434601 -0.502014 0
M  V30 12056 H 1113.56 0.803429 -1.88165 0
M  V30 12057 H 1113.57 3.14083 -2.60414 0
M  V30 12058 H 1112.25 2.34336 -3.43598 0
M  V30 12059 H 1110.82 3.24302 -1.84072 0
M  V30 12060 N 1113.01 1.29761 0.894412 0
M  V30 12061 C 1114.42 1.16275 1.46072 0
M  V30 12062 C 1114.77 -0.240123 1.94725 0
M  V30 12063 O 1113.9 -1.13606 1.84181 0
M  V30 12064 C 1114.49 2.10471 2.65494 0
M  V30 12065 C 1113.05 2.00992 3.18244 0
M  V30 12066 C 1112.2 2.01094 1.90936 0
M  V30 12067 H 1115.15 1.42169 0.705243 0
M  V30 12068 H 1115.17 1.68003 3.41402 0
M  V30 12069 H 1114.68 3.12566 2.30053 0
M  V30 12070 H 1112.78 1.02005 3.58365 0
M  V30 12071 H 1112.9 2.88916 3.82184 0
M  V30 12072 H 1111.26 1.45764 2.08866 0
M  V30 12073 H 1112.04 3.04902 1.57764 0
M  V30 12074 N 1114.49 -1.10549 1.12324 0
M  V30 12075 C 1115.45 -2.15039 0.793156 0
M  V30 12076 C 1116.45 -1.59651 -0.19192 0
M  V30 12077 O 1117.64 -1.74167 0.0337262 0
M  V30 12078 C 1114.77 -3.40433 0.17842 0
M  V30 12079 H 1115.97 -2.4575 1.71892 0
M  V30 12080 H 1113.52 -1.25892 0.926333 0
M  V30 12081 H 1114.25 -3.15338 -0.757122 0
M  V30 12082 H 1114.04 -3.81921 0.887645 0
M  V30 12083 H 1115.53 -4.17584 -0.0360724 0
M  V30 12084 N 1115.97 -0.914965 -1.28321 0
M  V30 12085 C 1117.21 -0.547665 -1.94538 0
M  V30 12086 C 1117.53 0.911834 -1.72368 0
M  V30 12087 O 1116.8 1.64481 -1.06408 0
M  V30 12088 H 1115.38 -0.199549 -0.719853 0
M  V30 12089 H 1118.05 -1.16459 -1.5628 0
M  V30 12090 H 1117.14 -0.743138 -3.03124 0
M  V30 12091 N 1117.44 1.42219 -0.679077 0
M  V30 12092 C 1118.41 2.29197 -0.0125475 0
M  V30 12093 C 1119.41 1.43544 0.724691 0
M  V30 12094 O 1120.6 1.64884 0.562052 0
M  V30 12095 C 1117.73 3.26122 0.992846 0
M  V30 12096 H 1118.92 2.89629 -0.778154 0
M  V30 12097 H 1116.47 1.4993 -0.44166 0
M  V30 12098 H 1117.21 2.70637 1.78679 0
M  V30 12099 H 1116.99 3.89302 0.467544 0
M  V30 12100 H 1118.48 3.91339 1.45751 0
M  V30 12101 N 1118.92 0.422693 1.51826 0
M  V30 12102 C 1119.88 -0.384307 2.25955 0
M  V30 12103 C 1120.88 -0.962184 1.28836 0
M  V30 12104 O 1122.07 -0.838931 1.52668 0
M  V30 12105 C 1119.21 -1.54228 3.04018 0
M  V30 12106 H 1120.4 0.265157 2.98726 0
M  V30 12107 H 1117.95 0.175515 1.55311 0
M  V30 12108 H 1118.69 -2.22822 2.35629 0
M  V30 12109 H 1118.47 -1.13425 3.75336 0
M  V30 12110 H 1119.96 -2.1128 3.60209 0
M  V30 12111 N 1120.4 -1.5685 0.153553 0
M  V30 12112 C 1121.65 -1.95509 -0.495911 0
M  V30 12113 C 1121.96 -1.04129 -1.65579 0
M  V30 12114 O 1123.17 -1.32394 -2.37032 0
M  V30 12115 C 1121.62 -3.47579 -0.933622 0
M  V30 12116 C 1121.23 -4.47555 0.199684 0
M  V30 12117 C 1122.98 -3.95092 -1.55251 0
M  V30 12118 C 1120.88 -5.90843 -0.256663 0
M  V30 12119 H 1119.81 -0.729919 -0.189035 0
M  V30 12120 H 1122.46 -1.81938 0.238947 0
M  V30 12121 H 1120.85 -3.56506 -1.72394 0
M  V30 12122 H 1122.02 -4.50329 0.976744 0
M  V30 12123 H 1120.33 -4.09997 0.727394 0
M  V30 12124 H 1122.93 -4.99588 -1.90567 0
M  V30 12125 H 1123.27 -3.37015 -2.4439 0
M  V30 12126 H 1123.81 -3.89109 -0.826969 0
M  V30 12127 H 1120.55 -6.52753 0.599515 0
M  V30 12128 H 1120.07 -5.91414 -0.999458 0
M  V30 12129 H 1121.75 -6.43131 -0.70649 0
M  V30 12130 N 1121.88 0.120221 -1.57141 0
M  V30 12131 C 1122.84 1.13159 -1.99318 0
M  V30 12132 C 1123.84 1.34376 -0.883158 0
M  V30 12133 O 1125.03 1.30914 -1.14922 0
M  V30 12134 C 1122.16 2.48632 -2.33227 0
M  V30 12135 H 1123.36 0.769119 -2.8987 0
M  V30 12136 H 1120.91 0.364475 -1.51991 0
M  V30 12137 H 1121.64 2.89802 -1.45551 0
M  V30 12138 H 1121.43 2.34587 -3.14184 0
M  V30 12139 H 1122.92 3.21423 -2.66603 0
M  V30 12140 N 1123.36 1.52689 0.390367 0
M  V30 12141 C 1124.58 1.71839 1.16129 0
M  V30 12142 C 1125.01 0.435226 1.82996 0
M  V30 12143 O 1124.36 -0.60889 1.70769 0
M  V30 12144 C 1124.41 2.86784 2.18603 0
M  V30 12145 O 1123.52 2.53662 3.25161 0
M  V30 12146 H 1122.86 0.571455 0.338135 0
M  V30 12147 H 1125.39 1.99475 0.45508 0
M  V30 12148 H 1125.4 3.12239 2.62622 0
M  V30 12149 H 1124.07 3.79872 1.69322 0
M  V30 12150 H 1122.65 2.38942 2.86289 0
M  V30 12151 N 1124.83 -0.648732 1.43629 0
M  V30 12152 C 1126.06 -1.4362 1.48932 0
M  V30 12153 C 1126.48 -1.88487 0.108599 0
M  V30 12154 O 1125.83 -1.59768 -0.882066 0
M  V30 12155 C 1125.89 -2.66822 2.43903 0
M  V30 12156 O 1125.61 -2.2383 3.76606 0
M  V30 12157 C 1127.11 -3.60134 2.58493 0
M  V30 12158 H 1124.33 -0.441055 0.505679 0
M  V30 12159 H 1126.87 -0.794936 1.88417 0
M  V30 12160 H 1125.03 -3.27079 2.07601 0
M  V30 12161 H 1125.44 -3.03575 4.27718 0
M  V30 12162 H 1126.91 -4.43234 3.29011 0
M  V30 12163 H 1127.39 -4.07779 1.63134 0
M  V30 12164 H 1128 -3.05756 2.95624 0
M  V30 12165 N 1126.31 -1.30234 -0.887518 0
M  V30 12166 C 1127.54 -1.21955 -1.67755 0
M  V30 12167 C 1127.96 0.214701 -1.86871 0
M  V30 12168 O 1127.32 1.15459 -1.39782 0
M  V30 12169 C 1127.37 -1.95079 -3.03276 0
M  V30 12170 O 1126.47 -1.27615 -3.92158 0
M  V30 12171 H 1125.81 -0.421948 -0.512695 0
M  V30 12172 H 1128.34 -1.72011 -1.10785 0
M  V30 12173 H 1128.35 -2.04004 -3.53336 0
M  V30 12174 H 1127.03 -2.99392 -2.88682 0
M  V30 12175 H 1125.61 -1.27029 -3.50597 0
M  V30 12176 N 1127.79 1.09952 -1.12909 0
M  V30 12177 C 1129.04 1.81657 -0.885729 0
M  V30 12178 C 1129.36 1.85863 0.589913 0
M  V30 12179 O 1128.63 1.34028 1.42875 0
M  V30 12180 H 1127.21 0.672743 -0.324694 0
M  V30 12181 H 1129.87 1.33013 -1.42456 0
M  V30 12182 H 1128.97 2.85018 -1.27167 0
M  V30 12183 N 1129.27 0.921757 1.27833 0
M  V30 12184 C 1130.23 0.420978 2.25301 0
M  V30 12185 C 1131.23 -0.457158 1.54165 0
M  V30 12186 O 1132.42 -0.259079 1.72263 0
M  V30 12187 C 1129.55 -0.395501 3.38598 0
M  V30 12188 H 1130.75 1.28206 2.71115 0
M  V30 12189 H 1128.3 0.701893 1.39654 0
M  V30 12190 H 1129.03 -1.27565 2.98157 0
M  V30 12191 H 1128.82 0.234029 3.91401 0
M  V30 12192 H 1130.31 -0.736444 4.11055 0
M  V30 12193 N 1130.75 -1.41857 0.686609 0
M  V30 12194 C 1131.97 -2.06219 0.221037 0
M  V30 12195 C 1132.4 -1.51298 -1.11762 0
M  V30 12196 O 1131.75 -0.636253 -1.69769 0
M  V30 12197 C 1131.8 -3.60153 0.179425 0
M  V30 12198 O 1130.91 -4.03577 -0.848481 0
M  V30 12199 H 1130.25 -0.654787 0.110228 0
M  V30 12200 H 1132.78 -1.81783 0.938948 0
M  V30 12201 H 1132.79 -4.07999 0.00725332 0
M  V30 12202 H 1131.46 -3.99498 1.15647 0
M  V30 12203 H 1130.04 -3.67255 -0.646393 0
M  V30 12204 N 1132.22 -0.430739 -1.51599 0
M  V30 12205 C 1133.17 0.398482 -2.29161 0
M  V30 12206 C 1134.17 1.02676 -1.34737 0
M  V30 12207 O 1135.37 0.96248 -1.52106 0
M  V30 12208 H 1131.75 0.14731 -0.737431 0
M  V30 12209 H 1133.72 -0.276619 -2.97115 0
M  V30 12210 C 1132.47 1.49094 -3.14112 0
M  V30 12211 H 1131.79 1.01685 -3.86652 0
M  V30 12212 H 1133.23 2.04453 -3.7145 0
M  V30 12213 C 1131.69 2.47049 -2.29059 0
M  V30 12214 O 1132.22 3.51435 -1.94567 0
M  V30 12215 N 1130.43 2.17778 -1.92409 0
M  V30 12216 H 1129.97 1.3292 -2.20658 0
M  V30 12217 H 1129.93 2.8356 -1.35798 0
M  V30 12218 N 1133.7 1.56767 -0.161869 0
M  V30 12219 C 1134.65 2.18807 0.789074 0
M  V30 12220 C 1135.64 1.14934 1.24445 0
M  V30 12221 O 1136.85 1.33154 1.2112 0
M  V30 12222 H 1133.23 0.700808 0.272713 0
M  V30 12223 H 1135.2 2.97419 0.241766 0
M  V30 12224 C 1133.95 2.83568 2.01207 0
M  V30 12225 H 1133.27 3.63219 1.67068 0
M  V30 12226 H 1134.71 3.3046 2.65654 0
M  V30 12227 C 1133.17 1.82846 2.82964 0
M  V30 12228 O 1133.7 1.30809 3.79805 0
M  V30 12229 N 1131.9 1.51815 2.47791 0
M  V30 12230 H 1131.45 1.94325 1.69103 0
M  V30 12231 H 1131.41 0.846742 3.02783 0
M  V30 12232 N 1135.18 -0.111886 1.57202 0
M  V30 12233 C 1136.41 -0.836317 1.89791 0
M  V30 12234 C 1136.83 -1.72304 0.754513 0
M  V30 12235 O 1136.19 -1.78889 -0.294672 0
M  V30 12236 C 1136.24 -1.63971 3.21164 0
M  V30 12237 O 1135.34 -2.74726 3.0757 0
M  V30 12238 H 1134.68 -0.230833 0.622585 0
M  V30 12239 H 1137.21 -0.0921478 2.04392 0
M  V30 12240 H 1137.22 -2.02746 3.54059 0
M  V30 12241 H 1135.9 -0.98882 4.03974 0
M  V30 12242 H 1134.47 -2.39101 2.86156 0
M  V30 12243 N 1136.66 -1.52894 -0.382264 0
M  V30 12244 C 1137.88 -1.72453 -1.15216 0
M  V30 12245 C 1138.31 -0.444925 -1.82762 0
M  V30 12246 O 1137.67 0.599825 -1.7109 0
M  V30 12247 C 1137.71 -2.87939 -2.17079 0
M  V30 12248 O 1136.82 -2.55383 -3.23811 0
M  V30 12249 H 1136.16 -0.57324 -0.335099 0
M  V30 12250 H 1138.69 -1.99713 -0.444495 0
M  V30 12251 H 1138.7 -3.13628 -2.60963 0
M  V30 12252 H 1137.37 -3.80765 -1.67305 0
M  V30 12253 H 1135.95 -2.40457 -2.85018 0
M  V30 12254 N 1138.14 0.641106 -1.43971 0
M  V30 12255 C 1139.36 1.43324 -1.4991 0
M  V30 12256 C 1139.79 1.87705 -0.121908 0
M  V30 12257 O 1139.15 1.58127 0.886875 0
M  V30 12258 C 1139.19 2.63637 -2.46025 0
M  V30 12259 O 1138.3 3.63123 -1.95488 0
M  V30 12260 H 1137.64 0.429252 -0.506595 0
M  V30 12261 H 1140.17 0.783427 -1.89007 0
M  V30 12262 H 1140.18 3.11304 -2.63731 0
M  V30 12263 H 1138.85 2.30678 -3.46064 0
M  V30 12264 H 1137.43 3.22332 -1.87501 0
M  V30 12265 N 1139.62 1.30703 0.880598 0
M  V30 12266 C 1140.56 1.17369 2.00817 0
M  V30 12267 C 1141.56 0.0845159 1.69189 0
M  V30 12268 O 1142.76 0.245673 1.78316 0
M  V30 12269 H 1139.14 0.363107 0.658527 0
M  V30 12270 H 1141.11 2.12789 2.09197 0
M  V30 12271 C 1139.86 0.886851 3.362 0
M  V30 12272 H 1139.18 1.71704 3.61051 0
M  V30 12273 H 1140.62 0.83368 4.15723 0
M  V30 12274 C 1139.08 -0.410293 3.34392 0
M  V30 12275 O 1139.61 -1.43044 3.75368 0
M  V30 12276 N 1137.82 -0.423023 2.87505 0
M  V30 12277 H 1137.36 0.407637 2.54354 0
M  V30 12278 H 1137.32 -1.29086 2.86678 0
M  V30 12279 O 1141.13 -1.01687 1.25467 0
M  V30 12280 H 1141.82 -1.63523 1.03826 0
M  V30 END ATOM
M  V30 BEGIN BOND
M  V30 END BOND
M  V30 END CTAB
M  END
$$$$
