drugbank_target|Q86VB7 Scavenger receptor cysteine-rich type 1 protein M130 (DB05389)
 OpenBabel12092120313D

  0  0  0     0  0            999 V3000
M  V30 BEGIN CTAB
M  V30 COUNTS 17098 17287 0 0 0
M  V30 BEGIN ATOM
M  V30 1 H -0.908 1.98254 -0.117106 0
M  V30 2 N 0 1.576 0 0
M  V30 3 C 0.933 2.03868 1.02534 0
M  V30 4 C 1.911 0.928543 1.3348 0
M  V30 5 O 3.095 1.19667 1.45644 0
M  V30 6 C 0.222 2.43627 2.35294 0
M  V30 7 C -0.732 3.65373 2.2001 0
M  V30 8 S 0.101 5.13292 1.52614 0
M  V30 9 C 1.257 5.56322 2.86805 0
M  V30 10 H 1.49 2.90518 0.631377 0
M  V30 11 H -0.977 1.52953 0.210867 0
M  V30 12 H 0.981 2.67203 3.11629 0
M  V30 13 H -0.358 1.57376 2.7183 0
M  V30 14 H -1.165 3.90944 3.18086 0
M  V30 15 H -1.563 3.418 1.51819 0
M  V30 16 H 0.729 5.58782 3.83104 0
M  V30 17 H 1.672 6.56266 2.65933 0
M  V30 18 H 2.08 4.83886 2.90714 0
M  V30 19 N 1.4781 -0.272755 1.55222 0
M  V30 20 C 2.7031 -1.02683 1.80197 0
M  V30 21 C 3.1281 -1.79142 0.573551 0
M  V30 22 O 2.4861 -1.74917 -0.476849 0
M  V30 23 C 2.5341 -1.9609 3.02624 0
M  V30 24 O 1.6381 -3.04863 2.77727 0
M  V30 25 H 0.9791 -0.293557 0.595584 0
M  V30 26 H 3.5091 -0.30159 2.02365 0
M  V30 27 H 3.5191 -2.38039 3.31363 0
M  V30 28 H 2.1941 -1.39851 3.91682 0
M  V30 29 H 0.7711 -2.67228 2.60084 0
M  V30 30 N 2.9562 -1.48159 -0.537278 0
M  V30 31 C 3.9032 -1.62138 -1.64256 0
M  V30 32 C 4.8732 -0.463668 -1.59497 0
M  V30 33 O 6.0582 -0.686241 -1.78032 0
M  V30 34 C 3.1982 -1.66028 -3.02537 0
M  V30 35 C 2.3112 -2.92855 -3.17585 0
M  V30 36 C 1.4462 -2.87952 -4.46382 0
M  V30 37 C 0.4852 -4.09516 -4.54932 0
M  V30 38 N -0.3778 -4.02733 -5.75109 0
M  V30 39 H 4.4622 -2.56529 -1.51647 0
M  V30 40 H 1.9992 -1.27224 -0.738414 0
M  V30 41 H 3.9572 -1.66265 -3.82638 0
M  V30 42 H 2.5872 -0.751331 -3.13934 0
M  V30 43 H 1.6392 -3.02395 -2.30784 0
M  V30 44 H 2.9512 -3.82822 -3.19764 0
M  V30 45 H 2.1052 -2.8655 -5.34765 0
M  V30 46 H 0.8442 -1.95702 -4.46712 0
M  V30 47 H -0.1508 -4.11201 -3.64957 0
M  V30 48 H 1.0742 -5.02917 -4.56346 0
M  V30 49 H -0.9798 -3.13299 -5.76351 0
M  V30 50 H -1.0628 -4.86397 -5.78752 0
M  V30 51 H 0.2052 -4.05379 -6.65799 0
M  V30 52 N 4.4343 0.785586 -1.36625 0
M  V30 53 C 5.3643 1.91259 -1.33949 0
M  V30 54 C 6.3453 1.68795 -0.210325 0
M  V30 55 O 7.5303 1.89854 -0.408561 0
M  V30 56 C 4.6603 3.28339 -1.13186 0
M  V30 57 C 3.6143 3.65335 -2.22967 0
M  V30 58 C 2.9403 5.00806 -1.87342 0
M  V30 59 C 4.2403 3.7352 -3.65075 0
M  V30 60 H 5.9343 1.93755 -2.28253 0
M  V30 61 H 3.4803 0.930788 -1.09874 0
M  V30 62 H 5.4333 4.06804 -1.09948 0
M  V30 63 H 4.1573 3.2624 -0.153332 0
M  V30 64 H 2.8163 2.89169 -2.25337 0
M  V30 65 H 2.4643 4.95233 -0.880545 0
M  V30 66 H 2.1643 5.26529 -2.60846 0
M  V30 67 H 3.6883 5.81687 -1.85667 0
M  V30 68 H 5.1023 4.42168 -3.64911 0
M  V30 69 H 3.4993 4.10731 -4.37516 0
M  V30 70 H 4.5693 2.74527 -3.99703 0
M  V30 71 N 5.9124 1.20967 1.01018 0
M  V30 72 C 7.3284 0.965905 1.27053 0
M  V30 73 C 7.5284 -0.350785 1.98423 0
M  V30 74 O 6.5844 -1.07773 2.28344 0
M  V30 75 C 7.8974 2.15294 2.09926 0
M  V30 76 C 9.4454 2.19463 2.23171 0
M  V30 77 C 9.9204 3.3767 3.09424 0
M  V30 78 N 11.4114 3.37724 3.17012 0
M  V30 79 C 12.1464 4.25837 3.83993 0
M  V30 80 N 11.6424 5.24138 4.53047 0
M  V30 81 N 13.4354 4.1366 3.80581 0
M  V30 82 H 5.5864 2.0565 0.531194 0
M  V30 83 H 7.8494 0.90024 0.297106 0
M  V30 84 H 7.5554 3.10684 1.64828 0
M  V30 85 H 7.4294 2.13923 3.10672 0
M  V30 86 H 9.8164 1.24632 2.6749 0
M  V30 87 H 9.8974 2.2488 1.21912 0
M  V30 88 H 9.5414 4.32791 2.65808 0
M  V30 89 H 9.4714 3.29491 4.10784 0
M  V30 90 H 11.9624 2.6658 2.6785 0
M  V30 91 H 12.2754 5.87684 5.01844 0
M  V30 92 H 10.6204 5.28068 4.5185 0
M  V30 93 H 13.8114 3.36127 3.25785 0
M  V30 94 H 13.9844 4.82538 4.32505 0
M  V30 95 N 7.3905 -1.2043 1.01659 0
M  V30 96 C 8.3235 -2.21924 0.531521 0
M  V30 97 C 9.3015 -1.57054 -0.421032 0
M  V30 98 O 10.4855 -1.85389 -0.341035 0
M  V30 99 C 7.6125 -3.37942 -0.226496 0
M  V30 100 C 6.6585 -4.21115 0.67561 0
M  V30 101 S 7.4915 -4.90674 2.14475 0
M  V30 102 C 8.6475 -6.10113 1.3969 0
M  V30 103 H 8.8805 -2.62725 1.3915 0
M  V30 104 H 6.4135 -1.30481 0.825479 0
M  V30 105 H 8.3715 -4.05196 -0.657738 0
M  V30 106 H 7.0325 -2.956 -1.06205 0
M  V30 107 H 6.2255 -5.03918 0.091108 0
M  V30 108 H 5.8275 -3.59115 1.04463 0
M  V30 109 H 8.1195 -6.7411 0.676897 0
M  V30 110 H 9.0625 -6.73022 2.20107 0
M  V30 111 H 9.4705 -5.57283 0.899786 0
M  V30 112 N 8.8686 -0.792821 -1.36206 0
M  V30 113 C 10.1146 -0.36733 -1.99446 0
M  V30 114 C 10.4476 1.05917 -1.62774 0
M  V30 115 O 9.7226 1.7324 -0.88421 0
M  V30 116 C 10.0056 -0.535044 -3.56103 0
M  V30 117 C 9.8586 -2.00548 -4.02617 0
M  V30 118 C 11.1776 0.0478191 -4.40074 0
M  V30 119 H 8.2966 -0.134941 -0.724541 0
M  V30 120 H 10.9386 -0.999794 -1.61568 0
M  V30 121 H 9.0886 0.00336329 -3.885 0
M  V30 122 H 10.7606 -2.60521 -3.80692 0
M  V30 123 H 9.0036 -2.50686 -3.54032 0
M  V30 124 H 9.6746 -2.07377 -5.11565 0
M  V30 125 H 12.1506 -0.411822 -4.14057 0
M  V30 126 H 11.0266 -0.0995336 -5.4881 0
M  V30 127 H 11.2876 1.14025 -4.27142 0
M  V30 128 N 10.3467 1.47872 -0.545128 0
M  V30 129 C 11.2767 2.32661 0.197793 0
M  V30 130 C 12.2577 1.43041 0.920504 0
M  V30 131 O 13.4427 1.71912 0.90333 0
M  V30 132 C 10.5727 3.24569 1.23582 0
M  V30 133 C 9.5267 4.23333 0.630323 0
M  V30 134 C 8.8527 5.0448 1.77211 0
M  V30 135 C 10.1527 5.20704 -0.407974 0
M  V30 136 H 11.8467 2.95024 -0.510045 0
M  V30 137 H 9.3927 1.4187 -0.246731 0
M  V30 138 H 11.3457 3.8272 1.76362 0
M  V30 139 H 10.0697 2.60236 1.97344 0
M  V30 140 H 8.7287 3.6639 0.123922 0
M  V30 141 H 8.3767 4.36561 2.49847 0
M  V30 142 H 8.0767 5.71339 1.37281 0
M  V30 143 H 9.6007 5.65487 2.3034 0
M  V30 144 H 11.0147 5.7329 0.033305 0
M  V30 145 H 9.4117 5.95699 -0.725486 0
M  V30 146 H 10.4817 4.66917 -1.30828 0
M  V30 147 N 11.8248 0.280983 1.55075 0
M  V30 148 C 12.7548 -0.597469 2.25727 0
M  V30 149 C 13.7358 -1.15417 1.24952 0
M  V30 150 O 14.9208 -1.18722 1.53684 0
M  V30 151 C 12.0508 -1.7789 2.98283 0
M  V30 152 C 11.0048 -1.35347 4.06036 0
M  V30 153 C 10.3308 -2.61846 4.66198 0
M  V30 154 C 11.6308 -0.499354 5.19907 0
M  V30 155 H 13.3248 -0.00824265 2.99399 0
M  V30 156 H 10.8708 -0.0025244 1.44 0
M  V30 157 H 12.8238 -2.39937 3.46422 0
M  V30 158 H 11.5478 -2.39405 2.22155 0
M  V30 159 H 10.2068 -0.756156 3.58717 0
M  V30 160 H 9.8548 -3.21632 3.86732 0
M  V30 161 H 9.5548 -2.3409 5.38958 0
M  V30 162 H 11.0788 -3.24732 5.1709 0
M  V30 163 H 12.4928 -1.02498 5.64063 0
M  V30 164 H 10.8898 -0.316424 5.99265 0
M  V30 165 H 11.9598 0.480459 4.82514 0
M  V30 166 N 13.3029 -1.57598 0.00835791 0
M  V30 167 C 14.2129 -2.12385 -0.996487 0
M  V30 168 C 15.2289 -1.07108 -1.37127 0
M  V30 169 O 16.4049 -1.39055 -1.4569 0
M  V30 170 C 13.4699 -2.62314 -2.26699 0
M  V30 171 C 12.5309 -3.82225 -1.95456 0
M  V30 172 C 11.7639 -4.29763 -3.16449 0
M  V30 173 O 11.9869 -3.76584 -4.28416 0
M  V30 174 O 10.9209 -5.21832 -2.99958 0
M  V30 175 H 14.7469 -2.98479 -0.560725 0
M  V30 176 H 12.3319 -1.47903 -0.210987 0
M  V30 177 H 14.2139 -2.94589 -3.01322 0
M  V30 178 H 12.8889 -1.79313 -2.69497 0
M  V30 179 H 11.7959 -3.54909 -1.18282 0
M  V30 180 H 13.1289 -4.66324 -1.57489 0
M  V30 181 N 14.781 0.264519 -1.55364 0
M  V30 182 C 16.058 1.01677 -1.67096 0
M  V30 183 C 16.438 2.03996 -0.543015 0
M  V30 184 O 15.786 2.23907 0.45585 0
M  V30 185 C 15.996 1.66596 -3.0667 0
M  V30 186 C 17.344 2.17442 -3.64697 0
M  V30 187 O 18.368 1.76568 -3.09358 0
M  V30 188 O 17.227 2.92439 -4.61673 0
M  V30 189 H 14.321 0.472161 -0.678965 0
M  V30 190 H 16.867 0.259703 -1.67701 0
M  V30 191 H 15.639 0.924962 -3.80211 0
M  V30 192 H 15.262 2.48968 -3.10001 0
M  V30 193 N 16.2591 1.48442 0.529413 0
M  V30 194 C 17.4841 1.60406 1.31471 0
M  V30 195 C 17.9091 0.264738 1.86228 0
M  V30 196 O 17.2671 -0.763668 1.64432 0
M  V30 197 C 17.3151 2.65419 2.44101 0
M  V30 198 O 16.4191 2.22618 3.47153 0
M  V30 199 H 15.7601 0.537863 0.389357 0
M  V30 200 H 18.2901 1.94432 0.636965 0
M  V30 201 H 18.3001 2.86709 2.90279 0
M  V30 202 H 16.9751 3.62652 2.03608 0
M  V30 203 H 15.5521 2.11543 3.0709 0
M  V30 204 N 17.7372 -0.778329 1.37039 0
M  V30 205 C 18.9852 -1.53361 1.31623 0
M  V30 206 C 19.3062 -1.94739 -0.100831 0
M  V30 207 O 18.5762 -1.65797 -1.04347 0
M  V30 208 H 17.1562 -0.568794 0.484234 0
M  V30 209 H 19.8182 -0.926742 1.71457 0
M  V30 210 H 18.9142 -2.43606 1.95096 0
M  V30 211 N 19.2153 -1.21501 -1.00376 0
M  V30 212 C 20.4403 -1.05977 -1.78279 0
M  V30 213 C 20.8653 0.385994 -1.84097 0
M  V30 214 O 20.2233 1.27849 -1.28547 0
M  V30 215 C 20.2713 -1.66302 -3.19963 0
M  V30 216 O 19.3753 -0.909333 -4.0225 0
M  V30 217 H 18.7163 -0.372906 -0.549397 0
M  V30 218 H 21.2463 -1.6107 -1.26165 0
M  V30 219 H 21.2563 -1.70574 -3.70632 0
M  V30 220 H 19.9313 -2.71515 -3.15043 0
M  V30 221 H 18.5083 -0.941795 -3.60811 0
M  V30 222 N 20.6934 1.19889 -1.02296 0
M  V30 223 C 21.6564 2.21116 -0.603351 0
M  V30 224 C 22.6564 1.5738 0.329884 0
M  V30 225 O 23.8464 1.73802 0.117702 0
M  V30 226 C 20.9784 3.40696 0.117992 0
M  V30 227 H 22.1714 2.59754 -1.49893 0
M  V30 228 H 19.7244 1.33463 -0.813468 0
M  V30 229 H 20.4594 3.07569 1.0282 0
M  V30 230 H 20.2444 3.88188 -0.552511 0
M  V30 231 H 21.7344 4.15692 0.398696 0
M  V30 232 N 22.1715 0.800033 1.35784 0
M  V30 233 C 23.4485 0.30088 1.93272 0
M  V30 234 C 23.8285 -1.20857 1.73081 0
M  V30 235 O 23.1765 -2.00502 1.09596 0
M  V30 236 C 23.3865 0.70511 3.41803 0
M  V30 237 C 24.7345 0.690871 4.18942 0
M  V30 238 O 25.7585 0.646244 3.50289 0
M  V30 239 O 24.6175 0.74332 5.41421 0
M  V30 240 H 21.7115 0.0771605 0.823393 0
M  V30 241 H 24.2575 0.88329 1.449 0
M  V30 242 H 23.0295 1.74571 3.50201 0
M  V30 243 H 22.6525 0.0971541 3.97481 0
M  V30 244 N 23.6496 -1.47581 0.552962 0
M  V30 245 C 24.8966 -2.02482 0.0273243 0
M  V30 246 C 25.2246 -1.42776 -1.32081 0
M  V30 247 O 24.4796 -0.571393 -1.87173 0
M  V30 248 C 24.7786 -3.57199 -0.119728 0
M  V30 249 C 24.4446 -4.35804 1.15697 0
M  V30 250 C 23.1066 -4.57 1.50681 0
M  V30 251 C 25.4586 -4.81167 2.00319 0
M  V30 252 C 22.7866 -5.20807 2.70142 0
M  V30 253 C 25.1386 -5.46293 3.18978 0
M  V30 254 C 23.8026 -5.65722 3.54281 0
M  V30 255 H 23.0726 -0.740933 0.00999866 0
M  V30 256 H 25.7196 -1.77302 0.72362 0
M  V30 257 H 24.0246 -3.81348 -0.89896 0
M  V30 258 H 25.7216 -3.97324 -0.541718 0
M  V30 259 H 22.3116 -4.19582 0.874561 0
M  V30 260 H 26.4956 -4.64574 1.74599 0
M  V30 261 H 21.7516 -5.34045 2.97668 0
M  V30 262 H 25.9256 -5.80407 3.84838 0
M  V30 263 H 23.5526 -6.14936 4.46942 0
M  V30 264 N 25.1277 -0.289203 -1.54924 0
M  V30 265 C 26.5437 0.0645403 -1.59469 0
M  V30 266 C 26.7437 1.53419 -1.30632 0
M  V30 267 O 25.7997 2.2852 -1.074 0
M  V30 268 C 27.1127 -0.32278 -2.98963 0
M  V30 269 C 28.6607 -0.270564 -3.11828 0
M  V30 270 C 29.1357 -0.632532 -4.53611 0
M  V30 271 N 30.6267 -0.584617 -4.59496 0
M  V30 272 C 31.3617 -0.837314 -5.67254 0
M  V30 273 N 30.8577 -1.15536 -6.83098 0
M  V30 274 N 32.6507 -0.765166 -5.56868 0
M  V30 275 H 24.8017 -1.24714 -1.71931 0
M  V30 276 H 27.0647 -0.504809 -0.802416 0
M  V30 277 H 26.7707 -1.34541 -3.24948 0
M  V30 278 H 26.6447 0.32944 -3.75759 0
M  V30 279 H 29.0317 0.742805 -2.85598 0
M  V30 280 H 29.1127 -0.957242 -2.37214 0
M  V30 281 H 28.7567 -1.64365 -4.80569 0
M  V30 282 H 28.6867 0.07609 -5.26545 0
M  V30 283 H 31.1777 -0.349248 -3.76283 0
M  V30 284 H 31.4907 -1.33447 -7.61191 0
M  V30 285 H 29.8357 -1.19328 -6.84679 0
M  V30 286 H 33.0267 -0.516432 -4.65243 0
M  V30 287 H 33.1997 -0.965477 -6.40767 0
M  V30 288 N 26.6058 1.57591 -0.0167156 0
M  V30 289 C 28.0218 1.55946 0.339557 0
M  V30 290 C 28.2218 1.02109 1.73713 0
M  V30 291 O 27.2778 0.662303 2.43659 0
M  V30 292 C 28.5908 3.00037 0.199499 0
M  V30 293 C 30.1388 3.11805 0.273193 0
M  V30 294 C 30.6138 4.57713 0.162068 0
M  V30 295 N 32.1048 4.6268 0.219444 0
M  V30 296 C 32.8398 5.73185 0.157054 0
M  V30 297 N 32.3358 6.92786 0.0442936 0
M  V30 298 N 34.1288 5.61707 0.21014 0
M  V30 299 H 26.2798 1.90921 -0.930758 0
M  V30 300 H 28.5428 0.877674 -0.358319 0
M  V30 301 H 28.2488 3.4333 -0.76273 0
M  V30 302 H 28.1228 3.64387 0.974786 0
M  V30 303 H 30.5098 2.68433 1.22587 0
M  V30 304 H 30.5908 2.50201 -0.532256 0
M  V30 305 H 30.2348 5.01763 -0.78714 0
M  V30 306 H 30.1648 5.17283 0.986222 0
M  V30 307 H 32.6558 3.76649 0.307246 0
M  V30 308 H 32.9688 7.728 0.00304069 0
M  V30 309 H 31.3138 6.94999 0.00968457 0
M  V30 310 H 34.5048 4.6716 0.296546 0
M  V30 311 H 34.6778 6.47807 0.158054 0
M  V30 312 N 28.0839 -0.256276 1.55502 0
M  V30 313 C 29.0339 -1.31981 1.85916 0
M  V30 314 C 30.0179 -1.43927 0.719296 0
M  V30 315 O 31.2099 -1.47326 0.981019 0
M  V30 316 C 28.3389 -2.67703 2.14918 0
M  V30 317 C 27.4249 -2.59801 3.35208 0
M  V30 318 N 27.8159 -2.21524 4.54709 0
M  V30 319 C 26.1139 -2.90832 3.38131 0
M  V30 320 C 26.8149 -2.24024 5.36832 0
M  V30 321 N 25.7909 -2.63158 4.75656 0
M  V30 322 H 29.5929 -1.01423 2.75845 0
M  V30 323 H 27.1069 -0.464911 1.55603 0
M  V30 324 H 29.1039 -3.44445 2.34869 0
M  V30 325 H 27.7639 -2.99137 1.26282 0
M  V30 326 H 28.7749 -1.93223 4.80505 0
M  V30 327 H 25.4519 -3.26867 2.59739 0
M  V30 328 H 26.8419 -1.9685 6.42417 0
M  V30 329 N 29.562 -1.4872 -0.521534 0
M  V30 330 C 30.809 -1.57168 -1.27689 0
M  V30 331 C 31.137 -0.249275 -1.92896 0
M  V30 332 O 30.392 0.761162 -1.80291 0
M  V30 333 C 30.691 -2.66497 -2.38148 0
M  V30 334 C 30.357 -4.08664 -1.90538 0
M  V30 335 C 29.019 -4.47357 -1.77271 0
M  V30 336 C 31.371 -4.97724 -1.54663 0
M  V30 337 C 28.699 -5.72905 -1.26478 0
M  V30 338 C 31.051 -6.2377 -1.05329 0
M  V30 339 C 29.715 -6.61311 -0.906861 0
M  V30 340 H 28.985 -0.575117 -0.467249 0
M  V30 341 H 31.632 -1.82472 -0.581051 0
M  V30 342 H 29.937 -2.35085 -3.13437 0
M  V30 343 H 31.634 -2.70246 -2.96257 0
M  V30 344 H 28.224 -3.78111 -2.01816 0
M  V30 345 H 32.408 -4.68501 -1.63768 0
M  V30 346 H 27.664 -6.00709 -1.13835 0
M  V30 347 H 31.838 -6.9217 -0.76644 0
M  V30 348 H 29.465 -7.5848 -0.511083 0
M  V30 349 N 31.0401 0.771051 -1.3745 0
M  V30 350 C 32.2861 1.5319 -1.32894 0
M  V30 351 C 32.6191 1.94008 0.0862511 0
M  V30 352 O 31.8941 1.64124 1.04373 0
M  V30 353 C 32.1771 2.79648 -2.26868 0
M  V30 354 C 32.0301 2.45079 -3.77169 0
M  V30 355 C 33.3491 3.81583 -2.19277 0
M  V30 356 H 30.4681 0.555744 -0.484064 0
M  V30 357 H 33.1101 0.884492 -1.68157 0
M  V30 358 H 31.2601 3.34891 -1.96926 0
M  V30 359 H 32.9321 1.95745 -4.1771 0
M  V30 360 H 31.1751 1.77767 -3.95704 0
M  V30 361 H 31.8461 3.35478 -4.38359 0
M  V30 362 H 34.3221 3.35835 -2.45671 0
M  V30 363 H 33.1981 4.67787 -2.87171 0
M  V30 364 H 33.4591 4.25897 -1.18592 0
M  V30 365 N 32.5182 1.22032 0.997298 0
M  V30 366 C 33.4662 0.983634 2.10778 0
M  V30 367 C 34.4602 -0.0717564 1.69248 0
M  V30 368 O 35.6662 0.080304 1.79821 0
M  V30 369 H 32.0412 0.300877 0.689186 0
M  V30 370 H 34.0122 1.92606 2.27916 0
M  V30 371 C 32.7612 0.57326 3.42942 0
M  V30 372 H 32.0842 1.37702 3.75338 0
M  V30 373 H 33.5242 0.447031 4.21637 0
M  V30 374 C 31.9832 -0.7167 3.29188 0
M  V30 375 O 32.5132 -1.77027 3.60589 0
M  V30 376 N 30.7192 -0.686167 2.82383 0
M  V30 377 H 30.2662 0.171507 2.57028 0
M  V30 378 H 30.2242 -1.54955 2.73562 0
M  V30 379 N 33.9963 -1.19345 1.0293 0
M  V30 380 C 34.9263 -2.2481 0.631105 0
M  V30 381 C 35.9073 -1.66245 -0.360104 0
M  V30 382 O 37.0923 -1.92677 -0.242726 0
M  V30 383 C 34.2223 -3.47295 -0.0184607 0
M  V30 384 C 33.1763 -4.18536 0.895073 0
M  V30 385 C 32.5023 -5.34586 0.110592 0
M  V30 386 C 33.8023 -4.73287 2.209 0
M  V30 387 H 35.4963 -2.58372 1.51275 0
M  V30 388 H 33.0423 -1.24194 0.728818 0
M  V30 389 H 34.9953 -4.20268 -0.308675 0
M  V30 390 H 33.7193 -3.12933 -0.934907 0
M  V30 391 H 32.3783 -3.47446 1.16949 0
M  V30 392 H 32.0263 -4.96469 -0.807902 0
M  V30 393 H 31.7263 -5.83183 0.719087 0
M  V30 394 H 33.2503 -6.10355 -0.172871 0
M  V30 395 H 34.6643 -5.38013 1.98028 0
M  V30 396 H 33.0613 -5.32373 2.76946 0
M  V30 397 H 34.1313 -3.91331 2.86336 0
M  V30 398 N 35.4744 -0.807222 -1.35358 0
M  V30 399 C 36.6994 -0.399309 -2.0352 0
M  V30 400 C 37.1244 0.981986 -1.60433 0
M  V30 401 O 36.4824 1.63601 -0.781299 0
M  V30 402 C 36.5304 -0.491552 -3.57234 0
M  V30 403 O 35.6344 0.494754 -4.09421 0
M  V30 404 H 34.9754 -0.166682 -0.642739 0
M  V30 405 H 37.5054 -1.09328 -1.72941 0
M  V30 406 H 37.5154 -0.361588 -4.06395 0
M  V30 407 H 36.1904 -1.49907 -3.87944 0
M  V30 408 H 34.7674 0.324977 -3.71481 0
M  V30 409 N 36.9525 1.47285 -0.560781 0
M  V30 410 C 38.3635 1.86258 -0.128343 0
M  V30 411 C 38.7145 1.46699 1.30284 0
M  V30 412 O 37.8395 0.871698 1.98067 0
M  V30 413 C 38.4345 3.38044 -0.22614 0
M  V30 414 C 36.9935 3.76096 0.151283 0
M  V30 415 C 36.1405 2.71335 -0.572084 0
M  V30 416 H 39.0915 1.38752 -0.770297 0
M  V30 417 H 39.1125 3.76441 0.554322 0
M  V30 418 H 38.6245 3.66806 -1.26788 0
M  V30 419 H 36.7255 3.52951 1.19399 0
M  V30 420 H 36.8385 4.78641 -0.209765 0
M  V30 421 H 35.2025 2.54696 -0.0147653 0
M  V30 422 H 35.9855 3.02938 -1.61504 0
M  V30 423 N 38.4306 0.297415 1.54768 0
M  V30 424 C 39.6776 -0.312913 2.00068 0
M  V30 425 C 40.0056 -1.54171 1.18582 0
M  V30 426 O 39.2606 -1.94108 0.249133 0
M  V30 427 C 39.5596 -0.717561 3.50123 0
M  V30 428 C 39.2256 0.409095 4.4904 0
M  V30 429 C 37.8876 0.718399 4.75807 0
M  V30 430 C 40.2396 1.16717 5.07963 0
M  V30 431 C 37.5676 1.78896 5.5876 0
M  V30 432 C 39.9196 2.22762 5.92081 0
M  V30 433 C 38.5836 2.54303 6.1716 0
M  V30 434 H 37.8536 -0.114503 0.7321 0
M  V30 435 H 40.5006 0.415767 1.86932 0
M  V30 436 H 38.8056 -1.52627 3.60849 0
M  V30 437 H 40.5026 -1.20091 3.82595 0
M  V30 438 H 37.0926 0.157918 4.28309 0
M  V30 439 H 41.2766 0.941466 4.87289 0
M  V30 440 H 36.5326 2.0381 5.7643 0
M  V30 441 H 40.7066 2.81962 6.36765 0
M  V30 442 H 38.3336 3.3739 6.81229 0
M  V30 443 N 39.9087 -1.5758 0.0250728 0
M  V30 444 C 41.1367 -1.9593 -0.664747 0
M  V30 445 C 41.5517 -0.901352 -1.65895 0
M  V30 446 O 40.9087 0.117255 -1.82123 0
M  V30 447 C 40.9597 -3.34342 -1.37468 0
M  V30 448 O 40.6807 -4.36079 -0.420324 0
M  V30 449 C 42.1817 -3.873 -2.1567 0
M  V30 450 H 39.4017 -0.645405 -0.183557 0
M  V30 451 H 41.9457 -2.04329 0.0836372 0
M  V30 452 H 40.1007 -3.27175 -2.0745 0
M  V30 453 H 40.5147 -5.16297 -0.923991 0
M  V30 454 H 41.9887 -4.86504 -2.60803 0
M  V30 455 H 42.4657 -3.21331 -2.99405 0
M  V30 456 H 43.0717 -3.97723 -1.50654 0
M  V30 457 N 41.3868 0.248026 -1.55636 0
M  V30 458 C 42.6358 0.974134 -1.76617 0
M  V30 459 C 42.9488 1.86528 -0.588796 0
M  V30 460 O 44.1548 2.62805 -0.681594 0
M  V30 461 C 42.6108 1.78213 -3.12679 0
M  V30 462 C 42.2188 0.93843 -4.38061 0
M  V30 463 C 43.9628 2.50104 -3.42999 0
M  V30 464 C 41.8698 1.74225 -5.65155 0
M  V30 465 H 40.7998 0.36745 -0.658405 0
M  V30 466 H 43.4508 0.22884 -1.82067 0
M  V30 467 H 41.8328 2.56933 -3.01333 0
M  V30 468 H 43.0068 0.193635 -4.60393 0
M  V30 469 H 41.3218 0.332905 -4.15067 0
M  V30 470 H 43.9188 3.10694 -4.3517 0
M  V30 471 H 44.2618 3.21662 -2.64271 0
M  V30 472 H 44.7948 1.78395 -3.55556 0
M  V30 473 H 41.5338 1.07043 -6.46701 0
M  V30 474 H 41.0538 2.46235 -5.46926 0
M  V30 475 H 42.7328 2.30967 -6.0437 0
M  V30 476 N 42.8649 1.48995 0.513639 0
M  V30 477 C 44.0929 1.61531 1.29288 0
M  V30 478 C 44.5079 0.281801 1.86685 0
M  V30 479 O 43.8649 -0.731111 1.67215 0
M  V30 480 C 43.9159 2.67449 2.43215 0
M  V30 481 O 43.6369 3.95626 1.88179 0
M  V30 482 C 45.1379 2.90575 3.34785 0
M  V30 483 H 42.3579 0.544165 0.392588 0
M  V30 484 H 44.9019 1.9494 0.617956 0
M  V30 485 H 43.0569 2.36853 3.0656 0
M  V30 486 H 43.4709 4.53868 2.62876 0
M  V30 487 H 44.9449 3.68449 4.11035 0
M  V30 488 H 45.4219 2.00011 3.91015 0
M  V30 489 H 46.0279 3.22538 2.77218 0
M  V30 490 N 44.343 -0.763751 1.37857 0
M  V30 491 C 45.589 -1.52483 1.33704 0
M  V30 492 C 45.922 -1.94051 -0.0759612 0
M  V30 493 O 45.197 -1.64675 -1.03501 0
M  V30 494 C 45.48 -2.78441 2.28348 0
M  V30 495 C 45.333 -2.43075 3.78463 0
M  V30 496 C 46.652 -3.80415 2.21298 0
M  V30 497 H 43.771 -0.553169 0.487005 0
M  V30 498 H 46.413 -0.875562 1.68624 0
M  V30 499 H 44.563 -3.33842 1.987 0
M  V30 500 H 46.235 -1.93527 4.18742 0
M  V30 501 H 44.478 -1.75666 3.96641 0
M  V30 502 H 45.149 -3.33149 4.40132 0
M  V30 503 H 47.625 -3.34527 2.47449 0
M  V30 504 H 46.501 -4.66257 2.89647 0
M  V30 505 H 46.762 -4.25262 1.20849 0
M  V30 506 N 45.8211 -1.22559 -0.990812 0
M  V30 507 C 47.0671 -1.05297 -1.73322 0
M  V30 508 C 47.4001 0.410655 -1.89808 0
M  V30 509 O 46.6751 1.30439 -1.44277 0
M  V30 510 C 46.9581 -1.76713 -3.13759 0
M  V30 511 C 46.8111 -3.30684 -3.04907 0
M  V30 512 C 48.1301 -1.52121 -4.12974 0
M  V30 513 H 45.2491 -0.38392 -0.629106 0
M  V30 514 H 47.8911 -1.50926 -1.15418 0
M  V30 515 H 46.0411 -1.37924 -3.63193 0
M  V30 516 H 47.7131 -3.7893 -2.63077 0
M  V30 517 H 45.9561 -3.60253 -2.41661 0
M  V30 518 H 46.6271 -3.75833 -4.04294 0
M  V30 519 H 49.1031 -1.85819 -3.72304 0
M  V30 520 H 47.9791 -2.04582 -5.0935 0
M  V30 521 H 48.2401 -0.454257 -4.3976 0
M  V30 522 N 47.2992 1.18797 -1.03562 0
M  V30 523 C 48.2292 2.24472 -0.643019 0
M  V30 524 C 49.2102 1.66433 0.351283 0
M  V30 525 O 50.3952 1.92803 0.232505 0
M  V30 526 C 47.5252 3.473 4.24935e-05 0
M  V30 527 C 46.4792 4.18055 -0.917257 0
M  V30 528 C 45.8052 5.34519 -0.138941 0
M  V30 529 C 47.1052 4.72109 -2.23407 0
M  V30 530 H 48.7992 2.57566 -1.52643 0
M  V30 531 H 46.3452 1.23806 -0.735394 0
M  V30 532 H 48.2982 4.20426 0.286383 0
M  V30 533 H 47.0222 3.13424 0.918299 0
M  V30 534 H 45.6812 3.46821 -1.1879 0
M  V30 535 H 45.3292 4.96891 0.781562 0
M  V30 536 H 45.0292 5.82794 -0.750005 0
M  V30 537 H 46.5532 6.10438 0.1405 0
M  V30 538 H 47.9672 5.36955 -2.00879 0
M  V30 539 H 46.3642 5.30897 -2.79765 0
M  V30 540 H 47.4342 3.89807 -2.88407 0
M  V30 541 N 48.7773 0.814389 1.34928 0
M  V30 542 C 49.7073 0.244827 2.32213 0
M  V30 543 C 50.6883 -0.634024 1.57842 0
M  V30 544 O 51.8733 -0.562676 1.8587 0
M  V30 545 C 49.0033 -0.601106 3.42058 0
M  V30 546 C 47.9573 0.179896 4.27622 0
M  V30 547 C 47.2833 -0.788237 5.28858 0
M  V30 548 C 48.5833 1.38329 5.03649 0
M  V30 549 H 50.2773 1.05763 2.80097 0
M  V30 550 H 47.8233 0.510029 1.34665 0
M  V30 551 H 49.7763 -1.00968 4.09125 0
M  V30 552 H 48.5003 -1.44688 2.92802 0
M  V30 553 H 47.1593 0.569739 3.62146 0
M  V30 554 H 46.8073 -1.62973 4.75866 0
M  V30 555 H 46.5073 -0.269942 5.8698 0
M  V30 556 H 48.0313 -1.19485 5.98795 0
M  V30 557 H 49.4453 1.04918 5.63618 0
M  V30 558 H 47.8423 1.83662 5.71304 0
M  V30 559 H 48.9123 2.16592 4.33839 0
M  V30 560 N 50.2554 -1.46986 0.568584 0
M  V30 561 C 51.1854 -2.32946 -0.160753 0
M  V30 562 C 52.1664 -1.44487 -0.897631 0
M  V30 563 O 53.3514 -1.73327 -0.875867 0
M  V30 564 C 50.4814 -3.26494 -1.18403 0
M  V30 565 C 49.4354 -4.24282 -0.562895 0
M  V30 566 C 48.7614 -5.07236 -1.69163 0
M  V30 567 C 50.0614 -5.19989 0.490761 0
M  V30 568 H 51.7554 -2.94175 0.556916 0
M  V30 569 H 49.3014 -1.4146 0.26927 0
M  V30 570 H 51.2544 -3.85477 -1.70251 0
M  V30 571 H 49.9784 -2.63343 -1.93179 0
M  V30 572 H 48.6374 -3.66541 -0.0656164 0
M  V30 573 H 48.2854 -4.4048 -2.42871 0
M  V30 574 H 47.9854 -5.7345 -1.28174 0
M  V30 575 H 49.5094 -5.6908 -2.21314 0
M  V30 576 H 50.9234 -5.73271 0.0579047 0
M  V30 577 H 49.3204 -5.94469 0.820165 0
M  V30 578 H 50.3904 -4.64777 1.3824 0
M  V30 579 N 51.7335 -0.305618 -1.54608 0
M  V30 580 C 52.9585 0.307562 -2.05107 0
M  V30 581 C 53.3835 1.46385 -1.18123 0
M  V30 582 O 52.7415 1.8034 -0.186324 0
M  V30 583 C 52.7895 0.73704 -3.52987 0
M  V30 584 O 51.8935 1.84134 -3.6901 0
M  V30 585 H 51.2345 0.0589143 -0.661381 0
M  V30 586 H 53.7645 -0.448807 -1.99617 0
M  V30 587 H 53.7745 1.02459 -3.94925 0
M  V30 588 H 52.4495 -0.108773 -4.15758 0
M  V30 589 H 51.0265 1.55398 -3.38978 0
M  V30 590 N 53.2116 1.57565 -0.0334293 0
M  V30 591 C 54.1746 2.09393 0.932048 0
M  V30 592 C 55.1746 1.00986 1.25134 0
M  V30 593 O 56.3646 1.27129 1.19096 0
M  V30 594 C 53.4966 2.56338 2.2473 0
M  V30 595 H 54.6896 2.95984 0.483085 0
M  V30 596 H 52.2426 1.54819 0.21468 0
M  V30 597 H 52.9776 1.7309 2.74245 0
M  V30 598 H 52.7626 3.35542 2.02865 0
M  V30 599 H 54.2526 2.96646 2.93923 0
M  V30 600 N 54.6897 -0.239769 1.55765 0
M  V30 601 C 55.9297 -0.974076 1.79697 0
M  V30 602 C 56.2937 -1.82249 0.604088 0
M  V30 603 O 57.4947 -2.58913 0.722324 0
M  V30 604 C 55.7657 -1.80595 3.08416 0
M  V30 605 S 57.3247 -2.59838 3.53596 0
M  V30 606 H 54.1427 -0.327524 0.63107 0
M  V30 607 H 56.7447 -0.241277 1.94005 0
M  V30 608 H 55.4487 -1.17249 3.93295 0
M  V30 609 H 54.9797 -2.58137 2.96865 0
M  V30 610 H 56.9947 -3.82987 3.15492 0
M  V30 611 N 56.1678 -1.49265 -0.50573 0
M  V30 612 C 57.4148 -1.58513 -1.26015 0
M  V30 613 C 57.7428 -0.26972 -1.92621 0
M  V30 614 O 56.9978 0.741997 -1.81088 0
M  V30 615 C 57.2968 -2.69008 -2.35308 0
M  V30 616 C 56.9628 -4.10662 -1.86192 0
M  V30 617 C 55.6248 -4.49212 -1.72516 0
M  V30 618 C 57.9768 -4.99336 -1.49375 0
M  V30 619 C 55.3048 -5.74214 -1.20394 0
M  V30 620 C 57.6568 -6.24852 -0.987072 0
M  V30 621 C 56.3208 -6.62236 -0.836669 0
M  V30 622 H 55.5908 -0.580041 -0.461122 0
M  V30 623 H 58.2378 -1.83078 -0.561665 0
M  V30 624 H 56.5428 -2.38396 -3.10926 0
M  V30 625 H 58.2398 -2.73373 -2.93374 0
M  V30 626 H 54.8298 -3.8023 -1.97795 0
M  V30 627 H 59.0138 -4.70212 -1.5879 0
M  V30 628 H 54.2698 -6.01883 -1.07458 0
M  V30 629 H 58.4438 -6.92944 -0.692983 0
M  V30 630 H 56.0708 -7.58979 -0.430607 0
M  V30 631 N 57.6459 0.756429 -1.3826 0
M  V30 632 C 58.8919 1.51772 -1.34511 0
M  V30 633 C 59.2249 1.94089 0.0656691 0
M  V30 634 O 58.4999 1.65221 1.02626 0
M  V30 635 C 58.7829 2.77226 -2.29821 0
M  V30 636 C 58.6359 2.41065 -3.79747 0
M  V30 637 C 59.9549 3.79236 -2.23312 0
M  V30 638 H 57.0739 0.550578 -0.489931 0
M  V30 639 H 59.7159 0.866607 -1.69086 0
M  V30 640 H 57.8659 3.32784 -2.00467 0
M  V30 641 H 59.5379 1.91303 -4.19763 0
M  V30 642 H 57.7809 1.7356 -3.97567 0
M  V30 643 H 58.4519 3.3081 -4.41892 0
M  V30 644 H 60.9279 3.3321 -2.49219 0
M  V30 645 H 59.8039 4.64714 -2.92116 0
M  V30 646 H 60.0649 4.24615 -1.23102 0
M  V30 647 N 59.124 1.23083 0.984299 0
M  V30 648 C 60.352 1.08714 1.76037 0
M  V30 649 C 60.767 -0.361691 1.85303 0
M  V30 650 O 60.124 -1.25034 1.32939 0
M  V30 651 C 60.175 1.70206 3.18923 0
M  V30 652 O 59.896 3.09423 3.10144 0
M  V30 653 C 61.397 1.61227 4.12941 0
M  V30 654 H 58.617 0.380664 0.552572 0
M  V30 655 H 61.161 1.62853 1.23689 0
M  V30 656 H 59.316 1.20109 3.6831 0
M  V30 657 H 59.73 3.39188 4.00065 0
M  V30 658 H 61.204 2.08962 5.10919 0
M  V30 659 H 61.681 0.570375 4.35481 0
M  V30 660 H 62.287 2.10671 3.69456 0
M  V30 661 N 60.6021 -1.18246 1.0419 0
M  V30 662 C 61.8271 -1.92736 0.765996 0
M  V30 663 C 62.2521 -1.75728 -0.67091 0
M  V30 664 O 61.6101 -1.06825 -1.46486 0
M  V30 665 C 61.6581 -3.42148 1.13875 0
M  V30 666 O 60.7621 -4.11548 0.264954 0
M  V30 667 H 60.1031 -0.601238 0.281797 0
M  V30 668 H 62.6331 -1.49942 1.39207 0
M  V30 669 H 62.6431 -3.92858 1.1012 0
M  V30 670 H 61.3181 -3.53848 2.18551 0
M  V30 671 H 59.8951 -3.71137 0.362226 0
M  V30 672 N 62.0802 -0.821533 -1.34494 0
M  V30 673 C 63.3052 -0.420873 -2.03085 0
M  V30 674 C 63.7302 0.964915 -1.61465 0
M  V30 675 O 63.0882 1.62763 -0.798607 0
M  V30 676 C 63.1362 -0.529414 -3.56693 0
M  V30 677 O 62.2402 0.451302 -4.09923 0
M  V30 678 H 61.5812 -0.173489 -0.640935 0
M  V30 679 H 64.1112 -1.11157 -1.71771 0
M  V30 680 H 64.1212 -0.404671 -4.05988 0
M  V30 681 H 62.7962 -1.54014 -3.86332 0
M  V30 682 H 61.3732 0.285558 -3.71805 0
M  V30 683 N 63.5583 1.46682 -0.576371 0
M  V30 684 C 64.4883 2.33028 0.148397 0
M  V30 685 C 65.4693 1.44961 0.889956 0
M  V30 686 O 66.6543 1.73789 0.866662 0
M  V30 687 C 63.7843 3.27117 1.1667 0
M  V30 688 C 62.7383 4.24575 0.540386 0
M  V30 689 C 62.0643 5.08126 1.6647 0
M  V30 690 C 63.3643 5.19722 -0.518331 0
M  V30 691 H 65.0583 2.93875 -0.572509 0
M  V30 692 H 62.6043 1.41315 -0.276768 0
M  V30 693 H 64.5573 3.86374 1.68204 0
M  V30 694 H 63.2813 2.64364 1.9178 0
M  V30 695 H 61.9403 3.66571 0.0461769 0
M  V30 696 H 61.5883 4.41762 2.40531 0
M  V30 697 H 61.2883 5.74122 1.25131 0
M  V30 698 H 62.8123 5.70246 2.18293 0
M  V30 699 H 64.2263 5.73232 -0.0883058 0
M  V30 700 H 62.6233 5.94026 -0.851679 0
M  V30 701 H 63.6933 4.64037 -1.40703 0
M  V30 702 N 65.0364 0.313813 1.54444 0
M  V30 703 C 66.2844 -0.291099 1.99993 0
M  V30 704 C 66.6054 -1.53418 1.20366 0
M  V30 705 O 65.8754 -1.93544 0.302927 0
M  V30 706 H 64.4554 -0.110552 0.738774 0
M  V30 707 H 67.1174 0.428106 1.9014 0
M  V30 708 H 66.2134 -0.554268 3.07139 0
M  V30 709 N 66.5145 -1.57545 0.0417849 0
M  V30 710 C 67.7625 -1.91937 -0.632829 0
M  V30 711 C 68.0835 -0.919978 -1.71934 0
M  V30 712 O 67.3535 0.0366064 -1.95866 0
M  V30 713 H 65.9335 -0.708493 -0.236742 0
M  V30 714 H 68.5955 -1.9468 0.0925745 0
M  V30 715 H 67.6915 -2.92912 -1.07746 0
M  V30 716 N 67.9926 0.231505 -1.5589 0
M  V30 717 C 69.2206 0.974505 -1.82513 0
M  V30 718 C 69.6356 1.78344 -0.619591 0
M  V30 719 O 68.9926 1.77792 0.411848 0
M  V30 720 C 69.0436 1.90007 -3.07538 0
M  V30 721 O 68.7646 1.12385 -4.2344 0
M  V30 722 C 70.2656 2.75779 -3.47075 0
M  V30 723 H 67.4856 0.286065 -0.606966 0
M  V30 724 H 70.0296 0.249739 -2.02969 0
M  V30 725 H 68.1846 2.57891 -2.89086 0
M  V30 726 H 68.5986 1.75125 -4.944 0
M  V30 727 H 70.0726 3.36443 -4.37619 0
M  V30 728 H 70.5496 3.47672 -2.68367 0
M  V30 729 H 71.1556 2.13323 -3.67931 0
M  V30 730 N 69.4707 1.49531 0.497807 0
M  V30 731 C 70.7477 1.49682 1.25915 0
M  V30 732 C 71.1277 0.226339 2.09883 0
M  V30 733 O 70.4757 -0.791189 2.14365 0
M  V30 734 C 70.6857 2.77755 2.11313 0
M  V30 735 C 72.0337 3.27371 2.70395 0
M  V30 736 O 73.0577 2.78894 2.21578 0
M  V30 737 O 71.9167 4.11808 3.59272 0
M  V30 738 H 69.0107 0.599228 0.56996 0
M  V30 739 H 71.5567 1.61798 0.511816 0
M  V30 740 H 70.3287 3.61713 1.49264 0
M  V30 741 H 69.9517 2.68515 2.93233 0
M  V30 742 N 70.9488 -0.749086 1.3866 0
M  V30 743 C 71.8958 -1.86291 1.36251 0
M  V30 744 C 72.8658 -1.64578 0.224347 0
M  V30 745 O 74.0508 -1.86181 0.417279 0
M  V30 746 C 71.1908 -3.23644 1.19786 0
M  V30 747 C 70.3038 -3.57158 2.43027 0
M  V30 748 C 69.4388 -4.83838 2.19258 0
M  V30 749 C 68.4778 -5.10152 3.38247 0
M  V30 750 N 67.6148 -6.28029 3.13884 0
M  V30 751 H 72.4548 -1.87685 2.3147 0
M  V30 752 H 69.9918 -0.917287 1.14997 0
M  V30 753 H 71.9498 -4.0291 1.08254 0
M  V30 754 H 70.5798 -3.21566 0.282031 0
M  V30 755 H 69.6318 -2.72701 2.65214 0
M  V30 756 H 70.9438 -3.7253 3.31697 0
M  V30 757 H 70.0978 -5.71057 2.04888 0
M  V30 758 H 68.8368 -4.70614 1.2796 0
M  V30 759 H 67.8418 -4.21401 3.53131 0
M  V30 760 H 69.0668 -5.25271 4.30427 0
M  V30 761 H 67.0128 -6.1612 2.25238 0
M  V30 762 H 66.9298 -6.43922 3.96106 0
M  V30 763 H 68.1978 -7.18124 3.03179 0
M  V30 764 N 72.4269 -1.23603 -0.977757 0
M  V30 765 C 73.3369 -1.03632 -2.1047 0
M  V30 766 C 74.3529 0.0199435 -1.73989 0
M  V30 767 O 75.5289 -0.176076 -2.00629 0
M  V30 768 C 72.5939 -0.63276 -3.40877 0
M  V30 769 C 71.6549 -1.76437 -3.91367 0
M  V30 770 C 70.8879 -1.37997 -5.15551 0
M  V30 771 O 71.1109 -0.265357 -5.69782 0
M  V30 772 O 70.0449 -2.20201 -5.60174 0
M  V30 773 H 73.8709 -1.98086 -2.30208 0
M  V30 774 H 71.4559 -1.02332 -1.08851 0
M  V30 775 H 73.3379 -0.418761 -4.19314 0
M  V30 776 H 72.0129 0.282754 -3.22463 0
M  V30 777 H 70.9199 -2.03304 -3.14036 0
M  V30 778 H 72.2529 -2.6583 -4.14241 0
M  V30 779 N 73.905 1.17692 -1.04816 0
M  V30 780 C 74.835 2.23777 -0.666791 0
M  V30 781 C 75.816 1.66796 0.33361 0
M  V30 782 O 77.001 1.93039 0.212042 0
M  V30 783 C 74.131 3.47281 -0.0367933 0
M  V30 784 C 73.085 4.17059 -0.961546 0
M  V30 785 C 72.411 5.34342 -0.195626 0
M  V30 786 C 73.711 4.69713 -2.28402 0
M  V30 787 H 75.405 2.55933 -1.55367 0
M  V30 788 H 72.951 1.23019 -0.748484 0
M  V30 789 H 74.904 4.20706 0.241775 0
M  V30 790 H 73.628 3.14381 0.885004 0
M  V30 791 H 72.287 3.45541 -1.22462 0
M  V30 792 H 71.935 4.97692 0.728816 0
M  V30 793 H 71.635 5.81966 -0.811775 0
M  V30 794 H 73.159 6.10553 0.0757473 0
M  V30 795 H 74.573 5.34794 -2.06563 0
M  V30 796 H 72.97 5.279 -2.8538 0
M  V30 797 H 74.04 3.86726 -2.92525 0
M  V30 798 N 75.3831 0.828654 1.34056 0
M  V30 799 C 76.7991 0.515135 1.51058 0
M  V30 800 C 76.9991 -0.959581 1.77184 0
M  V30 801 O 76.0551 -1.74382 1.82612 0
M  V30 802 C 77.3681 1.37963 2.67183 0
M  V30 803 C 78.9161 1.37735 2.81066 0
M  V30 804 C 79.3911 2.22645 4.00241 0
M  V30 805 N 80.8821 2.203 4.07458 0
M  V30 806 C 81.6171 2.82744 4.98842 0
M  V30 807 N 81.1131 3.54201 5.9541 0
M  V30 808 N 82.9061 2.72268 4.91759 0
M  V30 809 H 75.0571 1.78343 1.15358 0
M  V30 810 H 77.3201 0.760304 0.566252 0
M  V30 811 H 77.0261 2.42714 2.54525 0
M  V30 812 H 76.9001 1.0484 3.62338 0
M  V30 813 H 79.2871 0.337593 2.93163 0
M  V30 814 H 79.3681 1.74859 1.86703 0
M  V30 815 H 79.0121 3.26674 3.88905 0
M  V30 816 H 78.9421 1.82869 4.93829 0
M  V30 817 H 81.4331 1.68327 3.38341 0
M  V30 818 H 81.7461 3.9908 6.61782 0
M  V30 819 H 80.0911 3.58308 5.95517 0
M  V30 820 H 83.2821 2.16014 4.15278 0
M  V30 821 H 83.4551 3.21219 5.62781 0
M  V30 822 N 76.8612 -1.46375 0.584142 0
M  V30 823 C 77.7912 -2.33103 -0.136037 0
M  V30 824 C 78.7722 -1.45431 -0.882255 0
M  V30 825 O 79.9572 -1.74246 -0.857434 0
M  V30 826 C 77.0872 -3.27731 -1.14933 0
M  V30 827 C 76.0412 -4.24855 -0.517862 0
M  V30 828 C 75.3672 -5.09001 -1.63773 0
M  V30 829 C 76.6672 -5.19439 0.545886 0
M  V30 830 H 78.3612 -2.93568 0.588086 0
M  V30 831 H 75.9072 -1.41166 0.284259 0
M  V30 832 H 77.8602 -3.87261 -1.66153 0
M  V30 833 H 76.5842 -2.65377 -1.90375 0
M  V30 834 H 75.2432 -3.6659 -0.0267361 0
M  V30 835 H 74.8912 -4.43031 -2.38185 0
M  V30 836 H 74.5912 -5.74777 -1.22085 0
M  V30 837 H 76.1152 -5.71396 -2.15266 0
M  V30 838 H 77.5292 -5.73177 0.118704 0
M  V30 839 H 75.9262 -5.93566 0.88317 0
M  V30 840 H 76.9962 -4.63285 1.43162 0
M  V30 841 N 78.3393 -0.321999 -1.54275 0
M  V30 842 C 79.5853 0.281461 -2.00837 0
M  V30 843 C 79.9183 1.51909 -1.20985 0
M  V30 844 O 79.1933 1.923 -0.291733 0
M  V30 845 C 79.4763 0.617162 -3.54772 0
M  V30 846 C 79.3293 -0.631064 -4.45351 0
M  V30 847 C 80.6483 1.43542 -4.16033 0
M  V30 848 H 77.7673 0.100826 -0.730071 0
M  V30 849 H 80.4093 -0.438268 -1.84876 0
M  V30 850 H 78.5593 1.23034 -3.68504 0
M  V30 851 H 80.2313 -1.26934 -4.43492 0
M  V30 852 H 78.4743 -1.26025 -4.15091 0
M  V30 853 H 79.1453 -0.351735 -5.50878 0
M  V30 854 H 81.6213 0.917134 -4.05867 0
M  V30 855 H 80.4973 1.63907 -5.23856 0
M  V30 856 H 80.7583 2.43108 -3.69257 0
M  V30 857 N 79.8174 1.5752 -0.0501392 0
M  V30 858 C 81.0944 1.83996 0.663685 0
M  V30 859 C 81.4744 0.938339 1.89099 0
M  V30 860 O 80.8224 -0.00087759 2.285 0
M  V30 861 C 81.0324 3.33702 1.02196 0
M  V30 862 C 82.3804 4.00691 1.40469 0
M  V30 863 O 83.4044 3.38321 1.11433 0
M  V30 864 O 82.2634 5.10658 1.94654 0
M  V30 865 H 79.3574 0.759385 0.32751 0
M  V30 866 H 81.9034 1.69514 -0.0794238 0
M  V30 867 H 80.6754 3.91015 0.149364 0
M  V30 868 H 80.2984 3.53368 1.82255 0
M  V30 869 N 81.2955 -0.223234 1.56011 0
M  V30 870 C 82.5435 -0.946003 1.78592 0
M  V30 871 C 82.8645 -1.84936 0.618349 0
M  V30 872 O 82.1345 -1.92473 -0.364833 0
M  V30 873 H 80.7145 -0.352298 0.658707 0
M  V30 874 H 83.3765 -0.235494 1.93472 0
M  V30 875 H 82.4725 -1.55381 2.70672 0
M  V30 876 N 82.7736 -1.49793 -0.48987 0
M  V30 877 C 83.6836 -1.70036 -1.61632 0
M  V30 878 C 84.6996 -0.583102 -1.63939 0
M  V30 879 O 85.8756 -0.859169 -1.82154 0
M  V30 880 C 82.9406 -1.77277 -2.97949 0
M  V30 881 C 82.0016 -3.00918 -3.06181 0
M  V30 882 C 81.2346 -3.07804 -4.35996 0
M  V30 883 O 81.4576 -2.21982 -5.25433 0
M  V30 884 O 80.3916 -4.00369 -4.49431 0
M  V30 885 H 84.2176 -2.65486 -1.47482 0
M  V30 886 H 81.8026 -1.33666 -0.667362 0
M  V30 887 H 83.6846 -1.84329 -3.78947 0
M  V30 888 H 82.3596 -0.850076 -3.12339 0
M  V30 889 H 81.2666 -2.99377 -2.2433 0
M  V30 890 H 82.5996 -3.92704 -2.96723 0
M  V30 891 N 84.2517 0.741722 -1.39055 0
M  V30 892 C 85.1997 1.87702 -1.3737 0
M  V30 893 C 86.1937 1.67427 -0.257812 0
M  V30 894 O 87.3997 1.7485 -0.427489 0
M  V30 895 H 83.7747 0.617757 -0.428812 0
M  V30 896 H 85.7457 1.86239 -2.33147 0
M  V30 897 C 84.4947 3.25315 -1.22741 0
M  V30 898 H 83.8177 3.41509 -2.07873 0
M  V30 899 H 85.2577 4.04964 -1.25618 0
M  V30 900 C 83.7167 3.36838 0.0647316 0
M  V30 901 O 84.2467 3.88073 1.03741 0
M  V30 902 N 82.4527 2.90329 0.125544 0
M  V30 903 H 81.9997 2.48823 -0.666682 0
M  V30 904 H 81.9577 2.98418 0.989639 0
M  V30 905 N 85.7298 1.2412 0.971189 0
M  V30 906 C 86.6768 1.0305 2.06517 0
M  V30 907 C 87.6468 -0.0550666 1.66009 0
M  V30 908 O 88.8318 0.0988688 1.90544 0
M  V30 909 C 85.9718 0.637653 3.39158 0
M  V30 910 C 85.0848 1.79633 3.92882 0
M  V30 911 C 84.2198 1.34939 5.13775 0
M  V30 912 C 83.2588 2.47823 5.59687 0
M  V30 913 N 82.3958 2.04022 6.71803 0
M  V30 914 H 87.2358 1.96685 2.23873 0
M  V30 915 H 84.7728 0.979694 1.09729 0
M  V30 916 H 86.7308 0.390931 4.15364 0
M  V30 917 H 85.3608 -0.261693 3.21737 0
M  V30 918 H 84.4128 2.15681 3.13346 0
M  V30 919 H 85.7248 2.64466 4.22918 0
M  V30 920 H 84.8788 1.06134 5.97345 0
M  V30 921 H 83.6178 0.471557 4.85415 0
M  V30 922 H 82.6228 2.77392 4.74693 0
M  V30 923 H 83.8478 3.36158 5.90063 0
M  V30 924 H 81.7938 1.18632 6.45184 0
M  V30 925 H 81.7108 2.82409 7.01271 0
M  V30 926 H 82.9788 1.78347 7.58823 0
M  V30 927 N 87.2079 -1.17134 1.05439 0
M  V30 928 C 88.4479 -1.89137 0.77502 0
M  V30 929 C 88.8119 -1.79345 -0.685526 0
M  V30 930 O 90.0129 -2.46188 -1.0791 0
M  V30 931 C 88.2839 -3.35003 1.2453 0
M  V30 932 S 89.8429 -4.24952 1.09367 0
M  V30 933 H 86.6609 -0.652949 0.281387 0
M  V30 934 H 89.2629 -1.4145 1.34953 0
M  V30 935 H 87.9669 -3.39666 2.30338 0
M  V30 936 H 87.4979 -3.87736 0.665166 0
M  V30 937 H 89.5129 -4.96196 0.0193397 0
M  V30 938 N 88.686 -0.835752 -1.33615 0
M  V30 939 C 89.911 -0.442389 -2.02627 0
M  V30 940 C 90.336 0.947735 -1.62479 0
M  V30 941 O 89.694 1.61907 -0.815826 0
M  V30 942 C 89.742 -0.567216 -3.56111 0
M  V30 943 O 88.846 0.407799 -4.10379 0
M  V30 944 H 88.187 -0.180278 -0.639059 0
M  V30 945 H 90.717 -1.12972 -1.70583 0
M  V30 946 H 90.727 -0.447708 -4.05536 0
M  V30 947 H 89.402 -1.58103 -3.84677 0
M  V30 948 H 87.979 0.246107 -3.72087 0
M  V30 949 N 90.1641 1.46063 -0.591896 0
M  V30 950 C 91.4121 2.01938 -0.0808391 0
M  V30 951 C 91.7331 1.46475 1.28725 0
M  V30 952 O 91.0031 0.652944 1.84698 0
M  V30 953 H 89.5831 0.746516 -0.0268938 0
M  V30 954 H 92.2451 1.79055 -0.769752 0
M  V30 955 H 91.3411 3.12094 -0.0187578 0
M  V30 956 N 91.6422 0.330177 1.54103 0
M  V30 957 C 93.0582 -0.0222371 1.59585 0
M  V30 958 C 93.2582 -1.49902 1.34654 0
M  V30 959 O 92.3142 -2.25592 1.13421 0
M  V30 960 C 93.6272 0.401932 2.98002 0
M  V30 961 C 95.1752 0.353145 3.11001 0
M  V30 962 C 95.6502 0.752576 4.51775 0
M  V30 963 N 97.1412 0.706239 4.57784 0
M  V30 964 C 97.8762 0.987417 5.64834 0
M  V30 965 N 97.3722 1.33607 6.79795 0
M  V30 966 N 99.1652 0.91254 5.54643 0
M  V30 967 H 91.3162 1.29228 1.68564 0
M  V30 968 H 93.5792 0.525906 0.78875 0
M  V30 969 H 93.2852 1.4311 3.21267 0
M  V30 970 H 93.1592 -0.229699 3.765 0
M  V30 971 H 95.5462 -0.666822 2.87467 0
M  V30 972 H 95.6272 1.0198 2.34593 0
M  V30 973 H 95.2712 1.77049 4.76042 0
M  V30 974 H 95.2012 0.0635409 5.26562 0
M  V30 975 H 97.6922 0.44889 3.75224 0
M  V30 976 H 98.0052 1.53582 7.57385 0
M  V30 977 H 96.3502 1.37439 6.81275 0
M  V30 978 H 99.5412 0.639601 4.6371 0
M  V30 979 H 99.7142 1.13503 6.37982 0
M  V30 980 N 93.1203 -1.57491 0.0584922 0
M  V30 981 C 94.3663 -1.93264 -0.614558 0
M  V30 982 C 94.6993 -0.937717 -1.7006 0
M  V30 983 O 93.9743 0.0351652 -1.94468 0
M  V30 984 C 94.2573 -3.3938 -1.20386 0
M  V30 985 C 94.1103 -4.49625 -0.125375 0
M  V30 986 C 95.4293 -3.86039 -2.11334 0
M  V30 987 H 92.5483 -0.702791 -0.221933 0
M  V30 988 H 95.1903 -1.8961 0.12175 0
M  V30 989 H 93.3403 -3.42626 -1.83139 0
M  V30 990 H 95.0123 -4.58506 0.506971 0
M  V30 991 H 93.2553 -4.30354 0.545672 0
M  V30 992 H 93.9263 -5.48967 -0.577861 0
M  V30 993 H 96.4023 -3.84716 -1.58534 0
M  V30 994 H 95.2783 -4.88914 -2.49507 0
M  V30 995 H 95.5393 -3.23215 -3.01636 0
M  V30 996 N 94.5984 0.214957 -1.56127 0
M  V30 997 C 95.5084 1.28727 -1.96129 0
M  V30 998 C 96.5244 1.50916 -0.866044 0
M  V30 999 O 97.7004 1.63918 -1.17016 0
M  V30 1000 C 94.7654 2.61569 -2.27558 0
M  V30 1001 C 93.8264 2.47625 -3.50685 0
M  V30 1002 C 93.0594 3.74132 -3.80606 0
M  V30 1003 O 93.2824 4.77438 -3.12104 0
M  V30 1004 O 92.2164 3.70849 -4.74083 0
M  V30 1005 H 96.0424 0.977855 -2.87527 0
M  V30 1006 H 93.6274 0.418358 -1.43423 0
M  V30 1007 H 95.5094 3.40012 -2.48938 0
M  V30 1008 H 94.1844 2.92178 -1.39332 0
M  V30 1009 H 93.0914 1.67361 -3.34576 0
M  V30 1010 H 94.4244 2.21954 -4.39315 0
M  V30 1011 N 96.0765 1.50051 0.48192 0
M  V30 1012 C 97.3225 1.60736 1.2366 0
M  V30 1013 C 97.6555 0.301786 1.91841 0
M  V30 1014 O 96.9305 -0.696025 1.8162 0
M  V30 1015 C 97.2135 2.78009 2.28874 0
M  V30 1016 C 97.0665 4.18416 1.65069 0
M  V30 1017 C 98.3855 2.90867 3.30279 0
M  V30 1018 H 95.5045 0.585031 0.448228 0
M  V30 1019 H 98.1465 1.82402 0.531946 0
M  V30 1020 H 96.2965 2.59667 2.88973 0
M  V30 1021 H 97.9685 4.48322 1.0865 0
M  V30 1022 H 96.2115 4.23177 0.954148 0
M  V30 1023 H 96.8825 4.96381 2.41474 0
M  V30 1024 H 99.3585 3.07623 2.80191 0
M  V30 1025 H 98.2345 3.74566 4.01238 0
M  V30 1026 H 98.4955 2.01021 3.93755 0
M  V30 1027 N 97.5546 -0.734337 1.39446 0
M  V30 1028 C 98.5016 -1.84835 1.38219 0
M  V30 1029 C 99.4716 -1.64331 0.24179 0
M  V30 1030 O 100.657 -1.85728 0.437002 0
M  V30 1031 C 97.7966 -3.22355 1.23212 0
M  V30 1032 C 96.9096 -3.5456 2.46801 0
M  V30 1033 C 96.0446 -4.81485 2.24377 0
M  V30 1034 C 95.0836 -5.06536 3.43639 0
M  V30 1035 N 94.2206 -6.24665 3.20528 0
M  V30 1036 H 99.0606 -1.85219 2.33448 0
M  V30 1037 H 96.5976 -0.905039 1.15963 0
M  V30 1038 H 98.5556 -4.0174 1.12522 0
M  V30 1039 H 97.1856 -3.21248 0.316121 0
M  V30 1040 H 96.2376 -2.69872 2.68092 0
M  V30 1041 H 97.5496 -3.6899 3.3563 0
M  V30 1042 H 96.7036 -5.68852 2.10933 0
M  V30 1043 H 95.4426 -4.6923 1.32944 0
M  V30 1044 H 94.4476 -4.17632 3.5758 0
M  V30 1045 H 95.6726 -5.20676 4.35974 0
M  V30 1046 H 93.6186 -6.13696 2.3176 0
M  V30 1047 H 93.5356 -6.39685 4.02913 0
M  V30 1048 H 94.8036 -7.14868 3.10779 0
M  V30 1049 N 99.0327 -1.24633 -0.964593 0
M  V30 1050 C 100.279 -1.08949 -1.71049 0
M  V30 1051 C 100.612 0.370302 -1.90637 0
M  V30 1052 O 99.8867 1.27349 -1.47011 0
M  V30 1053 C 100.17 -1.83329 -3.0994 0
M  V30 1054 C 100.023 -3.37077 -2.97824 0
M  V30 1055 C 101.342 -1.60846 -4.09654 0
M  V30 1056 H 98.4607 -0.397178 -0.620821 0
M  V30 1057 H 101.103 -1.5334 -1.12191 0
M  V30 1058 H 99.2527 -1.45597 -3.60186 0
M  V30 1059 H 100.925 -3.84425 -2.5498 0
M  V30 1060 H 99.1677 -3.65298 -2.33965 0
M  V30 1061 H 99.8387 -3.84324 -3.96231 0
M  V30 1062 H 102.315 -1.93674 -3.68279 0
M  V30 1063 H 101.191 -2.1534 -5.04896 0
M  V30 1064 H 101.452 -0.547434 -4.38698 0
M  V30 1065 N 100.511 1.16574 -1.06058 0
M  V30 1066 C 101.443 2.2045 -0.627239 0
M  V30 1067 C 102.456 1.59752 0.313534 0
M  V30 1068 O 103.645 1.78192 0.104896 0
M  V30 1069 C 100.745 3.3875 0.100974 0
M  V30 1070 C 99.9178 4.29008 -0.852687 0
M  V30 1071 C 98.9768 5.25944 -0.164152 0
M  V30 1072 O 98.0028 5.63535 -0.801047 0
M  V30 1073 N 99.2048 5.70075 1.09518 0
M  V30 1074 H 101.97 2.58249 -1.52077 0
M  V30 1075 H 99.5308 1.3156 -0.943594 0
M  V30 1076 H 101.523 4.00638 0.57194 0
M  V30 1077 H 100.093 2.99476 0.89628 0
M  V30 1078 H 99.3128 3.64419 -1.50308 0
M  V30 1079 H 100.601 4.86195 -1.49972 0
M  V30 1080 H 99.9988 5.41624 1.6328 0
M  V30 1081 H 98.5558 6.34067 1.51006 0
M  V30 1082 N 101.989 0.842826 1.3317 0
M  V30 1083 C 102.899 0.281444 2.32906 0
M  V30 1084 C 103.915 -0.594587 1.63526 0
M  V30 1085 O 105.091 -0.49777 1.95152 0
M  V30 1086 C 102.156 -0.530929 3.42611 0
M  V30 1087 C 101.217 0.369843 4.27704 0
M  V30 1088 C 100.45 -0.403853 5.3217 0
M  V30 1089 O 100.673 -1.63513 5.46461 0
M  V30 1090 O 99.6069 0.224199 6.01482 0
M  V30 1091 H 103.433 1.10744 2.82789 0
M  V30 1092 H 101.018 0.60545 1.36582 0
M  V30 1093 H 102.9 -0.992437 4.09547 0
M  V30 1094 H 101.575 -1.33392 2.94938 0
M  V30 1095 H 100.482 0.879275 3.6362 0
M  V30 1096 H 101.815 1.13771 4.78871 0
M  V30 1097 N 103.467 -1.45747 0.599634 0
M  V30 1098 C 104.377 -2.34262 -0.125888 0
M  V30 1099 C 105.393 -1.50768 -0.868625 0
M  V30 1100 O 106.569 -1.83592 -0.828003 0
M  V30 1101 C 103.634 -3.28252 -1.11587 0
M  V30 1102 C 102.695 -4.27651 -0.375956 0
M  V30 1103 C 101.928 -5.1715 -1.31877 0
M  V30 1104 O 102.151 -5.09916 -2.55621 0
M  V30 1105 O 101.085 -5.96286 -0.820157 0
M  V30 1106 H 104.911 -2.97688 0.601315 0
M  V30 1107 H 102.496 -1.44999 0.359934 0
M  V30 1108 H 104.378 -3.86191 -1.68626 0
M  V30 1109 H 103.053 -2.67401 -1.82424 0
M  V30 1110 H 101.96 -3.7335 0.236698 0
M  V30 1111 H 103.293 -4.91334 0.29177 0
M  V30 1112 N 104.945 -0.338344 -1.53925 0
M  V30 1113 C 106.191 0.252842 -2.01822 0
M  V30 1114 C 106.546 1.48612 -1.22197 0
M  V30 1115 O 105.839 1.89238 -0.299892 0
M  V30 1116 C 106.033 0.62448 -3.51902 0
M  V30 1117 C 105.862 -0.571235 -4.46057 0
M  V30 1118 C 104.632 -1.07493 -4.93734 0
M  V30 1119 C 106.83 -1.42807 -4.94076 0
M  V30 1120 N 104.812 -2.23351 -5.71828 0
M  V30 1121 C 106.183 -2.43362 -5.70241 0
M  V30 1122 C 108.238 -1.45412 -4.76193 0
M  V30 1123 C 106.941 -3.46346 -6.30426 0
M  V30 1124 C 108.967 -2.47274 -5.37224 0
M  V30 1125 C 108.329 -3.46555 -6.13253 0
M  V30 1126 H 104.428 0.0559669 -0.779995 0
M  V30 1127 H 107.012 -0.476732 -1.88773 0
M  V30 1128 H 105.183 1.32317 -3.65167 0
M  V30 1129 H 106.915 1.19841 -3.86549 0
M  V30 1130 H 103.67 -0.643848 -4.69203 0
M  V30 1131 H 104.094 -2.81834 -6.15548 0
M  V30 1132 H 108.736 -0.700171 -4.16962 0
M  V30 1133 H 106.454 -4.22638 -6.88769 0
M  V30 1134 H 110.04 -2.50109 -5.25297 0
M  V30 1135 H 108.92 -4.24083 -6.59638 0
M  V30 1136 N 106.423 1.57458 -0.0668435 0
M  V30 1137 C 107.671 1.92919 0.602214 0
M  V30 1138 C 107.992 0.947215 1.70449 0
M  V30 1139 O 107.262 -0.00544117 1.95899 0
M  V30 1140 H 105.842 0.71217 0.22544 0
M  V30 1141 H 108.504 1.94508 -0.123535 0
M  V30 1142 H 107.6 2.94589 1.03073 0
M  V30 1143 N 107.901 -0.206675 1.56239 0
M  V30 1144 C 109.129 -0.945345 1.8404 0
M  V30 1145 C 109.544 -1.77336 0.647885 0
M  V30 1146 O 108.901 -1.78425 -0.383511 0
M  V30 1147 C 108.952 -1.8509 3.10522 0
M  V30 1148 O 108.673 -1.05634 4.25174 0
M  V30 1149 C 110.174 -2.70222 3.51418 0
M  V30 1150 H 107.394 -0.276372 0.61144 0
M  V30 1151 H 109.938 -0.217417 2.03341 0
M  V30 1152 H 108.093 -2.53259 2.93153 0
M  V30 1153 H 108.507 -1.67238 4.97124 0
M  V30 1154 H 109.981 -3.29438 4.42916 0
M  V30 1155 H 110.458 -3.43358 2.73864 0
M  V30 1156 H 111.064 -2.07443 3.71278 0
M  V30 1157 N 109.379 -1.50304 -0.473955 0
M  V30 1158 C 110.625 -1.61389 -1.22806 0
M  V30 1159 C 110.958 -0.311955 -1.91678 0
M  V30 1160 O 110.233 0.686384 -1.81986 0
M  V30 1161 C 110.516 -2.79219 -2.27396 0
M  V30 1162 C 110.369 -4.19286 -1.62848 0
M  V30 1163 C 111.688 -2.92614 -3.28732 0
M  V30 1164 H 108.807 -0.587399 -0.445119 0
M  V30 1165 H 111.449 -1.82681 -0.522265 0
M  V30 1166 H 109.599 -2.61195 -2.87592 0
M  V30 1167 H 111.271 -4.48892 -1.06271 0
M  V30 1168 H 109.514 -4.23677 -0.931693 0
M  V30 1169 H 110.185 -4.97655 -2.38838 0
M  V30 1170 H 112.661 -3.09105 -2.78556 0
M  V30 1171 H 111.537 -3.76688 -3.99246 0
M  V30 1172 H 111.798 -2.03107 -3.92683 0
M  V30 1173 N 110.857 0.726932 -1.39834 0
M  V30 1174 C 112.097 1.4992 -1.38936 0
M  V30 1175 C 112.461 1.91996 0.0126883 0
M  V30 1176 O 113.662 2.68399 0.146715 0
M  V30 1177 C 111.933 2.70013 -2.34153 0
M  V30 1178 S 113.492 3.59563 -2.51515 0
M  V30 1179 H 110.31 0.51271 -0.492595 0
M  V30 1180 H 112.912 0.85107 -1.76003 0
M  V30 1181 H 111.616 2.37254 -3.34871 0
M  V30 1182 H 111.147 3.39748 -1.98331 0
M  V30 1183 H 113.162 4.63973 -1.75909 0
M  V30 1184 N 112.336 1.25143 0.95797 0
M  V30 1185 C 113.284 1.05019 2.07542 0
M  V30 1186 C 114.278 -0.0178751 1.69391 0
M  V30 1187 O 115.484 0.137472 1.79474 0
M  V30 1188 H 111.859 0.32265 0.679265 0
M  V30 1189 H 113.83 1.99759 2.21673 0
M  V30 1190 C 112.579 0.682074 3.40944 0
M  V30 1191 H 111.902 1.49573 3.70767 0
M  V30 1192 H 113.342 0.580945 4.20001 0
M  V30 1193 C 111.801 -0.611608 3.31302 0
M  V30 1194 O 112.331 -1.65465 3.66038 0
M  V30 1195 N 110.537 -0.595982 2.84423 0
M  V30 1196 H 110.084 0.253192 2.56353 0
M  V30 1197 H 110.042 -1.46173 2.78354 0
M  V30 1198 N 113.814 -1.1601 1.06675 0
M  V30 1199 C 114.762 -2.22586 0.675157 0
M  V30 1200 C 115.756 -1.66525 -0.310766 0
M  V30 1201 O 116.962 -1.79145 -0.175215 0
M  V30 1202 H 113.337 -0.724855 0.200223 0
M  V30 1203 H 115.308 -2.52899 1.58381 0
M  V30 1204 C 114.057 -3.47604 0.0817162 0
M  V30 1205 H 113.38 -3.91058 0.831484 0
M  V30 1206 H 114.82 -4.23718 -0.154708 0
M  V30 1207 C 113.279 -3.15718 -1.17576 0
M  V30 1208 O 113.809 -3.31878 -2.26318 0
M  V30 1209 N 112.015 -2.69816 -1.07923 0
M  V30 1210 H 111.562 -2.56866 -0.194293 0
M  V30 1211 H 111.52 -2.48855 -1.92141 0
M  V30 1212 N 115.292 -0.849877 -1.32721 0
M  V30 1213 C 116.54 -0.450032 -1.97026 0
M  V30 1214 C 116.861 0.996604 -1.67609 0
M  V30 1215 O 116.131 1.6958 -0.980786 0
M  V30 1216 H 114.711 -0.163426 -0.728904 0
M  V30 1217 H 117.373 -1.08526 -1.6189 0
M  V30 1218 H 116.469 -0.591146 -3.0645 0
M  V30 1219 N 116.77 1.45427 -0.607355 0
M  V30 1220 C 118.016 2.03097 -0.111035 0
M  V30 1221 C 118.371 1.46735 1.24445 0
M  V30 1222 O 117.664 0.632478 1.8086 0
M  V30 1223 C 117.858 3.57398 -0.0129263 0
M  V30 1224 C 117.687 4.28726 -1.35735 0
M  V30 1225 C 116.457 4.66659 -1.93798 0
M  V30 1226 C 118.655 4.60699 -2.28607 0
M  V30 1227 N 116.637 5.22845 -3.21723 0
M  V30 1228 C 118.008 5.17716 -3.41131 0
M  V30 1229 C 120.063 4.42638 -2.27982 0
M  V30 1230 C 118.766 5.58576 -4.53194 0
M  V30 1231 C 120.792 4.84531 -3.39093 0
M  V30 1232 C 120.154 5.4164 -4.50339 0
M  V30 1233 H 116.253 0.777476 -0.083994 0
M  V30 1234 H 118.837 1.77249 -0.805655 0
M  V30 1235 H 117.008 3.82907 0.650914 0
M  V30 1236 H 118.74 4.01722 0.490033 0
M  V30 1237 H 115.495 4.50207 -1.47007 0
M  V30 1238 H 115.919 5.55438 -3.87063 0
M  V30 1239 H 120.561 3.97798 -1.43235 0
M  V30 1240 H 118.279 6.02382 -5.38667 0
M  V30 1241 H 121.865 4.72289 -3.39757 0
M  V30 1242 H 120.745 5.73461 -5.34895 0
M  V30 1243 N 118.248 0.346503 1.53744 0
M  V30 1244 C 119.473 -0.253074 2.0585 0
M  V30 1245 C 119.898 -1.43202 1.21962 0
M  V30 1246 O 119.256 -1.79783 0.234073 0
M  V30 1247 C 119.304 -0.643193 3.54817 0
M  V30 1248 O 118.408 -1.74286 3.73762 0
M  V30 1249 H 117.749 -0.0413583 0.662711 0
M  V30 1250 H 120.279 0.501574 1.98357 0
M  V30 1251 H 120.289 -0.919526 3.97503 0
M  V30 1252 H 118.964 0.218966 4.15323 0
M  V30 1253 H 117.541 -1.46356 3.42979 0
M  V30 1254 N 119.726 -1.57421 0.075193 0
M  V30 1255 C 120.659 -2.08528 -0.926904 0
M  V30 1256 C 121.637 -0.991171 -1.28898 0
M  V30 1257 O 122.821 -1.26479 -1.39769 0
M  V30 1258 C 119.948 -2.54576 -2.23402 0
M  V30 1259 C 118.994 -3.75454 -2.02327 0
M  V30 1260 S 119.827 -5.19989 -1.27951 0
M  V30 1261 C 120.983 -5.69372 -2.59935 0
M  V30 1262 H 121.216 -2.932 -0.492048 0
M  V30 1263 H 118.749 -1.53785 -0.137651 0
M  V30 1264 H 120.707 -2.81767 -2.98526 0
M  V30 1265 H 119.368 -1.70166 -2.64012 0
M  V30 1266 H 118.561 -4.05675 -2.99071 0
M  V30 1267 H 118.163 -3.48654 -1.35339 0
M  V30 1268 H 120.455 -5.76424 -3.56008 0
M  V30 1269 H 121.398 -6.68207 -2.34319 0
M  V30 1270 H 121.806 -4.97205 -2.67296 0
M  V30 1271 N 121.204 0.198386 -1.56346 0
M  V30 1272 C 122.114 1.2664 -1.97483 0
M  V30 1273 C 123.13 1.49989 -0.882002 0
M  V30 1274 O 124.306 1.62668 -1.18748 0
M  V30 1275 C 121.371 2.59141 -2.30319 0
M  V30 1276 C 120.432 2.43892 -3.53292 0
M  V30 1277 C 119.665 3.70074 -3.84553 0
M  V30 1278 O 119.888 4.74101 -3.1715 0
M  V30 1279 O 118.822 3.658 -4.7799 0
M  V30 1280 H 122.648 0.947304 -2.88548 0
M  V30 1281 H 120.233 0.403123 -1.43859 0
M  V30 1282 H 122.115 3.37352 -2.5253 0
M  V30 1283 H 120.79 2.90684 -1.42423 0
M  V30 1284 H 119.697 1.63803 -3.36332 0
M  V30 1285 H 121.03 2.17282 -4.41644 0
M  V30 1286 N 122.682 1.50554 0.465978 0
M  V30 1287 C 123.645 1.69233 1.54574 0
M  V30 1288 C 124.645 0.562901 1.50626 0
M  V30 1289 O 125.835 0.830016 1.53155 0
M  V30 1290 C 122.967 1.7223 2.94193 0
M  V30 1291 H 124.16 2.65571 1.39327 0
M  V30 1292 H 121.713 1.40111 0.692711 0
M  V30 1293 H 122.448 0.77603 3.14878 0
M  V30 1294 H 122.233 2.54285 2.98466 0
M  V30 1295 H 123.723 1.88618 3.72576 0
M  V30 1296 N 124.16 -0.719506 1.40217 0
M  V30 1297 C 125.406 -1.48152 1.38488 0
M  V30 1298 C 125.739 -1.94195 -0.0141867 0
M  V30 1299 O 125.014 -1.67884 -0.982096 0
M  V30 1300 C 125.297 -2.71035 2.37091 0
M  V30 1301 C 125.15 -2.30912 3.86005 0
M  V30 1302 C 126.469 -3.73182 2.33288 0
M  V30 1303 H 123.588 -0.537395 0.504357 0
M  V30 1304 H 126.23 -0.821472 1.71324 0
M  V30 1305 H 124.38 -3.27352 2.0922 0
M  V30 1306 H 126.052 -1.80107 4.24687 0
M  V30 1307 H 124.295 -1.62958 4.02029 0
M  V30 1308 H 124.966 -3.18978 4.50508 0
M  V30 1309 H 127.442 -3.26485 2.57966 0
M  V30 1310 H 126.318 -4.56806 3.04334 0
M  V30 1311 H 126.579 -4.21202 1.34317 0
M  V30 1312 N 125.638 -1.25649 -0.95132 0
M  V30 1313 C 126.863 -1.13443 -1.73624 0
M  V30 1314 C 127.288 0.307565 -1.85568 0
M  V30 1315 O 126.646 1.22282 -1.33854 0
M  V30 1316 C 126.694 -1.79723 -3.12621 0
M  V30 1317 O 125.798 -1.07912 -3.98031 0
M  V30 1318 H 125.139 -0.395872 -0.533086 0
M  V30 1319 H 127.669 -1.66276 -1.1922 0
M  V30 1320 H 127.679 -1.86141 -3.63064 0
M  V30 1321 H 126.354 -2.84633 -3.03244 0
M  V30 1322 H 124.931 -1.09398 -3.56492 0
M  V30 1323 N 127.117 1.15442 -1.07289 0
M  V30 1324 C 128.363 1.86489 -0.796846 0
M  V30 1325 C 128.696 1.82078 0.675371 0
M  V30 1326 O 127.971 1.24346 1.4956 0
M  V30 1327 C 128.254 3.35626 -1.30489 0
M  V30 1328 C 128.107 3.48673 -2.84161 0
M  V30 1329 C 129.426 4.30357 -0.920907 0
M  V30 1330 H 126.545 0.677144 -0.290939 0
M  V30 1331 H 129.187 1.35633 -1.33056 0
M  V30 1332 H 127.337 3.79068 -0.850883 0
M  V30 1333 H 129.009 3.14099 -3.37846 0
M  V30 1334 H 127.252 2.90253 -3.22391 0
M  V30 1335 H 127.923 4.53453 -3.14777 0
M  V30 1336 H 130.399 3.94871 -1.3121 0
M  V30 1337 H 129.275 5.33193 -1.30372 0
M  V30 1338 H 129.536 4.4176 0.173226 0
M  V30 1339 N 128.595 0.856903 1.32268 0
M  V30 1340 C 129.844 0.457599 1.96441 0
M  V30 1341 C 130.157 -0.992426 1.68553 0
M  V30 1342 O 131.363 -1.49727 2.26482 0
M  V30 1343 C 129.819 0.767358 3.51624 0
M  V30 1344 C 129.427 2.23326 3.88367 0
M  V30 1345 C 131.171 0.435887 4.22256 0
M  V30 1346 C 129.078 2.48613 5.36606 0
M  V30 1347 H 128.008 0.167387 0.735185 0
M  V30 1348 H 130.659 1.048 1.5063 0
M  V30 1349 H 129.041 0.106367 3.95857 0
M  V30 1350 H 130.215 2.93623 3.55137 0
M  V30 1351 H 128.53 2.52948 3.30766 0
M  V30 1352 H 131.127 0.602202 5.31298 0
M  V30 1353 H 131.47 -0.622672 4.11617 0
M  V30 1354 H 132.003 1.05286 3.83614 0
M  V30 1355 H 128.742 3.53101 5.52268 0
M  V30 1356 H 128.262 1.82896 5.71235 0
M  V30 1357 H 129.941 2.32676 6.03714 0
M  V30 1358 N 130.073 -1.45103 0.615059 0
M  V30 1359 C 131.313 -2.04069 0.116282 0
M  V30 1360 C 131.677 -1.4721 -1.2326 0
M  V30 1361 O 132.878 -1.97577 -1.82255 0
M  V30 1362 C 131.149 -3.57298 0.085482 0
M  V30 1363 S 132.708 -4.37394 -0.351015 0
M  V30 1364 H 129.526 -0.709006 0.0532183 0
M  V30 1365 H 132.128 -1.77709 0.81484 0
M  V30 1366 H 130.832 -3.9619 1.0706 0
M  V30 1367 H 130.363 -3.88244 -0.634835 0
M  V30 1368 H 132.378 -4.69734 -1.59889 0
M  V30 1369 N 131.551 -0.354651 -1.53558 0
M  V30 1370 C 132.499 0.512195 -2.26891 0
M  V30 1371 C 133.493 1.09263 -1.29452 0
M  V30 1372 O 134.699 1.03709 -1.47121 0
M  V30 1373 H 131.074 0.183878 -0.729173 0
M  V30 1374 H 133.045 -0.128202 -2.98124 0
M  V30 1375 C 131.794 1.64563 -3.06291 0
M  V30 1376 H 131.117 1.20829 -3.81104 0
M  V30 1377 H 132.557 2.22711 -3.60799 0
M  V30 1378 C 131.016 2.58158 -2.16462 0
M  V30 1379 O 131.546 3.60695 -1.76811 0
M  V30 1380 N 129.752 2.27096 -1.81317 0
M  V30 1381 H 129.299 1.43751 -2.1376 0
M  V30 1382 H 129.257 2.89975 -1.21498 0
M  V30 1383 N 133.029 1.57378 -0.0835403 0
M  V30 1384 C 133.961 2.10389 0.909338 0
M  V30 1385 C 134.974 1.03858 1.25369 0
M  V30 1386 O 136.163 1.31338 1.20882 0
M  V30 1387 C 133.263 2.55908 2.2218 0
M  V30 1388 C 132.436 3.86145 2.05453 0
M  V30 1389 C 131.495 4.17633 3.20108 0
M  V30 1390 O 130.521 4.87043 2.94581 0
M  V30 1391 N 131.723 3.72113 4.45547 0
M  V30 1392 H 134.488 2.962 0.456657 0
M  V30 1393 H 132.049 1.61579 0.101877 0
M  V30 1394 H 134.041 2.74027 2.97811 0
M  V30 1395 H 132.611 1.75171 2.58909 0
M  V30 1396 H 131.831 3.7729 1.1422 0
M  V30 1397 H 133.119 4.7137 1.91541 0
M  V30 1398 H 132.517 3.16062 4.69171 0
M  V30 1399 H 131.074 3.95409 5.18165 0
M  V30 1400 N 134.507 -0.190092 1.56449 0
M  V30 1401 C 135.437 -1.23816 1.97969 0
M  V30 1402 C 136.418 -1.47201 0.852395 0
M  V30 1403 O 137.603 -1.58854 1.1171 0
M  V30 1404 C 134.733 -2.5813 2.3235 0
M  V30 1405 C 133.687 -2.49348 3.47864 0
M  V30 1406 C 133.013 -3.8798 3.67934 0
M  V30 1407 C 134.313 -2.01424 4.81898 0
M  V30 1408 H 136.007 -0.89311 2.85769 0
M  V30 1409 H 133.553 -0.428177 1.37487 0
M  V30 1410 H 135.506 -3.31637 2.59991 0
M  V30 1411 H 134.23 -2.94386 1.41438 0
M  V30 1412 H 132.889 -1.78297 3.20321 0
M  V30 1413 H 132.537 -4.21597 2.74344 0
M  V30 1414 H 132.237 -3.82978 4.45648 0
M  V30 1415 H 133.761 -4.63101 3.97957 0
M  V30 1416 H 135.175 -2.64693 5.08538 0
M  V30 1417 H 133.572 -2.07413 5.63116 0
M  V30 1418 H 134.642 -0.967677 4.75146 0
M  V30 1419 N 135.985 -1.50799 -0.457987 0
M  V30 1420 C 137.233 -1.62121 -1.2067 0
M  V30 1421 C 137.554 -0.329793 -1.92191 0
M  V30 1422 O 136.824 0.653409 -1.84682 0
M  V30 1423 H 135.404 -0.597441 -0.448411 0
M  V30 1424 H 138.066 -1.87637 -0.527096 0
M  V30 1425 H 137.162 -2.43882 -1.94751 0
M  V30 1426 N 137.463 0.71206 -1.40597 0
M  V30 1427 C 138.703 1.48438 -1.40519 0
M  V30 1428 C 139.067 1.91998 -0.00767611 0
M  V30 1429 O 140.268 2.6854 0.118239 0
M  V30 1430 C 138.539 2.67514 -2.37004 0
M  V30 1431 S 140.098 3.56875 -2.55315 0
M  V30 1432 H 136.916 0.507457 -0.498005 0
M  V30 1433 H 139.518 0.832355 -1.76896 0
M  V30 1434 H 138.222 2.33689 -3.37368 0
M  V30 1435 H 137.753 3.37625 -2.01923 0
M  V30 1436 H 139.768 4.62081 -1.8082 0
M  V30 1437 N 138.941 1.26152 0.944643 0
M  V30 1438 C 140.352 1.10454 1.50522 0
M  V30 1439 C 140.703 -0.31635 1.93633 0
M  V30 1440 O 139.828 -1.20746 1.79581 0
M  V30 1441 C 140.423 1.99891 2.73549 0
M  V30 1442 C 138.982 1.88348 3.25886 0
M  V30 1443 C 138.129 1.93447 1.9868 0
M  V30 1444 H 141.08 1.39292 0.760489 0
M  V30 1445 H 141.101 1.54477 3.47732 0
M  V30 1446 H 140.613 3.03297 2.42141 0
M  V30 1447 H 138.714 0.878636 3.62092 0
M  V30 1448 H 138.827 2.73696 3.93227 0
M  V30 1449 H 137.191 1.37456 2.14425 0
M  V30 1450 H 137.974 2.98476 1.69607 0
M  V30 1451 N 140.419 -1.14872 1.07899 0
M  V30 1452 C 141.647 -1.89661 0.82683 0
M  V30 1453 C 142.062 -1.78312 -0.620519 0
M  V30 1454 O 141.419 -1.13888 -1.42604 0
M  V30 1455 C 141.47 -3.39817 1.23316 0
M  V30 1456 O 141.191 -3.50845 2.62372 0
M  V30 1457 C 142.692 -4.31615 1.0111 0
M  V30 1458 H 139.912 -0.60092 0.298557 0
M  V30 1459 H 142.456 -1.4551 1.43691 0
M  V30 1460 H 140.611 -3.8161 0.667286 0
M  V30 1461 H 141.025 -4.44076 2.79101 0
M  V30 1462 H 142.499 -5.35367 1.34486 0
M  V30 1463 H 142.976 -4.39169 -0.0522168 0
M  V30 1464 H 143.582 -3.95572 1.56215 0
M  V30 1465 N 141.898 -0.863906 -1.31812 0
M  V30 1466 C 142.861 -0.320212 -2.26952 0
M  V30 1467 C 143.861 0.525369 -1.51975 0
M  V30 1468 O 145.051 0.335547 -1.70938 0
M  V30 1469 C 142.183 0.545919 -3.365 0
M  V30 1470 H 143.376 -1.16004 -2.76556 0
M  V30 1471 H 140.929 -0.638995 -1.42641 0
M  V30 1472 H 141.664 1.40718 -2.92179 0
M  V30 1473 H 141.449 -0.0594674 -3.92055 0
M  V30 1474 H 142.939 0.918796 -4.07367 0
M  V30 1475 N 143.376 1.44774 -0.622745 0
M  V30 1476 C 144.625 2.01334 -0.121397 0
M  V30 1477 C 144.938 1.49505 1.26125 0
M  V30 1478 O 146.144 1.98139 1.85616 0
M  V30 1479 C 144.6 3.59516 -0.166298 0
M  V30 1480 C 144.208 4.20342 -1.54974 0
M  V30 1481 C 145.952 4.23582 0.279021 0
M  V30 1482 C 143.859 5.70721 -1.55021 0
M  V30 1483 H 142.789 0.752851 -0.0416172 0
M  V30 1484 H 145.44 1.66083 -0.780309 0
M  V30 1485 H 143.822 3.92027 0.559557 0
M  V30 1486 H 144.996 3.99381 -2.29851 0
M  V30 1487 H 143.311 3.68529 -1.93843 0
M  V30 1488 H 145.908 5.33868 0.298083 0
M  V30 1489 H 146.251 3.95327 1.30471 0
M  V30 1490 H 146.784 3.95843 -0.394063 0
M  V30 1491 H 143.523 6.03698 -2.55399 0
M  V30 1492 H 143.043 5.93829 -0.844245 0
M  V30 1493 H 144.722 6.34203 -1.28047 0
M  V30 1494 N 144.854 0.36279 1.53368 0
M  V30 1495 C 145.801 -0.485008 2.25646 0
M  V30 1496 C 146.771 -1.07982 1.2621 0
M  V30 1497 O 147.956 -1.11284 1.54986 0
M  V30 1498 C 145.096 -1.62023 3.04701 0
M  V30 1499 C 144.209 -1.05086 4.19024 0
M  V30 1500 C 143.344 -2.15496 4.85525 0
M  V30 1501 C 142.383 -1.5601 5.91884 0
M  V30 1502 N 141.52 -2.60241 6.52088 0
M  V30 1503 H 146.36 0.137864 2.97681 0
M  V30 1504 H 143.897 0.0798061 1.46883 0
M  V30 1505 H 145.855 -2.28887 3.48807 0
M  V30 1506 H 144.485 -2.2138 2.34927 0
M  V30 1507 H 143.537 -0.27259 3.79422 0
M  V30 1508 H 144.849 -0.575926 4.95464 0
M  V30 1509 H 144.003 -2.90186 5.32801 0
M  V30 1510 H 142.742 -2.66341 4.08551 0
M  V30 1511 H 141.747 -0.798338 5.43973 0
M  V30 1512 H 142.972 -1.05994 6.70777 0
M  V30 1513 H 140.918 -3.10304 5.77968 0
M  V30 1514 H 140.835 -2.17426 7.24059 0
M  V30 1515 H 142.103 -3.34641 7.04014 0
M  V30 1516 N 146.332 -1.57332 0.0918853 0
M  V30 1517 C 147.295 -2.12708 -0.85369 0
M  V30 1518 C 148.295 -1.05561 -1.213 0
M  V30 1519 O 149.485 -1.31461 -1.14296 0
M  V30 1520 C 146.617 -2.64503 -2.15061 0
M  V30 1521 H 147.81 -2.97573 -0.3729 0
M  V30 1522 H 145.363 -1.55509 -0.157072 0
M  V30 1523 H 146.098 -1.83149 -2.67632 0
M  V30 1524 H 145.883 -3.4284 -1.90272 0
M  V30 1525 H 147.373 -3.07351 -2.82711 0
M  V30 1526 N 147.81 0.181792 -1.56548 0
M  V30 1527 C 149.221 0.745244 -1.71181 0
M  V30 1528 C 149.572 1.83262 -0.70068 0
M  V30 1529 O 148.697 2.15946 0.140154 0
M  V30 1530 C 149.292 1.35859 -3.10367 0
M  V30 1531 C 147.851 1.86898 -3.2672 0
M  V30 1532 C 146.998 0.743942 -2.67134 0
M  V30 1533 H 149.949 -0.0434661 -1.5864 0
M  V30 1534 H 149.97 2.22817 -3.08436 0
M  V30 1535 H 149.482 0.566948 -3.83937 0
M  V30 1536 H 147.583 2.68738 -2.5809 0
M  V30 1537 H 147.696 2.02162 -4.34359 0
M  V30 1538 H 146.06 1.16169 -2.26665 0
M  V30 1539 H 146.843 -0.035676 -3.43281 0
M  V30 1540 N 149.288 1.51039 0.449983 0
M  V30 1541 C 150.536 1.62759 1.19808 0
M  V30 1542 C 150.857 0.339981 1.92013 0
M  V30 1543 O 150.127 -0.643606 1.85026 0
M  V30 1544 H 148.707 0.599811 0.445237 0
M  V30 1545 H 151.369 1.87914 0.517138 0
M  V30 1546 H 150.465 2.44911 1.93455 0
M  V30 1547 N 150.766 -0.704594 1.40972 0
M  V30 1548 C 152.012 -1.46546 1.41053 0
M  V30 1549 C 152.367 -1.92393 0.0159714 0
M  V30 1550 O 151.66 -1.66017 -0.956506 0
M  V30 1551 C 151.854 -2.698 2.34399 0
M  V30 1552 C 151.683 -2.36008 3.82793 0
M  V30 1553 C 150.453 -2.26812 4.51536 0
M  V30 1554 C 152.651 -1.99565 4.74003 0
M  V30 1555 N 150.633 -1.8581 5.85105 0
M  V30 1556 C 152.004 -1.69251 5.96451 0
M  V30 1557 C 154.059 -1.86296 4.61734 0
M  V30 1558 C 152.762 -1.27003 7.07999 0
M  V30 1559 C 154.788 -1.45452 5.73234 0
M  V30 1560 C 154.15 -1.16043 6.94776 0
M  V30 1561 H 150.249 -0.533896 0.571383 0
M  V30 1562 H 152.833 -0.816061 1.76773 0
M  V30 1563 H 151.004 -3.32473 2.00789 0
M  V30 1564 H 152.736 -3.36214 2.25261 0
M  V30 1565 H 149.491 -2.44913 4.05357 0
M  V30 1566 H 149.915 -1.67817 6.55871 0
M  V30 1567 H 154.557 -2.0769 3.68273 0
M  V30 1568 H 152.275 -1.04353 8.01334 0
M  V30 1569 H 155.861 -1.35748 5.65742 0
M  V30 1570 H 154.741 -0.84915 7.79589 0
M  V30 1571 N 152.244 -1.26651 -0.937939 0
M  V30 1572 C 153.207 -1.08546 -2.01867 0
M  V30 1573 C 154.207 -0.0327327 -1.60767 0
M  V30 1574 O 155.397 -0.276427 -1.71993 0
M  V30 1575 C 152.529 -0.651711 -3.34613 0
M  V30 1576 H 153.722 -2.04502 -2.1936 0
M  V30 1577 H 151.275 -1.09294 -1.11734 0
M  V30 1578 H 152.01 0.309696 -3.22818 0
M  V30 1579 H 151.795 -1.41189 -3.65798 0
M  V30 1580 H 153.285 -0.546973 -4.14002 0
M  V30 1581 N 153.722 1.14298 -1.08507 0
M  V30 1582 C 154.67 2.21483 -0.710483 0
M  V30 1583 C 155.664 1.66998 0.284234 0
M  V30 1584 O 156.87 1.79401 0.146692 0
M  V30 1585 H 153.245 0.721578 -0.211729 0
M  V30 1586 H 155.216 2.50348 -1.62384 0
M  V30 1587 C 153.965 3.4743 -0.137007 0
M  V30 1588 H 153.288 3.89686 -0.893592 0
M  V30 1589 H 154.728 4.2391 0.0872789 0
M  V30 1590 C 153.187 3.17548 1.12538 0
M  V30 1591 O 153.717 3.35437 2.21009 0
M  V30 1592 N 151.923 2.71499 1.03617 0
M  V30 1593 H 151.47 2.57143 0.153403 0
M  V30 1594 H 151.428 2.51881 1.88158 0
M  V30 1595 N 155.201 0.870884 1.31352 0
M  V30 1596 C 156.426 0.495957 2.01383 0
M  V30 1597 C 156.851 -0.904324 1.64935 0
M  V30 1598 O 156.209 -1.59687 0.858466 0
M  V30 1599 C 156.257 0.661433 3.54482 0
M  V30 1600 O 155.361 -0.298851 4.11316 0
M  V30 1601 H 154.702 0.197158 0.634054 0
M  V30 1602 H 157.232 1.17455 1.67527 0
M  V30 1603 H 157.242 0.555072 4.04207 0
M  V30 1604 H 155.917 1.68246 3.8035 0
M  V30 1605 H 154.494 -0.147368 3.72609 0
M  V30 1606 N 156.679 -1.44442 0.630414 0
M  V30 1607 C 157.904 -2.06927 0.139944 0
M  V30 1608 C 158.329 -1.46795 -1.17613 0
M  V30 1609 O 157.687 -0.569144 -1.72135 0
M  V30 1610 C 157.735 -3.6058 0.0379581 0
M  V30 1611 O 156.839 -3.99937 -1.0062 0
M  V30 1612 H 156.18 -0.658608 0.0844483 0
M  V30 1613 H 158.71 -1.85327 0.866891 0
M  V30 1614 H 158.72 -4.07714 -0.152856 0
M  V30 1615 H 157.395 -4.03728 0.998809 0
M  V30 1616 H 155.972 -3.64436 -0.79001 0
M  V30 1617 N 158.157 -0.370918 -1.53173 0
M  V30 1618 C 159.12 0.460778 -2.24521 0
M  V30 1619 C 160.12 1.00536 -1.25496 0
M  V30 1620 O 161.31 0.890266 -1.49733 0
M  V30 1621 C 158.442 1.64457 -2.98608 0
M  V30 1622 H 159.635 -0.163613 -2.99453 0
M  V30 1623 H 157.188 -0.122699 -1.55818 0
M  V30 1624 H 157.923 2.30691 -2.2793 0
M  V30 1625 H 157.708 1.26099 -3.7127 0
M  V30 1626 H 159.198 2.23384 -3.5283 0
M  V30 1627 N 159.635 1.57281 -0.100228 0
M  V30 1628 C 160.883 1.94153 0.561157 0
M  V30 1629 C 161.204 0.983157 1.68401 0
M  V30 1630 O 160.474 0.0361132 1.95867 0
M  V30 1631 H 159.054 0.716791 0.210283 0
M  V30 1632 H 161.716 1.94202 -0.164765 0
M  V30 1633 H 160.812 2.96709 0.968008 0
M  V30 1634 N 161.113 -0.173488 1.56642 0
M  V30 1635 C 162.338 -0.910149 1.86363 0
M  V30 1636 C 162.763 -1.75132 0.686318 0
M  V30 1637 O 162.121 -1.77595 -0.364643 0
M  V30 1638 C 162.169 -1.76447 3.14482 0
M  V30 1639 O 161.273 -2.86584 2.96553 0
M  V30 1640 H 160.614 -0.255086 0.613047 0
M  V30 1641 H 163.144 -0.172283 2.03873 0
M  V30 1642 H 163.154 -2.16483 3.45831 0
M  V30 1643 H 161.829 -1.14658 3.99783 0
M  V30 1644 H 160.406 -2.50146 2.76553 0
M  V30 1645 N 162.591 -1.51276 -0.441967 0
M  V30 1646 C 163.839 -1.63392 -1.18943 0
M  V30 1647 C 164.16 -0.350159 -1.9183 0
M  V30 1648 O 163.43 0.633784 -1.85364 0
M  V30 1649 H 162.01 -0.602164 -0.442049 0
M  V30 1650 H 164.672 -1.88186 -0.507165 0
M  V30 1651 H 163.768 -2.45934 -1.92154 0
M  V30 1652 N 164.069 0.697108 -1.41344 0
M  V30 1653 C 165.485 1.00751 -1.2378 0
M  V30 1654 C 165.685 2.01105 -0.126066 0
M  V30 1655 O 164.741 2.47295 0.51004 0
M  V30 1656 C 166.054 1.53359 -2.58653 0
M  V30 1657 C 167.602 1.6525 -2.65822 0
M  V30 1658 C 168.077 2.2126 -4.01009 0
M  V30 1659 N 169.568 2.28622 -4.02847 0
M  V30 1660 C 170.303 2.72984 -5.04249 0
M  V30 1661 N 169.799 3.16962 -6.16041 0
M  V30 1662 N 171.592 2.72534 -4.91611 0
M  V30 1663 H 163.743 0.0322662 -2.12375 0
M  V30 1664 H 166.006 0.0768853 -0.944877 0
M  V30 1665 H 165.712 0.870773 -3.4075 0
M  V30 1666 H 165.586 2.51597 -2.81032 0
M  V30 1667 H 167.973 2.30644 -1.84086 0
M  V30 1668 H 168.054 0.655614 -2.47256 0
M  V30 1669 H 167.698 1.56482 -4.83193 0
M  V30 1670 H 167.628 3.21698 -4.16915 0
M  V30 1671 H 170.119 1.97585 -3.22131 0
M  V30 1672 H 170.432 3.49434 -6.89287 0
M  V30 1673 H 168.777 3.14875 -6.1958 0
M  V30 1674 H 171.968 2.37525 -4.0336 0
M  V30 1675 H 172.141 3.06789 -5.70775 0
M  V30 1676 N 165.547 1.27147 0.931209 0
M  V30 1677 C 166.796 1.12664 1.67302 0
M  V30 1678 C 167.109 -0.327718 1.92835 0
M  V30 1679 O 168.315 -0.593392 2.64936 0
M  V30 1680 C 166.771 1.9683 3.01307 0
M  V30 1681 C 166.379 3.46901 2.83485 0
M  V30 1682 C 168.123 1.90985 3.79111 0
M  V30 1683 C 166.03 4.23279 4.13024 0
M  V30 1684 H 164.96 0.41803 0.627509 0
M  V30 1685 H 167.611 1.51539 1.03481 0
M  V30 1686 H 165.993 1.50797 3.66164 0
M  V30 1687 H 167.167 4.00773 2.27415 0
M  V30 1688 H 165.482 3.54088 2.19113 0
M  V30 1689 H 168.079 2.45328 4.75098 0
M  V30 1690 H 168.422 0.882718 4.06834 0
M  V30 1691 H 168.955 2.34895 3.21044 0
M  V30 1692 H 165.694 5.26503 3.90481 0
M  V30 1693 H 165.214 3.74186 4.6877 0
M  V30 1694 H 166.893 4.32265 4.81411 0
M  V30 1695 N 167.025 -1.13721 1.09112 0
M  V30 1696 C 168.271 -1.85413 0.836283 0
M  V30 1697 C 168.626 -1.8175 -0.631249 0
M  V30 1698 O 167.919 -1.24238 -1.45861 0
M  V30 1699 C 168.113 -3.32861 1.30146 0
M  V30 1700 C 167.942 -3.50882 2.81268 0
M  V30 1701 C 166.712 -3.65312 3.49106 0
M  V30 1702 C 168.91 -3.47196 3.7942 0
M  V30 1703 N 166.892 -3.71563 4.88686 0
M  V30 1704 C 168.263 -3.59777 5.04936 0
M  V30 1705 C 170.318 -3.30577 3.72321 0
M  V30 1706 C 169.021 -3.57455 6.24194 0
M  V30 1707 C 171.047 -3.29562 4.91063 0
M  V30 1708 C 170.409 -3.42691 6.15421 0
M  V30 1709 H 166.508 -0.694812 0.358832 0
M  V30 1710 H 169.092 -1.36246 1.39087 0
M  V30 1711 H 167.263 -3.80602 0.774361 0
M  V30 1712 H 168.995 -3.92346 0.99229 0
M  V30 1713 H 165.75 -3.6685 2.9953 0
M  V30 1714 H 166.174 -3.78387 5.61384 0
M  V30 1715 H 170.816 -3.19332 2.77105 0
M  V30 1716 H 168.534 -3.67475 7.19714 0
M  V30 1717 H 172.12 -3.17905 4.87266 0
M  V30 1718 H 171 -3.41862 7.05762 0
M  V30 1719 N 168.503 -0.877838 -1.30888 0
M  V30 1720 C 169.436 -0.283995 -2.26426 0
M  V30 1721 C 170.414 0.591361 -1.51465 0
M  V30 1722 O 171.598 0.54304 -1.80509 0
M  V30 1723 C 168.725 0.597129 -3.33395 0
M  V30 1724 C 167.771 -0.207937 -4.25993 0
M  V30 1725 S 168.604 -1.59158 -5.11301 0
M  V30 1726 C 169.76 -0.716791 -6.21782 0
M  V30 1727 H 169.993 -1.09383 -2.76446 0
M  V30 1728 H 167.526 -0.676828 -1.38775 0
M  V30 1729 H 169.484 1.09978 -3.95493 0
M  V30 1730 H 168.145 1.38099 -2.82113 0
M  V30 1731 H 167.338 0.464163 -5.01858 0
M  V30 1732 H 166.94 -0.642963 -3.68432 0
M  V30 1733 H 169.232 0.0692833 -6.77465 0
M  V30 1734 H 170.175 -1.44682 -6.93161 0
M  V30 1735 H 170.583 -0.280855 -5.63801 0
M  V30 1736 N 169.982 1.44106 -0.638065 0
M  V30 1737 C 171.259 1.95453 -0.0759321 0
M  V30 1738 C 171.639 1.57984 1.40015 0
M  V30 1739 O 170.987 0.857361 2.11806 0
M  V30 1740 C 171.197 3.47655 -0.306132 0
M  V30 1741 C 172.545 4.24114 -0.203008 0
M  V30 1742 O 173.569 3.55405 -0.237871 0
M  V30 1743 O 172.428 5.46381 -0.113827 0
M  V30 1744 H 169.522 0.826797 0.0183332 0
M  V30 1745 H 172.068 1.54122 -0.710251 0
M  V30 1746 H 170.84 3.68 -1.3301 0
M  V30 1747 H 170.463 3.95949 0.361991 0
M  V30 1748 N 171.46 0.379036 1.52974 0
M  V30 1749 C 172.41 -0.477772 2.22938 0
M  V30 1750 C 173.394 -1.03792 1.22948 0
M  V30 1751 O 174.586 -0.965725 1.48333 0
M  V30 1752 C 171.715 -1.60994 3.03209 0
M  V30 1753 C 170.801 -1.06203 4.10587 0
M  V30 1754 N 171.192 -0.238214 5.05239 0
M  V30 1755 C 169.49 -1.33554 4.25534 0
M  V30 1756 C 170.191 0.0633235 5.81666 0
M  V30 1757 N 169.167 -0.537901 5.40932 0
M  V30 1758 H 172.969 0.158295 2.93473 0
M  V30 1759 H 170.483 0.187778 1.61311 0
M  V30 1760 H 172.48 -2.23607 3.5186 0
M  V30 1761 H 171.14 -2.24893 2.34207 0
M  V30 1762 H 172.151 0.123695 5.17752 0
M  V30 1763 H 168.828 -1.97632 3.6776 0
M  V30 1764 H 170.218 0.730161 6.67921 0
M  V30 1765 N 172.938 -1.57226 0.108567 0
M  V30 1766 C 174.184 -1.95121 -0.552761 0
M  V30 1767 C 174.517 -0.991345 -1.66991 0
M  V30 1768 O 173.792 -0.0267211 -1.94482 0
M  V30 1769 C 174.075 -3.43039 -1.09528 0
M  V30 1770 C 173.928 -4.49797 0.0177332 0
M  V30 1771 C 175.247 -3.92567 -1.98945 0
M  V30 1772 H 172.366 -0.709496 -0.199461 0
M  V30 1773 H 175.008 -1.89126 0.182011 0
M  V30 1774 H 173.158 -3.48279 -1.72146 0
M  V30 1775 H 174.83 -4.56661 0.652584 0
M  V30 1776 H 173.073 -4.284 0.682309 0
M  V30 1777 H 173.744 -5.50528 -0.402919 0
M  V30 1778 H 176.22 -3.89565 -1.46214 0
M  V30 1779 H 175.096 -4.96605 -2.33827 0
M  V30 1780 H 175.357 -3.32648 -2.91201 0
M  V30 1781 N 174.416 0.165178 -1.56732 0
M  V30 1782 C 175.641 0.900253 -1.86843 0
M  V30 1783 C 176.066 1.74766 -0.695596 0
M  V30 1784 O 175.424 1.77786 0.35522 0
M  V30 1785 C 175.472 1.74777 -3.15413 0
M  V30 1786 O 174.576 2.85007 -2.98068 0
M  V30 1787 H 173.917 0.251832 -0.614391 0
M  V30 1788 H 176.447 0.161468 -2.03962 0
M  V30 1789 H 176.457 2.14646 -3.46974 0
M  V30 1790 H 175.132 1.12537 -4.00385 0
M  V30 1791 H 173.709 2.48676 -2.77875 0
M  V30 1792 N 175.894 1.51508 0.433938 0
M  V30 1793 C 177.134 1.66006 1.19253 0
M  V30 1794 C 177.498 0.369868 1.88404 0
M  V30 1795 O 178.699 0.39066 2.65946 0
M  V30 1796 C 176.97 2.83229 2.17981 0
M  V30 1797 S 178.529 3.18075 3.02281 0
M  V30 1798 H 175.347 0.584821 0.404358 0
M  V30 1799 H 177.949 1.89425 0.48357 0
M  V30 1800 H 176.653 3.75407 1.65824 0
M  V30 1801 H 176.184 2.6201 2.93453 0
M  V30 1802 H 178.199 2.64772 4.19655 0
M  V30 1803 N 177.372 -0.689602 1.41712 0
M  V30 1804 C 178.788 -1.00093 1.24312 0
M  V30 1805 C 178.988 -2.01036 0.136729 0
M  V30 1806 O 178.044 -2.47562 -0.496918 0
M  V30 1807 C 179.357 -1.51985 2.59463 0
M  V30 1808 C 180.905 -1.63838 2.66695 0
M  V30 1809 C 181.38 -2.1913 4.02177 0
M  V30 1810 N 182.871 -2.26483 4.04054 0
M  V30 1811 C 183.606 -2.70306 5.0569 0
M  V30 1812 N 183.102 -3.13691 6.17713 0
M  V30 1813 N 184.895 -2.69923 4.9305 0
M  V30 1814 H 177.046 -0.0210029 2.1239 0
M  V30 1815 H 179.309 -0.0718733 0.945272 0
M  V30 1816 H 179.015 -0.85269 3.41207 0
M  V30 1817 H 178.889 -2.50103 2.82362 0
M  V30 1818 H 181.276 -2.29664 1.85306 0
M  V30 1819 H 181.357 -0.642492 2.476 0
M  V30 1820 H 181.001 -1.53918 4.84016 0
M  V30 1821 H 180.931 -3.19482 4.18615 0
M  V30 1822 H 183.422 -1.95874 3.23174 0
M  V30 1823 H 183.735 -3.45773 6.9113 0
M  V30 1824 H 182.08 -3.11585 6.21241 0
M  V30 1825 H 185.271 -2.35382 4.04614 0
M  V30 1826 H 185.444 -3.03758 5.72394 0
M  V30 1827 N 178.85 -1.27639 -0.924453 0
M  V30 1828 C 180.098 -1.13941 -1.66918 0
M  V30 1829 C 180.419 0.314589 -1.92446 0
M  V30 1830 O 179.689 1.21964 -1.53303 0
M  V30 1831 H 178.269 -0.418678 -0.618642 0
M  V30 1832 H 180.931 -1.60213 -1.10985 0
M  V30 1833 H 180.027 -1.67094 -2.63602 0
M  V30 1834 N 180.328 1.1314 -1.09713 0
M  V30 1835 C 181.276 2.20717 -0.733934 0
M  V30 1836 C 182.27 1.6729 0.266506 0
M  V30 1837 O 183.476 1.79547 0.127656 0
M  V30 1838 H 179.851 0.719292 -0.21937 0
M  V30 1839 H 181.822 2.48611 -1.6503 0
M  V30 1840 C 180.571 3.47265 -0.173849 0
M  V30 1841 H 179.894 3.88716 -0.934873 0
M  V30 1842 H 181.334 4.23979 0.0423126 0
M  V30 1843 C 179.793 3.18724 1.09164 0
M  V30 1844 O 180.323 3.37762 2.17439 0
M  V30 1845 N 178.529 2.72583 1.00732 0
M  V30 1846 H 178.076 2.57291 0.126121 0
M  V30 1847 H 178.034 2.53862 1.85476 0
M  V30 1848 N 181.806 0.884767 1.30421 0
M  V30 1849 C 182.716 0.355398 2.31892 0
M  V30 1850 C 183.732 -0.542261 1.65335 0
M  V30 1851 O 184.908 -0.435432 1.96637 0
M  V30 1852 C 181.973 -0.421661 3.44126 0
M  V30 1853 C 181.034 0.505727 4.26311 0
M  V30 1854 C 180.267 -0.234343 5.33185 0
M  V30 1855 O 180.49 -1.46045 5.51386 0
M  V30 1856 O 179.424 0.415443 6.00465 0
M  V30 1857 H 183.25 1.19685 2.79122 0
M  V30 1858 H 180.835 0.648596 1.34587 0
M  V30 1859 H 182.717 -0.861641 4.12497 0
M  V30 1860 H 181.392 -1.23942 2.99032 0
M  V30 1861 H 180.299 0.994513 3.60639 0
M  V30 1862 H 181.632 1.28948 4.75009 0
M  V30 1863 N 183.284 -1.43765 0.645699 0
M  V30 1864 C 184.509 -2.06767 0.161883 0
M  V30 1865 C 184.934 -1.48034 -1.16049 0
M  V30 1866 O 184.292 -0.587369 -1.71522 0
M  V30 1867 C 184.34 -3.60519 0.0762003 0
M  V30 1868 O 183.444 -4.00982 -0.963721 0
M  V30 1869 H 182.785 -0.657675 0.091429 0
M  V30 1870 H 185.315 -1.84397 0.886499 0
M  V30 1871 H 185.325 -4.07853 -0.109604 0
M  V30 1872 H 184 -4.02646 1.04157 0
M  V30 1873 H 182.577 -3.65253 -0.751312 0
M  V30 1874 N 184.763 -0.387143 -1.52771 0
M  V30 1875 C 185.726 0.436939 -2.24997 0
M  V30 1876 C 186.726 0.991991 -1.26555 0
M  V30 1877 O 187.916 0.874335 -1.50669 0
M  V30 1878 C 185.048 1.61281 -3.00335 0
M  V30 1879 H 186.241 -0.195365 -2.99263 0
M  V30 1880 H 183.794 -0.139218 -1.55679 0
M  V30 1881 H 184.529 2.2826 -2.30364 0
M  V30 1882 H 184.314 1.22154 -3.72587 0
M  V30 1883 H 185.804 2.19629 -3.5518 0
M  V30 1884 N 186.241 1.57166 -0.116904 0
M  V30 1885 C 187.171 2.18222 0.830759 0
M  V30 1886 C 188.152 1.12167 1.27877 0
M  V30 1887 O 189.337 1.40394 1.34176 0
M  V30 1888 C 186.467 2.77996 2.08172 0
M  V30 1889 C 185.421 3.89614 1.77157 0
M  V30 1890 C 184.747 4.36187 3.09265 0
M  V30 1891 C 186.047 5.1181 1.04151 0
M  V30 1892 H 187.741 2.97664 0.321992 0
M  V30 1893 H 185.287 1.4318 0.153434 0
M  V30 1894 H 187.24 3.19366 2.74924 0
M  V30 1895 H 185.964 1.9584 2.6137 0
M  V30 1896 H 184.623 3.48816 1.12796 0
M  V30 1897 H 184.271 3.50893 3.60393 0
M  V30 1898 H 183.971 5.11455 2.89288 0
M  V30 1899 H 185.495 4.80207 3.77139 0
M  V30 1900 H 186.909 5.50214 1.61052 0
M  V30 1901 H 185.306 5.92648 0.942762 0
M  V30 1902 H 186.376 4.84892 0.0279022 0
M  V30 1903 N 187.719 -0.156864 1.56817 0
M  V30 1904 C 188.965 -0.867645 1.83966 0
M  V30 1905 C 189.32 -1.79233 0.699511 0
M  V30 1906 O 188.613 -1.89186 -0.303176 0
M  V30 1907 C 188.807 -1.68737 3.1506 0
M  V30 1908 C 188.636 -0.843548 4.41718 0
M  V30 1909 C 187.406 -0.512994 5.02689 0
M  V30 1910 C 189.604 -0.178416 5.1399 0
M  V30 1911 N 187.586 0.345456 6.12927 0
M  V30 1912 C 188.957 0.540586 6.17639 0
M  V30 1913 C 191.012 -0.0980696 4.97803 0
M  V30 1914 C 189.715 1.33233 7.06853 0
M  V30 1915 C 191.741 0.680387 5.87473 0
M  V30 1916 C 191.103 1.3877 6.90596 0
M  V30 1917 H 187.202 -0.295642 0.723961 0
M  V30 1918 H 189.786 -0.13365 1.94241 0
M  V30 1919 H 187.957 -2.39268 3.0595 0
M  V30 1920 H 189.689 -2.34056 3.30151 0
M  V30 1921 H 186.444 -0.846476 4.65974 0
M  V30 1922 H 186.868 0.765415 6.72659 0
M  V30 1923 H 191.51 -0.630562 4.18071 0
M  V30 1924 H 189.228 1.87612 7.8602 0
M  V30 1925 H 192.814 0.744415 5.77018 0
M  V30 1926 H 191.694 1.9804 7.58782 0
M  V30 1927 N 189.197 -1.51736 -0.425897 0
M  V30 1928 C 190.474 -1.55519 -1.1863 0
M  V30 1929 C 190.854 -0.326219 -2.08564 0
M  V30 1930 O 190.202 0.688012 -2.17896 0
M  V30 1931 C 190.412 -2.87521 -1.9782 0
M  V30 1932 C 191.76 -3.39899 -2.54468 0
M  V30 1933 O 192.784 -2.89148 -2.08019 0
M  V30 1934 O 191.643 -4.2848 -3.39215 0
M  V30 1935 H 188.737 -0.625739 -0.540721 0
M  V30 1936 H 191.283 -1.64055 -0.434038 0
M  V30 1937 H 190.055 -3.68422 -1.31836 0
M  V30 1938 H 189.678 -2.822 -2.80088 0
M  V30 1939 N 190.675 0.682077 -1.42076 0
M  V30 1940 C 191.915 1.45424 -1.43636 0
M  V30 1941 C 192.279 1.91939 -0.0484001 0
M  V30 1942 O 193.48 2.6873 0.0612514 0
M  V30 1943 C 191.751 2.62427 -2.42625 0
M  V30 1944 S 193.31 3.51379 -2.62827 0
M  V30 1945 H 190.128 0.496779 -0.508657 0
M  V30 1946 H 192.73 0.794645 -1.78621 0
M  V30 1947 H 191.434 2.26481 -3.42249 0
M  V30 1948 H 190.965 3.33266 -2.09039 0
M  V30 1949 H 192.98 4.58141 -1.9058 0
M  V30 1950 N 192.153 1.28127 0.917671 0
M  V30 1951 C 193.1 1.11717 2.0196 0
M  V30 1952 C 194.07 0.0153929 1.66093 0
M  V30 1953 O 195.255 0.179596 1.89953 0
M  V30 1954 C 192.395 0.780927 3.36148 0
M  V30 1955 C 191.508 1.96135 3.84909 0
M  V30 1956 C 190.643 1.56609 5.0759 0
M  V30 1957 C 189.682 2.71339 5.48673 0
M  V30 1958 N 188.819 2.32332 6.62545 0
M  V30 1959 H 193.659 2.06003 2.15329 0
M  V30 1960 H 191.196 1.02535 1.05475 0
M  V30 1961 H 193.154 0.56675 4.13333 0
M  V30 1962 H 191.784 -0.124998 3.22558 0
M  V30 1963 H 190.836 2.28777 3.03916 0
M  V30 1964 H 192.148 2.82165 4.1132 0
M  V30 1965 H 191.302 1.31374 5.92305 0
M  V30 1966 H 190.041 0.677014 4.82978 0
M  V30 1967 H 189.046 2.97276 4.62501 0
M  V30 1968 H 190.271 3.60882 5.75274 0
M  V30 1969 H 188.217 1.45889 6.39572 0
M  V30 1970 H 188.134 3.11899 6.88662 0
M  V30 1971 H 189.402 2.10371 7.50576 0
M  V30 1972 N 193.631 -1.12557 1.10312 0
M  V30 1973 C 194.581 -2.16331 0.720076 0
M  V30 1974 C 195.565 -1.58616 -0.270115 0
M  V30 1975 O 196.757 -1.76823 -0.0790507 0
M  V30 1976 C 193.886 -3.42963 0.152113 0
M  V30 1977 C 192.972 -4.07663 1.16927 0
M  V30 1978 N 193.363 -4.47392 2.35953 0
M  V30 1979 C 191.661 -4.34425 1.0095 0
M  V30 1980 C 192.362 -4.97932 3.0073 0
M  V30 1981 N 191.338 -4.93358 2.28252 0
M  V30 1982 H 195.14 -2.44813 1.62616 0
M  V30 1983 H 192.654 -1.29449 0.980654 0
M  V30 1984 H 194.651 -4.16664 -0.14037 0
M  V30 1985 H 193.311 -3.1595 -0.748701 0
M  V30 1986 H 194.322 -4.39802 2.73486 0
M  V30 1987 H 190.999 -4.17177 0.164134 0
M  V30 1988 H 192.389 -5.38397 4.01969 0
M  V30 1989 N 195.109 -0.891671 -1.2995 0
M  V30 1990 C 196.386 -0.433307 -1.9074 0
M  V30 1991 C 196.766 1.08646 -1.80995 0
M  V30 1992 O 196.114 1.92476 -1.23147 0
M  V30 1993 C 196.324 -0.938895 -3.36134 0
M  V30 1994 C 197.672 -0.977829 -4.13187 0
M  V30 1995 O 198.696 -0.886015 -3.45005 0
M  V30 1996 O 197.555 -1.11453 -5.35015 0
M  V30 1997 H 194.649 -0.133699 -0.816121 0
M  V30 1998 H 197.195 -0.981011 -1.38471 0
M  V30 1999 H 195.967 -1.98281 -3.37343 0
M  V30 2000 H 195.59 -0.37074 -3.95868 0
M  V30 2001 N 196.587 1.43421 -0.653314 0
M  V30 2002 C 197.835 2.01414 -0.166415 0
M  V30 2003 C 198.156 1.51803 1.22397 0
M  V30 2004 O 197.426 0.730693 1.81763 0
M  V30 2005 H 196.006 0.744703 -0.0585319 0
M  V30 2006 H 198.668 1.75629 -0.845003 0
M  V30 2007 H 197.764 3.11734 -0.151111 0
M  V30 2008 N 198.065 0.39524 1.52563 0
M  V30 2009 C 199.311 -0.177763 2.02622 0
M  V30 2010 C 199.666 -1.43974 1.27629 0
M  V30 2011 O 198.959 -1.87995 0.36992 0
M  V30 2012 C 199.153 -0.493444 3.53977 0
M  V30 2013 C 198.982 0.736392 4.4363 0
M  V30 2014 C 197.752 1.25744 4.89404 0
M  V30 2015 C 199.95 1.61046 4.88435 0
M  V30 2016 N 197.932 2.44421 5.63145 0
M  V30 2017 C 199.303 2.64359 5.60816 0
M  V30 2018 C 201.358 1.62985 4.70468 0
M  V30 2019 C 200.061 3.69505 6.17137 0
M  V30 2020 C 202.087 2.67042 5.27677 0
M  V30 2021 C 201.449 3.69077 5.99968 0
M  V30 2022 H 197.548 -0.0269794 0.781534 0
M  V30 2023 H 200.132 0.546466 1.86874 0
M  V30 2024 H 198.303 -1.18672 3.69826 0
M  V30 2025 H 200.035 -1.05412 3.90731 0
M  V30 2026 H 196.79 0.817546 4.6649 0
M  V30 2027 H 197.214 3.04485 6.04663 0
M  V30 2028 H 201.856 0.854442 4.14076 0
M  V30 2029 H 199.574 4.4791 6.72608 0
M  V30 2030 H 203.16 2.69433 5.15652 0
M  V30 2031 H 202.04 4.48273 6.43444 0
M  V30 2032 N 199.544 -1.57102 0.125237 0
M  V30 2033 C 200.792 -1.95021 -0.530198 0
M  V30 2034 C 201.113 -1.00982 -1.66816 0
M  V30 2035 O 200.383 -0.0672693 -1.95784 0
M  V30 2036 H 198.963 -0.720046 -0.198853 0
M  V30 2037 H 201.625 -1.93916 0.19564 0
M  V30 2038 H 200.721 -2.98211 -0.920681 0
M  V30 2039 N 201.022 0.148545 -1.56898 0
M  V30 2040 C 201.969 1.18345 -1.98149 0
M  V30 2041 C 202.939 1.42772 -0.848848 0
M  V30 2042 O 204.124 1.55132 -1.11079 0
M  V30 2043 C 201.264 2.51231 -2.36594 0
M  V30 2044 C 200.377 2.33991 -3.63142 0
M  V30 2045 C 199.512 3.59902 -3.90697 0
M  V30 2046 C 198.551 3.37692 -5.1052 0
M  V30 2047 N 197.688 4.5573 -5.34092 0
M  V30 2048 H 202.528 0.82467 -2.86362 0
M  V30 2049 H 200.065 0.395756 -1.41676 0
M  V30 2050 H 202.023 3.28713 -2.56912 0
M  V30 2051 H 200.653 2.85059 -1.51463 0
M  V30 2052 H 199.705 1.47572 -3.50609 0
M  V30 2053 H 201.017 2.13539 -4.5078 0
M  V30 2054 H 200.171 4.45813 -4.11505 0
M  V30 2055 H 198.91 3.83357 -3.01477 0
M  V30 2056 H 197.915 2.5017 -4.89587 0
M  V30 2057 H 199.14 3.15637 -6.0129 0
M  V30 2058 H 197.086 4.79361 -4.47827 0
M  V30 2059 H 197.003 4.38274 -6.15996 0
M  V30 2060 H 198.271 5.42858 -5.59397 0
M  V30 2061 N 202.5 1.5196 0.417844 0
M  V30 2062 C 203.45 1.7106 1.5074 0
M  V30 2063 C 204.434 0.564487 1.50673 0
M  V30 2064 O 205.626 0.821206 1.56797 0
M  V30 2065 C 202.755 1.85677 2.88754 0
M  V30 2066 C 201.841 3.06133 2.93502 0
M  V30 2067 N 202.232 4.28987 2.67962 0
M  V30 2068 C 200.53 3.05787 3.24669 0
M  V30 2069 C 201.231 5.10395 2.79055 0
M  V30 2070 N 200.207 4.45455 3.11561 0
M  V30 2071 H 204.009 2.63696 1.29775 0
M  V30 2072 H 201.523 1.49873 0.625436 0
M  V30 2073 H 203.52 1.97475 3.67164 0
M  V30 2074 H 202.18 0.942348 3.10725 0
M  V30 2075 H 203.191 4.57607 2.4252 0
M  V30 2076 H 199.868 2.2405 3.52289 0
M  V30 2077 H 201.258 6.18247 2.63097 0
M  V30 2078 N 203.978 -0.674533 1.42435 0
M  V30 2079 C 205.203 -1.46784 1.46524 0
M  V30 2080 C 205.628 -1.87938 0.078066 0
M  V30 2081 O 204.986 -1.56014 -0.92354 0
M  V30 2082 C 205.034 -2.69307 2.39805 0
M  V30 2083 O 204.138 -3.67587 1.86959 0
M  V30 2084 H 203.479 -0.440959 0.496439 0
M  V30 2085 H 206.009 -0.827326 1.87127 0
M  V30 2086 H 206.019 -3.17374 2.56393 0
M  V30 2087 H 204.694 -2.38692 3.40586 0
M  V30 2088 H 203.271 -3.2662 1.79927 0
M  V30 2089 N 205.456 -1.28612 -0.910864 0
M  V30 2090 C 206.404 -1.1265 -2.03501 0
M  V30 2091 C 207.398 -0.0450054 -1.6934 0
M  V30 2092 O 208.604 -0.203988 -1.7884 0
M  V30 2093 H 204.979 -0.347639 -0.666822 0
M  V30 2094 H 206.95 -2.07849 -2.14106 0
M  V30 2095 C 205.699 -0.808143 -3.38178 0
M  V30 2096 H 205.022 -1.63231 -3.6496 0
M  V30 2097 H 206.462 -0.736426 -4.17556 0
M  V30 2098 C 204.921 0.488226 -3.33344 0
M  V30 2099 O 205.451 1.51766 -3.71927 0
M  V30 2100 N 203.657 0.490009 -2.86439 0
M  V30 2101 H 203.204 -0.348161 -2.55236 0
M  V30 2102 H 203.162 1.35741 -2.83587 0
M  V30 2103 N 206.934 1.1197 -1.10907 0
M  V30 2104 C 208.174 1.85224 -0.864378 0
M  V30 2105 C 208.538 1.82411 0.599178 0
M  V30 2106 O 209.739 2.51057 0.960416 0
M  V30 2107 C 208.01 3.2868 -1.40371 0
M  V30 2108 S 209.569 4.1925 -1.29518 0
M  V30 2109 H 206.387 0.63878 -0.312219 0
M  V30 2110 H 208.989 1.3485 -1.41548 0
M  V30 2111 H 207.693 3.28289 -2.46281 0
M  V30 2112 H 207.224 3.84121 -0.849402 0
M  V30 2113 H 209.239 4.95539 -0.256059 0
M  V30 2114 N 208.412 0.89855 1.29475 0
M  V30 2115 C 209.64 0.539261 1.99749 0
M  V30 2116 C 210.055 -0.875716 1.67262 0
M  V30 2117 O 209.412 -1.57786 0.917049 0
M  V30 2118 C 209.463 0.72061 3.54245 0
M  V30 2119 O 209.184 2.07989 3.8558 0
M  V30 2120 C 210.685 0.366118 4.41786 0
M  V30 2121 H 207.905 0.207047 0.638258 0
M  V30 2122 H 210.449 1.20758 1.65039 0
M  V30 2123 H 208.604 0.0994862 3.87272 0
M  V30 2124 H 209.018 2.10841 4.80257 0
M  V30 2125 H 210.492 0.543848 5.49314 0
M  V30 2126 H 210.969 -0.696763 4.33638 0
M  V30 2127 H 211.575 0.964135 4.14228 0
M  V30 2128 N 209.89 -1.43072 0.660911 0
M  V30 2129 C 210.84 -2.27948 -0.04847 0
M  V30 2130 C 211.824 -1.40325 -0.787246 0
M  V30 2131 O 213.016 -1.63893 -0.668446 0
M  V30 2132 C 210.145 -3.28143 -1.00881 0
M  V30 2133 C 209.231 -4.23252 -0.268108 0
M  V30 2134 N 209.622 -5.00656 0.719528 0
M  V30 2135 C 207.92 -4.43092 -0.508493 0
M  V30 2136 C 208.621 -5.70019 1.15988 0
M  V30 2137 N 207.597 -5.41364 0.492584 0
M  V30 2138 H 211.399 -2.85213 0.709279 0
M  V30 2139 H 208.913 -1.54869 0.488822 0
M  V30 2140 H 210.91 -3.87736 -1.53188 0
M  V30 2141 H 209.57 -2.7244 -1.76654 0
M  V30 2142 H 210.581 -5.06115 1.09855 0
M  V30 2143 H 207.258 -3.98449 -1.24679 0
M  V30 2144 H 208.648 -6.4214 1.97751 0
M  V30 2145 N 211.368 -0.403325 -1.52352 0
M  V30 2146 C 212.3 0.4603 -2.2453 0
M  V30 2147 C 213.313 1.01505 -1.27282 0
M  V30 2148 O 214.502 0.914982 -1.53266 0
M  V30 2149 C 211.602 1.65208 -2.95905 0
M  V30 2150 C 210.775 1.22224 -4.19976 0
M  V30 2151 C 209.834 2.28028 -4.74226 0
M  V30 2152 O 208.86 1.88857 -5.36956 0
M  V30 2153 N 210.062 3.6012 -4.55295 0
M  V30 2154 H 212.827 -0.158156 -2.99282 0
M  V30 2155 H 210.388 -0.230402 -1.60252 0
M  V30 2156 H 212.38 2.35541 -3.29093 0
M  V30 2157 H 210.95 2.17658 -2.24374 0
M  V30 2158 H 210.17 0.34725 -3.92668 0
M  V30 2159 H 211.458 0.911924 -5.00561 0
M  V30 2160 H 210.856 3.94698 -4.05253 0
M  V30 2161 H 209.413 4.26447 -4.92936 0
M  V30 2162 N 212.846 1.57033 -0.133567 0
M  V30 2163 C 213.778 2.13176 0.841944 0
M  V30 2164 C 214.791 1.07794 1.22001 0
M  V30 2165 O 215.98 1.35117 1.16643 0
M  V30 2166 C 213.08 2.62847 2.13926 0
M  V30 2167 C 212.253 3.92486 1.93064 0
M  V30 2168 C 211.312 4.27605 3.0666 0
M  V30 2169 O 210.338 4.96168 2.78937 0
M  V30 2170 N 211.54 3.861 4.33483 0
M  V30 2171 H 214.305 2.97503 0.362192 0
M  V30 2172 H 211.866 1.61821 0.05042 0
M  V30 2173 H 213.858 2.83363 2.88942 0
M  V30 2174 H 212.428 1.83319 2.53205 0
M  V30 2175 H 211.648 3.80732 1.02159 0
M  V30 2176 H 212.936 4.77225 1.76447 0
M  V30 2177 H 212.334 3.30828 4.58878 0
M  V30 2178 H 210.891 4.11694 5.05323 0
M  V30 2179 N 214.325 -0.140222 1.56975 0
M  V30 2180 C 215.602 -0.880769 1.74648 0
M  V30 2181 C 215.982 -1.99036 0.703404 0
M  V30 2182 O 215.33 -2.26821 -0.27648 0
M  V30 2183 C 215.54 -1.417 3.18939 0
M  V30 2184 C 216.888 -1.87774 3.80823 0
M  V30 2185 O 217.912 -1.51427 3.2241 0
M  V30 2186 O 216.771 -2.54827 4.83452 0
M  V30 2187 H 213.865 -0.416713 0.714338 0
M  V30 2188 H 216.411 -0.125618 1.69234 0
M  V30 2189 H 215.183 -0.619902 3.86359 0
M  V30 2190 H 214.806 -2.23546 3.28805 0
M  V30 2191 N 215.803 -1.52179 -0.40978 0
M  V30 2192 C 216.766 -1.74853 -1.48186 0
M  V30 2193 C 217.766 -0.618417 -1.48433 0
M  V30 2194 O 218.956 -0.886286 -1.49969 0
M  V30 2195 C 216.088 -1.8303 -2.87598 0
M  V30 2196 H 217.281 -2.70559 -1.29374 0
M  V30 2197 H 214.834 -1.42586 -0.640233 0
M  V30 2198 H 215.569 -0.89236 -3.11781 0
M  V30 2199 H 215.354 -2.65187 -2.88822 0
M  V30 2200 H 216.844 -2.02316 -3.65319 0
M  V30 2201 N 217.281 0.66697 -1.42791 0
M  V30 2202 C 218.529 1.42417 -1.43394 0
M  V30 2203 C 218.85 1.94925 -0.0542373 0
M  V30 2204 O 218.12 1.73564 0.908415 0
M  V30 2205 H 216.7 0.528515 -0.527902 0
M  V30 2206 H 219.362 0.787562 -1.78279 0
M  V30 2207 H 218.458 2.27333 -2.13837 0
M  V30 2208 N 218.759 1.29093 0.90403 0
M  V30 2209 C 220.005 1.16986 1.65656 0
M  V30 2210 C 220.338 -0.278925 1.92186 0
M  V30 2211 O 219.613 -1.2019 1.5292 0
M  V30 2212 C 219.896 1.97908 3.0084 0
M  V30 2213 C 219.749 3.50903 2.81403 0
M  V30 2214 C 221.068 1.80208 4.01513 0
M  V30 2215 H 218.187 0.426346 0.601164 0
M  V30 2216 H 220.829 1.58518 1.04747 0
M  V30 2217 H 218.979 1.62616 3.52829 0
M  V30 2218 H 220.651 3.96153 2.36348 0
M  V30 2219 H 218.894 3.76045 2.1627 0
M  V30 2220 H 219.565 4.02791 3.77443 0
M  V30 2221 H 222.041 2.11025 3.58619 0
M  V30 2222 H 220.917 2.39184 4.94047 0
M  V30 2223 H 221.178 0.756119 4.35586 0
M  V30 2224 N 220.237 -1.11381 1.11499 0
M  V30 2225 C 221.465 -1.86934 0.88675 0
M  V30 2226 C 221.88 -1.80195 -0.563476 0
M  V30 2227 O 221.237 -1.18367 -1.38908 0
M  V30 2228 C 221.288 -3.35722 1.34064 0
M  V30 2229 O 221.009 -3.4232 2.73401 0
M  V30 2230 C 222.51 -4.2818 1.14791 0
M  V30 2231 H 219.73 -0.591117 0.317523 0
M  V30 2232 H 222.274 -1.40865 1.48248 0
M  V30 2233 H 220.429 -3.79294 0.788355 0
M  V30 2234 H 220.843 -4.34971 2.93087 0
M  V30 2235 H 222.317 -5.30817 1.5145 0
M  V30 2236 H 222.794 -4.39113 0.0875279 0
M  V30 2237 H 223.4 -3.90402 1.68721 0
M  V30 2238 N 221.715 -0.905404 -1.28997 0
M  V30 2239 C 222.955 -0.541232 -1.97104 0
M  V30 2240 C 223.319 0.896841 -1.69767 0
M  V30 2241 O 224.52 1.36817 -2.31375 0
M  V30 2242 C 222.791 -0.832134 -3.47578 0
M  V30 2243 S 224.35 -0.573127 -4.35041 0
M  V30 2244 H 221.168 -0.200576 -0.682122 0
M  V30 2245 H 223.77 -1.16906 -1.56694 0
M  V30 2246 H 222.474 -1.87687 -3.64968 0
M  V30 2247 H 222.005 -0.192636 -3.92928 0
M  V30 2248 H 224.02 0.579297 -4.92807 0
M  V30 2249 N 223.193 1.4272 -0.668489 0
M  V30 2250 C 224.418 2.06484 -0.194758 0
M  V30 2251 C 224.843 1.49862 1.13679 0
M  V30 2252 O 224.201 0.614582 1.70565 0
M  V30 2253 C 224.249 3.60353 -0.133546 0
M  V30 2254 O 223.353 4.02464 0.899806 0
M  V30 2255 H 222.694 0.656137 -0.10188 0
M  V30 2256 H 225.224 1.82964 -0.915722 0
M  V30 2257 H 225.234 4.07976 0.0447041 0
M  V30 2258 H 223.909 4.00938 -1.1055 0
M  V30 2259 H 222.486 3.66402 0.693109 0
M  V30 2260 N 224.671 0.411399 1.52136 0
M  V30 2261 C 225.948 -0.222308 1.94333 0
M  V30 2262 C 226.328 -1.6242 1.34844 0
M  V30 2263 O 225.676 -2.22384 0.525145 0
M  V30 2264 C 225.886 -0.226345 3.48265 0
M  V30 2265 C 227.234 -0.444592 4.22266 0
M  V30 2266 O 228.258 -0.305602 3.54887 0
M  V30 2267 O 227.117 -0.718749 5.41753 0
M  V30 2268 H 224.211 -0.143907 0.814383 0
M  V30 2269 H 226.757 0.467506 1.63133 0
M  V30 2270 H 225.529 0.75475 3.83952 0
M  V30 2271 H 225.152 -0.960163 3.85832 0
M  V30 2272 N 226.149 -1.5696 0.141893 0
M  V30 2273 C 227.397 -1.95573 -0.509484 0
M  V30 2274 C 227.718 -1.02746 -1.65736 0
M  V30 2275 O 226.988 -0.0880311 -1.95702 0
M  V30 2276 H 225.568 -0.722115 -0.191205 0
M  V30 2277 H 228.23 -1.93697 0.216196 0
M  V30 2278 H 227.326 -2.99171 -0.889 0
M  V30 2279 N 227.627 0.131896 -1.57047 0
M  V30 2280 C 228.852 0.860418 -1.8871 0
M  V30 2281 C 229.277 1.73251 -0.73251 0
M  V30 2282 O 228.635 1.785 0.317429 0
M  V30 2283 C 228.683 1.68047 -3.19049 0
M  V30 2284 O 227.787 2.7862 -3.04047 0
M  V30 2285 H 227.128 0.238743 -0.619595 0
M  V30 2286 H 229.658 0.118169 -2.04258 0
M  V30 2287 H 229.668 2.07238 -3.51449 0
M  V30 2288 H 228.343 1.04018 -4.02682 0
M  V30 2289 H 226.92 2.42726 -2.83088 0
M  V30 2290 N 229.106 1.52395 0.401703 0
M  V30 2291 C 230.054 1.7689 1.51039 0
M  V30 2292 C 231.048 0.636298 1.56996 0
M  V30 2293 O 232.254 0.818507 1.60314 0
M  V30 2294 H 228.629 0.559502 0.502456 0
M  V30 2295 H 230.6 2.69757 1.27568 0
M  V30 2296 C 229.349 1.94331 2.88324 0
M  V30 2297 H 228.672 2.80905 2.84486 0
M  V30 2298 H 230.112 2.15466 3.65172 0
M  V30 2299 C 228.571 0.712396 3.29282 0
M  V30 2300 O 229.101 -0.116218 4.01532 0
M  V30 2301 N 227.307 0.546154 2.85422 0
M  V30 2302 H 226.854 1.22156 2.26794 0
M  V30 2303 H 226.812 -0.276113 3.13185 0
M  V30 2304 N 230.584 -0.659388 1.43143 0
M  V30 2305 C 231.514 -1.78422 1.50625 0
M  V30 2306 C 232.495 -1.66216 0.361443 0
M  V30 2307 O 233.68 -1.85404 0.577834 0
M  V30 2308 C 230.81 -3.16815 1.42287 0
M  V30 2309 C 229.764 -3.43777 2.54954 0
M  V30 2310 C 229.09 -4.81905 2.31671 0
M  V30 2311 C 230.39 -3.39134 3.97222 0
M  V30 2312 H 232.084 -1.72417 2.44771 0
M  V30 2313 H 229.63 -0.828084 1.17808 0
M  V30 2314 H 231.583 -3.95253 1.46127 0
M  V30 2315 H 230.307 -3.23534 0.446435 0
M  V30 2316 H 228.966 -2.67707 2.50457 0
M  V30 2317 H 228.614 -4.85294 1.32284 0
M  V30 2318 H 228.314 -5.00906 3.07192 0
M  V30 2319 H 229.838 -5.62609 2.37284 0
M  V30 2320 H 231.252 -4.07518 4.03239 0
M  V30 2321 H 229.649 -3.69671 4.72719 0
M  V30 2322 H 230.719 -2.37426 4.22797 0
M  V30 2323 N 232.062 -1.29571 -0.897171 0
M  V30 2324 C 232.972 -1.16808 -2.03453 0
M  V30 2325 C 233.988 -0.0907471 -1.73763 0
M  V30 2326 O 235.164 -0.303312 -1.99103 0
M  V30 2327 C 232.229 -0.848264 -3.36163 0
M  V30 2328 C 231.29 -2.0097 -3.79354 0
M  V30 2329 C 230.523 -1.70505 -5.05731 0
M  V30 2330 O 230.746 -0.62718 -5.66941 0
M  V30 2331 O 229.68 -2.5538 -5.45036 0
M  V30 2332 H 233.506 -2.12325 -2.17144 0
M  V30 2333 H 231.091 -1.09047 -1.02123 0
M  V30 2334 H 232.973 -0.684581 -4.15802 0
M  V30 2335 H 231.648 0.0771071 -3.23608 0
M  V30 2336 H 230.555 -2.22863 -3.00471 0
M  V30 2337 H 231.888 -2.91636 -3.96496 0
M  V30 2338 N 233.54 1.10788 -1.12088 0
M  V30 2339 C 234.473 2.16237 -0.729168 0
M  V30 2340 C 235.451 1.60207 0.277921 0
M  V30 2341 O 236.635 1.87707 0.172737 0
M  V30 2342 C 233.762 3.38609 -0.0786848 0
M  V30 2343 C 232.808 4.13322 -1.05201 0
M  V30 2344 S 233.641 4.69371 -2.57781 0
M  V30 2345 C 234.797 5.95058 -1.94053 0
M  V30 2346 H 235.03 2.4913 -1.62239 0
M  V30 2347 H 232.563 1.22519 -0.939603 0
M  V30 2348 H 234.521 4.09473 0.290254 0
M  V30 2349 H 233.182 3.03962 0.791593 0
M  V30 2350 H 232.375 5.01051 -0.544433 0
M  V30 2351 H 231.977 3.48251 -1.36371 0
M  V30 2352 H 234.269 6.65278 -1.28107 0
M  V30 2353 H 235.212 6.50472 -2.79807 0
M  V30 2354 H 235.62 5.46918 -1.39787 0
M  V30 2355 N 235.018 0.912232 1.28515 0
M  V30 2356 C 236.434 0.610159 1.47476 0
M  V30 2357 C 236.634 -0.844955 1.82928 0
M  V30 2358 O 235.69 -1.62416 1.93332 0
M  V30 2359 C 237.003 1.54675 2.57868 0
M  V30 2360 C 238.551 1.55331 2.71738 0
M  V30 2361 C 239.026 2.47649 3.85272 0
M  V30 2362 N 240.517 2.45767 3.92623 0
M  V30 2363 C 241.252 3.13896 4.79851 0
M  V30 2364 N 240.748 3.9135 5.71679 0
M  V30 2365 N 242.541 3.02991 4.73448 0
M  V30 2366 H 234.692 1.85318 1.03783 0
M  V30 2367 H 236.955 0.794777 0.516753 0
M  V30 2368 H 236.661 2.5841 2.38574 0
M  V30 2369 H 236.535 1.27671 3.54937 0
M  V30 2370 H 238.922 0.52335 2.90422 0
M  V30 2371 H 239.003 1.86378 1.75205 0
M  V30 2372 H 238.647 3.50745 3.67342 0
M  V30 2373 H 238.577 2.13904 4.81199 0
M  V30 2374 H 241.068 1.89503 3.26951 0
M  V30 2375 H 241.381 4.40359 6.35062 0
M  V30 2376 H 239.726 3.95455 5.71524 0
M  V30 2377 H 242.917 2.41987 4.007 0
M  V30 2378 H 243.09 3.5636 5.41213 0
M  V30 2379 N 236.496 -1.42363 0.676048 0
M  V30 2380 C 237.426 -2.33497 0.0124832 0
M  V30 2381 C 238.407 -1.50748 -0.787981 0
M  V30 2382 O 239.592 -1.79346 -0.744884 0
M  V30 2383 C 236.722 -3.34377 -0.938582 0
M  V30 2384 C 235.676 -4.27289 -0.246622 0
M  V30 2385 C 235.002 -5.18386 -1.31071 0
M  V30 2386 C 236.302 -5.14916 0.875125 0
M  V30 2387 H 237.996 -2.89233 0.773593 0
M  V30 2388 H 235.542 -1.39073 0.37346 0
M  V30 2389 H 237.495 -3.97044 -1.41188 0
M  V30 2390 H 236.219 -2.76947 -1.73113 0
M  V30 2391 H 234.878 -3.66018 0.206456 0
M  V30 2392 H 234.526 -4.57282 -2.09528 0
M  V30 2393 H 234.226 -5.81378 -0.852839 0
M  V30 2394 H 235.75 -5.83929 -1.78492 0
M  V30 2395 H 237.164 -5.71262 0.482983 0
M  V30 2396 H 235.561 -5.86747 1.25887 0
M  V30 2397 H 236.631 -4.53242 1.72335 0
M  V30 2398 N 237.974 -0.419461 -1.51915 0
M  V30 2399 C 239.202 0.152136 -2.0634 0
M  V30 2400 C 239.617 1.37988 -1.28859 0
M  V30 2401 O 238.974 1.79243 -0.343232 0
M  V30 2402 C 239.025 0.492266 -3.58133 0
M  V30 2403 O 238.746 -0.686736 -4.32684 0
M  V30 2404 C 240.247 1.11648 -4.2901 0
M  V30 2405 H 237.467 0.0158325 -0.670813 0
M  V30 2406 H 240.011 -0.593394 -1.95702 0
M  V30 2407 H 238.166 1.18769 -3.68745 0
M  V30 2408 H 238.58 -0.400341 -5.2297 0
M  V30 2409 H 240.054 1.3046 -5.36362 0
M  V30 2410 H 240.531 2.09251 -3.86148 0
M  V30 2411 H 241.137 0.460958 -4.22795 0
M  V30 2412 N 239.452 1.56882 -0.150215 0
M  V30 2413 C 240.868 1.58263 0.20617 0
M  V30 2414 C 241.068 1.16464 1.64434 0
M  V30 2415 O 240.124 0.866422 2.3717 0
M  V30 2416 C 241.437 3.00649 -0.0555025 0
M  V30 2417 C 242.985 3.12999 0.00795388 0
M  V30 2418 C 243.46 4.5744 -0.226429 0
M  V30 2419 N 244.951 4.62875 -0.173469 0
M  V30 2420 C 245.686 5.72454 -0.329288 0
M  V30 2421 N 245.182 6.90669 -0.543005 0
M  V30 2422 N 246.975 5.61467 -0.266666 0
M  V30 2423 H 239.126 1.82345 -1.08922 0
M  V30 2424 H 241.389 0.844149 -0.431413 0
M  V30 2425 H 241.095 3.3563 -1.05096 0
M  V30 2426 H 240.969 3.71337 0.66246 0
M  V30 2427 H 243.356 2.77857 0.993966 0
M  V30 2428 H 243.437 2.4479 -0.742388 0
M  V30 2429 H 243.081 4.93287 -1.20956 0
M  V30 2430 H 243.011 5.2378 0.544274 0
M  V30 2431 H 245.502 3.77898 -0.0130709 0
M  V30 2432 H 245.815 7.70045 -0.651922 0
M  V30 2433 H 244.16 6.92581 -0.579366 0
M  V30 2434 H 247.351 4.67992 -0.100441 0
M  V30 2435 H 247.524 6.46816 -0.391535 0
M  V30 2436 N 240.93 -0.123565 1.57115 0
M  V30 2437 C 242.178 -0.83051 1.84247 0
M  V30 2438 C 242.499 -1.80629 0.73471 0
M  V30 2439 O 241.769 -1.94403 -0.241688 0
M  V30 2440 H 240.349 -0.309694 0.679778 0
M  V30 2441 H 243.011 -0.111976 1.94578 0
M  V30 2442 H 242.107 -1.37852 2.80006 0
M  V30 2443 N 242.408 -1.52605 -0.393616 0
M  V30 2444 C 243.656 -1.67093 -1.13685 0
M  V30 2445 C 243.977 -0.411011 -1.90619 0
M  V30 2446 O 243.247 0.574491 -1.87287 0
M  V30 2447 H 241.827 -0.615923 -0.422668 0
M  V30 2448 H 244.489 -1.89704 -0.447039 0
M  V30 2449 H 243.585 -2.51922 -1.84232 0
M  V30 2450 N 243.887 0.651787 -1.4349 0
M  V30 2451 C 244.835 1.78586 -1.49029 0
M  V30 2452 C 245.829 1.65448 -0.363767 0
M  V30 2453 O 247.035 1.71777 -0.537821 0
M  V30 2454 H 243.41 0.589236 -0.467231 0
M  V30 2455 H 245.381 1.71035 -2.44519 0
M  V30 2456 C 244.13 3.16851 -1.43181 0
M  V30 2457 H 243.453 3.27598 -2.29171 0
M  V30 2458 H 244.893 3.96156 -1.51118 0
M  V30 2459 C 243.352 3.36568 -0.149616 0
M  V30 2460 O 243.882 3.93885 0.788509 0
M  V30 2461 N 242.088 2.90539 -0.0593484 0
M  V30 2462 H 241.635 2.4408 -0.823575 0
M  V30 2463 H 241.593 3.04108 0.797853 0
M  V30 2464 N 245.365 1.30045 0.890287 0
M  V30 2465 C 246.298 1.10301 1.99772 0
M  V30 2466 C 247.276 0.0121631 1.62595 0
M  V30 2467 O 248.46 0.16469 1.87779 0
M  V30 2468 C 245.587 0.681125 3.31781 0
M  V30 2469 C 244.633 1.77206 3.87944 0
M  V30 2470 S 245.466 3.37335 4.15891 0
M  V30 2471 C 246.622 2.97036 5.50927 0
M  V30 2472 H 246.855 2.04057 2.16213 0
M  V30 2473 H 244.388 1.14299 1.03804 0
M  V30 2474 H 246.346 0.444439 4.08087 0
M  V30 2475 H 245.007 -0.236981 3.13205 0
M  V30 2476 H 244.2 1.42903 4.83316 0
M  V30 2477 H 243.802 1.96275 3.18358 0
M  V30 2478 H 246.094 2.44666 6.31779 0
M  V30 2479 H 247.037 3.91296 5.90164 0
M  V30 2480 H 247.445 2.35057 5.13233 0
M  V30 2481 N 246.843 -1.10192 1.12674 0
M  V30 2482 C 248.083 -1.83825 0.893736 0
M  V30 2483 C 248.447 -1.83341 -0.570082 0
M  V30 2484 O 249.648 -2.52553 -0.920354 0
M  V30 2485 C 247.919 -3.26405 1.45582 0
M  V30 2486 S 249.478 -4.17136 1.36171 0
M  V30 2487 H 246.296 -0.633732 0.322342 0
M  V30 2488 H 248.898 -1.32581 1.43675 0
M  V30 2489 H 247.602 -3.24329 2.51473 0
M  V30 2490 H 247.133 -3.82721 0.910405 0
M  V30 2491 H 249.148 -4.95069 0.334863 0
M  V30 2492 N 248.321 -0.919034 -1.28029 0
M  V30 2493 C 249.546 -0.570357 -1.99403 0
M  V30 2494 C 249.971 0.842486 -1.68178 0
M  V30 2495 O 249.329 1.56391 -0.917141 0
M  V30 2496 C 249.377 -0.792541 -3.51783 0
M  V30 2497 O 248.481 0.145988 -4.12142 0
M  V30 2498 H 247.822 -0.220555 -0.6263 0
M  V30 2499 H 250.352 -1.23592 -1.63053 0
M  V30 2500 H 250.362 -0.704708 -4.01868 0
M  V30 2501 H 249.037 -1.82247 -3.73844 0
M  V30 2502 H 247.614 0.00897528 -3.72899 0
M  V30 2503 N 249.799 1.42003 -0.683588 0
M  V30 2504 C 251.047 2.01015 -0.209101 0
M  V30 2505 C 251.368 1.54365 1.19149 0
M  V30 2506 O 250.638 0.769083 1.80172 0
M  V30 2507 H 249.218 0.743294 -0.074315 0
M  V30 2508 H 251.88 1.73798 -0.882066 0
M  V30 2509 H 250.976 3.11343 -0.2172 0
M  V30 2510 N 251.277 0.427512 1.51691 0
M  V30 2511 C 252.693 0.0792977 1.59403 0
M  V30 2512 C 252.893 -1.41035 1.43914 0
M  V30 2513 O 251.949 -2.17922 1.27539 0
M  V30 2514 C 253.262 0.590636 2.94842 0
M  V30 2515 C 254.81 0.550215 3.08126 0
M  V30 2516 C 255.285 1.03836 4.46074 0
M  V30 2517 N 256.776 0.995943 4.52366 0
M  V30 2518 C 257.511 1.34463 5.57411 0
M  V30 2519 N 257.007 1.76569 6.69922 0
M  V30 2520 N 258.8 1.26343 5.47717 0
M  V30 2521 H 250.951 1.39687 1.60004 0
M  V30 2522 H 253.214 0.575003 0.753708 0
M  V30 2523 H 252.92 1.63251 3.11516 0
M  V30 2524 H 252.794 0.0102061 3.77199 0
M  V30 2525 H 255.181 -0.482654 2.91126 0
M  V30 2526 H 255.262 1.16693 2.27632 0
M  V30 2527 H 254.906 2.06965 4.63819 0
M  V30 2528 H 254.836 0.398286 5.25092 0
M  V30 2529 H 257.327 0.68661 3.7161 0
M  V30 2530 H 257.64 2.01438 7.46085 0
M  V30 2531 H 255.985 1.80488 6.71155 0
M  V30 2532 H 259.176 0.933209 4.58703 0
M  V30 2533 H 259.349 1.53846 6.29472 0
M  V30 2534 N 252.755 -1.56801 0.158532 0
M  V30 2535 C 254.004 -1.95665 -0.489702 0
M  V30 2536 C 254.317 -1.04654 -1.65248 0
M  V30 2537 O 255.523 -1.33146 -2.3661 0
M  V30 2538 C 253.979 -3.47874 -0.922582 0
M  V30 2539 C 253.587 -4.47489 0.213893 0
M  V30 2540 C 255.331 -3.95583 -1.53996 0
M  V30 2541 C 253.238 -5.90921 -0.237903 0
M  V30 2542 H 252.168 -0.730516 -0.186716 0
M  V30 2543 H 254.819 -1.81861 0.244722 0
M  V30 2544 H 253.201 -3.57051 -1.71261 0
M  V30 2545 H 254.375 -4.50017 0.991036 0
M  V30 2546 H 252.69 -4.09764 0.740407 0
M  V30 2547 H 255.287 -5.0019 -1.8898 0
M  V30 2548 H 255.63 -3.37789 -2.43319 0
M  V30 2549 H 256.163 -3.8937 -0.814611 0
M  V30 2550 H 252.902 -6.52559 0.620236 0
M  V30 2551 H 252.422 -5.91729 -0.980676 0
M  V30 2552 H 254.101 -6.43352 -0.686067 0
M  V30 2553 N 254.233 0.115231 -1.57178 0
M  V30 2554 C 255.143 1.15994 -2.03918 0
M  V30 2555 C 256.159 1.45103 -0.960268 0
M  V30 2556 O 257.335 1.56144 -1.27204 0
M  V30 2557 C 254.4 2.46568 -2.43732 0
M  V30 2558 C 253.461 2.24822 -3.65723 0
M  V30 2559 C 252.694 3.4917 -4.03629 0
M  V30 2560 O 252.917 4.56623 -3.41835 0
M  V30 2561 O 251.851 3.39949 -4.96708 0
M  V30 2562 H 255.677 0.793019 -2.93164 0
M  V30 2563 H 253.262 0.3263 -1.45793 0
M  V30 2564 H 255.144 3.23492 -2.70057 0
M  V30 2565 H 253.819 2.82726 -1.57631 0
M  V30 2566 H 252.726 1.45744 -3.44542 0
M  V30 2567 H 254.059 1.93566 -4.52541 0
M  V30 2568 N 255.711 1.52812 0.385517 0
M  V30 2569 C 256.96 1.67249 1.12741 0
M  V30 2570 C 257.273 0.4205 1.91027 0
M  V30 2571 O 258.479 0.445064 2.67827 0
M  V30 2572 C 256.935 2.95583 2.05326 0
M  V30 2573 C 256.543 4.27974 1.32447 0
M  V30 2574 C 258.287 3.19386 2.7963 0
M  V30 2575 C 256.194 5.47412 2.23818 0
M  V30 2576 H 255.124 0.6231 0.424573 0
M  V30 2577 H 257.775 1.79309 0.389924 0
M  V30 2578 H 256.157 2.77277 2.82725 0
M  V30 2579 H 257.331 4.56844 0.602495 0
M  V30 2580 H 255.646 4.10459 0.700885 0
M  V30 2581 H 258.243 4.05801 3.48181 0
M  V30 2582 H 258.586 2.34604 3.43899 0
M  V30 2583 H 259.119 3.38274 2.09322 0
M  V30 2584 H 255.858 6.34612 1.64157 0
M  V30 2585 H 255.378 5.22849 2.93921 0
M  V30 2586 H 257.057 5.81423 2.83824 0
M  V30 2587 N 257.189 -0.644168 1.43834 0
M  V30 2588 C 258.136 -1.75671 1.49694 0
M  V30 2589 C 259.106 -1.6246 0.345809 0
M  V30 2590 O 260.291 -1.82573 0.554234 0
M  V30 2591 C 257.431 -3.13867 1.43463 0
M  V30 2592 C 256.544 -3.38147 2.6885 0
M  V30 2593 C 255.679 -4.66241 2.54544 0
M  V30 2594 C 254.718 -4.83657 3.75157 0
M  V30 2595 N 253.855 -6.03016 3.59605 0
M  V30 2596 H 258.695 -1.69998 2.44754 0
M  V30 2597 H 256.232 -0.829458 1.21484 0
M  V30 2598 H 258.19 -3.9377 1.37843 0
M  V30 2599 H 256.82 -3.18588 0.519783 0
M  V30 2600 H 255.872 -2.52276 2.84712 0
M  V30 2601 H 257.184 -3.46899 3.58417 0
M  V30 2602 H 256.338 -5.54285 2.46683 0
M  V30 2603 H 255.077 -4.59826 1.62516 0
M  V30 2604 H 254.082 -3.94046 3.83416 0
M  V30 2605 H 255.307 -4.91896 4.68204 0
M  V30 2606 H 253.253 -5.97715 2.7032 0
M  V30 2607 H 253.17 -6.12766 4.42779 0
M  V30 2608 H 254.438 -6.93657 3.55613 0
M  V30 2609 N 258.668 -1.30515 -0.883378 0
M  V30 2610 C 259.915 -1.1943 -1.63532 0
M  V30 2611 C 260.243 0.250627 -1.92878 0
M  V30 2612 O 259.498 1.19556 -1.54935 0
M  V30 2613 C 259.797 -1.96994 -2.98209 0
M  V30 2614 C 259.463 -3.466 -2.88408 0
M  V30 2615 C 258.125 -3.87397 -2.85442 0
M  V30 2616 C 260.477 -4.41863 -2.76418 0
M  V30 2617 C 257.805 -5.21745 -2.68327 0
M  V30 2618 C 260.157 -5.7632 -2.60841 0
M  V30 2619 C 258.821 -6.16354 -2.56251 0
M  V30 2620 H 258.091 -0.437025 -0.598406 0
M  V30 2621 H 260.738 -1.61635 -1.02696 0
M  V30 2622 H 259.043 -1.47429 -3.63004 0
M  V30 2623 H 260.74 -1.85808 -3.55354 0
M  V30 2624 H 257.33 -3.14182 -2.91527 0
M  V30 2625 H 261.514 -4.11285 -2.77775 0
M  V30 2626 H 256.77 -5.51853 -2.63189 0
M  V30 2627 H 260.944 -6.49772 -2.50538 0
M  V30 2628 H 258.571 -7.20401 -2.42748 0
M  V30 2629 N 260.146 1.09593 -1.13257 0
M  V30 2630 C 261.078 2.16015 -0.766167 0
M  V30 2631 C 262.091 1.61423 0.211303 0
M  V30 2632 O 263.28 1.78498 -0.00863946 0
M  V30 2633 C 260.38 3.38706 -0.114662 0
M  V30 2634 C 259.553 4.22717 -1.12379 0
M  V30 2635 C 258.612 5.23835 -0.498301 0
M  V30 2636 O 257.638 5.573 -1.15781 0
M  V30 2637 N 258.84 5.75886 0.730417 0
M  V30 2638 H 261.605 2.48055 -1.68193 0
M  V30 2639 H 259.166 1.25292 -1.02535 0
M  V30 2640 H 261.158 4.03464 0.315991 0
M  V30 2641 H 259.728 3.04569 0.704011 0
M  V30 2642 H 258.948 3.54122 -1.73179 0
M  V30 2643 H 260.236 4.75673 -1.80589 0
M  V30 2644 H 259.634 5.50911 1.28504 0
M  V30 2645 H 258.191 6.42387 1.10376 0
M  V30 2646 N 261.624 0.925811 1.2754 0
M  V30 2647 C 262.872 0.564138 1.94067 0
M  V30 2648 C 263.193 -0.897188 1.73134 0
M  V30 2649 O 262.463 -1.63573 1.07799 0
M  V30 2650 H 261.043 0.205645 0.718136 0
M  V30 2651 H 263.705 1.1778 1.55287 0
M  V30 2652 H 262.801 0.76881 3.02483 0
M  V30 2653 N 263.102 -1.41638 0.69111 0
M  V30 2654 C 264.518 -1.55435 0.362224 0
M  V30 2655 C 264.718 -1.66754 -1.13117 0
M  V30 2656 O 263.774 -1.64348 -1.91692 0
M  V30 2657 C 265.087 -2.79588 1.10684 0
M  V30 2658 C 266.635 -2.9338 1.09075 0
M  V30 2659 C 267.11 -4.20414 1.81703 0
M  V30 2660 N 268.601 -4.27362 1.7865 0
M  V30 2661 C 269.336 -5.24507 2.31689 0
M  V30 2662 N 268.832 -6.27708 2.93179 0
M  V30 2663 N 270.625 -5.16416 2.2197 0
M  V30 2664 H 262.776 -1.32536 1.65976 0
M  V30 2665 H 265.039 -0.639115 0.700168 0
M  V30 2666 H 264.745 -2.77419 2.16175 0
M  V30 2667 H 264.619 -3.70973 0.682545 0
M  V30 2668 H 267.006 -2.95067 0.0441238 0
M  V30 2669 H 267.087 -2.0318 1.55407 0
M  V30 2670 H 266.731 -4.19488 2.86343 0
M  V30 2671 H 266.661 -5.09578 1.32808 0
M  V30 2672 H 269.152 -3.53415 1.33815 0
M  V30 2673 H 269.465 -6.98217 3.31229 0
M  V30 2674 H 267.81 -6.28223 2.97255 0
M  V30 2675 H 271.001 -4.34716 1.73607 0
M  V30 2676 H 271.174 -5.91958 2.63609 0
M  V30 2677 N 264.58 -0.43555 -1.51462 0
M  V30 2678 C 265.826 0.123979 -2.03022 0
M  V30 2679 C 266.181 1.4054 -1.31401 0
M  V30 2680 O 265.474 1.86948 -0.419634 0
M  V30 2681 C 265.668 0.39942 -3.55161 0
M  V30 2682 C 265.497 -0.853754 -4.41521 0
M  V30 2683 C 264.267 -1.38675 -4.85898 0
M  V30 2684 C 266.465 -1.73939 -4.83994 0
M  V30 2685 N 264.447 -2.59265 -5.56466 0
M  V30 2686 C 265.818 -2.79135 -5.5361 0
M  V30 2687 C 267.873 -1.75402 -4.65981 0
M  V30 2688 C 266.576 -3.85737 -6.07124 0
M  V30 2689 C 268.602 -2.80938 -5.20411 0
M  V30 2690 C 267.964 -3.84854 -5.89972 0
M  V30 2691 H 264.063 0.00624887 -0.781975 0
M  V30 2692 H 266.647 -0.59582 -1.85359 0
M  V30 2693 H 264.818 1.08825 -3.72843 0
M  V30 2694 H 266.55 0.95015 -3.93388 0
M  V30 2695 H 263.305 -0.94094 -4.64159 0
M  V30 2696 H 263.729 -3.2041 -5.96378 0
M  V30 2697 H 268.371 -0.963926 -4.11665 0
M  V30 2698 H 266.089 -4.65586 -6.60496 0
M  V30 2699 H 269.675 -2.8301 -5.08327 0
M  V30 2700 H 268.555 -4.65176 -6.31333 0
M  V30 2701 N 266.058 1.56714 -0.166846 0
M  V30 2702 C 267.306 1.96358 0.478305 0
M  V30 2703 C 267.627 1.0537 1.6408 0
M  V30 2704 O 266.897 0.119154 1.95537 0
M  V30 2705 H 265.477 0.725065 0.179692 0
M  V30 2706 H 268.139 1.93329 -0.246985 0
M  V30 2707 H 267.235 3.00547 0.841292 0
M  V30 2708 N 267.536 -0.106894 1.57237 0
M  V30 2709 C 268.764 -0.826389 1.8968 0
M  V30 2710 C 269.179 -1.72856 0.759353 0
M  V30 2711 O 268.536 -1.80503 -0.269263 0
M  V30 2712 C 268.587 -1.64967 3.21665 0
M  V30 2713 O 268.308 -0.783804 4.31031 0
M  V30 2714 C 269.809 -2.47326 3.67892 0
M  V30 2715 H 267.029 -0.236927 0.627779 0
M  V30 2716 H 269.573 -0.0876593 2.04312 0
M  V30 2717 H 267.728 -2.34103 3.08666 0
M  V30 2718 H 268.142 -1.35284 5.06753 0
M  V30 2719 H 269.616 -3.00604 4.6297 0
M  V30 2720 H 270.093 -3.25247 2.95146 0
M  V30 2721 H 270.699 -1.83411 3.83719 0
M  V30 2722 N 269.014 -1.53014 -0.377408 0
M  V30 2723 C 270.26 -1.68872 -1.12294 0
M  V30 2724 C 270.593 -0.433224 -1.89306 0
M  V30 2725 O 269.868 0.569258 -1.85983 0
M  V30 2726 C 270.151 -2.93115 -2.09179 0
M  V30 2727 C 270.004 -4.28794 -1.35853 0
M  V30 2728 C 271.323 -3.12928 -3.09458 0
M  V30 2729 H 268.442 -0.614518 -0.406862 0
M  V30 2730 H 271.084 -1.85633 -0.40503 0
M  V30 2731 H 269.234 -2.78956 -2.70399 0
M  V30 2732 H 270.906 -4.54742 -0.775082 0
M  V30 2733 H 269.149 -4.28744 -0.660364 0
M  V30 2734 H 269.82 -5.11837 -2.06706 0
M  V30 2735 H 272.296 -3.26194 -2.58334 0
M  V30 2736 H 271.172 -4.01316 -3.74482 0
M  V30 2737 H 271.433 -2.27669 -3.78971 0
M  V30 2738 N 270.492 0.636531 -1.44174 0
M  V30 2739 C 271.732 1.40781 -1.48189 0
M  V30 2740 C 272.096 1.91688 -0.10944 0
M  V30 2741 O 273.297 2.68789 -0.0242741 0
M  V30 2742 C 271.568 2.54575 -2.50851 0
M  V30 2743 S 273.127 3.4284 -2.73873 0
M  V30 2744 H 269.945 0.480345 -0.524204 0
M  V30 2745 H 272.547 0.737416 -1.81059 0
M  V30 2746 H 271.251 2.15478 -3.49281 0
M  V30 2747 H 270.782 3.26447 -2.19536 0
M  V30 2748 H 272.797 4.51846 -2.05059 0
M  V30 2749 N 271.97 1.30982 0.876444 0
M  V30 2750 C 273.247 1.10942 1.61094 0
M  V30 2751 C 273.627 -0.338223 2.08373 0
M  V30 2752 O 272.975 -1.33122 1.85717 0
M  V30 2753 C 273.185 2.11789 2.77392 0
M  V30 2754 C 274.533 2.43965 3.47514 0
M  V30 2755 O 275.557 2.10166 2.87591 0
M  V30 2756 O 274.416 3.01817 4.55597 0
M  V30 2757 H 271.51 0.42667 0.708436 0
M  V30 2758 H 274.056 1.42438 0.922474 0
M  V30 2759 H 272.828 3.09194 2.39823 0
M  V30 2760 H 272.451 1.81161 3.5393 0
M  V30 2761 N 273.449 -1.08991 1.13837 0
M  V30 2762 C 274.726 -1.77863 0.813876 0
M  V30 2763 C 275.106 -1.99375 -0.693746 0
M  V30 2764 O 274.454 -1.59875 -1.63255 0
M  V30 2765 C 274.664 -3.0986 1.60586 0
M  V30 2766 C 276.012 -3.84493 1.8014 0
M  V30 2767 O 277.036 -3.19624 1.57222 0
M  V30 2768 O 275.895 -5.00957 2.18413 0
M  V30 2769 H 272.989 -0.771589 0.297624 0
M  V30 2770 H 275.535 -1.15507 1.24323 0
M  V30 2771 H 274.307 -2.89715 2.63022 0
M  V30 2772 H 273.93 -3.79942 1.17173 0
M  V30 2773 N 274.927 -0.932562 -1.27047 0
M  V30 2774 C 275.875 -0.42603 -2.28665 0
M  V30 2775 C 276.869 0.49219 -1.62092 0
M  V30 2776 O 278.075 0.371355 -1.76128 0
M  V30 2777 H 274.45 -0.119213 -0.742491 0
M  V30 2778 H 276.421 -1.29579 -2.68797 0
M  V30 2779 C 275.17 0.301426 -3.46391 0
M  V30 2780 H 274.493 -0.39595 -3.97834 0
M  V30 2781 H 275.933 0.6202 -4.1944 0
M  V30 2782 C 274.392 1.51616 -3.00856 0
M  V30 2783 O 274.922 2.61476 -3.04948 0
M  V30 2784 N 273.128 1.36969 -2.56296 0
M  V30 2785 H 272.675 0.475873 -2.53166 0
M  V30 2786 H 272.633 2.18368 -2.26192 0
M  V30 2787 N 276.405 1.4127 -0.698611 0
M  V30 2788 C 277.652 2.0118 -0.230865 0
M  V30 2789 C 277.98 1.55338 1.17049 0
M  V30 2790 O 277.235 0.756775 1.80475 0
M  V30 2791 C 277.534 3.56592 -0.240192 0
M  V30 2792 C 277.2 4.21955 -1.58948 0
M  V30 2793 C 275.862 4.39524 -1.95887 0
M  V30 2794 C 278.214 4.58576 -2.47704 0
M  V30 2795 C 275.542 4.90992 -3.2116 0
M  V30 2796 C 277.894 5.11435 -3.72313 0
M  V30 2797 C 276.558 5.27215 -4.0939 0
M  V30 2798 H 275.828 0.736169 -0.0844796 0
M  V30 2799 H 278.475 1.69124 -0.8983 0
M  V30 2800 H 276.78 3.88456 0.510797 0
M  V30 2801 H 278.477 4.00758 0.139296 0
M  V30 2802 H 275.067 4.08657 -1.29219 0
M  V30 2803 H 279.251 4.44654 -2.20445 0
M  V30 2804 H 274.507 5.01393 -3.49878 0
M  V30 2805 H 278.681 5.38752 -4.4127 0
M  V30 2806 H 276.308 5.66859 -5.06533 0
M  V30 2807 N 277.883 0.443576 1.51229 0
M  V30 2808 C 278.831 -0.37904 2.29491 0
M  V30 2809 C 279.825 -1.0153 1.35603 0
M  V30 2810 O 281.031 -0.94955 1.52917 0
M  V30 2811 H 277.406 -0.141053 0.738653 0
M  V30 2812 H 279.377 0.301799 2.9687 0
M  V30 2813 C 278.126 -1.46426 3.15364 0
M  V30 2814 H 277.449 -0.984037 3.87501 0
M  V30 2815 H 278.889 -2.01297 3.7317 0
M  V30 2816 C 277.348 -2.45099 2.31146 0
M  V30 2817 O 277.878 -3.49773 1.9754 0
M  V30 2818 N 276.084 -2.16139 1.94249 0
M  V30 2819 H 275.631 -1.31044 2.21777 0
M  V30 2820 H 275.589 -2.82398 1.38198 0
M  V30 2821 N 279.361 -1.56624 0.175154 0
M  V30 2822 C 280.61 -1.96173 -0.468921 0
M  V30 2823 C 280.923 -1.06401 -1.64128 0
M  V30 2824 O 282.129 -1.35648 -2.35185 0
M  V30 2825 C 280.585 -3.48833 -0.885633 0
M  V30 2826 C 280.193 -4.47237 0.261343 0
M  V30 2827 C 281.937 -3.97194 -1.49791 0
M  V30 2828 C 279.844 -5.9114 -0.175214 0
M  V30 2829 H 278.774 -0.732455 -0.178958 0
M  V30 2830 H 281.425 -1.81591 0.263997 0
M  V30 2831 H 279.807 -3.58848 -1.67464 0
M  V30 2832 H 280.981 -4.4894 1.03871 0
M  V30 2833 H 279.296 -4.08956 0.783827 0
M  V30 2834 H 281.893 -5.02167 -1.83665 0
M  V30 2835 H 282.236 -3.40351 -2.39722 0
M  V30 2836 H 282.769 -3.90212 -0.773267 0
M  V30 2837 H 279.508 -6.51865 0.689414 0
M  V30 2838 H 279.028 -5.92735 -0.91786 0
M  V30 2839 H 280.707 -6.44044 -0.617792 0
M  V30 2840 N 280.839 0.0985539 -1.57292 0
M  V30 2841 C 282.116 0.834155 -1.76921 0
M  V30 2842 C 282.496 1.97101 -0.755928 0
M  V30 2843 O 281.844 2.27474 0.216245 0
M  V30 2844 C 282.054 1.33194 -3.22584 0
M  V30 2845 C 283.402 1.77611 -3.85668 0
M  V30 2846 O 284.426 1.42825 -3.26312 0
M  V30 2847 O 283.285 2.4192 -4.90038 0
M  V30 2848 H 280.379 0.397628 -0.725135 0
M  V30 2849 H 282.925 0.0807044 -1.69508 0
M  V30 2850 H 281.697 0.517248 -3.87866 0
M  V30 2851 H 281.32 2.1475 -3.34616 0
M  V30 2852 N 282.317 1.53212 0.369288 0
M  V30 2853 C 283.267 1.75769 1.45222 0
M  V30 2854 C 284.251 0.612136 1.48801 0
M  V30 2855 O 285.443 0.870674 1.54105 0
M  V30 2856 C 282.572 1.94769 2.82701 0
M  V30 2857 C 281.658 3.15315 2.83615 0
M  V30 2858 N 282.049 4.37295 2.54178 0
M  V30 2859 C 280.347 3.15962 3.14776 0
M  V30 2860 C 281.048 5.19015 2.62675 0
M  V30 2861 N 280.024 4.55142 2.97232 0
M  V30 2862 H 283.826 2.67691 1.2132 0
M  V30 2863 H 281.34 1.51787 0.577438 0
M  V30 2864 H 283.337 2.09056 3.60696 0
M  V30 2865 H 281.997 1.04073 3.07569 0
M  V30 2866 H 283.008 4.65091 2.27839 0
M  V30 2867 H 279.685 2.35144 3.44983 0
M  V30 2868 H 281.075 6.26305 2.43294 0
M  V30 2869 N 283.795 -0.628877 1.44509 0
M  V30 2870 C 284.758 -1.72263 1.51188 0
M  V30 2871 C 285.758 -1.55907 0.39367 0
M  V30 2872 O 286.948 -1.61361 0.656377 0
M  V30 2873 C 284.08 -3.11365 1.38798 0
M  V30 2874 H 285.273 -1.67714 2.4862 0
M  V30 2875 H 282.826 -0.842737 1.31634 0
M  V30 2876 H 283.561 -3.21507 0.424693 0
M  V30 2877 H 283.346 -3.24644 2.19884 0
M  V30 2878 H 284.836 -3.91075 1.46458 0
M  V30 2879 N 285.273 -1.31445 -0.869486 0
M  V30 2880 C 286.498 -1.24256 -1.66058 0
M  V30 2881 C 286.923 0.188928 -1.87149 0
M  V30 2882 O 286.281 1.13522 -1.4136 0
M  V30 2883 C 286.329 -1.9924 -3.00559 0
M  V30 2884 O 285.433 -1.33007 -3.90362 0
M  V30 2885 H 284.774 -0.428973 -0.506831 0
M  V30 2886 H 287.304 -1.73521 -1.08404 0
M  V30 2887 H 287.314 -2.08854 -3.50491 0
M  V30 2888 H 285.989 -3.03342 -2.84528 0
M  V30 2889 H 284.566 -1.31848 -3.48813 0
M  V30 2890 N 286.751 1.08385 -1.14413 0
M  V30 2891 C 287.997 1.81044 -0.913834 0
M  V30 2892 C 288.33 1.86004 0.558209 0
M  V30 2893 O 287.605 1.33606 1.4135 0
M  V30 2894 C 287.888 3.26648 -1.51569 0
M  V30 2895 C 287.741 3.29895 -3.0576 0
M  V30 2896 C 289.06 4.23629 -1.19273 0
M  V30 2897 H 286.179 0.65727 -0.333414 0
M  V30 2898 H 288.821 1.26896 -1.41412 0
M  V30 2899 H 286.971 3.72889 -1.09023 0
M  V30 2900 H 288.643 2.91977 -3.57137 0
M  V30 2901 H 286.886 2.69163 -3.40197 0
M  V30 2902 H 287.557 4.32516 -3.42977 0
M  V30 2903 H 290.033 3.85727 -1.56057 0
M  V30 2904 H 288.909 5.23822 -1.64017 0
M  V30 2905 H 289.17 4.41968 -0.108068 0
M  V30 2906 N 288.23 0.939286 1.26551 0
M  V30 2907 C 289.479 0.581601 1.93133 0
M  V30 2908 C 289.792 -0.883224 1.74524 0
M  V30 2909 O 290.998 -1.3502 2.35546 0
M  V30 2910 C 289.454 0.989425 3.46032 0
M  V30 2911 C 289.062 2.47573 3.73379 0
M  V30 2912 C 290.806 0.703544 4.18629 0
M  V30 2913 C 288.713 2.82235 5.19709 0
M  V30 2914 H 287.643 0.213803 0.723052 0
M  V30 2915 H 290.294 1.14167 1.4366 0
M  V30 2916 H 288.676 0.357902 3.94379 0
M  V30 2917 H 289.85 3.15614 3.35744 0
M  V30 2918 H 288.165 2.73471 3.1401 0
M  V30 2919 H 290.762 0.938869 5.26393 0
M  V30 2920 H 291.105 -0.359639 4.14744 0
M  V30 2921 H 291.638 1.2947 3.76141 0
M  V30 2922 H 288.377 3.87509 5.28694 0
M  V30 2923 H 287.897 2.18854 5.58447 0
M  V30 2924 H 289.576 2.70599 5.87695 0
M  V30 2925 N 289.708 -1.40897 0.706093 0
M  V30 2926 C 290.948 -2.02916 0.245827 0
M  V30 2927 C 291.312 -1.54751 -1.13649 0
M  V30 2928 O 292.513 -2.08768 -1.69321 0
M  V30 2929 C 290.784 -3.56031 0.312537 0
M  V30 2930 S 292.343 -4.38741 -0.0721388 0
M  V30 2931 H 289.161 -0.704186 0.0982007 0
M  V30 2932 H 291.763 -1.72168 0.926207 0
M  V30 2933 H 290.467 -3.88579 1.32039 0
M  V30 2934 H 289.998 -3.91495 -0.386641 0
M  V30 2935 H 292.013 -4.78952 -1.29692 0
M  V30 2936 N 291.186 -0.45159 -1.50991 0
M  V30 2937 C 292.602 -0.104647 -1.59257 0
M  V30 2938 C 292.802 1.38728 -1.4614 0
M  V30 2939 O 291.858 2.15866 -1.30989 0
M  V30 2940 C 293.171 -0.637468 -2.93865 0
M  V30 2941 C 294.719 -0.599166 -3.07212 0
M  V30 2942 C 295.194 -1.1092 -4.44366 0
M  V30 2943 N 296.685 -1.06778 -4.50725 0
M  V30 2944 C 297.42 -1.43314 -5.55201 0
M  V30 2945 N 296.916 -1.87204 -6.67028 0
M  V30 2946 N 298.709 -1.3504 -5.45638 0
M  V30 2947 H 290.86 -1.42214 -1.57762 0
M  V30 2948 H 293.123 -0.586921 -0.744465 0
M  V30 2949 H 292.829 -1.68187 -3.08879 0
M  V30 2950 H 292.703 -0.0702139 -3.77135 0
M  V30 2951 H 295.09 0.436277 -2.91857 0
M  V30 2952 H 295.171 -1.20299 -2.25747 0
M  V30 2953 H 294.815 -2.14318 -4.60467 0
M  V30 2954 H 294.745 -0.481773 -5.24392 0
M  V30 2955 H 297.236 -0.745643 -3.70471 0
M  V30 2956 H 297.549 -2.13282 -7.42786 0
M  V30 2957 H 295.894 -1.91142 -6.68199 0
M  V30 2958 H 299.085 -1.00607 -4.57161 0
M  V30 2959 H 299.258 -1.63841 -6.26945 0
M  V30 2960 N 292.664 1.56529 -0.183458 0
M  V30 2961 C 293.596 2.15747 0.773697 0
M  V30 2962 C 294.609 1.1162 1.1851 0
M  V30 2963 O 295.798 1.3876 1.12285 0
M  V30 2964 C 292.898 2.6952 2.05456 0
M  V30 2965 C 292.071 3.98429 1.8048 0
M  V30 2966 C 291.13 4.37145 2.92901 0
M  V30 2967 O 290.156 5.04791 2.6301 0
M  V30 2968 N 291.358 3.99695 4.2098 0
M  V30 2969 H 294.123 2.98505 0.26736 0
M  V30 2970 H 291.684 1.619 -0.0010878 0
M  V30 2971 H 293.676 2.92412 2.79781 0
M  V30 2972 H 292.246 1.91282 2.47245 0
M  V30 2973 H 291.466 3.8379 0.899947 0
M  V30 2974 H 292.754 4.82597 1.61175 0
M  V30 2975 H 292.152 3.4526 4.48121 0
M  V30 2976 H 290.709 4.27562 4.9197 0
M  V30 2977 N 294.142 -0.090211 1.57342 0
M  V30 2978 C 295.072 -1.10976 2.05443 0
M  V30 2979 C 296.053 -1.41482 0.944284 0
M  V30 2980 O 297.238 -1.51428 1.21586 0
M  V30 2981 C 294.368 -2.42831 2.48295 0
M  V30 2982 C 293.322 -2.26721 3.63018 0
M  V30 2983 C 292.648 -3.63796 3.91863 0
M  V30 2984 C 293.948 -1.7037 4.93732 0
M  V30 2985 H 295.642 -0.709564 2.9087 0
M  V30 2986 H 293.188 -0.339874 1.39932 0
M  V30 2987 H 295.141 -3.14431 2.80555 0
M  V30 2988 H 293.865 -2.84795 1.59873 0
M  V30 2989 H 292.524 -1.57565 3.31012 0
M  V30 2990 H 292.172 -4.03297 3.00601 0
M  V30 2991 H 291.872 -3.53861 4.69101 0
M  V30 2992 H 293.396 -4.36855 4.26603 0
M  V30 2993 H 294.81 -2.31816 5.24342 0
M  V30 2994 H 293.207 -1.71181 5.75167 0
M  V30 2995 H 294.277 -0.663542 4.80339 0
M  V30 2996 N 295.62 -1.53406 -0.361157 0
M  V30 2997 C 296.53 -1.83122 -1.4664 0
M  V30 2998 C 297.546 -0.719943 -1.58407 0
M  V30 2999 O 298.722 -1.01046 -1.74218 0
M  V30 3000 C 295.787 -2.01891 -2.81853 0
M  V30 3001 C 294.848 -3.25784 -2.79577 0
M  V30 3002 C 294.081 -3.43648 -4.0834 0
M  V30 3003 O 294.304 -2.65714 -5.0473 0
M  V30 3004 O 293.238 -4.37018 -4.13883 0
M  V30 3005 H 297.064 -2.7703 -1.24451 0
M  V30 3006 H 294.649 -1.38841 -0.551678 0
M  V30 3007 H 296.531 -2.15782 -3.61962 0
M  V30 3008 H 295.206 -1.11173 -3.0401 0
M  V30 3009 H 294.113 -3.17312 -1.98151 0
M  V30 3010 H 295.446 -4.16439 -2.62373 0
M  V30 3011 N 297.098 0.621204 -1.44841 0
M  V30 3012 C 298.338 1.39201 -1.49674 0
M  V30 3013 C 298.702 1.91561 -0.129764 0
M  V30 3014 O 299.903 2.68748 -0.0527814 0
M  V30 3015 C 298.174 2.519 -2.53537 0
M  V30 3016 S 299.733 3.39916 -2.77494 0
M  V30 3017 H 296.551 0.474758 -0.529269 0
M  V30 3018 H 299.153 0.718171 -1.81831 0
M  V30 3019 H 297.857 2.11761 -3.51547 0
M  V30 3020 H 297.388 3.241 -2.22986 0
M  V30 3021 H 299.403 4.49646 -2.0984 0
M  V30 3022 N 298.576 1.31904 0.862503 0
M  V30 3023 C 299.824 1.21776 1.61292 0
M  V30 3024 C 300.145 -0.222413 1.93727 0
M  V30 3025 O 299.415 -1.1451 1.58947 0
M  V30 3026 H 297.995 0.447717 0.597962 0
M  V30 3027 H 300.657 1.65326 1.03215 0
M  V30 3028 H 299.753 1.7948 2.5533 0
M  V30 3029 N 300.054 -1.07777 1.14986 0
M  V30 3030 C 301.279 -1.84558 0.946213 0
M  V30 3031 C 301.704 -1.81323 -0.500362 0
M  V30 3032 O 301.062 -1.20301 -1.35637 0
M  V30 3033 C 301.11 -3.29736 1.45968 0
M  V30 3034 O 300.214 -4.07149 0.65601 0
M  V30 3035 H 299.555 -0.571641 0.33782 0
M  V30 3036 H 302.085 -1.35991 1.52865 0
M  V30 3037 H 302.095 -3.80574 1.47063 0
M  V30 3038 H 300.77 -3.31406 2.51283 0
M  V30 3039 H 299.347 -3.65994 0.714322 0
M  V30 3040 N 301.532 -0.945985 -1.26051 0
M  V30 3041 C 302.495 -0.463897 -2.24456 0
M  V30 3042 C 303.495 0.427655 -1.55009 0
M  V30 3043 O 304.685 0.226157 -1.72726 0
M  V30 3044 C 301.817 0.330812 -3.39291 0
M  V30 3045 H 303.01 -1.33357 -2.68619 0
M  V30 3046 H 300.563 -0.728416 -1.38289 0
M  V30 3047 H 301.298 1.21852 -3.00537 0
M  V30 3048 H 301.083 -0.308679 -3.90883 0
M  V30 3049 H 302.573 0.657865 -4.12386 0
M  V30 3050 N 303.011 1.40521 -0.713556 0
M  V30 3051 C 304.257 2.01221 -0.252564 0
M  V30 3052 C 304.59 1.56444 1.1506 0
M  V30 3053 O 303.865 0.783597 1.78017 0
M  V30 3054 C 304.148 3.58582 -0.330332 0
M  V30 3055 C 304.001 4.13437 -1.77173 0
M  V30 3056 C 305.32 4.39079 0.299641 0
M  V30 3057 H 302.439 0.731077 -0.0932471 0
M  V30 3058 H 305.081 1.67026 -0.905673 0
M  V30 3059 H 303.231 3.87844 0.225737 0
M  V30 3060 H 304.903 3.9498 -2.38303 0
M  V30 3061 H 303.146 3.67801 -2.3001 0
M  V30 3062 H 303.817 5.22597 -1.77755 0
M  V30 3063 H 306.293 4.15735 -0.174139 0
M  V30 3064 H 305.169 5.4848 0.214771 0
M  V30 3065 H 305.43 4.19915 1.38288 0
M  V30 3066 N 304.489 0.459591 1.5075 0
M  V30 3067 C 305.714 -0.0996819 2.0716 0
M  V30 3068 C 306.139 -1.33761 1.32249 0
M  V30 3069 O 305.497 -1.77551 0.366786 0
M  V30 3070 C 305.545 -0.378226 3.58611 0
M  V30 3071 O 304.649 -1.46081 3.85661 0
M  V30 3072 H 303.99 0.00791392 0.663953 0
M  V30 3073 H 306.52 0.647329 1.9409 0
M  V30 3074 H 306.53 -0.622135 4.03229 0
M  V30 3075 H 305.205 0.526439 4.12555 0
M  V30 3076 H 303.782 -1.20511 3.5289 0
M  V30 3077 N 305.967 -1.56429 0.191757 0
M  V30 3078 C 307.214 -1.97485 -0.447891 0
M  V30 3079 C 307.542 -1.07852 -1.61859 0
M  V30 3080 O 306.797 -0.116903 -1.95351 0
M  V30 3081 C 307.096 -3.44449 -0.953384 0
M  V30 3082 C 306.762 -4.50781 0.103586 0
M  V30 3083 C 305.424 -4.79584 0.394023 0
M  V30 3084 C 307.776 -5.1471 0.819946 0
M  V30 3085 C 305.104 -5.69607 1.40585 0
M  V30 3086 C 307.456 -6.05827 1.8209 0
M  V30 3087 C 306.12 -6.32987 2.11857 0
M  V30 3088 H 305.39 -0.722648 -0.163895 0
M  V30 3089 H 308.037 -1.89322 0.28802 0
M  V30 3090 H 306.342 -3.49666 -1.76751 0
M  V30 3091 H 308.039 -3.73569 -1.45765 0
M  V30 3092 H 304.629 -4.28394 -0.132951 0
M  V30 3093 H 308.813 -4.92552 0.608789 0
M  V30 3094 H 304.069 -5.88926 1.64243 0
M  V30 3095 H 308.243 -6.54424 2.38123 0
M  V30 3096 H 305.87 -7.02544 2.90407 0
M  V30 3097 N 307.445 0.0818655 -1.57387 0
M  V30 3098 C 308.67 0.799946 -1.91352 0
M  V30 3099 C 309.095 1.70833 -0.787258 0
M  V30 3100 O 308.453 1.79419 0.26048 0
M  V30 3101 C 308.501 1.57812 -3.24234 0
M  V30 3102 O 307.605 2.68806 -3.12757 0
M  V30 3103 H 306.946 0.21891 -0.626877 0
M  V30 3104 H 309.476 0.0531256 -2.04531 0
M  V30 3105 H 309.486 1.95952 -3.57864 0
M  V30 3106 H 308.161 0.911548 -4.05788 0
M  V30 3107 H 306.738 2.33597 -2.90666 0
M  V30 3108 N 308.923 1.53595 0.353017 0
M  V30 3109 C 310.171 1.70049 1.09215 0
M  V30 3110 C 310.492 0.461406 1.89463 0
M  V30 3111 O 309.762 -0.524633 1.88744 0
M  V30 3112 H 308.342 0.626912 0.40619 0
M  V30 3113 H 311.004 1.90822 0.396585 0
M  V30 3114 H 310.1 2.56718 1.77488 0
M  V30 3115 N 310.401 -0.613514 1.45168 0
M  V30 3116 C 311.626 -1.40437 1.52618 0
M  V30 3117 C 312.051 -1.87438 0.157707 0
M  V30 3118 O 311.409 -1.59791 -0.856537 0
M  V30 3119 C 311.457 -2.58894 2.51011 0
M  V30 3120 O 310.561 -3.59326 2.02382 0
M  V30 3121 H 309.902 -0.419506 0.514695 0
M  V30 3122 H 312.432 -0.747215 1.90467 0
M  V30 3123 H 312.442 -3.06214 2.69624 0
M  V30 3124 H 311.117 -2.24032 3.50403 0
M  V30 3125 H 309.694 -3.18695 1.93618 0
M  V30 3126 N 311.879 -1.3236 -0.855495 0
M  V30 3127 C 313.104 -1.2601 -1.64731 0
M  V30 3128 C 313.529 0.169068 -1.87339 0
M  V30 3129 O 312.887 1.12016 -1.42556 0
M  V30 3130 C 312.935 -2.02417 -2.98429 0
M  V30 3131 O 312.039 -1.3714 -3.8893 0
M  V30 3132 H 311.38 -0.434325 -0.502253 0
M  V30 3133 H 313.91 -1.74661 -1.06558 0
M  V30 3134 H 313.92 -2.12559 -3.48257 0
M  V30 3135 H 312.595 -3.06343 -2.81295 0
M  V30 3136 H 311.172 -1.3554 -3.47395 0
M  V30 3137 N 313.357 1.07166 -1.15556 0
M  V30 3138 C 314.305 2.16517 -0.8499 0
M  V30 3139 C 315.299 1.68468 0.177454 0
M  V30 3140 O 316.505 1.79971 0.0323026 0
M  V30 3141 H 312.88 0.706652 -0.25719 0
M  V30 3142 H 314.851 2.39514 -1.77976 0
M  V30 3143 C 313.6 3.45855 -0.357682 0
M  V30 3144 H 312.923 3.83214 -1.13961 0
M  V30 3145 H 314.363 4.23607 -0.182489 0
M  V30 3146 C 312.822 3.24062 0.921152 0
M  V30 3147 O 313.352 3.48813 1.9923 0
M  V30 3148 N 311.558 2.77539 0.86141 0
M  V30 3149 H 311.105 2.57598 -0.0104408 0
M  V30 3150 H 311.063 2.63337 1.71758 0
M  V30 3151 N 314.835 0.952656 1.25548 0
M  V30 3152 C 316.082 0.606373 1.93208 0
M  V30 3153 C 316.41 -0.85631 1.74636 0
M  V30 3154 O 315.665 -1.62951 1.08376 0
M  V30 3155 C 315.964 0.908818 3.45652 0
M  V30 3156 C 315.63 2.35722 3.84378 0
M  V30 3157 C 314.292 2.75312 3.9466 0
M  V30 3158 C 316.644 3.29793 4.03591 0
M  V30 3159 C 313.972 4.08047 4.21562 0
M  V30 3160 C 316.324 4.62138 4.31985 0
M  V30 3161 C 314.988 5.01528 4.40484 0
M  V30 3162 H 314.258 0.221888 0.706998 0
M  V30 3163 H 316.905 1.20132 1.49133 0
M  V30 3164 H 315.21 0.231456 3.91116 0
M  V30 3165 H 316.907 0.619498 3.96186 0
M  V30 3166 H 313.497 2.04017 3.76928 0
M  V30 3167 H 317.681 3.00397 3.95064 0
M  V30 3168 H 312.937 4.38212 4.26357 0
M  V30 3169 H 317.111 5.35012 4.45797 0
M  V30 3170 H 314.738 6.04406 4.61083 0
M  V30 3171 N 316.313 -1.40141 0.720998 0
M  V30 3172 C 317.561 -2.0039 0.262323 0
M  V30 3173 C 317.882 -1.57469 -1.15015 0
M  V30 3174 O 317.152 -0.816582 -1.78069 0
M  V30 3175 H 315.732 -0.741063 0.093996 0
M  V30 3176 H 318.394 -1.71398 0.927835 0
M  V30 3177 H 317.49 -3.10658 0.299671 0
M  V30 3178 N 317.792 -0.46758 -1.50504 0
M  V30 3179 C 318.702 0.33382 -2.32213 0
M  V30 3180 C 319.718 0.999323 -1.42441 0
M  V30 3181 O 320.894 0.988068 -1.75497 0
M  V30 3182 C 317.959 1.4035 -3.17022 0
M  V30 3183 C 317.02 0.754961 -4.2261 0
M  V30 3184 C 316.253 1.77367 -5.03365 0
M  V30 3185 O 316.476 2.99976 -4.8515 0
M  V30 3186 O 315.41 1.34744 -5.86624 0
M  V30 3187 H 319.236 -0.334067 -3.01857 0
M  V30 3188 H 316.821 -0.229496 -1.47627 0
M  V30 3189 H 318.703 2.02318 -3.69656 0
M  V30 3190 H 317.378 2.05492 -2.5011 0
M  V30 3191 H 316.285 0.0964244 -3.73976 0
M  V30 3192 H 317.618 0.146545 -4.91982 0
M  V30 3193 N 319.27 1.56325 -0.20005 0
M  V30 3194 C 320.518 1.97329 0.436547 0
M  V30 3195 C 320.839 1.08826 1.61808 0
M  V30 3196 O 320.109 0.160604 1.95241 0
M  V30 3197 H 318.689 0.728714 0.164272 0
M  V30 3198 H 321.351 1.92761 -0.287937 0
M  V30 3199 H 320.447 3.02264 0.777353 0
M  V30 3200 N 320.748 -0.0735177 1.57428 0
M  V30 3201 C 321.973 -0.789787 1.91774 0
M  V30 3202 C 322.398 -1.70413 0.796306 0
M  V30 3203 O 321.756 -1.79555 -0.250961 0
M  V30 3204 C 321.804 -1.5609 3.25067 0
M  V30 3205 O 320.908 -2.67144 3.14178 0
M  V30 3206 H 320.249 -0.215582 0.628029 0
M  V30 3207 H 322.779 -0.0422781 2.04556 0
M  V30 3208 H 322.789 -1.94052 3.58898 0
M  V30 3209 H 321.464 -0.890015 4.06265 0
M  V30 3210 H 320.041 -2.32052 2.91901 0
M  V30 3211 N 322.226 -1.5378 -0.344866 0
M  V30 3212 C 323.474 -1.70625 -1.08311 0
M  V30 3213 C 323.795 -0.471447 -1.89215 0
M  V30 3214 O 323.065 0.514616 -1.8902 0
M  V30 3215 H 321.645 -0.629058 -0.402859 0
M  V30 3216 H 324.307 -1.9103 -0.386459 0
M  V30 3217 H 323.403 -2.57656 -1.76124 0
M  V30 3218 N 323.704 0.605807 -1.45491 0
M  V30 3219 C 325.115 1.18777 -1.44045 0
M  V30 3220 C 325.466 1.95471 -0.169001 0
M  V30 3221 O 324.591 2.0374 0.729324 0
M  V30 3222 C 325.186 2.16064 -2.60963 0
M  V30 3223 C 323.745 2.69633 -2.62631 0
M  V30 3224 C 322.892 1.45072 -2.36325 0
M  V30 3225 H 325.843 0.395017 -1.53705 0
M  V30 3226 H 325.864 2.9913 -2.35163 0
M  V30 3227 H 325.376 1.60217 -3.53486 0
M  V30 3228 H 323.477 3.29414 -1.74119 0
M  V30 3229 H 323.59 3.13944 -3.61906 0
M  V30 3230 H 321.954 1.74089 -1.85917 0
M  V30 3231 H 322.737 0.910899 -3.30995 0
M  V30 3232 N 325.182 1.32811 0.848464 0
M  V30 3233 C 326.431 1.23075 1.59798 0
M  V30 3234 C 326.744 -0.204419 1.94529 0
M  V30 3235 O 327.95 -0.423701 2.68173 0
M  V30 3236 C 326.406 2.15594 2.88179 0
M  V30 3237 C 326.014 3.64228 2.60849 0
M  V30 3238 C 327.758 2.14709 3.66197 0
M  V30 3239 C 325.665 4.48689 3.85269 0
M  V30 3240 H 324.595 0.457091 0.599653 0
M  V30 3241 H 327.246 1.57813 0.936342 0
M  V30 3242 H 325.628 1.73778 3.55833 0
M  V30 3243 H 326.802 4.14424 2.01467 0
M  V30 3244 H 325.117 3.67306 1.96151 0
M  V30 3245 H 327.714 2.75046 4.58534 0
M  V30 3246 H 328.057 1.13966 4.00397 0
M  V30 3247 H 328.59 2.54837 3.05455 0
M  V30 3248 H 325.329 5.5027 3.56207 0
M  V30 3249 H 324.849 4.03241 4.44024 0
M  V30 3250 H 326.528 4.62006 4.52946 0
M  V30 3251 N 326.66 -1.06551 1.16123 0
M  V30 3252 C 327.906 -1.79719 0.952505 0
M  V30 3253 C 328.261 -1.85396 -0.514385 0
M  V30 3254 O 327.554 -1.33263 -1.37665 0
M  V30 3255 C 327.748 -3.23911 1.51052 0
M  V30 3256 C 327.577 -3.32284 3.03013 0
M  V30 3257 C 326.347 -3.42371 3.71632 0
M  V30 3258 C 328.545 -3.22363 4.00732 0
M  V30 3259 N 326.527 -3.39732 5.11327 0
M  V30 3260 C 327.898 -3.26937 5.26794 0
M  V30 3261 C 329.953 -3.0623 3.92591 0
M  V30 3262 C 328.656 -3.17035 6.45663 0
M  V30 3263 C 330.682 -2.97665 5.11028 0
M  V30 3264 C 330.044 -3.02858 6.35969 0
M  V30 3265 H 326.143 -0.670585 0.402293 0
M  V30 3266 H 328.727 -1.27125 1.4747 0
M  V30 3267 H 326.898 -3.74907 1.01484 0
M  V30 3268 H 328.63 -3.85242 1.2398 0
M  V30 3269 H 325.385 -3.47058 3.22254 0
M  V30 3270 H 325.809 -3.41919 5.84312 0
M  V30 3271 H 330.451 -3.01063 2.96852 0
M  V30 3272 H 328.169 -3.2096 7.41627 0
M  V30 3273 H 331.755 -2.86273 5.06497 0
M  V30 3274 H 330.635 -2.96286 7.26075 0
M  V30 3275 N 328.138 -0.959301 -1.25041 0
M  V30 3276 C 329.385 -0.616611 -1.92884 0
M  V30 3277 C 329.713 0.847036 -1.75087 0
M  V30 3278 O 328.968 1.62374 -1.09239 0
M  V30 3279 C 329.267 -0.927136 -3.45165 0
M  V30 3280 C 328.933 -2.37757 -3.83122 0
M  V30 3281 C 327.595 -2.77402 -3.93194 0
M  V30 3282 C 329.947 -3.31929 -4.01836 0
M  V30 3283 C 327.275 -4.10277 -4.19392 0
M  V30 3284 C 329.627 -4.64423 -4.29528 0
M  V30 3285 C 328.291 -5.03857 -4.37818 0
M  V30 3286 H 327.561 -0.225634 -0.705812 0
M  V30 3287 H 330.208 -1.20921 -1.48493 0
M  V30 3288 H 328.513 -0.252195 -3.90987 0
M  V30 3289 H 330.21 -0.6405 -3.95852 0
M  V30 3290 H 326.8 -2.06013 -3.75841 0
M  V30 3291 H 330.984 -3.02488 -3.93465 0
M  V30 3292 H 326.24 -4.40467 -4.24027 0
M  V30 3293 H 330.414 -5.37369 -4.42953 0
M  V30 3294 H 328.041 -6.06843 -4.57871 0
M  V30 3295 N 329.616 1.39756 -0.72842 0
M  V30 3296 C 330.893 1.94574 -0.200079 0
M  V30 3297 C 331.273 1.66569 1.29684 0
M  V30 3298 O 330.621 0.990326 2.05924 0
M  V30 3299 C 330.831 3.45004 -0.526608 0
M  V30 3300 C 332.179 4.21965 -0.472318 0
M  V30 3301 O 333.203 3.53173 -0.463413 0
M  V30 3302 O 332.062 5.44552 -0.461075 0
M  V30 3303 H 329.156 0.826289 -0.0342851 0
M  V30 3304 H 331.702 1.49293 -0.806829 0
M  V30 3305 H 330.474 3.58796 -1.56144 0
M  V30 3306 H 330.097 3.97449 0.109449 0
M  V30 3307 N 331.094 0.475555 1.50254 0
M  V30 3308 C 332.371 -0.139685 1.95101 0
M  V30 3309 C 332.751 -1.56555 1.41611 0
M  V30 3310 O 332.099 -2.19956 0.618993 0
M  V30 3311 C 332.309 -0.0784298 3.48912 0
M  V30 3312 C 333.657 -0.265095 4.23772 0
M  V30 3313 O 334.681 -0.154808 3.55863 0
M  V30 3314 O 333.54 -0.488327 5.44314 0
M  V30 3315 H 330.634 -0.109236 0.819754 0
M  V30 3316 H 333.18 0.536276 1.61004 0
M  V30 3317 H 331.952 0.916918 3.80405 0
M  V30 3318 H 331.575 -0.795655 3.89558 0
M  V30 3319 N 332.573 -1.56217 0.208337 0
M  V30 3320 C 333.503 -2.22694 -0.702116 0
M  V30 3321 C 334.484 -1.19432 -1.2112 0
M  V30 3322 O 335.669 -1.47978 -1.25762 0
M  V30 3323 C 332.799 -2.8966 -1.9161 0
M  V30 3324 C 331.753 -3.9928 -1.5414 0
M  V30 3325 C 331.079 -4.53476 -2.83308 0
M  V30 3326 C 332.379 -5.17012 -0.741339 0
M  V30 3327 H 334.073 -2.99034 -0.147898 0
M  V30 3328 H 331.619 -1.43831 -0.0696951 0
M  V30 3329 H 333.572 -3.34852 -2.55836 0
M  V30 3330 H 332.296 -2.10746 -2.49507 0
M  V30 3331 H 330.955 -3.54799 -0.922668 0
M  V30 3332 H 330.603 -3.71308 -3.39322 0
M  V30 3333 H 330.303 -5.27451 -2.58976 0
M  V30 3334 H 331.827 -5.01378 -3.485 0
M  V30 3335 H 333.241 -5.58667 -1.28699 0
M  V30 3336 H 331.638 -5.97137 -0.595627 0
M  V30 3337 H 332.708 -4.8423 0.254851 0
M  V30 3338 N 334.051 0.0651679 -1.57465 0
M  V30 3339 C 335.3 0.761916 -1.86756 0
M  V30 3340 C 335.613 1.78406 -0.801925 0
M  V30 3341 O 336.819 2.53084 -0.982885 0
M  V30 3342 C 335.275 1.40603 -3.31299 0
M  V30 3343 C 334.883 0.422115 -4.46007 0
M  V30 3344 C 336.627 2.08476 -3.69781 0
M  V30 3345 C 334.534 1.07252 -5.81593 0
M  V30 3346 H 333.464 0.288308 -0.696702 0
M  V30 3347 H 336.115 0.015344 -1.83494 0
M  V30 3348 H 334.497 2.20109 -3.29193 0
M  V30 3349 H 335.671 -0.343613 -4.59517 0
M  V30 3350 H 333.986 -0.152527 -4.16121 0
M  V30 3351 H 336.583 2.57925 -4.68379 0
M  V30 3352 H 336.926 2.88712 -2.99919 0
M  V30 3353 H 337.459 1.35792 -3.73905 0
M  V30 3354 H 334.198 0.310342 -6.54765 0
M  V30 3355 H 333.718 1.80895 -5.71872 0
M  V30 3356 H 335.397 1.59043 -6.27148 0
M  V30 3357 N 335.529 1.53961 0.336706 0
M  V30 3358 C 336.769 1.73254 1.08454 0
M  V30 3359 C 337.133 0.488937 1.8567 0
M  V30 3360 O 338.334 0.559001 2.62923 0
M  V30 3361 C 336.605 2.96519 1.99528 0
M  V30 3362 S 338.164 3.36655 2.81441 0
M  V30 3363 H 334.982 0.609353 0.366347 0
M  V30 3364 H 337.584 1.92117 0.362124 0
M  V30 3365 H 336.288 3.85193 1.41614 0
M  V30 3366 H 335.819 2.80142 2.76196 0
M  V30 3367 H 337.834 2.90925 4.01967 0
M  V30 3368 N 337.007 -0.598083 1.45811 0
M  V30 3369 C 337.955 -1.72932 1.55555 0
M  V30 3370 C 338.949 -1.63984 0.424921 0
M  V30 3371 O 340.155 -1.69663 0.601205 0
M  V30 3372 H 336.53 -0.571489 0.488779 0
M  V30 3373 H 338.501 -1.61842 2.50699 0
M  V30 3374 C 337.25 -3.11318 1.54843 0
M  V30 3375 H 336.573 -3.18867 2.41172 0
M  V30 3376 H 338.013 -3.90274 1.65717 0
M  V30 3377 C 336.472 -3.3578 0.274427 0
M  V30 3378 O 337.002 -3.9654 -0.641778 0
M  V30 3379 N 335.208 -2.90119 0.167139 0
M  V30 3380 H 334.755 -2.40855 0.913596 0
M  V30 3381 H 334.713 -3.0686 -0.684435 0
M  V30 3382 N 338.485 -1.33259 -0.841409 0
M  V30 3383 C 339.733 -1.24326 -1.59334 0
M  V30 3384 C 340.054 0.191564 -1.94057 0
M  V30 3385 O 339.324 1.11967 -1.60749 0
M  V30 3386 H 337.904 -0.457174 -0.590763 0
M  V30 3387 H 340.566 -1.66947 -1.00571 0
M  V30 3388 H 339.662 -1.8352 -2.52442 0
M  V30 3389 N 339.963 1.05934 -1.16686 0
M  V30 3390 C 340.911 2.15603 -0.872817 0
M  V30 3391 C 341.905 1.68647 0.159576 0
M  V30 3392 O 343.111 1.79995 0.0132125 0
M  V30 3393 H 339.486 0.703885 -0.264671 0
M  V30 3394 H 341.457 2.37613 -1.80507 0
M  V30 3395 C 340.206 3.45457 -0.394344 0
M  V30 3396 H 339.529 3.81984 -1.18019 0
M  V30 3397 H 340.969 4.2339 -0.227408 0
M  V30 3398 C 339.428 3.25021 0.88673 0
M  V30 3399 O 339.958 3.50906 1.95519 0
M  V30 3400 N 338.164 2.78437 0.831925 0
M  V30 3401 H 337.711 2.57572 -0.0377619 0
M  V30 3402 H 337.669 2.65144 1.68956 0
M  V30 3403 N 341.441 0.965919 1.2453 0
M  V30 3404 C 342.351 0.502154 2.29163 0
M  V30 3405 C 343.367 -0.436017 1.68448 0
M  V30 3406 O 344.543 -0.309497 1.99008 0
M  V30 3407 C 341.608 -0.201956 3.46111 0
M  V30 3408 C 340.669 0.775821 4.22232 0
M  V30 3409 C 339.902 0.105217 5.33596 0
M  V30 3410 O 340.125 -1.10683 5.59558 0
M  V30 3411 O 339.059 0.796475 5.96607 0
M  V30 3412 H 342.885 1.37194 2.70946 0
M  V30 3413 H 340.47 0.732875 1.30189 0
M  V30 3414 H 342.352 -0.597564 4.17142 0
M  V30 3415 H 341.027 -1.04673 3.06309 0
M  V30 3416 H 339.934 1.22185 3.53584 0
M  V30 3417 H 341.267 1.58896 4.65846 0
M  V30 3418 N 342.919 -1.39368 0.735821 0
M  V30 3419 C 344.144 -2.05319 0.293052 0
M  V30 3420 C 344.569 -1.55115 -1.064 0
M  V30 3421 O 343.927 -0.695261 -1.67439 0
M  V30 3422 C 343.975 -3.59305 0.305323 0
M  V30 3423 O 343.079 -4.06299 -0.706761 0
M  V30 3424 H 342.42 -0.650529 0.13307 0
M  V30 3425 H 344.95 -1.78386 1.00197 0
M  V30 3426 H 344.96 -4.07724 0.149997 0
M  V30 3427 H 343.635 -3.95207 1.29553 0
M  V30 3428 H 342.212 -3.69292 -0.517504 0
M  V30 3429 N 344.397 -0.483516 -1.5 0
M  V30 3430 C 345.36 0.292965 -2.2732 0
M  V30 3431 C 346.36 0.909499 -1.32608 0
M  V30 3432 O 347.55 0.776745 -1.55924 0
M  V30 3433 C 344.682 1.41854 -3.09984 0
M  V30 3434 H 345.875 -0.385289 -2.97415 0
M  V30 3435 H 343.428 -0.237942 -1.54478 0
M  V30 3436 H 344.163 2.13148 -2.44414 0
M  V30 3437 H 343.948 0.982114 -3.79601 0
M  V30 3438 H 345.438 1.96597 -3.68429 0
M  V30 3439 N 345.875 1.56104 -0.216619 0
M  V30 3440 C 346.805 2.23063 0.690296 0
M  V30 3441 C 347.786 1.20072 1.20485 0
M  V30 3442 O 348.971 1.48643 1.24976 0
M  V30 3443 C 346.101 2.90672 1.90072 0
M  V30 3444 C 345.055 4.00092 1.5202 0
M  V30 3445 C 344.381 4.54972 2.80899 0
M  V30 3446 C 345.681 5.17398 0.71391 0
M  V30 3447 H 347.375 2.99109 0.132038 0
M  V30 3448 H 344.921 1.43866 0.0620664 0
M  V30 3449 H 346.874 3.36204 2.54057 0
M  V30 3450 H 345.598 2.12066 2.48386 0
M  V30 3451 H 344.257 3.55283 0.903839 0
M  V30 3452 H 343.905 3.73102 3.37348 0
M  V30 3453 H 343.605 5.28817 2.56176 0
M  V30 3454 H 345.129 5.0322 3.45836 0
M  V30 3455 H 346.543 5.59342 1.25735 0
M  V30 3456 H 344.94 5.97444 0.563951 0
M  V30 3457 H 346.01 4.84088 -0.280527 0
M  V30 3458 N 347.353 -0.0568162 1.57498 0
M  V30 3459 C 348.599 -0.748893 1.89111 0
M  V30 3460 C 348.954 -1.74422 0.81208 0
M  V30 3461 O 348.247 -1.90731 -0.182247 0
M  V30 3462 C 348.441 -1.48359 3.25153 0
M  V30 3463 C 348.27 -0.560924 4.46188 0
M  V30 3464 C 347.04 -0.192264 5.04934 0
M  V30 3465 C 349.238 0.148824 5.14085 0
M  V30 3466 N 347.22 0.734555 6.0949 0
M  V30 3467 C 348.591 0.932286 6.12951 0
M  V30 3468 C 350.646 0.218713 4.97419 0
M  V30 3469 C 349.349 1.77917 6.96949 0
M  V30 3470 C 351.375 1.05262 5.81957 0
M  V30 3471 C 350.737 1.82409 6.80372 0
M  V30 3472 H 346.836 -0.249002 0.741298 0
M  V30 3473 H 349.42 -0.00984926 1.94698 0
M  V30 3474 H 347.591 -2.19326 3.20547 0
M  V30 3475 H 349.323 -2.12586 3.44368 0
M  V30 3476 H 346.078 -0.548421 4.70414 0
M  V30 3477 H 346.502 1.19165 6.6643 0
M  V30 3478 H 351.144 -0.363407 4.21235 0
M  V30 3479 H 348.862 2.3722 7.72497 0
M  V30 3480 H 352.448 1.10987 5.71116 0
M  V30 3481 H 351.328 2.45895 7.44651 0
M  V30 3482 N 348.832 -1.54138 -0.328536 0
M  V30 3483 C 349.78 -1.83894 -1.42428 0
M  V30 3484 C 350.774 -0.710478 -1.53781 0
M  V30 3485 O 351.98 -0.894062 -1.56226 0
M  V30 3486 H 348.355 -0.582837 -0.475189 0
M  V30 3487 H 350.326 -2.75537 -1.14552 0
M  V30 3488 C 349.075 -2.07866 -2.78724 0
M  V30 3489 H 348.398 -2.94158 -2.7076 0
M  V30 3490 H 349.838 -2.32644 -3.54476 0
M  V30 3491 C 348.297 -0.868689 -3.25508 0
M  V30 3492 O 348.827 -0.0754908 -4.01629 0
M  V30 3493 N 347.033 -0.681711 -2.82491 0
M  V30 3494 H 346.58 -1.32838 -2.20708 0
M  V30 3495 H 346.538 0.126374 -3.14146 0
M  V30 3496 N 350.31 0.590341 -1.46126 0
M  V30 3497 C 351.55 1.35995 -1.52593 0
M  V30 3498 C 351.914 1.91243 -0.170368 0
M  V30 3499 O 353.115 2.68576 -0.109775 0
M  V30 3500 C 351.386 2.46465 -2.58823 0
M  V30 3501 S 352.945 3.33953 -2.84641 0
M  V30 3502 H 349.763 0.463425 -0.53922 0
M  V30 3503 H 352.365 0.67944 -1.83314 0
M  V30 3504 H 351.069 2.04256 -3.5596 0
M  V30 3505 H 350.6 3.19297 -2.2981 0
M  V30 3506 H 352.615 4.45094 -2.19331 0
M  V30 3507 N 351.788 1.33704 0.83433 0
M  V30 3508 C 352.735 1.24335 1.94447 0
M  V30 3509 C 353.705 0.120991 1.65659 0
M  V30 3510 O 354.89 0.300035 1.88426 0
M  V30 3511 C 352.03 0.993124 3.30501 0
M  V30 3512 C 351.143 2.20217 3.71657 0
M  V30 3513 C 350.278 1.88572 4.96602 0
M  V30 3514 C 349.317 3.05683 5.30306 0
M  V30 3515 N 348.454 2.73997 6.46429 0
M  V30 3516 H 353.294 2.1928 2.01792 0
M  V30 3517 H 350.831 1.09035 0.987404 0
M  V30 3518 H 352.789 0.828467 4.08892 0
M  V30 3519 H 351.419 0.0803902 3.227 0
M  V30 3520 H 350.471 2.47642 2.88752 0
M  V30 3521 H 351.783 3.07752 3.92543 0
M  V30 3522 H 350.937 1.68776 5.82752 0
M  V30 3523 H 349.676 0.982799 4.77695 0
M  V30 3524 H 348.681 3.26088 4.42659 0
M  V30 3525 H 349.906 3.96737 5.51159 0
M  V30 3526 H 347.852 1.86268 6.28999 0
M  V30 3527 H 347.769 3.55064 6.67432 0
M  V30 3528 H 349.037 2.57679 7.35678 0
M  V30 3529 N 353.266 -1.05314 1.17247 0
M  V30 3530 C 354.216 -2.11313 0.856196 0
M  V30 3531 C 355.2 -1.60013 -0.168694 0
M  V30 3532 O 356.392 -1.76968 0.0335624 0
M  V30 3533 C 353.521 -3.41301 0.369917 0
M  V30 3534 C 352.607 -3.99401 1.42616 0
M  V30 3535 N 352.998 -4.31481 2.63928 0
M  V30 3536 C 351.296 -4.27126 1.28373 0
M  V30 3537 C 351.997 -4.77799 3.31787 0
M  V30 3538 N 350.973 -4.77843 2.59166 0
M  V30 3539 H 354.775 -2.33976 1.77856 0
M  V30 3540 H 352.289 -1.2295 1.06099 0
M  V30 3541 H 354.286 -4.16713 0.124897 0
M  V30 3542 H 352.946 -3.20072 -0.546253 0
M  V30 3543 H 353.957 -4.21519 3.00902 0
M  V30 3544 H 350.634 -4.15289 0.429111 0
M  V30 3545 H 352.024 -5.11743 4.35395 0
M  V30 3546 N 354.744 -0.972509 -1.24016 0
M  V30 3547 C 355.676 -0.464375 -2.24446 0
M  V30 3548 C 356.689 0.4295 -1.57032 0
M  V30 3549 O 357.878 0.234902 -1.76948 0
M  V30 3550 C 354.978 0.348385 -3.37105 0
M  V30 3551 C 354.151 -0.53673 -4.34094 0
M  V30 3552 C 353.21 0.220838 -5.25736 0
M  V30 3553 O 352.236 -0.386867 -5.67884 0
M  V30 3554 N 353.438 1.50907 -5.60542 0
M  V30 3555 H 356.203 -1.32788 -2.68677 0
M  V30 3556 H 353.764 -0.844877 -1.38107 0
M  V30 3557 H 355.756 0.863341 -3.95384 0
M  V30 3558 H 354.326 1.11285 -2.92121 0
M  V30 3559 H 353.546 -1.23261 -3.74433 0
M  V30 3560 H 354.834 -1.14022 -4.95859 0
M  V30 3561 H 354.232 2.02444 -5.28236 0
M  V30 3562 H 352.789 1.96962 -6.21329 0
M  V30 3563 N 356.222 1.38976 -0.743202 0
M  V30 3564 C 357.47 1.99948 -0.29417 0
M  V30 3565 C 357.791 1.59279 1.12495 0
M  V30 3566 O 357.061 0.844808 1.76748 0
M  V30 3567 H 355.641 0.739473 -0.105774 0
M  V30 3568 H 358.303 1.699 -0.954986 0
M  V30 3569 H 357.399 3.10142 -0.349056 0
M  V30 3570 N 357.7 0.491464 1.49741 0
M  V30 3571 C 358.946 -0.0485431 2.03342 0
M  V30 3572 C 359.301 -1.35566 1.36527 0
M  V30 3573 O 358.594 -1.85262 0.488729 0
M  V30 3574 C 358.788 -0.267329 3.56399 0
M  V30 3575 C 358.617 1.01703 4.38049 0
M  V30 3576 C 357.387 1.56614 4.80417 0
M  V30 3577 C 359.585 1.91782 4.77204 0
M  V30 3578 N 357.567 2.7974 5.4646 0
M  V30 3579 C 358.938 2.99489 5.42868 0
M  V30 3580 C 360.993 1.92575 4.5915 0
M  V30 3581 C 359.696 4.08005 5.92389 0
M  V30 3582 C 361.722 3.0006 5.09626 0
M  V30 3583 C 361.084 4.06485 5.75282 0
M  V30 3584 H 357.183 0.0227779 0.781668 0
M  V30 3585 H 359.767 0.664204 1.8302 0
M  V30 3586 H 357.938 -0.949126 3.76625 0
M  V30 3587 H 359.67 -0.803492 3.96644 0
M  V30 3588 H 356.425 1.11256 4.60347 0
M  V30 3589 H 356.849 3.42323 5.84075 0
M  V30 3590 H 361.491 1.11605 4.07804 0
M  V30 3591 H 359.209 4.89779 6.42761 0
M  V30 3592 H 362.795 3.01681 4.97473 0
M  V30 3593 H 361.675 4.88287 6.13633 0
M  V30 3594 N 359.178 -1.55987 0.224894 0
M  V30 3595 C 360.426 -1.97998 -0.405099 0
M  V30 3596 C 360.747 -1.11387 -1.60056 0
M  V30 3597 O 360.017 -0.191645 -1.9496 0
M  V30 3598 H 358.597 -0.731235 -0.152658 0
M  V30 3599 H 361.259 -1.92279 0.318567 0
M  V30 3600 H 360.355 -3.03463 -0.729167 0
M  V30 3601 N 360.656 0.0484629 -1.57525 0
M  V30 3602 C 361.603 1.05504 -2.05275 0
M  V30 3603 C 362.573 1.37084 -0.937927 0
M  V30 3604 O 363.758 1.47754 -1.2072 0
M  V30 3605 C 360.898 2.35676 -2.52093 0
M  V30 3606 C 360.011 2.10423 -3.77288 0
M  V30 3607 C 359.146 3.34327 -4.12794 0
M  V30 3608 C 358.185 3.04542 -5.30962 0
M  V30 3609 N 357.322 4.20841 -5.61994 0
M  V30 3610 H 362.162 0.640885 -2.91027 0
M  V30 3611 H 359.699 0.304854 -1.43906 0
M  V30 3612 H 361.657 3.11709 -2.77297 0
M  V30 3613 H 360.287 2.7485 -1.69285 0
M  V30 3614 H 359.339 1.24976 -3.59284 0
M  V30 3615 H 360.651 1.84438 -4.63448 0
M  V30 3616 H 359.805 4.1874 -4.39024 0
M  V30 3617 H 358.544 3.63408 -3.25247 0
M  V30 3618 H 357.549 2.18528 -5.04505 0
M  V30 3619 H 358.774 2.76758 -6.20146 0
M  V30 3620 H 356.72 4.4991 -4.77406 0
M  V30 3621 H 356.637 3.98212 -6.42622 0
M  V30 3622 H 357.905 5.06184 -5.92789 0
M  V30 3623 N 362.134 1.5431 0.320358 0
M  V30 3624 C 363.084 1.803 1.39556 0
M  V30 3625 C 364.068 0.659166 1.46778 0
M  V30 3626 O 365.26 0.91926 1.51257 0
M  V30 3627 C 362.389 2.03665 2.76361 0
M  V30 3628 C 361.475 3.24178 2.73439 0
M  V30 3629 N 361.866 4.4516 2.40137 0
M  V30 3630 C 360.164 3.25816 3.04565 0
M  V30 3631 C 360.865 5.27109 2.4603 0
M  V30 3632 N 359.841 4.64368 2.82601 0
M  V30 3633 H 363.643 2.71416 1.12742 0
M  V30 3634 H 361.157 1.53548 0.528856 0
M  V30 3635 H 363.154 2.20425 3.53862 0
M  V30 3636 H 361.814 1.13805 3.04103 0
M  V30 3637 H 362.825 4.72104 2.12927 0
M  V30 3638 H 359.502 2.46001 3.37328 0
M  V30 3639 H 360.892 6.33728 2.23246 0
M  V30 3640 N 363.613 -0.582584 1.46437 0
M  V30 3641 C 364.561 -1.71272 1.5738 0
M  V30 3642 C 365.555 -1.63524 0.44229 0
M  V30 3643 O 366.761 -1.69016 0.619166 0
M  V30 3644 H 363.136 -0.566273 0.494813 0
M  V30 3645 H 365.107 -1.59174 2.52401 0
M  V30 3646 C 363.856 -3.09658 1.58136 0
M  V30 3647 H 363.179 -3.16291 2.44541 0
M  V30 3648 H 364.619 -3.88494 1.69847 0
M  V30 3649 C 363.078 -3.3547 0.310026 0
M  V30 3650 O 363.608 -3.97199 -0.599683 0
M  V30 3651 N 361.814 -2.89925 0.197901 0
M  V30 3652 H 361.361 -2.39873 0.93909 0
M  V30 3653 H 361.319 -3.07568 -0.65185 0
M  V30 3654 N 365.091 -1.34144 -0.827227 0
M  V30 3655 C 366.331 -1.27603 -1.59677 0
M  V30 3656 C 366.695 0.153035 -1.91389 0
M  V30 3657 O 367.896 0.342566 -2.66608 0
M  V30 3658 C 366.167 -2.13784 -2.86411 0
M  V30 3659 S 367.726 -2.24552 -3.76991 0
M  V30 3660 H 364.544 -0.453789 -0.547354 0
M  V30 3661 H 367.146 -1.69309 -0.977479 0
M  V30 3662 H 365.85 -3.16627 -2.61104 0
M  V30 3663 H 365.381 -1.72959 -3.5334 0
M  V30 3664 H 367.396 -1.41514 -4.75593 0
M  V30 3665 N 366.569 1.04691 -1.17803 0
M  V30 3666 C 367.846 1.7472 -0.879328 0
M  V30 3667 C 368.226 2.01812 0.619271 0
M  V30 3668 O 367.574 1.65824 1.57209 0
M  V30 3669 C 367.784 3.03686 -1.71976 0
M  V30 3670 C 369.132 3.77542 -1.94286 0
M  V30 3671 O 370.156 3.13569 -1.68976 0
M  V30 3672 O 369.015 4.92506 -2.36855 0
M  V30 3673 H 366.109 0.760011 -0.326056 0
M  V30 3674 H 368.655 1.10813 -1.28525 0
M  V30 3675 H 367.427 2.79754 -2.73594 0
M  V30 3676 H 367.05 3.75332 -1.31194 0
M  V30 3677 N 368.047 0.979072 1.23499 0
M  V30 3678 C 368.997 0.489378 2.22686 0
M  V30 3679 C 369.981 -0.434871 1.54912 0
M  V30 3680 O 371.173 -0.263941 1.75021 0
M  V30 3681 C 368.302 -0.208178 3.42668 0
M  V30 3682 C 367.388 0.735563 4.17672 0
M  V30 3683 N 367.779 1.87763 4.69658 0
M  V30 3684 C 366.077 0.548625 4.42613 0
M  V30 3685 C 366.778 2.46886 5.26709 0
M  V30 3686 N 365.754 1.75287 5.14563 0
M  V30 3687 H 369.556 1.36062 2.60508 0
M  V30 3688 H 367.07 0.83958 1.39014 0
M  V30 3689 H 369.067 -0.576295 4.12898 0
M  V30 3690 H 367.727 -1.07572 3.06363 0
M  V30 3691 H 368.738 2.25885 4.66043 0
M  V30 3692 H 365.415 -0.274006 4.166 0
M  V30 3693 H 366.805 3.43326 5.77561 0
M  V30 3694 N 369.525 -1.3858 0.750561 0
M  V30 3695 C 370.488 -2.28836 0.129152 0
M  V30 3696 C 371.488 -1.47045 -0.650714 0
M  V30 3697 O 372.678 -1.6753 -0.477428 0
M  V30 3698 C 369.81 -3.30751 -0.825622 0
M  V30 3699 H 371.003 -2.85294 0.924516 0
M  V30 3700 H 368.556 -1.47489 0.517376 0
M  V30 3701 H 369.291 -2.79378 -1.64677 0
M  V30 3702 H 369.076 -3.91177 -0.268852 0
M  V30 3703 H 370.566 -3.98249 -1.2565 0
M  V30 3704 N 371.003 -0.499398 -1.49478 0
M  V30 3705 C 371.913 0.284489 -2.32869 0
M  V30 3706 C 372.929 0.968885 -1.44529 0
M  V30 3707 O 374.105 0.95062 -1.77553 0
M  V30 3708 C 371.17 1.33594 -3.19928 0
M  V30 3709 C 370.231 0.665149 -4.24116 0
M  V30 3710 C 369.464 1.6665 -5.07014 0
M  V30 3711 O 369.687 2.89618 -4.91404 0
M  V30 3712 O 368.621 1.22271 -5.8935 0
M  V30 3713 H 372.447 -0.39802 -3.01081 0
M  V30 3714 H 370.032 -0.260758 -1.47107 0
M  V30 3715 H 371.914 1.94431 -3.73864 0
M  V30 3716 H 370.589 2.0014 -2.54412 0
M  V30 3717 H 369.496 0.0170769 -3.74096 0
M  V30 3718 H 370.829 0.0421555 -4.92182 0
M  V30 3719 N 372.481 1.55866 -0.233164 0
M  V30 3720 C 373.758 1.90471 0.444988 0
M  V30 3721 C 374.138 1.15209 1.7689 0
M  V30 3722 O 373.486 0.265119 2.26957 0
M  V30 3723 C 373.696 3.4333 0.626559 0
M  V30 3724 C 375.044 4.14319 0.92871 0
M  V30 3725 O 376.068 3.48993 0.712926 0
M  V30 3726 O 374.927 5.29846 1.33887 0
M  V30 3727 H 372.021 0.792347 0.236885 0
M  V30 3728 H 374.567 1.67437 -0.276211 0
M  V30 3729 H 373.339 3.90095 -0.306822 0
M  V30 3730 H 372.962 3.72181 1.39881 0
M  V30 3731 N 373.959 -0.0401083 1.57549 0
M  V30 3732 C 374.922 -1.02871 2.04817 0
M  V30 3733 C 375.922 -1.29708 0.950388 0
M  V30 3734 O 377.112 -1.24897 1.21435 0
M  V30 3735 C 374.244 -2.36443 2.45576 0
M  V30 3736 H 375.437 -0.620631 2.93408 0
M  V30 3737 H 372.99 -0.286667 1.53649 0
M  V30 3738 H 373.725 -2.82021 1.60108 0
M  V30 3739 H 373.51 -2.18296 3.25713 0
M  V30 3740 H 375 -3.07441 2.82612 0
M  V30 3741 N 375.437 -1.54477 -0.31217 0
M  V30 3742 C 376.685 -1.72884 -1.04668 0
M  V30 3743 C 377.006 -0.511477 -1.88173 0
M  V30 3744 O 376.276 0.474407 -1.90069 0
M  V30 3745 H 374.856 -0.637461 -0.389425 0
M  V30 3746 H 377.518 -1.91807 -0.345852 0
M  V30 3747 H 376.614 -2.61334 -1.70619 0
M  V30 3748 N 376.915 0.57481 -1.46744 0
M  V30 3749 C 378.161 1.3347 -1.52688 0
M  V30 3750 C 378.494 1.93353 -0.181229 0
M  V30 3751 O 377.769 1.76912 0.808237 0
M  V30 3752 C 378.052 2.45811 -2.63152 0
M  V30 3753 C 377.905 1.90912 -4.07275 0
M  V30 3754 C 379.224 3.47822 -2.69644 0
M  V30 3755 H 376.343 0.483935 -0.555856 0
M  V30 3756 H 378.985 0.644968 -1.78718 0
M  V30 3757 H 377.135 3.04646 -2.41088 0
M  V30 3758 H 378.807 1.36473 -4.4065 0
M  V30 3759 H 377.05 1.21691 -4.16382 0
M  V30 3760 H 377.721 2.72042 -4.80309 0
M  V30 3761 H 380.197 2.9888 -2.895 0
M  V30 3762 H 379.073 4.23876 -3.48742 0
M  V30 3763 H 379.334 4.05555 -1.76005 0
M  V30 3764 N 378.394 1.34581 0.820102 0
M  V30 3765 C 379.643 1.26437 1.57151 0
M  V30 3766 C 379.956 -0.163111 1.94919 0
M  V30 3767 O 381.162 -0.366722 2.69012 0
M  V30 3768 C 379.618 2.21658 2.83541 0
M  V30 3769 C 379.226 3.69679 2.53065 0
M  V30 3770 C 380.97 2.22428 3.61561 0
M  V30 3771 C 378.877 4.56761 3.75664 0
M  V30 3772 H 377.807 0.469707 0.589823 0
M  V30 3773 H 380.458 1.59763 0.902656 0
M  V30 3774 H 378.84 1.81287 3.52067 0
M  V30 3775 H 380.014 4.18605 1.92631 0
M  V30 3776 H 378.329 3.71384 1.88316 0
M  V30 3777 H 380.926 2.8471 4.52597 0
M  V30 3778 H 381.269 1.22434 3.97889 0
M  V30 3779 H 381.802 2.61259 2.99981 0
M  V30 3780 H 378.541 5.57702 3.44454 0
M  V30 3781 H 378.061 4.12568 4.35371 0
M  V30 3782 H 379.74 4.71509 4.43044 0
M  V30 3783 N 379.872 -1.04064 1.18357 0
M  V30 3784 C 381.112 -1.78829 0.989921 0
M  V30 3785 C 381.476 -1.86106 -0.472095 0
M  V30 3786 O 382.677 -2.57076 -0.785187 0
M  V30 3787 C 380.948 -3.1823 1.6268 0
M  V30 3788 S 382.507 -4.09332 1.58091 0
M  V30 3789 H 379.325 -0.615754 0.355482 0
M  V30 3790 H 381.927 -1.24778 1.50501 0
M  V30 3791 H 380.631 -3.10543 2.68311 0
M  V30 3792 H 380.162 -3.77357 1.112 0
M  V30 3793 H 382.177 -4.92598 0.596817 0
M  V30 3794 N 381.35 -0.985608 -1.22978 0
M  V30 3795 C 382.575 -0.675254 -1.961 0
M  V30 3796 C 383 0.752154 -1.72407 0
M  V30 3797 O 382.358 1.5131 -0.998751 0
M  V30 3798 C 382.406 -0.977899 -3.47087 0
M  V30 3799 O 381.51 -0.072685 -4.12336 0
M  V30 3800 H 380.851 -0.253443 -0.613728 0
M  V30 3801 H 383.381 -1.32061 -1.56272 0
M  V30 3802 H 383.391 -0.916739 -3.97567 0
M  V30 3803 H 382.066 -2.01807 -3.63657 0
M  V30 3804 H 380.643 -0.188703 -3.72422 0
M  V30 3805 N 382.828 1.3818 -0.7579 0
M  V30 3806 C 383.775 2.30416 -0.133057 0
M  V30 3807 C 384.745 1.50398 0.704957 0
M  V30 3808 O 385.93 1.79014 0.660192 0
M  V30 3809 C 383.07 3.36834 0.750813 0
M  V30 3810 C 382.183 4.31879 -0.102297 0
M  V30 3811 C 381.318 5.25368 0.784979 0
M  V30 3812 C 380.357 6.12058 -0.0715046 0
M  V30 3813 N 379.494 6.97832 0.772972 0
M  V30 3814 H 384.334 2.83274 -0.925186 0
M  V30 3815 H 381.871 1.39461 -0.467866 0
M  V30 3816 H 383.829 3.97145 1.27794 0
M  V30 3817 H 382.459 2.85374 1.50868 0
M  V30 3818 H 381.511 3.72991 -0.747095 0
M  V30 3819 H 382.823 4.92921 -0.763552 0
M  V30 3820 H 381.977 5.90818 1.37911 0
M  V30 3821 H 380.716 4.64703 1.47996 0
M  V30 3822 H 379.721 5.456 -0.678272 0
M  V30 3823 H 380.946 6.74793 -0.763606 0
M  V30 3824 H 378.892 6.3971 1.45282 0
M  V30 3825 H 378.809 7.55812 0.168709 0
M  V30 3826 H 380.077 7.67687 1.35194 0
M  V30 3827 N 384.306 0.507319 1.49211 0
M  V30 3828 C 385.554 -0.0348839 2.0207 0
M  V30 3829 C 385.875 -1.36898 1.38866 0
M  V30 3830 O 385.145 -1.88133 0.546151 0
M  V30 3831 H 383.725 -0.0158812 0.746831 0
M  V30 3832 H 386.387 0.665998 1.83168 0
M  V30 3833 H 385.483 -0.159917 3.1169 0
M  V30 3834 N 385.784 -1.5574 0.241426 0
M  V30 3835 C 386.747 -2.19877 -0.647063 0
M  V30 3836 C 387.747 -1.16642 -1.10686 0
M  V30 3837 O 388.937 -1.41757 -1.01245 0
M  V30 3838 C 386.069 -2.83797 -1.88871 0
M  V30 3839 H 387.262 -2.99772 -0.087574 0
M  V30 3840 H 384.815 -1.56298 -0.00813574 0
M  V30 3841 H 385.55 -2.07824 -2.48957 0
M  V30 3842 H 385.335 -3.59414 -1.56728 0
M  V30 3843 H 386.825 -3.32898 -2.52129 0
M  V30 3844 N 387.262 0.0317525 -1.57568 0
M  V30 3845 C 388.539 0.758366 -1.803 0
M  V30 3846 C 388.919 1.93718 -0.838845 0
M  V30 3847 O 388.267 2.28187 0.119571 0
M  V30 3848 C 388.477 1.19392 -3.27943 0
M  V30 3849 C 389.825 1.61094 -3.92854 0
M  V30 3850 O 390.849 1.28857 -3.32076 0
M  V30 3851 O 389.708 2.20918 -4.99858 0
M  V30 3852 H 386.802 0.366514 -0.741348 0
M  V30 3853 H 389.348 0.00873765 -1.69698 0
M  V30 3854 H 388.12 0.352275 -3.89711 0
M  V30 3855 H 387.743 2.00365 -3.43424 0
M  V30 3856 N 388.74 1.54641 0.303973 0
M  V30 3857 C 389.67 1.88386 1.3796 0
M  V30 3858 C 390.651 0.742485 1.5304 0
M  V30 3859 O 391.836 0.997959 1.66597 0
M  V30 3860 C 388.966 2.12854 2.74427 0
M  V30 3861 C 387.92 3.28702 2.74115 0
M  V30 3862 C 387.246 3.38582 4.13844 0
M  V30 3863 C 388.546 4.65881 2.3612 0
M  V30 3864 H 390.24 2.78474 1.09966 0
M  V30 3865 H 387.786 1.33988 0.527556 0
M  V30 3866 H 389.739 2.35047 3.49758 0
M  V30 3867 H 388.463 1.19535 3.03939 0
M  V30 3868 H 387.122 3.06428 2.0124 0
M  V30 3869 H 386.77 2.42784 4.40528 0
M  V30 3870 H 386.47 4.16453 4.14537 0
M  V30 3871 H 387.994 3.63031 4.90959 0
M  V30 3872 H 389.408 4.87823 3.01167 0
M  V30 3873 H 387.805 5.46444 2.48031 0
M  V30 3874 H 388.875 4.66799 1.3125 0
M  V30 3875 N 390.218 -0.567019 1.47046 0
M  V30 3876 C 391.443 -1.3551 1.57009 0
M  V30 3877 C 391.868 -1.86841 0.217259 0
M  V30 3878 O 391.226 -1.62435 -0.805268 0
M  V30 3879 C 391.274 -2.50777 2.5912 0
M  V30 3880 O 390.378 -3.52706 2.13711 0
M  V30 3881 H 389.719 -0.402919 0.52778 0
M  V30 3882 H 392.249 -0.686241 1.92748 0
M  V30 3883 H 392.259 -2.97481 2.79229 0
M  V30 3884 H 390.934 -2.12771 3.57353 0
M  V30 3885 H 389.511 -3.12374 2.03659 0
M  V30 3886 N 391.696 -1.35014 -0.812953 0
M  V30 3887 C 392.626 -1.30069 -1.93919 0
M  V30 3888 C 393.607 -0.176275 -1.69184 0
M  V30 3889 O 394.792 -0.370227 -1.90638 0
M  V30 3890 C 391.922 -1.06547 -3.30552 0
M  V30 3891 C 390.876 -2.15561 -3.69753 0
M  V30 3892 C 390.202 -1.77214 -5.04479 0
M  V30 3893 C 391.502 -3.57476 -3.808 0
M  V30 3894 H 393.196 -2.24303 -1.98314 0
M  V30 3895 H 390.742 -1.07977 -0.952736 0
M  V30 3896 H 392.695 -1.01729 -4.08937 0
M  V30 3897 H 391.419 -0.0875719 -3.26483 0
M  V30 3898 H 390.078 -2.19466 -2.9365 0
M  V30 3899 H 389.726 -0.780589 -4.96906 0
M  V30 3900 H 389.426 -2.50184 -5.31678 0
M  V30 3901 H 390.95 -1.7391 -5.8531 0
M  V30 3902 H 392.364 -3.55929 -4.4943 0
M  V30 3903 H 390.761 -4.29152 -4.19462 0
M  V30 3904 H 391.831 -3.94091 -2.82525 0
M  V30 3905 N 393.175 1.03435 -1.18907 0
M  V30 3906 C 394.591 1.28973 -0.940111 0
M  V30 3907 C 394.791 1.97676 0.390691 0
M  V30 3908 O 393.847 2.26127 1.12352 0
M  V30 3909 C 395.16 2.14221 -2.11021 0
M  V30 3910 C 396.708 2.27547 -2.14922 0
M  V30 3911 C 397.183 3.16164 -3.31367 0
M  V30 3912 N 398.674 3.23752 -3.31269 0
M  V30 3913 C 399.409 3.92495 -4.18014 0
M  V30 3914 N 398.905 4.63515 -5.14904 0
M  V30 3915 N 400.698 3.88838 -4.05908 0
M  V30 3916 H 392.849 0.57252 -2.04538 0
M  V30 3917 H 395.112 0.315184 -0.894071 0
M  V30 3918 H 394.818 1.71054 -3.073 0
M  V30 3919 H 394.692 3.14919 -2.0762 0
M  V30 3920 H 397.079 2.69947 -1.19217 0
M  V30 3921 H 397.16 1.26418 -2.22378 0
M  V30 3922 H 396.804 2.74474 -4.27348 0
M  V30 3923 H 396.734 4.17339 -3.21148 0
M  V30 3924 H 399.225 2.73167 -2.61129 0
M  V30 3925 H 399.538 5.13583 -5.77453 0
M  V30 3926 H 397.883 4.62398 -5.18857 0
M  V30 3927 H 401.074 3.32491 -3.29495 0
M  V30 3928 H 401.247 4.4214 -4.73726 0
M  V30 3929 N 394.653 0.992116 1.22453 0
M  V30 3930 C 395.583 0.561677 2.26644 0
M  V30 3931 C 396.564 -0.411055 1.65059 0
M  V30 3932 O 397.749 -0.301861 1.9184 0
M  V30 3933 C 394.879 -0.125247 3.47074 0
M  V30 3934 C 393.833 0.765948 4.21091 0
M  V30 3935 C 393.159 -0.0538484 5.34673 0
M  V30 3936 C 394.459 2.06242 4.79856 0
M  V30 3937 H 396.153 1.43259 2.62902 0
M  V30 3938 H 393.699 0.690283 1.26377 0
M  V30 3939 H 395.652 -0.437764 4.1912 0
M  V30 3940 H 394.376 -1.03069 3.0991 0
M  V30 3941 H 393.035 1.0621 3.50878 0
M  V30 3942 H 392.683 -0.960188 4.9375 0
M  V30 3943 H 392.383 0.539415 5.85119 0
M  V30 3944 H 393.907 -0.360477 6.09535 0
M  V30 3945 H 395.321 1.8139 5.43848 0
M  V30 3946 H 393.718 2.60444 5.40638 0
M  V30 3947 H 394.788 2.74167 3.99951 0
M  V30 3948 N 396.131 -1.37776 0.765217 0
M  V30 3949 C 397.377 -2.00145 0.327072 0
M  V30 3950 C 397.71 -1.60607 -1.09175 0
M  V30 3951 O 396.985 -0.849127 -1.74986 0
M  V30 3952 C 397.268 -3.57109 0.46319 0
M  V30 3953 C 397.121 -4.06576 1.92395 0
M  V30 3954 C 398.44 -4.39888 -0.136473 0
M  V30 3955 H 395.559 -0.727113 0.120316 0
M  V30 3956 H 398.201 -1.63549 0.967039 0
M  V30 3957 H 396.351 -3.88414 -0.0816358 0
M  V30 3958 H 398.023 -3.85864 2.52798 0
M  V30 3959 H 396.266 -3.59011 2.43503 0
M  V30 3960 H 396.937 -5.15639 1.97028 0
M  V30 3961 H 399.413 -4.14803 0.328317 0
M  V30 3962 H 398.289 -5.48899 -0.0110582 0
M  V30 3963 H 398.55 -4.24758 -1.22608 0
M  V30 3964 N 397.609 -0.515225 -1.4894 0
M  V30 3965 C 398.886 0.0879088 -1.95402 0
M  V30 3966 C 399.266 1.52745 -1.45712 0
M  V30 3967 O 398.614 2.18238 -0.677093 0
M  V30 3968 C 398.824 -0.0141055 -3.48997 0
M  V30 3969 C 400.172 0.152646 -4.24326 0
M  V30 3970 O 401.196 0.0604025 -3.56149 0
M  V30 3971 O 400.055 0.34384 -5.45417 0
M  V30 3972 H 397.149 0.0874636 -0.822362 0
M  V30 3973 H 399.695 -0.578775 -1.59525 0
M  V30 3974 H 398.467 -1.01745 -3.77841 0
M  V30 3975 H 398.09 0.692091 -3.9153 0
M  V30 3976 N 399.087 1.5561 -0.249682 0
M  V30 3977 C 400.335 1.98618 0.373548 0
M  V30 3978 C 400.656 1.13919 1.58264 0
M  V30 3979 O 399.926 0.222637 1.94631 0
M  V30 3980 H 398.506 0.733571 0.141006 0
M  V30 3981 H 401.168 1.91748 -0.349117 0
M  V30 3982 H 400.264 3.04584 0.680796 0
M  V30 3983 N 400.565 -0.0233959 1.57583 0
M  V30 3984 C 401.811 -0.714119 1.89811 0
M  V30 3985 C 402.144 -1.74702 0.848113 0
M  V30 3986 O 401.419 -1.94023 -0.136135 0
M  V30 3987 C 401.702 -1.37853 3.32669 0
M  V30 3988 C 401.555 -0.358764 4.48367 0
M  V30 3989 C 402.874 -2.31101 3.7454 0
M  V30 3990 H 399.993 -0.25814 0.690314 0
M  V30 3991 H 402.635 0.0230927 1.89986 0
M  V30 3992 H 400.785 -2.00689 3.3265 0
M  V30 3993 H 402.457 0.268115 4.6052 0
M  V30 3994 H 400.7 0.321387 4.32608 0
M  V30 3995 H 401.371 -0.862242 5.45224 0
M  V30 3996 H 403.847 -1.78304 3.75961 0
M  V30 3997 H 402.723 -2.74567 4.75294 0
M  V30 3998 H 402.984 -3.18018 3.0711 0
M  V30 3999 N 402.043 -1.548 -0.295768 0
M  V30 4000 C 403.271 -1.78327 -1.04914 0
M  V30 4001 C 403.686 -0.545316 -1.80753 0
M  V30 4002 O 403.043 0.485013 -1.75937 0
M  V30 4003 C 403.094 -2.99418 -2.02561 0
M  V30 4004 O 402.815 -4.18431 -1.29798 0
M  V30 4005 C 404.316 -3.35375 -2.89895 0
M  V30 4006 H 401.536 -0.594618 -0.310918 0
M  V30 4007 H 404.08 -2.01763 -0.333454 0
M  V30 4008 H 402.235 -2.78175 -2.69624 0
M  V30 4009 H 402.649 -4.86736 -1.95419 0
M  V30 4010 H 404.123 -4.23332 -3.54251 0
M  V30 4011 H 404.6 -2.53761 -3.58472 0
M  V30 4012 H 405.206 -3.58796 -2.28355 0
M  V30 4013 N 403.521 0.559213 -1.47345 0
M  V30 4014 C 404.431 1.69388 -1.62311 0
M  V30 4015 C 405.447 1.6648 -0.505993 0
M  V30 4016 O 406.623 1.85964 -0.773262 0
M  V30 4017 C 403.688 3.05894 -1.63185 0
M  V30 4018 C 402.749 3.19885 -2.86307 0
M  V30 4019 C 401.982 4.49879 -2.87131 0
M  V30 4020 O 402.205 5.35217 -1.97229 0
M  V30 4021 O 401.139 4.67618 -3.78968 0
M  V30 4022 H 404.965 1.59706 -2.58317 0
M  V30 4023 H 402.55 0.728989 -1.30407 0
M  V30 4024 H 404.432 3.87133 -1.66451 0
M  V30 4025 H 403.107 3.15964 -0.70345 0
M  V30 4026 H 402.014 2.38052 -2.88587 0
M  V30 4027 H 403.347 3.14718 -3.78435 0
M  V30 4028 N 404.999 1.35443 0.805782 0
M  V30 4029 C 406.239 1.30127 1.57627 0
M  V30 4030 C 406.603 -0.122567 1.91608 0
M  V30 4031 O 407.804 -0.300107 2.67119 0
M  V30 4032 C 406.075 2.18314 2.82973 0
M  V30 4033 S 407.634 2.30521 3.7337 0
M  V30 4034 H 404.452 0.462439 0.540066 0
M  V30 4035 H 407.054 1.70843 0.95042 0
M  V30 4036 H 405.758 3.20741 2.56034 0
M  V30 4037 H 405.289 1.78558 3.50543 0
M  V30 4038 H 407.304 1.49062 4.73281 0
M  V30 4039 N 406.477 -1.02803 1.19454 0
M  V30 4040 C 407.702 -1.80378 1.02364 0
M  V30 4041 C 408.127 -1.83282 -0.423007 0
M  V30 4042 O 407.485 -1.25945 -1.30413 0
M  V30 4043 C 407.533 -3.23248 1.59821 0
M  V30 4044 O 406.637 -4.04 0.828105 0
M  V30 4045 H 405.978 -0.556799 0.361761 0
M  V30 4046 H 408.508 -1.29385 1.58495 0
M  V30 4047 H 408.518 -3.73994 1.63073 0
M  V30 4048 H 407.193 -3.2045 2.65113 0
M  V30 4049 H 405.77 -3.62635 0.86891 0
M  V30 4050 N 407.956 -0.998596 -1.21925 0
M  V30 4051 C 409.204 -0.676325 -1.90448 0
M  V30 4052 C 409.525 0.794719 -1.78071 0
M  V30 4053 O 408.795 1.5701 -1.17152 0
M  V30 4054 H 407.375 -0.247165 -0.704925 0
M  V30 4055 H 410.037 -1.26633 -1.48156 0
M  V30 4056 H 409.133 -0.943858 -2.97486 0
M  V30 4057 N 409.434 1.37368 -0.772513 0
M  V30 4058 C 410.85 1.53059 -0.452231 0
M  V30 4059 C 411.05 1.73065 1.03203 0
M  V30 4060 O 410.106 1.75245 1.81784 0
M  V30 4061 C 411.419 2.72659 -1.26797 0
M  V30 4062 C 412.967 2.86521 -1.25995 0
M  V30 4063 C 413.442 4.09105 -2.05905 0
M  V30 4064 N 414.933 4.16219 -2.03263 0
M  V30 4065 C 415.668 5.10107 -2.61875 0
M  V30 4066 N 415.164 6.09547 -3.29278 0
M  V30 4067 N 416.957 5.02596 -2.51701 0
M  V30 4068 H 409.108 1.22634 -1.7342 0
M  V30 4069 H 411.371 0.597206 -0.736239 0
M  V30 4070 H 411.077 2.64343 -2.31982 0
M  V30 4071 H 410.951 3.66363 -0.897672 0
M  V30 4072 H 413.338 2.94308 -0.216081 0
M  V30 4073 H 413.419 1.93774 -1.66989 0
M  V30 4074 H 413.063 4.0208 -3.10313 0
M  V30 4075 H 412.993 5.00968 -1.62292 0
M  V30 4076 H 415.484 3.45012 -1.54192 0
M  V30 4077 H 415.797 6.77718 -3.71374 0
M  V30 4078 H 414.142 6.09824 -3.33377 0
M  V30 4079 H 417.333 4.23855 -1.98657 0
M  V30 4080 H 417.506 5.75582 -2.97673 0
M  V30 4081 N 410.912 0.523116 1.48665 0
M  V30 4082 C 411.842 -0.23231 2.32342 0
M  V30 4083 C 412.823 -0.941637 1.41659 0
M  V30 4084 O 414.008 -0.928751 1.70552 0
M  V30 4085 C 411.138 -1.28387 3.22698 0
M  V30 4086 C 410.092 -0.693098 4.22351 0
M  V30 4087 C 409.418 -1.8468 5.01794 0
M  V30 4088 C 410.718 0.33063 5.21252 0
M  V30 4089 H 412.412 0.466192 2.95748 0
M  V30 4090 H 409.958 0.225643 1.42221 0
M  V30 4091 H 411.911 -1.82024 3.80059 0
M  V30 4092 H 410.635 -2.01186 2.57278 0
M  V30 4093 H 409.294 -0.178299 3.66166 0
M  V30 4094 H 408.942 -2.56301 4.32804 0
M  V30 4095 H 408.642 -1.45747 5.69238 0
M  V30 4096 H 410.166 -2.38709 5.62006 0
M  V30 4097 H 411.58 -0.118407 5.73178 0
M  V30 4098 H 409.977 0.636974 5.9671 0
M  V30 4099 H 411.047 1.23883 4.68808 0
M  V30 4100 N 412.39 -1.55475 0.257931 0
M  V30 4101 C 413.3 -2.2549 -0.647425 0
M  V30 4102 C 414.316 -1.2748 -1.18427 0
M  V30 4103 O 415.492 -1.6038 -1.2182 0
M  V30 4104 C 412.557 -2.94916 -1.82278 0
M  V30 4105 C 411.618 -4.08363 -1.32432 0
M  V30 4106 C 410.851 -4.74469 -2.44366 0
M  V30 4107 O 411.074 -4.39701 -3.63344 0
M  V30 4108 O 410.008 -5.62763 -2.13497 0
M  V30 4109 H 413.834 -3.03593 -0.0807707 0
M  V30 4110 H 411.419 -1.49377 0.0259962 0
M  V30 4111 H 413.301 -3.38606 -2.50846 0
M  V30 4112 H 411.976 -2.19744 -2.37685 0
M  V30 4113 H 410.883 -3.69166 -0.605605 0
M  V30 4114 H 412.216 -4.85385 -0.816211 0
M  V30 4115 N 413.868 0.0150385 -1.57593 0
M  V30 4116 C 415.114 0.704043 -1.90187 0
M  V30 4117 C 415.447 1.74249 -0.857366 0
M  V30 4118 O 414.722 1.94092 0.125843 0
M  V30 4119 C 415.005 1.36087 -3.33395 0
M  V30 4120 C 414.858 0.334981 -4.48551 0
M  V30 4121 C 416.177 2.29112 -3.7576 0
M  V30 4122 H 413.296 0.254475 -0.691673 0
M  V30 4123 H 415.938 -0.0331678 -1.89971 0
M  V30 4124 H 414.088 1.98922 -3.3371 0
M  V30 4125 H 415.76 -0.292534 -4.60372 0
M  V30 4126 H 414.003 -0.344325 -4.32431 0
M  V30 4127 H 414.674 0.833316 -5.45674 0
M  V30 4128 H 417.15 1.76308 -3.76902 0
M  V30 4129 H 416.026 2.72043 -4.76743 0
M  V30 4130 H 416.287 3.16385 -3.08793 0
M  V30 4131 N 415.346 1.54954 0.287554 0
M  V30 4132 C 416.762 1.46469 0.633964 0
M  V30 4133 C 416.962 0.666865 1.90145 0
M  V30 4134 O 416.018 0.179906 2.51858 0
M  V30 4135 C 417.331 2.90556 0.774454 0
M  V30 4136 C 418.879 3.00681 0.869462 0
M  V30 4137 C 419.354 4.45993 1.04184 0
M  V30 4138 N 420.845 4.4976 1.10772 0
M  V30 4139 C 421.58 5.59393 1.25964 0
M  V30 4140 N 421.076 6.78923 1.37968 0
M  V30 4141 N 422.869 5.47107 1.28959 0
M  V30 4142 H 415.02 2.05288 -0.545041 0
M  V30 4143 H 417.283 0.930305 -0.182308 0
M  V30 4144 H 416.989 3.51594 -0.086207 0
M  V30 4145 H 416.863 3.38743 1.6593 0
M  V30 4146 H 419.25 2.39749 1.7206 0
M  V30 4147 H 419.331 2.55769 -0.0396831 0
M  V30 4148 H 418.975 5.07524 0.195422 0
M  V30 4149 H 418.905 4.88548 1.96542 0
M  V30 4150 H 421.396 3.63651 1.02794 0
M  V30 4151 H 421.709 7.58231 1.49353 0
M  V30 4152 H 420.054 6.81763 1.34999 0
M  V30 4153 H 423.245 4.52668 1.19202 0
M  V30 4154 H 423.418 6.32595 1.40455 0
M  V30 4155 N 416.824 -0.551391 1.4764 0
M  V30 4156 C 418.071 -1.3083 1.54563 0
M  V30 4157 C 418.399 -1.93359 0.210361 0
M  V30 4158 O 417.654 -1.78721 -0.797332 0
M  V30 4159 C 417.953 -2.43469 2.61644 0
M  V30 4160 C 417.619 -1.98732 4.04742 0
M  V30 4161 C 416.281 -1.86248 4.43695 0
M  V30 4162 C 418.633 -1.64659 4.94507 0
M  V30 4163 C 415.961 -1.37995 5.70241 0
M  V30 4164 C 418.313 -1.17875 6.21521 0
M  V30 4165 C 416.977 -1.03992 6.5935 0
M  V30 4166 H 416.247 -0.478741 0.565587 0
M  V30 4167 H 418.894 -0.617697 1.81264 0
M  V30 4168 H 417.199 -3.18109 2.28722 0
M  V30 4169 H 418.896 -3.01642 2.64222 0
M  V30 4170 H 415.486 -2.09393 3.73968 0
M  V30 4171 H 419.67 -1.73174 4.65107 0
M  V30 4172 H 414.926 -1.25915 5.98294 0
M  V30 4173 H 419.1 -0.905739 6.90485 0
M  V30 4174 H 416.727 -0.663794 7.57296 0
M  V30 4175 N 418.302 -1.35869 -0.798587 0
M  V30 4176 C 419.234 -1.25305 -1.91915 0
M  V30 4177 C 420.247 -0.174548 -1.61862 0
M  V30 4178 O 421.436 -0.428499 -1.73281 0
M  V30 4179 C 418.536 -0.9086 -3.26493 0
M  V30 4180 C 417.709 -2.08711 -3.84394 0
M  V30 4181 C 416.768 -1.71717 -4.97393 0
M  V30 4182 O 415.794 -2.43692 -5.14396 0
M  V30 4183 N 416.996 -0.645473 -5.769 0
M  V30 4184 H 419.761 -2.21849 -2.01502 0
M  V30 4185 H 417.322 -1.29143 -0.976408 0
M  V30 4186 H 419.314 -0.642455 -3.99568 0
M  V30 4187 H 417.884 -0.0325815 -3.12583 0
M  V30 4188 H 417.104 -2.51659 -3.03416 0
M  V30 4189 H 418.392 -2.87468 -4.19809 0
M  V30 4190 H 417.79 -0.047648 -5.6568 0
M  V30 4191 H 416.347 -0.43913 -6.50319 0
M  V30 4192 N 419.78 1.02168 -1.19998 0
M  V30 4193 C 421.028 1.75338 -1.00504 0
M  V30 4194 C 421.349 1.89387 0.464506 0
M  V30 4195 O 420.619 1.43268 1.33608 0
M  V30 4196 H 419.199 0.649564 -0.368885 0
M  V30 4197 H 421.861 1.23205 -1.51018 0
M  V30 4198 H 420.957 2.75892 -1.45912 0
M  V30 4199 N 421.258 1.00505 1.21394 0
M  V30 4200 C 422.168 0.574806 2.27449 0
M  V30 4201 C 423.184 -0.382206 1.6975 0
M  V30 4202 O 424.36 -0.246027 1.99892 0
M  V30 4203 C 421.425 -0.0917414 3.46579 0
M  V30 4204 C 420.486 0.909758 4.1955 0
M  V30 4205 C 419.719 0.274924 5.32991 0
M  V30 4206 O 419.942 -0.928254 5.62796 0
M  V30 4207 O 418.876 0.985877 5.93771 0
M  V30 4208 H 422.702 1.45744 2.66444 0
M  V30 4209 H 420.287 0.773923 1.27792 0
M  V30 4210 H 422.169 -0.464551 4.18832 0
M  V30 4211 H 420.844 -0.948755 3.09484 0
M  V30 4212 H 419.751 1.33372 3.49518 0
M  V30 4213 H 421.084 1.73636 4.60555 0
M  V30 4214 N 422.737 -1.36956 0.779787 0
M  V30 4215 C 423.983 -2.00237 0.357324 0
M  V30 4216 C 424.338 -1.60787 -1.05666 0
M  V30 4217 O 423.631 -0.847836 -1.71821 0
M  V30 4218 C 423.825 -3.54585 0.447686 0
M  V30 4219 C 423.654 -4.09025 1.86891 0
M  V30 4220 C 422.424 -4.39612 2.49138 0
M  V30 4221 C 424.622 -4.29461 2.82963 0
M  V30 4222 N 422.604 -4.79816 3.82949 0
M  V30 4223 C 423.975 -4.72363 4.01588 0
M  V30 4224 C 426.03 -4.1161 2.80145 0
M  V30 4225 C 424.733 -4.99284 5.17791 0
M  V30 4226 C 426.759 -4.39672 3.95528 0
M  V30 4227 C 426.121 -4.82822 5.12896 0
M  V30 4228 H 422.22 -0.76148 0.177968 0
M  V30 4229 H 424.804 -1.6613 1.01533 0
M  V30 4230 H 422.975 -3.87982 -0.180184 0
M  V30 4231 H 424.707 -4.047 0.0023955 0
M  V30 4232 H 421.462 -4.28975 2.00693 0
M  V30 4233 H 421.886 -5.04216 4.51769 0
M  V30 4234 H 426.528 -3.77415 1.90572 0
M  V30 4235 H 424.246 -5.32365 6.07958 0
M  V30 4236 H 427.832 -4.27441 3.94697 0
M  V30 4237 H 426.712 -5.04118 6.00695 0
M  V30 4238 N 424.215 -0.530993 -1.48385 0
M  V30 4239 C 425.463 0.00273189 -2.021 0
M  V30 4240 C 425.784 1.34672 -1.41027 0
M  V30 4241 O 425.054 1.8724 -0.576012 0
M  V30 4242 H 423.634 0.00399774 -0.746989 0
M  V30 4243 H 426.296 -0.695054 -1.82085 0
M  V30 4244 H 425.392 0.11031 -3.11905 0
M  V30 4245 N 425.693 1.55336 -0.266172 0
M  V30 4246 C 426.921 2.03801 0.356756 0
M  V30 4247 C 427.336 1.14485 1.50129 0
M  V30 4248 O 426.693 0.163121 1.8177 0
M  V30 4249 C 426.744 3.51455 0.846281 0
M  V30 4250 O 426.465 4.37371 -0.252663 0
M  V30 4251 C 427.966 4.15767 1.53794 0
M  V30 4252 H 425.186 0.665906 0.0825218 0
M  V30 4253 H 427.73 2.00636 -0.39566 0
M  V30 4254 H 425.885 3.55092 1.54881 0
M  V30 4255 H 426.299 5.24358 0.122173 0
M  V30 4256 H 427.773 5.20714 1.83198 0
M  V30 4257 H 428.25 3.63404 2.46646 0
M  V30 4258 H 428.856 4.16107 0.879488 0
M  V30 4259 N 427.171 -0.0066808 1.57599 0
M  V30 4260 C 428.42 -0.692078 1.89455 0
M  V30 4261 C 428.733 -1.75306 0.867586 0
M  V30 4262 O 429.939 -2.49262 1.07614 0
M  V30 4263 C 428.395 -1.2821 3.36289 0
M  V30 4264 C 428.003 -0.256291 4.47266 0
M  V30 4265 C 429.747 -1.94608 3.77264 0
M  V30 4266 C 427.654 -0.855927 5.85173 0
M  V30 4267 H 426.584 -0.262252 0.706923 0
M  V30 4268 H 429.235 0.052769 1.83424 0
M  V30 4269 H 427.617 -2.0774 3.37135 0
M  V30 4270 H 428.791 0.513923 4.57925 0
M  V30 4271 H 427.106 0.306862 4.15268 0
M  V30 4272 H 429.703 -2.40364 4.77629 0
M  V30 4273 H 430.046 -2.77382 3.10427 0
M  V30 4274 H 430.579 -1.21822 3.78688 0
M  V30 4275 H 427.318 -0.0671161 6.55466 0
M  V30 4276 H 426.838 -1.59546 5.78191 0
M  V30 4277 H 428.517 -1.35658 6.32618 0
M  V30 4278 N 428.649 -1.55105 -0.279332 0
M  V30 4279 C 429.889 -1.7716 -1.01949 0
M  V30 4280 C 430.253 -0.557511 -1.83728 0
M  V30 4281 O 431.454 -0.656198 -2.60667 0
M  V30 4282 C 429.725 -3.0372 -1.88385 0
M  V30 4283 S 431.284 -3.46868 -2.68752 0
M  V30 4284 H 428.102 -0.62253 -0.343478 0
M  V30 4285 H 430.704 -1.93329 -0.290572 0
M  V30 4286 H 429.408 -3.90184 -1.2722 0
M  V30 4287 H 428.939 -2.902 -2.65608 0
M  V30 4288 H 430.954 -3.05643 -3.90892 0
M  V30 4289 N 430.127 0.543554 -1.4793 0
M  V30 4290 C 431.404 1.30458 -1.4574 0
M  V30 4291 C 431.784 2.1048 -0.161692 0
M  V30 4292 O 431.132 2.11831 0.856734 0
M  V30 4293 C 431.342 2.19754 -2.71126 0
M  V30 4294 C 432.69 2.80334 -3.18901 0
M  V30 4295 O 433.714 2.30049 -2.71948 0
M  V30 4296 O 432.573 3.71766 -4.00565 0
M  V30 4297 H 429.667 0.588117 -0.581418 0
M  V30 4298 H 432.213 0.561328 -1.60147 0
M  V30 4299 H 430.985 1.60316 -3.56952 0
M  V30 4300 H 430.608 3.01351 -2.59371 0
M  V30 4301 N 431.605 1.3629 0.791371 0
M  V30 4302 C 432.882 1.20962 1.53712 0
M  V30 4303 C 433.262 -0.205021 2.10102 0
M  V30 4304 O 432.61 -1.21042 1.93807 0
M  V30 4305 C 432.82 2.29002 2.63361 0
M  V30 4306 C 434.168 2.65572 3.31295 0
M  V30 4307 O 435.192 2.2803 2.73643 0
M  V30 4308 O 434.051 3.3018 4.35481 0
M  V30 4309 H 431.145 0.47086 0.679867 0
M  V30 4310 H 433.691 1.48016 0.830021 0
M  V30 4311 H 432.463 3.2382 2.19674 0
M  V30 4312 H 432.086 2.03303 3.41692 0
M  V30 4313 N 433.083 -1.0153 1.20538 0
M  V30 4314 C 434.331 -1.74803 1.01432 0
M  V30 4315 C 434.652 -1.8963 -0.454456 0
M  V30 4316 O 433.922 -1.43975 -1.32846 0
M  V30 4317 H 432.502 -0.647598 0.372324 0
M  V30 4318 H 435.164 -1.22402 1.5167 0
M  V30 4319 H 434.26 -2.75114 1.47373 0
M  V30 4320 N 434.561 -1.01147 -1.20859 0
M  V30 4321 C 435.807 -0.708598 -1.90658 0
M  V30 4322 C 436.162 0.753069 -1.7705 0
M  V30 4323 O 435.455 1.53952 -1.14059 0
M  V30 4324 C 435.649 -1.0727 -3.40922 0
M  V30 4325 C 435.478 -2.56821 -3.69152 0
M  V30 4326 C 434.248 -3.23524 -3.8815 0
M  V30 4327 C 436.446 -3.54997 -3.72131 0
M  V30 4328 N 434.428 -4.62359 -4.03853 0
M  V30 4329 C 435.799 -4.79371 -3.93196 0
M  V30 4330 C 437.854 -3.49042 -3.55069 0
M  V30 4331 C 436.557 -5.98512 -3.98969 0
M  V30 4332 C 438.583 -4.67579 -3.6211 0
M  V30 4333 C 437.945 -5.9076 -3.83643 0
M  V30 4334 H 434.044 -0.31088 -0.71755 0
M  V30 4335 H 436.628 -1.29526 -1.45366 0
M  V30 4336 H 434.799 -0.51443 -3.84978 0
M  V30 4337 H 436.531 -0.723891 -3.98173 0
M  V30 4338 H 433.286 -2.73958 -3.86321 0
M  V30 4339 H 433.71 -5.34427 -4.15592 0
M  V30 4340 H 438.352 -2.54808 -3.37391 0
M  V30 4341 H 436.07 -6.93132 -4.15444 0
M  V30 4342 H 439.656 -4.64581 -3.50222 0
M  V30 4343 H 438.536 -6.8095 -3.88944 0
M  V30 4344 N 436.039 1.36541 -0.78704 0
M  V30 4345 C 437.316 1.9355 -0.282424 0
M  V30 4346 C 437.696 1.71919 1.22503 0
M  V30 4347 O 437.044 1.07677 2.01539 0
M  V30 4348 C 437.254 3.4246 -0.672462 0
M  V30 4349 C 438.602 4.19582 -0.650863 0
M  V30 4350 O 439.626 3.50889 -0.612789 0
M  V30 4351 O 438.485 5.42106 -0.691623 0
M  V30 4352 H 435.579 0.824091 -0.0693 0
M  V30 4353 H 438.125 1.45736 -0.869423 0
M  V30 4354 H 436.897 3.51851 -1.71221 0
M  V30 4355 H 436.52 3.97556 -0.0592211 0
M  V30 4356 N 437.518 0.538854 1.48102 0
M  V30 4357 C 438.743 0.0102694 2.07397 0
M  V30 4358 C 439.168 -1.26562 1.39153 0
M  V30 4359 O 438.526 -1.75357 0.460387 0
M  V30 4360 C 438.574 -0.187602 3.60112 0
M  V30 4361 O 437.678 -1.25432 3.92862 0
M  V30 4362 H 437.019 0.0430975 0.6626 0
M  V30 4363 H 439.549 0.749301 1.90385 0
M  V30 4364 H 439.559 -0.407517 4.0596 0
M  V30 4365 H 438.234 0.744386 4.09184 0
M  V30 4366 H 436.811 -1.01636 3.58782 0
M  V30 4367 N 438.996 -1.55193 0.274407 0
M  V30 4368 C 440.226 -2.03692 -0.345442 0
M  V30 4369 C 440.634 -1.15224 -1.50067 0
M  V30 4370 O 439.977 -0.164749 -1.8296 0
M  V30 4371 C 440.039 -3.48325 -0.88939 0
M  V30 4372 C 439.703 -4.56794 0.137115 0
M  V30 4373 C 440.7 -5.11028 0.956378 0
M  V30 4374 C 438.385 -5.01568 0.27115 0
M  V30 4375 C 440.379 -6.08552 1.89587 0
M  V30 4376 C 438.066 -5.98918 1.21412 0
M  V30 4377 C 439.064 -6.52291 2.02498 0
M  V30 4378 O 438.752 -7.47738 2.952 0
M  V30 4379 H 438.484 -0.670893 -0.0829332 0
M  V30 4380 H 441.038 -2.01387 0.404056 0
M  V30 4381 H 439.268 -3.47867 -1.68895 0
M  V30 4382 H 440.957 -3.80167 -1.42225 0
M  V30 4383 H 441.723 -4.7725 0.863559 0
M  V30 4384 H 437.602 -4.5967 -0.349987 0
M  V30 4385 H 441.146 -6.50137 2.52918 0
M  V30 4386 H 437.043 -6.32114 1.30776 0
M  V30 4387 H 437.811 -7.65451 2.89874 0
M  V30 4388 N 440.474 -0.00167713 -1.576 0
M  V30 4389 C 441.751 0.719951 -1.81868 0
M  V30 4390 C 442.131 1.91895 -0.879747 0
M  V30 4391 O 441.479 2.28389 0.0711423 0
M  V30 4392 C 441.689 1.12409 -3.30402 0
M  V30 4393 C 443.037 1.52724 -3.96182 0
M  V30 4394 O 444.061 1.21784 -3.34734 0
M  V30 4395 O 442.92 2.10265 -5.04431 0
M  V30 4396 H 440.014 0.350707 -0.748955 0
M  V30 4397 H 442.56 -0.0272597 -1.69678 0
M  V30 4398 H 441.332 0.269532 -3.90371 0
M  V30 4399 H 440.955 1.93035 -3.47596 0
M  V30 4400 N 441.952 1.55251 0.271103 0
M  V30 4401 C 442.915 1.87484 1.31842 0
M  V30 4402 C 443.915 0.749545 1.42262 0
M  V30 4403 O 445.105 1.01771 1.4138 0
M  V30 4404 C 442.237 2.0818 2.69951 0
M  V30 4405 H 443.43 2.81108 1.0449 0
M  V30 4406 H 440.983 1.47771 0.509258 0
M  V30 4407 H 441.718 1.16944 3.02481 0
M  V30 4408 H 441.503 2.90114 2.63774 0
M  V30 4409 H 442.993 2.34385 3.4562 0
M  V30 4410 N 443.43 -0.535701 1.48216 0
M  V30 4411 C 444.393 -1.623 1.61838 0
M  V30 4412 C 445.393 -1.53087 0.492024 0
M  V30 4413 O 446.583 -1.5686 0.757668 0
M  V30 4414 C 443.715 -3.01907 1.58319 0
M  V30 4415 H 444.908 -1.51564 2.58783 0
M  V30 4416 H 442.461 -0.757317 1.36727 0
M  V30 4417 H 443.196 -3.18155 0.628299 0
M  V30 4418 H 442.981 -3.10003 2.40085 0
M  V30 4419 H 444.471 -3.80969 1.71033 0
M  V30 4420 N 444.908 -1.36708 -0.784132 0
M  V30 4421 C 446.154 -1.31426 -1.54451 0
M  V30 4422 C 446.487 0.10476 -1.93917 0
M  V30 4423 O 445.762 1.05934 -1.6312 0
M  V30 4424 C 446.045 -2.24189 -2.818 0
M  V30 4425 C 445.898 -3.74813 -2.48667 0
M  V30 4426 C 447.217 -2.15626 -3.83658 0
M  V30 4427 H 444.336 -0.478739 -0.560337 0
M  V30 4428 H 446.978 -1.67305 -0.900498 0
M  V30 4429 H 445.128 -1.93722 -3.36755 0
M  V30 4430 H 446.8 -4.15823 -1.99722 0
M  V30 4431 H 445.043 -3.93989 -1.81535 0
M  V30 4432 H 445.714 -4.35138 -3.39646 0
M  V30 4433 H 448.19 -2.42456 -3.38163 0
M  V30 4434 H 447.066 -2.82694 -4.70506 0
M  V30 4435 H 447.327 -1.14522 -4.27009 0
M  V30 4436 N 446.386 1.0089 -1.21074 0
M  V30 4437 C 447.349 2.0775 -0.968129 0
M  V30 4438 C 448.349 1.6069 0.0593445 0
M  V30 4439 O 449.539 1.73293 -0.177525 0
M  V30 4440 C 446.671 3.37794 -0.459108 0
M  V30 4441 H 447.864 2.30707 -1.9161 0
M  V30 4442 H 445.417 1.17807 -1.02719 0
M  V30 4443 H 446.152 3.20516 0.49397 0
M  V30 4444 H 445.937 3.7328 -1.20019 0
M  V30 4445 H 447.427 4.16454 -0.309099 0
M  V30 4446 N 447.864 1.01787 1.20321 0
M  V30 4447 C 449.104 0.716493 1.91431 0
M  V30 4448 C 449.468 -0.740352 1.77152 0
M  V30 4449 O 450.669 -1.1543 2.42754 0
M  V30 4450 C 448.94 1.14169 3.38674 0
M  V30 4451 S 450.499 0.962482 4.28114 0
M  V30 4452 H 447.317 0.261175 0.661293 0
M  V30 4453 H 449.919 1.30539 1.45533 0
M  V30 4454 H 448.623 2.19784 3.46588 0
M  V30 4455 H 448.154 0.545621 3.89598 0
M  V30 4456 H 450.169 -0.133253 4.96021 0
M  V30 4457 N 449.342 -1.36122 0.79427 0
M  V30 4458 C 450.289 -2.29982 0.194101 0
M  V30 4459 C 451.259 -1.52214 -0.664833 0
M  V30 4460 O 452.444 -1.80702 -0.612498 0
M  V30 4461 C 449.584 -3.38706 -0.661244 0
M  V30 4462 C 448.697 -4.31456 0.216766 0
M  V30 4463 C 447.832 -5.27265 -0.645411 0
M  V30 4464 C 446.871 -6.11653 0.233756 0
M  V30 4465 N 446.008 -6.99636 -0.587682 0
M  V30 4466 H 450.848 -2.80722 0.999965 0
M  V30 4467 H 448.385 -1.38172 0.504677 0
M  V30 4468 H 450.343 -4.00394 -1.17219 0
M  V30 4469 H 448.973 -2.89274 -1.43249 0
M  V30 4470 H 448.025 -3.7088 0.845724 0
M  V30 4471 H 449.337 -4.90724 0.893973 0
M  V30 4472 H 448.491 -5.94266 -1.22198 0
M  V30 4473 H 447.23 -4.68463 -1.35623 0
M  V30 4474 H 446.235 -5.4361 0.82269 0
M  V30 4475 H 447.46 -6.72531 0.942247 0
M  V30 4476 H 445.406 -6.43337 -1.2827 0
M  V30 4477 H 445.323 -7.55993 0.0317402 0
M  V30 4478 H 446.591 -7.71001 -1.14792 0
M  V30 4479 N 450.82 -0.546701 -1.47814 0
M  V30 4480 C 451.752 0.244196 -2.27895 0
M  V30 4481 C 452.765 0.88911 -1.36377 0
M  V30 4482 O 453.954 0.764733 -1.61289 0
M  V30 4483 C 451.054 1.36252 -3.10304 0
M  V30 4484 C 450.227 0.816382 -4.29714 0
M  V30 4485 C 449.286 1.81789 -4.93801 0
M  V30 4486 O 448.312 1.36818 -5.52512 0
M  V30 4487 N 449.514 3.15085 -4.87547 0
M  V30 4488 H 452.279 -0.442694 -2.96412 0
M  V30 4489 H 449.84 -0.382095 -1.57327 0
M  V30 4490 H 451.832 2.03102 -3.50045 0
M  V30 4491 H 450.402 1.95281 -2.44099 0
M  V30 4492 H 449.622 -0.0285981 -3.9419 0
M  V30 4493 H 450.91 0.430668 -5.06974 0
M  V30 4494 H 450.308 3.54275 -4.41028 0
M  V30 4495 H 448.865 3.77522 -5.31339 0
M  V30 4496 N 452.299 1.55045 -0.282633 0
M  V30 4497 C 453.229 2.2579 0.595066 0
M  V30 4498 C 454.21 1.25074 1.15284 0
M  V30 4499 O 455.395 1.5381 1.18559 0
M  V30 4500 C 452.525 2.98472 1.77572 0
M  V30 4501 C 451.479 4.0618 1.34914 0
M  V30 4502 C 450.805 4.66477 2.6135 0
M  V30 4503 C 452.105 5.1996 0.493821 0
M  V30 4504 H 453.799 2.994 0.00505653 0
M  V30 4505 H 451.345 1.44 0.000992001 0
M  V30 4506 H 453.298 3.46677 2.39568 0
M  V30 4507 H 452.022 2.2241 2.39168 0
M  V30 4508 H 450.681 3.58797 0.752338 0
M  V30 4509 H 450.329 3.87074 3.2122 0
M  V30 4510 H 450.029 5.39207 2.33516 0
M  V30 4511 H 451.553 5.17435 3.24181 0
M  V30 4512 H 452.967 5.64172 1.01898 0
M  V30 4513 H 451.364 5.99299 0.310047 0
M  V30 4514 H 452.434 4.82462 -0.485593 0
M  V30 4515 N 453.777 0.010035 1.57597 0
M  V30 4516 C 455.025 -0.671371 1.90623 0
M  V30 4517 C 455.346 -1.73753 0.885151 0
M  V30 4518 O 454.616 -1.95752 -0.0760611 0
M  V30 4519 H 453.196 -0.250968 0.703579 0
M  V30 4520 H 455.858 0.0533325 1.94827 0
M  V30 4521 H 454.954 -1.13626 2.90681 0
M  V30 4522 N 455.255 -1.55392 -0.262866 0
M  V30 4523 C 456.495 -1.78231 -1.00064 0
M  V30 4524 C 456.859 -0.576966 -1.83126 0
M  V30 4525 O 458.06 -0.683809 -2.59957 0
M  V30 4526 C 456.331 -3.05701 -1.85153 0
M  V30 4527 S 457.89 -3.49699 -2.65058 0
M  V30 4528 H 454.708 -0.626138 -0.336856 0
M  V30 4529 H 457.31 -1.93626 -0.27005 0
M  V30 4530 H 456.014 -3.91511 -1.23074 0
M  V30 4531 H 455.545 -2.93 -2.62515 0
M  V30 4532 H 457.56 -3.09772 -3.87629 0
M  V30 4533 N 456.733 0.527833 -1.48498 0
M  V30 4534 C 458.144 1.10975 -1.50138 0
M  V30 4535 C 458.495 1.943 -0.272378 0
M  V30 4536 O 457.62 2.07319 0.620301 0
M  V30 4537 C 458.215 2.01927 -2.72049 0
M  V30 4538 C 456.774 2.55332 -2.76554 0
M  V30 4539 C 455.921 1.32341 -2.43683 0
M  V30 4540 H 458.872 0.312986 -1.55583 0
M  V30 4541 H 458.893 2.86244 -2.50689 0
M  V30 4542 H 458.405 1.41254 -3.61481 0
M  V30 4543 H 456.506 3.19721 -1.91336 0
M  V30 4544 H 456.619 2.94319 -3.78038 0
M  V30 4545 H 454.983 1.63989 -1.94884 0
M  V30 4546 H 455.766 0.734165 -3.35358 0
M  V30 4547 N 458.211 1.37122 0.776871 0
M  V30 4548 C 459.439 1.3523 1.5659 0
M  V30 4549 C 459.854 -0.0635518 1.88693 0
M  V30 4550 O 459.211 -1.02394 1.51069 0
M  V30 4551 C 459.262 2.18583 2.8793 0
M  V30 4552 O 458.983 3.5465 2.57206 0
M  V30 4553 C 460.484 2.24612 3.82183 0
M  V30 4554 H 457.704 0.4634 0.485285 0
M  V30 4555 H 460.248 1.80392 0.963266 0
M  V30 4556 H 458.403 1.76943 3.4463 0
M  V30 4557 H 458.817 3.98286 3.41275 0
M  V30 4558 H 460.291 2.87267 4.71361 0
M  V30 4559 H 460.768 1.25309 4.20944 0
M  V30 4560 H 461.374 2.66543 3.31414 0
M  V30 4561 N 459.689 -1.00246 1.21608 0
M  V30 4562 C 460.652 -2.07233 0.979133 0
M  V30 4563 C 461.652 -1.6072 -0.0508219 0
M  V30 4564 O 462.842 -1.73196 0.186712 0
M  V30 4565 C 459.974 -3.37546 0.477016 0
M  V30 4566 H 461.167 -2.29687 1.92831 0
M  V30 4567 H 458.72 -1.17261 1.03342 0
M  V30 4568 H 459.455 -3.20773 -0.476966 0
M  V30 4569 H 459.24 -3.72638 1.21997 0
M  V30 4570 H 460.73 -4.16285 0.331181 0
M  V30 4571 N 461.167 -1.02423 -1.1978 0
M  V30 4572 C 462.413 -0.719051 -1.89625 0
M  V30 4573 C 462.746 0.750083 -1.7913 0
M  V30 4574 O 462.021 1.54574 -1.18056 0
M  V30 4575 C 462.304 -1.16499 -3.40735 0
M  V30 4576 C 462.157 -2.695 -3.60125 0
M  V30 4577 C 463.476 -0.742166 -4.33797 0
M  V30 4578 H 460.595 -0.26269 -0.688595 0
M  V30 4579 H 463.237 -1.27333 -1.41018 0
M  V30 4580 H 461.387 -0.69341 -3.82262 0
M  V30 4581 H 463.059 -3.24569 -3.278 0
M  V30 4582 H 461.302 -3.10113 -3.03336 0
M  V30 4583 H 461.973 -2.95757 -4.66081 0
M  V30 4584 H 464.449 -1.1477 -3.99959 0
M  V30 4585 H 463.325 -1.08213 -5.38127 0
M  V30 4586 H 463.586 0.355747 -4.40666 0
M  V30 4587 N 462.645 1.35699 -0.801477 0
M  V30 4588 C 463.873 2.03157 -0.391768 0
M  V30 4589 C 464.288 1.60412 0.995668 0
M  V30 4590 O 463.645 0.799228 1.64069 0
M  V30 4591 C 463.696 3.58566 -0.459671 0
M  V30 4592 O 463.417 3.99756 -1.7924 0
M  V30 4593 C 464.918 4.4328 -0.0421205 0
M  V30 4594 H 462.138 0.651688 -0.159825 0
M  V30 4595 H 464.682 1.73426 -1.08368 0
M  V30 4596 H 462.837 3.86963 0.183939 0
M  V30 4597 H 463.251 4.94387 -1.75162 0
M  V30 4598 H 464.725 5.51821 -0.140754 0
M  V30 4599 H 465.202 4.27383 1.01196 0
M  V30 4600 H 465.808 4.20168 -0.658687 0
M  V30 4601 N 464.123 0.554532 1.47522 0
M  V30 4602 C 465.086 -0.184174 2.28459 0
M  V30 4603 C 466.086 -0.845195 1.36796 0
M  V30 4604 O 467.276 -0.701467 1.59452 0
M  V30 4605 C 464.408 -1.26903 3.16399 0
M  V30 4606 H 465.601 0.526751 2.95238 0
M  V30 4607 H 463.154 0.311375 1.53167 0
M  V30 4608 H 463.889 -2.01244 2.54306 0
M  V30 4609 H 463.674 -0.799883 3.83854 0
M  V30 4610 H 465.164 -1.78794 3.77389 0
M  V30 4611 N 465.601 -1.54893 0.290851 0
M  V30 4612 C 466.85 -1.99111 -0.322113 0
M  V30 4613 C 467.163 -1.18283 -1.55784 0
M  V30 4614 O 468.369 -1.5272 -2.24475 0
M  V30 4615 C 466.825 -3.54442 -0.624438 0
M  V30 4616 C 466.433 -4.44066 0.592373 0
M  V30 4617 C 468.177 -4.07211 -1.19916 0
M  V30 4618 C 466.084 -5.90812 0.263762 0
M  V30 4619 H 465.014 -0.743712 -0.124133 0
M  V30 4620 H 467.665 -1.79132 0.39797 0
M  V30 4621 H 466.047 -3.70281 -1.40384 0
M  V30 4622 H 467.221 -4.39999 1.36886 0
M  V30 4623 H 465.536 -4.02015 1.08502 0
M  V30 4624 H 468.133 -5.14407 -1.45909 0
M  V30 4625 H 468.476 -3.57196 -2.13815 0
M  V30 4626 H 469.009 -3.94873 -0.481687 0
M  V30 4627 H 465.748 -6.44955 1.17105 0
M  V30 4628 H 465.268 -5.97911 -0.475655 0
M  V30 4629 H 466.947 -6.46852 -0.138354 0
M  V30 4630 N 467.08 -0.0183926 -1.57589 0
M  V30 4631 C 468.328 0.661253 -1.90976 0
M  V30 4632 C 468.649 1.73281 -0.894353 0
M  V30 4633 O 467.919 1.9579 0.0656788 0
M  V30 4634 H 466.499 0.247233 -0.704901 0
M  V30 4635 H 469.161 -0.0636639 -1.94796 0
M  V30 4636 H 468.257 1.12083 -2.9128 0
M  V30 4637 N 468.558 1.5553 0.254621 0
M  V30 4638 C 469.974 1.4778 0.602753 0
M  V30 4639 C 470.174 0.707047 1.88688 0
M  V30 4640 O 469.23 0.233288 2.5142 0
M  V30 4641 C 470.543 2.92133 0.712648 0
M  V30 4642 C 472.091 3.02458 0.805488 0
M  V30 4643 C 472.566 4.48102 0.947009 0
M  V30 4644 N 474.057 4.52008 1.01207 0
M  V30 4645 C 474.792 5.61939 1.1407 0
M  V30 4646 N 474.288 6.81697 1.23536 0
M  V30 4647 N 476.081 5.49719 1.17325 0
M  V30 4648 H 468.232 2.04085 -0.588463 0
M  V30 4649 H 470.495 0.926229 -0.202001 0
M  V30 4650 H 470.201 3.51332 -0.160766 0
M  V30 4651 H 470.075 3.42187 1.58707 0
M  V30 4652 H 472.462 2.43344 1.66936 0
M  V30 4653 H 472.543 2.55627 -0.0939266 0
M  V30 4654 H 472.187 5.07824 0.087725 0
M  V30 4655 H 472.117 4.92607 1.86135 0
M  V30 4656 H 474.608 3.65749 0.950577 0
M  V30 4657 H 474.921 7.61228 1.33236 0
M  V30 4658 H 473.266 6.84473 1.20508 0
M  V30 4659 H 476.457 4.55095 1.09573 0
M  V30 4660 H 476.63 6.35432 1.27005 0
M  V30 4661 N 470.036 -0.519951 1.48776 0
M  V30 4662 C 471.282 -1.27711 1.57536 0
M  V30 4663 C 471.615 -1.92547 0.252866 0
M  V30 4664 O 470.89 -1.7979 -0.742021 0
M  V30 4665 C 471.173 -2.35875 2.72094 0
M  V30 4666 C 471.026 -1.75664 4.1408 0
M  V30 4667 C 472.345 -3.37575 2.82367 0
M  V30 4668 H 469.464 -0.462971 0.573434 0
M  V30 4669 H 472.106 -0.578194 1.80989 0
M  V30 4670 H 470.256 -2.95488 2.52228 0
M  V30 4671 H 471.928 -1.20025 4.45412 0
M  V30 4672 H 470.171 -1.06154 4.20611 0
M  V30 4673 H 470.842 -2.54029 4.90075 0
M  V30 4674 H 473.318 -2.87929 3.00393 0
M  V30 4675 H 472.194 -4.1064 3.64233 0
M  V30 4676 H 472.455 -3.98743 1.90936 0
M  V30 4677 N 471.514 -1.37532 -0.769588 0
M  V30 4678 C 472.462 -1.33561 -1.90432 0
M  V30 4679 C 473.456 -0.224027 -1.67912 0
M  V30 4680 O 474.662 -0.392174 -1.75676 0
M  V30 4681 H 471.037 -0.416279 -0.626271 0
M  V30 4682 H 473.008 -2.29348 -1.90899 0
M  V30 4683 C 471.757 -1.16162 -3.27722 0
M  V30 4684 H 471.08 -2.00951 -3.45628 0
M  V30 4685 H 472.52 -1.17434 -4.07413 0
M  V30 4686 C 470.979 0.132583 -3.36639 0
M  V30 4687 O 471.509 1.11539 -3.85904 0
M  V30 4688 N 469.715 0.184013 -2.90017 0
M  V30 4689 H 469.262 -0.616415 -2.50116 0
M  V30 4690 H 469.22 1.04956 -2.96364 0
M  V30 4691 N 472.992 0.995999 -1.22138 0
M  V30 4692 C 473.955 2.06711 -0.990109 0
M  V30 4693 C 474.955 1.60744 0.0422978 0
M  V30 4694 O 476.145 1.73095 -0.195895 0
M  V30 4695 C 473.277 3.37288 -0.49491 0
M  V30 4696 H 474.47 2.28661 -1.94047 0
M  V30 4697 H 472.023 1.16711 -1.03963 0
M  V30 4698 H 472.758 3.21022 0.459948 0
M  V30 4699 H 472.543 3.71986 -1.23971 0
M  V30 4700 H 474.033 4.16103 -0.353253 0
M  V30 4701 N 474.47 1.03057 1.19235 0
M  V30 4702 C 475.695 0.74757 1.93458 0
M  V30 4703 C 476.12 -0.687648 1.7508 0
M  V30 4704 O 475.478 -1.47499 1.05422 0
M  V30 4705 C 475.526 1.10604 3.43219 0
M  V30 4706 O 474.63 0.225671 4.11782 0
M  V30 4707 H 473.971 0.276047 0.603899 0
M  V30 4708 H 476.501 1.3777 1.51263 0
M  V30 4709 H 476.511 1.06366 3.93891 0
M  V30 4710 H 475.186 2.15165 3.55917 0
M  V30 4711 H 473.763 0.326795 3.71465 0
M  V30 4712 N 475.948 -1.35272 0.808662 0
M  V30 4713 C 476.895 -2.29764 0.218482 0
M  V30 4714 C 477.865 -1.52911 -0.648652 0
M  V30 4715 O 479.05 -1.81341 -0.593297 0
M  V30 4716 C 476.19 -3.39388 -0.625282 0
M  V30 4717 C 475.303 -4.31202 0.262516 0
M  V30 4718 C 474.438 -5.27919 -0.589451 0
M  V30 4719 C 473.477 -6.11371 0.298617 0
M  V30 4720 N 472.614 -7.0022 -0.513443 0
M  V30 4721 H 477.454 -2.79645 1.02968 0
M  V30 4722 H 474.991 -1.37629 0.519303 0
M  V30 4723 H 476.949 -4.01615 -1.12966 0
M  V30 4724 H 475.579 -2.90777 -1.40173 0
M  V30 4725 H 474.631 -3.69962 0.885013 0
M  V30 4726 H 475.943 -4.89748 0.945971 0
M  V30 4727 H 475.097 -5.95529 -1.15888 0
M  V30 4728 H 473.836 -4.69875 -1.30647 0
M  V30 4729 H 472.841 -5.42707 0.880301 0
M  V30 4730 H 474.066 -6.71494 1.01352 0
M  V30 4731 H 472.012 -6.44662 -1.21439 0
M  V30 4732 H 471.929 -7.55917 0.111922 0
M  V30 4733 H 473.197 -7.72175 -1.06608 0
M  V30 4734 N 477.426 -0.562348 -1.47226 0
M  V30 4735 C 478.674 -0.0401371 -2.0206 0
M  V30 4736 C 478.995 1.3165 -1.43852 0
M  V30 4737 O 478.265 1.85976 -0.615599 0
M  V30 4738 H 476.845 -0.0118479 -0.746906 0
M  V30 4739 H 479.507 -0.73352 -1.8057 0
M  V30 4740 H 478.603 0.0441254 -3.12069 0
M  V30 4741 N 478.904 1.54736 -0.299062 0
M  V30 4742 C 480.151 2.00101 0.310784 0
M  V30 4743 C 480.479 1.18746 1.54045 0
M  V30 4744 O 479.734 0.251198 1.94081 0
M  V30 4745 C 480.033 3.50199 0.713835 0
M  V30 4746 C 479.699 4.48997 -0.413873 0
M  V30 4747 C 478.361 4.7573 -0.723462 0
M  V30 4748 C 480.713 5.07839 -1.17257 0
M  V30 4749 C 478.041 5.5857 -1.79491 0
M  V30 4750 C 480.393 5.91844 -2.23392 0
M  V30 4751 C 479.057 6.16889 -2.54959 0
M  V30 4752 H 478.327 0.732221 0.113724 0
M  V30 4753 H 480.974 1.86888 -0.417756 0
M  V30 4754 H 479.279 3.61012 1.52243 0
M  V30 4755 H 480.976 3.82723 1.19684 0
M  V30 4756 H 477.566 4.28292 -0.162476 0
M  V30 4757 H 481.75 4.87188 -0.946651 0
M  V30 4758 H 477.006 5.76213 -2.04423 0
M  V30 4759 H 481.18 6.36465 -2.8264 0
M  V30 4760 H 478.807 6.80869 -3.38114 0
M  V30 4761 N 480.382 0.0267497 1.57577 0
M  V30 4762 C 481.63 -0.651116 1.91324 0
M  V30 4763 C 481.951 -1.72804 0.90353 0
M  V30 4764 O 481.221 -1.95822 -0.0552946 0
M  V30 4765 H 479.801 -0.243491 0.706202 0
M  V30 4766 H 482.463 0.0739935 1.94759 0
M  V30 4767 H 481.559 -1.10536 2.9187 0
M  V30 4768 N 481.861 -1.55662 -0.24637 0
M  V30 4769 C 482.811 -1.86753 -1.30795 0
M  V30 4770 C 483.795 -0.728445 -1.43466 0
M  V30 4771 O 484.987 -0.99038 -1.46699 0
M  V30 4772 C 482.116 -2.16618 -2.66329 0
M  V30 4773 C 481.202 -3.36855 -2.57661 0
M  V30 4774 N 481.593 -4.56111 -2.18624 0
M  V30 4775 C 479.891 -3.39976 -2.88673 0
M  V30 4776 C 480.592 -5.38247 -2.20601 0
M  V30 4777 N 479.568 -4.77322 -2.60124 0
M  V30 4778 H 483.37 -2.76486 -0.996642 0
M  V30 4779 H 480.884 -1.55896 -0.454994 0
M  V30 4780 H 482.881 -2.37057 -3.42942 0
M  V30 4781 H 481.541 -1.28185 -2.98327 0
M  V30 4782 H 482.552 -4.81726 -1.9016 0
M  V30 4783 H 479.229 -2.61815 -3.25206 0
M  V30 4784 H 480.619 -6.43657 -1.92756 0
M  V30 4785 N 483.339 0.512053 -1.4905 0
M  V30 4786 C 484.588 1.26343 -1.57227 0
M  V30 4787 C 484.901 1.93876 -0.259155 0
M  V30 4788 O 486.107 2.70612 -0.219358 0
M  V30 4789 C 484.563 2.29343 -2.77362 0
M  V30 4790 C 484.171 1.67799 -4.15388 0
M  V30 4791 C 485.915 3.05378 -2.94864 0
M  V30 4792 C 483.822 2.68845 -5.2676 0
M  V30 4793 H 482.752 0.475231 -0.585382 0
M  V30 4794 H 485.403 0.53862 -1.75417 0
M  V30 4795 H 483.785 3.04938 -2.52643 0
M  V30 4796 H 484.959 0.982715 -4.50199 0
M  V30 4797 H 483.274 1.04194 -4.03153 0
M  V30 4798 H 485.871 3.80921 -3.75238 0
M  V30 4799 H 486.214 3.62327 -2.05 0
M  V30 4800 H 486.747 2.36898 -3.19569 0
M  V30 4801 H 483.486 2.16692 -6.18647 0
M  V30 4802 H 483.006 3.36647 -4.96416 0
M  V30 4803 H 484.685 3.31487 -5.5563 0
M  V30 4804 N 484.817 1.37938 0.762283 0
M  V30 4805 C 486.063 1.34873 1.52253 0
M  V30 4806 C 486.418 -0.0635972 1.92295 0
M  V30 4807 O 485.711 -1.02434 1.61919 0
M  V30 4808 C 485.905 2.23042 2.79261 0
M  V30 4809 C 485.734 3.72706 2.51635 0
M  V30 4810 C 484.504 4.41771 2.45289 0
M  V30 4811 C 486.702 4.65345 2.18994 0
M  V30 4812 N 484.684 5.76921 2.09846 0
M  V30 4813 C 486.055 5.88943 1.9377 0
M  V30 4814 C 488.11 4.53636 2.0523 0
M  V30 4815 C 486.813 7.02142 1.5617 0
M  V30 4816 C 488.839 5.6673 1.69031 0
M  V30 4817 C 488.201 6.89383 1.44673 0
M  V30 4818 H 484.3 0.548818 0.557067 0
M  V30 4819 H 486.884 1.73247 0.888458 0
M  V30 4820 H 485.055 1.8687 3.40491 0
M  V30 4821 H 486.787 2.11165 3.45241 0
M  V30 4822 H 483.542 3.94883 2.61465 0
M  V30 4823 H 483.966 6.4837 1.94794 0
M  V30 4824 H 488.608 3.5937 2.2274 0
M  V30 4825 H 486.326 7.96334 1.37399 0
M  V30 4826 H 489.912 5.59645 1.59026 0
M  V30 4827 H 488.792 7.75411 1.17079 0
M  V30 4828 N 486.295 -0.989507 1.22664 0
M  V30 4829 C 487.225 -2.09847 1.02404 0
M  V30 4830 C 488.206 -1.70007 -0.0561303 0
M  V30 4831 O 489.391 -1.93906 0.106748 0
M  V30 4832 C 486.521 -3.41996 0.604663 0
M  V30 4833 C 485.475 -3.95699 1.63115 0
M  V30 4834 C 484.801 -5.23936 1.0675 0
M  V30 4835 C 486.101 -4.25999 3.02196 0
M  V30 4836 H 487.795 -2.27054 1.95158 0
M  V30 4837 H 485.341 -1.09111 0.939727 0
M  V30 4838 H 487.294 -4.1899 0.45002 0
M  V30 4839 H 486.018 -3.24626 -0.35855 0
M  V30 4840 H 484.677 -3.2084 1.77362 0
M  V30 4841 H 484.325 -5.02909 0.0955422 0
M  V30 4842 H 484.025 -5.60833 1.75328 0
M  V30 4843 H 485.549 -6.0356 0.924516 0
M  V30 4844 H 486.963 -4.93777 2.91303 0
M  V30 4845 H 485.36 -4.74076 3.67929 0
M  V30 4846 H 486.43 -3.33636 3.51873 0
M  V30 4847 N 487.773 -1.03688 -1.18687 0
M  V30 4848 C 489.05 -0.652397 -1.84399 0
M  V30 4849 C 489.43 0.868386 -1.92412 0
M  V30 4850 O 488.778 1.76832 -1.44716 0
M  V30 4851 C 488.988 -1.3238 -3.22919 0
M  V30 4852 C 490.336 -1.45216 -3.98996 0
M  V30 4853 O 491.36 -1.2816 -3.32345 0
M  V30 4854 O 490.219 -1.72975 -5.18403 0
M  V30 4855 H 487.313 -0.227793 -0.795009 0
M  V30 4856 H 489.859 -1.13553 -1.2611 0
M  V30 4857 H 488.631 -2.36202 -3.11968 0
M  V30 4858 H 488.254 -0.829039 -3.88861 0
M  V30 4859 N 489.251 1.34841 -0.815825 0
M  V30 4860 C 490.476 2.03261 -0.41226 0
M  V30 4861 C 490.901 1.61055 0.971751 0
M  V30 4862 O 490.259 0.7917 1.63101 0
M  V30 4863 C 490.307 3.56914 -0.514289 0
M  V30 4864 O 489.411 4.09728 0.468675 0
M  V30 4865 H 488.752 0.641664 -0.170771 0
M  V30 4866 H 491.282 1.72241 -1.10427 0
M  V30 4867 H 491.292 4.06156 -0.387457 0
M  V30 4868 H 489.967 3.86982 -1.52375 0
M  V30 4869 H 488.544 3.71681 0.301316 0
M  V30 4870 N 490.729 0.570148 1.46925 0
M  V30 4871 C 491.975 0.0510284 2.02736 0
M  V30 4872 C 492.308 -1.3006 1.44215 0
M  V30 4873 O 491.583 -1.84932 0.602521 0
M  V30 4874 C 491.866 -0.028215 3.60089 0
M  V30 4875 C 491.719 1.35142 4.29018 0
M  V30 4876 C 493.038 -0.735181 4.33916 0
M  V30 4877 H 490.157 0.0200178 0.736728 0
M  V30 4878 H 492.799 0.73493 1.75211 0
M  V30 4879 H 490.949 -0.610648 3.83671 0
M  V30 4880 H 492.621 1.97806 4.16738 0
M  V30 4881 H 490.864 1.9226 3.88868 0
M  V30 4882 H 491.535 1.24857 5.37694 0
M  V30 4883 H 494.011 -0.240519 4.15404 0
M  V30 4884 H 492.887 -0.759622 5.43618 0
M  V30 4885 H 493.148 -1.79397 4.04066 0
M  V30 4886 N 492.207 -1.54576 0.307264 0
M  V30 4887 C 493.432 -2.05139 -0.305379 0
M  V30 4888 C 493.857 -1.18278 -1.46259 0
M  V30 4889 O 493.215 -0.188243 -1.8032 0
M  V30 4890 C 493.263 -3.53066 -0.733283 0
M  V30 4891 O 492.367 -3.69206 -1.83741 0
M  V30 4892 H 491.708 -0.661444 -0.0582105 0
M  V30 4893 H 494.238 -1.99569 0.450931 0
M  V30 4894 H 494.248 -3.95034 -1.02039 0
M  V30 4895 H 492.923 -4.15746 0.113198 0
M  V30 4896 H 491.5 -3.39143 -1.55037 0
M  V30 4897 N 493.685 -0.035106 -1.57561 0
M  V30 4898 C 494.925 0.646316 -1.93913 0
M  V30 4899 C 495.289 1.68947 -0.912185 0
M  V30 4900 O 496.49 2.42381 -1.1621 0
M  V30 4901 C 494.761 1.24136 -3.35149 0
M  V30 4902 S 496.32 1.94302 -3.93436 0
M  V30 4903 H 493.138 0.212642 -0.678457 0
M  V30 4904 H 495.74 -0.100203 -1.95243 0
M  V30 4905 H 494.444 0.46979 -4.07702 0
M  V30 4906 H 493.975 2.02505 -3.37276 0
M  V30 4907 H 495.99 3.22205 -3.77357 0
M  V30 4908 N 495.163 1.55791 0.238111 0
M  V30 4909 C 496.095 1.87513 1.31802 0
M  V30 4910 C 497.108 0.762053 1.43863 0
M  V30 4911 O 498.297 1.04024 1.45056 0
M  V30 4912 C 495.397 2.05402 2.69561 0
M  V30 4913 C 494.57 3.3632 2.79656 0
M  V30 4914 C 493.629 3.43844 3.98319 0
M  V30 4915 O 492.655 4.16994 3.87433 0
M  V30 4916 N 493.857 2.73777 5.11885 0
M  V30 4917 H 496.622 2.80734 1.04922 0
M  V30 4918 H 494.183 1.56135 0.428196 0
M  V30 4919 H 496.175 2.07769 3.47296 0
M  V30 4920 H 494.745 1.18884 2.89111 0
M  V30 4921 H 493.965 3.46195 1.88528 0
M  V30 4922 H 495.253 4.22594 2.83358 0
M  V30 4923 H 494.651 2.14094 5.23622 0
M  V30 4924 H 493.208 2.81825 5.87723 0
M  V30 4925 N 496.642 -0.504142 1.49319 0
M  V30 4926 C 497.89 -1.25598 1.58334 0
M  V30 4927 C 498.211 -1.93114 0.270538 0
M  V30 4928 O 497.481 -1.82585 -0.709891 0
M  V30 4929 H 496.061 -0.466571 0.58337 0
M  V30 4930 H 498.723 -0.584547 1.85928 0
M  V30 4931 H 497.819 -2.02159 2.37778 0
M  V30 4932 N 498.12 -1.38341 -0.754957 0
M  V30 4933 C 499.07 -1.31964 -1.85929 0
M  V30 4934 C 500.054 -0.204181 -1.59599 0
M  V30 4935 O 501.246 -0.440036 -1.71443 0
M  V30 4936 C 498.375 -1.14565 -3.2362 0
M  V30 4937 C 497.461 -2.30727 -3.55846 0
M  V30 4938 N 497.852 -3.56165 -3.59138 0
M  V30 4939 C 496.15 -2.23249 -3.86104 0
M  V30 4940 C 496.851 -4.32865 -3.88591 0
M  V30 4941 N 495.827 -3.62203 -4.05351 0
M  V30 4942 H 499.629 -2.2694 -1.8675 0
M  V30 4943 H 497.143 -1.31553 -0.952243 0
M  V30 4944 H 499.14 -1.0808 -4.02647 0
M  V30 4945 H 497.8 -0.205212 -3.24051 0
M  V30 4946 H 498.811 -3.89854 -3.40932 0
M  V30 4947 H 495.488 -1.37357 -3.94258 0
M  V30 4948 H 496.878 -5.41504 -3.97773 0
M  V30 4949 N 499.598 0.982988 -1.23187 0
M  V30 4950 C 500.508 2.10907 -1.02739 0
M  V30 4951 C 501.524 1.73979 0.0273188 0
M  V30 4952 O 502.7 2.00702 -0.16757 0
M  V30 4953 C 499.765 3.41142 -0.618304 0
M  V30 4954 C 498.826 3.92112 -1.74777 0
M  V30 4955 C 498.059 5.16131 -1.3581 0
M  V30 4956 O 498.282 5.6989 -0.241201 0
M  V30 4957 O 497.216 5.61103 -2.17824 0
M  V30 4958 H 501.042 2.31046 -1.97108 0
M  V30 4959 H 498.627 1.09284 -1.01869 0
M  V30 4960 H 500.509 4.19488 -0.400982 0
M  V30 4961 H 499.184 3.2234 0.296421 0
M  V30 4962 H 498.091 3.14895 -2.0197 0
M  V30 4963 H 499.424 4.15364 -2.64071 0
M  V30 4964 N 501.076 1.04316 1.18135 0
M  V30 4965 C 502.487 0.775505 1.69832 0
M  V30 4966 C 502.838 -0.703348 1.8316 0
M  V30 4967 O 501.963 -1.54729 1.51287 0
M  V30 4968 C 502.558 1.40112 3.0847 0
M  V30 4969 C 501.117 1.18172 3.57368 0
M  V30 4970 C 500.264 1.49022 2.33854 0
M  V30 4971 H 503.215 1.20925 1.02775 0
M  V30 4972 H 503.236 0.805672 3.71873 0
M  V30 4973 H 502.748 2.47744 2.98738 0
M  V30 4974 H 500.849 0.124258 3.72393 0
M  V30 4975 H 500.962 1.8805 4.40652 0
M  V30 4976 H 499.326 0.909995 2.37889 0
M  V30 4977 H 500.109 2.57768 2.26738 0
M  V30 4978 N 502.554 -1.34406 0.822964 0
M  V30 4979 C 503.517 -2.2783 0.250271 0
M  V30 4980 C 504.517 -1.50288 -0.571854 0
M  V30 4981 O 505.707 -1.69825 -0.387952 0
M  V30 4982 C 502.839 -3.34663 -0.649137 0
M  V30 4983 H 504.032 -2.79992 1.07444 0
M  V30 4984 H 501.585 -1.44539 0.594829 0
M  V30 4985 H 502.32 -2.87714 -1.49637 0
M  V30 4986 H 502.105 -3.92052 -0.0611199 0
M  V30 4987 H 503.595 -4.04349 -1.04363 0
M  V30 4988 N 504.032 -0.577932 -1.46621 0
M  V30 4989 C 505.281 -0.0594281 -2.01612 0
M  V30 4990 C 505.594 1.30663 -1.45556 0
M  V30 4991 O 506.8 1.91621 -1.92337 0
M  V30 4992 C 505.256 -0.0556666 -3.59857 0
M  V30 4993 C 504.864 -1.41975 -4.24908 0
M  V30 4994 C 506.608 0.409143 -4.22524 0
M  V30 4995 C 504.515 -1.37397 -5.75218 0
M  V30 4996 H 503.445 -0.0184469 -0.753774 0
M  V30 4997 H 506.096 -0.728869 -1.68404 0
M  V30 4998 H 504.478 0.679843 -3.90121 0
M  V30 4999 H 505.652 -2.17461 -4.0626 0
M  V30 5000 H 503.967 -1.82419 -3.74316 0
M  V30 5001 H 506.564 0.46211 -5.32699 0
M  V30 5002 H 506.907 1.42565 -3.91128 0
M  V30 5003 H 507.44 -0.272152 -3.96868 0
M  V30 5004 H 504.179 -2.36714 -6.11267 0
M  V30 5005 H 503.699 -0.661239 -5.96144 0
M  V30 5006 H 505.378 -1.08484 -6.3784 0
M  V30 5007 N 505.51 1.54411 -0.315457 0
M  V30 5008 C 506.756 2.01425 0.282775 0
M  V30 5009 C 507.111 1.19978 1.5041 0
M  V30 5010 O 506.404 0.271766 1.89663 0
M  V30 5011 C 506.598 3.50936 0.676652 0
M  V30 5012 C 506.427 4.46856 -0.504954 0
M  V30 5013 C 505.197 4.95275 -1.00152 0
M  V30 5014 C 507.395 4.96141 -1.35456 0
M  V30 5015 N 505.377 5.75081 -2.14838 0
M  V30 5016 C 506.748 5.73791 -2.3487 0
M  V30 5017 C 508.803 4.78299 -1.38327 0
M  V30 5018 C 507.506 6.35498 -3.36949 0
M  V30 5019 C 509.532 5.40836 -2.39271 0
M  V30 5020 C 508.894 6.1833 -3.37413 0
M  V30 5021 H 504.993 0.779078 0.0675398 0
M  V30 5022 H 507.577 1.8946 -0.448656 0
M  V30 5023 H 505.748 3.63162 1.37723 0
M  V30 5024 H 507.48 3.84728 1.25566 0
M  V30 5025 H 504.235 4.70107 -0.574123 0
M  V30 5026 H 504.659 6.19664 -2.72665 0
M  V30 5027 H 509.301 4.17956 -0.638196 0
M  V30 5028 H 507.019 6.94967 -4.12367 0
M  V30 5029 H 510.605 5.28952 -2.42284 0
M  V30 5030 H 509.485 6.65861 -4.14244 0
M  V30 5031 N 506.988 0.0434614 1.5754 0
M  V30 5032 C 507.92 -0.962586 2.08007 0
M  V30 5033 C 508.933 -1.27972 1.00634 0
M  V30 5034 O 510.122 -1.24186 1.28219 0
M  V30 5035 C 507.222 -2.28621 2.50171 0
M  V30 5036 C 506.395 -2.15214 3.80791 0
M  V30 5037 C 505.454 -3.30633 4.09351 0
M  V30 5038 O 504.48 -3.0688 4.79388 0
M  V30 5039 N 505.682 -4.54873 3.60654 0
M  V30 5040 H 508.447 -0.531891 2.94942 0
M  V30 5041 H 506.008 -0.142965 1.61268 0
M  V30 5042 H 508 -3.04689 2.66359 0
M  V30 5043 H 506.57 -2.63283 1.68525 0
M  V30 5044 H 505.79 -1.23785 3.74261 0
M  V30 5045 H 507.078 -2.03475 4.66343 0
M  V30 5046 H 506.476 -4.77063 3.04019 0
M  V30 5047 H 505.033 -5.2806 3.82094 0
M  V30 5048 N 508.466 -1.55915 -0.229846 0
M  V30 5049 C 509.706 -1.80314 -0.962614 0
M  V30 5050 C 510.07 -0.61568 -1.81861 0
M  V30 5051 O 511.271 -0.738795 -2.58448 0
M  V30 5052 C 509.542 -3.0956 -1.78627 0
M  V30 5053 S 511.101 -3.55243 -2.57581 0
M  V30 5054 H 507.919 -0.633142 -0.323499 0
M  V30 5055 H 510.521 -1.94155 -0.228919 0
M  V30 5056 H 509.225 -3.94033 -1.14742 0
M  V30 5057 H 508.756 -2.98503 -2.56241 0
M  V30 5058 H 510.771 -3.17924 -3.80971 0
M  V30 5059 N 509.944 0.496216 -1.49584 0
M  V30 5060 C 510.891 1.59722 -1.66606 0
M  V30 5061 C 511.861 1.58158 -0.507477 0
M  V30 5062 O 513.046 1.76072 -0.735076 0
M  V30 5063 C 510.186 2.97844 -1.74308 0
M  V30 5064 C 509.299 3.09388 -3.01502 0
M  V30 5065 C 508.434 4.38271 -3.00153 0
M  V30 5066 C 507.473 4.43466 -4.21906 0
M  V30 5067 N 506.61 5.63784 -4.1844 0
M  V30 5068 H 511.45 1.44515 -2.60613 0
M  V30 5069 H 508.987 0.703048 -1.29212 0
M  V30 5070 H 510.945 3.77907 -1.76754 0
M  V30 5071 H 509.575 3.11743 -0.837619 0
M  V30 5072 H 508.627 2.22357 -3.08645 0
M  V30 5073 H 509.939 3.09085 -3.91494 0
M  V30 5074 H 509.093 5.2666 -3.01188 0
M  V30 5075 H 507.832 4.41146 -2.07947 0
M  V30 5076 H 506.837 3.53478 -4.21109 0
M  V30 5077 H 508.062 4.42303 -5.1531 0
M  V30 5078 H 506.008 5.67491 -3.29074 0
M  V30 5079 H 505.925 5.65118 -5.02173 0
M  V30 5080 H 507.193 6.54367 -4.23585 0
M  V30 5081 N 511.423 1.38739 0.74761 0
M  V30 5082 C 512.373 1.32948 1.85226 0
M  V30 5083 C 513.357 0.212642 1.59489 0
M  V30 5084 O 514.549 0.449121 1.71207 0
M  V30 5085 C 511.678 1.16279 3.23008 0
M  V30 5086 C 510.764 2.32611 3.54617 0
M  V30 5087 N 511.155 3.58065 3.57244 0
M  V30 5088 C 509.453 2.25293 3.84914 0
M  V30 5089 C 510.154 4.34919 3.8629 0
M  V30 5090 N 509.13 3.64348 4.03425 0
M  V30 5091 H 512.932 2.27927 1.85544 0
M  V30 5092 H 510.446 1.32056 0.945253 0
M  V30 5093 H 512.443 1.10214 4.02068 0
M  V30 5094 H 511.103 0.222394 3.23937 0
M  V30 5095 H 512.114 3.91656 3.3886 0
M  V30 5096 H 508.791 1.39446 3.93524 0
M  V30 5097 H 510.181 5.43605 3.94896 0
M  V30 5098 N 512.901 -0.976442 1.23707 0
M  V30 5099 C 513.851 -2.0544 0.988851 0
M  V30 5100 C 514.835 -1.60762 -0.0665901 0
M  V30 5101 O 516.027 -1.76396 0.14604 0
M  V30 5102 C 513.156 -3.38258 0.586223 0
M  V30 5103 C 512.242 -3.89523 1.67728 0
M  V30 5104 N 512.633 -4.13823 2.90834 0
M  V30 5105 C 510.931 -4.18097 1.55277 0
M  V30 5106 C 511.632 -4.55731 3.61502 0
M  V30 5107 N 510.608 -4.60394 2.8903 0
M  V30 5108 H 514.41 -2.22191 1.92376 0
M  V30 5109 H 511.924 -1.15954 1.13704 0
M  V30 5110 H 513.921 -4.15075 0.389658 0
M  V30 5111 H 512.581 -3.22898 -0.341594 0
M  V30 5112 H 513.592 -4.01529 3.271 0
M  V30 5113 H 510.269 -4.11719 0.692351 0
M  V30 5114 H 511.659 -4.83018 4.67059 0
M  V30 5115 N 514.379 -1.04941 -1.1758 0
M  V30 5116 C 515.289 -0.658826 -2.25159 0
M  V30 5117 C 516.305 0.318941 -1.71052 0
M  V30 5118 O 517.481 0.171669 -2.00667 0
M  V30 5119 C 514.546 -0.0369522 -3.4668 0
M  V30 5120 C 513.607 -1.06484 -4.15884 0
M  V30 5121 C 512.84 -0.472551 -5.31604 0
M  V30 5122 O 513.063 0.718736 -5.65854 0
M  V30 5123 O 511.997 -1.20557 -5.89703 0
M  V30 5124 H 515.823 -1.55533 -2.60851 0
M  V30 5125 H 513.408 -0.820819 -1.24832 0
M  V30 5126 H 515.29 0.308784 -4.20267 0
M  V30 5127 H 513.965 0.833238 -3.12792 0
M  V30 5128 H 512.872 -1.46253 -3.44327 0
M  V30 5129 H 514.205 -1.9061 -4.53794 0
M  V30 5130 N 515.857 1.33968 -0.830081 0
M  V30 5131 C 517.103 1.98773 -0.431394 0
M  V30 5132 C 517.458 1.64598 0.99626 0
M  V30 5133 O 516.751 0.911022 1.68555 0
M  V30 5134 C 516.945 3.52679 -0.57898 0
M  V30 5135 C 516.774 4.01807 -2.01943 0
M  V30 5136 C 515.544 4.30062 -2.65282 0
M  V30 5137 C 517.742 4.18663 -2.98707 0
M  V30 5138 N 515.724 4.65272 -4.00493 0
M  V30 5139 C 517.095 4.57133 -4.18843 0
M  V30 5140 C 519.15 4.00929 -2.95229 0
M  V30 5141 C 517.853 4.79723 -5.35965 0
M  V30 5142 C 519.879 4.2469 -4.11573 0
M  V30 5143 C 519.241 4.63454 -5.30462 0
M  V30 5144 H 515.34 0.75435 -0.206107 0
M  V30 5145 H 517.924 1.62247 -1.07629 0
M  V30 5146 H 516.095 3.88383 0.0360632 0
M  V30 5147 H 517.827 4.04412 -0.152596 0
M  V30 5148 H 514.582 4.21231 -2.16475 0
M  V30 5149 H 515.006 4.87101 -4.70172 0
M  V30 5150 H 519.648 3.70082 -2.04448 0
M  V30 5151 H 517.366 5.09434 -6.27297 0
M  V30 5152 H 520.952 4.12497 -4.10289 0
M  V30 5153 H 519.832 4.81476 -6.18992 0
M  V30 5154 N 517.335 0.585699 1.46312 0
M  V30 5155 C 518.583 0.072278 2.01971 0
M  V30 5156 C 518.904 -1.29345 1.45928 0
M  V30 5157 O 518.174 -1.84973 0.645109 0
M  V30 5158 H 516.754 0.023729 0.746623 0
M  V30 5159 H 519.416 0.762155 1.7938 0
M  V30 5160 H 518.512 0.00552767 3.121 0
M  V30 5161 N 518.813 -1.54241 0.323641 0
M  V30 5162 C 519.76 -2.24339 -0.542277 0
M  V30 5163 C 520.73 -1.23421 -1.11159 0
M  V30 5164 O 521.915 -1.52104 -1.15192 0
M  V30 5165 C 519.055 -3.00479 -1.69725 0
M  V30 5166 C 518.168 -4.16214 -1.15716 0
M  V30 5167 C 517.303 -4.79884 -2.27783 0
M  V30 5168 C 516.342 -5.87722 -1.71023 0
M  V30 5169 N 515.479 -6.45254 -2.76752 0
M  V30 5170 H 520.319 -2.97935 0.0620613 0
M  V30 5171 H 517.856 -1.47039 0.0423993 0
M  V30 5172 H 519.814 -3.42869 -2.3769 0
M  V30 5173 H 518.444 -2.29217 -2.27288 0
M  V30 5174 H 517.496 -3.78605 -0.369063 0
M  V30 5175 H 518.808 -4.93838 -0.701832 0
M  V30 5176 H 517.962 -5.25243 -3.03651 0
M  V30 5177 H 516.701 -4.01641 -2.76652 0
M  V30 5178 H 515.706 -5.41765 -0.936518 0
M  V30 5179 H 516.931 -6.67863 -1.2303 0
M  V30 5180 H 514.877 -5.69884 -3.24912 0
M  V30 5181 H 514.794 -7.18292 -2.35782 0
M  V30 5182 H 516.062 -6.95269 -3.5245 0
M  V30 5183 N 520.291 -0.0518155 -1.57515 0
M  V30 5184 C 521.241 0.932017 -2.0808 0
M  V30 5185 C 522.225 1.27141 -0.986098 0
M  V30 5186 O 523.417 1.25373 -1.24943 0
M  V30 5187 C 520.546 2.20665 -2.62986 0
M  V30 5188 C 519.632 1.89462 -3.79427 0
M  V30 5189 N 520.023 1.28621 -4.89173 0
M  V30 5190 C 518.321 2.19327 -3.88345 0
M  V30 5191 C 519.022 1.15062 -5.70207 0
M  V30 5192 N 517.998 1.65372 -5.17835 0
M  V30 5193 H 521.8 0.456964 -2.90326 0
M  V30 5194 H 519.314 0.152619 -1.61681 0
M  V30 5195 H 521.311 2.92044 -2.97516 0
M  V30 5196 H 519.971 2.68776 -1.8218 0
M  V30 5197 H 520.982 0.958341 -5.08956 0
M  V30 5198 H 517.659 2.69955 -3.18482 0
M  V30 5199 H 519.049 0.678243 -6.68468 0
M  V30 5200 N 521.769 1.56035 0.221574 0
M  V30 5201 C 522.999 1.82864 0.961468 0
M  V30 5202 C 523.407 0.628703 1.78449 0
M  V30 5203 O 522.75 -0.412109 1.79018 0
M  V30 5204 C 522.812 3.03425 1.92804 0
M  V30 5205 C 522.476 4.38429 1.28954 0
M  V30 5206 C 523.473 5.15441 0.679431 0
M  V30 5207 C 521.158 4.85151 1.30131 0
M  V30 5208 C 523.152 6.37337 0.0896148 0
M  V30 5209 C 520.839 6.06989 0.707651 0
M  V30 5210 C 521.837 6.82923 0.102855 0
M  V30 5211 O 521.525 8.02456 -0.48157 0
M  V30 5212 H 521.257 0.611883 0.28736 0
M  V30 5213 H 523.811 2.0397 0.241932 0
M  V30 5214 H 522.041 2.78138 2.68656 0
M  V30 5215 H 523.73 3.17127 2.53348 0
M  V30 5216 H 524.496 4.80452 0.662661 0
M  V30 5217 H 520.375 4.26021 1.76145 0
M  V30 5218 H 523.919 6.96547 -0.383069 0
M  V30 5219 H 519.816 6.41451 0.721834 0
M  V30 5220 H 520.584 8.17636 -0.375887 0
M  V30 5221 N 523.247 -0.488276 1.49845 0
M  V30 5222 C 524.487 -1.2516 1.61599 0
M  V30 5223 C 524.851 -1.89615 0.301706 0
M  V30 5224 O 526.052 -2.67182 0.29453 0
M  V30 5225 C 524.323 -2.2805 2.75187 0
M  V30 5226 S 525.882 -3.13552 3.0697 0
M  V30 5227 H 522.7 -0.425178 0.569864 0
M  V30 5228 H 525.302 -0.551545 1.87559 0
M  V30 5229 H 524.006 -1.7925 3.69185 0
M  V30 5230 H 523.537 -3.02708 2.5126 0
M  V30 5231 H 525.552 -4.28927 2.49471 0
M  V30 5232 N 524.725 -1.39134 -0.740242 0
M  V30 5233 C 525.673 -1.3757 -1.87556 0
M  V30 5234 C 526.667 -0.259593 -1.67399 0
M  V30 5235 O 527.873 -0.429349 -1.74804 0
M  V30 5236 H 524.248 -0.42947 -0.6173 0
M  V30 5237 H 526.219 -2.33345 -1.85991 0
M  V30 5238 C 524.968 -1.23087 -3.25184 0
M  V30 5239 H 524.291 -2.08237 -3.41288 0
M  V30 5240 H 525.731 -1.26049 -4.0483 0
M  V30 5241 C 524.19 0.0611471 -3.36845 0
M  V30 5242 O 524.72 1.03328 -3.88183 0
M  V30 5243 N 522.926 0.122454 -2.90342 0
M  V30 5244 H 522.473 -0.669329 -2.48752 0
M  V30 5245 H 522.431 0.986463 -2.98523 0
M  V30 5246 N 526.204 0.969867 -1.24223 0
M  V30 5247 C 527.154 2.04913 -0.999732 0
M  V30 5248 C 528.138 1.60795 0.0580636 0
M  V30 5249 O 529.33 1.76317 -0.155392 0
M  V30 5250 C 526.459 3.37942 -0.604154 0
M  V30 5251 C 525.545 3.88628 -1.69791 0
M  V30 5252 N 525.936 4.12274 -2.93025 0
M  V30 5253 C 524.234 4.17268 -1.57492 0
M  V30 5254 C 524.935 4.53808 -3.63914 0
M  V30 5255 N 523.911 4.58855 -2.91468 0
M  V30 5256 H 527.713 2.21168 -1.93551 0
M  V30 5257 H 525.227 1.15349 -1.14317 0
M  V30 5258 H 527.224 4.14863 -0.411665 0
M  V30 5259 H 525.884 3.23075 0.324465 0
M  V30 5260 H 526.895 3.99789 -3.29225 0
M  V30 5261 H 523.572 4.11346 -0.714175 0
M  V30 5262 H 524.962 4.80534 -4.69614 0
M  V30 5263 N 527.682 1.05563 1.17022 0
M  V30 5264 C 528.63 0.653887 2.2322 0
M  V30 5265 C 529.624 -0.326642 1.66221 0
M  V30 5266 O 530.83 -0.192301 1.7897 0
M  V30 5267 H 527.205 0.193297 0.726733 0
M  V30 5268 H 529.176 1.5596 2.54399 0
M  V30 5269 C 527.925 0.0485434 3.47666 0
M  V30 5270 H 527.248 0.79413 3.91834 0
M  V30 5271 H 528.688 -0.195133 4.23551 0
M  V30 5272 C 527.147 -1.20583 3.14581 0
M  V30 5273 O 527.677 -2.29475 3.29703 0
M  V30 5274 N 525.883 -1.10493 2.68774 0
M  V30 5275 H 525.43 -0.218795 2.56669 0
M  V30 5276 H 525.388 -1.94507 2.47011 0
M  V30 5277 N 529.16 -1.33526 0.837174 0
M  V30 5278 C 530.07 -2.33023 0.271568 0
M  V30 5279 C 531.086 -1.63272 -0.601514 0
M  V30 5280 O 532.262 -1.94939 -0.506038 0
M  V30 5281 C 529.327 -3.42382 -0.545448 0
M  V30 5282 C 528.388 -4.27857 0.351709 0
M  V30 5283 C 527.621 -5.31994 -0.426409 0
M  V30 5284 O 527.844 -5.45763 -1.65828 0
M  V30 5285 O 526.778 -6.01572 0.1987 0
M  V30 5286 H 530.604 -2.83256 1.09545 0
M  V30 5287 H 528.189 -1.36837 0.599655 0
M  V30 5288 H 530.071 -4.09122 -1.00979 0
M  V30 5289 H 528.746 -2.94369 -1.34641 0
M  V30 5290 H 527.653 -3.6399 0.863853 0
M  V30 5291 H 528.986 -4.79349 1.1174 0
M  V30 5292 N 530.638 -0.59345 -1.46 0
M  V30 5293 C 531.915 -0.0157933 -1.95594 0
M  V30 5294 C 532.295 1.44807 -1.53604 0
M  V30 5295 O 531.643 2.14342 -0.791824 0
M  V30 5296 C 531.853 -0.199081 -3.48432 0
M  V30 5297 C 533.201 -0.0724943 -4.24538 0
M  V30 5298 O 534.225 -0.128469 -3.55968 0
M  V30 5299 O 533.084 0.0542426 -5.46473 0
M  V30 5300 H 530.178 0.043749 -0.825842 0
M  V30 5301 H 532.724 -0.662522 -1.56233 0
M  V30 5302 H 531.496 -1.21631 -3.71916 0
M  V30 5303 H 531.119 0.483576 -3.94648 0
M  V30 5304 N 532.116 1.54067 -0.331816 0
M  V30 5305 C 533.079 2.23275 0.517768 0
M  V30 5306 C 534.079 1.22897 1.03697 0
M  V30 5307 O 535.269 1.47419 0.928084 0
M  V30 5308 C 532.401 2.94326 1.72004 0
M  V30 5309 H 533.594 2.99773 -0.0873507 0
M  V30 5310 H 531.147 1.56079 -0.0830042 0
M  V30 5311 H 531.882 2.21986 2.36417 0
M  V30 5312 H 531.667 3.67941 1.35507 0
M  V30 5313 H 533.157 3.47031 2.32291 0
M  V30 5314 N 533.594 0.0601682 1.57485 0
M  V30 5315 C 534.842 -0.610386 1.92662 0
M  V30 5316 C 535.163 -1.70849 0.939981 0
M  V30 5317 O 534.433 -1.95895 -0.0137455 0
M  V30 5318 H 533.013 -0.228457 0.711208 0
M  V30 5319 H 535.675 0.115288 1.94559 0
M  V30 5320 H 534.771 -1.0432 2.94149 0
M  V30 5321 N 535.072 -1.5615 -0.213296 0
M  V30 5322 C 536.318 -1.79812 -0.937849 0
M  V30 5323 C 536.651 -0.631201 -1.83656 0
M  V30 5324 O 535.926 0.369165 -1.90964 0
M  V30 5325 C 536.209 -3.13613 -1.76972 0
M  V30 5326 C 536.062 -4.40766 -0.89695 0
M  V30 5327 C 537.381 -3.43931 -2.7459 0
M  V30 5328 H 534.5 -0.654138 -0.339518 0
M  V30 5329 H 537.142 -1.88877 -0.20623 0
M  V30 5330 H 535.292 -3.06015 -2.39347 0
M  V30 5331 H 536.964 -4.60392 -0.289306 0
M  V30 5332 H 535.207 -4.33326 -0.202756 0
M  V30 5333 H 535.878 -5.30843 -1.51358 0
M  V30 5334 H 538.354 -3.5171 -2.22349 0
M  V30 5335 H 537.23 -4.38706 -3.29891 0
M  V30 5336 H 537.491 -2.6651 -3.52739 0
M  V30 5337 N 536.55 0.480323 -1.50102 0
M  V30 5338 C 537.778 1.25657 -1.64371 0
M  V30 5339 C 538.193 1.86011 -0.323316 0
M  V30 5340 O 537.55 1.68803 0.693682 0
M  V30 5341 C 537.601 2.37197 -2.728 0
M  V30 5342 O 537.322 1.7932 -3.9972 0
M  V30 5343 C 538.823 3.2823 -2.9796 0
M  V30 5344 H 536.043 0.380369 -0.552775 0
M  V30 5345 H 538.587 0.574379 -1.96268 0
M  V30 5346 H 536.742 3.01208 -2.43623 0
M  V30 5347 H 537.156 2.52701 -4.59611 0
M  V30 5348 H 538.63 4.02725 -3.77513 0
M  V30 5349 H 539.107 3.86462 -2.08671 0
M  V30 5350 H 539.713 2.69964 -3.28633 0
M  V30 5351 N 538.028 1.39524 0.732853 0
M  V30 5352 C 539.268 1.383 1.50508 0
M  V30 5353 C 539.632 -0.0208271 1.91989 0
M  V30 5354 O 540.833 -0.158091 2.68335 0
M  V30 5355 C 539.104 2.33007 2.71003 0
M  V30 5356 S 540.663 2.49989 3.60626 0
M  V30 5357 H 537.481 0.490417 0.514794 0
M  V30 5358 H 540.083 1.75641 0.858524 0
M  V30 5359 H 538.787 3.33862 2.38672 0
M  V30 5360 H 538.318 1.96889 3.40585 0
M  V30 5361 H 540.333 1.7394 4.64714 0
M  V30 5362 N 539.506 -0.963266 1.24736 0
M  V30 5363 C 540.731 -1.74699 1.11781 0
M  V30 5364 C 541.156 -1.85267 -0.325258 0
M  V30 5365 O 540.514 -1.32681 -1.23553 0
M  V30 5366 C 540.562 -3.14322 1.76731 0
M  V30 5367 O 539.666 -3.99043 1.04109 0
M  V30 5368 H 539.007 -0.53684 0.390767 0
M  V30 5369 H 541.537 -1.20801 1.65131 0
M  V30 5370 H 541.547 -3.64824 1.82668 0
M  V30 5371 H 540.222 -3.05946 2.81726 0
M  V30 5372 H 538.799 -3.5752 1.05991 0
M  V30 5373 N 540.985 -1.06182 -1.16461 0
M  V30 5374 C 542.262 -0.691364 -1.82974 0
M  V30 5375 C 542.642 0.827377 -1.9421 0
M  V30 5376 O 541.99 1.73723 -1.48434 0
M  V30 5377 C 542.2 -1.39199 -3.20038 0
M  V30 5378 C 543.548 -1.53647 -3.95825 0
M  V30 5379 O 544.572 -1.35181 -3.29552 0
M  V30 5380 O 543.431 -1.83932 -5.14618 0
M  V30 5381 H 540.525 -0.244605 -0.789998 0
M  V30 5382 H 543.071 -1.16203 -1.23673 0
M  V30 5383 H 541.843 -2.42766 -3.06888 0
M  V30 5384 H 541.466 -0.911335 -3.87015 0
M  V30 5385 N 542.463 1.3308 -0.844243 0
M  V30 5386 C 543.711 1.97215 -0.441676 0
M  V30 5387 C 544.032 1.67185 1.0037 0
M  V30 5388 O 543.302 0.973588 1.69994 0
M  V30 5389 H 541.882 0.72959 -0.160335 0
M  V30 5390 H 544.544 1.62348 -1.07838 0
M  V30 5391 H 543.64 3.06698 -0.57815 0
M  V30 5392 N 543.941 0.601185 1.45683 0
M  V30 5393 C 545.166 0.0982245 2.07167 0
M  V30 5394 C 545.591 -1.20546 1.44396 0
M  V30 5395 O 544.949 -1.73247 0.534347 0
M  V30 5396 C 544.997 -0.0346976 3.60583 0
M  V30 5397 O 544.101 -1.08657 3.97828 0
M  V30 5398 H 543.442 0.0711618 0.660176 0
M  V30 5399 H 545.972 0.829376 1.87036 0
M  V30 5400 H 545.982 -0.234969 4.07323 0
M  V30 5401 H 544.657 0.917265 4.05659 0
M  V30 5402 H 543.234 -0.863275 3.6277 0
M  V30 5403 N 545.419 -1.53889 0.339982 0
M  V30 5404 C 546.696 -1.93084 -0.312719 0
M  V30 5405 C 547.076 -1.2712 -1.68534 0
M  V30 5406 O 546.424 -0.420835 -2.24591 0
M  V30 5407 C 546.634 -3.4683 -0.388558 0
M  V30 5408 C 547.982 -4.19732 -0.641088 0
M  V30 5409 O 549.006 -3.53075 -0.470818 0
M  V30 5410 O 547.865 -5.3781 -0.970685 0
M  V30 5411 H 544.959 -0.806784 -0.18174 0
M  V30 5412 H 547.505 -1.65137 0.390898 0
M  V30 5413 H 546.277 -3.87055 0.574821 0
M  V30 5414 H 545.9 -3.80933 -1.1391 0
M  V30 5415 N 546.897 -0.0685191 -1.57451 0
M  V30 5416 C 547.827 0.89747 -2.15564 0
M  V30 5417 C 548.808 1.31266 -1.08181 0
M  V30 5418 O 549.993 1.38429 -1.36202 0
M  V30 5419 C 547.123 2.16623 -2.71463 0
M  V30 5420 C 546.077 1.89054 -3.83982 0
M  V30 5421 C 545.403 3.22532 -4.26471 0
M  V30 5422 C 546.703 1.1984 -5.08366 0
M  V30 5423 H 548.397 0.413373 -2.96533 0
M  V30 5424 H 545.943 0.197391 -1.42641 0
M  V30 5425 H 547.896 2.84614 -3.10761 0
M  V30 5426 H 546.62 2.67269 -1.8771 0
M  V30 5427 H 545.279 1.23469 -3.45183 0
M  V30 5428 H 544.927 3.71013 -3.39644 0
M  V30 5429 H 544.627 3.04879 -5.02317 0
M  V30 5430 H 546.151 3.91727 -4.68383 0
M  V30 5431 H 547.565 1.77896 -5.45001 0
M  V30 5432 H 545.962 1.12456 -5.89469 0
M  V30 5433 H 547.032 0.176996 -4.84577 0
M  V30 5434 N 548.375 1.56261 0.205012 0
M  V30 5435 C 549.285 1.96944 1.27476 0
M  V30 5436 C 550.301 0.875636 1.50362 0
M  V30 5437 O 551.477 1.18058 1.6317 0
M  V30 5438 C 548.542 2.29219 2.60115 0
M  V30 5439 C 547.603 3.52255 2.45387 0
M  V30 5440 C 546.836 3.8298 3.71701 0
M  V30 5441 O 547.059 3.15138 4.75441 0
M  V30 5442 O 545.993 4.76435 3.67823 0
M  V30 5443 H 549.819 2.88144 0.959527 0
M  V30 5444 H 547.404 1.43686 0.409217 0
M  V30 5445 H 549.286 2.51098 3.3842 0
M  V30 5446 H 547.961 1.4119 2.91285 0
M  V30 5447 H 546.868 3.35635 1.65227 0
M  V30 5448 H 548.201 4.40719 2.19152 0
M  V30 5449 N 549.853 -0.472356 1.50355 0
M  V30 5450 C 550.783 -1.57859 1.72055 0
M  V30 5451 C 551.764 -1.60283 0.569505 0
M  V30 5452 O 552.949 -1.7657 0.808503 0
M  V30 5453 C 550.079 -2.96191 1.81351 0
M  V30 5454 C 549.033 -3.08633 2.96529 0
M  V30 5455 C 548.359 -4.486 2.90968 0
M  V30 5456 C 549.659 -2.85969 4.37057 0
M  V30 5457 H 551.353 -1.39953 2.64676 0
M  V30 5458 H 548.899 -0.671846 1.27367 0
M  V30 5459 H 550.852 -3.73507 1.95117 0
M  V30 5460 H 549.576 -3.15251 0.853502 0
M  V30 5461 H 548.235 -2.33749 2.82413 0
M  V30 5462 H 547.883 -4.64577 1.92815 0
M  V30 5463 H 547.583 -4.57861 3.68289 0
M  V30 5464 H 549.107 -5.27938 3.0678 0
M  V30 5465 H 550.521 -3.53036 4.51706 0
M  V30 5466 H 548.918 -3.06677 5.15819 0
M  V30 5467 H 549.988 -1.81838 4.49514 0
M  V30 5468 N 551.331 -1.39911 -0.725443 0
M  V30 5469 C 552.747 -1.21725 -1.03224 0
M  V30 5470 C 552.947 -0.0855224 -2.01318 0
M  V30 5471 O 552.003 0.55976 -2.46217 0
M  V30 5472 C 553.316 -2.55511 -1.58539 0
M  V30 5473 C 554.864 -2.62439 -1.70572 0
M  V30 5474 C 555.339 -3.9647 -2.29294 0
M  V30 5475 N 556.83 -3.98159 -2.36692 0
M  V30 5476 C 557.565 -4.98647 -2.83088 0
M  V30 5477 N 557.061 -6.0953 -3.2931 0
M  V30 5478 N 558.854 -4.8602 -2.82384 0
M  V30 5479 H 551.005 -2.12267 -0.075048 0
M  V30 5480 H 553.268 -0.943136 -0.0959066 0
M  V30 5481 H 552.974 -3.38926 -0.939249 0
M  V30 5482 H 552.848 -2.75905 -2.57208 0
M  V30 5483 H 555.235 -1.79401 -2.34306 0
M  V30 5484 H 555.316 -2.45885 -0.705297 0
M  V30 5485 H 554.96 -4.79942 -1.66186 0
M  V30 5486 H 554.89 -4.10349 -3.30032 0
M  V30 5487 H 557.381 -3.18085 -2.04035 0
M  V30 5488 H 557.694 -6.82106 -3.6325 0
M  V30 5489 H 556.039 -6.1311 -3.27294 0
M  V30 5490 H 559.23 -3.98493 -2.45603 0
M  V30 5491 H 559.403 -5.64478 -3.18226 0
M  V30 5492 N 552.809 0.956637 -1.25245 0
M  V30 5493 C 553.739 2.07058 -1.07931 0
M  V30 5494 C 554.72 1.70096 0.0110361 0
M  V30 5495 O 555.905 1.93555 -0.158121 0
M  V30 5496 C 553.035 3.40272 -0.695124 0
M  V30 5497 C 551.989 3.91235 -1.73549 0
M  V30 5498 C 551.315 5.20921 -1.20604 0
M  V30 5499 C 552.615 4.17837 -3.13385 0
M  V30 5500 H 554.309 2.218 -2.01109 0
M  V30 5501 H 551.855 1.06581 -0.968326 0
M  V30 5502 H 553.808 4.1765 -0.560949 0
M  V30 5503 H 552.532 3.25462 0.272355 0
M  V30 5504 H 551.191 3.16025 -1.85807 0
M  V30 5505 H 550.839 5.02479 -0.228846 0
M  V30 5506 H 550.539 5.55987 -1.90136 0
M  V30 5507 H 552.063 6.00897 -1.08421 0
M  V30 5508 H 553.477 4.8588 -3.04292 0
M  V30 5509 H 551.874 4.64154 -3.80369 0
M  V30 5510 H 552.944 3.2419 -3.60595 0
M  V30 5511 N 554.287 1.06798 1.15896 0
M  V30 5512 C 555.703 0.792423 1.38538 0
M  V30 5513 C 555.903 -0.60592 1.92174 0
M  V30 5514 O 554.959 -1.36561 2.12385 0
M  V30 5515 C 556.272 1.86157 2.36149 0
M  V30 5516 C 557.82 1.88567 2.49823 0
M  V30 5517 C 558.295 2.9455 3.5072 0
M  V30 5518 N 559.786 2.93616 3.58251 0
M  V30 5519 C 560.521 3.72267 4.36125 0
M  V30 5520 N 560.017 4.60751 5.17379 0
M  V30 5521 N 561.81 3.60637 4.31158 0
M  V30 5522 H 553.961 1.96993 0.794198 0
M  V30 5523 H 556.224 0.853942 0.411688 0
M  V30 5524 H 555.93 2.86603 2.03843 0
M  V30 5525 H 555.804 1.71692 3.3586 0
M  V30 5526 H 558.191 0.887765 2.8143 0
M  V30 5527 H 558.272 2.0711 1.5013 0
M  V30 5528 H 557.916 3.94537 3.19849 0
M  V30 5529 H 557.846 2.73255 4.50155 0
M  V30 5530 H 560.337 2.29472 3.00252 0
M  V30 5531 H 560.65 5.17408 5.74028 0
M  V30 5532 H 558.995 4.64803 5.16704 0
M  V30 5533 H 562.186 2.90892 3.66742 0
M  V30 5534 H 562.359 4.22176 4.91601 0
M  V30 5535 N 555.766 -1.3263 0.851289 0
M  V30 5536 C 557.014 -1.96978 0.452128 0
M  V30 5537 C 557.335 -1.67715 -0.99482 0
M  V30 5538 O 556.605 -0.98259 -1.69476 0
M  V30 5539 H 555.185 -0.72873 0.164202 0
M  V30 5540 H 557.847 -1.61774 1.08698 0
M  V30 5541 H 556.943 -3.06387 0.594407 0
M  V30 5542 N 557.244 -0.608902 -1.45362 0
M  V30 5543 C 558.492 -0.104401 -2.0183 0
M  V30 5544 C 558.813 1.27007 -1.47967 0
M  V30 5545 O 558.083 1.83924 -0.674455 0
M  V30 5546 H 556.663 -0.0356042 -0.746151 0
M  V30 5547 H 559.325 -0.790596 -1.78145 0
M  V30 5548 H 558.421 -0.0551793 -3.12051 0
M  V30 5549 N 558.722 1.53707 -0.348139 0
M  V30 5550 C 559.97 2.00591 0.246478 0
M  V30 5551 C 560.291 1.23753 1.50699 0
M  V30 5552 O 559.561 0.345964 1.92821 0
M  V30 5553 H 558.141 0.741053 0.0940679 0
M  V30 5554 H 560.803 1.89139 -0.470354 0
M  V30 5555 H 559.899 3.08297 0.485714 0
M  V30 5556 N 560.2 0.0768682 1.57412 0
M  V30 5557 C 561.425 -0.603404 1.98428 0
M  V30 5558 C 561.85 -1.62047 0.955108 0
M  V30 5559 O 561.208 -1.81129 -0.0786778 0
M  V30 5560 C 561.256 -1.24396 3.38464 0
M  V30 5561 O 560.36 -2.35982 3.3821 0
M  V30 5562 H 559.701 -0.154741 0.645718 0
M  V30 5563 H 562.231 0.152885 2.04028 0
M  V30 5564 H 562.241 -1.5896 3.7576 0
M  V30 5565 H 560.916 -0.498735 4.12899 0
M  V30 5566 H 559.493 -2.03173 3.1269 0
M  V30 5567 N 561.678 -1.56367 -0.196722 0
M  V30 5568 C 563.094 -1.49916 -0.54749 0
M  V30 5569 C 563.294 -0.77659 -1.85934 0
M  V30 5570 O 562.35 -0.32644 -2.50381 0
M  V30 5571 C 563.663 -2.94577 -0.603734 0
M  V30 5572 C 565.211 -3.05239 -0.692677 0
M  V30 5573 C 565.686 -4.51308 -0.780046 0
M  V30 5574 N 567.177 -4.55453 -0.843616 0
M  V30 5575 C 567.912 -5.65786 -0.931358 0
M  V30 5576 N 567.408 -6.85812 -0.981503 0
M  V30 5577 N 569.201 -5.53695 -0.968421 0
M  V30 5578 H 561.352 -2.01761 0.663803 0
M  V30 5579 H 563.615 -0.918094 0.236238 0
M  V30 5580 H 563.321 -3.50494 0.29105 0
M  V30 5581 H 563.195 -3.47841 -1.45898 0
M  V30 5582 H 565.582 -2.49372 -1.57789 0
M  V30 5583 H 565.663 -2.55103 0.188736 0
M  V30 5584 H 565.307 -5.078 0.100811 0
M  V30 5585 H 565.237 -4.99176 -1.67724 0
M  V30 5586 H 567.728 -3.69025 -0.814176 0
M  V30 5587 H 568.041 -7.65648 -1.04892 0
M  V30 5588 H 566.386 -6.88474 -0.950208 0
M  V30 5589 H 569.577 -4.58848 -0.926072 0
M  V30 5590 H 569.75 -6.39708 -1.03334 0
M  V30 5591 N 563.156 0.464375 -1.50603 0
M  V30 5592 C 564.396 1.22573 -1.6357 0
M  V30 5593 C 564.76 1.89111 -0.331834 0
M  V30 5594 O 565.961 2.66679 -0.336999 0
M  V30 5595 C 564.232 2.23643 -2.7878 0
M  V30 5596 S 565.791 3.08628 -3.1192 0
M  V30 5597 H 562.609 0.416058 -0.576556 0
M  V30 5598 H 565.211 0.521637 -1.88412 0
M  V30 5599 H 563.915 1.73354 -3.7199 0
M  V30 5600 H 563.446 2.98672 -2.56044 0
M  V30 5601 H 565.461 4.24904 -2.56264 0
M  V30 5602 N 564.634 1.40294 0.718013 0
M  V30 5603 C 565.597 1.4012 1.81381 0
M  V30 5604 C 566.597 0.295405 1.58063 0
M  V30 5605 O 567.787 0.554187 1.6515 0
M  V30 5606 C 564.919 1.19056 3.19435 0
M  V30 5607 H 566.112 2.37645 1.82933 0
M  V30 5608 H 563.665 1.26107 0.923405 0
M  V30 5609 H 564.4 0.222809 3.23534 0
M  V30 5610 H 564.185 1.99152 3.37758 0
M  V30 5611 H 565.675 1.21716 3.99468 0
M  V30 5612 N 566.112 -0.949982 1.2575 0
M  V30 5613 C 567.36 -1.6918 1.10555 0
M  V30 5614 C 567.681 -1.91773 -0.353298 0
M  V30 5615 O 566.951 -1.50814 -1.25027 0
M  V30 5616 H 565.531 -0.626952 0.406129 0
M  V30 5617 H 568.193 -1.1419 1.57945 0
M  V30 5618 H 567.289 -2.66915 1.61749 0
M  V30 5619 N 567.59 -1.07411 -1.15328 0
M  V30 5620 C 568.818 -0.818782 -1.90009 0
M  V30 5621 C 569.233 0.628072 -1.78047 0
M  V30 5622 O 568.59 1.43085 -1.13282 0
M  V30 5623 C 568.641 -1.21874 -3.40337 0
M  V30 5624 O 568.362 -2.60883 -3.51954 0
M  V30 5625 C 569.863 -0.992796 -4.3204 0
M  V30 5626 H 567.083 -0.296007 -0.60218 0
M  V30 5627 H 569.627 -1.43073 -1.46117 0
M  V30 5628 H 567.782 -0.651103 -3.81889 0
M  V30 5629 H 568.196 -2.77216 -4.45255 0
M  V30 5630 H 569.67 -1.32215 -5.35932 0
M  V30 5631 H 570.147 0.0708331 -4.39143 0
M  V30 5632 H 570.753 -1.54537 -3.9623 0
M  V30 5633 N 569.068 1.32177 -0.85831 0
M  V30 5634 C 570.314 1.97417 -0.46417 0
M  V30 5635 C 570.647 1.67746 0.978514 0
M  V30 5636 O 569.922 0.967654 1.68721 0
M  V30 5637 C 570.205 3.53069 -0.708094 0
M  V30 5638 C 570.058 3.92357 -2.19946 0
M  V30 5639 C 571.377 4.39783 -0.166881 0
M  V30 5640 H 568.496 0.717097 -0.17012 0
M  V30 5641 H 571.138 1.56499 -1.07741 0
M  V30 5642 H 569.288 3.88054 -0.186128 0
M  V30 5643 H 570.96 3.67533 -2.78779 0
M  V30 5644 H 569.203 3.41384 -2.67656 0
M  V30 5645 H 569.874 5.00841 -2.32082 0
M  V30 5646 H 572.35 4.11556 -0.613285 0
M  V30 5647 H 571.226 5.47671 -0.367093 0
M  V30 5648 H 571.487 4.32196 0.930559 0
M  V30 5649 N 570.547 0.616602 1.45037 0
M  V30 5650 C 571.457 -0.0985401 2.34393 0
M  V30 5651 C 572.473 -0.850971 1.51771 0
M  V30 5652 O 573.649 -0.806521 1.84546 0
M  V30 5653 C 570.714 -1.07748 3.29532 0
M  V30 5654 C 569.775 -0.326022 4.2806 0
M  V30 5655 C 569.008 -1.25833 5.18654 0
M  V30 5656 O 569.231 -2.49652 5.12864 0
M  V30 5657 O 568.165 -0.750512 5.97203 0
M  V30 5658 H 571.991 0.636016 2.96966 0
M  V30 5659 H 569.576 0.376832 1.44569 0
M  V30 5660 H 571.458 -1.64107 3.88133 0
M  V30 5661 H 570.133 -1.79291 2.69512 0
M  V30 5662 H 569.04 0.280253 3.73049 0
M  V30 5663 H 570.373 0.349091 4.9096 0
M  V30 5664 N 572.025 -1.5352 0.356285 0
M  V30 5665 C 573.271 -2.01414 -0.236653 0
M  V30 5666 C 573.604 -1.24339 -1.49176 0
M  V30 5667 O 572.879 -0.334496 -1.91602 0
M  V30 5668 C 573.162 -3.56059 -0.537982 0
M  V30 5669 C 573.015 -4.43835 0.730112 0
M  V30 5670 C 574.334 -4.19127 -1.34239 0
M  V30 5671 H 571.453 -0.732135 -0.0845386 0
M  V30 5672 H 574.095 -1.83854 0.479341 0
M  V30 5673 H 572.245 -3.71153 -1.14795 0
M  V30 5674 H 573.917 -4.40555 1.36782 0
M  V30 5675 H 572.16 -4.1218 1.3524 0
M  V30 5676 H 572.831 -5.49958 0.474358 0
M  V30 5677 H 575.307 -4.07809 -0.826498 0
M  V30 5678 H 574.183 -5.27378 -1.52198 0
M  V30 5679 H 574.444 -3.74581 -2.34822 0
M  V30 5680 N 573.503 -0.0852151 -1.57369 0
M  V30 5681 C 574.413 0.891712 -2.16992 0
M  V30 5682 C 575.429 1.3174 -1.13669 0
M  V30 5683 O 576.605 1.38735 -1.45995 0
M  V30 5684 C 573.67 2.13635 -2.73059 0
M  V30 5685 C 572.731 1.7658 -3.91303 0
M  V30 5686 C 571.964 2.95111 -4.44686 0
M  V30 5687 O 572.187 4.09539 -3.97032 0
M  V30 5688 O 571.121 2.74149 -5.35841 0
M  V30 5689 H 574.947 0.414477 -3.00858 0
M  V30 5690 H 572.532 0.138598 -1.48756 0
M  V30 5691 H 574.414 2.86595 -3.08935 0
M  V30 5692 H 573.089 2.6043 -1.92244 0
M  V30 5693 H 571.996 1.00831 -3.60255 0
M  V30 5694 H 573.329 1.34557 -4.7345 0
M  V30 5695 N 574.981 1.5647 0.188427 0
M  V30 5696 C 576.23 1.80207 0.905995 0
M  V30 5697 C 576.543 0.659579 1.84144 0
M  V30 5698 O 577.749 0.781431 2.60011 0
M  V30 5699 C 576.205 3.19255 1.66145 0
M  V30 5700 C 575.813 4.41324 0.770504 0
M  V30 5701 C 577.557 3.52298 2.36826 0
M  V30 5702 C 575.464 5.71394 1.52521 0
M  V30 5703 H 574.394 0.671953 0.342045 0
M  V30 5704 H 577.045 1.82808 0.159164 0
M  V30 5705 H 575.427 3.10922 2.45242 0
M  V30 5706 H 576.601 4.60797 0.0177261 0
M  V30 5707 H 574.916 4.16035 0.174199 0
M  V30 5708 H 577.513 4.46715 2.93854 0
M  V30 5709 H 577.856 2.76359 3.11338 0
M  V30 5710 H 578.389 3.62108 1.6469 0
M  V30 5711 H 575.128 6.50316 0.82275 0
M  V30 5712 H 574.648 5.55928 2.25175 0
M  V30 5713 H 576.327 6.12747 2.07725 0
M  V30 5714 N 576.459 -0.456382 1.50847 0
M  V30 5715 C 577.391 -1.57033 1.66953 0
M  V30 5716 C 578.404 -1.53207 0.550593 0
M  V30 5717 O 579.593 -1.58328 0.824285 0
M  V30 5718 C 576.693 -2.95937 1.65149 0
M  V30 5719 C 575.866 -3.24475 2.93317 0
M  V30 5720 C 574.925 -4.43007 2.83957 0
M  V30 5721 O 573.951 -4.42592 3.57912 0
M  V30 5722 N 575.153 -5.45503 1.9851 0
M  V30 5723 H 577.918 -1.43629 2.63042 0
M  V30 5724 H 575.479 -0.645037 1.48495 0
M  V30 5725 H 577.471 -3.73224 1.56481 0
M  V30 5726 H 576.041 -3.03036 0.767343 0
M  V30 5727 H 575.261 -2.35664 3.16 0
M  V30 5728 H 576.549 -3.4036 3.78196 0
M  V30 5729 H 575.947 -5.48668 1.37766 0
M  V30 5730 H 574.504 -6.21716 1.95735 0
M  V30 5731 N 577.937 -1.40673 -0.710563 0
M  V30 5732 C 579.353 -1.22813 -1.01928 0
M  V30 5733 C 579.553 -0.10687 -2.01216 0
M  V30 5734 O 578.609 0.533614 -2.46797 0
M  V30 5735 C 579.922 -2.57178 -1.5582 0
M  V30 5736 C 581.47 -2.64233 -1.67779 0
M  V30 5737 C 581.945 -3.98879 -2.25076 0
M  V30 5738 N 583.436 -4.00647 -2.32456 0
M  V30 5739 C 584.171 -5.01621 -2.77784 0
M  V30 5740 N 583.667 -6.12989 -3.22826 0
M  V30 5741 N 585.46 -4.88988 -2.77213 0
M  V30 5742 H 577.611 -2.12335 -0.05253 0
M  V30 5743 H 579.874 -0.9441 -0.085898 0
M  V30 5744 H 579.58 -3.39903 -0.903249 0
M  V30 5745 H 579.454 -2.78618 -2.54267 0
M  V30 5746 H 581.841 -1.81876 -2.3239 0
M  V30 5747 H 581.922 -2.46619 -0.679178 0
M  V30 5748 H 581.566 -4.81678 -1.61086 0
M  V30 5749 H 581.496 -4.13826 -3.25661 0
M  V30 5750 H 583.987 -3.20231 -2.0065 0
M  V30 5751 H 584.3 -6.85921 -3.55995 0
M  V30 5752 H 582.645 -6.16547 -3.20773 0
M  V30 5753 H 585.836 -4.01075 -2.41363 0
M  V30 5754 H 586.009 -5.67822 -3.12221 0
M  V30 5755 N 579.415 0.9433 -1.26252 0
M  V30 5756 C 580.345 2.05902 -1.10122 0
M  V30 5757 C 581.326 1.70099 -0.00700552 0
M  V30 5758 O 582.511 1.93377 -0.178641 0
M  V30 5759 C 579.641 3.39516 -0.731175 0
M  V30 5760 C 578.595 3.89372 -1.77688 0
M  V30 5761 C 577.921 5.19613 -1.26122 0
M  V30 5762 C 579.221 4.14489 -3.17799 0
M  V30 5763 H 580.915 2.19655 -2.03451 0
M  V30 5764 H 578.461 1.05548 -0.979576 0
M  V30 5765 H 580.414 4.17031 -0.605215 0
M  V30 5766 H 579.138 3.25733 0.23782 0
M  V30 5767 H 577.797 3.14036 -1.89148 0
M  V30 5768 H 577.445 5.02208 -0.282128 0
M  V30 5769 H 577.145 5.53939 -1.96023 0
M  V30 5770 H 578.669 5.99713 -1.14789 0
M  V30 5771 H 580.083 4.82625 -3.09428 0
M  V30 5772 H 578.48 4.60094 -3.85271 0
M  V30 5773 H 579.55 3.20347 -3.64014 0
M  V30 5774 N 580.893 1.08022 1.14757 0
M  V30 5775 C 581.823 0.728248 2.21853 0
M  V30 5776 C 582.804 -0.287486 1.67653 0
M  V30 5777 O 583.989 -0.158727 1.9355 0
M  V30 5778 C 581.119 0.132549 3.47047 0
M  V30 5779 C 580.073 1.07619 4.14249 0
M  V30 5780 C 579.399 0.342907 5.33599 0
M  V30 5781 C 580.699 2.41268 4.63235 0
M  V30 5782 H 582.393 1.62365 2.51551 0
M  V30 5783 H 579.939 0.782125 1.20908 0
M  V30 5784 H 581.892 -0.125665 4.21213 0
M  V30 5785 H 580.616 -0.797971 3.16702 0
M  V30 5786 H 579.275 1.31944 3.42033 0
M  V30 5787 H 578.923 -0.59129 4.99513 0
M  V30 5788 H 578.623 0.971955 5.79506 0
M  V30 5789 H 580.147 0.0926538 6.1053 0
M  V30 5790 H 581.561 2.21232 5.28894 0
M  V30 5791 H 579.958 2.9983 5.19829 0
M  V30 5792 H 581.028 3.03079 3.78512 0
M  V30 5793 N 582.371 -1.3172 0.865308 0
M  V30 5794 C 583.619 -1.96487 0.472995 0
M  V30 5795 C 583.94 -1.68761 -0.976975 0
M  V30 5796 O 583.21 -1.00051 -1.68424 0
M  V30 5797 H 581.79 -0.726947 0.171922 0
M  V30 5798 H 584.452 -1.60612 1.10407 0
M  V30 5799 H 583.548 -3.0574 0.62687 0
M  V30 5800 N 583.85 -0.624285 -1.44708 0
M  V30 5801 C 584.797 0.0847135 -2.30644 0
M  V30 5802 C 585.767 0.843575 -1.43084 0
M  V30 5803 O 586.952 0.825982 -1.71995 0
M  V30 5804 C 584.091 1.06495 -3.28257 0
M  V30 5805 C 583.205 0.305224 -4.3092 0
M  V30 5806 C 582.34 1.27667 -5.1563 0
M  V30 5807 C 581.379 0.505706 -6.10007 0
M  V30 5808 N 580.516 1.42727 -6.8744 0
M  V30 5809 H 585.356 -0.654068 -2.90733 0
M  V30 5810 H 582.893 -0.334334 -1.4325 0
M  V30 5811 H 584.851 1.64658 -3.83332 0
M  V30 5812 H 583.481 1.77094 -2.69884 0
M  V30 5813 H 582.533 -0.392207 -3.78373 0
M  V30 5814 H 583.845 -0.295553 -4.97924 0
M  V30 5815 H 582.999 1.92984 -5.75189 0
M  V30 5816 H 581.738 1.91137 -4.48685 0
M  V30 5817 H 580.743 -0.160999 -5.49564 0
M  V30 5818 H 581.968 -0.124183 -6.78986 0
M  V30 5819 H 579.913 2.04931 -6.23169 0
M  V30 5820 H 579.831 0.880345 -7.50857 0
M  V30 5821 H 581.099 2.0695 -7.51526 0
M  V30 5822 N 585.328 1.53329 -0.364422 0
M  V30 5823 C 586.574 2.01537 0.225969 0
M  V30 5824 C 586.907 1.25128 1.48515 0
M  V30 5825 O 586.182 0.344653 1.91422 0
M  V30 5826 C 586.465 3.56339 0.519092 0
M  V30 5827 C 586.318 4.43441 -0.753639 0
M  V30 5828 C 587.637 4.19833 1.32015 0
M  V30 5829 H 584.756 0.732573 0.0806548 0
M  V30 5830 H 587.398 1.83597 -0.489084 0
M  V30 5831 H 585.548 3.71756 1.12825 0
M  V30 5832 H 587.22 4.39823 -1.39116 0
M  V30 5833 H 585.463 4.11457 -1.37424 0
M  V30 5834 H 586.134 5.49699 -0.503517 0
M  V30 5835 H 588.61 4.08242 0.804859 0
M  V30 5836 H 587.486 5.28177 1.49399 0
M  V30 5837 H 587.747 3.75821 2.32832 0
M  V30 5838 N 586.806 0.0935595 1.57322 0
M  V30 5839 C 588.046 -0.573901 1.96178 0
M  V30 5840 C 588.41 -1.65445 0.97426 0
M  V30 5841 O 589.611 -2.37901 1.25126 0
M  V30 5842 C 587.882 -1.11612 3.39526 0
M  V30 5843 S 589.441 -1.79566 4.00377 0
M  V30 5844 H 586.259 -0.187315 0.685882 0
M  V30 5845 H 588.861 0.172597 1.94737 0
M  V30 5846 H 587.565 -0.31815 4.09165 0
M  V30 5847 H 587.096 -1.89848 3.4456 0
M  V30 5848 H 589.111 -3.07978 3.89056 0
M  V30 5849 N 588.284 -1.56567 -0.180126 0
M  V30 5850 C 589.561 -1.7235 -0.924931 0
M  V30 5851 C 589.941 -0.652523 -2.00762 0
M  V30 5852 O 589.289 0.334115 -2.26044 0
M  V30 5853 C 589.499 -3.1523 -1.49771 0
M  V30 5854 C 590.847 -3.75921 -1.97405 0
M  V30 5855 O 591.871 -3.18452 -1.59583 0
M  V30 5856 O 590.73 -4.7681 -2.67048 0
M  V30 5857 H 587.824 -0.703502 -0.434758 0
M  V30 5858 H 590.37 -1.6886 -0.168647 0
M  V30 5859 H 589.142 -3.84656 -0.718027 0
M  V30 5860 H 588.765 -3.23009 -2.31842 0
M  V30 5861 N 589.762 0.448376 -1.51087 0
M  V30 5862 C 591.178 0.783984 -1.39017 0
M  V30 5863 C 591.378 1.96087 -0.463904 0
M  V30 5864 O 590.434 2.52357 0.0850534 0
M  V30 5865 C 591.747 1.07471 -2.80839 0
M  V30 5866 C 593.295 1.17981 -2.89913 0
M  V30 5867 C 593.77 1.50354 -4.32617 0
M  V30 5868 N 595.261 1.57301 -4.35673 0
M  V30 5869 C 595.996 1.839 -5.4311 0
M  V30 5870 N 595.492 2.08365 -6.60724 0
M  V30 5871 N 597.285 1.8559 -5.30578 0
M  V30 5872 H 589.436 -0.326881 -2.0987 0
M  V30 5873 H 591.699 -0.0838006 -0.944289 0
M  V30 5874 H 591.405 0.282768 -3.50561 0
M  V30 5875 H 591.279 2.00519 -3.19487 0
M  V30 5876 H 593.666 1.9624 -2.20395 0
M  V30 5877 H 593.747 0.228603 -2.54776 0
M  V30 5878 H 593.391 0.726273 -5.0268 0
M  V30 5879 H 593.321 2.46663 -4.65258 0
M  V30 5880 H 595.812 1.40342 -3.50874 0
M  V30 5881 H 596.125 2.27999 -7.38401 0
M  V30 5882 H 594.47 2.0571 -6.63859 0
M  V30 5883 H 597.661 1.65989 -4.37682 0
M  V30 5884 H 597.834 2.05983 -6.1439 0
M  V30 5885 N 591.24 1.41047 0.703093 0
M  V30 5886 C 592.488 1.39723 1.4602 0
M  V30 5887 C 592.809 0.00461257 1.94999 0
M  V30 5888 O 592.079 -0.952292 1.71196 0
M  V30 5889 H 590.659 0.514281 0.541779 0
M  V30 5890 H 593.321 1.76217 0.832678 0
M  V30 5891 H 592.417 2.07982 2.32701 0
M  V30 5892 N 592.718 -0.936591 1.26751 0
M  V30 5893 C 593.964 -1.68625 1.13741 0
M  V30 5894 C 594.319 -1.898 -0.315221 0
M  V30 5895 O 593.612 -1.47088 -1.22783 0
M  V30 5896 C 593.806 -3.06099 1.84494 0
M  V30 5897 C 593.635 -2.98338 3.36488 0
M  V30 5898 C 592.405 -3.01104 4.05789 0
M  V30 5899 C 594.603 -2.78128 4.32608 0
M  V30 5900 N 592.585 -2.8369 5.4442 0
M  V30 5901 C 593.956 -2.69329 5.58446 0
M  V30 5902 C 596.011 -2.62946 4.22804 0
M  V30 5903 C 594.714 -2.46899 6.75598 0
M  V30 5904 C 596.74 -2.41892 5.39669 0
M  V30 5905 C 596.102 -2.33829 6.64457 0
M  V30 5906 H 592.201 -0.624227 0.471025 0
M  V30 5907 H 594.785 -1.10798 1.601 0
M  V30 5908 H 592.956 -3.62057 1.40604 0
M  V30 5909 H 594.688 -3.69951 1.64067 0
M  V30 5910 H 591.443 -3.10992 3.57185 0
M  V30 5911 H 591.867 -2.78138 6.17226 0
M  V30 5912 H 596.509 -2.67944 3.27056 0
M  V30 5913 H 594.227 -2.40642 7.71438 0
M  V30 5914 H 597.813 -2.31043 5.33957 0
M  V30 5915 H 596.693 -2.17754 7.53361 0
M  V30 5916 N 594.196 -1.08629 -1.14182 0
M  V30 5917 C 595.444 -0.815731 -1.84906 0
M  V30 5918 C 595.765 0.660441 -1.83475 0
M  V30 5919 O 595.035 1.47888 -1.28476 0
M  V30 5920 H 593.615 -0.298773 -0.684648 0
M  V30 5921 H 596.277 -1.37274 -1.38354 0
M  V30 5922 H 595.373 -1.16193 -2.89665 0
M  V30 5923 N 595.674 1.31259 -0.872281 0
M  V30 5924 C 596.604 2.30929 -0.345554 0
M  V30 5925 C 597.585 1.60449 0.5648 0
M  V30 5926 O 598.77 1.8814 0.481335 0
M  V30 5927 C 595.9 3.44348 0.451823 0
M  V30 5928 C 594.854 4.26435 -0.365641 0
M  V30 5929 C 594.18 5.31785 0.557562 0
M  V30 5930 C 595.48 4.97159 -1.60095 0
M  V30 5931 H 597.174 2.75234 -1.17841 0
M  V30 5932 H 594.72 1.3232 -0.568094 0
M  V30 5933 H 596.673 4.13128 0.830854 0
M  V30 5934 H 595.397 2.98816 1.31821 0
M  V30 5935 H 594.056 3.59326 -0.726649 0
M  V30 5936 H 593.704 4.82502 1.4213 0
M  V30 5937 H 593.404 5.87598 0.0144878 0
M  V30 5938 H 594.928 6.03424 0.933387 0
M  V30 5939 H 596.342 5.58523 -1.29323 0
M  V30 5940 H 594.739 5.62779 -2.08327 0
M  V30 5941 H 595.809 4.24012 -2.35249 0
M  V30 5942 N 597.152 0.631951 1.44375 0
M  V30 5943 C 598.099 -0.0724807 2.30686 0
M  V30 5944 C 599.069 -0.835975 1.43529 0
M  V30 5945 O 600.254 -0.816849 1.7243 0
M  V30 5946 C 597.394 -1.04753 3.28817 0
M  V30 5947 C 596.507 -0.282367 4.31076 0
M  V30 5948 C 595.642 -1.2493 5.163 0
M  V30 5949 C 594.681 -0.473349 6.10267 0
M  V30 5950 N 593.818 -1.39079 6.88187 0
M  V30 5951 H 598.658 0.669477 2.90383 0
M  V30 5952 H 596.195 0.341927 1.43071 0
M  V30 5953 H 598.153 -1.62623 3.842 0
M  V30 5954 H 596.783 -1.75661 2.70819 0
M  V30 5955 H 595.835 0.412268 3.78159 0
M  V30 5956 H 597.147 0.321955 4.9776 0
M  V30 5957 H 596.301 -1.89931 5.76204 0
M  V30 5958 H 595.04 -1.88755 4.49692 0
M  V30 5959 H 594.045 0.190142 5.49471 0
M  V30 5960 H 595.27 0.16019 6.78911 0
M  V30 5961 H 593.216 -2.01623 6.24247 0
M  V30 5962 H 593.133 -0.840513 7.51313 0
M  V30 5963 H 594.401 -2.02961 7.52613 0
M  V30 5964 N 598.631 -1.53133 0.372548 0
M  V30 5965 C 599.541 -2.29671 -0.478379 0
M  V30 5966 C 600.557 -1.35913 -1.08644 0
M  V30 5967 O 601.733 -1.68975 -1.09588 0
M  V30 5968 C 598.798 -3.07625 -1.599 0
M  V30 5969 C 597.859 -4.17061 -1.01776 0
M  V30 5970 C 597.092 -4.91289 -2.08497 0
M  V30 5971 O 597.315 -4.65442 -3.29727 0
M  V30 5972 O 596.249 -5.7705 -1.71164 0
M  V30 5973 H 600.075 -3.03355 0.144649 0
M  V30 5974 H 597.66 -1.48773 0.136729 0
M  V30 5975 H 599.542 -3.56281 -2.25038 0
M  V30 5976 H 598.217 -2.3677 -2.2073 0
M  V30 5977 H 597.124 -3.72641 -0.330098 0
M  V30 5978 H 598.457 -4.90102 -0.453915 0
M  V30 5979 N 600.109 -0.101901 -1.5727 0
M  V30 5980 C 601.072 0.840129 -2.13247 0
M  V30 5981 C 602.072 1.20625 -1.06331 0
M  V30 5982 O 603.262 1.13456 -1.32186 0
M  V30 5983 C 600.394 2.13372 -2.65867 0
M  V30 5984 H 601.587 0.353945 -2.97804 0
M  V30 5985 H 599.14 0.147167 -1.55606 0
M  V30 5986 H 599.875 2.66461 -1.84849 0
M  V30 5987 H 599.66 1.88085 -3.44044 0
M  V30 5988 H 601.15 2.80748 -3.09145 0
M  V30 5989 N 601.587 1.56661 0.17182 0
M  V30 5990 C 602.864 1.72838 0.915778 0
M  V30 5991 C 603.244 0.66316 2.00413 0
M  V30 5992 O 602.592 -0.322123 2.26218 0
M  V30 5993 C 602.802 3.16019 1.48097 0
M  V30 5994 C 604.15 3.76962 1.95408 0
M  V30 5995 O 605.174 3.19294 1.57892 0
M  V30 5996 O 604.033 4.78219 2.64516 0
M  V30 5997 H 601.127 0.705797 0.431021 0
M  V30 5998 H 603.673 1.68947 0.159689 0
M  V30 5999 H 602.445 3.85031 0.697618 0
M  V30 6000 H 602.068 3.24234 2.30126 0
M  V30 6001 N 603.065 -0.440357 1.51323 0
M  V30 6002 C 604.311 -1.19181 1.64085 0
M  V30 6003 C 604.644 -1.90936 0.354575 0
M  V30 6004 O 603.919 -1.8347 -0.645675 0
M  V30 6005 C 604.202 -2.2112 2.84215 0
M  V30 6006 C 604.055 -1.53468 4.22809 0
M  V30 6007 C 605.374 -3.22133 2.99864 0
M  V30 6008 H 602.493 -0.431924 0.597169 0
M  V30 6009 H 605.135 -0.481443 1.83799 0
M  V30 6010 H 603.285 -2.81703 2.67537 0
M  V30 6011 H 604.957 -0.962455 4.51148 0
M  V30 6012 H 603.2 -0.837086 4.25647 0
M  V30 6013 H 603.871 -2.27694 5.02852 0
M  V30 6014 H 606.347 -2.71601 3.15233 0
M  V30 6015 H 605.223 -3.90756 3.85488 0
M  V30 6016 H 605.484 -3.88061 2.11804 0
M  V30 6017 N 604.543 -1.41418 -0.695603 0
M  V30 6018 C 605.789 -1.40982 -1.4578 0
M  V30 6019 C 606.122 -0.0187763 -1.94191 0
M  V30 6020 O 605.397 0.95346 -1.69527 0
M  V30 6021 C 605.68 -2.41657 -2.66972 0
M  V30 6022 C 605.533 -3.89869 -2.24327 0
M  V30 6023 C 606.852 -2.39589 -3.69168 0
M  V30 6024 H 603.971 -0.513405 -0.528757 0
M  V30 6025 H 606.613 -1.72693 -0.792275 0
M  V30 6026 H 604.763 -2.14746 -3.23754 0
M  V30 6027 H 606.435 -4.27683 -1.72872 0
M  V30 6028 H 604.678 -4.04737 -1.56111 0
M  V30 6029 H 605.349 -4.55857 -3.11285 0
M  V30 6030 H 607.825 -2.63471 -3.2206 0
M  V30 6031 H 606.701 -3.12044 -4.51575 0
M  V30 6032 H 606.962 -1.41447 -4.18862 0
M  V30 6033 N 606.021 0.929856 -1.27246 0
M  V30 6034 C 607.261 1.6919 -1.14691 0
M  V30 6035 C 607.625 1.896 0.302621 0
M  V30 6036 O 608.826 2.63102 0.550543 0
M  V30 6037 C 607.097 3.02291 -1.9067 0
M  V30 6038 S 608.656 3.93436 -1.94303 0
M  V30 6039 H 605.474 0.581248 -0.409477 0
M  V30 6040 H 608.076 1.10722 -1.61124 0
M  V30 6041 H 606.78 2.85125 -2.95181 0
M  V30 6042 H 606.311 3.65813 -1.44723 0
M  V30 6043 H 608.326 4.85224 -1.0379 0
M  V30 6044 N 607.499 1.09233 1.13605 0
M  V30 6045 C 608.915 0.82163 1.36826 0
M  V30 6046 C 609.115 -0.565021 1.93416 0
M  V30 6047 O 608.171 -1.32026 2.15234 0
M  V30 6048 C 609.484 1.91124 2.32147 0
M  V30 6049 C 611.032 1.93824 2.45767 0
M  V30 6050 C 611.507 3.01923 3.44393 0
M  V30 6051 N 612.998 3.01149 3.51942 0
M  V30 6052 C 613.733 3.81434 4.2813 0
M  V30 6053 N 613.229 4.71621 5.07489 0
M  V30 6054 N 615.022 3.69702 4.23411 0
M  V30 6055 H 607.173 1.98633 0.752234 0
M  V30 6056 H 609.436 0.862482 0.393482 0
M  V30 6057 H 609.142 2.90862 1.97717 0
M  V30 6058 H 609.016 1.78777 3.32142 0
M  V30 6059 H 611.403 0.94726 2.79483 0
M  V30 6060 H 611.484 2.10248 1.45703 0
M  V30 6061 H 611.128 4.01232 3.11408 0
M  V30 6062 H 611.058 2.82742 4.44257 0
M  V30 6063 H 613.549 2.35789 2.95317 0
M  V30 6064 H 613.862 5.29468 5.62924 0
M  V30 6065 H 612.207 4.75658 5.06729 0
M  V30 6066 H 615.398 2.98606 3.60489 0
M  V30 6067 H 615.571 4.32509 4.82535 0
M  V30 6068 N 608.977 -1.30795 0.87923 0
M  V30 6069 C 609.909 -2.27241 0.299025 0
M  V30 6070 C 610.922 -1.53472 -0.543166 0
M  V30 6071 O 612.111 -1.74756 -0.363651 0
M  V30 6072 C 609.211 -3.33655 -0.593931 0
M  V30 6073 C 608.384 -4.36857 0.2179 0
M  V30 6074 C 607.443 -5.22715 -0.604646 0
M  V30 6075 O 606.469 -5.69192 -0.0293838 0
M  V30 6076 N 607.671 -5.48008 -1.91488 0
M  V30 6077 H 610.436 -2.77667 1.12788 0
M  V30 6078 H 607.997 -1.43914 0.741637 0
M  V30 6079 H 609.989 -3.88013 -1.15012 0
M  V30 6080 H 608.559 -2.83202 -1.32346 0
M  V30 6081 H 607.779 -3.82444 0.955536 0
M  V30 6082 H 609.067 -5.02869 0.774614 0
M  V30 6083 H 608.465 -5.1202 -2.40525 0
M  V30 6084 H 607.022 -6.05264 -2.41864 0
M  V30 6085 N 610.455 -0.639598 -1.44038 0
M  V30 6086 C 611.385 0.0469443 -2.33453 0
M  V30 6087 C 612.366 0.82609 -1.48694 0
M  V30 6088 O 613.551 0.790285 -1.77393 0
M  V30 6089 C 610.681 1.02338 -3.3188 0
M  V30 6090 C 609.635 0.355284 -4.26523 0
M  V30 6091 C 608.961 1.44221 -5.14883 0
M  V30 6092 C 610.261 -0.743798 -5.16977 0
M  V30 6093 H 611.955 -0.699735 -2.91108 0
M  V30 6094 H 609.501 -0.337946 -1.39978 0
M  V30 6095 H 611.454 1.51247 -3.93322 0
M  V30 6096 H 610.178 1.80105 -2.72451 0
M  V30 6097 H 608.837 -0.113239 -3.66425 0
M  V30 6098 H 608.485 2.21097 -4.51802 0
M  V30 6099 H 608.185 1.00052 -5.79019 0
M  V30 6100 H 609.709 1.93295 -5.79197 0
M  V30 6101 H 611.123 -0.337444 -5.72306 0
M  V30 6102 H 609.52 -1.10914 -5.89761 0
M  V30 6103 H 610.59 -1.60745 -4.57481 0
M  V30 6104 N 611.933 1.52934 -0.380664 0
M  V30 6105 C 613.181 2.01069 0.203874 0
M  V30 6106 C 613.502 1.26922 1.4804 0
M  V30 6107 O 612.772 0.386787 1.92044 0
M  V30 6108 H 611.352 0.742882 0.0783279 0
M  V30 6109 H 614.014 1.88099 -0.510368 0
M  V30 6110 H 613.11 3.09258 0.42021 0
M  V30 6111 N 613.412 0.11024 1.57214 0
M  V30 6112 C 614.652 -0.553061 1.96775 0
M  V30 6113 C 615.016 -1.64403 0.991753 0
M  V30 6114 O 616.217 -2.36561 1.27642 0
M  V30 6115 C 614.488 -1.08004 3.4069 0
M  V30 6116 S 616.047 -1.75309 4.02259 0
M  V30 6117 H 612.865 -0.18003 0.68783 0
M  V30 6118 H 615.467 0.193242 1.94543 0
M  V30 6119 H 614.171 -0.274735 4.09479 0
M  V30 6120 H 613.702 -1.86182 3.46554 0
M  V30 6121 H 615.717 -3.03834 3.923 0
M  V30 6122 N 614.89 -1.56749 -0.16351 0
M  V30 6123 C 616.138 -1.82074 -0.87713 0
M  V30 6124 C 616.459 -0.688503 -1.82441 0
M  V30 6125 O 615.729 0.291085 -1.93725 0
M  V30 6126 H 614.309 -0.671677 -0.326893 0
M  V30 6127 H 616.971 -1.9423 -0.161459 0
M  V30 6128 H 616.067 -2.76407 -1.44934 0
M  V30 6129 N 616.368 0.432326 -1.51554 0
M  V30 6130 C 617.593 1.20824 -1.68571 0
M  V30 6131 C 618.018 1.84126 -0.384596 0
M  V30 6132 O 617.376 1.69025 0.655751 0
M  V30 6133 C 617.424 2.26429 -2.80646 0
M  V30 6134 O 616.528 3.32032 -2.44598 0
M  V30 6135 H 615.869 0.353765 -0.561913 0
M  V30 6136 H 618.399 0.509916 -1.98144 0
M  V30 6137 H 618.409 2.71133 -3.04878 0
M  V30 6138 H 617.084 1.79733 -3.75058 0
M  V30 6139 H 615.661 2.92769 -2.30956 0
M  V30 6140 N 617.846 1.41785 0.688094 0
M  V30 6141 C 618.809 1.43936 1.78368 0
M  V30 6142 C 619.809 0.328866 1.57401 0
M  V30 6143 O 620.999 0.589093 1.63937 0
M  V30 6144 C 618.131 1.25804 3.16838 0
M  V30 6145 H 619.324 2.41472 1.77852 0
M  V30 6146 H 616.877 1.28037 0.896448 0
M  V30 6147 H 617.612 0.291386 3.22988 0
M  V30 6148 H 617.397 2.06272 3.33458 0
M  V30 6149 H 618.887 1.30162 3.96797 0
M  V30 6150 N 619.324 -0.923095 1.27737 0
M  V30 6151 C 620.254 -2.04124 1.13383 0
M  V30 6152 C 621.235 -1.70066 0.0340658 0
M  V30 6153 O 622.42 -1.93068 0.209383 0
M  V30 6154 C 619.55 -3.3831 0.785097 0
M  V30 6155 C 618.504 -3.86496 1.8386 0
M  V30 6156 C 617.83 -5.1754 1.34373 0
M  V30 6157 C 619.13 -4.09381 3.24353 0
M  V30 6158 H 620.824 -2.1639 2.06919 0
M  V30 6159 H 618.37 -1.03976 0.996243 0
M  V30 6160 H 620.323 -4.16016 0.671485 0
M  V30 6161 H 619.047 -3.2607 -0.185969 0
M  V30 6162 H 617.706 -3.10987 1.9412 0
M  V30 6163 H 617.354 -5.01696 0.361989 0
M  V30 6164 H 617.054 -5.50751 2.04811 0
M  V30 6165 H 618.578 -5.97811 1.24315 0
M  V30 6166 H 619.992 -4.77641 3.17067 0
M  V30 6167 H 618.389 -4.53906 3.92542 0
M  V30 6168 H 619.459 -3.14515 3.69064 0
M  V30 6169 N 620.802 -1.09834 -1.13024 0
M  V30 6170 C 621.749 -0.741522 -2.18564 0
M  V30 6171 C 622.719 0.279236 -1.63736 0
M  V30 6172 O 623.904 0.159923 -1.90129 0
M  V30 6173 C 621.044 -0.17277 -3.44667 0
M  V30 6174 C 620.157 -1.24808 -4.13578 0
M  V30 6175 C 619.292 -0.641631 -5.27311 0
M  V30 6176 C 618.331 -1.69795 -5.88078 0
M  V30 6177 N 617.468 -1.11223 -6.93234 0
M  V30 6178 H 622.308 -1.64576 -2.48432 0
M  V30 6179 H 619.845 -0.822174 -1.21978 0
M  V30 6180 H 621.803 0.17482 -4.16834 0
M  V30 6181 H 620.433 0.694725 -3.15235 0
M  V30 6182 H 619.485 -1.71288 -3.39653 0
M  V30 6183 H 620.797 -2.04795 -4.54819 0
M  V30 6184 H 619.951 -0.243128 -6.06213 0
M  V30 6185 H 618.69 0.189742 -4.87331 0
M  V30 6186 H 617.695 -2.10595 -5.07868 0
M  V30 6187 H 618.92 -2.53206 -6.3013 0
M  V30 6188 H 616.866 -0.302208 -6.55304 0
M  V30 6189 H 616.783 -1.84901 -7.3304 0
M  V30 6190 H 618.051 -0.740068 -7.75979 0
M  V30 6191 N 622.28 1.30327 -0.886154 0
M  V30 6192 C 623.508 2.00254 -0.520176 0
M  V30 6193 C 623.923 1.66419 0.891637 0
M  V30 6194 O 623.28 0.901951 1.58654 0
M  V30 6195 C 623.331 3.54916 -0.686775 0
M  V30 6196 O 623.052 3.87547 -2.04301 0
M  V30 6197 C 624.553 4.42115 -0.323945 0
M  V30 6198 H 621.773 0.640204 -0.200947 0
M  V30 6199 H 624.317 1.66183 -1.19178 0
M  V30 6200 H 622.472 3.8735 -0.0625273 0
M  V30 6201 H 622.886 4.82247 -2.06249 0
M  V30 6202 H 624.36 5.49808 -0.491407 0
M  V30 6203 H 624.837 4.32953 0.73811 0
M  V30 6204 H 625.443 4.15129 -0.924565 0
M  V30 6205 N 623.758 0.647228 1.43697 0
M  V30 6206 C 624.983 0.164083 2.0675 0
M  V30 6207 C 625.408 -1.15892 1.48158 0
M  V30 6208 O 624.766 -1.71459 0.589194 0
M  V30 6209 C 624.814 0.0800368 3.60511 0
M  V30 6210 O 623.918 -0.959453 4.01084 0
M  V30 6211 H 623.259 0.0921288 0.657578 0
M  V30 6212 H 625.789 0.88846 1.84303 0
M  V30 6213 H 625.799 -0.105263 4.07864 0
M  V30 6214 H 624.474 1.04586 4.02535 0
M  V30 6215 H 623.051 -0.747425 3.65333 0
M  V30 6216 N 625.236 -1.5273 0.388769 0
M  V30 6217 C 626.466 -2.05693 -0.193397 0
M  V30 6218 C 626.874 -1.26038 -1.41107 0
M  V30 6219 O 626.217 -0.30001 -1.81234 0
M  V30 6220 C 626.279 -3.53962 -0.628561 0
M  V30 6221 C 625.943 -4.54519 0.475576 0
M  V30 6222 C 626.94 -5.02526 1.33281 0
M  V30 6223 C 624.625 -4.98174 0.642453 0
M  V30 6224 C 626.619 -5.92812 2.34205 0
M  V30 6225 C 624.306 -5.88262 1.65503 0
M  V30 6226 C 625.304 -6.35473 2.50325 0
M  V30 6227 O 624.992 -7.23781 3.49852 0
M  V30 6228 H 624.724 -0.675197 -0.0329395 0
M  V30 6229 H 627.278 -1.97835 0.552326 0
M  V30 6230 H 625.508 -3.59437 -1.42625 0
M  V30 6231 H 627.197 -3.89669 -1.13633 0
M  V30 6232 H 627.963 -4.6953 1.21519 0
M  V30 6233 H 623.842 -4.60999 -0.00805093 0
M  V30 6234 H 627.386 -6.29585 3.00447 0
M  V30 6235 H 623.283 -6.20672 1.77304 0
M  V30 6236 H 624.051 -7.4184 3.45855 0
M  V30 6237 N 626.714 -0.118576 -1.57153 0
M  V30 6238 C 627.646 0.862247 -2.12363 0
M  V30 6239 C 628.659 1.23025 -1.06625 0
M  V30 6240 O 629.848 1.17927 -1.33998 0
M  V30 6241 C 626.948 2.16425 -2.60794 0
M  V30 6242 C 626.121 1.96801 -3.90626 0
M  V30 6243 C 625.18 3.10726 -4.2466 0
M  V30 6244 O 624.206 2.83659 -4.93484 0
M  V30 6245 N 625.408 4.37147 -3.81946 0
M  V30 6246 H 628.173 0.390564 -2.97144 0
M  V30 6247 H 625.734 0.0658591 -1.61766 0
M  V30 6248 H 627.726 2.91633 -2.80593 0
M  V30 6249 H 626.296 2.54943 -1.80895 0
M  V30 6250 H 625.516 1.05787 -3.7974 0
M  V30 6251 H 626.804 1.80993 -4.7552 0
M  V30 6252 H 626.202 4.62014 -3.26435 0
M  V30 6253 H 624.759 5.09229 -4.06853 0
M  V30 6254 N 628.193 1.56834 0.155195 0
M  V30 6255 C 629.439 1.83169 0.870467 0
M  V30 6256 C 629.772 0.698929 1.81187 0
M  V30 6257 O 629.047 -0.298035 1.92203 0
M  V30 6258 C 629.33 3.19965 1.65211 0
M  V30 6259 C 629.183 4.43792 0.732744 0
M  V30 6260 C 630.502 3.53885 2.61636 0
M  V30 6261 H 627.621 0.666288 0.315006 0
M  V30 6262 H 630.263 1.89513 0.135988 0
M  V30 6263 H 628.413 3.14687 2.27825 0
M  V30 6264 H 630.085 4.61148 0.118236 0
M  V30 6265 H 628.328 4.3378 0.0417906 0
M  V30 6266 H 628.999 5.36095 1.31552 0
M  V30 6267 H 631.475 3.5972 2.09143 0
M  V30 6268 H 630.351 4.50648 3.13381 0
M  V30 6269 H 630.612 2.79418 3.42605 0
M  V30 6270 N 629.671 -0.424282 1.51781 0
M  V30 6271 C 630.901 -1.19297 1.68677 0
M  V30 6272 C 631.309 -1.85152 0.389258 0
M  V30 6273 O 630.652 -1.72067 -0.643311 0
M  V30 6274 C 630.714 -2.30929 2.75521 0
M  V30 6275 C 630.378 -1.85335 4.17732 0
M  V30 6276 C 631.375 -1.34951 5.0208 0
M  V30 6277 C 629.06 -1.92629 4.63896 0
M  V30 6278 C 631.054 -0.924636 6.30658 0
M  V30 6279 C 628.741 -1.49754 5.92467 0
M  V30 6280 C 629.739 -0.997543 6.75676 0
M  V30 6281 O 629.427 -0.57492 8.01842 0
M  V30 6282 H 629.159 -0.36512 0.568914 0
M  V30 6283 H 631.713 -0.507327 1.99036 0
M  V30 6284 H 629.943 -3.02811 2.40505 0
M  V30 6285 H 631.632 -2.92748 2.81165 0
M  V30 6286 H 632.398 -1.287 4.67612 0
M  V30 6287 H 628.277 -2.30491 3.99243 0
M  V30 6288 H 631.821 -0.533682 6.95556 0
M  V30 6289 H 627.718 -1.55679 6.26446 0
M  V30 6290 H 628.486 -0.699597 8.15505 0
M  V30 6291 N 631.149 -1.42148 -0.680565 0
M  V30 6292 C 632.374 -1.45901 -1.47403 0
M  V30 6293 C 632.799 -0.0700985 -1.87969 0
M  V30 6294 O 632.157 0.930145 -1.55621 0
M  V30 6295 C 632.205 -2.38661 -2.70321 0
M  V30 6296 O 631.309 -1.85399 -3.68376 0
M  V30 6297 H 630.65 -0.494565 -0.443059 0
M  V30 6298 H 633.18 -1.86774 -0.835251 0
M  V30 6299 H 633.19 -2.55046 -3.18458 0
M  V30 6300 H 631.865 -3.39571 -2.40134 0
M  V30 6301 H 630.442 -1.78541 -3.2738 0
M  V30 6302 N 632.627 0.916307 -1.28225 0
M  V30 6303 C 633.574 2.01841 -1.11932 0
M  V30 6304 C 634.544 1.66091 -0.0171604 0
M  V30 6305 O 635.729 1.89934 -0.181617 0
M  V30 6306 C 632.869 3.36065 -0.784504 0
M  V30 6307 C 631.982 3.847 -1.96544 0
M  V30 6308 C 631.117 5.07423 -1.57149 0
M  V30 6309 C 630.156 5.48384 -2.71922 0
M  V30 6310 N 629.293 6.62298 -2.33037 0
M  V30 6311 H 634.133 2.1511 -2.06232 0
M  V30 6312 H 631.67 1.05366 -1.02647 0
M  V30 6313 H 633.628 4.13272 -0.571148 0
M  V30 6314 H 632.258 3.22571 0.121565 0
M  V30 6315 H 631.31 3.03673 -2.291 0
M  V30 6316 H 632.622 4.1102 -2.82603 0
M  V30 6317 H 631.776 5.92165 -1.32004 0
M  V30 6318 H 630.515 4.82906 -0.682153 0
M  V30 6319 H 629.52 4.62184 -2.97768 0
M  V30 6320 H 630.745 5.7489 -3.61494 0
M  V30 6321 H 628.691 6.39416 -1.4657 0
M  V30 6322 H 628.608 6.8833 -3.12631 0
M  V30 6323 H 629.876 7.50352 -2.11169 0
M  V30 6324 N 634.105 1.10431 1.1244 0
M  V30 6325 C 635.354 0.841539 1.83306 0
M  V30 6326 C 635.667 -0.634961 1.85007 0
M  V30 6327 O 636.873 -1.01363 2.51869 0
M  V30 6328 C 635.329 1.45565 3.29149 0
M  V30 6329 C 634.937 2.96544 3.35806 0
M  V30 6330 C 636.681 1.27227 4.04986 0
M  V30 6331 C 634.588 3.5099 4.75983 0
M  V30 6332 H 633.518 0.311156 0.686803 0
M  V30 6333 H 636.169 1.32829 1.26604 0
M  V30 6334 H 634.551 0.896574 3.85717 0
M  V30 6335 H 635.725 3.58766 2.89177 0
M  V30 6336 H 634.04 3.14036 2.73442 0
M  V30 6337 H 636.637 1.65348 5.08492 0
M  V30 6338 H 636.98 0.213834 4.1575 0
M  V30 6339 H 637.513 1.79941 3.54776 0
M  V30 6340 H 634.252 4.56499 4.70413 0
M  V30 6341 H 633.772 2.93535 5.23065 0
M  V30 6342 H 635.451 3.48808 5.44924 0
M  V30 6343 N 635.583 -1.29855 0.893053 0
M  V30 6344 C 636.515 -2.26911 0.32311 0
M  V30 6345 C 637.528 -1.54039 -0.526858 0
M  V30 6346 O 638.717 -1.75132 -0.345095 0
M  V30 6347 C 635.817 -3.34266 -0.558509 0
M  V30 6348 C 634.99 -4.36601 0.264222 0
M  V30 6349 C 634.049 -5.23326 -0.549171 0
M  V30 6350 O 633.075 -5.69192 0.0309883 0
M  V30 6351 N 634.277 -5.50008 -1.85664 0
M  V30 6352 H 637.042 -2.76455 1.15726 0
M  V30 6353 H 634.603 -1.4312 0.756859 0
M  V30 6354 H 636.595 -3.89211 -1.1089 0
M  V30 6355 H 635.165 -2.8459 -1.29334 0
M  V30 6356 H 634.385 -3.81409 0.996046 0
M  V30 6357 H 635.673 -5.02019 0.827906 0
M  V30 6358 H 635.071 -5.14542 -2.35081 0
M  V30 6359 H 633.628 -6.07796 -2.35431 0
M  V30 6360 N 637.061 -0.65484 -1.43351 0
M  V30 6361 C 638.024 0.0263562 -2.29185 0
M  V30 6362 C 639.024 0.748951 -1.42293 0
M  V30 6363 O 640.214 0.589957 -1.63906 0
M  V30 6364 C 637.346 1.04806 -3.2439 0
M  V30 6365 H 638.539 -0.728883 -2.90908 0
M  V30 6366 H 636.092 -0.416149 -1.50658 0
M  V30 6367 H 636.827 1.83247 -2.67565 0
M  V30 6368 H 636.612 0.533554 -3.88453 0
M  V30 6369 H 638.102 1.52372 -3.88809 0
M  V30 6370 N 638.539 1.52521 -0.396863 0
M  V30 6371 C 639.767 2.06091 0.18275 0
M  V30 6372 C 640.182 1.26796 1.39886 0
M  V30 6373 O 639.539 0.316585 1.79733 0
M  V30 6374 C 639.59 3.57362 0.545377 0
M  V30 6375 O 639.311 4.33656 -0.622428 0
M  V30 6376 C 640.812 4.27305 1.18004 0
M  V30 6377 H 638.032 0.670504 0.025789 0
M  V30 6378 H 640.576 1.96561 -0.564276 0
M  V30 6379 H 638.731 3.66941 1.2423 0
M  V30 6380 H 639.145 5.23507 -0.322662 0
M  V30 6381 H 640.619 5.34366 1.38408 0
M  V30 6382 H 641.096 3.83 2.1496 0
M  V30 6383 H 641.702 4.22064 0.523671 0
M  V30 6384 N 640.017 0.126909 1.57088 0
M  V30 6385 C 640.965 -0.837618 2.16995 0
M  V30 6386 C 641.959 -1.26974 1.12133 0
M  V30 6387 O 643.165 -1.24056 1.30423 0
M  V30 6388 H 639.54 -0.288256 0.694559 0
M  V30 6389 H 641.511 -0.307957 2.96807 0
M  V30 6390 C 640.26 -2.07474 2.79016 0
M  V30 6391 H 639.583 -1.75117 3.59408 0
M  V30 6392 H 641.023 -2.72949 3.24461 0
M  V30 6393 C 639.482 -2.86967 1.76498 0
M  V30 6394 O 640.012 -3.82625 1.22316 0
M  V30 6395 N 638.218 -2.51111 1.46258 0
M  V30 6396 H 637.765 -1.73389 1.90509 0
M  V30 6397 H 637.723 -3.04594 0.779085 0
M  V30 6398 N 641.495 -1.56914 -0.146875 0
M  V30 6399 C 642.723 -1.87515 -0.874394 0
M  V30 6400 C 643.138 -0.715116 -1.74733 0
M  V30 6401 O 642.495 0.315113 -1.79759 0
M  V30 6402 C 642.546 -3.17362 -1.731 0
M  V30 6403 O 642.267 -4.28897 -0.893245 0
M  V30 6404 C 643.768 -3.61479 -2.56609 0
M  V30 6405 H 640.988 -0.621546 -0.252827 0
M  V30 6406 H 643.532 -2.04023 -0.139627 0
M  V30 6407 H 641.687 -3.02608 -2.41883 0
M  V30 6408 H 642.101 -5.03146 -1.48137 0
M  V30 6409 H 643.575 -4.5517 -3.12289 0
M  V30 6410 H 644.052 -2.86773 -3.32653 0
M  V30 6411 H 644.658 -3.78927 -1.93117 0
M  V30 6412 N 642.974 0.416227 -1.52004 0
M  V30 6413 C 644.22 1.16233 -1.66917 0
M  V30 6414 C 644.575 1.8839 -0.390763 0
M  V30 6415 O 643.868 1.81479 0.614478 0
M  V30 6416 C 644.062 2.18923 -2.82502 0
M  V30 6417 C 643.891 1.56849 -4.2146 0
M  V30 6418 C 642.661 1.34426 -4.87091 0
M  V30 6419 C 644.859 1.03322 -5.03815 0
M  V30 6420 N 642.841 0.681703 -6.10103 0
M  V30 6421 C 644.212 0.497165 -6.18003 0
M  V30 6422 C 646.267 0.926997 -4.89194 0
M  V30 6423 C 644.97 -0.134687 -7.19174 0
M  V30 6424 C 646.996 0.309009 -5.90592 0
M  V30 6425 C 646.358 -0.216399 -7.04068 0
M  V30 6426 H 642.457 0.412252 -0.664509 0
M  V30 6427 H 645.041 0.455758 -1.89291 0
M  V30 6428 H 643.212 2.86946 -2.61756 0
M  V30 6429 H 644.944 2.85844 -2.86488 0
M  V30 6430 H 641.699 1.61183 -4.45328 0
M  V30 6431 H 642.123 0.367256 -6.76003 0
M  V30 6432 H 646.765 1.31904 -4.01698 0
M  V30 6433 H 644.483 -0.538811 -8.06302 0
M  V30 6434 H 648.069 0.228438 -5.81351 0
M  V30 6435 H 646.949 -0.687064 -7.81184 0
M  V30 6436 N 644.452 1.42507 0.673017 0
M  V30 6437 C 645.382 1.48916 1.79851 0
M  V30 6438 C 646.363 0.345566 1.66553 0
M  V30 6439 O 647.548 0.560116 1.85947 0
M  V30 6440 C 644.678 1.39258 3.18158 0
M  V30 6441 C 643.632 2.51662 3.46194 0
M  V30 6442 C 642.958 2.27062 4.84094 0
M  V30 6443 C 644.258 3.93968 3.42909 0
M  V30 6444 H 645.952 2.43114 1.74745 0
M  V30 6445 H 643.498 1.17013 0.839288 0
M  V30 6446 H 645.451 1.42349 3.96629 0
M  V30 6447 H 644.175 0.415542 3.23946 0
M  V30 6448 H 642.834 2.47891 2.70084 0
M  V30 6449 H 642.482 1.27648 4.86534 0
M  V30 6450 H 642.182 3.02398 5.03815 0
M  V30 6451 H 643.706 2.31905 5.64847 0
M  V30 6452 H 645.12 3.99332 4.11347 0
M  V30 6453 H 643.517 4.6917 3.74165 0
M  V30 6454 H 644.587 4.20512 2.41449 0
M  V30 6455 N 645.93 -0.909495 1.28709 0
M  V30 6456 C 647.177 -1.65905 1.16111 0
M  V30 6457 C 647.505 -1.92334 -0.289436 0
M  V30 6458 O 646.76 -1.52495 -1.22653 0
M  V30 6459 C 647.059 -3.02117 1.90945 0
M  V30 6460 C 646.725 -2.95332 3.40719 0
M  V30 6461 C 645.387 -2.93189 3.81567 0
M  V30 6462 C 647.739 -2.85264 4.36204 0
M  V30 6463 C 645.067 -2.78784 5.16233 0
M  V30 6464 C 647.419 -2.724 5.70948 0
M  V30 6465 C 646.083 -2.68617 6.11066 0
M  V30 6466 H 645.353 -0.60709 0.42488 0
M  V30 6467 H 648 -1.05932 1.59533 0
M  V30 6468 H 646.305 -3.65901 1.40085 0
M  V30 6469 H 648.002 -3.59026 1.7861 0
M  V30 6470 H 644.592 -2.97797 3.08245 0
M  V30 6471 H 648.776 -2.86005 4.05605 0
M  V30 6472 H 644.032 -2.74254 5.46438 0
M  V30 6473 H 648.206 -2.63579 6.44592 0
M  V30 6474 H 645.833 -2.57213 7.15364 0
M  V30 6475 N 647.408 -1.11026 -1.11852 0
M  V30 6476 C 648.338 -0.786812 -2.19844 0
M  V30 6477 C 649.319 0.242935 -1.68356 0
M  V30 6478 O 650.504 0.107355 -1.93903 0
M  V30 6479 C 647.634 -0.224516 -3.46574 0
M  V30 6480 C 646.588 -1.18564 -4.1125 0
M  V30 6481 C 645.914 -0.484261 -5.32503 0
M  V30 6482 C 647.214 -2.53465 -4.56676 0
M  V30 6483 H 648.908 -1.68978 -2.47158 0
M  V30 6484 H 646.454 -0.813906 -1.18792 0
M  V30 6485 H 648.407 0.0139435 -4.21398 0
M  V30 6486 H 647.131 0.713722 -3.18706 0
M  V30 6487 H 645.79 -1.40966 -3.38414 0
M  V30 6488 H 645.438 0.458646 -5.00905 0
M  V30 6489 H 645.138 -1.12526 -5.76725 0
M  V30 6490 H 646.662 -0.254492 -6.10069 0
M  V30 6491 H 648.076 -2.35177 -5.22843 0
M  V30 6492 H 646.473 -3.13507 -5.11697 0
M  V30 6493 H 647.543 -3.13008 -3.70343 0
M  V30 6494 N 648.886 1.2938 -0.899927 0
M  V30 6495 C 650.111 2.00228 -0.540692 0
M  V30 6496 C 650.536 1.66909 0.867359 0
M  V30 6497 O 649.894 0.893824 1.57735 0
M  V30 6498 C 649.942 3.52921 -0.740232 0
M  V30 6499 O 649.046 4.11879 0.207154 0
M  V30 6500 H 648.387 0.629505 -0.211233 0
M  V30 6501 H 650.917 1.6487 -1.21158 0
M  V30 6502 H 650.927 4.0287 -0.644973 0
M  V30 6503 H 649.602 3.76508 -1.76677 0
M  V30 6504 H 648.179 3.72845 0.0643315 0
M  V30 6505 N 650.364 0.662433 1.43002 0
M  V30 6506 C 651.589 0.186003 2.06564 0
M  V30 6507 C 652.014 -1.14314 1.49379 0
M  V30 6508 O 651.372 -1.70824 0.607346 0
M  V30 6509 C 651.42 0.118269 3.60406 0
M  V30 6510 O 650.524 -0.916859 4.02079 0
M  V30 6511 H 649.865 0.0990981 0.656563 0
M  V30 6512 H 652.395 0.907958 1.8335 0
M  V30 6513 H 652.405 -0.0619981 4.07953 0
M  V30 6514 H 651.08 1.08849 4.01403 0
M  V30 6515 H 649.657 -0.708635 3.66105 0
M  V30 6516 N 651.842 -1.52309 0.404946 0
M  V30 6517 C 653.082 -2.03677 -0.171779 0
M  V30 6518 C 653.446 -1.28419 -1.42733 0
M  V30 6519 O 654.647 -1.69991 -2.08222 0
M  V30 6520 C 652.918 -3.54951 -0.417701 0
M  V30 6521 S 654.477 -4.28114 -0.962472 0
M  V30 6522 H 651.295 -0.709445 -0.0469912 0
M  V30 6523 H 653.897 -1.874 0.556901 0
M  V30 6524 H 652.601 -4.07306 0.50295 0
M  V30 6525 H 652.132 -3.75462 -1.17437 0
M  V30 6526 H 654.147 -4.42589 -2.24342 0
M  V30 6527 N 653.32 -0.135238 -1.57019 0
M  V30 6528 C 654.268 0.826099 -2.17436 0
M  V30 6529 C 655.262 1.26378 -1.12805 0
M  V30 6530 O 656.468 1.23363 -1.31079 0
M  V30 6531 H 652.843 0.284568 -0.696078 0
M  V30 6532 H 654.814 0.292212 -2.96966 0
M  V30 6533 C 653.563 2.05991 -2.80112 0
M  V30 6534 H 652.886 1.73209 -3.60331 0
M  V30 6535 H 654.326 2.71225 -3.25903 0
M  V30 6536 C 652.785 2.86027 -1.78017 0
M  V30 6537 O 653.315 3.81971 -1.24344 0
M  V30 6538 N 651.521 2.50332 -1.47588 0
M  V30 6539 H 651.068 1.72377 -1.91426 0
M  V30 6540 H 651.026 3.04177 -0.795228 0
M  V30 6541 N 654.798 1.5699 0.138552 0
M  V30 6542 C 656.046 1.83446 0.848053 0
M  V30 6543 C 656.367 0.71744 1.81322 0
M  V30 6544 O 655.637 -0.260228 1.94164 0
M  V30 6545 H 654.217 0.676792 0.316166 0
M  V30 6546 H 656.879 1.94462 0.130538 0
M  V30 6547 H 655.975 2.78677 1.40518 0
M  V30 6548 N 656.276 -0.40816 1.52223 0
M  V30 6549 C 657.224 -1.51788 1.76248 0
M  V30 6550 C 658.218 -1.57264 0.629638 0
M  V30 6551 O 659.424 -1.60659 0.811704 0
M  V30 6552 H 655.799 -0.504823 0.557367 0
M  V30 6553 H 657.77 -1.2871 2.69214 0
M  V30 6554 C 656.519 -2.89145 1.93107 0
M  V30 6555 H 655.842 -2.85674 2.79697 0
M  V30 6556 H 657.282 -3.66082 2.13916 0
M  V30 6557 C 655.741 -3.29581 0.698431 0
M  V30 6558 O 656.271 -4.01479 -0.133238 0
M  V30 6559 N 654.477 -2.85651 0.53405 0
M  V30 6560 H 654.024 -2.2731 1.21194 0
M  V30 6561 H 653.982 -3.13065 -0.289387 0
M  V30 6562 N 657.755 -1.42862 -0.66545 0
M  V30 6563 C 658.665 -1.49491 -1.80803 0
M  V30 6564 C 659.681 -0.382914 -1.69734 0
M  V30 6565 O 660.857 -0.635223 -1.9112 0
M  V30 6566 C 657.922 -1.40383 -3.17007 0
M  V30 6567 C 656.983 -2.62152 -3.39963 0
M  V30 6568 C 656.216 -2.53469 -4.69669 0
M  V30 6569 O 656.439 -1.57568 -5.48205 0
M  V30 6570 O 655.373 -3.43763 -4.94075 0
M  V30 6571 H 659.199 -2.45949 -1.78165 0
M  V30 6572 H 656.784 -1.24728 -0.822387 0
M  V30 6573 H 658.666 -1.377 -3.98267 0
M  V30 6574 H 657.341 -0.470546 -3.20262 0
M  V30 6575 H 656.248 -2.70409 -2.58515 0
M  V30 6576 H 657.581 -3.54411 -3.41546 0
M  V30 6577 N 659.233 0.902656 -1.29189 0
M  V30 6578 C 660.461 1.68639 -1.19869 0
M  V30 6579 C 660.876 1.87254 0.241121 0
M  V30 6580 O 660.233 1.40745 1.16177 0
M  V30 6581 C 660.284 3.07251 -1.90471 0
M  V30 6582 O 660.005 2.89488 -3.28829 0
M  V30 6583 C 661.506 4.01653 -1.8759 0
M  V30 6584 H 658.726 0.526802 -0.415596 0
M  V30 6585 H 661.27 1.12901 -1.7051 0
M  V30 6586 H 659.425 3.59774 -1.43672 0
M  V30 6587 H 659.839 3.77296 -3.64346 0
M  V30 6588 H 661.313 4.96339 -2.4156 0
M  V30 6589 H 661.79 4.30881 -0.850756 0
M  V30 6590 H 662.396 3.55061 -2.34119 0
M  V30 6591 N 660.711 1.11618 1.11262 0
M  V30 6592 C 661.936 0.889013 1.8738 0
M  V30 6593 C 662.361 -0.555884 1.79698 0
M  V30 6594 O 661.719 -1.39272 1.16073 0
M  V30 6595 C 661.767 1.35759 3.34069 0
M  V30 6596 O 660.871 0.530499 4.08974 0
M  V30 6597 H 660.212 0.320082 0.581759 0
M  V30 6598 H 662.742 1.48611 1.40627 0
M  V30 6599 H 662.752 1.35291 3.84916 0
M  V30 6600 H 661.427 2.40973 3.38976 0
M  V30 6601 H 660.004 0.601439 3.68018 0
M  V30 6602 N 662.189 -1.289 0.906776 0
M  V30 6603 C 663.119 -2.29932 0.406659 0
M  V30 6604 C 664.1 -1.6189 -0.522061 0
M  V30 6605 O 665.285 -1.8935 -0.431283 0
M  V30 6606 C 662.415 -3.45425 -0.360366 0
M  V30 6607 C 661.369 -4.25316 0.478574 0
M  V30 6608 C 660.695 -5.33076 -0.416373 0
M  V30 6609 C 661.995 -4.92739 1.7322 0
M  V30 6610 H 663.689 -2.72013 1.25097 0
M  V30 6611 H 661.235 -1.30768 0.602977 0
M  V30 6612 H 663.188 -4.15186 -0.721029 0
M  V30 6613 H 661.912 -3.02206 -1.23852 0
M  V30 6614 H 660.571 -3.57273 0.821662 0
M  V30 6615 H 660.219 -4.86101 -1.29287 0
M  V30 6616 H 659.919 -5.8743 0.141309 0
M  V30 6617 H 661.443 -6.05686 -0.773072 0
M  V30 6618 H 662.857 -5.54898 1.44086 0
M  V30 6619 H 661.254 -5.57057 2.23175 0
M  V30 6620 H 662.324 -4.17625 2.46408 0
M  V30 6621 N 663.667 -0.670007 -1.42649 0
M  V30 6622 C 664.913 -0.19923 -2.02422 0
M  V30 6623 C 665.268 1.17947 -1.52007 0
M  V30 6624 O 664.561 1.77939 -0.710512 0
M  V30 6625 C 664.755 -0.168298 -3.57004 0
M  V30 6626 C 664.584 -1.54246 -4.22419 0
M  V30 6627 C 663.354 -2.13904 -4.57792 0
M  V30 6628 C 665.552 -2.4842 -4.50324 0
M  V30 6629 N 663.534 -3.44151 -5.08364 0
M  V30 6630 C 664.905 -3.63317 -5.02395 0
M  V30 6631 C 666.96 -2.47011 -4.32308 0
M  V30 6632 C 665.663 -4.77051 -5.38345 0
M  V30 6633 C 667.689 -3.59838 -4.6933 0
M  V30 6634 C 667.051 -4.73462 -5.21549 0
M  V30 6635 H 663.15 -0.117717 -0.773089 0
M  V30 6636 H 665.734 -0.881955 -1.73579 0
M  V30 6637 H 663.905 0.483824 -3.85375 0
M  V30 6638 H 665.637 0.314914 -4.03473 0
M  V30 6639 H 662.392 -1.66441 -4.4339 0
M  V30 6640 H 662.816 -4.10846 -5.38084 0
M  V30 6641 H 667.458 -1.60394 -3.91195 0
M  V30 6642 H 665.176 -5.64347 -5.78393 0
M  V30 6643 H 668.762 -3.59969 -4.57071 0
M  V30 6644 H 667.642 -5.59321 -5.49663 0
M  V30 6645 N 665.145 1.52092 -0.413018 0
M  V30 6646 C 666.422 1.94356 0.22024 0
M  V30 6647 C 666.802 1.35017 1.62277 0
M  V30 6648 O 666.15 0.527511 2.22328 0
M  V30 6649 C 666.36 3.48289 0.222638 0
M  V30 6650 C 667.708 4.22313 0.440098 0
M  V30 6651 O 668.732 3.54919 0.301826 0
M  V30 6652 O 667.591 5.41829 0.712984 0
M  V30 6653 H 664.685 0.814536 0.14304 0
M  V30 6654 H 667.231 1.63083 -0.469242 0
M  V30 6655 H 666.003 3.83872 -0.758836 0
M  V30 6656 H 665.626 3.85934 0.956057 0
M  V30 6657 N 666.623 0.143563 1.56945 0
M  V30 6658 C 667.863 -0.511198 1.97904 0
M  V30 6659 C 668.227 -1.62262 1.0264 0
M  V30 6660 O 669.428 -2.338 1.32631 0
M  V30 6661 C 667.699 -1.00753 3.42905 0
M  V30 6662 S 669.258 -1.66737 4.05887 0
M  V30 6663 H 666.076 -0.165399 0.691494 0
M  V30 6664 H 668.678 0.234464 1.94089 0
M  V30 6665 H 667.382 -0.187817 4.0997 0
M  V30 6666 H 666.913 -1.7879 3.50425 0
M  V30 6667 H 668.928 -2.95444 3.98657 0
M  V30 6668 N 668.101 -1.57061 -0.130224 0
M  V30 6669 C 669.048 -1.99517 -1.16024 0
M  V30 6670 C 670.018 -0.865452 -1.41771 0
M  V30 6671 O 671.203 -1.12882 -1.53826 0
M  V30 6672 C 668.343 -2.3951 -2.48453 0
M  V30 6673 C 667.456 -3.65848 -2.29737 0
M  V30 6674 C 666.591 -3.9487 -3.55318 0
M  V30 6675 C 665.63 -5.14426 -3.31711 0
M  V30 6676 N 664.767 -5.39375 -4.49466 0
M  V30 6677 H 669.607 -2.87305 -0.791194 0
M  V30 6678 H 667.144 -1.42129 -0.379195 0
M  V30 6679 H 669.102 -2.60731 -3.25692 0
M  V30 6680 H 667.732 -1.54779 -2.83272 0
M  V30 6681 H 666.784 -3.52307 -1.4347 0
M  V30 6682 H 668.096 -4.53241 -2.08263 0
M  V30 6683 H 667.25 -4.16679 -4.4098 0
M  V30 6684 H 665.989 -3.05931 -3.79813 0
M  V30 6685 H 664.994 -4.92473 -2.44439 0
M  V30 6686 H 666.219 -6.04933 -3.08598 0
M  V30 6687 H 664.165 -4.53391 -4.74102 0
M  V30 6688 H 664.082 -6.21069 -4.31055 0
M  V30 6689 H 665.35 -5.65694 -5.36293 0
M  V30 6690 N 669.579 0.400081 -1.52437 0
M  V30 6691 C 670.527 1.50851 -1.7705 0
M  V30 6692 C 671.521 1.56928 -0.637969 0
M  V30 6693 O 672.727 1.60226 -0.820212 0
M  V30 6694 H 669.102 0.50186 -0.560036 0
M  V30 6695 H 671.073 1.27281 -2.69893 0
M  V30 6696 C 669.822 2.88117 -1.94638 0
M  V30 6697 H 669.145 2.84187 -2.81208 0
M  V30 6698 H 670.585 3.64942 -2.15855 0
M  V30 6699 C 669.044 3.29206 -0.715899 0
M  V30 6700 O 669.574 4.01544 0.111944 0
M  V30 6701 N 667.78 2.85363 -0.549191 0
M  V30 6702 H 667.327 2.26664 -1.22397 0
M  V30 6703 H 667.285 3.13214 0.27278 0
M  V30 6704 N 671.057 1.43213 0.657864 0
M  V30 6705 C 672.303 1.45795 1.41829 0
M  V30 6706 C 672.658 0.0792176 1.92237 0
M  V30 6707 O 671.951 -0.901406 1.69072 0
M  V30 6708 C 672.145 2.43143 2.61947 0
M  V30 6709 C 671.974 3.90345 2.23295 0
M  V30 6710 C 670.744 4.58749 2.11843 0
M  V30 6711 C 672.942 4.80308 1.83873 0
M  V30 6712 N 670.924 5.90898 1.66473 0
M  V30 6713 C 672.295 6.01693 1.49549 0
M  V30 6714 C 674.35 4.67609 1.71015 0
M  V30 6715 C 673.053 7.11792 1.03657 0
M  V30 6716 C 675.079 5.77707 1.26527 0
M  V30 6717 C 674.441 6.98215 0.931379 0
M  V30 6718 H 670.54 0.588628 0.514822 0
M  V30 6719 H 673.124 1.7936 0.7575 0
M  V30 6720 H 671.295 2.11612 3.25692 0
M  V30 6721 H 673.027 2.36193 3.28626 0
M  V30 6722 H 669.782 4.1319 2.31453 0
M  V30 6723 H 670.206 6.61034 1.46163 0
M  V30 6724 H 674.848 3.74902 1.95469 0
M  V30 6725 H 672.566 8.04332 0.779502 0
M  V30 6726 H 676.152 5.69899 1.17074 0
M  V30 6727 H 675.032 7.81959 0.592379 0
M  V30 6728 N 672.536 -0.895792 1.29666 0
M  V30 6729 C 673.468 -2.00563 1.10937 0
M  V30 6730 C 674.481 -1.62705 0.055734 0
M  V30 6731 O 675.67 -1.7595 0.300656 0
M  V30 6732 C 672.77 -3.32262 0.667448 0
M  V30 6733 C 671.943 -3.98625 1.80047 0
M  V30 6734 C 671.002 -5.08617 1.3489 0
M  V30 6735 O 670.028 -5.30837 2.05429 0
M  V30 6736 N 671.23 -5.80076 0.221937 0
M  V30 6737 H 673.995 -2.17184 2.06522 0
M  V30 6738 H 671.556 -1.06822 1.21658 0
M  V30 6739 H 673.548 -4.03196 0.348586 0
M  V30 6740 H 672.118 -3.11985 -0.196055 0
M  V30 6741 H 671.338 -3.21005 2.28801 0
M  V30 6742 H 672.626 -4.39704 2.56003 0
M  V30 6743 H 672.024 -5.64514 -0.366084 0
M  V30 6744 H 670.581 -6.51789 -0.0375346 0
M  V30 6745 N 674.014 -1.12206 -1.10668 0
M  V30 6746 C 675.26 -0.887096 -1.83036 0
M  V30 6747 C 675.615 0.580887 -1.83422 0
M  V30 6748 O 674.908 1.42379 -1.28213 0
M  V30 6749 C 675.102 -1.39276 -3.29146 0
M  V30 6750 C 674.931 -2.90837 -3.42992 0
M  V30 6751 C 673.701 -3.59047 -3.55546 0
M  V30 6752 C 675.899 -3.8885 -3.36601 0
M  V30 6753 N 673.881 -4.98747 -3.57945 0
M  V30 6754 C 675.252 -5.14666 -3.45716 0
M  V30 6755 C 677.307 -3.81296 -3.20184 0
M  V30 6756 C 676.01 -6.33814 -3.40106 0
M  V30 6757 C 678.036 -4.99965 -3.15895 0
M  V30 6758 C 677.398 -6.24637 -3.25589 0
M  V30 6759 H 673.497 -0.377857 -0.684652 0
M  V30 6760 H 676.081 -1.42791 -1.32358 0
M  V30 6761 H 674.252 -0.879026 -3.78322 0
M  V30 6762 H 675.984 -1.10011 -3.89461 0
M  V30 6763 H 672.739 -3.09533 -3.5845 0
M  V30 6764 H 673.163 -5.71606 -3.62762 0
M  V30 6765 H 677.805 -2.85806 -3.11569 0
M  V30 6766 H 675.523 -7.29574 -3.47487 0
M  V30 6767 H 679.109 -4.95847 -3.04347 0
M  V30 6768 H 677.989 -7.14921 -3.22269 0
M  V30 6769 N 675.492 1.28418 -0.913599 0
M  V30 6770 C 676.74 1.94596 -0.545594 0
M  V30 6771 C 677.061 1.7227 0.913668 0
M  V30 6772 O 676.331 1.06233 1.64595 0
M  V30 6773 H 674.911 0.720065 -0.198783 0
M  V30 6774 H 677.573 1.56404 -1.16292 0
M  V30 6775 H 676.669 3.03202 -0.739911 0
M  V30 6776 N 676.97 0.677563 1.42291 0
M  V30 6777 C 678.218 0.200578 2.01102 0
M  V30 6778 C 678.539 -1.19803 1.53858 0
M  V30 6779 O 677.809 -1.80496 0.761439 0
M  V30 6780 H 676.389 0.0711634 0.743603 0
M  V30 6781 H 679.051 0.874691 1.7417 0
M  V30 6782 H 678.147 0.204 3.11433 0
M  V30 6783 N 678.448 -1.51871 0.421078 0
M  V30 6784 C 679.378 -2.30231 -0.389363 0
M  V30 6785 C 680.359 -1.34946 -1.03555 0
M  V30 6786 O 681.544 -1.63859 -1.04229 0
M  V30 6787 C 678.674 -3.13247 -1.49979 0
M  V30 6788 C 677.628 -4.16677 -0.977966 0
M  V30 6789 C 676.954 -4.88112 -2.1829 0
M  V30 6790 C 678.254 -5.22295 -0.0236775 0
M  V30 6791 H 679.948 -2.98229 0.264524 0
M  V30 6792 H 677.494 -1.43424 0.12866 0
M  V30 6793 H 679.447 -3.66838 -2.07383 0
M  V30 6794 H 678.171 -2.4304 -2.18173 0
M  V30 6795 H 676.83 -3.64114 -0.426245 0
M  V30 6796 H 676.478 -4.14423 -2.85066 0
M  V30 6797 H 676.178 -5.58041 -1.84021 0
M  V30 6798 H 677.702 -5.44521 -2.76278 0
M  V30 6799 H 679.116 -5.71055 -0.506899 0
M  V30 6800 H 677.513 -5.99656 0.230782 0
M  V30 6801 H 678.583 -4.76131 0.917999 0
M  V30 6802 N 679.926 -0.151884 -1.56866 0
M  V30 6803 C 681.154 0.504813 -2.00647 0
M  V30 6804 C 681.569 1.58098 -1.03201 0
M  V30 6805 O 680.926 1.82476 -0.0297814 0
M  V30 6806 C 680.977 1.10099 -3.44326 0
M  V30 6807 O 680.698 0.0678021 -4.38048 0
M  V30 6808 C 682.199 1.83782 -4.03409 0
M  V30 6809 H 679.419 0.130989 -0.65809 0
M  V30 6810 H 681.963 -0.247903 -2.02992 0
M  V30 6811 H 680.118 1.8043 -3.42817 0
M  V30 6812 H 680.532 0.505237 -5.22061 0
M  V30 6813 H 682.006 2.2078 -5.05925 0
M  V30 6814 H 682.483 2.72557 -3.44397 0
M  V30 6815 H 683.089 1.18138 -4.08563 0
M  V30 6816 N 681.404 1.57128 0.121893 0
M  V30 6817 C 682.644 1.86517 0.836113 0
M  V30 6818 C 683.008 0.739497 1.77188 0
M  V30 6819 O 684.209 0.91508 2.52744 0
M  V30 6820 C 682.48 3.21129 1.56878 0
M  V30 6821 S 684.039 3.72143 2.32497 0
M  V30 6822 H 680.857 0.653923 0.279115 0
M  V30 6823 H 683.459 1.95271 0.0946254 0
M  V30 6824 H 682.163 4.01002 0.873255 0
M  V30 6825 H 681.694 3.15446 2.35069 0
M  V30 6826 H 683.709 3.43413 3.58164 0
M  V30 6827 N 682.882 -0.391992 1.52647 0
M  V30 6828 C 684.159 -1.15136 1.58123 0
M  V30 6829 C 684.539 -2.07786 0.372597 0
M  V30 6830 O 683.887 -2.19374 -0.639304 0
M  V30 6831 C 684.097 -1.91367 2.91856 0
M  V30 6832 C 685.445 -2.46833 3.45483 0
M  V30 6833 O 686.469 -2.01527 2.9371 0
M  V30 6834 O 685.328 -3.29587 4.3593 0
M  V30 6835 H 682.422 -0.526649 0.637629 0
M  V30 6836 H 684.968 -0.397386 1.64982 0
M  V30 6837 H 683.74 -1.23597 3.71268 0
M  V30 6838 H 683.363 -2.73732 2.88369 0
M  V30 6839 N 684.36 -1.4356 -0.65026 0
M  V30 6840 C 685.31 -1.45392 -1.75628 0
M  V30 6841 C 686.294 -0.322006 -1.57645 0
M  V30 6842 O 687.486 -0.565996 -1.67707 0
M  V30 6843 C 684.615 -1.38254 -3.1423 0
M  V30 6844 C 683.701 -2.56487 -3.3775 0
M  V30 6845 N 684.092 -3.81824 -3.31729 0
M  V30 6846 C 682.39 -2.51274 -3.6848 0
M  V30 6847 C 683.091 -4.60497 -3.55412 0
M  V30 6848 N 682.067 -3.91274 -3.77367 0
M  V30 6849 H 685.869 -2.40167 -1.69402 0
M  V30 6850 H 683.383 -1.38254 -0.852037 0
M  V30 6851 H 685.38 -1.3765 -3.9352 0
M  V30 6852 H 684.04 -0.445019 -3.21636 0
M  V30 6853 H 685.051 -4.14069 -3.11074 0
M  V30 6854 H 681.728 -1.66223 -3.82983 0
M  V30 6855 H 683.118 -5.69518 -3.5651 0
M  V30 6856 N 685.838 0.888903 -1.30139 0
M  V30 6857 C 687.068 1.67115 -1.21474 0
M  V30 6858 C 687.476 1.87852 0.225472 0
M  V30 6859 O 686.819 1.42324 1.16145 0
M  V30 6860 C 686.881 3.0713 -1.86846 0
M  V30 6861 C 686.545 3.09582 -3.36167 0
M  V30 6862 C 687.542 2.88929 -4.32222 0
M  V30 6863 C 685.227 3.31304 -3.77549 0
M  V30 6864 C 687.221 2.89949 -5.67634 0
M  V30 6865 C 684.908 3.31954 -5.13079 0
M  V30 6866 C 685.906 3.113 -6.07932 0
M  V30 6867 O 685.594 3.11758 -7.40987 0
M  V30 6868 H 685.326 0.528372 -0.421662 0
M  V30 6869 H 687.88 1.11919 -1.7223 0
M  V30 6870 H 686.11 3.63973 -1.30615 0
M  V30 6871 H 687.799 3.6749 -1.72354 0
M  V30 6872 H 688.565 2.71948 -4.01584 0
M  V30 6873 H 684.444 3.46417 -3.04165 0
M  V30 6874 H 687.988 2.73746 -6.41645 0
M  V30 6875 H 683.885 3.48469 -5.43359 0
M  V30 6876 H 684.653 3.27951 -7.49927 0
M  V30 6877 N 687.317 1.12792 1.10072 0
M  V30 6878 C 688.227 0.812369 2.20086 0
M  V30 6879 C 689.243 -0.200349 1.72843 0
M  V30 6880 O 690.419 -0.0330262 2.01373 0
M  V30 6881 C 687.484 0.275685 3.45602 0
M  V30 6882 C 686.545 1.34881 4.07561 0
M  V30 6883 C 685.778 0.837639 5.27086 0
M  V30 6884 O 686.001 -0.327224 5.69461 0
M  V30 6885 O 684.935 1.60894 5.79997 0
M  V30 6886 H 688.761 1.73133 2.49517 0
M  V30 6887 H 686.346 0.904863 1.18881 0
M  V30 6888 H 688.228 -0.0185375 4.21396 0
M  V30 6889 H 686.903 -0.615783 3.17789 0
M  V30 6890 H 685.81 1.69625 3.33434 0
M  V30 6891 H 687.143 2.21418 4.39585 0
M  V30 6892 N 688.795 -1.27931 0.920396 0
M  V30 6893 C 689.705 -2.30824 0.419212 0
M  V30 6894 C 690.721 -1.66767 -0.496461 0
M  V30 6895 O 691.897 -1.97763 -0.38104 0
M  V30 6896 C 688.962 -3.45158 -0.326601 0
M  V30 6897 C 688.023 -4.24754 0.623098 0
M  V30 6898 C 687.256 -5.33629 -0.0872172 0
M  V30 6899 O 687.479 -5.55204 -1.30784 0
M  V30 6900 O 686.413 -5.99091 0.580875 0
M  V30 6901 H 690.239 -2.75716 1.27337 0
M  V30 6902 H 687.824 -1.32747 0.685465 0
M  V30 6903 H 689.706 -4.14716 -0.747559 0
M  V30 6904 H 688.381 -3.02336 -1.15648 0
M  V30 6905 H 687.288 -3.57759 1.09359 0
M  V30 6906 H 688.621 -4.71272 1.41998 0
M  V30 6907 N 690.273 -0.685099 -1.4193 0
M  V30 6908 C 691.236 -0.0222632 -2.29189 0
M  V30 6909 C 692.236 0.7186 -1.4385 0
M  V30 6910 O 693.426 0.555058 -1.6512 0
M  V30 6911 C 690.558 0.979013 -3.2654 0
M  V30 6912 H 691.751 -0.790424 -2.89296 0
M  V30 6913 H 689.304 -0.448012 -1.49742 0
M  V30 6914 H 690.039 1.77531 -2.71392 0
M  V30 6915 H 689.824 0.451037 -3.89497 0
M  V30 6916 H 691.314 1.44091 -3.91954 0
M  V30 6917 N 691.751 1.51645 -0.429126 0
M  V30 6918 C 692.698 2.27542 0.386446 0
M  V30 6919 C 693.668 1.30786 1.02393 0
M  V30 6920 O 694.853 1.59678 1.0444 0
M  V30 6921 C 691.993 3.11457 1.48623 0
M  V30 6922 C 691.106 4.23196 0.867691 0
M  V30 6923 C 690.241 4.94435 1.94183 0
M  V30 6924 C 689.28 5.98108 1.30129 0
M  V30 6925 N 688.417 6.62786 2.31644 0
M  V30 6926 H 693.257 2.968 -0.267155 0
M  V30 6927 H 690.794 1.46397 -0.143591 0
M  V30 6928 H 692.752 3.58429 2.13506 0
M  V30 6929 H 691.382 2.44329 2.10957 0
M  V30 6930 H 690.434 3.80248 0.107373 0
M  V30 6931 H 691.746 4.97499 0.35997 0
M  V30 6932 H 690.9 5.44914 2.66747 0
M  V30 6933 H 689.639 4.19744 2.48326 0
M  V30 6934 H 688.644 5.4693 0.561082 0
M  V30 6935 H 689.869 6.74751 0.767303 0
M  V30 6936 H 687.815 5.90913 2.84883 0
M  V30 6937 H 687.732 7.32828 1.85741 0
M  V30 6938 H 689 7.17897 3.03717 0
M  V30 6939 N 693.229 0.160201 1.56784 0
M  V30 6940 C 694.478 -0.487619 1.95717 0
M  V30 6941 C 694.791 -1.65136 1.0483 0
M  V30 6942 O 695.997 -2.36468 1.33398 0
M  V30 6943 C 694.453 -0.91888 3.47972 0
M  V30 6944 C 694.061 0.218655 4.47466 0
M  V30 6945 C 695.805 -1.53575 3.95746 0
M  V30 6946 C 693.712 -0.231614 5.90946 0
M  V30 6947 H 692.642 -0.185939 0.730714 0
M  V30 6948 H 695.293 0.246657 1.81835 0
M  V30 6949 H 693.675 -1.70881 3.57234 0
M  V30 6950 H 694.849 0.995825 4.49911 0
M  V30 6951 H 693.164 0.744767 4.09685 0
M  V30 6952 H 695.761 -1.88448 5.00391 0
M  V30 6953 H 696.104 -2.42959 3.38048 0
M  V30 6954 H 696.637 -0.810467 3.89456 0
M  V30 6955 H 693.376 0.62718 6.52493 0
M  V30 6956 H 692.896 -0.974379 5.91833 0
M  V30 6957 H 694.575 -0.67922 6.43425 0
M  V30 6958 N 694.707 -1.5719 -0.113559 0
M  V30 6959 C 695.935 -1.89328 -0.834422 0
M  V30 6960 C 696.35 -0.752018 -1.73177 0
M  V30 6961 O 695.707 0.276912 -1.80387 0
M  V30 6962 C 695.758 -3.20962 -1.66329 0
M  V30 6963 O 695.479 -4.30695 -0.802069 0
M  V30 6964 C 696.98 -3.6684 -2.48884 0
M  V30 6965 H 694.2 -0.626769 -0.239587 0
M  V30 6966 H 696.744 -2.04273 -0.0963195 0
M  V30 6967 H 694.899 -3.0767 -2.35409 0
M  V30 6968 H 695.313 -5.06175 -1.37431 0
M  V30 6969 H 696.787 -4.61692 -3.02563 0
M  V30 6970 H 697.264 -2.93765 -3.26495 0
M  V30 6971 H 697.87 -3.82938 -1.85036 0
M  V30 6972 N 696.185 0.383891 -1.52853 0
M  V30 6973 C 697.425 1.13731 -1.69837 0
M  V30 6974 C 697.789 1.87086 -0.431611 0
M  V30 6975 O 698.99 2.64518 -0.477886 0
M  V30 6976 C 697.261 2.08551 -2.90243 0
M  V30 6977 S 698.82 2.9166 -3.27841 0
M  V30 6978 H 695.638 0.384911 -0.5978 0
M  V30 6979 H 698.24 0.42103 -1.90913 0
M  V30 6980 H 696.944 1.53392 -3.80656 0
M  V30 6981 H 696.475 2.8468 -2.71516 0
M  V30 6982 H 698.49 4.10723 -2.78426 0
M  V30 6983 N 697.663 1.43903 0.642637 0
M  V30 6984 C 698.888 1.49758 1.43483 0
M  V30 6985 C 699.313 0.119911 1.87717 0
M  V30 6986 O 698.671 -0.888558 1.58033 0
M  V30 6987 C 698.719 2.45744 2.63898 0
M  V30 6988 O 697.823 1.95101 3.63331 0
M  V30 6989 H 697.164 0.506138 0.429791 0
M  V30 6990 H 699.694 1.88923 0.785438 0
M  V30 6991 H 699.704 2.63399 3.11584 0
M  V30 6992 H 698.379 3.45818 2.31046 0
M  V30 6993 H 696.956 1.87158 3.22531 0
M  V30 6994 N 699.141 -0.881989 1.30609 0
M  V30 6995 C 700.104 -1.96957 1.1722 0
M  V30 6996 C 701.104 -1.60472 0.102598 0
M  V30 6997 O 702.294 -1.70628 0.350943 0
M  V30 6998 C 699.426 -3.31463 0.796572 0
M  V30 6999 H 700.619 -2.10262 2.13846 0
M  V30 7000 H 698.172 -1.06877 1.14048 0
M  V30 7001 H 698.907 -3.23859 -0.169053 0
M  V30 7002 H 698.692 -3.59314 1.56959 0
M  V30 7003 H 700.182 -4.11233 0.72645 0
M  V30 7004 N 700.619 -1.13374 -1.09472 0
M  V30 7005 C 701.569 -0.77946 -2.14263 0
M  V30 7006 C 702.553 0.226271 -1.59301 0
M  V30 7007 O 703.745 0.0302581 -1.76974 0
M  V30 7008 C 700.874 -0.246635 -3.42413 0
M  V30 7009 C 699.96 -1.28124 -4.04283 0
M  V30 7010 N 700.351 -2.48201 -4.40715 0
M  V30 7011 C 698.649 -1.12892 -4.31476 0
M  V30 7012 C 699.35 -3.14347 -4.8945 0
M  V30 7013 N 698.326 -2.41771 -4.86876 0
M  V30 7014 H 702.128 -1.69305 -2.40235 0
M  V30 7015 H 699.642 -1.01598 -1.26695 0
M  V30 7016 H 701.639 0.0254131 -4.16892 0
M  V30 7017 H 700.299 0.661287 -3.17895 0
M  V30 7018 H 701.31 -2.85511 -4.32093 0
M  V30 7019 H 697.987 -0.279117 -4.16566 0
M  V30 7020 H 699.377 -4.16663 -5.27107 0
M  V30 7021 N 702.098 1.27442 -0.927168 0
M  V30 7022 C 703.514 1.46754 -0.627329 0
M  V30 7023 C 703.714 1.83902 0.823549 0
M  V30 7024 O 702.77 1.95215 1.60148 0
M  V30 7025 C 704.083 2.56045 -1.57674 0
M  V30 7026 C 705.631 2.69906 -1.58491 0
M  V30 7027 C 706.106 3.82355 -2.52128 0
M  V30 7028 N 707.597 3.89728 -2.50332 0
M  V30 7029 C 708.332 4.76155 -3.19475 0
M  V30 7030 N 707.828 5.67073 -3.97995 0
M  V30 7031 N 709.621 4.6988 -3.08496 0
M  V30 7032 H 701.772 1.01613 -1.86517 0
M  V30 7033 H 704.035 0.507443 -0.800753 0
M  V30 7034 H 703.741 2.35542 -2.61176 0
M  V30 7035 H 703.615 3.53423 -1.31804 0
M  V30 7036 H 706.002 2.89792 -0.557208 0
M  V30 7037 H 706.083 1.73018 -1.8841 0
M  V30 7038 H 705.727 3.63224 -3.55008 0
M  V30 7039 H 705.657 4.7867 -2.19505 0
M  V30 7040 H 708.148 3.24717 -1.93306 0
M  V30 7041 H 708.461 6.2988 -4.4774 0
M  V30 7042 H 706.806 5.6687 -4.02098 0
M  V30 7043 H 709.997 3.97848 -2.46646 0
M  V30 7044 H 710.17 5.37017 -3.62652 0
M  V30 7045 N 703.576 0.692616 1.41565 0
M  V30 7046 C 704.486 0.0258451 2.34586 0
M  V30 7047 C 705.502 -0.769324 1.56069 0
M  V30 7048 O 706.678 -0.707563 1.88562 0
M  V30 7049 C 703.743 -0.901289 3.3478 0
M  V30 7050 C 702.804 -0.0986579 4.29187 0
M  V30 7051 C 702.037 -0.981634 5.24595 0
M  V30 7052 O 702.26 -2.22115 5.25377 0
M  V30 7053 O 701.194 -0.432892 6.00341 0
M  V30 7054 H 705.02 0.792537 2.93177 0
M  V30 7055 H 702.605 0.452935 1.42369 0
M  V30 7056 H 704.487 -1.43302 3.96286 0
M  V30 7057 H 703.162 -1.64752 2.78637 0
M  V30 7058 H 702.069 0.477604 3.71039 0
M  V30 7059 H 703.402 0.608848 4.8842 0
M  V30 7060 N 705.054 -1.51416 0.437162 0
M  V30 7061 C 706.465 -1.86682 -0.0260005 0
M  V30 7062 C 706.816 -1.35432 -1.4196 0
M  V30 7063 O 705.941 -0.705055 -2.04592 0
M  V30 7064 C 706.536 -3.38757 -0.0539577 0
M  V30 7065 C 705.095 -3.7356 -0.461532 0
M  V30 7066 C 704.242 -2.75134 0.345924 0
M  V30 7067 H 707.193 -1.44642 0.653013 0
M  V30 7068 H 707.214 -3.70573 -0.863478 0
M  V30 7069 H 706.726 -3.76028 0.96045 0
M  V30 7070 H 704.827 -3.41878 -1.48155 0
M  V30 7071 H 704.94 -4.78737 -0.186451 0
M  V30 7072 H 703.304 -2.53947 -0.195739 0
M  V30 7073 H 704.087 -3.15247 1.35921 0
M  V30 7074 N 706.532 -0.168513 -1.56696 0
M  V30 7075 C 707.948 0.187686 -1.58493 0
M  V30 7076 C 708.148 1.63063 -1.18375 0
M  V30 7077 O 707.204 2.36142 -0.894042 0
M  V30 7078 C 708.517 -0.0905858 -3.00564 0
M  V30 7079 C 710.065 -0.028575 -3.12987 0
M  V30 7080 C 710.54 -0.279799 -4.57145 0
M  V30 7081 N 712.031 -0.227476 -4.62641 0
M  V30 7082 C 712.766 -0.396073 -5.7203 0
M  V30 7083 N 712.262 -0.623572 -6.89988 0
M  V30 7084 N 714.055 -0.332173 -5.61118 0
M  V30 7085 H 706.206 -1.11042 -1.81062 0
M  V30 7086 H 708.469 -0.441235 -0.839056 0
M  V30 7087 H 708.175 -1.09006 -3.34381 0
M  V30 7088 H 708.049 0.619078 -3.72085 0
M  V30 7089 H 710.436 0.961471 -2.78998 0
M  V30 7090 H 710.517 -0.770905 -2.43907 0
M  V30 7091 H 710.161 -1.26704 -4.91842 0
M  V30 7092 H 710.091 0.48311 -5.24379 0
M  V30 7093 H 712.582 -0.0571723 -3.77857 0
M  V30 7094 H 712.895 -0.741745 -7.69232 0
M  V30 7095 H 711.24 -0.660153 -6.91858 0
M  V30 7096 H 714.431 -0.155051 -4.67843 0
M  V30 7097 H 714.604 -0.466994 -6.46315 0
M  V30 7098 N 708.01 1.57248 0.105221 0
M  V30 7099 C 708.94 2.04374 1.12931 0
M  V30 7100 C 709.921 0.93074 1.42377 0
M  V30 7101 O 711.106 1.20136 1.52581 0
M  V30 7102 C 708.236 2.45967 2.45189 0
M  V30 7103 C 707.19 3.60838 2.30174 0
M  V30 7104 C 706.516 3.88374 3.67518 0
M  V30 7105 C 707.816 4.92084 1.75073 0
M  V30 7106 H 709.51 2.9018 0.737287 0
M  V30 7107 H 707.056 1.39601 0.353211 0
M  V30 7108 H 709.009 2.77542 3.17094 0
M  V30 7109 H 707.733 1.57148 2.86308 0
M  V30 7110 H 706.392 3.29493 1.60716 0
M  V30 7111 H 706.04 2.96739 4.06147 0
M  V30 7112 H 705.74 4.65703 3.58321 0
M  V30 7113 H 707.264 4.22415 4.40906 0
M  V30 7114 H 708.678 5.22106 2.36809 0
M  V30 7115 H 707.075 5.73507 1.76662 0
M  V30 7116 H 708.145 4.79684 0.709347 0
M  V30 7117 N 709.488 -0.375779 1.53054 0
M  V30 7118 C 710.734 -1.12114 1.68992 0
M  V30 7119 C 711.067 -1.8926 0.435238 0
M  V30 7120 O 710.342 -1.86044 -0.567278 0
M  V30 7121 C 710.625 -2.08867 2.93337 0
M  V30 7122 C 710.478 -1.35397 4.28938 0
M  V30 7123 C 711.797 -3.09124 3.13257 0
M  V30 7124 H 708.916 -0.406207 0.614951 0
M  V30 7125 H 711.558 -0.403054 1.85676 0
M  V30 7126 H 709.708 -2.70102 2.79244 0
M  V30 7127 H 711.38 -0.770242 4.54824 0
M  V30 7128 H 709.623 -0.655801 4.28814 0
M  V30 7129 H 710.294 -2.06161 5.12056 0
M  V30 7130 H 712.77 -2.57987 3.26469 0
M  V30 7131 H 711.646 -3.74054 4.01715 0
M  V30 7132 H 711.907 -3.78729 2.28072 0
M  V30 7133 N 710.966 -1.44241 -0.634997 0
M  V30 7134 C 712.214 -1.46531 -1.39187 0
M  V30 7135 C 712.535 -0.0976441 -1.94755 0
M  V30 7136 O 711.805 0.869528 -1.75545 0
M  V30 7137 H 710.385 -0.539544 -0.516625 0
M  V30 7138 H 713.047 -1.79989 -0.747655 0
M  V30 7139 H 712.143 -2.18848 -2.22513 0
M  V30 7140 N 712.444 0.87505 -1.31075 0
M  V30 7141 C 713.692 1.62447 -1.20231 0
M  V30 7142 C 714.013 1.93506 0.240888 0
M  V30 7143 O 713.283 1.57847 1.16022 0
M  V30 7144 H 711.863 0.602207 -0.441991 0
M  V30 7145 H 714.525 1.04788 -1.64334 0
M  V30 7146 H 713.621 2.57031 -1.77036 0
M  V30 7147 N 713.922 1.13953 1.08869 0
M  V30 7148 C 715.199 0.815768 1.77777 0
M  V30 7149 C 715.579 -0.691624 1.99449 0
M  V30 7150 O 714.927 -1.63085 1.60049 0
M  V30 7151 C 715.137 1.60916 3.09689 0
M  V30 7152 C 716.485 1.80549 3.84301 0
M  V30 7153 O 717.509 1.57562 3.19457 0
M  V30 7154 O 716.368 2.18946 5.00724 0
M  V30 7155 H 713.462 0.298445 0.771271 0
M  V30 7156 H 716.008 1.24446 1.15374 0
M  V30 7157 H 714.78 2.6333 2.89435 0
M  V30 7158 H 714.403 1.17578 3.79817 0
M  V30 7159 N 715.4 -1.26948 0.933913 0
M  V30 7160 C 716.649 -1.93378 0.573409 0
M  V30 7161 C 716.962 -1.74148 -0.890614 0
M  V30 7162 O 718.168 -2.34971 -1.36017 0
M  V30 7163 C 716.624 -3.46449 0.974747 0
M  V30 7164 C 716.232 -3.74425 2.45988 0
M  V30 7165 C 717.976 -4.18924 0.685791 0
M  V30 7166 C 715.883 -5.209 2.8003 0
M  V30 7167 H 714.813 -0.723952 0.210736 0
M  V30 7168 H 717.464 -1.44143 1.13557 0
M  V30 7169 H 715.846 -3.94528 0.341181 0
M  V30 7170 H 717.02 -3.37079 3.14188 0
M  V30 7171 H 715.335 -3.15167 2.72138 0
M  V30 7172 H 717.932 -5.26786 0.916546 0
M  V30 7173 H 718.275 -4.14587 -0.377217 0
M  V30 7174 H 718.808 -3.76687 1.27874 0
M  V30 7175 H 715.547 -5.30332 3.85264 0
M  V30 7176 H 715.067 -5.59369 2.16485 0
M  V30 7177 H 716.746 -5.88837 2.68105 0
M  V30 7178 N 716.879 -0.700114 -1.41195 0
M  V30 7179 C 718.29 -0.307249 -1.84154 0
M  V30 7180 C 718.641 1.15539 -1.58572 0
M  V30 7181 O 717.766 1.88744 -1.05852 0
M  V30 7182 C 718.361 -0.550872 -3.34292 0
M  V30 7183 C 716.92 -0.211877 -3.75803 0
M  V30 7184 C 716.067 -0.830915 -2.64558 0
M  V30 7185 H 719.018 -0.900431 -1.30683 0
M  V30 7186 H 719.039 0.188954 -3.80031 0
M  V30 7187 H 718.551 -1.61548 -3.5288 0
M  V30 7188 H 716.652 0.848283 -3.62815 0
M  V30 7189 H 716.765 -0.67007 -4.74391 0
M  V30 7190 H 715.129 -0.260155 -2.53368 0
M  V30 7191 H 715.912 -1.89948 -2.85963 0
M  V30 7192 N 718.357 1.51182 -0.445186 0
M  V30 7193 C 719.597 2.04061 0.117717 0
M  V30 7194 C 719.961 1.32158 1.39278 0
M  V30 7195 O 721.162 1.75452 2.03642 0
M  V30 7196 C 719.433 3.55933 0.323445 0
M  V30 7197 S 720.992 4.30516 0.848627 0
M  V30 7198 H 717.81 0.710442 0.028165 0
M  V30 7199 H 720.412 1.85858 -0.606391 0
M  V30 7200 H 719.116 4.0583 -0.610764 0
M  V30 7201 H 718.647 3.78444 1.07441 0
M  V30 7202 H 720.662 4.48382 2.12528 0
M  V30 7203 N 719.835 0.176821 1.56605 0
M  V30 7204 C 721.06 -0.47599 2.01864 0
M  V30 7205 C 721.485 -1.55645 1.05623 0
M  V30 7206 O 720.843 -1.81263 0.0366729 0
M  V30 7207 C 720.891 -1.02619 3.4569 0
M  V30 7208 O 719.995 -2.13996 3.52533 0
M  V30 7209 H 719.336 -0.113363 0.654251 0
M  V30 7210 H 721.866 0.28233 2.02643 0
M  V30 7211 H 721.876 -1.34742 3.85109 0
M  V30 7212 H 720.551 -0.235138 4.15235 0
M  V30 7213 H 719.128 -1.82876 3.24978 0
M  V30 7214 N 721.313 -1.57302 -0.09688 0
M  V30 7215 C 722.561 -1.8563 -0.799117 0
M  V30 7216 C 722.882 -0.765263 -1.79356 0
M  V30 7217 O 722.152 0.208657 -1.94786 0
M  V30 7218 H 720.732 -0.684937 -0.298111 0
M  V30 7219 H 723.394 -1.9474 -0.0789341 0
M  V30 7220 H 722.49 -2.82305 -1.3308 0
M  V30 7221 N 722.791 0.367657 -1.53252 0
M  V30 7222 C 724.207 0.709191 -1.42978 0
M  V30 7223 C 724.407 1.93352 -0.567193 0
M  V30 7224 O 723.463 2.52453 -0.0488349 0
M  V30 7225 C 724.776 0.924338 -2.86141 0
M  V30 7226 C 726.324 1.02448 -2.95759 0
M  V30 7227 C 726.799 1.27211 -4.39979 0
M  V30 7228 N 728.29 1.33986 -4.43398 0
M  V30 7229 C 729.025 1.54852 -5.52095 0
M  V30 7230 N 728.521 1.73049 -6.7084 0
M  V30 7231 N 730.314 1.57205 -5.39669 0
M  V30 7232 H 722.465 -0.437669 -2.07842 0
M  V30 7233 H 724.728 -0.133737 -0.938519 0
M  V30 7234 H 724.434 0.0965455 -3.51567 0
M  V30 7235 H 724.308 1.83302 -3.29667 0
M  V30 7236 H 726.695 1.84282 -2.30487 0
M  V30 7237 H 726.776 0.0932301 -2.5563 0
M  V30 7238 H 726.42 0.458792 -5.05824 0
M  V30 7239 H 726.35 2.21654 -4.77679 0
M  V30 7240 H 728.841 1.21545 -3.5782 0
M  V30 7241 H 729.154 1.88538 -7.49449 0
M  V30 7242 H 727.499 1.70231 -6.7383 0
M  V30 7243 H 730.69 1.42555 -4.45865 0
M  V30 7244 H 730.863 1.73126 -6.24445 0
M  V30 7245 N 724.269 1.44576 0.627338 0
M  V30 7246 C 725.515 1.47777 1.38888 0
M  V30 7247 C 725.848 0.111406 1.9388 0
M  V30 7248 O 725.123 -0.87149 1.73883 0
M  V30 7249 C 725.406 2.54119 2.55138 0
M  V30 7250 C 725.259 4.00128 2.0547 0
M  V30 7251 C 726.578 2.56929 3.57317 0
M  V30 7252 H 723.697 0.538048 0.50366 0
M  V30 7253 H 726.339 1.76277 0.708978 0
M  V30 7254 H 724.489 2.29948 3.13139 0
M  V30 7255 H 726.161 4.35444 1.5227 0
M  V30 7256 H 724.404 4.11724 1.36623 0
M  V30 7257 H 725.075 4.7019 2.89181 0
M  V30 7258 H 727.551 2.78536 3.09122 0
M  V30 7259 H 726.427 3.33234 4.36173 0
M  V30 7260 H 726.688 1.6127 4.11636 0
M  V30 7261 N 725.747 -0.868086 1.31537 0
M  V30 7262 C 726.657 -2.00801 1.21311 0
M  V30 7263 C 727.673 -1.73518 0.129431 0
M  V30 7264 O 728.849 -1.98378 0.347588 0
M  V30 7265 C 725.914 -3.3419 0.922935 0
M  V30 7266 C 724.975 -3.74783 2.0937 0
M  V30 7267 C 724.208 -5.01807 1.81728 0
M  V30 7268 O 724.431 -5.65404 0.753313 0
M  V30 7269 O 723.365 -5.39213 2.67457 0
M  V30 7270 H 727.191 -2.12361 2.17109 0
M  V30 7271 H 724.776 -0.996684 1.11295 0
M  V30 7272 H 726.658 -4.14174 0.777033 0
M  V30 7273 H 725.333 -3.237 -0.00500301 0
M  V30 7274 H 724.24 -2.95432 2.29501 0
M  V30 7275 H 725.573 -3.89902 3.00396 0
M  V30 7276 N 727.225 -1.14528 -1.08264 0
M  V30 7277 C 728.471 -0.91576 -1.80947 0
M  V30 7278 C 728.804 0.55623 -1.86064 0
M  V30 7279 O 728.079 1.41207 -1.33756 0
M  V30 7280 C 728.362 -1.51917 -3.26486 0
M  V30 7281 C 728.215 -3.06111 -3.2957 0
M  V30 7282 C 729.534 -1.19724 -4.23502 0
M  V30 7283 H 726.653 -0.334113 -0.656915 0
M  V30 7284 H 729.295 -1.41547 -1.26746 0
M  V30 7285 H 727.445 -1.0942 -3.72773 0
M  V30 7286 H 729.117 -3.57448 -2.91597 0
M  V30 7287 H 727.36 -3.40483 -2.688 0
M  V30 7288 H 728.031 -3.43438 -4.32151 0
M  V30 7289 H 730.507 -1.56467 -3.85561 0
M  V30 7290 H 729.383 -1.64575 -5.23647 0
M  V30 7291 H 729.644 -0.112771 -4.41956 0
M  V30 7292 N 728.703 1.26451 -0.940633 0
M  V30 7293 C 729.65 2.264 -0.448497 0
M  V30 7294 C 730.62 1.5866 0.491546 0
M  V30 7295 O 731.805 1.86389 0.407874 0
M  V30 7296 C 728.945 3.43956 0.280715 0
M  V30 7297 C 728.058 4.26374 -0.694937 0
M  V30 7298 C 727.193 5.31171 0.0554186 0
M  V30 7299 C 726.232 6.05266 -0.912091 0
M  V30 7300 N 725.369 7.01833 -0.193524 0
M  V30 7301 H 730.209 2.67869 -1.30576 0
M  V30 7302 H 727.746 1.31707 -0.655112 0
M  V30 7303 H 729.704 4.10941 0.71994 0
M  V30 7304 H 728.334 3.03403 1.10212 0
M  V30 7305 H 727.386 3.59183 -1.25267 0
M  V30 7306 H 728.698 4.77748 -1.43382 0
M  V30 7307 H 727.852 6.04166 0.553951 0
M  V30 7308 H 726.591 4.80634 0.827183 0
M  V30 7309 H 725.596 5.31099 -1.42175 0
M  V30 7310 H 726.821 6.57893 -1.68385 0
M  V30 7311 H 724.767 6.53607 0.559758 0
M  V30 7312 H 724.684 7.50957 -0.871744 0
M  V30 7313 H 725.952 7.78983 0.283932 0
M  V30 7314 N 730.181 0.707592 1.40822 0
M  V30 7315 C 731.131 0.0265008 2.27985 0
M  V30 7316 C 732.115 -0.740685 1.42838 0
M  V30 7317 O 733.307 -0.6142 1.66002 0
M  V30 7318 C 730.436 -0.900382 3.31282 0
M  V30 7319 C 729.522 -0.128807 4.23904 0
M  V30 7320 N 729.913 0.883744 4.9802 0
M  V30 7321 C 728.211 -0.362539 4.44524 0
M  V30 7322 C 728.912 1.34666 5.65898 0
M  V30 7323 N 727.888 0.670306 5.39451 0
M  V30 7324 H 731.69 0.802667 2.82727 0
M  V30 7325 H 729.204 0.539475 1.53178 0
M  V30 7326 H 731.201 -1.40357 3.92563 0
M  V30 7327 H 729.861 -1.67601 2.781 0
M  V30 7328 H 730.872 1.26435 5.0223 0
M  V30 7329 H 727.549 -1.11512 4.02332 0
M  V30 7330 H 728.939 2.18756 6.35292 0
M  V30 7331 N 731.66 -1.50943 0.453197 0
M  V30 7332 C 732.908 -2.01813 -0.107709 0
M  V30 7333 C 733.229 -1.33841 -1.41816 0
M  V30 7334 O 732.499 -0.477973 -1.8998 0
M  V30 7335 H 731.079 -0.745773 -0.0427948 0
M  V30 7336 H 733.741 -1.8545 0.599531 0
M  V30 7337 H 732.837 -3.10911 -0.27218 0
M  V30 7338 N 733.138 -0.185124 -1.56509 0
M  V30 7339 C 734.415 0.503348 -1.89013 0
M  V30 7340 C 734.795 1.80349 -1.09715 0
M  V30 7341 O 734.143 2.27665 -0.195203 0
M  V30 7342 C 734.353 0.731839 -3.41241 0
M  V30 7343 C 735.701 1.05568 -4.11267 0
M  V30 7344 O 736.725 0.819906 -3.46635 0
M  V30 7345 O 735.584 1.50116 -5.25478 0
M  V30 7346 H 732.678 0.261139 -0.784688 0
M  V30 7347 H 735.224 -0.224592 -1.68207 0
M  V30 7348 H 733.996 -0.18672 -3.90854 0
M  V30 7349 H 733.619 1.5126 -3.67704 0
M  V30 7350 N 734.616 1.57351 0.0885366 0
M  V30 7351 C 735.844 1.90631 0.804196 0
M  V30 7352 C 736.259 0.779474 1.71958 0
M  V30 7353 O 735.616 -0.248179 1.80805 0
M  V30 7354 C 735.667 3.23568 1.61202 0
M  V30 7355 O 735.388 4.31917 0.733447 0
M  V30 7356 C 736.889 3.70753 2.43016 0
M  V30 7357 H 734.109 0.630501 0.229585 0
M  V30 7358 H 736.653 2.044 0.0638092 0
M  V30 7359 H 734.808 3.11377 2.30485 0
M  V30 7360 H 735.222 5.08297 1.29361 0
M  V30 7361 H 736.696 4.66447 2.9518 0
M  V30 7362 H 737.173 2.98922 3.2178 0
M  V30 7363 H 737.779 3.85834 1.7892 0
M  V30 7364 N 736.094 -0.359525 1.53444 0
M  V30 7365 C 737.34 -1.09958 1.71116 0
M  V30 7366 C 737.695 -1.8681 0.460414 0
M  V30 7367 O 736.988 -1.83635 -0.5467 0
M  V30 7368 C 737.182 -2.08287 2.90433 0
M  V30 7369 C 737.011 -1.41098 4.26991 0
M  V30 7370 C 735.781 -1.16255 4.91745 0
M  V30 7371 C 737.979 -0.845517 5.07302 0
M  V30 7372 N 735.961 -0.454798 6.12213 0
M  V30 7373 C 737.332 -0.267455 6.19423 0
M  V30 7374 C 739.387 -0.744797 4.92298 0
M  V30 7375 C 738.09 0.401511 7.18179 0
M  V30 7376 C 740.116 -0.0896013 5.91332 0
M  V30 7377 C 739.478 0.47756 7.02779 0
M  V30 7378 H 735.577 -0.387305 0.679352 0
M  V30 7379 H 738.161 -0.38519 1.90852 0
M  V30 7380 H 736.332 -2.77034 2.72226 0
M  V30 7381 H 738.064 -2.75015 2.96899 0
M  V30 7382 H 734.819 -1.44544 4.51003 0
M  V30 7383 H 735.243 -0.116108 6.769 0
M  V30 7384 H 739.885 -1.16905 4.06317 0
M  V30 7385 H 737.603 0.837694 8.03746 0
M  V30 7386 H 741.189 -0.0125162 5.81799 0
M  V30 7387 H 740.069 0.976522 7.78096 0
M  V30 7388 N 737.572 -1.44907 -0.619662 0
M  V30 7389 C 738.82 -1.47999 -1.37625 0
M  V30 7390 C 739.141 -0.118295 -1.94641 0
M  V30 7391 O 738.411 0.85086 -1.76457 0
M  V30 7392 H 736.991 -0.544993 -0.510873 0
M  V30 7393 H 739.653 -1.80772 -0.728522 0
M  V30 7394 H 738.749 -2.21196 -2.20179 0
M  V30 7395 N 739.05 0.861098 -1.31996 0
M  V30 7396 C 740.275 1.65264 -1.2531 0
M  V30 7397 C 740.7 1.87265 0.177007 0
M  V30 7398 O 740.058 1.4208 1.12619 0
M  V30 7399 C 740.106 2.99284 -2.0115 0
M  V30 7400 O 739.21 3.89508 -1.3549 0
M  V30 7401 H 738.551 0.50409 -0.432192 0
M  V30 7402 H 741.081 1.07297 -1.74208 0
M  V30 7403 H 741.091 3.49154 -2.11081 0
M  V30 7404 H 739.766 2.82591 -3.05148 0
M  V30 7405 H 738.343 3.47966 -1.34066 0
M  V30 7406 N 740.528 1.15101 1.07655 0
M  V30 7407 C 741.777 0.918528 1.79572 0
M  V30 7408 C 742.09 -0.555922 1.87534 0
M  V30 7409 O 743.296 -0.905893 2.55941 0
M  V30 7410 C 741.752 1.59394 3.22679 0
M  V30 7411 C 741.36 3.1052 3.22927 0
M  V30 7412 C 743.104 1.44289 3.99225 0
M  V30 7413 C 741.011 3.70862 4.60668 0
M  V30 7414 H 739.941 0.340006 0.672987 0
M  V30 7415 H 742.592 1.38079 1.20857 0
M  V30 7416 H 740.974 1.05936 3.81567 0
M  V30 7417 H 742.148 3.70708 2.737 0
M  V30 7418 H 740.463 3.25351 2.59876 0
M  V30 7419 H 743.06 1.86766 5.01022 0
M  V30 7420 H 743.403 0.389975 4.14469 0
M  V30 7421 H 743.936 1.94826 3.46825 0
M  V30 7422 H 740.675 4.7604 4.50628 0
M  V30 7423 H 740.195 3.15456 5.10145 0
M  V30 7424 H 741.874 3.71607 5.29639 0
M  V30 7425 N 742.006 -1.2595 0.947325 0
M  V30 7426 C 743.246 -1.95218 0.605743 0
M  V30 7427 C 743.61 -1.72624 -0.84054 0
M  V30 7428 O 744.811 -2.35748 -1.29136 0
M  V30 7429 C 743.082 -3.44654 0.94596 0
M  V30 7430 S 744.641 -4.32922 0.715849 0
M  V30 7431 H 741.459 -0.675159 0.222894 0
M  V30 7432 H 744.061 -1.52766 1.21995 0
M  V30 7433 H 742.765 -3.586 1.99585 0
M  V30 7434 H 742.296 -3.92082 0.321718 0
M  V30 7435 H 744.311 -4.94445 -0.416959 0
M  V30 7436 N 743.484 -0.715051 -1.40445 0
M  V30 7437 C 744.761 -0.181503 -1.94756 0
M  V30 7438 C 745.141 1.31268 -1.65324 0
M  V30 7439 O 744.489 2.0686 -0.970631 0
M  V30 7440 C 744.699 -0.493663 -3.45491 0
M  V30 7441 C 746.047 -0.432032 -4.22396 0
M  V30 7442 O 747.071 -0.429692 -3.53599 0
M  V30 7443 O 745.93 -0.409091 -5.44967 0
M  V30 7444 H 743.024 -0.0263989 -0.826579 0
M  V30 7445 H 745.57 -0.792546 -1.50056 0
M  V30 7446 H 744.342 -1.52713 -3.6027 0
M  V30 7447 H 743.965 0.14737 -3.97327 0
M  V30 7448 N 744.962 1.50701 -0.461195 0
M  V30 7449 C 746.187 2.07171 0.0974773 0
M  V30 7450 C 746.612 1.32391 1.3362 0
M  V30 7451 O 745.97 0.368676 1.77512 0
M  V30 7452 C 746.018 3.58651 0.374409 0
M  V30 7453 O 745.122 3.85816 1.4567 0
M  V30 7454 H 744.463 0.663944 -0.00862047 0
M  V30 7455 H 746.993 1.94021 -0.649394 0
M  V30 7456 H 747.003 4.03295 0.617843 0
M  V30 7457 H 745.678 4.12498 -0.530829 0
M  V30 7458 H 744.255 3.53018 1.20136 0
M  V30 7459 N 746.441 0.193421 1.56409 0
M  V30 7460 C 747.718 -0.493318 1.89277 0
M  V30 7461 C 748.098 -1.79765 1.10669 0
M  V30 7462 O 747.446 -2.27558 0.207274 0
M  V30 7463 C 747.656 -0.713732 3.41624 0
M  V30 7464 C 749.004 -1.03385 4.11821 0
M  V30 7465 O 750.028 -0.801511 3.47065 0
M  V30 7466 O 748.887 -1.47327 5.26267 0
M  V30 7467 H 745.981 -0.256973 0.786062 0
M  V30 7468 H 748.527 0.23351 1.68086 0
M  V30 7469 H 747.299 0.207446 3.9075 0
M  V30 7470 H 746.922 -1.49308 3.68501 0
M  V30 7471 N 747.919 -1.57396 -0.0801906 0
M  V30 7472 C 749.166 -1.86836 -0.780927 0
M  V30 7473 C 749.494 -0.784012 -1.77999 0
M  V30 7474 O 748.749 0.220881 -1.94449 0
M  V30 7475 C 749.048 -3.22915 -1.53169 0
M  V30 7476 C 748.714 -4.45843 -0.67339 0
M  V30 7477 C 747.376 -4.79213 -0.436829 0
M  V30 7478 C 749.728 -5.21142 -0.0776786 0
M  V30 7479 C 747.056 -5.853 0.405062 0
M  V30 7480 C 749.408 -6.28119 0.751619 0
M  V30 7481 C 748.072 -6.59995 0.998131 0
M  V30 7482 H 747.342 -0.683682 -0.285761 0
M  V30 7483 H 749.989 -1.91454 -0.0419435 0
M  V30 7484 H 748.294 -3.14049 -2.34265 0
M  V30 7485 H 749.991 -3.42926 -2.07853 0
M  V30 7486 H 746.581 -4.19721 -0.867891 0
M  V30 7487 H 750.765 -4.95682 -0.247572 0
M  V30 7488 H 746.021 -6.084 0.60488 0
M  V30 7489 H 750.195 -6.8563 1.22 0
M  V30 7490 H 747.822 -7.42027 1.65227 0
M  V30 7491 N 749.397 0.351382 -1.53633 0
M  V30 7492 C 750.622 1.11718 -1.74739 0
M  V30 7493 C 751.047 1.81829 -0.481657 0
M  V30 7494 O 750.405 1.72264 0.565233 0
M  V30 7495 C 750.453 2.11234 -2.92254 0
M  V30 7496 O 749.557 3.186 -2.61855 0
M  V30 7497 H 748.898 0.323482 -0.579875 0
M  V30 7498 H 751.428 0.404167 -2.00568 0
M  V30 7499 H 751.438 2.54591 -3.18822 0
M  V30 7500 H 750.113 1.59599 -3.84058 0
M  V30 7501 H 748.69 2.80115 -2.4615 0
M  V30 7502 N 750.875 1.45233 0.611969 0
M  V30 7503 C 751.805 1.5641 1.73373 0
M  V30 7504 C 752.786 0.415896 1.64937 0
M  V30 7505 O 753.971 0.638478 1.83404 0
M  V30 7506 C 751.101 1.52627 3.11965 0
M  V30 7507 C 750.055 2.66119 3.35208 0
M  V30 7508 C 749.381 2.4739 4.74028 0
M  V30 7509 C 750.681 4.08157 3.25891 0
M  V30 7510 H 752.375 2.50307 1.64277 0
M  V30 7511 H 749.921 1.20467 0.788904 0
M  V30 7512 H 751.874 1.59043 3.90235 0
M  V30 7513 H 750.598 0.552564 3.21892 0
M  V30 7514 H 749.257 2.59123 2.59327 0
M  V30 7515 H 748.905 1.48168 4.80682 0
M  V30 7516 H 748.605 3.23494 4.90536 0
M  V30 7517 H 750.129 2.55653 5.54503 0
M  V30 7518 H 751.543 4.1642 3.9404 0
M  V30 7519 H 749.94 4.84617 3.5393 0
M  V30 7520 H 751.01 4.30374 2.23397 0
M  V30 7521 N 752.353 -0.854086 1.3245 0
M  V30 7522 C 753.263 -1.99503 1.23434 0
M  V30 7523 C 754.279 -1.73371 0.147828 0
M  V30 7524 O 755.455 -1.97998 0.368609 0
M  V30 7525 C 752.52 -3.33192 0.958328 0
M  V30 7526 C 751.581 -3.72542 2.13333 0
M  V30 7527 C 750.814 -4.99852 1.8704 0
M  V30 7528 O 751.037 -5.64573 0.813239 0
M  V30 7529 O 749.971 -5.36345 2.73161 0
M  V30 7530 H 753.797 -2.10046 2.1935 0
M  V30 7531 H 751.382 -0.984823 1.12346 0
M  V30 7532 H 753.264 -4.13327 0.820918 0
M  V30 7533 H 751.939 -3.23687 0.0293299 0
M  V30 7534 H 750.846 -2.92981 2.32622 0
M  V30 7535 H 752.179 -3.86694 3.04514 0
M  V30 7536 N 753.831 -1.1567 -1.07043 0
M  V30 7537 C 754.794 -0.858906 -2.12498 0
M  V30 7538 C 755.794 0.142735 -1.60165 0
M  V30 7539 O 756.984 -0.0872678 -1.73981 0
M  V30 7540 C 754.116 -0.283021 -3.39723 0
M  V30 7541 H 755.309 -1.79368 -2.40348 0
M  V30 7542 H 752.862 -0.964608 -1.22984 0
M  V30 7543 H 753.597 0.659796 -3.17517 0
M  V30 7544 H 753.382 -1.00467 -3.7901 0
M  V30 7545 H 754.872 -0.0923543 -4.17498 0
M  V30 7546 N 755.309 1.25446 -0.953992 0
M  V30 7547 C 756.272 2.24156 -0.478179 0
M  V30 7548 C 757.272 1.55278 0.417776 0
M  V30 7549 O 758.462 1.72866 0.215155 0
M  V30 7550 C 755.594 3.39495 0.309202 0
M  V30 7551 H 756.787 2.67764 -1.35064 0
M  V30 7552 H 754.34 1.37822 -0.737206 0
M  V30 7553 H 755.075 3.01307 1.19936 0
M  V30 7554 H 754.86 3.90679 -0.333562 0
M  V30 7555 H 756.35 4.12796 0.631594 0
M  V30 7556 N 756.787 0.722489 1.40064 0
M  V30 7557 C 758.012 0.273446 2.05589 0
M  V30 7558 C 758.437 -1.07875 1.54093 0
M  V30 7559 O 757.795 -1.68095 0.679252 0
M  V30 7560 C 757.843 0.271023 3.5958 0
M  V30 7561 O 756.947 -0.745499 4.05606 0
M  V30 7562 H 756.288 0.126856 0.65177 0
M  V30 7563 H 758.818 0.984906 1.79334 0
M  V30 7564 H 758.828 0.111084 4.07849 0
M  V30 7565 H 757.503 1.25776 3.96425 0
M  V30 7566 H 756.08 -0.552719 3.68781 0
M  V30 7567 N 758.265 -1.50454 0.469181 0
M  V30 7568 C 759.511 -2.02615 -0.0865971 0
M  V30 7569 C 759.844 -1.35062 -1.39542 0
M  V30 7570 O 759.119 -0.475701 -1.88593 0
M  V30 7571 C 759.402 -3.59068 -0.272385 0
M  V30 7572 C 759.255 -4.37196 1.05733 0
M  V30 7573 C 760.574 -4.2793 -1.0278 0
M  V30 7574 H 757.693 -0.736389 -0.0299977 0
M  V30 7575 H 760.335 -1.79792 0.614399 0
M  V30 7576 H 758.485 -3.78646 -0.869471 0
M  V30 7577 H 760.157 -4.29195 1.69084 0
M  V30 7578 H 758.4 -4.01013 1.65442 0
M  V30 7579 H 759.071 -5.44924 0.880997 0
M  V30 7580 H 761.547 -4.12816 -0.521718 0
M  V30 7581 H 760.423 -5.37214 -1.12659 0
M  V30 7582 H 760.684 -3.90968 -2.0639 0
M  V30 7583 N 759.743 -0.201713 -1.56304 0
M  V30 7584 C 760.673 0.71155 -2.22394 0
M  V30 7585 C 761.654 1.21625 -1.18917 0
M  V30 7586 O 762.839 1.26388 -1.47444 0
M  V30 7587 C 759.969 1.92837 -2.88845 0
M  V30 7588 C 758.923 1.55831 -3.98623 0
M  V30 7589 C 758.249 2.85228 -4.52271 0
M  V30 7590 C 759.549 0.763249 -5.16693 0
M  V30 7591 H 761.243 0.160573 -2.98969 0
M  V30 7592 H 758.789 0.0757916 -1.438 0
M  V30 7593 H 760.742 2.57253 -3.33764 0
M  V30 7594 H 759.466 2.50398 -2.09686 0
M  V30 7595 H 758.125 0.9377 -3.54405 0
M  V30 7596 H 757.773 3.40893 -3.69866 0
M  V30 7597 H 757.473 2.6121 -5.26349 0
M  V30 7598 H 758.997 3.50622 -4.99897 0
M  V30 7599 H 760.411 1.31066 -5.58117 0
M  V30 7600 H 758.808 0.620935 -5.96879 0
M  V30 7601 H 759.878 -0.234322 -4.84334 0
M  V30 7602 N 761.222 1.57436 0.0718424 0
M  V30 7603 C 762.462 1.89082 0.776351 0
M  V30 7604 C 762.826 0.795494 1.74745 0
M  V30 7605 O 764.027 0.995025 2.49705 0
M  V30 7606 C 762.298 3.25958 1.46582 0
M  V30 7607 S 763.857 3.79352 2.2054 0
M  V30 7608 H 760.675 0.662472 0.25817 0
M  V30 7609 H 763.277 1.95473 0.0324536 0
M  V30 7610 H 761.981 4.03577 0.745237 0
M  V30 7611 H 761.512 3.22764 2.24915 0
M  V30 7612 H 763.527 3.54634 3.47058 0
M  V30 7613 N 762.7 -0.34323 1.53817 0
M  V30 7614 C 764.116 -0.686355 1.44088 0
M  V30 7615 C 764.316 -1.92426 0.597882 0
M  V30 7616 O 763.372 -2.52343 0.0889918 0
M  V30 7617 C 764.685 -0.878698 2.87575 0
M  V30 7618 C 766.233 -0.977296 2.97352 0
M  V30 7619 C 766.708 -1.20195 4.41947 0
M  V30 7620 N 768.199 -1.26915 4.45474 0
M  V30 7621 C 768.934 -1.46049 5.54488 0
M  V30 7622 N 768.43 -1.62354 6.73508 0
M  V30 7623 N 770.223 -1.48599 5.42102 0
M  V30 7624 H 762.374 0.470679 2.07119 0
M  V30 7625 H 764.637 0.148652 0.936273 0
M  V30 7626 H 764.343 -0.040602 3.51677 0
M  V30 7627 H 764.217 -1.78034 3.32541 0
M  V30 7628 H 766.604 -1.80591 2.3339 0
M  V30 7629 H 766.685 -0.0525498 2.55746 0
M  V30 7630 H 766.329 -0.378262 5.06489 0
M  V30 7631 H 766.259 -2.14027 4.81145 0
M  V30 7632 H 768.75 -1.15837 3.59708 0
M  V30 7633 H 769.063 -1.76591 7.52353 0
M  V30 7634 H 767.408 -1.5949 6.76453 0
M  V30 7635 H 770.599 -1.35443 4.48077 0
M  V30 7636 H 770.772 -1.6317 6.2712 0
M  V30 7637 N 764.178 -1.45556 -0.604258 0
M  V30 7638 C 765.088 -1.57025 -1.74299 0
M  V30 7639 C 766.104 -0.45456 -1.67958 0
M  V30 7640 O 767.28 -0.715711 -1.88254 0
M  V30 7641 C 764.345 -1.53702 -3.10768 0
M  V30 7642 C 763.406 -2.76335 -3.28538 0
M  V30 7643 C 762.639 -2.73161 -4.58496 0
M  V30 7644 O 762.862 -1.80678 -5.41028 0
M  V30 7645 O 761.796 -3.64409 -4.79051 0
M  V30 7646 H 765.622 -2.53284 -1.67573 0
M  V30 7647 H 763.207 -1.28104 -0.768745 0
M  V30 7648 H 765.089 -1.54468 -3.92068 0
M  V30 7649 H 763.764 -0.605957 -3.17978 0
M  V30 7650 H 762.671 -2.8113 -2.46813 0
M  V30 7651 H 764.004 -3.68578 -3.26207 0
M  V30 7652 N 765.656 0.84705 -1.32902 0
M  V30 7653 C 766.586 1.97166 -1.25091 0
M  V30 7654 C 767.567 1.69578 -0.133161 0
M  V30 7655 O 768.752 1.91519 -0.321591 0
M  V30 7656 C 765.882 3.33157 -0.981006 0
M  V30 7657 C 764.836 3.75119 -2.06082 0
M  V30 7658 C 764.162 5.08826 -1.64318 0
M  V30 7659 C 765.462 3.89774 -3.47669 0
M  V30 7660 H 767.156 2.03958 -2.19184 0
M  V30 7661 H 764.702 0.979907 -1.05517 0
M  V30 7662 H 766.655 4.11393 -0.912891 0
M  V30 7663 H 765.379 3.266 -0.00445559 0
M  V30 7664 H 764.038 2.9914 -2.11921 0
M  V30 7665 H 763.686 4.98732 -0.653876 0
M  V30 7666 H 763.386 5.37873 -2.36572 0
M  V30 7667 H 764.91 5.89546 -1.58958 0
M  V30 7668 H 766.324 4.58343 -3.44376 0
M  V30 7669 H 764.721 4.30248 -4.18338 0
M  V30 7670 H 765.791 2.92463 -3.86773 0
M  V30 7671 N 767.134 1.16236 1.06428 0
M  V30 7672 C 768.066 0.825446 2.1382 0
M  V30 7673 C 769.079 -0.166707 1.61944 0
M  V30 7674 O 770.268 0.0578606 1.78406 0
M  V30 7675 C 767.368 0.208023 3.38261 0
M  V30 7676 C 766.541 1.23994 4.19457 0
M  V30 7677 C 765.6 0.642569 5.22262 0
M  V30 7678 O 764.626 1.31106 5.53895 0
M  V30 7679 N 765.828 -0.571327 5.77682 0
M  V30 7680 H 768.593 1.7497 2.43322 0
M  V30 7681 H 766.154 1.05951 1.22417 0
M  V30 7682 H 768.146 -0.204608 4.04182 0
M  V30 7683 H 766.716 -0.619752 3.06395 0
M  V30 7684 H 765.936 1.82879 3.49212 0
M  V30 7685 H 767.224 1.93638 4.70512 0
M  V30 7686 H 766.622 -1.13263 5.54245 0
M  V30 7687 H 765.179 -0.926187 6.45186 0
M  V30 7688 N 768.612 -1.24939 0.960631 0
M  V30 7689 C 769.852 -1.94565 0.626414 0
M  V30 7690 C 770.216 -1.73505 -0.822184 0
M  V30 7691 O 771.417 -2.37105 -1.26628 0
M  V30 7692 C 769.688 -3.43631 0.982462 0
M  V30 7693 S 771.247 -4.32138 0.761726 0
M  V30 7694 H 768.065 -0.672757 0.230043 0
M  V30 7695 H 770.667 -1.51464 1.23608 0
M  V30 7696 H 769.371 -3.56463 2.03377 0
M  V30 7697 H 768.902 -3.91719 0.363286 0
M  V30 7698 H 770.917 -4.94859 -0.364493 0
M  V30 7699 N 770.09 -0.729906 -1.39679 0
M  V30 7700 C 771.338 -0.275077 -2.00219 0
M  V30 7701 C 771.659 1.1401 -1.58199 0
M  V30 7702 O 770.929 1.77546 -0.827904 0
M  V30 7703 H 769.509 -0.0987127 -0.740449 0
M  V30 7704 H 772.171 -0.93873 -1.70804 0
M  V30 7705 H 771.267 -0.319446 -3.10461 0
M  V30 7706 N 771.568 1.50203 -0.477153 0
M  V30 7707 C 772.796 2.0677 0.0732489 0
M  V30 7708 C 773.211 1.34033 1.32968 0
M  V30 7709 O 772.568 0.411412 1.77802 0
M  V30 7710 C 772.619 3.59751 0.35518 0
M  V30 7711 O 772.34 4.29747 -0.851425 0
M  V30 7712 C 773.841 4.3296 0.951877 0
M  V30 7713 H 771.061 0.670929 -0.00978923 0
M  V30 7714 H 773.605 1.93293 -0.667676 0
M  V30 7715 H 771.76 3.7301 1.04605 0
M  V30 7716 H 772.174 5.2106 -0.599708 0
M  V30 7717 H 773.648 5.40952 1.09888 0
M  V30 7718 H 774.125 3.93856 1.94356 0
M  V30 7719 H 774.731 4.24246 0.299208 0
M  V30 7720 N 773.046 0.209999 1.56195 0
M  V30 7721 C 774.292 -0.425442 1.98287 0
M  V30 7722 C 774.625 -1.60232 1.09724 0
M  V30 7723 O 773.9 -1.93902 0.152414 0
M  V30 7724 C 774.183 -0.871189 3.49403 0
M  V30 7725 C 774.036 0.308527 4.48741 0
M  V30 7726 C 775.355 -1.73146 4.04609 0
M  V30 7727 H 772.474 -0.153169 0.720908 0
M  V30 7728 H 775.116 0.303916 1.87554 0
M  V30 7729 H 773.266 -1.49266 3.58681 0
M  V30 7730 H 774.938 0.946487 4.51486 0
M  V30 7731 H 773.181 0.957878 4.23092 0
M  V30 7732 H 773.852 -0.0461143 5.51981 0
M  V30 7733 H 776.328 -1.2072 3.98203 0
M  V30 7734 H 775.204 -2.01228 5.10684 0
M  V30 7735 H 775.465 -2.69083 3.5078 0
M  V30 7736 N 774.524 -1.57472 -0.0634922 0
M  V30 7737 C 775.77 -1.87932 -0.762194 0
M  V30 7738 C 776.103 -0.803377 -1.76804 0
M  V30 7739 O 775.378 0.185468 -1.93614 0
M  V30 7740 C 775.661 -3.29053 -1.46275 0
M  V30 7741 C 775.514 -4.47309 -0.472755 0
M  V30 7742 C 776.833 -3.68537 -2.40558 0
M  V30 7743 H 773.952 -0.683521 -0.275624 0
M  V30 7744 H 776.594 -1.89983 -0.0252651 0
M  V30 7745 H 774.744 -3.27435 -2.0909 0
M  V30 7746 H 776.416 -4.61053 0.150828 0
M  V30 7747 H 774.659 -4.33286 0.211187 0
M  V30 7748 H 775.33 -5.42853 -1.00072 0
M  V30 7749 H 777.806 -3.71302 -1.87814 0
M  V30 7750 H 776.682 -4.68152 -2.86574 0
M  V30 7751 H 776.943 -2.98917 -3.25731 0
M  V30 7752 N 776.003 0.335068 -1.53997 0
M  V30 7753 C 777.228 1.09859 -1.75914 0
M  V30 7754 C 777.653 1.81308 -0.500915 0
M  V30 7755 O 777.011 1.72854 0.54693 0
M  V30 7756 C 777.059 2.08122 -2.94478 0
M  V30 7757 O 776.163 3.15805 -2.65219 0
M  V30 7758 H 775.504 0.317313 -0.583274 0
M  V30 7759 H 778.034 0.382872 -2.00986 0
M  V30 7760 H 778.044 2.51195 -3.21504 0
M  V30 7761 H 776.719 1.55517 -3.8573 0
M  V30 7762 H 775.296 2.77489 -2.49107 0
M  V30 7763 N 777.481 1.45874 0.596531 0
M  V30 7764 C 778.73 1.49737 1.35135 0
M  V30 7765 C 779.043 0.147755 1.95041 0
M  V30 7766 O 780.249 0.0640984 2.71424 0
M  V30 7767 C 778.705 2.6378 2.44843 0
M  V30 7768 C 778.313 4.05102 1.91301 0
M  V30 7769 C 780.057 2.769 3.21755 0
M  V30 7770 C 777.964 5.10508 2.98557 0
M  V30 7771 H 776.894 0.557219 0.507959 0
M  V30 7772 H 779.545 1.72046 0.638147 0
M  V30 7773 H 777.927 2.34774 3.189 0
M  V30 7774 H 779.101 4.43836 1.2388 0
M  V30 7775 H 777.416 3.96528 1.271 0
M  V30 7776 H 780.013 3.52819 4.01775 0
M  V30 7777 H 780.356 1.83924 3.73467 0
M  V30 7778 H 780.889 3.05485 2.54802 0
M  V30 7779 H 777.628 6.0523 2.51749 0
M  V30 7780 H 777.148 4.76332 3.6451 0
M  V30 7781 H 778.827 5.35745 3.62748 0
M  V30 7782 N 778.959 -0.83999 1.33349 0
M  V30 7783 C 779.889 -1.965 1.26135 0
M  V30 7784 C 780.87 -1.69505 0.142152 0
M  V30 7785 O 782.055 -1.91346 0.331743 0
M  V30 7786 C 779.185 -3.32632 0.99866 0
M  V30 7787 C 778.139 -3.74021 2.08068 0
M  V30 7788 C 777.465 -5.07947 1.67014 0
M  V30 7789 C 778.765 -3.87925 3.49731 0
M  V30 7790 H 780.459 -2.02793 2.20262 0
M  V30 7791 H 778.005 -0.974297 1.06035 0
M  V30 7792 H 779.958 -4.10903 0.934696 0
M  V30 7793 H 778.682 -3.26593 0.0217759 0
M  V30 7794 H 777.341 -2.98012 2.13505 0
M  V30 7795 H 776.989 -4.98378 0.680316 0
M  V30 7796 H 776.689 -5.36611 2.39422 0
M  V30 7797 H 778.213 -5.88695 1.62082 0
M  V30 7798 H 779.627 -4.5651 3.46802 0
M  V30 7799 H 778.024 -4.28023 4.20614 0
M  V30 7800 H 779.094 -2.90407 3.88319 0
M  V30 7801 N 780.437 -1.16799 -1.0581 0
M  V30 7802 C 781.685 -0.950642 -1.78346 0
M  V30 7803 C 782.006 0.522524 -1.87869 0
M  V30 7804 O 781.276 1.3795 -1.39092 0
M  V30 7805 H 779.856 -0.348736 -0.6606 0
M  V30 7806 H 782.518 -1.47158 -1.27791 0
M  V30 7807 H 781.614 -1.37359 -2.80248 0
M  V30 7808 N 781.915 1.24427 -0.967243 0
M  V30 7809 C 783.163 1.92107 -0.627638 0
M  V30 7810 C 783.484 1.75991 0.83978 0
M  V30 7811 O 782.754 1.13118 1.59941 0
M  V30 7812 H 781.334 0.710986 -0.229145 0
M  V30 7813 H 783.996 1.51331 -1.22821 0
M  V30 7814 H 783.092 2.99791 -0.867844 0
M  V30 7815 N 783.393 0.737304 1.3929 0
M  V30 7816 C 784.356 0.10731 2.28949 0
M  V30 7817 C 785.356 -0.664716 1.46418 0
M  V30 7818 O 786.546 -0.493392 1.67067 0
M  V30 7819 C 783.678 -0.857145 3.29948 0
M  V30 7820 H 784.871 0.89725 2.86163 0
M  V30 7821 H 782.424 0.503279 1.47976 0
M  V30 7822 H 783.159 -1.67336 2.77794 0
M  V30 7823 H 782.944 -0.306167 3.90903 0
M  V30 7824 H 784.434 -1.29444 3.97031 0
M  V30 7825 N 784.871 -1.49948 0.485112 0
M  V30 7826 C 785.821 -2.25734 -0.320658 0
M  V30 7827 C 786.805 -1.29907 -0.949373 0
M  V30 7828 O 787.997 -1.54725 -0.859601 0
M  V30 7829 C 785.126 -3.13728 -1.39391 0
M  V30 7830 C 784.212 -4.1701 -0.772225 0
M  V30 7831 N 784.603 -5.05667 0.115782 0
M  V30 7832 C 782.901 -4.33834 -1.03461 0
M  V30 7833 C 783.602 -5.79798 0.47004 0
M  V30 7834 N 782.578 -5.4337 -0.158204 0
M  V30 7835 H 786.38 -2.91647 0.36319 0
M  V30 7836 H 783.894 -1.59602 0.300154 0
M  V30 7837 H 785.891 -3.66639 -1.98447 0
M  V30 7838 H 784.551 -2.49365 -2.0796 0
M  V30 7839 H 785.562 -5.15619 0.485557 0
M  V30 7840 H 782.239 -3.80684 -1.71424 0
M  V30 7841 H 783.629 -6.61177 1.19558 0
M  V30 7842 N 786.349 -0.21828 -1.56081 0
M  V30 7843 C 787.596 0.414307 -1.98216 0
M  V30 7844 C 787.924 1.60005 -1.10584 0
M  V30 7845 O 787.179 1.95124 -0.150043 0
M  V30 7846 C 787.478 0.894782 -3.46018 0
M  V30 7847 C 787.144 -0.180083 -4.5054 0
M  V30 7848 C 785.806 -0.475367 -4.78846 0
M  V30 7849 C 788.158 -0.907191 -5.13244 0
M  V30 7850 C 785.486 -1.50233 -5.67139 0
M  V30 7851 C 787.838 -1.92347 -6.02649 0
M  V30 7852 C 786.502 -2.22571 -6.293 0
M  V30 7853 H 785.772 0.151606 -0.725325 0
M  V30 7854 H 788.419 -0.320113 -1.88806 0
M  V30 7855 H 786.724 1.7079 -3.52616 0
M  V30 7856 H 788.421 1.39403 -3.75989 0
M  V30 7857 H 785.011 0.06022 -4.28558 0
M  V30 7858 H 789.195 -0.692303 -4.91448 0
M  V30 7859 H 784.451 -1.74215 -5.86054 0
M  V30 7860 H 788.625 -2.49197 -6.50288 0
M  V30 7861 H 786.252 -3.0229 -6.97513 0
M  V30 7862 N 787.827 1.57504 0.0551401 0
M  V30 7863 C 789.075 1.87684 0.74962 0
M  V30 7864 C 789.396 0.812547 1.77264 0
M  V30 7865 O 788.666 -0.15694 1.9527 0
M  V30 7866 H 787.246 0.6926 0.279846 0
M  V30 7867 H 789.908 1.94881 0.0272745 0
M  V30 7868 H 789.004 2.85734 1.25548 0
M  V30 7869 N 789.305 -0.326896 1.54172 0
M  V30 7870 C 790.215 -1.42525 1.86343 0
M  V30 7871 C 791.231 -1.56764 0.75505 0
M  V30 7872 O 792.407 -1.71924 1.04901 0
M  V30 7873 C 789.472 -2.77286 2.08119 0
M  V30 7874 C 788.533 -2.7225 3.31931 0
M  V30 7875 C 787.766 -4.00584 3.52659 0
M  V30 7876 O 787.989 -4.98686 2.76891 0
M  V30 7877 O 786.923 -4.04045 4.46129 0
M  V30 7878 H 790.749 -1.18249 2.79734 0
M  V30 7879 H 788.334 -0.520614 1.40036 0
M  V30 7880 H 790.216 -3.57065 2.23791 0
M  V30 7881 H 788.891 -3.01459 1.17917 0
M  V30 7882 H 787.798 -1.91033 3.21647 0
M  V30 7883 H 789.131 -2.53032 4.2218 0
M  V30 7884 N 790.784 -1.46188 -0.588786 0
M  V30 7885 C 792.032 -1.50885 -1.34455 0
M  V30 7886 C 792.353 -0.159555 -1.94346 0
M  V30 7887 O 791.623 0.813239 -1.78222 0
M  V30 7888 H 790.203 -0.555707 -0.499198 0
M  V30 7889 H 792.865 -1.82277 -0.690014 0
M  V30 7890 H 791.961 -2.25816 -2.15438 0
M  V30 7891 N 792.262 0.832906 -1.33792 0
M  V30 7892 C 793.21 1.96455 -1.24532 0
M  V30 7893 C 794.204 1.68774 -0.145455 0
M  V30 7894 O 795.41 1.77314 -0.309797 0
M  V30 7895 H 791.785 0.645008 -0.386611 0
M  V30 7896 H 793.756 2.01389 -2.20193 0
M  V30 7897 C 792.505 3.32784 -1.00748 0
M  V30 7898 H 791.828 3.54626 -1.84609 0
M  V30 7899 H 793.268 4.12447 -0.98301 0
M  V30 7900 C 791.727 3.35654 0.289475 0
M  V30 7901 O 792.257 3.80281 1.29419 0
M  V30 7902 N 790.463 2.88843 0.3191 0
M  V30 7903 H 790.01 2.52719 -0.499069 0
M  V30 7904 H 789.968 2.91145 1.18667 0
M  V30 7905 N 793.74 1.17359 1.05189 0
M  V30 7906 C 794.988 0.960087 1.77839 0
M  V30 7907 C 795.309 -0.512554 1.88143 0
M  V30 7908 O 794.579 -1.3721 1.39822 0
M  V30 7909 H 793.159 0.352234 0.658741 0
M  V30 7910 H 795.821 1.47834 1.27008 0
M  V30 7911 H 794.917 1.38843 2.79516 0
M  V30 7912 N 795.218 -1.23913 0.973828 0
M  V30 7913 C 796.15 -2.24397 0.466763 0
M  V30 7914 C 797.163 -1.57078 -0.427828 0
M  V30 7915 O 798.352 -1.76973 -0.233019 0
M  V30 7916 C 795.452 -3.37141 -0.344798 0
M  V30 7917 C 794.625 -4.34037 0.541349 0
M  V30 7918 C 793.684 -5.2576 -0.215243 0
M  V30 7919 O 792.71 -5.67842 0.39291 0
M  V30 7920 N 793.912 -5.60702 -1.5031 0
M  V30 7921 H 796.677 -2.68536 1.33074 0
M  V30 7922 H 794.238 -1.38017 0.846346 0
M  V30 7923 H 796.23 -3.95476 -0.859133 0
M  V30 7924 H 794.8 -2.92239 -1.10974 0
M  V30 7925 H 794.02 -3.74302 1.23659 0
M  V30 7926 H 795.308 -4.95738 1.1455 0
M  V30 7927 H 794.706 -5.28451 -2.01882 0
M  V30 7928 H 793.263 -6.21538 -1.96301 0
M  V30 7929 N 796.696 -0.74468 -1.38897 0
M  V30 7930 C 797.945 -0.293716 -1.9955 0
M  V30 7931 C 798.258 1.12831 -1.59777 0
M  V30 7932 O 799.464 1.67929 -2.13336 0
M  V30 7933 C 797.92 -0.474188 -3.56762 0
M  V30 7934 C 797.528 -1.90472 -4.05493 0
M  V30 7935 C 799.272 -0.0854875 -4.24414 0
M  V30 7936 C 797.179 -2.03423 -5.55314 0
M  V30 7937 H 796.109 -0.106066 -0.746502 0
M  V30 7938 H 798.76 -0.919948 -1.58774 0
M  V30 7939 H 797.142 0.221092 -3.95382 0
M  V30 7940 H 798.316 -2.63274 -3.78184 0
M  V30 7941 H 796.631 -2.24752 -3.50536 0
M  V30 7942 H 799.228 -0.161133 -5.34457 0
M  V30 7943 H 799.571 0.96066 -4.05064 0
M  V30 7944 H 800.104 -0.732286 -3.91002 0
M  V30 7945 H 796.843 -3.0626 -5.79556 0
M  V30 7946 H 796.363 -1.3507 -5.84394 0
M  V30 7947 H 798.042 -1.81996 -6.20876 0
M  V30 7948 N 798.174 1.49689 -0.493057 0
M  V30 7949 C 799.42 2.03347 0.0463792 0
M  V30 7950 C 799.775 1.36671 1.35421 0
M  V30 7951 O 799.068 0.4907 1.8521 0
M  V30 7952 C 799.262 3.56427 0.263536 0
M  V30 7953 C 799.091 4.3794 -1.02169 0
M  V30 7954 C 797.861 4.8025 -1.57125 0
M  V30 7955 C 800.059 4.77 -1.9229 0
M  V30 7956 N 798.041 5.46162 -2.80321 0
M  V30 7957 C 799.412 5.42549 -3.00067 0
M  V30 7958 C 801.467 4.58945 -1.93064 0
M  V30 7959 C 800.17 5.91954 -4.08635 0
M  V30 7960 C 802.196 5.09306 -3.00602 0
M  V30 7961 C 801.558 5.74849 -4.07097 0
M  V30 7962 H 797.657 0.781644 -0.0236097 0
M  V30 7963 H 800.241 1.82949 -0.666151 0
M  V30 7964 H 798.412 3.76725 0.945118 0
M  V30 7965 H 800.144 3.96729 0.79927 0
M  V30 7966 H 796.899 4.60228 -1.11746 0
M  V30 7967 H 797.323 5.83711 -3.42944 0
M  V30 7968 H 801.965 4.07685 -1.12039 0
M  V30 7969 H 799.683 6.4224 -4.90463 0
M  V30 7970 H 803.269 4.97152 -3.0221 0
M  V30 7971 H 802.149 6.13113 -4.88939 0
M  V30 7972 N 799.652 0.226554 1.55963 0
M  V30 7973 C 800.615 -0.668015 2.19249 0
M  V30 7974 C 801.615 -1.11794 1.1558 0
M  V30 7975 O 802.805 -1.02593 1.40784 0
M  V30 7976 C 799.937 -1.91571 2.81981 0
M  V30 7977 H 801.13 -0.116175 2.99675 0
M  V30 7978 H 798.683 -0.0230497 1.56283 0
M  V30 7979 H 799.418 -2.50929 2.05439 0
M  V30 7980 H 799.203 -1.6015 3.57903 0
M  V30 7981 H 800.693 -2.55294 3.30477 0
M  V30 7982 N 801.13 -1.57531 -0.0467866 0
M  V30 7983 C 802.04 -2.08768 -1.07018 0
M  V30 7984 C 803.056 -1.02245 -1.40791 0
M  V30 7985 O 804.232 -1.33873 -1.50466 0
M  V30 7986 C 801.297 -2.54221 -2.35738 0
M  V30 7987 C 800.358 -3.75152 -2.08709 0
M  V30 7988 C 799.591 -4.18428 -3.31291 0
M  V30 7989 O 799.814 -3.61365 -4.4133 0
M  V30 7990 O 798.748 -5.11018 -3.18032 0
M  V30 7991 H 802.574 -2.96334 -0.664812 0
M  V30 7992 H 800.159 -1.47074 -0.262605 0
M  V30 7993 H 802.041 -2.83866 -3.11445 0
M  V30 7994 H 800.716 -1.69774 -2.75605 0
M  V30 7995 H 799.623 -3.50553 -1.30627 0
M  V30 7996 H 800.956 -4.60528 -1.73708 0
M  V30 7997 N 802.608 0.318715 -1.54344 0
M  V30 7998 C 803.518 1.41535 -1.87097 0
M  V30 7999 C 804.534 1.56361 -0.763353 0
M  V30 8000 O 805.71 1.71365 -1.05811 0
M  V30 8001 C 802.775 2.76178 -2.09587 0
M  V30 8002 C 801.836 2.70486 -3.3337 0
M  V30 8003 C 801.069 3.98708 -3.54778 0
M  V30 8004 O 801.292 4.9721 -2.79532 0
M  V30 8005 O 800.226 4.01674 -4.48266 0
M  V30 8006 H 804.052 1.16764 -2.80357 0
M  V30 8007 H 801.637 0.51318 -1.4031 0
M  V30 8008 H 803.519 3.55873 -2.25682 0
M  V30 8009 H 802.194 3.00829 -1.19514 0
M  V30 8010 H 801.101 1.89325 -3.22656 0
M  V30 8011 H 802.434 2.50789 -4.23516 0
M  V30 8012 N 804.086 1.46499 0.581025 0
M  V30 8013 C 805.333 1.51896 1.33918 0
M  V30 8014 C 805.661 0.171361 1.93744 0
M  V30 8015 O 804.916 -0.833178 1.77078 0
M  V30 8016 C 805.215 2.56686 2.48691 0
M  V30 8017 C 804.881 4.00656 2.06847 0
M  V30 8018 C 803.543 4.39852 1.9515 0
M  V30 8019 C 805.895 4.91089 1.74589 0
M  V30 8020 C 803.223 5.67345 1.49456 0
M  V30 8021 C 805.575 6.1902 1.30373 0
M  V30 8022 C 804.239 6.57121 1.17255 0
M  V30 8023 H 803.509 0.555826 0.490039 0
M  V30 8024 H 806.156 1.79983 0.654092 0
M  V30 8025 H 804.461 2.22266 3.22653 0
M  V30 8026 H 806.158 2.58091 3.06904 0
M  V30 8027 H 802.748 3.69674 2.16886 0
M  V30 8028 H 806.932 4.61523 1.8251 0
M  V30 8029 H 802.188 5.95635 1.37944 0
M  V30 8030 H 806.362 6.8852 1.04467 0
M  V30 8031 H 803.989 7.55805 0.816236 0
M  V30 8032 N 805.565 -0.825799 1.34232 0
M  V30 8033 C 806.497 -1.94401 1.21413 0
M  V30 8034 C 807.51 -1.6218 0.141902 0
M  V30 8035 O 808.699 -1.74109 0.3935 0
M  V30 8036 C 805.799 -3.28257 0.842635 0
M  V30 8037 C 804.972 -3.88521 2.00924 0
M  V30 8038 C 804.031 -5.00752 1.61661 0
M  V30 8039 O 803.057 -5.19201 2.33279 0
M  V30 8040 N 804.259 -5.78084 0.52911 0
M  V30 8041 H 807.024 -2.05931 2.17744 0
M  V30 8042 H 804.585 -1.00223 1.27149 0
M  V30 8043 H 806.577 -4.00781 0.561822 0
M  V30 8044 H 805.147 -3.12585 -0.0304029 0
M  V30 8045 H 804.367 -3.08425 2.45495 0
M  V30 8046 H 805.655 -4.25516 2.78951 0
M  V30 8047 H 805.053 -5.65661 -0.0663322 0
M  V30 8048 H 803.61 -6.51072 0.308017 0
M  V30 8049 N 807.043 -1.17915 -1.04565 0
M  V30 8050 C 808.283 -0.982331 -1.79247 0
M  V30 8051 C 808.647 0.47998 -1.85904 0
M  V30 8052 O 809.848 0.796078 -2.56741 0
M  V30 8053 C 808.119 -1.61329 -3.18916 0
M  V30 8054 S 809.678 -1.56355 -4.09998 0
M  V30 8055 H 806.496 -0.352869 -0.617256 0
M  V30 8056 H 809.098 -1.49971 -1.25415 0
M  V30 8057 H 807.802 -2.66993 -3.11678 0
M  V30 8058 H 807.333 -1.09599 -3.77825 0
M  V30 8059 H 809.348 -0.57593 -4.92846 0
M  V30 8060 N 808.521 1.23394 -0.980386 0
M  V30 8061 C 809.431 2.28561 -0.528864 0
M  V30 8062 C 810.447 1.68946 0.416329 0
M  V30 8063 O 811.623 1.99355 0.286251 0
M  V30 8064 C 808.688 3.46323 0.16155 0
M  V30 8065 C 807.749 4.21297 -0.825044 0
M  V30 8066 C 806.982 5.33437 -0.167483 0
M  V30 8067 O 807.205 5.60812 1.04146 0
M  V30 8068 O 806.139 5.95637 -0.866047 0
M  V30 8069 H 809.965 2.69326 -1.40346 0
M  V30 8070 H 807.55 1.29325 -0.748019 0
M  V30 8071 H 809.432 4.17811 0.548841 0
M  V30 8072 H 808.107 3.0751 1.01092 0
M  V30 8073 H 807.014 3.52134 -1.26303 0
M  V30 8074 H 808.347 4.6396 -1.64322 0
M  V30 8075 N 809.999 0.752036 1.385 0
M  V30 8076 C 811.247 0.306895 1.99756 0
M  V30 8077 C 811.568 -1.11478 1.59992 0
M  V30 8078 O 810.838 -1.76206 0.856045 0
M  V30 8079 H 809.418 0.11048 0.738785 0
M  V30 8080 H 812.08 0.965785 1.69289 0
M  V30 8081 H 811.176 0.368797 3.09913 0
M  V30 8082 N 811.477 -1.49425 0.500989 0
M  V30 8083 C 812.427 -2.26061 -0.296698 0
M  V30 8084 C 813.411 -1.30906 -0.935541 0
M  V30 8085 O 814.603 -1.55628 -0.843142 0
M  V30 8086 C 811.732 -3.15189 -1.36055 0
M  V30 8087 C 810.818 -4.17806 -0.727952 0
M  V30 8088 N 811.209 -5.05516 0.169408 0
M  V30 8089 C 809.507 -4.34907 -0.988535 0
M  V30 8090 C 810.208 -5.79267 0.531509 0
M  V30 8091 N 809.184 -5.43507 -0.100564 0
M  V30 8092 H 812.986 -2.91246 0.394103 0
M  V30 8093 H 810.5 -1.59275 0.317065 0
M  V30 8094 H 812.497 -3.68724 -1.94547 0
M  V30 8095 H 811.157 -2.51556 -2.05303 0
M  V30 8096 H 812.168 -5.15075 0.540218 0
M  V30 8097 H 808.845 -3.82481 -1.67376 0
M  V30 8098 H 810.235 -6.59872 1.26564 0
M  V30 8099 N 812.955 -0.234822 -1.55841 0
M  V30 8100 C 813.865 0.680828 -2.24504 0
M  V30 8101 C 814.881 1.20306 -1.25708 0
M  V30 8102 O 816.057 1.24188 -1.58554 0
M  V30 8103 C 813.122 1.86636 -2.92178 0
M  V30 8104 C 812.183 1.3848 -4.06352 0
M  V30 8105 C 811.416 2.51382 -4.70789 0
M  V30 8106 O 811.639 3.69831 -4.34259 0
M  V30 8107 O 810.573 2.21828 -5.59532 0
M  V30 8108 H 814.399 0.12583 -3.03439 0
M  V30 8109 H 811.984 -0.00381817 -1.494 0
M  V30 8110 H 813.866 2.55845 -3.34845 0
M  V30 8111 H 812.541 2.40921 -2.16192 0
M  V30 8112 H 811.448 0.660341 -3.68226 0
M  V30 8113 H 812.781 0.888177 -4.8412 0
M  V30 8114 N 814.433 1.57553 0.0384317 0
M  V30 8115 C 815.658 1.93485 0.746872 0
M  V30 8116 C 816.083 0.834069 1.68597 0
M  V30 8117 O 815.441 -0.210902 1.80069 0
M  V30 8118 C 815.489 3.28463 1.4881 0
M  V30 8119 O 814.593 3.20051 2.60079 0
M  V30 8120 H 813.934 0.632675 0.201539 0
M  V30 8121 H 816.464 2.046 -0.00329815 0
M  V30 8122 H 816.474 3.63132 1.86009 0
M  V30 8123 H 815.149 4.08147 0.799297 0
M  V30 8124 H 813.726 2.96998 2.25492 0
M  V30 8125 N 815.911 -0.310526 1.54511 0
M  V30 8126 C 816.861 -1.38405 1.81185 0
M  V30 8127 C 817.845 -1.46355 0.668499 0
M  V30 8128 O 819.037 -1.50668 0.928873 0
M  V30 8129 C 816.166 -2.75059 2.0542 0
M  V30 8130 C 815.252 -2.7137 3.25913 0
M  V30 8131 N 815.643 -2.37298 4.4668 0
M  V30 8132 C 813.941 -3.02484 3.27749 0
M  V30 8133 C 814.642 -2.42669 5.28665 0
M  V30 8134 N 813.618 -2.79639 4.66158 0
M  V30 8135 H 817.42 -1.11012 2.72128 0
M  V30 8136 H 814.934 -0.519068 1.53881 0
M  V30 8137 H 816.931 -3.52451 2.22674 0
M  V30 8138 H 815.591 -3.03372 1.15739 0
M  V30 8139 H 816.602 -2.09917 4.73451 0
M  V30 8140 H 813.279 -3.35754 2.48144 0
M  V30 8141 H 814.669 -2.19206 6.35136 0
M  V30 8142 N 817.389 -1.46805 -0.573248 0
M  V30 8143 C 818.319 -1.60951 -1.69165 0
M  V30 8144 C 819.3 -0.45948 -1.63777 0
M  V30 8145 O 820.485 -0.68688 -1.81647 0
M  V30 8146 C 817.615 -1.60844 -3.07809 0
M  V30 8147 C 816.569 -2.74913 -3.28035 0
M  V30 8148 C 815.895 -2.59871 -4.67302 0
M  V30 8149 C 817.195 -4.16654 -3.14955 0
M  V30 8150 H 818.889 -2.54574 -1.57582 0
M  V30 8151 H 816.435 -1.22516 -0.756686 0
M  V30 8152 H 818.388 -1.69334 -3.85881 0
M  V30 8153 H 817.112 -0.637714 -3.20314 0
M  V30 8154 H 815.771 -2.65908 -2.52366 0
M  V30 8155 H 815.419 -1.60861 -4.76585 0
M  V30 8156 H 815.119 -3.36386 -4.81786 0
M  V30 8157 H 816.643 -2.70265 -5.4753 0
M  V30 8158 H 818.057 -4.26721 -3.82861 0
M  V30 8159 H 816.454 -4.93831 -3.40956 0
M  V30 8160 H 817.524 -4.36146 -2.11908 0
M  V30 8161 N 818.867 0.818669 -1.34668 0
M  V30 8162 C 820.092 1.61193 -1.30505 0
M  V30 8163 C 820.517 1.87734 0.117341 0
M  V30 8164 O 819.875 1.45591 1.08042 0
M  V30 8165 C 819.923 2.92733 -2.1057 0
M  V30 8166 O 819.027 3.85 -1.47813 0
M  V30 8167 H 818.368 0.490085 -0.44801 0
M  V30 8168 H 820.898 1.01701 -1.77534 0
M  V30 8169 H 820.908 3.42262 -2.22082 0
M  V30 8170 H 819.583 2.7274 -3.13984 0
M  V30 8171 H 818.16 3.43525 -1.45069 0
M  V30 8172 N 820.346 1.18468 1.03938 0
M  V30 8173 C 821.276 0.936389 2.13902 0
M  V30 8174 C 822.257 -0.126381 1.6963 0
M  V30 8175 O 823.442 0.0264757 1.94182 0
M  V30 8176 C 820.572 0.462729 3.44204 0
M  V30 8177 C 819.526 1.46613 4.02105 0
M  V30 8178 C 818.852 0.84994 5.27902 0
M  V30 8179 C 820.152 2.84323 4.3813 0
M  V30 8180 H 821.846 1.85602 2.3493 0
M  V30 8181 H 819.392 0.893806 1.12903 0
M  V30 8182 H 821.345 0.276382 4.20493 0
M  V30 8183 H 820.069 -0.492477 3.22866 0
M  V30 8184 H 818.728 1.63944 3.27899 0
M  V30 8185 H 818.376 -0.112493 5.02874 0
M  V30 8186 H 818.076 1.51988 5.67603 0
M  V30 8187 H 819.6 0.674152 6.06867 0
M  V30 8188 H 821.014 2.70636 5.054 0
M  V30 8189 H 819.411 3.48012 4.88884 0
M  V30 8190 H 820.481 3.37776 3.47901 0
M  V30 8191 N 821.824 -1.22873 0.986916 0
M  V30 8192 C 823.064 -1.93192 0.667543 0
M  V30 8193 C 823.428 -1.7521 -0.785196 0
M  V30 8194 O 824.629 -2.39737 -1.2157 0
M  V30 8195 C 822.9 -3.4147 1.05513 0
M  V30 8196 S 824.459 -4.30425 0.853218 0
M  V30 8197 H 821.277 -0.667726 0.244261 0
M  V30 8198 H 823.879 -1.48808 1.26793 0
M  V30 8199 H 822.583 -3.52069 2.10892 0
M  V30 8200 H 822.114 -3.9086 0.446293 0
M  V30 8201 H 824.129 -4.95521 -0.259444 0
M  V30 8202 N 823.302 -0.75937 -1.38099 0
M  V30 8203 C 824.713 -0.385078 -1.82686 0
M  V30 8204 C 825.064 1.0871 -1.6333 0
M  V30 8205 O 824.189 1.84084 -1.13762 0
M  V30 8206 C 824.784 -0.692161 -3.31654 0
M  V30 8207 C 823.343 -0.371077 -3.74566 0
M  V30 8208 C 822.49 -0.942375 -2.60796 0
M  V30 8209 H 825.441 -0.955048 -1.26746 0
M  V30 8210 H 825.462 0.0276001 -3.8049 0
M  V30 8211 H 824.974 -1.76369 -3.4571 0
M  V30 8212 H 823.075 0.693637 -3.66087 0
M  V30 8213 H 823.188 -0.870672 -4.71122 0
M  V30 8214 H 821.552 -0.367383 -2.52036 0
M  V30 8215 H 822.335 -2.01905 -2.77649 0
M  V30 8216 N 824.78 1.49157 -0.508906 0
M  V30 8217 C 826.026 2.02773 0.0328469 0
M  V30 8218 C 826.359 1.38714 1.35912 0
M  V30 8219 O 825.634 0.525536 1.87266 0
M  V30 8220 C 825.917 3.59664 0.177088 0
M  V30 8221 C 825.77 4.34239 -1.17287 0
M  V30 8222 C 827.089 4.30505 0.913977 0
M  V30 8223 H 824.208 0.736926 0.0104631 0
M  V30 8224 H 826.85 1.781 -0.661851 0
M  V30 8225 H 825 3.80818 0.768774 0
M  V30 8226 H 826.672 4.24561 -1.80404 0
M  V30 8227 H 824.915 3.96486 -1.76016 0
M  V30 8228 H 825.586 5.42397 -1.02516 0
M  V30 8229 H 828.062 4.14054 0.412084 0
M  V30 8230 H 826.938 5.40012 0.983759 0
M  V30 8231 H 827.199 3.96302 1.95951 0
M  V30 8232 N 826.258 0.243083 1.55714 0
M  V30 8233 C 827.221 -0.644723 2.19945 0
M  V30 8234 C 828.221 -1.10562 1.16759 0
M  V30 8235 O 829.411 -1.01095 1.41865 0
M  V30 8236 C 826.543 -1.88569 2.83997 0
M  V30 8237 H 827.736 -0.0843839 2.99781 0
M  V30 8238 H 825.289 -0.00647246 1.56299 0
M  V30 8239 H 826.024 -2.48736 2.08089 0
M  V30 8240 H 825.809 -1.56345 3.59581 0
M  V30 8241 H 827.299 -2.51774 3.33166 0
M  V30 8242 N 827.736 -1.57571 -0.0300757 0
M  V30 8243 C 829.147 -1.77567 -0.576802 0
M  V30 8244 C 829.498 -0.874034 -1.75656 0
M  V30 8245 O 828.623 -0.0686124 -2.16291 0
M  V30 8246 C 829.218 -3.22016 -1.05315 0
M  V30 8247 C 827.777 -3.43212 -1.5454 0
M  V30 8248 C 826.924 -2.73061 -0.483033 0
M  V30 8249 H 829.875 -1.57483 0.196151 0
M  V30 8250 H 829.896 -3.28474 -1.92055 0
M  V30 8251 H 829.408 -3.87613 -0.194298 0
M  V30 8252 H 827.509 -2.82788 -2.42615 0
M  V30 8253 H 827.622 -4.5182 -1.5936 0
M  V30 8254 H 825.986 -2.36805 -0.937835 0
M  V30 8255 H 826.769 -3.4134 0.366341 0
M  V30 8256 N 829.214 0.302327 -1.54673 0
M  V30 8257 C 830.63 0.647911 -1.45857 0
M  V30 8258 C 830.83 1.90773 -0.64869 0
M  V30 8259 O 829.886 2.52018 -0.155865 0
M  V30 8260 C 831.199 0.802144 -2.89804 0
M  V30 8261 C 832.747 0.898114 -2.99838 0
M  V30 8262 C 833.222 1.08436 -4.44978 0
M  V30 8263 N 834.713 1.15059 -4.48682 0
M  V30 8264 C 835.448 1.31296 -5.58166 0
M  V30 8265 N 834.944 1.4444 -6.77576 0
M  V30 8266 N 836.737 1.34174 -5.45851 0
M  V30 8267 H 828.888 -0.525428 -2.05798 0
M  V30 8268 H 831.151 -0.173423 -0.932002 0
M  V30 8269 H 830.857 -0.0526531 -3.51661 0
M  V30 8270 H 830.731 1.69155 -3.37145 0
M  V30 8271 H 833.118 1.7434 -2.38096 0
M  V30 8272 H 833.199 -0.0152752 -2.55795 0
M  V30 8273 H 832.843 0.243843 -5.07314 0
M  V30 8274 H 832.773 2.01195 -4.8665 0
M  V30 8275 H 835.264 1.0626 -3.62653 0
M  V30 8276 H 835.577 1.56582 -7.56771 0
M  V30 8277 H 833.922 1.41499 -6.80443 0
M  V30 8278 H 837.113 1.23516 -4.5151 0
M  V30 8279 H 837.286 1.46485 -6.31226 0
M  V30 8280 N 830.692 1.47107 0.565454 0
M  V30 8281 C 832.103 1.47266 1.1476 0
M  V30 8282 C 832.454 0.222841 1.9493 0
M  V30 8283 O 831.579 -0.672862 2.05673 0
M  V30 8284 C 832.174 2.66822 2.08785 0
M  V30 8285 C 830.733 2.69967 2.62288 0
M  V30 8286 C 829.88 2.40236 1.38499 0
M  V30 8287 H 832.831 1.54736 0.352479 0
M  V30 8288 H 832.852 2.43323 2.92531 0
M  V30 8289 H 832.364 3.5777 1.50408 0
M  V30 8290 H 830.465 1.83137 3.24487 0
M  V30 8291 H 830.578 3.70426 3.03845 0
M  V30 8292 H 828.942 1.90648 1.68895 0
M  V30 8293 H 829.725 3.33381 0.819274 0
M  V30 8294 N 832.17 -0.811516 1.35101 0
M  V30 8295 C 833.08 -1.95475 1.29718 0
M  V30 8296 C 834.096 -1.72813 0.202909 0
M  V30 8297 O 835.272 -1.96725 0.431414 0
M  V30 8298 C 832.337 -3.29975 1.06385 0
M  V30 8299 C 831.398 -3.65566 2.25077 0
M  V30 8300 C 830.631 -4.93648 2.02848 0
M  V30 8301 O 830.854 -5.617 0.992442 0
M  V30 8302 O 829.788 -5.27384 2.90087 0
M  V30 8303 H 833.614 -2.02961 2.25921 0
M  V30 8304 H 831.199 -0.948583 1.15422 0
M  V30 8305 H 833.081 -4.10506 0.951999 0
M  V30 8306 H 831.756 -3.2343 0.132294 0
M  V30 8307 H 830.663 -2.85432 2.41825 0
M  V30 8308 H 831.996 -3.7681 3.16662 0
M  V30 8309 N 833.648 -1.19017 -1.03309 0
M  V30 8310 C 834.896 -0.988258 -1.76289 0
M  V30 8311 C 835.217 0.482557 -1.88935 0
M  V30 8312 O 834.487 1.34969 -1.41987 0
M  V30 8313 H 833.067 -0.36267 -0.653054 0
M  V30 8314 H 835.729 -1.49836 -1.2464 0
M  V30 8315 H 834.825 -1.43273 -2.77271 0
M  V30 8316 N 835.127 1.22348 -0.993418 0
M  V30 8317 C 836.355 1.95125 -0.688021 0
M  V30 8318 C 836.77 1.73377 0.747388 0
M  V30 8319 O 836.127 1.03317 1.50439 0
M  V30 8320 C 836.178 3.47819 -0.985097 0
M  V30 8321 O 835.899 3.68838 -2.3641 0
M  V30 8322 C 837.4 4.37779 -0.697474 0
M  V30 8323 H 834.62 0.62087 -0.254481 0
M  V30 8324 H 837.164 1.55485 -1.32833 0
M  V30 8325 H 835.319 3.85426 -0.390583 0
M  V30 8326 H 835.733 4.63032 -2.46377 0
M  V30 8327 H 837.207 5.43666 -0.955604 0
M  V30 8328 H 837.684 4.37651 0.368524 0
M  V30 8329 H 838.29 4.05799 -1.27306 0
M  V30 8330 N 836.605 0.766683 1.37694 0
M  V30 8331 C 837.845 0.333815 2.01656 0
M  V30 8332 C 838.209 -1.06813 1.59546 0
M  V30 8333 O 839.41 -1.60084 2.15932 0
M  V30 8334 C 837.681 0.467032 3.54335 0
M  V30 8335 S 839.24 0.118679 4.38639 0
M  V30 8336 H 836.058 0.128723 0.699251 0
M  V30 8337 H 838.66 1.00018 1.67978 0
M  V30 8338 H 837.364 1.48808 3.82471 0
M  V30 8339 H 836.895 -0.216066 3.92806 0
M  V30 8340 H 838.91 -1.08746 4.84137 0
M  V30 8341 N 838.083 -1.48885 0.516809 0
M  V30 8342 C 839.308 -2.0739 -0.0205201 0
M  V30 8343 C 839.733 -1.37259 -1.28614 0
M  V30 8344 O 839.091 -0.434304 -1.76021 0
M  V30 8345 C 839.139 -3.59793 -0.24104 0
M  V30 8346 O 838.243 -3.90957 -1.31251 0
M  V30 8347 H 837.584 -0.663167 0.0332564 0
M  V30 8348 H 840.114 -1.91477 0.720956 0
M  V30 8349 H 840.124 -4.0531 -0.467737 0
M  V30 8350 H 838.799 -4.10244 0.68356 0
M  V30 8351 H 837.376 -3.57234 -1.06951 0
M  V30 8352 N 839.561 -0.251338 -1.55583 0
M  V30 8353 C 840.511 0.660351 -2.18228 0
M  V30 8354 C 841.495 1.13596 -1.13951 0
M  V30 8355 O 842.687 1.08499 -1.39846 0
M  V30 8356 C 839.816 1.85498 -2.88869 0
M  V30 8357 C 838.902 1.39767 -4.00407 0
M  V30 8358 N 839.293 0.654876 -5.01543 0
M  V30 8359 C 837.591 1.68259 -4.13044 0
M  V30 8360 C 838.292 0.417521 -5.802 0
M  V30 8361 N 837.268 0.983032 -5.34638 0
M  V30 8362 H 841.07 0.0847425 -2.93778 0
M  V30 8363 H 838.584 -0.0538456 -1.62311 0
M  V30 8364 H 840.581 2.51916 -3.3218 0
M  V30 8365 H 839.241 2.43477 -2.14823 0
M  V30 8366 H 840.252 0.304545 -5.17004 0
M  V30 8367 H 836.929 2.27344 -3.50172 0
M  V30 8368 H 838.319 -0.175764 -6.7167 0
M  V30 8369 N 841.039 1.57585 0.0217189 0
M  V30 8370 C 842.264 1.94267 0.726309 0
M  V30 8371 C 842.689 0.851904 1.67703 0
M  V30 8372 O 842.047 -0.191792 1.80283 0
M  V30 8373 C 842.095 3.30023 1.45318 0
M  V30 8374 O 841.199 3.22791 2.5667 0
M  V30 8375 H 840.54 0.634777 0.194818 0
M  V30 8376 H 843.07 2.04585 -0.0249985 0
M  V30 8377 H 843.08 3.65084 1.82147 0
M  V30 8378 H 841.755 4.08972 0.755962 0
M  V30 8379 H 840.332 2.99373 2.2233 0
M  V30 8380 N 842.517 -0.29412 1.54831 0
M  V30 8381 C 843.933 -0.640167 1.46199 0
M  V30 8382 C 844.133 -1.90426 0.658798 0
M  V30 8383 O 843.189 -2.51932 0.169228 0
M  V30 8384 C 844.502 -0.786763 2.90225 0
M  V30 8385 C 846.05 -0.882201 3.0031 0
M  V30 8386 C 846.525 -1.06074 4.45547 0
M  V30 8387 N 848.016 -1.12678 4.49286 0
M  V30 8388 C 848.751 -1.28334 5.58854 0
M  V30 8389 N 848.247 -1.40845 6.78332 0
M  V30 8390 N 850.04 -1.31277 5.46555 0
M  V30 8391 H 842.191 0.536334 2.05517 0
M  V30 8392 H 844.454 0.178363 0.93107 0
M  V30 8393 H 844.16 0.0713018 3.51628 0
M  V30 8394 H 844.034 -1.67364 3.38037 0
M  V30 8395 H 846.421 -1.73075 2.39017 0
M  V30 8396 H 846.502 0.0288405 2.55784 0
M  V30 8397 H 846.146 -0.216935 5.07437 0
M  V30 8398 H 846.076 -1.98611 4.8771 0
M  V30 8399 H 848.567 -1.04335 3.63212 0
M  V30 8400 H 848.88 -1.52566 7.57591 0
M  V30 8401 H 847.225 -1.37888 6.81184 0
M  V30 8402 H 850.416 -1.2112 4.52159 0
M  V30 8403 H 850.589 -1.43136 6.31994 0
M  V30 8404 N 843.995 -1.47404 -0.557645 0
M  V30 8405 C 845.272 -1.44488 -1.31843 0
M  V30 8406 C 845.652 -0.1416 -2.10625 0
M  V30 8407 O 845 0.876908 -2.11004 0
M  V30 8408 C 845.21 -2.69016 -2.22331 0
M  V30 8409 C 846.558 -3.16212 -2.83364 0
M  V30 8410 O 847.582 -2.69741 -2.32634 0
M  V30 8411 O 846.441 -3.96999 -3.75571 0
M  V30 8412 H 843.535 -0.57578 -0.593639 0
M  V30 8413 H 846.081 -1.59605 -0.576584 0
M  V30 8414 H 844.853 -3.55406 -1.63715 0
M  V30 8415 H 844.476 -2.56484 -3.03812 0
M  V30 8416 N 845.473 0.80434 -1.35529 0
M  V30 8417 C 846.719 1.56385 -1.29118 0
M  V30 8418 C 847.052 1.9374 0.133536 0
M  V30 8419 O 846.327 1.6153 1.08344 0
M  V30 8420 C 846.61 2.85097 -2.19981 0
M  V30 8421 C 846.463 2.54204 -3.7108 0
M  V30 8422 C 847.782 3.86817 -2.09907 0
M  V30 8423 H 844.901 0.567382 -0.470368 0
M  V30 8424 H 847.543 0.925235 -1.6595 0
M  V30 8425 H 845.693 3.39594 -1.88701 0
M  V30 8426 H 847.365 2.05872 -4.12813 0
M  V30 8427 H 845.608 1.87364 -3.91251 0
M  V30 8428 H 846.279 3.46068 -4.30048 0
M  V30 8429 H 848.755 3.41725 -2.37409 0
M  V30 8430 H 847.631 4.7465 -2.75678 0
M  V30 8431 H 847.892 4.28663 -1.08171 0
M  V30 8432 N 846.951 1.19563 1.02676 0
M  V30 8433 C 848.199 0.997593 1.75763 0
M  V30 8434 C 848.52 -0.47253 1.89188 0
M  V30 8435 O 847.79 -1.34214 1.42701 0
M  V30 8436 H 846.37 0.366128 0.651122 0
M  V30 8437 H 849.032 1.50495 1.23844 0
M  V30 8438 H 848.128 1.44741 2.76508 0
M  V30 8439 N 848.429 -1.21819 0.999893 0
M  V30 8440 C 849.675 -1.91035 0.680701 0
M  V30 8441 C 850.008 -1.77582 -0.786021 0
M  V30 8442 O 849.283 -1.14917 -1.56921 0
M  V30 8443 C 849.566 -3.43013 1.0961 0
M  V30 8444 C 849.419 -3.65481 2.6219 0
M  V30 8445 C 850.738 -4.35204 0.654616 0
M  V30 8446 H 847.857 -0.693748 0.248763 0
M  V30 8447 H 850.499 -1.43555 1.24466 0
M  V30 8448 H 848.649 -3.83581 0.616253 0
M  V30 8449 H 850.321 -3.34273 3.17899 0
M  V30 8450 H 848.564 -3.09522 3.03938 0
M  V30 8451 H 849.235 -4.71945 2.86307 0
M  V30 8452 H 851.711 -4.0219 1.06688 0
M  V30 8453 H 850.587 -5.40198 0.973492 0
M  V30 8454 H 850.848 -4.3986 -0.444458 0
M  V30 8455 N 849.908 -0.773975 -1.37286 0
M  V30 8456 C 851.154 -0.339809 -1.99933 0
M  V30 8457 C 851.487 1.0815 -1.61299 0
M  V30 8458 O 850.762 1.74442 -0.860252 0
M  V30 8459 C 851.045 -0.485919 -3.56806 0
M  V30 8460 C 850.898 -1.9498 -4.05343 0
M  V30 8461 C 852.217 0.108461 -4.39966 0
M  V30 8462 H 849.336 -0.124944 -0.726332 0
M  V30 8463 H 851.978 -0.977433 -1.6293 0
M  V30 8464 H 850.128 0.0569023 -3.88458 0
M  V30 8465 H 851.8 -2.5525 -3.84246 0
M  V30 8466 H 850.043 -2.45784 -3.57453 0
M  V30 8467 H 850.714 -2.00308 -5.14374 0
M  V30 8468 H 853.19 -0.354722 -4.14585 0
M  V30 8469 H 852.066 -0.0238926 -5.48895 0
M  V30 8470 H 852.327 1.19901 -4.25531 0
M  V30 8471 N 851.386 1.48609 -0.524698 0
M  V30 8472 C 852.626 2.04398 0.00938367 0
M  V30 8473 C 852.99 1.39355 1.32077 0
M  V30 8474 O 854.191 1.86 1.94055 0
M  V30 8475 C 852.462 3.57148 0.134318 0
M  V30 8476 S 854.021 4.34409 0.619227 0
M  V30 8477 H 850.839 0.710936 -0.00953362 0
M  V30 8478 H 853.441 1.82382 -0.704058 0
M  V30 8479 H 852.145 4.02022 -0.825027 0
M  V30 8480 H 851.676 3.83607 0.872296 0
M  V30 8481 H 853.691 4.59017 1.88462 0
M  V30 8482 N 852.864 0.259585 1.55447 0
M  V30 8483 C 854.089 -0.368317 2.04103 0
M  V30 8484 C 854.514 -1.49827 1.13725 0
M  V30 8485 O 853.872 -1.80814 0.132705 0
M  V30 8486 C 853.92 -0.841506 3.50644 0
M  V30 8487 O 853.024 -1.95008 3.63381 0
M  V30 8488 H 852.365 -0.0785227 0.659341 0
M  V30 8489 H 854.895 0.389349 2.00861 0
M  V30 8490 H 854.905 -1.14138 3.9171 0
M  V30 8491 H 853.58 -0.0147001 4.15897 0
M  V30 8492 H 852.157 -1.65393 3.34215 0
M  V30 8493 N 854.342 -1.57594 -0.0133615 0
M  V30 8494 C 855.758 -1.5527 -0.369255 0
M  V30 8495 C 855.958 -0.987751 -1.7563 0
M  V30 8496 O 855.014 -0.615683 -2.44879 0
M  V30 8497 C 856.327 -2.99602 -0.25672 0
M  V30 8498 C 857.875 -3.11227 -0.332647 0
M  V30 8499 C 858.35 -4.57321 -0.249387 0
M  V30 8500 N 859.841 -4.62177 -0.3077 0
M  V30 8501 C 860.576 -5.72781 -0.26641 0
M  V30 8502 N 860.072 -6.92575 -0.176494 0
M  V30 8503 N 861.865 -5.61204 -0.317295 0
M  V30 8504 H 854.016 -1.92662 0.894154 0
M  V30 8505 H 856.279 -0.884352 0.341505 0
M  V30 8506 H 855.985 -3.44723 0.697072 0
M  V30 8507 H 855.859 -3.6246 -1.04415 0
M  V30 8508 H 858.246 -2.66045 -1.27688 0
M  V30 8509 H 858.327 -2.51171 0.484412 0
M  V30 8510 H 857.971 -5.03174 0.691242 0
M  V30 8511 H 857.901 -5.15306 -1.08476 0
M  V30 8512 H 860.392 -3.75994 -0.379069 0
M  V30 8513 H 860.705 -7.72653 -0.150518 0
M  V30 8514 H 859.05 -6.94854 -0.142314 0
M  V30 8515 H 862.241 -4.66509 -0.385643 0
M  V30 8516 H 862.414 -6.47388 -0.28165 0
M  V30 8517 N 855.82 0.285905 -1.54985 0
M  V30 8518 C 857.05 1.03626 -1.78732 0
M  V30 8519 C 857.458 1.80896 -0.554377 0
M  V30 8520 O 856.801 1.77161 0.48578 0
M  V30 8521 C 856.863 2.05185 -2.95193 0
M  V30 8522 C 856.527 1.46973 -4.32722 0
M  V30 8523 C 857.524 0.891986 -5.12191 0
M  V30 8524 C 855.209 1.50081 -4.79355 0
M  V30 8525 C 857.203 0.353078 -6.36421 0
M  V30 8526 C 854.89 0.958037 -6.03544 0
M  V30 8527 C 855.888 0.385157 -6.81913 0
M  V30 8528 O 855.576 -0.149341 -8.03761 0
M  V30 8529 H 855.308 0.312416 -0.599477 0
M  V30 8530 H 857.862 0.326067 -2.02795 0
M  V30 8531 H 856.092 2.79928 -2.66791 0
M  V30 8532 H 857.781 2.66244 -3.0638 0
M  V30 8533 H 858.547 0.860762 -4.77301 0
M  V30 8534 H 854.426 1.9361 -4.18373 0
M  V30 8535 H 857.97 -0.0947181 -6.97536 0
M  V30 8536 H 853.867 0.986458 -6.37918 0
M  V30 8537 H 854.635 -0.0374719 -8.18491 0
M  V30 8538 N 857.298 1.47698 0.54982 0
M  V30 8539 C 858.526 1.5833 1.33188 0
M  V30 8540 C 858.941 0.236193 1.87317 0
M  V30 8541 O 858.298 -0.77167 1.65383 0
M  V30 8542 C 858.349 2.61438 2.49664 0
M  V30 8543 O 858.07 3.9092 1.97771 0
M  V30 8544 C 859.571 2.82324 3.41772 0
M  V30 8545 H 856.791 0.53443 0.405741 0
M  V30 8546 H 859.335 1.93375 0.665309 0
M  V30 8547 H 857.49 2.29307 3.12245 0
M  V30 8548 H 857.904 4.47323 2.73866 0
M  V30 8549 H 859.378 3.58316 4.19897 0
M  V30 8550 H 859.855 1.90416 3.95776 0
M  V30 8551 H 860.461 3.15682 2.85 0
M  V30 8552 N 858.776 -0.797141 1.35954 0
M  V30 8553 C 859.686 -1.94088 1.31784 0
M  V30 8554 C 860.702 -1.72588 0.221227 0
M  V30 8555 O 861.878 -1.96256 0.452255 0
M  V30 8556 C 858.943 -3.28828 1.09878 0
M  V30 8557 C 858.004 -3.63158 2.28942 0
M  V30 8558 C 857.237 -4.91469 2.08072 0
M  V30 8559 O 857.46 -5.60616 1.05196 0
M  V30 8560 O 856.394 -5.24277 2.95664 0
M  V30 8561 H 860.22 -2.00554 2.28061 0
M  V30 8562 H 857.805 -0.936288 1.16422 0
M  V30 8563 H 859.687 -4.09473 0.995485 0
M  V30 8564 H 858.362 -3.23271 0.16659 0
M  V30 8565 H 857.269 -2.82851 2.44839 0
M  V30 8566 H 858.602 -3.7343 3.20641 0
M  V30 8567 N 860.254 -1.20106 -1.0204 0
M  V30 8568 C 861.503 -1.00316 -1.74985 0
M  V30 8569 C 861.816 0.465814 -1.89972 0
M  V30 8570 O 863.022 0.782749 -2.59972 0
M  V30 8571 C 861.478 -1.74608 -3.14706 0
M  V30 8572 C 861.086 -3.25573 -3.07744 0
M  V30 8573 C 862.83 -1.63172 -3.91887 0
M  V30 8574 C 860.737 -3.92419 -4.42449 0
M  V30 8575 H 859.667 -0.371728 -0.655999 0
M  V30 8576 H 862.318 -1.43688 -1.14131 0
M  V30 8577 H 860.7 -1.24021 -3.76078 0
M  V30 8578 H 861.874 -3.83345 -2.55702 0
M  V30 8579 H 860.189 -3.3738 -2.44057 0
M  V30 8580 H 862.786 -2.10457 -4.9154 0
M  V30 8581 H 863.129 -0.58728 -4.12137 0
M  V30 8582 H 863.662 -2.11152 -3.37135 0
M  V30 8583 H 860.401 -4.96998 -4.27403 0
M  V30 8584 H 859.921 -3.39436 -4.94513 0
M  V30 8585 H 861.6 -3.96453 -5.11306 0
M  V30 8586 N 861.732 1.21287 -1.00634 0
M  V30 8587 C 863.148 1.42467 -0.719389 0
M  V30 8588 C 863.348 1.88767 0.704927 0
M  V30 8589 O 862.404 2.05004 1.47409 0
M  V30 8590 C 863.717 2.455 -1.73639 0
M  V30 8591 C 865.265 2.59281 -1.75335 0
M  V30 8592 C 865.74 3.65547 -2.75934 0
M  V30 8593 N 867.231 3.73019 -2.74611 0
M  V30 8594 C 867.966 4.54873 -3.4911 0
M  V30 8595 N 867.462 5.40614 -4.33253 0
M  V30 8596 N 869.255 4.49309 -3.37754 0
M  V30 8597 H 861.406 0.895454 -1.92602 0
M  V30 8598 H 863.669 0.455491 -0.831404 0
M  V30 8599 H 863.375 2.18455 -2.75627 0
M  V30 8600 H 863.249 3.44325 -1.54014 0
M  V30 8601 H 865.636 2.85661 -0.740377 0
M  V30 8602 H 865.717 1.60685 -1.99032 0
M  V30 8603 H 865.361 3.39911 -3.77389 0
M  V30 8604 H 865.291 4.63741 -2.49503 0
M  V30 8605 H 867.782 3.11766 -2.13565 0
M  V30 8606 H 868.095 6.0013 -4.86892 0
M  V30 8607 H 866.44 5.40151 -4.37335 0
M  V30 8608 H 869.631 3.81357 -2.71449 0
M  V30 8609 H 869.804 5.12867 -3.9607 0
M  V30 8610 N 863.21 0.781244 1.36873 0
M  V30 8611 C 864.14 0.188128 2.32741 0
M  V30 8612 C 865.121 -0.672326 1.56249 0
M  V30 8613 O 866.306 -0.607835 1.84442 0
M  V30 8614 C 863.436 -0.684341 3.40491 0
M  V30 8615 C 862.39 0.0755641 4.27933 0
M  V30 8616 C 861.716 -0.916968 5.26779 0
M  V30 8617 C 863.016 1.26006 5.06873 0
M  V30 8618 H 864.71 0.989016 2.82593 0
M  V30 8619 H 862.256 0.477038 1.35869 0
M  V30 8620 H 864.209 -1.10915 4.06541 0
M  V30 8621 H 862.933 -1.51785 2.89187 0
M  V30 8622 H 861.592 0.481258 3.63427 0
M  V30 8623 H 861.24 -1.74528 4.71751 0
M  V30 8624 H 860.94 -0.413 5.86147 0
M  V30 8625 H 862.464 -1.34052 5.95703 0
M  V30 8626 H 863.878 0.911425 5.66009 0
M  V30 8627 H 862.275 1.69676 5.75613 0
M  V30 8628 H 863.345 2.05948 4.38991 0
M  V30 8629 N 864.689 -1.48329 0.532571 0
M  V30 8630 C 865.935 -2.028 -0.000583219 0
M  V30 8631 C 866.268 -1.40858 -1.33688 0
M  V30 8632 O 865.543 -0.555261 -1.86406 0
M  V30 8633 C 865.826 -3.59901 -0.119846 0
M  V30 8634 C 865.679 -4.32318 1.2418 0
M  V30 8635 C 866.998 -4.31904 -0.845372 0
M  V30 8636 H 864.117 -0.736999 0.00126205 0
M  V30 8637 H 866.759 -1.77024 0.690102 0
M  V30 8638 H 864.909 -3.81993 -0.708092 0
M  V30 8639 H 866.581 -4.21637 1.87136 0
M  V30 8640 H 864.824 -3.93635 1.82301 0
M  V30 8641 H 865.495 -5.40697 1.11132 0
M  V30 8642 H 867.971 -4.14658 -0.346159 0
M  V30 8643 H 866.847 -5.41509 -0.897723 0
M  V30 8644 H 867.108 -3.99369 -1.89622 0
M  V30 8645 N 866.167 -0.267825 -1.55308 0
M  V30 8646 C 867.115 0.638848 -2.23655 0
M  V30 8647 C 868.109 1.16363 -1.2311 0
M  V30 8648 O 869.315 1.1181 -1.41062 0
M  V30 8649 H 865.69 0.224551 -0.717691 0
M  V30 8650 H 867.661 0.0394809 -2.98374 0
M  V30 8651 C 866.41 1.8151 -2.96562 0
M  V30 8652 H 865.733 1.42048 -3.73715 0
M  V30 8653 H 867.173 2.42629 -3.47717 0
M  V30 8654 C 865.632 2.69911 -2.01618 0
M  V30 8655 O 866.162 3.70058 -1.56268 0
M  V30 8656 N 864.368 2.36924 -1.68272 0
M  V30 8657 H 863.915 1.55533 -2.05347 0
M  V30 8658 H 863.873 2.96343 -1.05016 0
M  V30 8659 N 867.645 1.57599 0.00500368 0
M  V30 8660 C 868.893 1.89973 0.68953 0
M  V30 8661 C 869.214 0.868531 1.7459 0
M  V30 8662 O 868.484 -0.0947367 1.95671 0
M  V30 8663 H 867.064 0.701153 0.25767 0
M  V30 8664 H 869.726 1.94869 -0.0347392 0
M  V30 8665 H 868.822 2.89584 1.16394 0
M  V30 8666 N 869.123 -0.277682 1.55134 0
M  V30 8667 C 870.07 -1.34313 1.87693 0
M  V30 8668 C 871.04 -1.49298 0.727973 0
M  V30 8669 O 872.225 -1.6378 0.978807 0
M  V30 8670 C 869.365 -2.69922 2.15026 0
M  V30 8671 C 868.478 -2.63197 3.42565 0
M  V30 8672 C 867.613 -3.90955 3.59622 0
M  V30 8673 C 866.652 -3.78722 4.8087 0
M  V30 8674 N 865.789 -4.98303 4.94609 0
M  V30 8675 H 870.629 -1.05847 2.78569 0
M  V30 8676 H 868.166 -0.511469 1.37922 0
M  V30 8677 H 870.124 -3.48817 2.28872 0
M  V30 8678 H 868.754 -2.966 1.2739 0
M  V30 8679 H 867.806 -1.76038 3.37216 0
M  V30 8680 H 869.118 -2.50056 4.31594 0
M  V30 8681 H 868.272 -4.78291 3.7326 0
M  V30 8682 H 867.011 -4.06957 2.6877 0
M  V30 8683 H 866.016 -2.89769 4.67241 0
M  V30 8684 H 867.241 -3.64242 5.73153 0
M  V30 8685 H 865.187 -5.14725 4.06687 0
M  V30 8686 H 865.104 -4.87675 5.77676 0
M  V30 8687 H 866.372 -5.87225 5.12628 0
M  V30 8688 N 870.601 -1.47988 -0.541979 0
M  V30 8689 C 871.829 -1.59034 -1.32347 0
M  V30 8690 C 872.244 -0.246123 -1.87189 0
M  V30 8691 O 871.601 0.762889 -1.6579 0
M  V30 8692 C 871.652 -2.62759 -2.48274 0
M  V30 8693 O 871.373 -3.91963 -1.95695 0
M  V30 8694 C 872.874 -2.84133 -3.4027 0
M  V30 8695 H 870.094 -0.536574 -0.402901 0
M  V30 8696 H 872.638 -1.93725 -0.655045 0
M  V30 8697 H 870.793 -2.3096 -3.11025 0
M  V30 8698 H 871.207 -4.48769 -2.7149 0
M  V30 8699 H 872.681 -3.60538 -4.17991 0
M  V30 8700 H 873.158 -1.92512 -3.9476 0
M  V30 8701 H 873.764 -3.17188 -2.83322 0
M  V30 8702 N 872.079 0.78992 -1.36375 0
M  V30 8703 C 873.49 1.36506 -1.2737 0
M  V30 8704 C 873.841 1.96008 0.086711 0
M  V30 8705 O 872.966 1.92521 0.988159 0
M  V30 8706 C 873.561 2.48175 -2.30639 0
M  V30 8707 C 872.12 3.01506 -2.25325 0
M  V30 8708 C 871.267 1.74581 -2.15445 0
M  V30 8709 H 874.218 0.591606 -1.47261 0
M  V30 8710 H 874.239 3.27179 -1.94253 0
M  V30 8711 H 873.751 2.04838 -3.2964 0
M  V30 8712 H 871.852 3.49265 -1.29788 0
M  V30 8713 H 871.965 3.58355 -3.17992 0
M  V30 8714 H 870.329 1.96794 -1.61692 0
M  V30 8715 H 871.112 1.33373 -3.16333 0
M  V30 8716 N 873.557 1.20646 1.01402 0
M  V30 8717 C 874.797 1.02951 1.7658 0
M  V30 8718 C 875.161 -0.430522 1.87111 0
M  V30 8719 O 876.362 -0.727727 2.58762 0
M  V30 8720 C 874.633 1.69728 3.14527 0
M  V30 8721 S 876.192 1.6717 4.05709 0
M  V30 8722 H 873.01 0.36911 0.607683 0
M  V30 8723 H 875.612 1.53243 1.21395 0
M  V30 8724 H 874.316 2.75162 3.0449 0
M  V30 8725 H 873.847 1.19578 3.74786 0
M  V30 8726 H 875.862 0.706397 4.91146 0
M  V30 8727 N 875.035 -1.20752 1.01276 0
M  V30 8728 C 875.945 -2.27079 0.589277 0
M  V30 8729 C 876.961 -1.6999 -0.371389 0
M  V30 8730 O 878.137 -2.00044 -0.233294 0
M  V30 8731 C 875.202 -3.4663 -0.0696715 0
M  V30 8732 C 874.263 -4.18962 0.936454 0
M  V30 8733 C 873.496 -5.32806 0.308856 0
M  V30 8734 O 873.719 -5.63376 -0.8924 0
M  V30 8735 O 872.653 -5.93131 1.02367 0
M  V30 8736 H 876.479 -2.6551 1.47438 0
M  V30 8737 H 874.064 -1.27297 0.782045 0
M  V30 8738 H 875.946 -4.19119 -0.437873 0
M  V30 8739 H 874.621 -3.10082 -0.929029 0
M  V30 8740 H 873.528 -3.48661 1.35595 0
M  V30 8741 H 874.861 -4.59441 1.76565 0
M  V30 8742 N 876.513 -0.788492 -1.36457 0
M  V30 8743 C 877.761 -0.359749 -1.98872 0
M  V30 8744 C 878.082 1.07197 -1.62892 0
M  V30 8745 O 877.352 1.73875 -0.902463 0
M  V30 8746 H 875.932 -0.130029 -0.735596 0
M  V30 8747 H 878.594 -1.01033 -1.66668 0
M  V30 8748 H 877.69 -0.450835 -3.08827 0
M  V30 8749 N 877.991 1.48044 -0.54043 0
M  V30 8750 C 879.407 1.58354 -0.199006 0
M  V30 8751 C 879.607 1.54118 1.29807 0
M  V30 8752 O 878.663 1.43573 2.07709 0
M  V30 8753 C 879.976 2.89563 -0.810797 0
M  V30 8754 C 881.524 3.03113 -0.780486 0
M  V30 8755 C 881.999 4.36997 -1.37104 0
M  V30 8756 N 883.49 4.43591 -1.33347 0
M  V30 8757 C 884.225 5.45714 -1.76021 0
M  V30 8758 N 883.721 6.54738 -2.26473 0
M  V30 8759 N 885.514 5.36659 -1.67194 0
M  V30 8760 H 877.665 1.49041 -1.51329 0
M  V30 8761 H 879.928 0.708309 -0.630081 0
M  V30 8762 H 879.634 2.9835 -1.86227 0
M  V30 8763 H 879.508 3.76053 -0.293977 0
M  V30 8764 H 881.895 2.93932 0.262246 0
M  V30 8765 H 881.976 2.18207 -1.33489 0
M  V30 8766 H 881.62 4.46932 -2.41276 0
M  V30 8767 H 881.55 5.20607 -0.792229 0
M  V30 8768 H 884.041 3.65391 -0.964259 0
M  V30 8769 H 884.354 7.28814 -2.57002 0
M  V30 8770 H 882.699 6.55673 -2.30473 0
M  V30 8771 H 885.89 4.50382 -1.27569 0
M  V30 8772 H 886.063 6.16113 -2.00771 0
M  V30 8773 N 879.47 0.276058 1.55163 0
M  V30 8774 C 880.716 -0.340959 1.99913 0
M  V30 8775 C 881.049 -1.55434 1.16422 0
M  V30 8776 O 880.324 -1.93081 0.234517 0
M  V30 8777 C 880.607 -0.722211 3.52783 0
M  V30 8778 C 880.46 0.498575 4.47028 0
M  V30 8779 C 881.779 -1.5583 4.11589 0
M  V30 8780 H 878.898 -0.122455 0.726756 0
M  V30 8781 H 881.54 0.38319 1.86096 0
M  V30 8782 H 879.69 -1.33919 3.64689 0
M  V30 8783 H 881.362 1.13713 4.47065 0
M  V30 8784 H 879.605 1.13646 4.18649 0
M  V30 8785 H 880.276 0.188041 5.5168 0
M  V30 8786 H 882.752 -1.03722 4.02965 0
M  V30 8787 H 881.628 -1.79387 5.1876 0
M  V30 8788 H 881.889 -2.53963 3.61877 0
M  V30 8789 N 880.948 -1.576 0.00335426 0
M  V30 8790 C 881.858 -2.12067 -1.00322 0
M  V30 8791 C 882.874 -1.06672 -1.37467 0
M  V30 8792 O 884.05 -1.38592 -1.46131 0
M  V30 8793 C 881.115 -2.61593 -2.27531 0
M  V30 8794 C 880.176 -3.81602 -1.96668 0
M  V30 8795 C 879.409 -4.28756 -3.17811 0
M  V30 8796 O 879.632 -3.75222 -4.2961 0
M  V30 8797 O 878.566 -5.20877 -3.01613 0
M  V30 8798 H 882.392 -2.98299 -0.570199 0
M  V30 8799 H 879.977 -1.47835 -0.215682 0
M  V30 8800 H 881.859 -2.93631 -3.02256 0
M  V30 8801 H 880.534 -1.78457 -2.70065 0
M  V30 8802 H 879.441 -3.54531 -1.19408 0
M  V30 8803 H 880.774 -4.65822 -1.58968 0
M  V30 8804 N 882.426 0.269451 -1.5528 0
M  V30 8805 C 883.356 1.33729 -1.91413 0
M  V30 8806 C 884.337 1.51348 -0.776391 0
M  V30 8807 O 885.522 1.64332 -1.03482 0
M  V30 8808 C 882.652 2.69618 -2.18914 0
M  V30 8809 C 881.606 2.66725 -3.34726 0
M  V30 8810 C 880.932 4.06199 -3.47716 0
M  V30 8811 C 882.232 2.25684 -4.71025 0
M  V30 8812 H 883.926 1.03736 -2.80854 0
M  V30 8813 H 881.472 0.497579 -1.3513 0
M  V30 8814 H 883.425 3.44436 -2.42779 0
M  V30 8815 H 882.149 3.01201 -1.26275 0
M  V30 8816 H 880.808 1.94365 -3.10834 0
M  V30 8817 H 880.456 4.3501 -2.52537 0
M  V30 8818 H 880.156 4.05157 -4.25583 0
M  V30 8819 H 881.68 4.8275 -3.73877 0
M  V30 8820 H 883.094 2.90225 -4.94411 0
M  V30 8821 H 881.491 2.35797 -5.51833 0
M  V30 8822 H 882.561 1.20819 -4.69607 0
M  V30 8823 N 883.904 1.48273 0.534124 0
M  V30 8824 C 884.851 1.62487 1.6391 0
M  V30 8825 C 885.821 0.467062 1.59398 0
M  V30 8826 O 887.006 0.690029 1.77885 0
M  V30 8827 C 884.146 1.66671 3.02183 0
M  V30 8828 C 883.259 2.9353 3.16961 0
M  V30 8829 C 882.394 2.88902 4.45768 0
M  V30 8830 C 881.433 4.10483 4.54059 0
M  V30 8831 N 880.57 4.03956 5.74251 0
M  V30 8832 H 885.41 2.56851 1.51101 0
M  V30 8833 H 882.947 1.27381 0.735704 0
M  V30 8834 H 884.905 1.67079 3.82283 0
M  V30 8835 H 883.535 0.758011 3.13774 0
M  V30 8836 H 882.587 3.02886 2.3014 0
M  V30 8837 H 883.899 3.83501 3.18949 0
M  V30 8838 H 883.053 2.87688 5.34154 0
M  V30 8839 H 881.792 1.96652 4.46295 0
M  V30 8840 H 880.797 4.11977 3.64081 0
M  V30 8841 H 882.022 5.03887 4.55274 0
M  V30 8842 H 879.968 3.14525 5.75682 0
M  V30 8843 H 879.885 4.87628 5.77715 0
M  V30 8844 H 881.153 4.06795 6.64935 0
M  V30 8845 N 885.382 -0.782676 1.36792 0
M  V30 8846 C 886.61 -1.57162 1.34565 0
M  V30 8847 C 887.025 -1.88664 -0.0715501 0
M  V30 8848 O 886.382 -1.50633 -1.03033 0
M  V30 8849 C 886.433 -2.88854 2.1736 0
M  V30 8850 O 886.154 -2.58707 3.53557 0
M  V30 8851 C 887.655 -3.83132 2.2299 0
M  V30 8852 H 884.875 -0.487245 0.461338 0
M  V30 8853 H 887.419 -0.970905 1.79982 0
M  V30 8854 H 885.574 -3.45377 1.7548 0
M  V30 8855 H 885.988 -3.42961 3.96835 0
M  V30 8856 H 887.462 -4.72575 2.85266 0
M  V30 8857 H 887.939 -4.21472 1.23524 0
M  V30 8858 H 888.545 -3.32541 2.65135 0
M  V30 8859 N 886.86 -1.21182 -1.00761 0
M  V30 8860 C 887.79 -0.992773 -2.11344 0
M  V30 8861 C 888.771 0.0813618 -1.69905 0
M  V30 8862 O 889.956 -0.0779503 -1.94043 0
M  V30 8863 C 887.086 -0.553826 -3.42856 0
M  V30 8864 C 886.04 -1.57223 -3.98077 0
M  V30 8865 C 885.366 -0.989605 -5.25463 0
M  V30 8866 C 886.666 -2.95839 -4.30438 0
M  V30 8867 H 888.36 -1.91766 -2.29927 0
M  V30 8868 H 885.906 -0.923426 -1.10494 0
M  V30 8869 H 887.859 -0.387771 -4.19612 0
M  V30 8870 H 886.583 0.406702 -3.24058 0
M  V30 8871 H 885.242 -1.7258 -3.23437 0
M  V30 8872 H 884.89 -0.0208743 -5.02996 0
M  V30 8873 H 884.59 -1.66984 -5.63374 0
M  V30 8874 H 886.114 -0.834815 -6.04866 0
M  V30 8875 H 887.528 -2.8394 -4.98047 0
M  V30 8876 H 885.925 -3.60851 -4.79486 0
M  V30 8877 H 886.995 -3.46882 -3.38823 0
M  V30 8878 N 888.338 1.20213 -1.01915 0
M  V30 8879 C 889.586 1.89272 -0.708552 0
M  V30 8880 C 889.907 1.79394 0.76438 0
M  V30 8881 O 889.177 1.198 1.54999 0
M  V30 8882 H 887.757 0.700628 -0.259094 0
M  V30 8883 H 890.419 1.45985 -1.29129 0
M  V30 8884 H 889.515 2.95841 -0.994215 0
M  V30 8885 N 889.816 0.795718 1.36037 0
M  V30 8886 C 890.779 0.204318 2.28287 0
M  V30 8887 C 891.779 -0.602017 1.49105 0
M  V30 8888 O 892.969 -0.422089 1.69009 0
M  V30 8889 C 890.101 -0.716431 3.33287 0
M  V30 8890 H 891.294 1.01781 2.821 0
M  V30 8891 H 888.847 0.565588 1.45708 0
M  V30 8892 H 889.582 -1.55403 2.84641 0
M  V30 8893 H 889.367 -0.140096 3.9185 0
M  V30 8894 H 890.857 -1.12488 4.02164 0
M  V30 8895 N 891.294 -1.47756 0.548274 0
M  V30 8896 C 892.54 -2.03379 0.0291238 0
M  V30 8897 C 892.895 -1.41603 -1.30255 0
M  V30 8898 O 892.188 -0.559102 -1.83261 0
M  V30 8899 C 892.382 -3.5716 -0.131069 0
M  V30 8900 C 892.211 -4.33846 1.18353 0
M  V30 8901 C 890.981 -4.74087 1.74841 0
M  V30 8902 C 893.179 -4.69535 2.09861 0
M  V30 8903 N 891.161 -5.35382 3.00398 0
M  V30 8904 C 892.532 -5.31039 3.19997 0
M  V30 8905 C 894.587 -4.51464 2.09964 0
M  V30 8906 C 893.29 -5.7638 4.30323 0
M  V30 8907 C 895.316 -4.97798 3.19297 0
M  V30 8908 C 894.678 -5.59343 4.28152 0
M  V30 8909 H 890.777 -0.780229 0.0526037 0
M  V30 8910 H 893.361 -1.80351 0.733593 0
M  V30 8911 H 891.532 -3.79974 -0.804647 0
M  V30 8912 H 893.264 -3.99422 -0.651476 0
M  V30 8913 H 890.019 -4.55764 1.2875 0
M  V30 8914 H 890.443 -5.7058 3.64372 0
M  V30 8915 H 895.085 -4.03246 1.27093 0
M  V30 8916 H 892.803 -6.23594 5.13961 0
M  V30 8917 H 896.389 -4.85593 3.20454 0
M  V30 8918 H 895.269 -5.94544 5.11358 0
M  V30 8919 N 892.772 -0.284283 -1.55015 0
M  V30 8920 C 894.02 0.329212 -1.99401 0
M  V30 8921 C 894.341 1.55687 -1.17416 0
M  V30 8922 O 893.611 1.94087 -0.265937 0
M  V30 8923 H 892.191 0.12463 -0.73653 0
M  V30 8924 H 894.853 -0.391743 -1.90922 0
M  V30 8925 H 893.949 0.61278 -3.06025 0
M  V30 8926 N 894.251 1.57596 -0.0117121 0
M  V30 8927 C 895.476 1.95764 0.684938 0
M  V30 8928 C 895.901 0.887285 1.65858 0
M  V30 8929 O 895.259 -0.153508 1.80649 0
M  V30 8930 C 895.307 3.33031 1.38285 0
M  V30 8931 O 894.411 3.28163 2.49765 0
M  V30 8932 H 893.752 0.638767 0.181309 0
M  V30 8933 H 896.282 2.04486 -0.0683883 0
M  V30 8934 H 896.292 3.68866 1.74362 0
M  V30 8935 H 894.967 4.10483 0.669043 0
M  V30 8936 H 893.544 3.04021 2.15929 0
M  V30 8937 N 895.729 -0.261212 1.5542 0
M  V30 8938 C 896.659 -1.32712 1.92119 0
M  V30 8939 C 897.64 -1.50934 0.784406 0
M  V30 8940 O 898.825 -1.63781 1.04352 0
M  V30 8941 C 895.955 -2.68453 2.20341 0
M  V30 8942 C 894.909 -2.64947 3.36136 0
M  V30 8943 C 894.235 -4.04349 3.49865 0
M  V30 8944 C 895.535 -2.23182 4.72215 0
M  V30 8945 H 897.229 -1.02245 2.81401 0
M  V30 8946 H 894.775 -0.490406 1.35392 0
M  V30 8947 H 896.728 -3.43144 2.44603 0
M  V30 8948 H 895.452 -3.00527 1.27871 0
M  V30 8949 H 894.111 -1.92714 3.11861 0
M  V30 8950 H 893.759 -4.33665 2.5484 0
M  V30 8951 H 893.459 -4.02895 4.27726 0
M  V30 8952 H 894.983 -4.80761 3.76432 0
M  V30 8953 H 896.397 -2.87599 4.95943 0
M  V30 8954 H 894.794 -2.32867 5.53076 0
M  V30 8955 H 895.864 -1.18327 4.70241 0
M  V30 8956 N 897.207 -1.48554 -0.526253 0
M  V30 8957 C 898.447 -1.58362 -1.29232 0
M  V30 8958 C 898.811 -0.253353 -1.90321 0
M  V30 8959 O 900.012 -0.226439 -2.67845 0
M  V30 8960 C 898.283 -2.69294 -2.3498 0
M  V30 8961 S 899.842 -2.98891 -3.21262 0
M  V30 8962 H 896.66 -0.558859 -0.439543 0
M  V30 8963 H 899.262 -1.86094 -0.599099 0
M  V30 8964 H 897.966 -3.64504 -1.88587 0
M  V30 8965 H 897.497 -2.43475 -3.09004 0
M  V30 8966 H 899.512 -2.38475 -4.35137 0
M  V30 8967 N 898.685 0.775411 -1.37205 0
M  V30 8968 C 899.633 1.90996 -1.32752 0
M  V30 8969 C 900.627 1.68006 -0.216907 0
M  V30 8970 O 901.833 1.7584 -0.384723 0
M  V30 8971 H 898.208 0.62803 -0.413621 0
M  V30 8972 H 900.179 1.91869 -2.28536 0
M  V30 8973 C 898.928 3.28211 -1.14772 0
M  V30 8974 H 898.251 3.46477 -1.99484 0
M  V30 8975 H 899.691 4.07907 -1.15706 0
M  V30 8976 C 898.15 3.3658 0.146852 0
M  V30 8977 O 898.68 3.85428 1.13173 0
M  V30 8978 N 896.886 2.89936 0.196305 0
M  V30 8979 H 896.433 2.50375 -0.605807 0
M  V30 8980 H 896.391 2.95916 1.06212 0
M  V30 8981 N 900.163 1.21714 1.00117 0
M  V30 8982 C 901.388 1.06357 1.78054 0
M  V30 8983 C 901.813 -0.382075 1.84179 0
M  V30 8984 O 901.171 -1.27575 1.28819 0
M  V30 8985 C 901.219 1.66982 3.19608 0
M  V30 8986 O 900.323 0.917892 4.02055 0
M  V30 8987 H 899.664 0.374074 0.548602 0
M  V30 8988 H 902.194 1.61338 1.25822 0
M  V30 8989 H 902.204 1.71363 3.70268 0
M  V30 8990 H 900.879 2.72185 3.14465 0
M  V30 8991 H 899.456 0.949473 3.6061 0
M  V30 8992 N 901.641 -1.19671 1.02551 0
M  V30 8993 C 902.591 -2.20655 0.574037 0
M  V30 8994 C 903.575 -1.56459 -0.375412 0
M  V30 8995 O 904.767 -1.75901 -0.196929 0
M  V30 8996 C 901.896 -3.43213 -0.0772031 0
M  V30 8997 C 900.982 -4.1456 0.894485 0
M  V30 8998 N 901.373 -4.62147 2.05557 0
M  V30 8999 C 899.671 -4.40196 0.717205 0
M  V30 9000 C 900.372 -5.16899 2.66814 0
M  V30 9001 N 899.348 -5.07496 1.94804 0
M  V30 9002 H 903.15 -2.55124 1.45908 0
M  V30 9003 H 900.664 -1.35707 0.89204 0
M  V30 9004 H 902.661 -4.14797 -0.41824 0
M  V30 9005 H 901.321 -3.10247 -0.957973 0
M  V30 9006 H 902.332 -4.5708 2.43513 0
M  V30 9007 H 899.009 -4.17342 -0.114758 0
M  V30 9008 H 900.399 -5.64032 3.65126 0
M  V30 9009 N 903.119 -0.802921 -1.35613 0
M  V30 9010 C 904.365 -0.391259 -1.99601 0
M  V30 9011 C 904.72 1.02922 -1.62557 0
M  V30 9012 O 904.013 1.70357 -0.876878 0
M  V30 9013 C 904.207 -0.507806 -3.53774 0
M  V30 9014 C 904.036 -1.93807 -4.05794 0
M  V30 9015 C 902.806 -2.56564 -4.3532 0
M  V30 9016 C 905.004 -2.90211 -4.24596 0
M  V30 9017 N 902.986 -3.91038 -4.73247 0
M  V30 9018 C 904.357 -4.09548 -4.65479 0
M  V30 9019 C 906.412 -2.87091 -4.06796 0
M  V30 9020 C 905.115 -5.26191 -4.90424 0
M  V30 9021 C 907.141 -4.02933 -4.32896 0
M  V30 9022 C 906.503 -5.21017 -4.74047 0
M  V30 9023 H 902.602 -0.190867 -0.758349 0
M  V30 9024 H 905.186 -1.04338 -1.64382 0
M  V30 9025 H 903.357 0.114306 -3.88232 0
M  V30 9026 H 905.089 -0.0710855 -4.04638 0
M  V30 9027 H 901.844 -2.07945 -4.25507 0
M  V30 9028 H 902.268 -4.60262 -4.96475 0
M  V30 9029 H 906.91 -1.96951 -3.74126 0
M  V30 9030 H 904.628 -6.16906 -5.2197 0
M  V30 9031 H 908.214 -4.01895 -4.2068 0
M  V30 9032 H 907.094 -6.09165 -4.93849 0
M  V30 9033 N 904.597 1.47463 -0.556102 0
M  V30 9034 C 905.874 1.9557 0.0339892 0
M  V30 9035 C 906.254 1.49869 1.48669 0
M  V30 9036 O 905.602 0.737019 2.16288 0
M  V30 9037 C 905.812 3.48826 -0.110343 0
M  V30 9038 C 907.16 4.24585 0.0355716 0
M  V30 9039 O 908.184 3.5618 -0.0378356 0
M  V30 9040 O 907.043 5.46158 0.193299 0
M  V30 9041 H 904.137 0.824461 0.0647521 0
M  V30 9042 H 906.683 1.57868 -0.622547 0
M  V30 9043 H 905.455 3.74891 -1.12126 0
M  V30 9044 H 905.078 3.9329 0.583855 0
M  V30 9045 N 906.075 0.2925 1.54862 0
M  V30 9046 C 907.324 -0.319994 1.99146 0
M  V30 9047 C 907.637 -1.55658 1.18448 0
M  V30 9048 O 908.843 -2.24312 1.52959 0
M  V30 9049 C 907.299 -0.620665 3.54508 0
M  V30 9050 C 906.907 0.597098 4.44003 0
M  V30 9051 C 908.651 -1.19482 4.07338 0
M  V30 9052 C 906.558 0.270049 5.90783 0
M  V30 9053 H 905.488 -0.123342 0.743843 0
M  V30 9054 H 908.139 0.399876 1.7909 0
M  V30 9055 H 906.521 -1.3999 3.7043 0
M  V30 9056 H 907.695 1.37354 4.39853 0
M  V30 9057 H 906.01 1.0893 4.019 0
M  V30 9058 H 908.607 -1.45362 5.14562 0
M  V30 9059 H 908.95 -2.13435 3.57423 0
M  V30 9060 H 909.483 -0.477485 3.94924 0
M  V30 9061 H 906.222 1.17791 6.4483 0
M  V30 9062 H 905.742 -0.469292 5.97961 0
M  V30 9063 H 907.421 -0.131471 6.46866 0
M  V30 9064 N 907.553 -1.57587 0.0200696 0
M  V30 9065 C 908.463 -2.13119 -0.980676 0
M  V30 9066 C 909.479 -1.08124 -1.36328 0
M  V30 9067 O 910.655 -1.40134 -1.44653 0
M  V30 9068 C 907.72 -2.63991 -2.24743 0
M  V30 9069 C 906.781 -3.83667 -1.9261 0
M  V30 9070 C 906.014 -4.32103 -3.13246 0
M  V30 9071 O 906.237 -3.79758 -4.25606 0
M  V30 9072 O 905.171 -5.24047 -2.96072 0
M  V30 9073 H 908.997 -2.98887 -0.538528 0
M  V30 9074 H 906.582 -1.48055 -0.19999 0
M  V30 9075 H 908.464 -2.9682 -2.99125 0
M  V30 9076 H 907.139 -1.81311 -2.68157 0
M  V30 9077 H 906.046 -3.55778 -1.15641 0
M  V30 9078 H 907.379 -4.67482 -1.54019 0
M  V30 9079 N 909.032 0.252966 -1.55557 0
M  V30 9080 C 910.309 1.00432 -1.67847 0
M  V30 9081 C 910.689 2.03587 -0.55816 0
M  V30 9082 O 910.037 2.24239 0.439197 0
M  V30 9083 C 910.247 1.64313 -3.079 0
M  V30 9084 C 911.595 2.14726 -3.66303 0
M  V30 9085 O 912.619 1.74264 -3.10661 0
M  V30 9086 O 911.478 2.89 -4.63833 0
M  V30 9087 H 908.572 0.467102 -0.682455 0
M  V30 9088 H 911.118 0.247233 -1.67889 0
M  V30 9089 H 909.89 0.896681 -3.80888 0
M  V30 9090 H 909.513 2.46657 -3.11843 0
M  V30 9091 N 910.51 1.48831 0.518367 0
M  V30 9092 C 911.473 1.63721 1.604 0
M  V30 9093 C 912.473 0.509857 1.52503 0
M  V30 9094 O 913.663 0.775922 1.55965 0
M  V30 9095 C 910.795 1.61831 3.00039 0
M  V30 9096 H 911.988 2.60534 1.48533 0
M  V30 9097 H 909.541 1.37602 0.741309 0
M  V30 9098 H 910.276 0.665387 3.17401 0
M  V30 9099 H 910.061 2.43686 3.0718 0
M  V30 9100 H 911.551 1.75467 3.78947 0
M  V30 9101 N 911.988 -0.768124 1.37614 0
M  V30 9102 C 912.938 -1.8718 1.30184 0
M  V30 9103 C 913.922 -1.59787 0.188943 0
M  V30 9104 O 915.114 -1.71855 0.423656 0
M  V30 9105 C 912.243 -3.24698 1.11471 0
M  V30 9106 C 911.329 -3.58031 2.27321 0
M  V30 9107 N 911.72 -3.6252 3.52722 0
M  V30 9108 C 910.018 -3.88216 2.19554 0
M  V30 9109 C 910.719 -3.92704 4.29137 0
M  V30 9110 N 909.695 -4.08789 3.58319 0
M  V30 9111 H 913.497 -1.88907 2.25147 0
M  V30 9112 H 911.011 -0.964753 1.30638 0
M  V30 9113 H 913.008 -4.0366 1.04233 0
M  V30 9114 H 911.668 -3.24232 0.174281 0
M  V30 9115 H 912.679 -3.44636 3.86583 0
M  V30 9116 H 909.356 -3.95551 1.33588 0
M  V30 9117 H 910.746 -4.02922 5.37683 0
M  V30 9118 N 913.466 -1.22244 -0.994698 0
M  V30 9119 C 914.712 -1.04746 -1.73655 0
M  V30 9120 C 915.045 0.41668 -1.89677 0
M  V30 9121 O 914.32 1.30897 -1.43862 0
M  V30 9122 C 914.603 -1.75716 -3.14318 0
M  V30 9123 C 914.456 -3.29714 -3.05955 0
M  V30 9124 C 915.775 -1.50809 -4.13455 0
M  V30 9125 H 912.894 -0.381921 -0.630322 0
M  V30 9126 H 915.536 -1.50559 -1.15897 0
M  V30 9127 H 913.686 -1.3677 -3.63629 0
M  V30 9128 H 915.358 -3.78093 -2.64279 0
M  V30 9129 H 913.601 -3.59484 -2.42804 0
M  V30 9130 H 914.272 -3.74547 -4.05485 0
M  V30 9131 H 916.748 -1.84636 -3.72892 0
M  V30 9132 H 915.624 -2.02964 -5.09997 0
M  V30 9133 H 915.885 -0.440292 -4.39902 0
M  V30 9134 N 914.944 1.19125 -1.03184 0
M  V30 9135 C 915.874 2.24675 -0.635889 0
M  V30 9136 C 916.855 1.66321 0.356565 0
M  V30 9137 O 918.04 1.92728 0.238625 0
M  V30 9138 C 915.17 3.47298 0.011069 0
M  V30 9139 C 914.124 4.18345 -0.903979 0
M  V30 9140 C 913.45 5.34561 -0.12197 0
M  V30 9141 C 914.75 4.72816 -2.21907 0
M  V30 9142 H 916.444 2.5805 -1.51825 0
M  V30 9143 H 913.99 1.24039 -0.73146 0
M  V30 9144 H 915.943 4.20333 0.299729 0
M  V30 9145 H 914.667 3.13131 0.928245 0
M  V30 9146 H 913.326 3.47196 -1.17688 0
M  V30 9147 H 912.974 4.9664 0.797334 0
M  V30 9148 H 912.674 5.83029 -0.731498 0
M  V30 9149 H 914.198 6.10391 0.159881 0
M  V30 9150 H 915.612 5.3759 -1.99173 0
M  V30 9151 H 914.009 5.31782 -2.78078 0
M  V30 9152 H 915.079 3.9072 -2.87168 0
M  V30 9153 N 916.422 0.810101 1.35185 0
M  V30 9154 C 917.662 0.397802 2.00492 0
M  V30 9155 C 918.026 -1.01684 1.62863 0
M  V30 9156 O 919.227 -1.53133 2.20916 0
M  V30 9157 C 917.498 0.579524 3.5267 0
M  V30 9158 S 919.057 0.258169 4.3804 0
M  V30 9159 H 915.875 0.150904 0.694801 0
M  V30 9160 H 918.477 1.05312 1.64711 0
M  V30 9161 H 917.181 1.60901 3.77543 0
M  V30 9162 H 916.712 -0.0909886 3.93295 0
M  V30 9163 H 918.727 -0.932882 4.87352 0
M  V30 9164 N 917.9 -1.47166 0.563914 0
M  V30 9165 C 918.832 -2.28165 -0.217583 0
M  V30 9166 C 919.845 -1.37405 -0.873134 0
M  V30 9167 O 921.034 -1.6217 -0.745857 0
M  V30 9168 C 918.134 -3.11873 -1.32621 0
M  V30 9169 C 917.307 -4.30637 -0.766177 0
M  V30 9170 C 916.366 -4.95889 -1.76014 0
M  V30 9171 O 915.392 -5.54071 -1.3036 0
M  V30 9172 N 916.594 -4.91191 -3.09373 0
M  V30 9173 H 919.359 -2.95876 0.477256 0
M  V30 9174 H 916.92 -1.5687 0.40043 0
M  V30 9175 H 918.912 -3.52392 -1.99003 0
M  V30 9176 H 917.482 -2.46361 -1.92419 0
M  V30 9177 H 916.702 -3.94129 0.0745998 0
M  V30 9178 H 917.99 -5.07442 -0.371472 0
M  V30 9179 H 917.388 -4.45133 -3.49104 0
M  V30 9180 H 915.945 -5.35708 -3.71295 0
M  V30 9181 N 919.378 -0.300708 -1.54705 0
M  V30 9182 C 920.31 0.609179 -2.20956 0
M  V30 9183 C 921.323 1.09776 -1.20221 0
M  V30 9184 O 922.512 1.01527 -1.46815 0
M  V30 9185 C 919.612 1.84595 -2.84214 0
M  V30 9186 C 918.785 1.49991 -4.10879 0
M  V30 9187 C 917.844 2.5918 -4.57943 0
M  V30 9188 O 916.87 2.24285 -5.23149 0
M  V30 9189 N 918.072 3.89714 -4.30236 0
M  V30 9190 H 920.837 0.0420111 -2.99671 0
M  V30 9191 H 918.398 -0.122896 -1.61433 0
M  V30 9192 H 920.39 2.56988 -3.12633 0
M  V30 9193 H 918.96 2.32152 -2.09342 0
M  V30 9194 H 918.18 0.608637 -3.89473 0
M  V30 9195 H 919.468 1.24409 -4.93356 0
M  V30 9196 H 918.866 4.20874 -3.77997 0
M  V30 9197 H 917.423 4.58406 -4.63365 0
M  V30 9198 N 920.856 1.57574 -0.0284266 0
M  V30 9199 C 921.786 2.1321 0.952039 0
M  V30 9200 C 922.767 1.04806 1.33977 0
M  V30 9201 O 923.952 1.32635 1.41851 0
M  V30 9202 C 921.082 2.65862 2.23461 0
M  V30 9203 C 920.036 3.79047 1.98765 0
M  V30 9204 C 919.362 4.18124 3.33281 0
M  V30 9205 C 920.662 5.05151 1.32739 0
M  V30 9206 H 922.356 2.95385 0.488705 0
M  V30 9207 H 919.902 1.42092 0.233628 0
M  V30 9208 H 921.855 3.03417 2.92431 0
M  V30 9209 H 920.579 1.80848 2.71959 0
M  V30 9210 H 919.238 3.41929 1.32213 0
M  V30 9211 H 918.886 3.30092 3.79537 0
M  V30 9212 H 918.586 4.94396 3.17563 0
M  V30 9213 H 920.11 4.58262 4.0352 0
M  V30 9214 H 921.524 5.40297 1.91708 0
M  V30 9215 H 919.921 5.86416 1.27421 0
M  V30 9216 H 920.991 4.83969 0.300261 0
M  V30 9217 N 922.334 -0.244713 1.55689 0
M  V30 9218 C 923.281 -1.30301 1.905 0
M  V30 9219 C 924.251 -1.4772 0.759478 0
M  V30 9220 O 925.436 -1.61667 1.01333 0
M  V30 9221 C 922.576 -2.653 2.20703 0
M  V30 9222 C 921.689 -2.55872 3.48071 0
M  V30 9223 C 920.824 -3.83238 3.67834 0
M  V30 9224 C 919.863 -3.68436 4.88796 0
M  V30 9225 N 919 -4.877 5.05068 0
M  V30 9226 H 923.84 -0.999143 2.80751 0
M  V30 9227 H 921.377 -0.482099 1.38976 0
M  V30 9228 H 923.335 -3.43884 2.36219 0
M  V30 9229 H 921.965 -2.93831 1.33653 0
M  V30 9230 H 921.017 -1.68846 3.40874 0
M  V30 9231 H 922.329 -2.40845 4.36801 0
M  V30 9232 H 921.483 -4.70266 3.83321 0
M  V30 9233 H 920.222 -4.01165 2.77341 0
M  V30 9234 H 919.227 -2.79793 4.73282 0
M  V30 9235 H 920.452 -3.52003 5.8075 0
M  V30 9236 H 918.398 -5.05983 4.17513 0
M  V30 9237 H 918.315 -4.75312 5.8789 0
M  V30 9238 H 919.583 -5.76219 5.24969 0
M  V30 9239 N 923.813 -1.49104 -0.510467 0
M  V30 9240 C 925.053 -1.59723 -1.27545 0
M  V30 9241 C 925.417 -0.273525 -1.90042 0
M  V30 9242 O 926.618 -0.254835 -2.67589 0
M  V30 9243 C 924.889 -2.71771 -2.3211 0
M  V30 9244 S 926.448 -3.02282 -3.18074 0
M  V30 9245 H 923.266 -0.563489 -0.433591 0
M  V30 9246 H 925.868 -1.86719 -0.579328 0
M  V30 9247 H 924.572 -3.66483 -1.84711 0
M  V30 9248 H 924.103 -2.46739 -3.06404 0
M  V30 9249 H 926.118 -2.43076 -4.32583 0
M  V30 9250 N 925.291 0.760815 -1.38019 0
M  V30 9251 C 926.539 1.51673 -1.33566 0
M  V30 9252 C 926.86 1.94852 0.076024 0
M  V30 9253 O 926.13 1.67112 1.02227 0
M  V30 9254 H 924.71 0.562581 -0.491438 0
M  V30 9255 H 927.372 0.904832 -1.72623 0
M  V30 9256 H 926.468 2.41102 -1.98182 0
M  V30 9257 N 926.769 1.22769 0.988202 0
M  V30 9258 C 928.015 1.05665 1.73097 0
M  V30 9259 C 928.348 -0.406615 1.89895 0
M  V30 9260 O 927.623 -1.30132 1.44554 0
M  V30 9261 C 927.906 1.77381 3.13382 0
M  V30 9262 C 927.759 3.31332 3.04203 0
M  V30 9263 C 929.078 1.52999 4.12649 0
M  V30 9264 H 926.197 0.385258 0.628288 0
M  V30 9265 H 928.839 1.51171 1.15097 0
M  V30 9266 H 926.989 1.38696 3.62899 0
M  V30 9267 H 928.661 3.79489 2.6227 0
M  V30 9268 H 926.904 3.60767 2.40894 0
M  V30 9269 H 927.575 3.76692 4.03493 0
M  V30 9270 H 930.051 1.86611 3.71908 0
M  V30 9271 H 928.927 2.05666 5.08913 0
M  V30 9272 H 929.188 0.463615 4.39662 0
M  V30 9273 N 928.247 -1.18576 1.03814 0
M  V30 9274 C 929.21 -2.2033 0.63146 0
M  V30 9275 C 930.21 -1.57787 -0.309816 0
M  V30 9276 O 931.4 -1.73938 -0.0955598 0
M  V30 9277 C 928.532 -3.40818 -0.0745963 0
M  V30 9278 H 929.725 -2.57824 1.53189 0
M  V30 9279 H 927.278 -1.32416 0.830398 0
M  V30 9280 H 928.013 -3.08853 -0.988947 0
M  V30 9281 H 927.798 -3.87453 0.6019 0
M  V30 9282 H 929.288 -4.16166 -0.345727 0
M  V30 9283 N 929.725 -0.817259 -1.34754 0
M  V30 9284 C 930.655 -0.249769 -2.3216 0
M  V30 9285 C 931.636 0.630663 -1.57977 0
M  V30 9286 O 932.821 0.558719 -1.85989 0
M  V30 9287 C 929.951 0.593825 -3.42186 0
M  V30 9288 C 928.905 -0.188997 -4.27583 0
M  V30 9289 C 928.231 0.776979 -5.29025 0
M  V30 9290 C 929.531 -1.39401 -5.03354 0
M  V30 9291 H 931.225 -1.06359 -2.79872 0
M  V30 9292 H 928.771 -0.512894 -1.34556 0
M  V30 9293 H 930.724 1.00097 -4.09339 0
M  V30 9294 H 929.448 1.44064 -2.93109 0
M  V30 9295 H 928.107 -0.577445 -3.62024 0
M  V30 9296 H 927.755 1.61959 -4.76212 0
M  V30 9297 H 927.455 0.257448 -5.87036 0
M  V30 9298 H 928.979 1.18211 -5.99048 0
M  V30 9299 H 930.393 -1.06117 -5.63393 0
M  V30 9300 H 928.79 -1.84878 -5.70912 0
M  V30 9301 H 929.86 -2.17515 -4.33377 0
M  V30 9302 N 931.203 1.46865 -0.571711 0
M  V30 9303 C 932.428 2.07323 -0.0564655 0
M  V30 9304 C 932.853 1.41938 1.23431 0
M  V30 9305 O 932.211 0.499334 1.74288 0
M  V30 9306 C 932.259 3.6044 0.107339 0
M  V30 9307 O 931.363 3.95558 1.1665 0
M  V30 9308 H 930.704 0.661475 -0.0578465 0
M  V30 9309 H 933.234 1.88669 -0.791524 0
M  V30 9310 H 933.244 4.06767 0.316987 0
M  V30 9311 H 931.919 4.07425 -0.835348 0
M  V30 9312 H 930.496 3.60957 0.936189 0
M  V30 9313 N 932.681 0.308908 1.54543 0
M  V30 9314 C 933.909 -0.300418 2.04707 0
M  V30 9315 C 934.324 -1.46915 1.18581 0
M  V30 9316 O 933.681 -1.81251 0.213186 0
M  V30 9317 C 933.732 -0.749038 3.53655 0
M  V30 9318 O 933.453 0.373181 4.36508 0
M  V30 9319 C 934.954 -1.4227 4.1985 0
M  V30 9320 H 932.174 -0.0641267 0.667929 0
M  V30 9321 H 934.718 0.450839 1.99469 0
M  V30 9322 H 932.873 -1.4503 3.59228 0
M  V30 9323 H 933.287 0.0224752 5.24495 0
M  V30 9324 H 934.761 -1.68768 5.25568 0
M  V30 9325 H 935.238 -2.36531 3.70067 0
M  V30 9326 H 935.844 -0.764404 4.18374 0
M  V30 9327 N 934.159 -1.57557 0.0367827 0
M  V30 9328 C 935.57 -1.79853 -0.500971 0
M  V30 9329 C 935.921 -0.947749 -1.71791 0
M  V30 9330 O 935.046 -0.160287 -2.15806 0
M  V30 9331 C 935.641 -3.26193 -0.915626 0
M  V30 9332 C 934.2 -3.49457 -1.39845 0
M  V30 9333 C 933.347 -2.74864 -0.366784 0
M  V30 9334 H 936.298 -1.56509 0.262768 0
M  V30 9335 H 936.319 -3.36324 -1.7795 0
M  V30 9336 H 935.831 -3.88089 -0.0297227 0
M  V30 9337 H 933.932 -2.92823 -2.30402 0
M  V30 9338 H 934.045 -4.58172 -1.40054 0
M  V30 9339 H 932.409 -2.4057 -0.836554 0
M  V30 9340 H 933.192 -3.39479 0.510785 0
M  V30 9341 N 935.637 0.236453 -1.55816 0
M  V30 9342 C 936.885 0.96111 -1.77784 0
M  V30 9343 C 937.206 1.85454 -0.602648 0
M  V30 9344 O 936.476 1.92157 0.381137 0
M  V30 9345 H 935.056 0.35787 -0.655697 0
M  V30 9346 H 937.718 0.251888 -1.93265 0
M  V30 9347 H 936.814 1.5767 -2.69345 0
M  V30 9348 N 937.115 1.49373 0.502552 0
M  V30 9349 C 938.363 1.58467 1.25429 0
M  V30 9350 C 938.684 0.272593 1.93085 0
M  V30 9351 O 937.954 -0.707947 1.82661 0
M  V30 9352 H 936.534 0.583866 0.46595 0
M  V30 9353 H 939.196 1.8599 0.582568 0
M  V30 9354 H 938.292 2.37993 2.01906 0
M  V30 9355 N 938.594 -0.753485 1.38421 0
M  V30 9356 C 939.557 -1.84888 1.35459 0
M  V30 9357 C 940.557 -1.58764 0.255083 0
M  V30 9358 O 941.747 -1.66507 0.511978 0
M  V30 9359 C 938.879 -3.22361 1.10888 0
M  V30 9360 H 940.072 -1.88922 2.32913 0
M  V30 9361 H 937.625 -0.955199 1.23716 0
M  V30 9362 H 938.36 -3.23996 0.1404 0
M  V30 9363 H 938.145 -3.42717 1.90492 0
M  V30 9364 H 939.635 -4.02437 1.1151 0
M  V30 9365 N 940.072 -1.23292 -0.981677 0
M  V30 9366 C 941.488 -0.995295 -1.24764 0
M  V30 9367 C 941.688 0.304379 -1.99188 0
M  V30 9368 O 940.744 1.02414 -2.30798 0
M  V30 9369 C 942.057 -2.20135 -2.04844 0
M  V30 9370 C 943.605 -2.24612 -2.17988 0
M  V30 9371 C 944.08 -3.448 -3.01458 0
M  V30 9372 N 945.571 -3.45031 -3.09044 0
M  V30 9373 C 946.306 -4.34683 -3.7395 0
M  V30 9374 N 945.802 -5.34569 -4.4069 0
M  V30 9375 N 947.595 -4.22429 -3.70823 0
M  V30 9376 H 939.746 -2.06834 -0.483052 0
M  V30 9377 H 942.009 -0.906929 -0.276014 0
M  V30 9378 H 941.715 -3.14446 -1.57532 0
M  V30 9379 H 941.589 -2.21115 -3.05594 0
M  V30 9380 H 943.976 -1.30841 -2.64508 0
M  V30 9381 H 944.057 -2.27664 -1.16631 0
M  V30 9382 H 943.701 -4.38877 -2.55635 0
M  V30 9383 H 943.631 -3.38988 -4.02982 0
M  V30 9384 H 946.122 -2.72759 -2.61555 0
M  V30 9385 H 946.435 -5.99236 -4.87991 0
M  V30 9386 H 944.78 -5.3847 -4.39403 0
M  V30 9387 H 947.971 -3.43639 -3.17851 0
M  V30 9388 H 948.144 -4.92501 -4.21126 0
M  V30 9389 N 941.55 1.18024 -1.04442 0
M  V30 9390 C 942.797 1.88098 -0.750022 0
M  V30 9391 C 943.125 1.80583 0.722489 0
M  V30 9392 O 942.38 1.20329 1.54335 0
M  V30 9393 C 942.679 3.37834 -1.16631 0
M  V30 9394 C 942.345 3.65553 -2.63974 0
M  V30 9395 C 941.007 3.72827 -3.04226 0
M  V30 9396 C 943.359 3.77634 -3.59224 0
M  V30 9397 C 940.687 3.89666 -4.38608 0
M  V30 9398 C 943.039 3.9599 -4.9333 0
M  V30 9399 C 941.703 4.01501 -5.33248 0
M  V30 9400 H 940.973 0.6883 -0.274452 0
M  V30 9401 H 943.62 1.39671 -1.31012 0
M  V30 9402 H 941.925 3.88266 -0.525071 0
M  V30 9403 H 943.622 3.90402 -0.915827 0
M  V30 9404 H 940.212 3.6051 -2.31798 0
M  V30 9405 H 944.396 3.71342 -3.2927 0
M  V30 9406 H 939.652 3.92178 -4.69048 0
M  V30 9407 H 943.826 4.0428 -5.67037 0
M  V30 9408 H 941.453 4.14301 -6.37384 0
M  V30 9409 N 943.028 0.824394 1.34319 0
M  V30 9410 C 944.276 0.41235 1.97849 0
M  V30 9411 C 944.597 -1.02841 1.65677 0
M  V30 9412 O 943.867 -1.71421 0.948245 0
M  V30 9413 H 942.447 0.149486 0.73189 0
M  V30 9414 H 945.109 1.05416 1.63931 0
M  V30 9415 H 944.205 0.532557 3.07523 0
M  V30 9416 N 944.506 -1.46559 0.579492 0
M  V30 9417 C 945.453 -2.30275 -0.155598 0
M  V30 9418 C 946.423 -1.40422 -0.887175 0
M  V30 9419 O 947.608 -1.69373 -0.878481 0
M  V30 9420 C 944.748 -3.24827 -1.16539 0
M  V30 9421 C 943.861 -4.29778 -0.43759 0
M  V30 9422 C 942.996 -5.11461 -1.43462 0
M  V30 9423 C 942.035 -6.08164 -0.693048 0
M  V30 9424 N 941.172 -6.82726 -1.63799 0
M  V30 9425 H 946.012 -2.92607 0.564356 0
M  V30 9426 H 943.549 -1.44211 0.290126 0
M  V30 9427 H 945.507 -3.78088 -1.76368 0
M  V30 9428 H 944.137 -2.64311 -1.8531 0
M  V30 9429 H 943.189 -3.794 0.27567 0
M  V30 9430 H 944.501 -4.98597 0.142298 0
M  V30 9431 H 943.655 -5.68982 -2.1058 0
M  V30 9432 H 942.394 -4.42595 -2.04844 0
M  V30 9433 H 941.399 -5.49799 -0.00807093 0
M  V30 9434 H 942.624 -6.79047 -0.0846678 0
M  V30 9435 H 940.57 -6.16572 -2.23997 0
M  V30 9436 H 940.487 -7.47795 -1.11082 0
M  V30 9437 H 941.755 -7.44807 -2.29962 0
M  V30 9438 N 945.984 -0.3171 -1.54377 0
M  V30 9439 C 947.232 0.286842 -2.00054 0
M  V30 9440 C 947.553 1.53161 -1.20692 0
M  V30 9441 O 946.823 1.93479 -0.307045 0
M  V30 9442 H 945.403 0.108979 -0.739008 0
M  V30 9443 H 948.065 -0.432152 -1.90049 0
M  V30 9444 H 947.161 0.547729 -3.07256 0
M  V30 9445 N 947.462 1.57535 -0.0451378 0
M  V30 9446 C 948.41 2.12351 0.949205 0
M  V30 9447 C 949.404 1.05386 1.32628 0
M  V30 9448 O 950.61 1.23802 1.30664 0
M  V30 9449 H 946.985 0.678648 0.323945 0
M  V30 9450 H 948.956 2.94806 0.461718 0
M  V30 9451 C 947.705 2.67862 2.21687 0
M  V30 9452 H 947.028 3.49826 1.93551 0
M  V30 9453 H 948.468 3.09844 2.89435 0
M  V30 9454 C 946.927 1.61353 2.95748 0
M  V30 9455 O 947.457 1.02276 3.88462 0
M  V30 9456 N 945.663 1.33017 2.5837 0
M  V30 9457 H 945.21 1.81246 1.83051 0
M  V30 9458 H 945.168 0.619812 3.0823 0
M  V30 9459 N 948.94 -0.228186 1.55939 0
M  V30 9460 C 950.188 -0.951668 1.78291 0
M  V30 9461 C 950.509 -1.85132 0.612474 0
M  V30 9462 O 949.779 -1.92356 -0.370942 0
M  V30 9463 H 948.359 -0.354388 0.657585 0
M  V30 9464 H 951.021 -0.241635 1.93396 0
M  V30 9465 H 950.117 -1.56239 2.70177 0
M  V30 9466 N 950.418 -1.49637 -0.494624 0
M  V30 9467 C 951.35 -1.62902 -1.61231 0
M  V30 9468 C 952.363 -0.511425 -1.54558 0
M  V30 9469 O 953.552 -0.783724 -1.60375 0
M  V30 9470 C 950.652 -1.57564 -3.00045 0
M  V30 9471 C 949.825 -2.84964 -3.31835 0
M  V30 9472 C 948.884 -2.72591 -4.5009 0
M  V30 9473 O 947.91 -3.46532 -4.51558 0
M  V30 9474 N 949.112 -1.84563 -5.50379 0
M  V30 9475 H 951.877 -2.59301 -1.50276 0
M  V30 9476 H 949.438 -1.46806 -0.68262 0
M  V30 9477 H 951.43 -1.46932 -3.77085 0
M  V30 9478 H 950 -0.689974 -3.0489 0
M  V30 9479 H 949.22 -3.099 -2.4363 0
M  V30 9480 H 950.508 -3.69412 -3.49875 0
M  V30 9481 H 949.906 -1.23758 -5.51997 0
M  V30 9482 H 948.463 -1.79849 -6.26496 0
M  V30 9483 N 951.896 0.746133 -1.38819 0
M  V30 9484 C 953.145 1.50085 -1.34749 0
M  V30 9485 C 953.458 1.95516 0.0574786 0
M  V30 9486 O 954.664 2.70601 0.22073 0
M  V30 9487 C 953.12 2.71141 -2.36665 0
M  V30 9488 C 952.728 2.32706 -3.82821 0
M  V30 9489 C 954.472 3.49005 -2.41652 0
M  V30 9490 C 952.379 3.50418 -4.76405 0
M  V30 9491 H 951.309 0.563563 -0.500912 0
M  V30 9492 H 953.96 0.814951 -1.6441 0
M  V30 9493 H 952.342 3.4175 -2.00058 0
M  V30 9494 H 953.516 1.69715 -4.28408 0
M  V30 9495 H 951.831 1.67959 -3.81023 0
M  V30 9496 H 954.428 4.36541 -3.08766 0
M  V30 9497 H 954.771 3.90687 -1.43769 0
M  V30 9498 H 955.304 2.85416 -2.77097 0
M  V30 9499 H 952.043 3.13795 -5.75511 0
M  V30 9500 H 951.563 4.12426 -4.35505 0
M  V30 9501 H 953.242 4.16901 -4.94775 0
M  V30 9502 N 953.375 1.23811 0.975125 0
M  V30 9503 C 954.621 1.08502 1.72043 0
M  V30 9504 C 954.976 -0.373437 1.88741 0
M  V30 9505 O 954.269 -1.27248 1.43243 0
M  V30 9506 C 954.463 1.74994 3.11628 0
M  V30 9507 C 954.292 3.27155 3.08544 0
M  V30 9508 C 953.062 3.96338 3.1344 0
M  V30 9509 C 955.26 4.23851 2.91299 0
M  V30 9510 N 953.242 5.35439 3.00297 0
M  V30 9511 C 954.613 5.499 2.86375 0
M  V30 9512 C 956.668 4.14519 2.75824 0
M  V30 9513 C 955.371 6.67687 2.67558 0
M  V30 9514 C 957.397 5.31975 2.58372 0
M  V30 9515 C 956.759 6.56953 2.5415 0
M  V30 9516 H 952.858 0.451607 0.638416 0
M  V30 9517 H 955.442 1.56617 1.15669 0
M  V30 9518 H 953.613 1.29404 3.66209 0
M  V30 9519 H 955.345 1.52614 3.74822 0
M  V30 9520 H 952.1 3.47453 3.21828 0
M  V30 9521 H 952.524 6.08381 2.96987 0
M  V30 9522 H 957.166 3.18662 2.77874 0
M  V30 9523 H 954.884 7.63673 2.64251 0
M  V30 9524 H 958.47 5.266 2.47354 0
M  V30 9525 H 957.35 7.46309 2.40817 0
M  V30 9526 N 954.853 -1.17469 1.05066 0
M  V30 9527 C 956.269 -1.39699 0.771769 0
M  V30 9528 C 956.469 -1.91253 -0.634382 0
M  V30 9529 O 955.525 -2.10334 -1.39699 0
M  V30 9530 C 956.838 -2.38886 1.82631 0
M  V30 9531 C 958.386 -2.52595 1.84838 0
M  V30 9532 C 958.861 -3.55054 2.89311 0
M  V30 9533 N 960.352 -3.6257 2.88266 0
M  V30 9534 C 961.087 -4.41603 3.65752 0
M  V30 9535 N 960.583 -5.24162 4.53019 0
M  V30 9536 N 962.376 -4.36464 3.54197 0
M  V30 9537 H 954.527 -0.823355 1.95792 0
M  V30 9538 H 956.79 -0.42432 0.847736 0
M  V30 9539 H 956.496 -2.08075 2.83545 0
M  V30 9540 H 956.37 -3.38371 1.66687 0
M  V30 9541 H 958.757 -2.82717 0.845888 0
M  V30 9542 H 958.838 -1.53188 2.04859 0
M  V30 9543 H 958.482 -3.2567 3.89745 0
M  V30 9544 H 958.412 -4.54162 2.66542 0
M  V30 9545 H 960.903 -3.03625 2.24989 0
M  V30 9546 H 961.216 -5.81646 5.0883 0
M  V30 9547 H 959.561 -5.23547 4.57081 0
M  V30 9548 H 962.752 -3.7102 2.85416 0
M  V30 9549 H 962.925 -4.97814 4.14832 0
M  V30 9550 N 956.331 -0.831506 -1.3388 0
M  V30 9551 C 957.281 -0.231656 -2.2682 0
M  V30 9552 C 958.265 0.609075 -1.48926 0
M  V30 9553 O 959.457 0.462249 -1.70857 0
M  V30 9554 C 956.586 0.59846 -3.38043 0
M  V30 9555 C 955.672 -0.253372 -4.23342 0
M  V30 9556 N 956.063 -1.32854 -4.8804 0
M  V30 9557 C 954.361 -0.0391537 -4.45983 0
M  V30 9558 C 955.062 -1.85069 -5.51475 0
M  V30 9559 N 954.038 -1.15327 -5.31226 0
M  V30 9560 H 957.84 -1.05396 -2.74352 0
M  V30 9561 H 955.354 -0.675195 -1.47699 0
M  V30 9562 H 957.351 1.04443 -4.03605 0
M  V30 9563 H 956.011 1.41882 -2.92061 0
M  V30 9564 H 957.022 -1.71139 -4.88806 0
M  V30 9565 H 953.699 0.748356 -4.10738 0
M  V30 9566 H 955.089 -2.75065 -6.13016 0
M  V30 9567 N 957.809 1.4625 -0.587256 0
M  V30 9568 C 958.742 2.27392 0.191837 0
M  V30 9569 C 959.72 1.35905 0.89267 0
M  V30 9570 O 960.904 1.65319 0.905643 0
M  V30 9571 C 958.031 3.13758 1.27567 0
M  V30 9572 C 957.077 4.21041 0.680186 0
M  V30 9573 S 957.91 5.33194 -0.496419 0
M  V30 9574 C 959.066 6.23127 0.588506 0
M  V30 9575 H 959.299 2.93123 -0.496635 0
M  V30 9576 H 956.832 1.49795 -0.37426 0
M  V30 9577 H 958.79 3.6408 1.8962 0
M  V30 9578 H 957.451 2.47332 1.93612 0
M  V30 9579 H 956.644 4.81316 1.49503 0
M  V30 9580 H 956.246 3.73755 0.135227 0
M  V30 9581 H 958.538 6.61294 1.47298 0
M  V30 9582 H 959.481 7.08096 0.0224093 0
M  V30 9583 H 959.889 5.57365 0.894696 0
M  V30 9584 N 959.287 0.325282 1.54207 0
M  V30 9585 C 960.534 -0.276775 2.006 0
M  V30 9586 C 960.862 -1.52007 1.21343 0
M  V30 9587 O 960.117 -1.93627 0.284104 0
M  V30 9588 C 960.416 -0.654292 3.5136 0
M  V30 9589 C 960.082 0.490023 4.48229 0
M  V30 9590 C 958.744 0.804104 4.74434 0
M  V30 9591 C 961.096 1.2586 5.05775 0
M  V30 9592 C 958.424 1.88945 5.55443 0
M  V30 9593 C 960.776 2.33405 5.87967 0
M  V30 9594 C 959.44 2.65393 6.12473 0
M  V30 9595 H 958.71 -0.101279 0.734046 0
M  V30 9596 H 961.357 0.449416 1.86152 0
M  V30 9597 H 959.662 -1.46093 3.63544 0
M  V30 9598 H 961.359 -1.13171 3.84699 0
M  V30 9599 H 957.949 0.235147 4.27954 0
M  V30 9600 H 962.133 1.02921 4.85511 0
M  V30 9601 H 957.389 2.14174 5.7266 0
M  V30 9602 H 961.563 2.93402 6.31576 0
M  V30 9603 H 959.19 3.49622 6.75032 0
M  V30 9604 N 960.765 -1.57509 0.0534917 0
M  V30 9605 C 961.715 -2.08179 -0.929802 0
M  V30 9606 C 962.699 -0.987451 -1.27036 0
M  V30 9607 O 963.891 -1.25076 -1.2524 0
M  V30 9608 C 961.02 -2.63221 -2.20385 0
M  V30 9609 C 960.106 -3.79629 -1.89058 0
M  V30 9610 N 960.497 -4.8931 -1.28101 0
M  V30 9611 C 958.795 -3.88578 -2.18914 0
M  V30 9612 C 959.496 -5.70329 -1.14455 0
M  V30 9613 N 958.472 -5.18011 -1.64821 0
M  V30 9614 H 962.274 -2.90374 -0.453874 0
M  V30 9615 H 959.788 -1.61697 -0.150899 0
M  V30 9616 H 961.785 -2.97827 -2.91727 0
M  V30 9617 H 960.445 -1.82466 -2.68582 0
M  V30 9618 H 961.456 -5.09058 -0.952924 0
M  V30 9619 H 958.133 -3.18769 -2.69616 0
M  V30 9620 H 959.523 -6.6854 -0.671129 0
M  V30 9621 N 962.243 0.219913 -1.56058 0
M  V30 9622 C 963.483 0.951113 -1.80923 0
M  V30 9623 C 963.847 1.81465 -0.627247 0
M  V30 9624 O 965.048 2.57972 -0.755237 0
M  V30 9625 C 963.319 1.76652 -3.10691 0
M  V30 9626 S 964.878 2.55314 -3.56876 0
M  V30 9627 H 961.696 0.319461 -0.635189 0
M  V30 9628 H 964.298 0.216551 -1.94297 0
M  V30 9629 H 963.002 1.12231 -3.94756 0
M  V30 9630 H 962.533 2.54335 -3.00128 0
M  V30 9631 H 964.548 3.78938 -3.20344 0
M  V30 9632 N 963.721 1.49897 0.486681 0
M  V30 9633 C 964.949 1.63837 1.26353 0
M  V30 9634 C 965.364 0.315428 1.86146 0
M  V30 9635 O 964.721 -0.700831 1.68507 0
M  V30 9636 C 964.772 2.71792 2.38351 0
M  V30 9637 O 964.493 3.98956 1.81013 0
M  V30 9638 C 965.994 2.96566 3.2949 0
M  V30 9639 H 963.214 0.551158 0.382709 0
M  V30 9640 H 965.758 1.96023 0.582694 0
M  V30 9641 H 963.913 2.42344 3.02238 0
M  V30 9642 H 964.327 4.58536 2.54647 0
M  V30 9643 H 965.801 3.75803 4.04322 0
M  V30 9644 H 966.278 2.07031 3.87343 0
M  V30 9645 H 966.884 3.27485 2.71355 0
M  V30 9646 N 965.199 -0.738761 1.39212 0
M  V30 9647 C 966.447 -1.49529 1.35962 0
M  V30 9648 C 966.768 -1.94948 -0.0450152 0
M  V30 9649 O 966.038 -1.68717 -0.995552 0
M  V30 9650 H 964.618 -0.554692 0.500326 0
M  V30 9651 H 967.28 -0.877255 1.74041 0
M  V30 9652 H 966.376 -2.37919 2.01993 0
M  V30 9653 N 966.677 -1.24326 -0.968545 0
M  V30 9654 C 967.905 -1.10947 -1.74638 0
M  V30 9655 C 968.32 0.338064 -1.85749 0
M  V30 9656 O 967.677 1.23331 -1.3452 0
M  V30 9657 C 967.728 -1.74254 -3.1673 0
M  V30 9658 O 967.449 -3.13347 -3.06178 0
M  V30 9659 C 968.95 -1.66473 -4.10855 0
M  V30 9660 H 966.17 -0.38767 -0.547679 0
M  V30 9661 H 968.714 -1.64415 -1.21605 0
M  V30 9662 H 966.869 -1.2479 -3.66751 0
M  V30 9663 H 967.283 -3.44255 -3.95713 0
M  V30 9664 H 968.757 -2.15452 -5.08217 0
M  V30 9665 H 969.234 -0.625785 -4.34719 0
M  V30 9666 H 969.84 -2.15359 -3.66743 0
M  V30 9667 N 968.156 1.1691 -1.05688 0
M  V30 9668 C 969.066 2.24735 -0.67315 0
M  V30 9669 C 970.082 1.71252 0.308043 0
M  V30 9670 O 971.258 2.00772 0.158889 0
M  V30 9671 C 968.323 3.4665 -0.059026 0
M  V30 9672 C 967.384 4.15198 -1.0913 0
M  V30 9673 C 966.617 5.31292 -0.50639 0
M  V30 9674 O 966.84 5.663 0.682692 0
M  V30 9675 O 965.774 5.88923 -1.2431 0
M  V30 9676 H 969.6 2.59855 -1.57191 0
M  V30 9677 H 967.185 1.24306 -0.828751 0
M  V30 9678 H 969.067 4.20455 0.282018 0
M  V30 9679 H 967.742 3.13316 0.813304 0
M  V30 9680 H 966.649 3.43389 -1.48442 0
M  V30 9681 H 967.982 4.52571 -1.93495 0
M  V30 9682 N 969.634 0.838594 1.33437 0
M  V30 9683 C 970.566 0.229006 2.28053 0
M  V30 9684 C 971.579 -0.590103 1.51729 0
M  V30 9685 O 972.768 -0.417218 1.73556 0
M  V30 9686 C 969.868 -0.696251 3.31671 0
M  V30 9687 C 969.041 0.0834606 4.3732 0
M  V30 9688 C 968.1 -0.765097 5.20608 0
M  V30 9689 O 967.126 -0.2044 5.68833 0
M  V30 9690 N 968.328 -2.08249 5.4186 0
M  V30 9691 H 971.093 1.04196 2.81004 0
M  V30 9692 H 968.654 0.697031 1.46127 0
M  V30 9693 H 970.646 -1.26889 3.84293 0
M  V30 9694 H 969.216 -1.40992 2.78998 0
M  V30 9695 H 968.436 0.837481 3.85201 0
M  V30 9696 H 969.724 0.619613 5.05013 0
M  V30 9697 H 969.122 -2.56156 5.04381 0
M  V30 9698 H 967.679 -2.60362 5.97541 0
M  V30 9699 N 971.112 -1.45937 0.595003 0
M  V30 9700 C 972.062 -2.27491 -0.152331 0
M  V30 9701 C 973.046 -1.36591 -0.850396 0
M  V30 9702 O 974.238 -1.60675 -0.742462 0
M  V30 9703 C 971.367 -3.23203 -1.15735 0
M  V30 9704 C 970.453 -4.2159 -0.46077 0
M  V30 9705 N 970.844 -5.03416 0.490555 0
M  V30 9706 C 969.142 -4.40313 -0.709949 0
M  V30 9707 C 969.843 -5.74714 0.898825 0
M  V30 9708 N 968.819 -5.43046 0.24529 0
M  V30 9709 H 972.621 -2.8815 0.578526 0
M  V30 9710 H 970.135 -1.56936 0.417716 0
M  V30 9711 H 972.132 -3.8035 -1.70704 0
M  V30 9712 H 970.792 -2.64104 -1.8889 0
M  V30 9713 H 971.803 -5.10597 0.866692 0
M  V30 9714 H 968.48 -3.92351 -1.42713 0
M  V30 9715 H 969.87 -6.50487 1.68273 0
M  V30 9716 N 972.59 -0.333456 -1.54032 0
M  V30 9717 C 973.523 0.570776 -2.20947 0
M  V30 9718 C 974.501 1.10811 -1.18994 0
M  V30 9719 O 975.685 1.17027 -1.47773 0
M  V30 9720 C 972.812 1.7842 -2.87896 0
M  V30 9721 C 971.858 1.37722 -4.03652 0
M  V30 9722 S 972.691 0.405548 -5.33962 0
M  V30 9723 C 973.847 1.62603 -6.0441 0
M  V30 9724 H 974.08 0.0023936 -2.973 0
M  V30 9725 H 971.613 -0.117531 -1.53952 0
M  V30 9726 H 973.571 2.48038 -3.27089 0
M  V30 9727 H 972.232 2.32378 -2.11327 0
M  V30 9728 H 971.425 2.28167 -4.49395 0
M  V30 9729 H 971.027 0.760628 -3.66184 0
M  V30 9730 H 973.319 2.56202 -6.2719 0
M  V30 9731 H 974.262 1.21058 -6.97675 0
M  V30 9732 H 974.67 1.8175 -5.34441 0
M  V30 9733 N 974.068 1.57479 -0.061844 0
M  V30 9734 C 975.316 1.92727 0.608336 0
M  V30 9735 C 975.637 0.941799 1.70749 0
M  V30 9736 O 974.907 -0.0116608 1.95897 0
M  V30 9737 H 973.487 0.71145 0.2277 0
M  V30 9738 H 976.149 1.94546 -0.117359 0
M  V30 9739 H 975.245 2.9426 1.04007 0
M  V30 9740 N 975.546 -0.211634 1.56173 0
M  V30 9741 C 976.823 -0.959467 1.70451 0
M  V30 9742 C 977.203 -2.02036 0.611942 0
M  V30 9743 O 976.551 -2.25325 -0.37959 0
M  V30 9744 C 976.761 -1.56092 3.12148 0
M  V30 9745 C 978.109 -2.04939 3.71867 0
M  V30 9746 O 979.133 -1.65966 3.15172 0
M  V30 9747 O 977.992 -2.766 4.71333 0
M  V30 9748 H 975.086 -0.448844 0.6946 0
M  V30 9749 H 977.632 -0.202633 1.68486 0
M  V30 9750 H 976.404 -0.79538 3.83131 0
M  V30 9751 H 976.027 -2.38303 3.18273 0
M  V30 9752 N 977.024 -1.50153 -0.478725 0
M  V30 9753 C 978.264 -1.62393 -1.24129 0
M  V30 9754 C 978.628 -0.313774 -1.89419 0
M  V30 9755 O 979.829 -0.311537 -2.66989 0
M  V30 9756 C 978.1 -2.76633 -2.26293 0
M  V30 9757 S 979.659 -3.08961 -3.11591 0
M  V30 9758 H 976.477 -0.572559 -0.421541 0
M  V30 9759 H 979.079 -1.87906 -0.539592 0
M  V30 9760 H 977.783 -3.70319 -1.76896 0
M  V30 9761 H 977.314 -2.53182 -3.01102 0
M  V30 9762 H 979.329 -2.52197 -4.2733 0
M  V30 9763 N 978.502 0.731368 -1.39602 0
M  V30 9764 C 979.913 1.30981 -1.33045 0
M  V30 9765 C 980.264 1.962 0.00349918 0
M  V30 9766 O 979.389 1.96539 0.905615 0
M  V30 9767 C 979.984 2.3817 -2.40958 0
M  V30 9768 C 978.543 2.91678 -2.3791 0
M  V30 9769 C 977.69 1.65286 -2.22656 0
M  V30 9770 H 980.641 0.528615 -1.49637 0
M  V30 9771 H 980.662 3.18645 -2.07955 0
M  V30 9772 H 980.174 1.90673 -3.38032 0
M  V30 9773 H 978.275 3.43446 -1.44485 0
M  V30 9774 H 978.388 3.44545 -3.32904 0
M  V30 9775 H 976.752 1.89759 -1.69893 0
M  V30 9776 H 977.535 1.19836 -3.21705 0
M  V30 9777 N 979.98 1.24838 0.961938 0
M  V30 9778 C 981.226 1.09313 1.70817 0
M  V30 9779 C 981.559 -0.366244 1.90715 0
M  V30 9780 O 980.834 -1.27036 1.47282 0
M  V30 9781 C 981.117 1.83988 3.09549 0
M  V30 9782 C 980.97 3.3771 2.97106 0
M  V30 9783 C 982.289 1.61718 4.09311 0
M  V30 9784 H 979.408 0.398498 0.619974 0
M  V30 9785 H 982.05 1.53579 1.11864 0
M  V30 9786 H 980.2 1.46363 3.59875 0
M  V30 9787 H 981.872 3.84967 2.54161 0
M  V30 9788 H 980.115 3.65795 2.33187 0
M  V30 9789 H 980.786 3.85166 3.95412 0
M  V30 9790 H 983.262 1.94458 3.67866 0
M  V30 9791 H 982.138 2.16415 5.04436 0
M  V30 9792 H 982.399 0.55677 4.3858 0
M  V30 9793 N 981.458 -1.16348 1.06306 0
M  V30 9794 C 982.686 -1.90782 0.800614 0
M  V30 9795 C 983.101 -1.77439 -0.645033 0
M  V30 9796 O 982.458 -1.11912 -1.4416 0
M  V30 9797 C 982.509 -3.41484 1.18621 0
M  V30 9798 O 982.23 -3.54428 2.57512 0
M  V30 9799 C 983.731 -4.32968 0.951525 0
M  V30 9800 H 980.951 -0.604977 0.290247 0
M  V30 9801 H 983.495 -1.47476 1.41672 0
M  V30 9802 H 981.65 -3.82493 0.614633 0
M  V30 9803 H 982.064 -4.4788 2.72954 0
M  V30 9804 H 983.538 -5.37169 1.27095 0
M  V30 9805 H 984.015 -4.39055 -0.112734 0
M  V30 9806 H 984.621 -3.97687 1.50749 0
M  V30 9807 N 982.937 -0.845659 -1.3299 0
M  V30 9808 C 983.9 -0.288905 -2.27372 0
M  V30 9809 C 984.9 0.546263 -1.51237 0
M  V30 9810 O 986.09 0.359072 -1.70459 0
M  V30 9811 C 983.222 0.59224 -3.35716 0
M  V30 9812 H 984.415 -1.12181 -2.78128 0
M  V30 9813 H 981.968 -0.619276 -1.43508 0
M  V30 9814 H 982.703 1.44732 -2.90212 0
M  V30 9815 H 982.488 -0.00543255 -3.921 0
M  V30 9816 H 983.978 0.974848 -4.06062 0
M  V30 9817 N 984.415 1.45619 -0.602734 0
M  V30 9818 C 985.345 2.33258 0.106342 0
M  V30 9819 C 986.326 1.46543 0.863664 0
M  V30 9820 O 987.511 1.75324 0.835175 0
M  V30 9821 C 984.641 3.29168 1.10751 0
M  V30 9822 C 983.595 4.25481 0.463717 0
M  V30 9823 C 982.921 5.11046 1.57278 0
M  V30 9824 C 984.221 5.18702 -0.61199 0
M  V30 9825 H 985.915 2.92795 -0.625423 0
M  V30 9826 H 983.461 1.40793 -0.302213 0
M  V30 9827 H 985.414 3.89346 1.61208 0
M  V30 9828 H 984.138 2.6778 1.8698 0
M  V30 9829 H 982.797 3.66595 -0.0199496 0
M  V30 9830 H 982.445 4.46029 2.32524 0
M  V30 9831 H 982.145 5.76286 1.14755 0
M  V30 9832 H 983.669 5.74091 2.07972 0
M  V30 9833 H 985.083 5.72979 -0.191686 0
M  V30 9834 H 983.48 5.92393 -0.958686 0
M  V30 9835 H 984.55 4.61424 -1.4905 0
M  V30 9836 N 985.893 0.34162 1.53853 0
M  V30 9837 C 987.141 -0.254979 2.00485 0
M  V30 9838 C 987.462 -1.51222 1.23114 0
M  V30 9839 O 986.732 -1.92966 0.337787 0
M  V30 9840 H 985.312 -0.0972084 0.740648 0
M  V30 9841 H 987.974 0.462332 1.89337 0
M  V30 9842 H 987.07 -0.498778 3.08089 0
M  V30 9843 N 987.371 -1.57444 0.0701946 0
M  V30 9844 C 988.334 -2.11511 -0.882923 0
M  V30 9845 C 989.334 -1.03879 -1.22743 0
M  V30 9846 O 990.524 -1.29874 -1.16097 0
M  V30 9847 C 987.656 -2.61514 -2.18686 0
M  V30 9848 H 988.849 -2.9703 -0.413873 0
M  V30 9849 H 986.402 -1.55278 -0.178488 0
M  V30 9850 H 987.137 -1.79443 -2.70131 0
M  V30 9851 H 986.922 -3.40185 -1.94978 0
M  V30 9852 H 988.412 -3.03425 -2.86919 0
M  V30 9853 N 988.849 0.203349 -1.56283 0
M  V30 9854 C 990.074 0.945548 -1.84592 0
M  V30 9855 C 990.499 1.7641 -0.652772 0
M  V30 9856 O 989.857 1.76867 0.398468 0
M  V30 9857 C 989.905 1.82416 -3.11057 0
M  V30 9858 O 989.009 2.92191 -2.9103 0
M  V30 9859 H 988.35 0.266739 -0.608068 0
M  V30 9860 H 990.88 0.211158 -2.03507 0
M  V30 9861 H 990.89 2.23044 -3.41636 0
M  V30 9862 H 989.565 1.22267 -3.97522 0
M  V30 9863 H 988.142 2.55378 -2.71728 0
M  V30 9864 N 990.327 1.50405 0.470755 0
M  V30 9865 C 991.257 1.72222 1.57676 0
M  V30 9866 C 992.238 0.57121 1.60222 0
M  V30 9867 O 993.423 0.810381 1.76484 0
M  V30 9868 C 990.553 1.81666 2.95998 0
M  V30 9869 C 989.507 2.96857 3.08318 0
M  V30 9870 C 988.833 2.91445 4.4829 0
M  V30 9871 C 990.133 4.37361 2.85504 0
M  V30 9872 H 991.827 2.64825 1.39671 0
M  V30 9873 H 989.373 1.27438 0.67049 0
M  V30 9874 H 991.326 1.95514 3.73299 0
M  V30 9875 H 990.05 0.856856 3.1516 0
M  V30 9876 H 988.709 2.82661 2.33449 0
M  V30 9877 H 988.357 1.93309 4.64371 0
M  V30 9878 H 988.057 3.68776 4.57469 0
M  V30 9879 H 989.581 3.07341 5.27611 0
M  V30 9880 H 990.995 4.52081 3.52555 0
M  V30 9881 H 989.392 5.16145 3.06127 0
M  V30 9882 H 990.462 4.49708 1.81359 0
M  V30 9883 N 991.805 -0.723954 1.39988 0
M  V30 9884 C 993.045 -1.49624 1.39255 0
M  V30 9885 C 993.409 -1.91998 -0.00860198 0
M  V30 9886 O 994.61 -2.6843 -0.141002 0
M  V30 9887 C 992.881 -2.69514 2.34728 0
M  V30 9888 S 994.44 -3.59027 2.5228 0
M  V30 9889 H 991.258 -0.511661 0.493685 0
M  V30 9890 H 993.86 -0.847322 1.76184 0
M  V30 9891 H 992.564 -2.36541 3.35375 0
M  V30 9892 H 992.095 -3.39325 1.99053 0
M  V30 9893 H 994.11 -4.63597 1.76896 0
M  V30 9894 N 993.283 -1.25346 -0.955304 0
M  V30 9895 C 994.694 -1.09173 -1.51453 0
M  V30 9896 C 995.045 0.332755 -1.93358 0
M  V30 9897 O 994.17 1.22264 -1.78551 0
M  V30 9898 C 994.765 -1.97564 -2.75234 0
M  V30 9899 C 993.324 -1.85579 -3.27471 0
M  V30 9900 C 992.471 -1.91755 -2.00313 0
M  V30 9901 H 995.422 -1.38642 -0.772271 0
M  V30 9902 H 995.443 -1.51523 -3.49029 0
M  V30 9903 H 994.955 -3.01233 -2.44704 0
M  V30 9904 H 993.056 -0.847906 -3.62824 0
M  V30 9905 H 993.169 -2.70353 -3.95533 0
M  V30 9906 H 991.533 -1.35633 -2.15582 0
M  V30 9907 H 992.316 -2.97028 -1.72132 0
M  V30 9908 N 994.761 1.15782 -1.06922 0
M  V30 9909 C 995.986 1.90896 -0.810771 0
M  V30 9910 C 996.411 1.77246 0.629714 0
M  V30 9911 O 995.769 1.10215 1.43953 0
M  V30 9912 C 995.817 3.39397 -1.21829 0
M  V30 9913 O 994.921 4.10818 -0.360934 0
M  V30 9914 H 994.262 0.594497 -0.295752 0
M  V30 9915 H 996.792 1.46652 -1.42669 0
M  V30 9916 H 996.802 3.90181 -1.19259 0
M  V30 9917 H 995.477 3.4865 -2.2675 0
M  V30 9918 H 994.054 3.7019 -0.448748 0
M  V30 9919 N 996.239 0.8527 1.3254 0
M  V30 9920 C 997.149 0.298744 2.3269 0
M  V30 9921 C 998.165 -0.582418 1.63963 0
M  V30 9922 O 999.341 -0.483253 1.95516 0
M  V30 9923 C 996.406 -0.505453 3.42996 0
M  V30 9924 C 995.467 0.401618 4.27417 0
M  V30 9925 C 994.7 -0.364294 5.32455 0
M  V30 9926 O 994.923 -1.59448 5.47661 0
M  V30 9927 O 993.857 0.268892 6.01299 0
M  V30 9928 H 997.683 1.12843 2.81958 0
M  V30 9929 H 995.268 0.615584 1.36128 0
M  V30 9930 H 997.15 -0.961974 4.10273 0
M  V30 9931 H 995.825 -1.31197 2.95921 0
M  V30 9932 H 994.732 0.906274 3.62957 0
M  V30 9933 H 996.065 1.17327 4.78012 0
M  V30 9934 N 997.718 -1.45297 0.610449 0
M  V30 9935 C 998.65 -2.28742 -0.144884 0
M  V30 9936 C 999.663 -1.40114 -0.828977 0
M  V30 9937 O 1000.85 -1.64461 -0.693887 0
M  V30 9938 C 997.952 -3.15934 -1.22632 0
M  V30 9939 C 997.125 -4.32857 -0.628785 0
M  V30 9940 C 996.184 -5.01237 -1.60148 0
M  V30 9941 O 995.21 -5.57938 -1.12667 0
M  V30 9942 N 996.412 -5.00785 -2.9359 0
M  V30 9943 H 999.177 -2.94207 0.571145 0
M  V30 9944 H 996.738 -1.55517 0.450134 0
M  V30 9945 H 998.73 -3.58545 -1.87691 0
M  V30 9946 H 997.3 -2.52358 -1.84483 0
M  V30 9947 H 996.52 -3.93693 0.199951 0
M  V30 9948 H 997.808 -5.08367 -0.209845 0
M  V30 9949 H 997.206 -4.56014 -3.34765 0
M  V30 9950 H 995.763 -5.4725 -3.54064 0
M  V30 9951 N 999.196 -0.349774 -1.5367 0
M  V30 9952 C 1000.44 0.245189 -2.01312 0
M  V30 9953 C 1000.77 1.49702 -1.23705 0
M  V30 9954 O 1000.05 1.91742 -0.326371 0
M  V30 9955 C 1000.33 0.553071 -3.55827 0
M  V30 9956 C 1000.19 -0.71129 -4.4414 0
M  V30 9957 C 1001.5 1.36015 -4.18555 0
M  V30 9958 H 998.624 0.0876415 -0.73177 0
M  V30 9959 H 1001.27 -0.471543 -1.84056 0
M  V30 9960 H 999.416 1.16367 -3.70663 0
M  V30 9961 H 1001.09 -1.34913 -4.41131 0
M  V30 9962 H 999.331 -1.33491 -4.1275 0
M  V30 9963 H 1000 -0.45104 -5.50154 0
M  V30 9964 H 1002.48 0.843778 -4.07455 0
M  V30 9965 H 1001.35 1.54432 -5.26728 0
M  V30 9966 H 1001.61 2.36408 -3.73582 0
M  V30 9967 N 1000.67 1.57404 -0.0785433 0
M  V30 9968 C 1001.64 2.11977 0.871693 0
M  V30 9969 C 1002.64 1.04529 1.2219 0
M  V30 9970 O 1003.83 1.30488 1.15406 0
M  V30 9971 C 1000.96 2.6267 2.17296 0
M  V30 9972 H 1002.15 2.97246 0.398115 0
M  V30 9973 H 999.705 1.5537 0.170251 0
M  V30 9974 H 1000.44 1.80873 2.69175 0
M  V30 9975 H 1000.22 3.41214 1.93171 0
M  V30 9976 H 1001.71 3.04943 2.85306 0
M  V30 9977 N 1002.15 -0.195058 1.56388 0
M  V30 9978 C 1003.38 -0.935745 1.85091 0
M  V30 9979 C 1003.8 -1.76061 0.662118 0
M  V30 9980 O 1003.16 -1.77076 -0.389083 0
M  V30 9981 C 1003.21 -1.80764 3.1202 0
M  V30 9982 O 1002.31 -2.90643 2.92575 0
M  V30 9983 H 1001.65 -0.26351 0.609474 0
M  V30 9984 H 1004.18 -0.200362 2.03617 0
M  V30 9985 H 1004.19 -2.21229 3.42815 0
M  V30 9986 H 1002.87 -1.20157 3.98165 0
M  V30 9987 H 1001.44 -2.53934 2.73079 0
M  V30 9988 N 1003.63 -1.50653 -0.462772 0
M  V30 9989 C 1004.88 -1.62297 -1.21603 0
M  V30 9990 C 1005.21 -0.326191 -1.91441 0
M  V30 9991 O 1004.48 0.67284 -1.82491 0
M  V30 9992 C 1004.77 -2.80901 -2.25315 0
M  V30 9993 C 1004.62 -4.20484 -1.59728 0
M  V30 9994 C 1005.94 -2.95049 -3.26549 0
M  V30 9995 H 1003.06 -0.590691 -0.440741 0
M  V30 9996 H 1005.7 -1.83064 -0.508675 0
M  V30 9997 H 1003.85 -2.63325 -2.85643 0
M  V30 9998 H 1005.52 -4.49669 -1.02932 0
M  V30 9999 H 1003.76 -4.24357 -0.900181 0
M  V30 10000 H 1004.44 -4.99416 -2.35133 0
M  V30 10001 H 1006.91 -3.11166 -2.76251 0
M  V30 10002 H 1005.79 -3.79645 -3.96435 0
M  V30 10003 H 1006.05 -2.06019 -3.91163 0
M  V30 10004 N 1005.11 0.71652 -1.4037 0
M  V30 10005 C 1006.36 1.47193 -1.37903 0
M  V30 10006 C 1006.67 1.95593 0.0159939 0
M  V30 10007 O 1007.88 2.71009 0.163282 0
M  V30 10008 C 1006.33 2.6606 -2.42363 0
M  V30 10009 C 1005.94 2.24533 -3.87671 0
M  V30 10010 C 1007.68 3.438 -2.49001 0
M  V30 10011 C 1005.59 3.40234 -4.8373 0
M  V30 10012 H 1004.52 0.552811 -0.512753 0
M  V30 10013 H 1007.17 0.779894 -1.66102 0
M  V30 10014 H 1005.55 3.37429 -2.07262 0
M  V30 10015 H 1006.73 1.6059 -4.31911 0
M  V30 10016 H 1005.04 1.59839 -3.845 0
M  V30 10017 H 1007.64 4.29893 -3.17956 0
M  V30 10018 H 1007.98 3.8755 -1.52023 0
M  V30 10019 H 1008.52 2.79474 -2.83088 0
M  V30 10020 H 1005.26 3.01517 -5.82037 0
M  V30 10021 H 1004.78 4.03095 -4.44156 0
M  V30 10022 H 1006.45 4.06312 -5.03507 0
M  V30 10023 N 1006.59 1.25851 0.948643 0
M  V30 10024 C 1007.83 1.12166 1.70874 0
M  V30 10025 C 1008.19 -0.330734 1.8913 0
M  V30 10026 O 1009.39 -0.58954 2.62255 0
M  V30 10027 C 1007.66 1.86162 3.05088 0
M  V30 10028 S 1009.22 1.88441 3.96277 0
M  V30 10029 H 1006.04 0.400803 0.587263 0
M  V30 10030 H 1008.64 1.59463 1.13101 0
M  V30 10031 H 1007.35 2.90916 2.89476 0
M  V30 10032 H 1006.88 1.39276 3.67921 0
M  V30 10033 H 1008.89 0.96575 4.86711 0
M  V30 10034 N 1008.06 -1.15214 1.07534 0
M  V30 10035 C 1009.29 -1.90463 0.820883 0
M  V30 10036 C 1009.71 -1.77578 -0.620305 0
M  V30 10037 O 1009.07 -1.10976 -1.43366 0
M  V30 10038 C 1009.12 -3.38746 1.23627 0
M  V30 10039 O 1008.22 -4.1062 0.382715 0
M  V30 10040 H 1007.57 -0.59292 0.298901 0
M  V30 10041 H 1010.1 -1.45893 1.43445 0
M  V30 10042 H 1010.11 -3.89543 1.21327 0
M  V30 10043 H 1008.78 -3.47443 2.28596 0
M  V30 10044 H 1007.36 -3.69947 0.468374 0
M  V30 10045 N 1009.54 -0.859717 -1.32086 0
M  V30 10046 C 1010.79 -0.464662 -1.96686 0
M  V30 10047 C 1011.11 0.98412 -1.68345 0
M  V30 10048 O 1010.38 1.68847 -0.993361 0
M  V30 10049 H 1008.96 -0.168838 -0.727669 0
M  V30 10050 H 1011.62 -1.09726 -1.61079 0
M  V30 10051 H 1010.72 -0.613904 -3.06003 0
M  V30 10052 N 1011.02 1.44971 -0.618145 0
M  V30 10053 C 1011.97 2.32354 0.106846 0
M  V30 10054 C 1012.96 1.4659 0.848984 0
M  V30 10055 O 1014.17 1.63012 0.763354 0
M  V30 10056 H 1010.54 0.750108 0.0533109 0
M  V30 10057 H 1012.51 2.9127 -0.648426 0
M  V30 10058 C 1011.26 3.30381 1.08368 0
M  V30 10059 H 1010.59 3.96377 0.52205 0
M  V30 10060 H 1012.03 3.94231 1.56069 0
M  V30 10061 C 1010.49 2.58336 2.1625 0
M  V30 10062 O 1011.02 2.37258 3.24148 0
M  V30 10063 N 1009.22 2.18292 1.91825 0
M  V30 10064 H 1008.77 2.35635 1.04086 0
M  V30 10065 H 1008.73 1.70413 2.6421 0
M  V30 10066 N 1012.5 0.357919 1.53482 0
M  V30 10067 C 1013.43 -0.526753 2.23065 0
M  V30 10068 C 1014.44 -1.05239 1.24212 0
M  V30 10069 O 1015.63 -0.960078 1.50482 0
M  V30 10070 C 1012.73 -1.73919 2.9087 0
M  V30 10071 C 1011.91 -1.34638 4.16163 0
M  V30 10072 C 1010.96 -2.42005 4.67247 0
M  V30 10073 O 1009.99 -2.04714 5.31113 0
M  V30 10074 N 1011.19 -3.73478 4.44404 0
M  V30 10075 H 1013.96 0.0692386 2.9962 0
M  V30 10076 H 1011.52 0.182726 1.60866 0
M  V30 10077 H 1013.51 -2.45207 3.21956 0
M  V30 10078 H 1012.08 -2.24223 2.17814 0
M  V30 10079 H 1011.3 -0.463667 3.91464 0
M  V30 10080 H 1012.59 -1.06012 4.97633 0
M  V30 10081 H 1011.99 -4.06555 3.93357 0
M  V30 10082 H 1010.54 -4.40893 4.80059 0
M  V30 10083 N 1013.98 -1.5736 0.0868897 0
M  V30 10084 C 1015.2 -1.98809 -0.590757 0
M  V30 10085 C 1015.63 -0.965407 -1.61436 0
M  V30 10086 O 1014.98 0.067143 -1.81176 0
M  V30 10087 C 1015.03 -3.39249 -1.22238 0
M  V30 10088 O 1014.14 -3.39706 -2.33824 0
M  V30 10089 H 1013.48 -0.64669 -0.150626 0
M  V30 10090 H 1016.01 -2.03927 0.165873 0
M  V30 10091 H 1016.02 -3.76765 -1.56564 0
M  V30 10092 H 1014.69 -4.13208 -0.472434 0
M  V30 10093 H 1013.27 -3.13977 -2.01178 0
M  V30 10094 N 1015.45 0.186762 -1.56489 0
M  V30 10095 C 1016.39 1.25565 -1.91745 0
M  V30 10096 C 1017.4 1.4128 -0.80894 0
M  V30 10097 O 1018.59 1.41558 -1.08737 0
M  V30 10098 C 1015.69 2.62662 -2.14154 0
M  V30 10099 C 1014.86 2.68448 -3.45333 0
M  V30 10100 C 1013.92 3.86798 -3.56754 0
M  V30 10101 O 1012.95 3.73514 -4.29507 0
M  V30 10102 N 1014.15 5.02607 -2.90459 0
M  V30 10103 H 1016.91 0.956351 -2.84032 0
M  V30 10104 H 1014.47 0.376631 -1.57458 0
M  V30 10105 H 1016.47 3.40277 -2.19075 0
M  V30 10106 H 1015.04 2.85046 -1.28326 0
M  V30 10107 H 1014.26 1.77044 -3.52206 0
M  V30 10108 H 1015.54 2.69311 -4.31682 0
M  V30 10109 H 1014.94 5.163 -2.31194 0
M  V30 10110 H 1013.5 5.78139 -3.00996 0
M  V30 10111 N 1016.93 1.50896 0.454776 0
M  V30 10112 C 1018.16 1.6648 1.22849 0
M  V30 10113 C 1018.58 0.354841 1.85435 0
M  V30 10114 O 1017.93 -0.664931 1.69956 0
M  V30 10115 C 1017.98 2.76787 2.32532 0
M  V30 10116 O 1017.7 4.02706 1.72509 0
M  V30 10117 C 1019.21 3.03488 3.23125 0
M  V30 10118 H 1016.43 0.559152 0.370932 0
M  V30 10119 H 1018.97 1.97215 0.540983 0
M  V30 10120 H 1017.12 2.48701 2.9703 0
M  V30 10121 H 1017.54 4.63834 2.44863 0
M  V30 10122 H 1019.01 3.84294 3.9626 0
M  V30 10123 H 1019.49 2.152 3.82865 0
M  V30 10124 H 1020.1 3.33167 2.64347 0
M  V30 10125 N 1018.41 -0.709066 1.40748 0
M  V30 10126 C 1019.34 -1.83583 1.4429 0
M  V30 10127 C 1020.32 -1.67378 0.303067 0
M  V30 10128 O 1021.51 -1.87312 0.512612 0
M  V30 10129 C 1018.64 -3.21599 1.31116 0
M  V30 10130 C 1017.59 -3.52486 2.4277 0
M  V30 10131 C 1016.92 -4.89716 2.14668 0
M  V30 10132 C 1018.22 -3.52824 3.85113 0
M  V30 10133 H 1019.91 -1.80876 2.38588 0
M  V30 10134 H 1017.46 -0.868795 1.14839 0
M  V30 10135 H 1019.41 -4.00123 1.32209 0
M  V30 10136 H 1018.13 -3.24898 0.332965 0
M  V30 10137 H 1016.79 -2.76305 2.40937 0
M  V30 10138 H 1016.44 -4.89625 1.15224 0
M  V30 10139 H 1016.14 -5.11347 2.89478 0
M  V30 10140 H 1017.66 -5.70566 2.17455 0
M  V30 10141 H 1019.08 -4.21377 3.88734 0
M  V30 10142 H 1017.48 -3.85984 4.59496 0
M  V30 10143 H 1018.55 -2.52073 4.14231 0
M  V30 10144 N 1019.89 -1.26353 -0.941956 0
M  V30 10145 C 1021.11 -1.14731 -1.72776 0
M  V30 10146 C 1021.54 0.293766 -1.85792 0
M  V30 10147 O 1020.9 1.21284 -1.34759 0
M  V30 10148 C 1020.95 -1.82041 -3.11277 0
M  V30 10149 O 1020.05 -1.10867 -3.97218 0
M  V30 10150 H 1019.39 -0.399823 -0.53013 0
M  V30 10151 H 1021.92 -1.67157 -1.17981 0
M  V30 10152 H 1021.93 -1.88834 -3.61671 0
M  V30 10153 H 1020.61 -2.86879 -3.0112 0
M  V30 10154 H 1019.18 -1.12044 -3.55669 0
M  V30 10155 N 1021.37 1.14642 -1.08144 0
M  V30 10156 C 1022.59 1.90025 -0.830972 0
M  V30 10157 C 1023.02 1.77904 0.610879 0
M  V30 10158 O 1022.38 1.11735 1.42776 0
M  V30 10159 C 1022.42 3.38085 -1.25422 0
M  V30 10160 O 1021.53 4.10412 -0.404486 0
M  V30 10161 H 1020.87 0.591327 -0.302041 0
M  V30 10162 H 1023.4 1.4513 -1.44216 0
M  V30 10163 H 1023.41 3.88894 -1.23391 0
M  V30 10164 H 1022.08 3.46226 -2.30435 0
M  V30 10165 H 1020.66 3.69693 -0.487987 0
M  V30 10166 N 1022.85 0.866709 1.31628 0
M  V30 10167 C 1024.09 0.482479 1.98624 0
M  V30 10168 C 1024.45 -0.946844 1.6703 0
M  V30 10169 O 1025.65 -1.43626 2.27212 0
M  V30 10170 C 1023.92 0.728582 3.49895 0
M  V30 10171 S 1025.48 0.443724 4.36551 0
M  V30 10172 H 1022.3 0.180238 0.687776 0
M  V30 10173 H 1024.9 1.12203 1.60096 0
M  V30 10174 H 1023.6 1.76769 3.70379 0
M  V30 10175 H 1023.14 0.075903 3.93327 0
M  V30 10176 H 1025.15 -0.72534 4.9087 0
M  V30 10177 N 1024.32 -1.44642 0.625825 0
M  V30 10178 C 1025.27 -2.32408 -0.0945221 0
M  V30 10179 C 1026.27 -1.47038 -0.841198 0
M  V30 10180 O 1027.47 -1.63415 -0.754698 0
M  V30 10181 H 1023.85 -0.75038 -0.0493321 0
M  V30 10182 H 1025.82 -2.90922 0.663863 0
M  V30 10183 C 1024.57 -3.30951 -1.06615 0
M  V30 10184 H 1023.89 -3.96648 -0.501021 0
M  V30 10185 H 1025.33 -3.95054 -1.53976 0
M  V30 10186 C 1023.79 -2.59479 -2.14877 0
M  V30 10187 O 1024.32 -2.38974 -3.22885 0
M  V30 10188 N 1022.52 -2.19307 -1.90665 0
M  V30 10189 H 1022.07 -2.36184 -1.02835 0
M  V30 10190 H 1022.03 -1.71811 -2.63303 0
M  V30 10191 N 1025.8 -0.366053 -1.5329 0
M  V30 10192 C 1027.03 0.226839 -2.06156 0
M  V30 10193 C 1027.45 1.41637 -1.23776 0
M  V30 10194 O 1026.81 1.7947 -0.256948 0
M  V30 10195 C 1026.86 0.597956 -3.55608 0
M  V30 10196 O 1025.96 1.69512 -3.75951 0
M  V30 10197 H 1025.3 0.0329156 -0.663184 0
M  V30 10198 H 1027.83 -0.526793 -1.97702 0
M  V30 10199 H 1027.84 0.868831 -3.98642 0
M  V30 10200 H 1026.52 -0.271838 -4.15011 0
M  V30 10201 H 1025.09 1.41976 -3.44815 0
M  V30 10202 N 1027.28 1.57312 -0.0952337 0
M  V30 10203 C 1028.5 1.99119 0.580206 0
M  V30 10204 C 1028.93 0.973955 1.60922 0
M  V30 10205 O 1028.29 -0.0575338 1.81209 0
M  V30 10206 C 1028.34 3.39893 1.20438 0
M  V30 10207 O 1027.44 3.40941 2.32019 0
M  V30 10208 H 1026.78 0.64748 0.147195 0
M  V30 10209 H 1029.31 2.03836 -0.176686 0
M  V30 10210 H 1029.32 3.7759 1.54564 0
M  V30 10211 H 1028 4.13453 0.450514 0
M  V30 10212 H 1026.57 3.1504 1.9951 0
M  V30 10213 N 1028.76 -0.17846 1.56586 0
M  V30 10214 C 1029.98 -0.916061 1.86073 0
M  V30 10215 C 1030.41 -1.75349 0.680754 0
M  V30 10216 O 1029.77 -1.77479 -0.37028 0
M  V30 10217 C 1029.81 -1.77445 3.1392 0
M  V30 10218 O 1028.92 -2.87524 2.95641 0
M  V30 10219 H 1028.26 -0.257031 0.612234 0
M  V30 10220 H 1030.79 -0.178755 2.03818 0
M  V30 10221 H 1030.8 -2.1758 3.45142 0
M  V30 10222 H 1029.47 -1.15927 3.99417 0
M  V30 10223 H 1028.05 -2.51023 2.75757 0
M  V30 10224 N 1030.24 -1.51135 -0.446768 0
M  V30 10225 C 1031.17 -1.74709 -1.54916 0
M  V30 10226 C 1032.15 -0.596628 -1.59293 0
M  V30 10227 O 1033.33 -0.838356 -1.75172 0
M  V30 10228 C 1030.46 -1.86353 -2.9307 0
M  V30 10229 C 1029.42 -3.01725 -3.03556 0
M  V30 10230 C 1028.74 -2.9854 -4.43597 0
M  V30 10231 C 1030.04 -4.41848 -2.7851 0
M  V30 10232 H 1031.74 -2.67014 -1.3544 0
M  V30 10233 H 1029.28 -1.28489 -0.650131 0
M  V30 10234 H 1031.23 -2.01428 -3.70141 0
M  V30 10235 H 1029.96 -0.906887 -3.13756 0
M  V30 10236 H 1028.62 -2.86339 -2.28922 0
M  V30 10237 H 1028.27 -2.00673 -4.61237 0
M  V30 10238 H 1027.97 -3.76008 -4.51544 0
M  V30 10239 H 1029.49 -3.15696 -5.22655 0
M  V30 10240 H 1030.9 -4.57633 -3.45319 0
M  V30 10241 H 1029.3 -5.2095 -2.97877 0
M  V30 10242 H 1030.37 -4.52536 -1.74182 0
M  V30 10243 N 1031.71 0.701592 -1.41122 0
M  V30 10244 C 1032.96 1.45871 -1.39879 0
M  V30 10245 C 1033.28 1.94999 -0.00668769 0
M  V30 10246 O 1032.55 1.71298 0.95047 0
M  V30 10247 H 1031.13 0.541231 -0.514857 0
M  V30 10248 H 1033.79 0.830803 -1.76306 0
M  V30 10249 H 1032.89 2.32479 -2.0823 0
M  V30 10250 N 1033.19 1.2685 0.935242 0
M  V30 10251 C 1034.6 1.11569 1.49697 0
M  V30 10252 C 1034.95 -0.301952 1.93863 0
M  V30 10253 O 1034.08 -1.19408 1.80473 0
M  V30 10254 C 1034.67 2.01918 2.72056 0
M  V30 10255 C 1033.23 1.90765 3.24477 0
M  V30 10256 C 1032.38 1.94918 1.97237 0
M  V30 10257 H 1035.33 1.39853 0.750116 0
M  V30 10258 H 1035.35 1.57056 3.46574 0
M  V30 10259 H 1034.86 3.05088 2.39881 0
M  V30 10260 H 1032.96 0.905521 3.61429 0
M  V30 10261 H 1033.08 2.76611 3.91182 0
M  V30 10262 H 1031.44 1.39046 2.13397 0
M  V30 10263 H 1032.22 2.99729 1.67385 0
M  V30 10264 N 1034.67 -1.14067 1.0875 0
M  V30 10265 C 1035.9 -1.89041 0.840902 0
M  V30 10266 C 1036.31 -1.78768 -0.60725 0
M  V30 10267 O 1035.67 -1.14945 -1.41753 0
M  V30 10268 C 1035.72 -3.38891 1.25838 0
M  V30 10269 O 1035.44 -3.48886 2.64972 0
M  V30 10270 C 1036.94 -4.30852 1.04315 0
M  V30 10271 H 1034.16 -0.598685 0.303014 0
M  V30 10272 H 1036.71 -1.44438 1.44769 0
M  V30 10273 H 1034.86 -3.81103 0.695627 0
M  V30 10274 H 1035.28 -4.41989 2.82393 0
M  V30 10275 H 1036.75 -5.34353 1.38461 0
M  V30 10276 H 1037.23 -4.39196 -0.0195784 0
M  V30 10277 H 1037.83 -3.944 1.59151 0
M  V30 10278 N 1036.15 -0.873678 -1.31166 0
M  V30 10279 C 1037.56 -0.566109 -1.49223 0
M  V30 10280 C 1037.76 0.898889 -1.80339 0
M  V30 10281 O 1036.82 1.68084 -1.88425 0
M  V30 10282 C 1038.13 -1.46952 -2.62346 0
M  V30 10283 C 1039.68 -1.47195 -2.76229 0
M  V30 10284 C 1040.16 -2.36102 -3.92454 0
M  V30 10285 N 1041.65 -2.34003 -3.99746 0
M  V30 10286 C 1042.38 -2.99513 -4.88958 0
M  V30 10287 N 1041.88 -3.74206 -5.83045 0
M  V30 10288 N 1043.67 -2.88802 -4.82234 0
M  V30 10289 H 1035.82 -1.82156 -1.09239 0
M  V30 10290 H 1038.09 -0.779086 -0.54012 0
M  V30 10291 H 1037.79 -2.51213 -2.4614 0
M  V30 10292 H 1037.67 -1.17077 -3.5857 0
M  V30 10293 H 1040.05 -0.436902 -2.91848 0
M  V30 10294 H 1040.13 -1.81095 -1.80661 0
M  V30 10295 H 1039.78 -3.39685 -3.77593 0
M  V30 10296 H 1039.71 -1.99524 -4.87337 0
M  V30 10297 H 1042.2 -1.79713 -3.32433 0
M  V30 10298 H 1042.51 -4.21312 -6.47855 0
M  V30 10299 H 1040.86 -3.78314 -5.83012 0
M  V30 10300 H 1044.05 -2.29984 -4.07707 0
M  V30 10301 H 1044.22 -3.40136 -5.51554 0
M  V30 10302 N 1037.63 1.44308 -0.633487 0
M  V30 10303 C 1039.04 1.85387 -0.221009 0
M  V30 10304 C 1039.39 1.5301 1.22811 0
M  V30 10305 O 1038.51 0.969325 1.93476 0
M  V30 10306 C 1039.11 3.36497 -0.394331 0
M  V30 10307 C 1037.67 3.76382 -0.0363405 0
M  V30 10308 C 1036.81 2.68146 -0.706598 0
M  V30 10309 H 1039.77 1.34741 -0.83849 0
M  V30 10310 H 1039.79 3.78735 0.366026 0
M  V30 10311 H 1039.3 3.60031 -1.44911 0
M  V30 10312 H 1037.4 3.58463 1.01661 0
M  V30 10313 H 1037.51 4.77 -0.448045 0
M  V30 10314 H 1035.88 2.54306 -0.14168 0
M  V30 10315 H 1036.66 2.94512 -1.76401 0
M  V30 10316 N 1039.1 0.374177 1.53094 0
M  V30 10317 C 1040.33 -0.213325 2.05797 0
M  V30 10318 C 1040.75 -1.41753 1.24706 0
M  V30 10319 O 1040.1 -1.80183 0.289868 0
M  V30 10320 C 1040.16 -0.598367 3.56513 0
M  V30 10321 O 1039.88 0.557983 4.34532 0
M  V30 10322 C 1041.38 -1.24334 4.25507 0
M  V30 10323 H 1038.6 -0.0357398 0.670048 0
M  V30 10324 H 1041.14 0.535035 1.97377 0
M  V30 10325 H 1039.3 -1.29663 3.65056 0
M  V30 10326 H 1039.71 0.244911 5.23928 0
M  V30 10327 H 1041.18 -1.46325 5.32253 0
M  V30 10328 H 1041.66 -2.20622 3.79766 0
M  V30 10329 H 1042.27 -0.586269 4.2124 0
M  V30 10330 N 1040.58 -1.57259 0.103575 0
M  V30 10331 C 1041.83 -1.93832 -0.55786 0
M  V30 10332 C 1042.14 -0.988087 -1.68808 0
M  V30 10333 O 1043.35 -1.24786 -2.41124 0
M  V30 10334 C 1041.81 -3.44433 -1.04373 0
M  V30 10335 C 1041.41 -4.47963 0.0571971 0
M  V30 10336 C 1043.16 -3.89953 -1.67742 0
M  V30 10337 C 1041.07 -5.89727 -0.444505 0
M  V30 10338 H 1040 -0.723536 -0.212161 0
M  V30 10339 H 1042.65 -1.82606 0.180944 0
M  V30 10340 H 1041.03 -3.50841 -1.83648 0
M  V30 10341 H 1042.2 -4.53209 0.83298 0
M  V30 10342 H 1040.52 -4.12104 0.596588 0
M  V30 10343 H 1043.11 -4.93272 -2.06365 0
M  V30 10344 H 1043.46 -3.2907 -2.54988 0
M  V30 10345 H 1043.99 -3.86281 -0.950342 0
M  V30 10346 H 1040.73 -6.5433 0.391543 0
M  V30 10347 H 1040.25 -5.87935 -1.18711 0
M  V30 10348 H 1041.93 -6.40558 -0.910739 0
M  V30 10349 N 1042.06 0.170153 -1.56679 0
M  V30 10350 C 1043.47 0.732502 -1.7173 0
M  V30 10351 C 1043.82 1.82736 -0.71428 0
M  V30 10352 O 1042.95 2.16044 0.124102 0
M  V30 10353 C 1043.54 1.33548 -3.11368 0
M  V30 10354 C 1042.1 1.84464 -3.281 0
M  V30 10355 C 1041.25 0.724069 -2.6768 0
M  V30 10356 H 1044.2 -0.0552543 -1.58604 0
M  V30 10357 H 1044.22 2.20519 -3.10083 0
M  V30 10358 H 1043.73 0.5384 -3.84347 0
M  V30 10359 H 1041.83 2.66813 -2.6008 0
M  V30 10360 H 1041.95 1.98928 -4.35849 0
M  V30 10361 H 1040.31 1.14481 -2.27522 0
M  V30 10362 H 1041.09 -0.0611861 -3.43245 0
M  V30 10363 N 1043.54 1.5137 0.438746 0
M  V30 10364 C 1044.45 1.75424 1.55768 0
M  V30 10365 C 1045.46 0.638409 1.61865 0
M  V30 10366 O 1046.64 0.9205 1.79133 0
M  V30 10367 C 1043.71 1.87288 2.9176 0
M  V30 10368 C 1042.77 3.11137 2.95791 0
M  V30 10369 C 1042 3.22425 4.25297 0
M  V30 10370 O 1042.22 2.39688 5.17596 0
M  V30 10371 O 1041.16 4.15393 4.35583 0
M  V30 10372 H 1044.98 2.70339 1.38386 0
M  V30 10373 H 1042.57 1.35854 0.621609 0
M  V30 10374 H 1044.45 1.97085 3.72472 0
M  V30 10375 H 1043.12 0.955599 3.09273 0
M  V30 10376 H 1042.03 3.06819 2.1404 0
M  V30 10377 H 1043.36 4.02549 2.83223 0
M  V30 10378 N 1045.02 -0.694098 1.41492 0
M  V30 10379 C 1045.93 -1.83778 1.45818 0
M  V30 10380 C 1046.94 -1.70471 0.348639 0
M  V30 10381 O 1048.12 -1.92361 0.596588 0
M  V30 10382 C 1045.18 -3.19771 1.33967 0
M  V30 10383 C 1044.24 -3.45175 2.5525 0
M  V30 10384 C 1043.48 -4.74681 2.43955 0
M  V30 10385 O 1043.7 -5.51268 1.46491 0
M  V30 10386 O 1042.63 -5.00901 3.33739 0
M  V30 10387 H 1046.46 -1.83084 2.42309 0
M  V30 10388 H 1044.05 -0.847349 1.23046 0
M  V30 10389 H 1045.93 -4.00961 1.29648 0
M  V30 10390 H 1044.6 -3.21145 0.405926 0
M  V30 10391 H 1043.51 -2.6391 2.65146 0
M  V30 10392 H 1044.84 -3.48617 3.47458 0
M  V30 10393 N 1046.49 -1.27344 -0.928501 0
M  V30 10394 C 1047.72 -1.16557 -1.7155 0
M  V30 10395 C 1048.14 0.274044 -1.86093 0
M  V30 10396 O 1047.5 1.19847 -1.36038 0
M  V30 10397 C 1047.55 -1.85332 -3.09329 0
M  V30 10398 O 1046.65 -1.15074 -3.9602 0
M  V30 10399 H 1046 -0.405423 -0.525859 0
M  V30 10400 H 1048.53 -1.68399 -1.16202 0
M  V30 10401 H 1048.54 -1.92659 -3.59648 0
M  V30 10402 H 1047.21 -2.90056 -2.98061 0
M  V30 10403 H 1045.79 -1.1581 -3.54461 0
M  V30 10404 N 1047.97 1.13488 -1.09353 0
M  V30 10405 C 1048.94 2.17066 -0.735863 0
M  V30 10406 C 1049.94 1.59086 0.234181 0
M  V30 10407 O 1051.13 1.74196 0.012463 0
M  V30 10408 C 1048.26 3.40786 -0.0880975 0
M  V30 10409 H 1049.45 2.50221 -1.65316 0
M  V30 10410 H 1047 1.28304 -0.89263 0
M  V30 10411 H 1047.74 3.1322 0.840462 0
M  V30 10412 H 1047.52 3.8414 -0.786073 0
M  V30 10413 H 1049.01 4.17342 0.146775 0
M  V30 10414 N 1049.45 0.880621 1.30701 0
M  V30 10415 C 1050.7 0.497611 1.966 0
M  V30 10416 C 1051.03 -0.949901 1.69383 0
M  V30 10417 O 1050.31 -1.67054 0.996152 0
M  V30 10418 C 1050.59 0.767919 3.51817 0
M  V30 10419 C 1050.44 2.26574 3.88567 0
M  V30 10420 C 1051.76 0.241502 4.39437 0
M  V30 10421 H 1048.88 0.182267 0.714106 0
M  V30 10422 H 1051.52 1.10382 1.54648 0
M  V30 10423 H 1049.67 0.251967 3.87682 0
M  V30 10424 H 1051.34 2.84977 3.62748 0
M  V30 10425 H 1049.59 2.73411 3.36792 0
M  V30 10426 H 1050.26 2.40549 4.9683 0
M  V30 10427 H 1052.73 0.683051 4.10455 0
M  V30 10428 H 1051.61 0.459997 5.46969 0
M  V30 10429 H 1051.87 -0.857068 4.33713 0
M  V30 10430 N 1050.93 -1.4397 0.641131 0
M  V30 10431 C 1051.89 -2.29149 -0.0482243 0
M  V30 10432 C 1052.89 -1.41572 -0.762495 0
M  V30 10433 O 1054.08 -1.63335 -0.605571 0
M  V30 10434 C 1051.21 -3.23375 -1.07896 0
M  V30 10435 H 1052.41 -2.9159 0.70109 0
M  V30 10436 H 1049.96 -1.51048 0.401754 0
M  V30 10437 H 1050.7 -2.65804 -1.85792 0
M  V30 10438 H 1050.48 -3.87926 -0.570597 0
M  V30 10439 H 1051.97 -3.87337 -1.56075 0
M  V30 10440 N 1052.41 -0.382291 -1.52893 0
M  V30 10441 C 1053.65 0.201996 -2.03399 0
M  V30 10442 C 1054.01 1.44624 -1.26286 0
M  V30 10443 O 1055.21 2.10723 -1.66881 0
M  V30 10444 C 1053.48 0.470348 -3.54292 0
M  V30 10445 S 1055.04 1.02592 -4.26638 0
M  V30 10446 H 1051.86 0.0575178 -0.70867 0
M  V30 10447 H 1054.46 -0.52902 -1.88206 0
M  V30 10448 H 1053.17 -0.44243 -4.08008 0
M  V30 10449 H 1052.7 1.22998 -3.73678 0
M  V30 10450 H 1054.71 2.30887 -4.3921 0
M  V30 10451 N 1053.89 1.57202 -0.111913 0
M  V30 10452 C 1055.13 1.94125 0.547573 0
M  V30 10453 C 1055.45 0.997026 1.68282 0
M  V30 10454 O 1056.65 1.26063 2.40459 0
M  V30 10455 C 1055.11 3.44982 1.02545 0
M  V30 10456 C 1054.72 4.47927 -0.0809529 0
M  V30 10457 C 1056.46 3.90837 1.65671 0
M  V30 10458 C 1054.37 5.89955 0.413224 0
M  V30 10459 H 1053.3 0.724651 0.208321 0
M  V30 10460 H 1055.95 1.82507 -0.190625 0
M  V30 10461 H 1054.33 3.5181 1.81785 0
M  V30 10462 H 1055.51 4.52761 -0.857003 0
M  V30 10463 H 1053.82 4.11782 -0.618434 0
M  V30 10464 H 1056.42 4.9436 2.03746 0
M  V30 10465 H 1056.76 3.30417 2.53239 0
M  V30 10466 H 1057.29 3.8678 0.929844 0
M  V30 10467 H 1054.03 6.54113 -0.426238 0
M  V30 10468 H 1053.55 5.88557 1.15591 0
M  V30 10469 H 1055.23 6.41032 0.876756 0
M  V30 10470 N 1055.36 -0.161842 1.56767 0
M  V30 10471 C 1056.27 -1.21996 2.00385 0
M  V30 10472 C 1057.29 -1.4789 0.916768 0
M  V30 10473 O 1058.47 -1.59852 1.22513 0
M  V30 10474 C 1055.53 -2.53695 2.36305 0
M  V30 10475 C 1054.59 -2.3558 3.58888 0
M  V30 10476 C 1053.82 -3.60998 3.93085 0
M  V30 10477 O 1054.05 -4.6657 3.28129 0
M  V30 10478 O 1052.98 -3.54544 4.86397 0
M  V30 10479 H 1056.81 -0.879701 2.9068 0
M  V30 10480 H 1054.39 -0.369437 1.4476 0
M  V30 10481 H 1056.27 -3.31366 2.60335 0
M  V30 10482 H 1054.95 -2.87281 1.49169 0
M  V30 10483 H 1053.86 -1.55908 3.40064 0
M  V30 10484 H 1055.19 -2.06915 4.46595 0
M  V30 10485 N 1056.84 -1.516 -0.430713 0
M  V30 10486 C 1058.07 -1.687 -1.20644 0
M  V30 10487 C 1058.49 -0.386555 -1.84085 0
M  V30 10488 O 1057.85 0.653952 -1.69095 0
M  V30 10489 C 1057.9 -2.80887 -2.2613 0
M  V30 10490 O 1057 -2.44952 -3.31772 0
M  V30 10491 H 1056.34 -0.562289 -0.353167 0
M  V30 10492 H 1058.87 -1.98198 -0.507807 0
M  V30 10493 H 1058.88 -3.05167 -2.70809 0
M  V30 10494 H 1057.56 -3.75249 -1.79334 0
M  V30 10495 H 1056.13 -2.31267 -2.92523 0
M  V30 10496 N 1058.32 0.686584 -1.41858 0
M  V30 10497 C 1059.57 1.44379 -1.41418 0
M  V30 10498 C 1059.89 1.94981 -0.0273696 0
M  V30 10499 O 1059.16 1.72296 0.932248 0
M  V30 10500 H 1057.74 0.53574 -0.520568 0
M  V30 10501 H 1060.4 0.812056 -1.77177 0
M  V30 10502 H 1059.5 2.30258 -2.10684 0
M  V30 10503 N 1059.8 1.27835 0.921735 0
M  V30 10504 C 1060.73 1.06874 2.02758 0
M  V30 10505 C 1061.74 0.0229418 1.62784 0
M  V30 10506 O 1062.93 0.265145 1.7652 0
M  V30 10507 C 1060.03 0.60037 3.3354 0
M  V30 10508 C 1059.2 1.71979 4.02172 0
M  V30 10509 C 1058.26 1.24615 5.11231 0
M  V30 10510 O 1057.29 1.94692 5.34868 0
M  V30 10511 N 1058.49 0.105021 5.80405 0
M  V30 10512 H 1061.26 2.02105 2.213 0
M  V30 10513 H 1058.82 1.19481 1.09251 0
M  V30 10514 H 1060.81 0.267281 4.03816 0
M  V30 10515 H 1059.38 -0.258872 3.11526 0
M  V30 10516 H 1058.6 2.22287 3.25549 0
M  V30 10517 H 1059.89 2.47092 4.44773 0
M  V30 10518 H 1059.29 -0.479745 5.63662 0
M  V30 10519 H 1057.84 -0.168846 6.51581 0
M  V30 10520 N 1061.28 -1.12907 1.09954 0
M  V30 10521 C 1062.21 -2.20585 0.765799 0
M  V30 10522 C 1063.19 -1.68117 -0.258989 0
M  V30 10523 O 1064.37 -1.93792 -0.125853 0
M  V30 10524 C 1061.5 -3.46772 0.191435 0
M  V30 10525 C 1060.46 -4.12363 1.14635 0
M  V30 10526 C 1059.78 -5.3294 0.433426 0
M  V30 10527 C 1061.08 -4.59073 2.49096 0
M  V30 10528 H 1062.78 -2.48759 1.66612 0
M  V30 10529 H 1060.32 -1.19563 0.802534 0
M  V30 10530 H 1062.27 -4.21365 -0.0541535 0
M  V30 10531 H 1061 -3.18011 -0.744101 0
M  V30 10532 H 1059.66 -3.39744 1.37731 0
M  V30 10533 H 1059.31 -5.00444 -0.506422 0
M  V30 10534 H 1059.01 -5.77772 1.07018 0
M  V30 10535 H 1060.53 -6.10284 0.196267 0
M  V30 10536 H 1061.94 -5.25063 2.30177 0
M  V30 10537 H 1060.34 -5.14665 3.0861 0
M  V30 10538 H 1061.41 -3.73313 3.0946 0
M  V30 10539 N 1062.75 -0.88754 -1.30232 0
M  V30 10540 C 1064.17 -0.581904 -1.48614 0
M  V30 10541 C 1064.37 0.879711 -1.81282 0
M  V30 10542 O 1063.43 1.66076 -1.90198 0
M  V30 10543 C 1064.74 -1.49726 -2.60773 0
M  V30 10544 C 1066.29 -1.50117 -2.74653 0
M  V30 10545 C 1066.76 -2.40251 -3.89927 0
M  V30 10546 N 1068.25 -2.38229 -3.97242 0
M  V30 10547 C 1068.99 -3.04682 -4.85754 0
M  V30 10548 N 1068.48 -3.80369 -5.79043 0
M  V30 10549 N 1070.28 -2.93901 -4.79144 0
M  V30 10550 H 1062.43 -1.83304 -1.073 0
M  V30 10551 H 1064.69 -0.78477 -0.531826 0
M  V30 10552 H 1064.4 -2.5381 -2.43462 0
M  V30 10553 H 1064.27 -1.20874 -3.57308 0
M  V30 10554 H 1066.66 -0.467832 -2.91368 0
M  V30 10555 H 1066.74 -1.83001 -1.7873 0
M  V30 10556 H 1066.38 -3.43671 -3.73969 0
M  V30 10557 H 1066.31 -2.04682 -4.85194 0
M  V30 10558 H 1068.8 -1.83229 -3.30508 0
M  V30 10559 H 1069.12 -4.28159 -6.4335 0
M  V30 10560 H 1067.46 -3.84477 -5.78967 0
M  V30 10561 H 1070.65 -2.34296 -4.05245 0
M  V30 10562 H 1070.83 -3.45967 -5.47915 0
M  V30 10563 N 1064.23 1.43628 -0.648757 0
M  V30 10564 C 1065.16 2.33478 0.0320785 0
M  V30 10565 C 1066.14 1.49217 0.816605 0
M  V30 10566 O 1067.33 1.77892 0.778974 0
M  V30 10567 C 1064.46 3.32525 1.00222 0
M  V30 10568 C 1063.41 4.2674 0.328119 0
M  V30 10569 C 1062.74 5.15791 1.4094 0
M  V30 10570 C 1064.04 5.16493 -0.776701 0
M  V30 10571 H 1065.73 2.90657 -0.718257 0
M  V30 10572 H 1063.28 1.3976 -0.346852 0
M  V30 10573 H 1065.23 3.94277 1.4874 0
M  V30 10574 H 1063.96 2.73593 1.78366 0
M  V30 10575 H 1062.61 3.66346 -0.136569 0
M  V30 10576 H 1062.26 4.53201 2.18216 0
M  V30 10577 H 1061.96 5.79645 0.963631 0
M  V30 10578 H 1063.49 5.80416 1.89603 0
M  V30 10579 H 1064.9 5.7208 -0.373878 0
M  V30 10580 H 1063.3 5.89043 -1.14667 0
M  V30 10581 H 1064.37 4.56448 -1.63654 0
M  V30 10582 N 1065.71 0.390394 1.52688 0
M  V30 10583 C 1066.96 -0.191729 2.01892 0
M  V30 10584 C 1067.29 -1.4637 1.27631 0
M  V30 10585 O 1066.56 -1.90809 0.377094 0
M  V30 10586 C 1066.85 -0.458535 3.57169 0
M  V30 10587 C 1066.7 0.828796 4.42098 0
M  V30 10588 C 1068.02 -1.2487 4.22014 0
M  V30 10589 H 1065.14 -0.0682091 0.733837 0
M  V30 10590 H 1067.78 0.520176 1.82741 0
M  V30 10591 H 1065.93 -1.06498 3.73618 0
M  V30 10592 H 1067.6 1.46562 4.37398 0
M  V30 10593 H 1065.85 1.44388 4.09066 0
M  V30 10594 H 1066.52 0.596746 5.48765 0
M  V30 10595 H 1068.99 -0.735452 4.09549 0
M  V30 10596 H 1067.87 -1.40412 5.30637 0
M  V30 10597 H 1068.13 -2.2642 3.79719 0
M  V30 10598 N 1067.19 -1.57141 0.120249 0
M  V30 10599 C 1068.14 -2.16638 -0.846809 0
M  V30 10600 C 1069.13 -1.11594 -1.27449 0
M  V30 10601 O 1070.34 -1.29895 -1.24608 0
M  V30 10602 H 1066.71 -0.693331 -0.291197 0
M  V30 10603 H 1068.68 -2.96673 -0.320536 0
M  V30 10604 C 1067.43 -2.78134 -2.08655 0
M  V30 10605 H 1066.75 -3.58662 -1.76639 0
M  V30 10606 H 1068.19 -3.23301 -2.74322 0
M  V30 10607 C 1066.65 -1.7528 -2.87713 0
M  V30 10608 O 1067.18 -1.20693 -3.8314 0
M  V30 10609 N 1065.39 -1.45192 -2.51729 0
M  V30 10610 H 1064.94 -1.89773 -1.74195 0
M  V30 10611 H 1064.89 -0.766166 -3.04922 0
M  V30 10612 N 1068.67 0.153526 -1.5685 0
M  V30 10613 C 1069.91 0.865519 -1.82629 0
M  V30 10614 C 1070.24 1.81999 -0.700105 0
M  V30 10615 O 1069.51 1.93907 0.278744 0
M  V30 10616 H 1068.09 0.32261 -0.673745 0
M  V30 10617 H 1070.75 0.149088 -1.94329 0
M  V30 10618 H 1069.84 1.43171 -2.77324 0
M  V30 10619 N 1070.14 1.51827 0.422667 0
M  V30 10620 C 1071.39 1.64893 1.16853 0
M  V30 10621 C 1071.71 0.37456 1.91369 0
M  V30 10622 O 1070.98 -0.610128 1.86157 0
M  V30 10623 H 1069.56 0.607744 0.434345 0
M  V30 10624 H 1072.23 1.88816 0.483159 0
M  V30 10625 H 1071.32 2.48361 1.89006 0
M  V30 10626 N 1071.62 -0.679052 1.4222 0
M  V30 10627 C 1072.87 -1.43627 1.42182 0
M  V30 10628 C 1073.19 -1.94964 0.0377095 0
M  V30 10629 O 1072.46 -1.72788 -0.923098 0
M  V30 10630 H 1071.04 -0.532972 0.523402 0
M  V30 10631 H 1073.7 -0.802649 1.77605 0
M  V30 10632 H 1072.8 -2.29137 2.11902 0
M  V30 10633 N 1073.1 -1.28322 -0.914942 0
M  V30 10634 C 1074.52 -1.06003 -1.19313 0
M  V30 10635 C 1074.72 0.198366 -2.00521 0
M  V30 10636 O 1073.77 0.900364 -2.35902 0
M  V30 10637 C 1075.09 -2.30684 -1.92887 0
M  V30 10638 C 1076.63 -2.35851 -2.05775 0
M  V30 10639 C 1077.11 -3.60295 -2.82757 0
M  V30 10640 N 1078.6 -3.60928 -2.9032 0
M  V30 10641 C 1079.33 -4.53894 -3.50383 0
M  V30 10642 N 1078.83 -5.57178 -4.11734 0
M  V30 10643 N 1080.62 -4.41492 -3.4791 0
M  V30 10644 H 1072.77 -2.09104 -0.372735 0
M  V30 10645 H 1075.04 -0.920285 -0.227552 0
M  V30 10646 H 1074.74 -3.22355 -1.40643 0
M  V30 10647 H 1074.62 -2.37003 -2.93444 0
M  V30 10648 H 1077 -1.44678 -2.57201 0
M  V30 10649 H 1077.09 -2.33526 -1.04399 0
M  V30 10650 H 1076.73 -4.51811 -2.32011 0
M  V30 10651 H 1076.66 -3.59873 -3.84446 0
M  V30 10652 H 1079.15 -2.8624 -2.46729 0
M  V30 10653 H 1079.46 -6.24261 -4.55541 0
M  V30 10654 H 1077.81 -5.61005 -4.10242 0
M  V30 10655 H 1081 -3.60005 -2.99189 0
M  V30 10656 H 1081.17 -5.14132 -3.94427 0
M  V30 10657 N 1074.58 1.12322 -1.10551 0
M  V30 10658 C 1075.82 1.85497 -0.858492 0
M  V30 10659 C 1076.18 1.8222 0.604966 0
M  V30 10660 O 1077.38 2.5075 0.968382 0
M  V30 10661 C 1075.65 3.29124 -1.39327 0
M  V30 10662 S 1077.21 4.19659 -1.28186 0
M  V30 10663 H 1074.03 0.639768 -0.31019 0
M  V30 10664 H 1076.63 1.35298 -1.41119 0
M  V30 10665 H 1075.34 3.29069 -2.45238 0
M  V30 10666 H 1074.87 3.84388 -0.837203 0
M  V30 10667 H 1076.88 4.95618 -0.240325 0
M  V30 10668 N 1076.06 0.894434 1.2976 0
M  V30 10669 C 1077.02 0.373094 2.26143 0
M  V30 10670 C 1078.02 -0.489756 1.5316 0
M  V30 10671 O 1079.21 -0.29556 1.71674 0
M  V30 10672 C 1076.34 -0.467234 3.37683 0
M  V30 10673 H 1077.53 1.22427 2.73773 0
M  V30 10674 H 1075.09 0.672112 1.41111 0
M  V30 10675 H 1075.82 -1.33861 2.95384 0
M  V30 10676 H 1075.61 0.150954 3.91809 0
M  V30 10677 H 1077.1 -0.823469 4.094 0
M  V30 10678 N 1077.53 -1.43282 0.656365 0
M  V30 10679 C 1078.78 -2.01378 0.170702 0
M  V30 10680 C 1079.1 -1.52063 -1.22073 0
M  V30 10681 O 1078.37 -0.73456 -1.81607 0
M  V30 10682 H 1076.95 -0.744577 0.0601168 0
M  V30 10683 H 1079.62 -1.75449 0.848739 0
M  V30 10684 H 1078.71 -3.11701 0.157745 0
M  V30 10685 N 1079.01 -0.398486 -1.52479 0
M  V30 10686 C 1080.43 -0.0488635 -1.59525 0
M  V30 10687 C 1080.63 1.43756 -1.41197 0
M  V30 10688 O 1079.69 2.20317 -1.23357 0
M  V30 10689 C 1081 -0.534262 -2.95916 0
M  V30 10690 C 1082.55 -0.491314 -3.0912 0
M  V30 10691 C 1083.02 -0.953049 -4.47974 0
M  V30 10692 N 1084.51 -0.909434 -4.54184 0
M  V30 10693 C 1085.25 -1.23801 -5.59876 0
M  V30 10694 N 1084.74 -1.63752 -6.73169 0
M  V30 10695 N 1086.54 -1.15867 -5.50028 0
M  V30 10696 H 1078.69 -1.36608 -1.62641 0
M  V30 10697 H 1080.95 -0.560515 -0.764544 0
M  V30 10698 H 1080.66 -1.57277 -3.14574 0
M  V30 10699 H 1080.53 0.0617787 -3.77149 0
M  V30 10700 H 1082.92 0.538123 -2.90152 0
M  V30 10701 H 1083 -1.12327 -2.29818 0
M  V30 10702 H 1082.64 -1.98076 -4.67684 0
M  V30 10703 H 1082.57 -0.298007 -5.25756 0
M  V30 10704 H 1085.06 -0.615569 -3.72853 0
M  V30 10705 H 1085.38 -1.87163 -7.49793 0
M  V30 10706 H 1083.72 -1.67647 -6.74477 0
M  V30 10707 H 1086.91 -0.845502 -4.60401 0
M  V30 10708 H 1087.09 -1.41805 -6.32294 0
M  V30 10709 N 1080.49 1.57075 -0.12858 0
M  V30 10710 C 1081.74 1.9581 0.527868 0
M  V30 10711 C 1082.07 1.01253 1.65715 0
M  V30 10712 O 1081.35 0.0514853 1.94432 0
M  V30 10713 C 1081.63 3.44406 1.05151 0
M  V30 10714 C 1081.48 4.49737 -0.0750113 0
M  V30 10715 C 1082.8 3.95069 1.9393 0
M  V30 10716 H 1079.92 0.711978 0.19041 0
M  V30 10717 H 1082.56 1.88879 -0.206081 0
M  V30 10718 H 1080.71 3.50443 1.67697 0
M  V30 10719 H 1082.38 4.55793 -0.710685 0
M  V30 10720 H 1080.63 4.27497 -0.736809 0
M  V30 10721 H 1081.3 5.50996 0.332779 0
M  V30 10722 H 1083.77 3.91395 1.41241 0
M  V30 10723 H 1082.65 4.99542 2.27484 0
M  V30 10724 H 1082.91 3.36329 2.86941 0
M  V30 10725 N 1081.97 -0.145205 1.5693 0
M  V30 10726 C 1082.88 -1.19864 2.01667 0
M  V30 10727 C 1083.9 -1.46909 0.932402 0
M  V30 10728 O 1085.07 -1.58543 1.24201 0
M  V30 10729 C 1082.14 -2.51174 2.38982 0
M  V30 10730 C 1081.2 -2.3176 3.61366 0
M  V30 10731 C 1080.43 -3.56809 3.96892 0
M  V30 10732 O 1080.65 -4.63063 3.33059 0
M  V30 10733 O 1079.59 -3.49366 4.9013 0
M  V30 10734 H 1083.41 -0.848821 2.91597 0
M  V30 10735 H 1081 -0.354063 1.45144 0
M  V30 10736 H 1082.88 -3.28587 2.63835 0
M  V30 10737 H 1081.56 -2.85683 1.52207 0
M  V30 10738 H 1080.46 -1.52293 3.41698 0
M  V30 10739 H 1081.8 -2.02167 4.48764 0
M  V30 10740 N 1083.45 -1.52049 -0.414609 0
M  V30 10741 C 1084.7 -1.65067 -1.15912 0
M  V30 10742 C 1085.01 -0.383969 -1.91794 0
M  V30 10743 O 1086.22 -0.393872 -2.68628 0
M  V30 10744 C 1084.67 -2.91611 -2.1093 0
M  V30 10745 C 1084.28 -4.25369 -1.4059 0
M  V30 10746 C 1086.02 -3.13992 -2.85674 0
M  V30 10747 C 1083.93 -5.43041 -2.34223 0
M  V30 10748 H 1082.86 -0.614884 -0.436387 0
M  V30 10749 H 1085.51 -1.78533 -0.424072 0
M  V30 10750 H 1083.89 -2.71831 -2.87965 0
M  V30 10751 H 1085.07 -4.55611 -0.689568 0
M  V30 10752 H 1083.38 -4.09047 -0.779088 0
M  V30 10753 H 1085.98 -3.99082 -3.55861 0
M  V30 10754 H 1086.32 -2.27998 -3.48314 0
M  V30 10755 H 1086.86 -3.34217 -2.1574 0
M  V30 10756 H 1083.59 -6.31364 -1.76238 0
M  V30 10757 H 1083.11 -5.17144 -3.03845 0
M  V30 10758 H 1084.79 -5.75901 -2.94868 0
M  V30 10759 N 1084.93 0.6715 -1.42579 0
M  V30 10760 C 1086.16 1.4576 -1.46416 0
M  V30 10761 C 1086.56 1.89051 -0.0749843 0
M  V30 10762 O 1085.91 1.58927 0.921296 0
M  V30 10763 C 1085.97 2.7365 -2.33144 0
M  V30 10764 C 1085.63 2.52414 -3.80968 0
M  V30 10765 C 1086.63 2.16804 -4.72538 0
M  V30 10766 C 1084.31 2.67306 -4.25268 0
M  V30 10767 C 1086.31 1.96358 -6.06401 0
M  V30 10768 C 1084 2.46475 -5.5919 0
M  V30 10769 C 1084.99 2.11055 -6.49573 0
M  V30 10770 O 1084.68 1.90428 -7.8102 0
M  V30 10771 H 1084.41 0.454896 -0.500045 0
M  V30 10772 H 1086.97 0.832198 -1.87786 0
M  V30 10773 H 1085.2 3.38684 -1.86629 0
M  V30 10774 H 1086.89 3.35543 -2.28398 0
M  V30 10775 H 1087.65 2.04891 -4.39596 0
M  V30 10776 H 1083.53 2.93854 -3.55206 0
M  V30 10777 H 1087.08 1.68634 -6.76911 0
M  V30 10778 H 1082.97 2.57985 -5.91704 0
M  V30 10779 H 1083.74 2.05 -7.92412 0
M  V30 10780 N 1086.4 1.28806 0.908124 0
M  V30 10781 C 1087.35 1.09849 1.99793 0
M  V30 10782 C 1088.34 0.0204321 1.60887 0
M  V30 10783 O 1089.53 0.241204 1.75349 0
M  V30 10784 C 1086.66 0.768263 3.34593 0
M  V30 10785 C 1085.74 1.88544 3.79884 0
M  V30 10786 N 1086.14 3.12784 3.97492 0
M  V30 10787 C 1084.43 1.77657 4.09089 0
M  V30 10788 C 1085.13 3.85615 4.35518 0
M  V30 10789 N 1084.11 3.13501 4.44092 0
M  V30 10790 H 1087.91 2.04108 2.11464 0
M  V30 10791 H 1085.43 1.19807 1.09636 0
M  V30 10792 H 1087.42 0.613521 4.12361 0
M  V30 10793 H 1086.08 -0.166501 3.24273 0
M  V30 10794 H 1087.09 3.48333 3.83255 0
M  V30 10795 H 1083.77 0.913956 4.07373 0
M  V30 10796 H 1085.16 4.92492 4.57057 0
M  V30 10797 N 1087.88 -1.11734 1.11145 0
M  V30 10798 C 1088.79 -2.21267 0.779607 0
M  V30 10799 C 1089.81 -1.72526 -0.225986 0
M  V30 10800 O 1090.98 -2.01302 -0.0629166 0
M  V30 10801 C 1088.05 -3.45973 0.22435 0
M  V30 10802 C 1087.11 -4.09518 1.28816 0
M  V30 10803 C 1086.34 -5.28271 0.7593 0
M  V30 10804 O 1086.57 -5.68912 -0.411725 0
M  V30 10805 O 1085.5 -5.82322 1.52266 0
M  V30 10806 H 1089.33 -2.5206 1.6941 0
M  V30 10807 H 1086.91 -1.20211 0.887115 0
M  V30 10808 H 1088.79 -4.21322 -0.0810921 0
M  V30 10809 H 1087.47 -3.1684 -0.662891 0
M  V30 10810 H 1086.37 -3.35915 1.64657 0
M  V30 10811 H 1087.71 -4.42824 2.14868 0
M  V30 10812 N 1089.36 -0.901303 -1.29284 0
M  V30 10813 C 1090.61 -0.527 -1.95108 0
M  V30 10814 C 1090.93 0.930065 -1.71391 0
M  V30 10815 O 1090.2 1.65601 -1.04658 0
M  V30 10816 H 1088.78 -0.191903 -0.721929 0
M  V30 10817 H 1091.44 -1.14795 -1.57506 0
M  V30 10818 H 1090.54 -0.710945 -3.03895 0
M  V30 10819 N 1090.84 1.42931 -0.663954 0
M  V30 10820 C 1092.06 2.06544 -0.188201 0
M  V30 10821 C 1092.49 1.495 1.14155 0
M  V30 10822 O 1091.85 0.609164 1.7076 0
M  V30 10823 C 1091.89 3.60393 -0.122105 0
M  V30 10824 O 1091 4.02176 0.91258 0
M  V30 10825 H 1090.34 0.656458 -0.0997967 0
M  V30 10826 H 1092.87 1.83253 -0.909909 0
M  V30 10827 H 1092.88 4.07959 0.0576568 0
M  V30 10828 H 1091.55 4.01287 -1.09276 0
M  V30 10829 H 1090.13 3.6618 0.704738 0
M  V30 10830 N 1092.32 0.406567 1.52266 0
M  V30 10831 C 1093.56 -0.1627 2.02748 0
M  V30 10832 C 1093.92 -1.43022 1.28695 0
M  V30 10833 O 1093.21 -1.87715 0.383881 0
M  V30 10834 C 1093.4 -0.467124 3.54334 0
M  V30 10835 C 1093.23 0.76934 4.4307 0
M  V30 10836 C 1092 1.29377 4.88456 0
M  V30 10837 C 1094.2 1.64671 4.87225 0
M  V30 10838 N 1092.18 2.48599 5.61313 0
M  V30 10839 C 1093.55 2.68519 5.58836 0
M  V30 10840 C 1095.61 1.66477 4.69244 0
M  V30 10841 C 1094.31 3.74081 6.14374 0
M  V30 10842 C 1096.34 2.70956 5.25677 0
M  V30 10843 C 1095.7 3.73525 5.97209 0
M  V30 10844 H 1091.8 -0.0211706 0.781713 0
M  V30 10845 H 1094.38 0.560338 1.86463 0
M  V30 10846 H 1092.55 -1.15921 3.70698 0
M  V30 10847 H 1094.29 -1.02505 3.91503 0
M  V30 10848 H 1091.04 0.85219 4.6587 0
M  V30 10849 H 1091.46 3.0897 6.02384 0
M  V30 10850 H 1096.11 0.88519 4.1343 0
M  V30 10851 H 1093.82 4.52896 6.69261 0
M  V30 10852 H 1097.41 2.73258 5.13635 0
M  V30 10853 H 1096.29 4.53043 6.40095 0
M  V30 10854 N 1093.79 -1.57004 0.136909 0
M  V30 10855 C 1095.04 -1.9541 -0.51569 0
M  V30 10856 C 1095.36 -1.02219 -1.66061 0
M  V30 10857 O 1094.63 -0.0818172 -1.95729 0
M  V30 10858 H 1093.21 -0.721504 -0.193497 0
M  V30 10859 H 1095.88 -1.93765 0.210046 0
M  V30 10860 H 1094.97 -2.98887 -0.898494 0
M  V30 10861 N 1095.27 0.136881 -1.57004 0
M  V30 10862 C 1096.5 0.862436 -1.88068 0
M  V30 10863 C 1096.92 1.74274 -0.726227 0
M  V30 10864 O 1096.27 1.79956 0.30366 0
M  V30 10865 C 1096.32 1.71076 -3.18458 0
M  V30 10866 O 1096.04 0.865918 -4.29457 0
M  V30 10867 C 1097.55 2.54302 -3.63105 0
M  V30 10868 H 1094.77 0.248865 -0.623143 0
M  V30 10869 H 1097.31 0.126633 -2.04108 0
M  V30 10870 H 1095.46 2.39951 -3.04142 0
M  V30 10871 H 1095.88 1.4493 -5.04079 0
M  V30 10872 H 1097.35 3.09384 -4.57149 0
M  V30 10873 H 1097.83 3.3082 -2.88886 0
M  V30 10874 H 1098.44 1.907 -3.80149 0
M  V30 10875 N 1096.75 1.52266 0.40654 0
M  V30 10876 C 1098 1.6568 1.15035 0
M  V30 10877 C 1098.31 0.394135 1.91588 0
M  V30 10878 O 1099.52 0.408113 2.68415 0
M  V30 10879 C 1097.97 2.92725 2.0938 0
M  V30 10880 C 1097.58 4.26108 1.38332 0
M  V30 10881 C 1099.33 3.15502 2.84004 0
M  V30 10882 C 1097.23 5.44275 2.3134 0
M  V30 10883 H 1096.16 0.61719 0.43312 0
M  V30 10884 H 1098.81 1.78755 0.414598 0
M  V30 10885 H 1097.2 2.73355 2.86519 0
M  V30 10886 H 1098.37 4.55971 0.665396 0
M  V30 10887 H 1096.69 4.09454 0.757384 0
M  V30 10888 H 1099.28 4.00964 3.5374 0
M  V30 10889 H 1099.63 2.29842 3.471 0
M  V30 10890 H 1100.16 3.35357 2.13964 0
M  V30 10891 H 1096.9 6.3229 1.72887 0
M  V30 10892 H 1096.42 5.18749 3.01098 0
M  V30 10893 H 1098.1 5.77457 2.91809 0
M  V30 10894 N 1098.23 -0.663929 1.42933 0
M  V30 10895 C 1099.47 -1.43583 1.45476 0
M  V30 10896 C 1099.83 -1.91862 0.0728387 0
M  V30 10897 O 1101.03 -2.68786 -0.0270249 0
M  V30 10898 C 1099.3 -2.59316 2.45947 0
M  V30 10899 S 1100.86 -3.48004 2.6728 0
M  V30 10900 H 1097.68 -0.490261 0.514942 0
M  V30 10901 H 1100.28 -0.771834 1.79619 0
M  V30 10902 H 1098.99 -2.22104 3.45106 0
M  V30 10903 H 1098.52 -3.30577 2.13266 0
M  V30 10904 H 1100.53 -4.55677 1.96399 0
M  V30 10905 N 1099.71 -1.29285 -0.901281 0
M  V30 10906 C 1100.98 -1.07847 -1.63182 0
M  V30 10907 C 1101.36 0.377927 -2.07689 0
M  V30 10908 O 1100.71 1.36642 -1.83143 0
M  V30 10909 C 1100.92 -2.06457 -2.81383 0
M  V30 10910 C 1102.27 -2.37289 -3.52107 0
M  V30 10911 O 1103.29 -2.0464 -2.91549 0
M  V30 10912 O 1102.15 -2.93067 -4.61274 0
M  V30 10913 H 1099.25 -0.413073 -0.71645 0
M  V30 10914 H 1101.79 -1.40651 -0.949488 0
M  V30 10915 H 1100.56 -3.04561 -2.4568 0
M  V30 10916 H 1100.19 -1.74374 -3.57323 0
M  V30 10917 N 1101.18 1.11143 -1.11736 0
M  V30 10918 C 1102.46 1.79384 -0.779785 0
M  V30 10919 C 1102.84 1.98015 0.731668 0
M  V30 10920 O 1102.19 1.56731 1.66276 0
M  V30 10921 C 1102.4 3.12868 -1.54643 0
M  V30 10922 C 1103.75 3.8786 -1.7277 0
M  V30 10923 O 1104.77 3.22566 -1.51094 0
M  V30 10924 O 1103.63 5.05034 -2.08813 0
M  V30 10925 H 1100.72 0.777128 -0.282845 0
M  V30 10926 H 1103.27 1.17858 -1.22096 0
M  V30 10927 H 1102.04 2.94682 -2.57446 0
M  V30 10928 H 1101.67 3.82109 -1.09901 0
M  V30 10929 N 1102.66 0.908147 1.28804 0
M  V30 10930 C 1103.89 0.553431 1.9988 0
M  V30 10931 C 1104.31 -0.856714 1.67458 0
M  V30 10932 O 1103.67 -1.57163 0.903849 0
M  V30 10933 C 1103.72 0.762688 3.52442 0
M  V30 10934 O 1102.82 -0.180924 4.12003 0
M  V30 10935 H 1102.16 0.215237 0.628147 0
M  V30 10936 H 1104.69 1.22205 1.64095 0
M  V30 10937 H 1104.7 0.670612 4.02451 0
M  V30 10938 H 1103.38 1.79071 3.75375 0
M  V30 10939 H 1101.96 -0.0405897 3.72878 0
M  V30 10940 N 1104.14 -1.42577 0.671525 0
M  V30 10941 C 1105.39 -2.02401 0.201384 0
M  V30 10942 C 1105.74 -1.52133 -1.17786 0
M  V30 10943 O 1105.03 -0.712405 -1.77863 0
M  V30 10944 C 1105.23 -3.56985 0.172097 0
M  V30 10945 C 1105.06 -4.22255 1.54696 0
M  V30 10946 C 1103.83 -4.57564 2.14391 0
M  V30 10947 C 1106.03 -4.5006 2.48899 0
M  V30 10948 N 1104.01 -5.07997 3.44692 0
M  V30 10949 C 1105.38 -5.02008 3.63851 0
M  V30 10950 C 1107.43 -4.32045 2.47471 0
M  V30 10951 C 1106.14 -5.37837 4.77624 0
M  V30 10952 C 1108.16 -4.68947 3.60337 0
M  V30 10953 C 1107.52 -5.21045 4.74016 0
M  V30 10954 H 1103.62 -0.772963 0.118539 0
M  V30 10955 H 1106.21 -1.73485 0.883802 0
M  V30 10956 H 1104.38 -3.85426 -0.479723 0
M  V30 10957 H 1106.11 -4.03506 -0.31062 0
M  V30 10958 H 1102.87 -4.43212 1.66913 0
M  V30 10959 H 1103.29 -5.37647 4.11418 0
M  V30 10960 H 1107.93 -3.91024 1.60811 0
M  V30 10961 H 1105.65 -5.77792 5.64962 0
M  V30 10962 H 1109.24 -4.56687 3.60455 0
M  V30 10963 H 1108.12 -5.49067 5.59906 0
M  V30 10964 N 1105.62 -0.414636 -1.52048 0
M  V30 10965 C 1106.9 0.218172 -1.94379 0
M  V30 10966 C 1107.28 1.62133 -1.35189 0
M  V30 10967 O 1106.62 2.22271 -0.529877 0
M  V30 10968 C 1106.83 0.218932 -3.48313 0
M  V30 10969 C 1108.18 0.435604 -4.2236 0
M  V30 10970 O 1109.21 0.298049 -3.54951 0
M  V30 10971 O 1108.06 0.707217 -5.41905 0
M  V30 10972 H 1105.16 0.142173 -0.814688 0
M  V30 10973 H 1107.7 -0.470977 -1.63033 0
M  V30 10974 H 1106.48 -0.76292 -3.83791 0
M  V30 10975 H 1106.1 0.951949 -3.86036 0
M  V30 10976 N 1107.1 1.56929 -0.145233 0
M  V30 10977 C 1108.03 2.19685 0.791263 0
M  V30 10978 C 1109.01 1.14455 1.25833 0
M  V30 10979 O 1110.19 1.42791 1.31622 0
M  V30 10980 C 1107.32 2.81705 2.03124 0
M  V30 10981 C 1106.28 3.92746 1.70101 0
M  V30 10982 C 1105.6 4.41694 3.01347 0
M  V30 10983 C 1106.9 5.13606 0.949025 0
M  V30 10984 H 1108.6 2.98196 0.26825 0
M  V30 10985 H 1106.14 1.43434 0.127584 0
M  V30 10986 H 1108.1 3.24273 2.69119 0
M  V30 10987 H 1106.82 2.00523 2.57795 0
M  V30 10988 H 1105.48 3.50794 1.06486 0
M  V30 10989 H 1105.13 3.57336 3.54006 0
M  V30 10990 H 1104.83 5.1659 2.80016 0
M  V30 10991 H 1106.35 4.86931 3.68416 0
M  V30 10992 H 1107.76 5.53029 1.51102 0
M  V30 10993 H 1106.16 5.94252 0.835711 0
M  V30 10994 H 1107.23 4.84863 -0.0595631 0
M  V30 10995 N 1108.58 -0.128553 1.57075 0
M  V30 10996 C 1109.8 -0.8564 1.88893 0
M  V30 10997 C 1110.23 -1.73095 0.736196 0
M  V30 10998 O 1109.58 -1.78567 -0.313629 0
M  V30 10999 C 1109.63 -1.67368 3.19406 0
M  V30 11000 O 1108.74 -2.77973 3.04639 0
M  V30 11001 H 1108.08 -0.237424 0.620102 0
M  V30 11002 H 1110.61 -0.113821 2.04283 0
M  V30 11003 H 1110.62 -2.0649 3.51889 0
M  V30 11004 H 1109.29 -1.03161 4.02903 0
M  V30 11005 H 1107.87 -2.42123 2.83603 0
M  V30 11006 N 1110.05 -1.5248 -0.398459 0
M  V30 11007 C 1111.33 -1.57634 -1.15805 0
M  V30 11008 C 1111.71 -0.363785 -2.07942 0
M  V30 11009 O 1111.06 0.648598 -2.19101 0
M  V30 11010 C 1111.27 -2.91042 -1.92602 0
M  V30 11011 C 1112.62 -3.44433 -2.48296 0
M  V30 11012 O 1113.64 -2.92853 -2.0277 0
M  V30 11013 O 1112.5 -4.34529 -3.31432 0
M  V30 11014 H 1109.59 -0.63539 -0.529347 0
M  V30 11015 H 1112.14 -1.64812 -0.404376 0
M  V30 11016 H 1110.91 -3.7074 -1.25169 0
M  V30 11017 H 1110.53 -2.87206 -2.74952 0
M  V30 11018 N 1111.53 0.65634 -1.43283 0
M  V30 11019 C 1112.49 1.75117 -1.47874 0
M  V30 11020 C 1113.49 1.56629 -0.363846 0
M  V30 11021 O 1114.68 1.62584 -0.625464 0
M  V30 11022 C 1111.82 3.13957 -1.32831 0
M  V30 11023 H 1113.01 1.72429 -2.45374 0
M  V30 11024 H 1110.56 0.867704 -1.30002 0
M  V30 11025 H 1111.3 3.22259 -0.36326 0
M  V30 11026 H 1111.08 3.28781 -2.13649 0
M  V30 11027 H 1112.57 3.93799 -1.38969 0
M  V30 11028 N 1113.01 1.29761 0.894412 0
M  V30 11029 C 1113.96 1.11962 1.98617 0
M  V30 11030 C 1114.94 0.0374952 1.60856 0
M  V30 11031 O 1116.14 0.259789 1.75083 0
M  V30 11032 C 1113.26 0.803708 3.3376 0
M  V30 11033 C 1112.35 1.92563 3.77863 0
M  V30 11034 N 1112.74 3.16983 3.94152 0
M  V30 11035 C 1111.04 1.81986 4.07182 0
M  V30 11036 C 1111.74 3.90212 4.31404 0
M  V30 11037 N 1110.72 3.18194 4.40742 0
M  V30 11038 H 1114.52 2.06339 2.09287 0
M  V30 11039 H 1112.03 1.20963 1.08359 0
M  V30 11040 H 1114.03 0.657223 4.11687 0
M  V30 11041 H 1112.69 -0.132098 3.24431 0
M  V30 11042 H 1113.7 3.52378 3.79539 0
M  V30 11043 H 1110.38 0.957112 4.06381 0
M  V30 11044 H 1111.77 4.97312 4.51808 0
M  V30 11045 N 1114.49 -1.10549 1.12324 0
M  V30 11046 C 1115.73 -1.82755 0.879117 0
M  V30 11047 C 1116.07 -1.84905 -0.593604 0
M  V30 11048 O 1115.34 -1.30884 -1.43873 0
M  V30 11049 C 1115.62 -3.29481 1.45308 0
M  V30 11050 C 1115.48 -3.3567 2.99408 0
M  V30 11051 C 1116.8 -4.25828 1.11167 0
M  V30 11052 H 1113.92 -0.663513 0.32081 0
M  V30 11053 H 1116.56 -1.29572 1.38965 0
M  V30 11054 H 1114.71 -3.74902 1.01887 0
M  V30 11055 H 1116.38 -2.98739 3.515 0
M  V30 11056 H 1114.62 -2.75606 3.34998 0
M  V30 11057 H 1115.29 -4.38983 3.34661 0
M  V30 11058 H 1117.77 -3.88635 1.48667 0
M  V30 11059 H 1116.65 -5.26857 1.53991 0
M  V30 11060 H 1116.91 -4.42094 0.0237046 0
M  V30 11061 N 1115.97 -0.914965 -1.28321 0
M  V30 11062 C 1117.21 -0.549562 -1.95212 0
M  V30 11063 C 1117.54 0.904658 -1.71842 0
M  V30 11064 O 1116.82 1.64354 -1.04009 0
M  V30 11065 C 1117.1 -0.860927 -3.49657 0
M  V30 11066 C 1116.96 -2.36797 -3.82423 0
M  V30 11067 C 1118.27 -0.357926 -4.38642 0
M  V30 11068 H 1115.39 -0.201136 -0.709023 0
M  V30 11069 H 1118.04 -1.14443 -1.51667 0
M  V30 11070 H 1116.19 -0.354665 -3.86878 0
M  V30 11071 H 1117.86 -2.94494 -3.55065 0
M  V30 11072 H 1116.1 -2.82245 -3.29424 0
M  V30 11073 H 1116.77 -2.53637 -4.90278 0
M  V30 11074 H 1119.25 -0.791636 -4.085 0
M  V30 11075 H 1118.12 -0.604855 -5.45557 0
M  V30 11076 H 1118.38 0.741775 -4.35833 0
M  V30 11077 N 1117.44 1.42219 -0.679077 0
M  V30 11078 C 1118.68 2.03349 -0.207058 0
M  V30 11079 C 1119.05 1.52554 1.16581 0
M  V30 11080 O 1120.25 2.05499 1.73274 0
M  V30 11081 C 1118.52 3.56562 -0.244537 0
M  V30 11082 S 1120.08 4.38523 0.155853 0
M  V30 11083 H 1116.9 0.705932 -0.0847444 0
M  V30 11084 H 1119.5 1.73904 -0.893183 0
M  V30 11085 H 1118.2 3.91028 -1.246 0
M  V30 11086 H 1117.73 3.90686 0.461282 0
M  V30 11087 H 1119.75 4.76389 1.38808 0
M  V30 11088 N 1118.92 0.422693 1.51826 0
M  V30 11089 C 1120.34 0.0742364 1.59427 0
M  V30 11090 C 1120.54 -1.41491 1.43466 0
M  V30 11091 O 1119.59 -2.18326 1.26846 0
M  V30 11092 C 1120.91 0.581272 2.95028 0
M  V30 11093 C 1122.45 0.54043 3.08299 0
M  V30 11094 C 1122.93 1.0242 4.46401 0
M  V30 11095 N 1124.42 0.981576 4.5268 0
M  V30 11096 C 1125.16 1.32693 5.57835 0
M  V30 11097 N 1124.65 1.74441 6.70479 0
M  V30 11098 N 1126.44 1.24603 5.48115 0
M  V30 11099 H 1118.6 1.39178 1.60447 0
M  V30 11100 H 1120.86 0.572607 0.75553 0
M  V30 11101 H 1120.56 1.62261 3.12032 0
M  V30 11102 H 1120.44 -0.00176969 3.772 0
M  V30 11103 H 1122.83 -0.491895 2.90971 0
M  V30 11104 H 1122.91 1.15969 2.28002 0
M  V30 11105 H 1122.55 2.05491 4.64474 0
M  V30 11106 H 1122.48 0.381613 5.25215 0
M  V30 11107 H 1124.97 0.674808 3.71826 0
M  V30 11108 H 1125.28 1.99068 7.46721 0
M  V30 11109 H 1123.63 1.78356 6.71725 0
M  V30 11110 H 1126.82 0.918641 4.58997 0
M  V30 11111 H 1126.99 1.51847 6.29958 0
M  V30 11112 N 1120.4 -1.5685 0.153553 0
M  V30 11113 C 1121.33 -2.14231 -0.814729 0
M  V30 11114 C 1122.34 -1.09339 -1.20619 0
M  V30 11115 O 1123.53 -1.36592 -1.14913 0
M  V30 11116 C 1120.63 -2.6555 -2.10562 0
M  V30 11117 C 1119.81 -3.94912 -1.8805 0
M  V30 11118 C 1118.87 -4.31476 -3.0119 0
M  V30 11119 O 1117.89 -4.9968 -2.72596 0
M  V30 11120 N 1119.09 -3.91588 -4.28531 0
M  V30 11121 H 1121.86 -2.9794 -0.324277 0
M  V30 11122 H 1119.42 -1.61873 -0.0298087 0
M  V30 11123 H 1121.41 -2.87019 -2.85311 0
M  V30 11124 H 1119.98 -1.86529 -2.5085 0
M  V30 11125 H 1119.2 -3.82002 -0.973024 0
M  V30 11126 H 1120.49 -4.79433 -1.70356 0
M  V30 11127 H 1119.89 -3.36645 -4.54628 0
M  V30 11128 H 1118.44 -4.18095 -5.00039 0
M  V30 11129 N 1121.88 0.120221 -1.57141 0
M  V30 11130 C 1122.81 1.14876 -2.03287 0
M  V30 11131 C 1123.79 1.43259 -0.917112 0
M  V30 11132 O 1124.97 1.53721 -1.18674 0
M  V30 11133 C 1122.1 2.47525 -2.43616 0
M  V30 11134 C 1121.06 2.33607 -3.58625 0
M  V30 11135 C 1120.38 3.71207 -3.84849 0
M  V30 11136 C 1121.68 1.79761 -4.90391 0
M  V30 11137 H 1123.38 0.764943 -2.89463 0
M  V30 11138 H 1120.92 0.366516 -1.39258 0
M  V30 11139 H 1122.88 3.19728 -2.74504 0
M  V30 11140 H 1121.6 2.87794 -1.54409 0
M  V30 11141 H 1120.26 1.63853 -3.27945 0
M  V30 11142 H 1119.91 4.0896 -2.9285 0
M  V30 11143 H 1119.61 3.62749 -4.62263 0
M  V30 11144 H 1121.13 4.44917 -4.18188 0
M  V30 11145 H 1122.55 2.4178 -5.19822 0
M  V30 11146 H 1120.94 1.82126 -5.71795 0
M  V30 11147 H 1122.01 0.755087 -4.78985 0
M  V30 11148 N 1123.36 1.52689 0.390367 0
M  V30 11149 C 1124.6 1.67335 1.13329 0
M  V30 11150 C 1124.93 0.415068 1.90531 0
M  V30 11151 O 1124.2 -0.570504 1.87409 0
M  V30 11152 H 1122.78 0.616821 0.421356 0
M  V30 11153 H 1125.44 1.89799 0.443 0
M  V30 11154 H 1124.53 2.52314 1.83696 0
M  V30 11155 N 1124.83 -0.648732 1.43629 0
M  V30 11156 C 1126.07 -1.42032 1.46991 0
M  V30 11157 C 1126.44 -1.91774 0.0931841 0
M  V30 11158 O 1127.64 -2.688 0.00148504 0
M  V30 11159 C 1125.91 -2.56693 2.48684 0
M  V30 11160 S 1127.47 -3.45149 2.70956 0
M  V30 11161 H 1124.29 -0.484772 0.520113 0
M  V30 11162 H 1126.89 -0.75274 1.80427 0
M  V30 11163 H 1125.59 -2.18431 3.47442 0
M  V30 11164 H 1125.12 -3.28296 2.1676 0
M  V30 11165 H 1127.14 -4.53569 2.01221 0
M  V30 11166 N 1126.31 -1.30234 -0.887518 0
M  V30 11167 C 1127.56 -1.18675 -1.63587 0
M  V30 11168 C 1127.88 0.259342 -1.93268 0
M  V30 11169 O 1127.15 1.17523 -1.56733 0
M  V30 11170 H 1125.73 -0.436224 -0.606397 0
M  V30 11171 H 1128.39 -1.63326 -1.06351 0
M  V30 11172 H 1127.49 -1.74575 -2.58708 0
M  V30 11173 N 1127.79 1.09952 -1.12909 0
M  V30 11174 C 1128.7 2.19999 -0.81471 0
M  V30 11175 C 1129.72 1.72864 0.19851 0
M  V30 11176 O 1130.89 2.01376 0.0308832 0
M  V30 11177 C 1127.96 3.45573 -0.279363 0
M  V30 11178 C 1127.02 4.07417 -1.35314 0
M  V30 11179 C 1126.25 5.26996 -0.843247 0
M  V30 11180 O 1126.47 5.69495 0.321164 0
M  V30 11181 O 1125.41 5.79826 -1.61511 0
M  V30 11182 H 1129.23 2.49333 -1.73398 0
M  V30 11183 H 1126.82 1.18784 -0.906128 0
M  V30 11184 H 1128.7 4.21398 0.0140531 0
M  V30 11185 H 1127.38 3.17854 0.612401 0
M  V30 11186 H 1126.28 3.33253 -1.6998 0
M  V30 11187 H 1127.62 4.39349 -2.21885 0
M  V30 11188 N 1129.27 0.921757 1.27833 0
M  V30 11189 C 1130.23 0.420978 2.25301 0
M  V30 11190 C 1131.23 -0.457158 1.54165 0
M  V30 11191 O 1132.42 -0.259079 1.72263 0
M  V30 11192 C 1129.55 -0.395501 3.38598 0
M  V30 11193 H 1130.75 1.28206 2.71115 0
M  V30 11194 H 1128.3 0.701893 1.39654 0
M  V30 11195 H 1129.03 -1.27565 2.98157 0
M  V30 11196 H 1128.82 0.234029 3.91401 0
M  V30 11197 H 1130.31 -0.736444 4.11055 0
M  V30 11198 N 1130.75 -1.41857 0.686609 0
M  V30 11199 C 1132 -2.00594 0.21095 0
M  V30 11200 C 1132.31 -1.54974 -1.19341 0
M  V30 11201 O 1133.51 -2.0621 -1.76607 0
M  V30 11202 C 1131.97 -3.58418 0.326261 0
M  V30 11203 C 1131.58 -4.13022 1.73542 0
M  V30 11204 C 1133.32 -4.24404 -0.0900816 0
M  V30 11205 C 1131.23 -5.6325 1.80287 0
M  V30 11206 H 1130.16 -0.75025 0.0751077 0
M  V30 11207 H 1132.81 -1.62442 0.853508 0
M  V30 11208 H 1131.19 -3.9413 -0.384394 0
M  V30 11209 H 1132.37 -3.88747 2.47411 0
M  V30 11210 H 1130.68 -3.5953 2.10065 0
M  V30 11211 H 1133.28 -5.34666 -0.060004 0
M  V30 11212 H 1133.62 -4.00745 -1.12733 0
M  V30 11213 H 1134.15 -3.93695 0.569979 0
M  V30 11214 H 1130.89 -5.91724 2.82034 0
M  V30 11215 H 1130.41 -5.89479 1.1079 0
M  V30 11216 H 1132.09 -6.2787 1.56167 0
M  V30 11217 N 1132.22 -0.430739 -1.51599 0
M  V30 11218 C 1133.17 0.398482 -2.29161 0
M  V30 11219 C 1134.17 1.02676 -1.34737 0
M  V30 11220 O 1135.37 0.96248 -1.52106 0
M  V30 11221 H 1131.75 0.14731 -0.737431 0
M  V30 11222 H 1133.72 -0.276619 -2.97115 0
M  V30 11223 C 1132.47 1.49094 -3.14112 0
M  V30 11224 H 1131.79 1.01685 -3.86652 0
M  V30 11225 H 1133.23 2.04453 -3.7145 0
M  V30 11226 C 1131.69 2.47049 -2.29059 0
M  V30 11227 O 1132.22 3.51435 -1.94567 0
M  V30 11228 N 1130.43 2.17778 -1.92409 0
M  V30 11229 H 1129.97 1.3292 -2.20658 0
M  V30 11230 H 1129.93 2.8356 -1.35798 0
M  V30 11231 N 1133.7 1.56767 -0.161869 0
M  V30 11232 C 1134.67 2.16299 0.758104 0
M  V30 11233 C 1135.67 1.10859 1.16478 0
M  V30 11234 O 1136.86 1.36422 1.08327 0
M  V30 11235 C 1133.99 2.73819 2.03067 0
M  V30 11236 H 1135.18 2.98938 0.239992 0
M  V30 11237 H 1132.73 1.56054 0.0876532 0
M  V30 11238 H 1133.47 1.94887 2.59209 0
M  V30 11239 H 1133.25 3.50974 1.74813 0
M  V30 11240 H 1134.74 3.19638 2.68741 0
M  V30 11241 N 1135.18 -0.111886 1.57202 0
M  V30 11242 C 1136.41 -0.832407 1.89416 0
M  V30 11243 C 1136.82 -1.73096 0.753861 0
M  V30 11244 O 1136.18 -1.80416 -0.274992 0
M  V30 11245 C 1136.23 -1.65988 3.21139 0
M  V30 11246 O 1135.95 -0.797485 4.3078 0
M  V30 11247 C 1137.45 -2.48493 3.67105 0
M  V30 11248 H 1134.67 -0.238919 0.627024 0
M  V30 11249 H 1137.22 -0.0941456 2.04283 0
M  V30 11250 H 1135.37 -2.35082 3.07921 0
M  V30 11251 H 1135.79 -1.36892 5.06321 0
M  V30 11252 H 1137.26 -3.02072 4.62014 0
M  V30 11253 H 1137.74 -3.26182 2.94112 0
M  V30 11254 H 1138.34 -1.84628 3.83135 0
M  V30 11255 N 1136.66 -1.52894 -0.382264 0
M  V30 11256 C 1137.91 -1.67933 -1.1244 0
M  V30 11257 C 1138.23 -0.425166 -1.90309 0
M  V30 11258 O 1137.5 0.560557 -1.87709 0
M  V30 11259 H 1136.08 -0.619047 -0.418079 0
M  V30 11260 H 1138.74 -1.90031 -0.432928 0
M  V30 11261 H 1137.84 -2.53285 -1.82355 0
M  V30 11262 N 1138.14 0.641106 -1.43971 0
M  V30 11263 C 1139.36 1.43324 -1.4991 0
M  V30 11264 C 1139.79 1.87705 -0.121908 0
M  V30 11265 O 1139.15 1.58127 0.886875 0
M  V30 11266 C 1139.19 2.63637 -2.46025 0
M  V30 11267 O 1138.3 3.63123 -1.95488 0
M  V30 11268 H 1137.64 0.429252 -0.506595 0
M  V30 11269 H 1140.17 0.783427 -1.89007 0
M  V30 11270 H 1140.18 3.11304 -2.63731 0
M  V30 11271 H 1138.85 2.30678 -3.46064 0
M  V30 11272 H 1137.43 3.22332 -1.87501 0
M  V30 11273 N 1139.62 1.30703 0.880598 0
M  V30 11274 C 1140.58 1.17429 1.96832 0
M  V30 11275 C 1141.58 0.104305 1.60461 0
M  V30 11276 O 1142.77 0.352758 1.70591 0
M  V30 11277 C 1139.9 0.800099 3.31378 0
M  V30 11278 H 1141.09 2.14069 2.10034 0
M  V30 11279 H 1138.65 1.14162 1.06755 0
M  V30 11280 H 1139.38 -0.165606 3.23877 0
M  V30 11281 H 1139.17 1.57341 3.59146 0
M  V30 11282 H 1140.66 0.730826 4.11155 0
M  V30 11283 N 1141.09 -1.09351 1.1349 0
M  V30 11284 C 1142.04 -2.14179 0.781739 0
M  V30 11285 C 1143.03 -1.59325 -0.224575 0
M  V30 11286 O 1144.22 -1.76977 -0.0283747 0
M  V30 11287 C 1141.35 -3.42386 0.250278 0
M  V30 11288 C 1140.43 -4.04147 1.28555 0
M  V30 11289 N 1140.83 -4.40451 2.4867 0
M  V30 11290 C 1139.12 -4.31356 1.13351 0
M  V30 11291 C 1139.82 -4.89115 3.14867 0
M  V30 11292 N 1138.8 -4.86618 2.42289 0
M  V30 11293 H 1142.6 -2.40055 1.69561 0
M  V30 11294 H 1140.12 -1.26587 1.01733 0
M  V30 11295 H 1142.11 -4.16895 -0.0209767 0
M  V30 11296 H 1140.77 -3.17965 -0.657904 0
M  V30 11297 H 1141.78 -4.31789 2.8597 0
M  V30 11298 H 1138.46 -4.16536 0.28355 0
M  V30 11299 H 1139.85 -5.26663 4.17224 0
M  V30 11300 N 1142.57 -0.928524 -1.27343 0
M  V30 11301 C 1143.82 -0.569392 -1.9433 0
M  V30 11302 C 1144.15 0.889481 -1.7297 0
M  V30 11303 O 1143.4 1.6499 -1.05247 0
M  V30 11304 C 1143.7 -0.84269 -3.47323 0
M  V30 11305 C 1143.37 -2.28344 -3.88806 0
M  V30 11306 C 1142.03 -2.67731 -3.99842 0
M  V30 11307 C 1144.38 -3.22031 -4.09811 0
M  V30 11308 C 1141.71 -3.99928 -4.29272 0
M  V30 11309 C 1144.06 -4.5381 -4.40725 0
M  V30 11310 C 1142.72 -4.93031 -4.49975 0
M  V30 11311 H 1141.99 -0.208355 -0.711104 0
M  V30 11312 H 1144.64 -1.17264 -1.51398 0
M  V30 11313 H 1142.95 -0.156775 -3.91486 0
M  V30 11314 H 1144.64 -0.543779 -3.97296 0
M  V30 11315 H 1141.23 -1.96787 -3.80753 0
M  V30 11316 H 1145.42 -2.92803 -4.00724 0
M  V30 11317 H 1140.67 -4.29996 -4.34642 0
M  V30 11318 H 1144.85 -5.26407 -4.55926 0
M  V30 11319 H 1142.47 -5.95497 -4.72533 0
M  V30 11320 N 1144.05 1.41491 -0.694123 0
M  V30 11321 C 1145.3 2.00854 -0.224033 0
M  V30 11322 C 1145.62 1.55246 1.17999 0
M  V30 11323 O 1144.89 0.782452 1.79595 0
M  V30 11324 H 1143.47 0.742721 -0.0798368 0
M  V30 11325 H 1146.13 1.73137 -0.894958 0
M  V30 11326 H 1145.23 3.11173 -0.240332 0
M  V30 11327 N 1145.53 0.438773 1.51369 0
M  V30 11328 C 1146.44 -0.378074 2.31534 0
M  V30 11329 C 1147.45 -1.02632 1.40508 0
M  V30 11330 O 1148.63 -1.02138 1.73579 0
M  V30 11331 C 1145.69 -1.46374 3.14286 0
M  V30 11332 C 1144.76 -0.835473 4.21092 0
M  V30 11333 C 1143.99 -1.86941 4.99889 0
M  V30 11334 O 1144.21 -3.0918 4.79337 0
M  V30 11335 O 1143.15 -1.45914 5.83946 0
M  V30 11336 H 1146.97 0.276401 3.0244 0
M  V30 11337 H 1144.56 0.201281 1.48038 0
M  V30 11338 H 1146.44 -2.09335 3.65728 0
M  V30 11339 H 1145.11 -2.10227 2.46143 0
M  V30 11340 H 1144.02 -0.167775 3.73724 0
M  V30 11341 H 1145.35 -0.240406 4.91613 0
M  V30 11342 N 1147.01 -1.56678 0.170181 0
M  V30 11343 C 1148.25 -1.9646 -0.474125 0
M  V30 11344 C 1148.57 -1.05719 -1.63855 0
M  V30 11345 O 1147.84 -0.123316 -1.95511 0
M  V30 11346 H 1146.42 -0.725446 -0.178149 0
M  V30 11347 H 1149.09 -1.93276 0.251099 0
M  V30 11348 H 1148.18 -3.00726 -0.834894 0
M  V30 11349 N 1148.48 0.103547 -1.57259 0
M  V30 11350 C 1149.71 0.82235 -1.89855 0
M  V30 11351 C 1150.13 1.72694 -0.76303 0
M  V30 11352 O 1149.48 1.8056 0.265421 0
M  V30 11353 C 1149.53 1.64282 -3.22015 0
M  V30 11354 O 1149.26 0.774628 -4.31197 0
M  V30 11355 C 1150.76 2.46543 -3.68418 0
M  V30 11356 H 1147.98 0.235591 -0.628282 0
M  V30 11357 H 1150.52 0.0833106 -2.0433 0
M  V30 11358 H 1148.68 2.33446 -3.09163 0
M  V30 11359 H 1149.09 1.34205 -5.0704 0
M  V30 11360 H 1150.56 2.99618 -4.63609 0
M  V30 11361 H 1151.04 3.24618 -2.95838 0
M  V30 11362 H 1151.65 1.82594 -3.84109 0
M  V30 11363 N 1149.96 1.53094 0.37415 0
M  V30 11364 C 1151.21 1.68527 1.11548 0
M  V30 11365 C 1151.53 0.435253 1.9008 0
M  V30 11366 O 1150.8 -0.550594 1.88003 0
M  V30 11367 H 1149.38 0.621255 0.41479 0
M  V30 11368 H 1152.04 1.90258 0.422844 0
M  V30 11369 H 1151.14 2.54248 1.81009 0
M  V30 11370 N 1151.44 -0.633461 1.44309 0
M  V30 11371 C 1152.85 -1.21504 1.41752 0
M  V30 11372 C 1153.2 -1.95758 0.131667 0
M  V30 11373 O 1152.33 -2.02311 -0.768072 0
M  V30 11374 C 1152.92 -2.21005 2.56792 0
M  V30 11375 C 1151.48 -2.74596 2.57438 0
M  V30 11376 C 1150.63 -1.49555 2.33513 0
M  V30 11377 H 1153.58 -0.424277 1.52923 0
M  V30 11378 H 1153.6 -3.03563 2.29412 0
M  V30 11379 H 1153.11 -1.66934 3.50364 0
M  V30 11380 H 1151.21 -3.32676 1.67801 0
M  V30 11381 H 1151.33 -3.20794 3.55849 0
M  V30 11382 H 1149.69 -1.77605 1.82561 0
M  V30 11383 H 1150.47 -0.973899 3.29196 0
M  V30 11384 N 1152.92 -1.31168 -0.873655 0
M  V30 11385 C 1154.17 -1.20003 -1.62118 0
M  V30 11386 C 1154.48 0.241505 -1.94103 0
M  V30 11387 O 1155.69 0.474801 -2.67316 0
M  V30 11388 C 1154.14 -2.10055 -2.92241 0
M  V30 11389 C 1153.75 -3.59183 -2.67752 0
M  V30 11390 C 1155.49 -2.07681 -3.70228 0
M  V30 11391 C 1153.4 -4.41255 -3.93761 0
M  V30 11392 H 1152.33 -0.445564 -0.608267 0
M  V30 11393 H 1154.98 -1.55997 -0.966287 0
M  V30 11394 H 1153.36 -1.66956 -3.59085 0
M  V30 11395 H 1154.54 -4.10504 -2.09339 0
M  V30 11396 H 1152.85 -3.63496 -2.03125 0
M  V30 11397 H 1155.45 -2.66246 -4.637 0
M  V30 11398 H 1155.79 -1.06304 -4.02499 0
M  V30 11399 H 1156.33 -2.48961 -3.10263 0
M  V30 11400 H 1153.07 -5.43372 -3.66643 0
M  V30 11401 H 1152.59 -3.94694 -4.51638 0
M  V30 11402 H 1154.26 -4.53278 -4.6168 0
M  V30 11403 N 1154.4 1.08748 -1.14068 0
M  V30 11404 C 1155.64 1.81504 -0.918035 0
M  V30 11405 C 1156 1.84381 0.549671 0
M  V30 11406 O 1155.29 1.30612 1.40183 0
M  V30 11407 C 1155.48 3.26734 -1.44843 0
M  V30 11408 C 1155.31 3.38006 -2.96617 0
M  V30 11409 C 1154.08 3.49401 -3.6503 0
M  V30 11410 C 1156.28 3.29952 -3.94507 0
M  V30 11411 N 1154.26 3.49428 -5.04751 0
M  V30 11412 C 1155.63 3.3693 -5.20459 0
M  V30 11413 C 1157.69 3.13666 -3.86676 0
M  V30 11414 C 1156.39 3.29299 -6.39496 0
M  V30 11415 C 1158.42 3.07363 -5.05254 0
M  V30 11416 C 1157.78 3.1494 -6.30073 0
M  V30 11417 H 1153.88 0.67814 -0.389423 0
M  V30 11418 H 1156.46 1.29916 -1.45017 0
M  V30 11419 H 1154.63 3.76776 -0.943112 0
M  V30 11420 H 1156.37 3.87537 -1.16606 0
M  V30 11421 H 1153.12 3.53145 -3.15572 0
M  V30 11422 H 1153.55 3.53007 -5.77681 0
M  V30 11423 H 1158.19 3.06673 -2.91053 0
M  V30 11424 H 1155.91 3.35054 -7.35367 0
M  V30 11425 H 1159.49 2.95887 -5.00941 0
M  V30 11426 H 1158.37 3.10088 -7.20288 0
M  V30 11427 N 1155.87 0.935264 1.26849 0
M  V30 11428 C 1156.8 0.457776 2.28969 0
M  V30 11429 C 1157.79 -0.48587 1.63013 0
M  V30 11430 O 1158.97 -0.388998 1.90264 0
M  V30 11431 C 1156.1 -0.283332 3.46142 0
M  V30 11432 C 1155.05 0.573196 4.24144 0
M  V30 11433 C 1154.38 -0.297525 5.33872 0
M  V30 11434 C 1155.68 1.84153 4.88759 0
M  V30 11435 H 1157.37 1.31125 2.69159 0
M  V30 11436 H 1154.92 0.631956 1.29392 0
M  V30 11437 H 1156.87 -0.628366 4.16689 0
M  V30 11438 H 1155.6 -1.1709 3.04889 0
M  V30 11439 H 1154.26 0.901043 3.55354 0
M  V30 11440 H 1153.9 -1.18427 4.8886 0
M  V30 11441 H 1153.6 0.272126 5.8697 0
M  V30 11442 H 1155.13 -0.637961 6.07258 0
M  V30 11443 H 1156.54 1.5641 5.51551 0
M  V30 11444 H 1154.94 2.35528 5.51948 0
M  V30 11445 H 1156.01 2.5565 4.12033 0
M  V30 11446 N 1157.35 -1.41121 0.701616 0
M  V30 11447 C 1158.63 -1.9492 0.162911 0
M  V30 11448 C 1159.01 -1.64064 -1.32839 0
M  V30 11449 O 1158.36 -0.950848 -2.07777 0
M  V30 11450 C 1158.57 -3.45946 0.460673 0
M  V30 11451 C 1159.92 -4.22789 0.391706 0
M  V30 11452 O 1160.94 -3.53993 0.395931 0
M  V30 11453 O 1159.8 -5.45332 0.357071 0
M  V30 11454 H 1156.89 -0.826793 0.0185103 0
M  V30 11455 H 1159.44 -1.50805 0.778192 0
M  V30 11456 H 1158.21 -3.61711 1.49269 0
M  V30 11457 H 1157.83 -3.97168 -0.185277 0
M  V30 11458 N 1158.83 -0.446794 -1.51134 0
M  V30 11459 C 1159.74 0.36579 -2.31731 0
M  V30 11460 C 1160.76 1.01886 -1.41051 0
M  V30 11461 O 1161.93 1.01216 -1.74119 0
M  V30 11462 C 1159 1.44705 -3.15058 0
M  V30 11463 C 1158.06 0.813129 -4.21529 0
M  V30 11464 C 1157.29 1.84287 -5.00873 0
M  V30 11465 O 1157.51 3.06633 -4.8097 0
M  V30 11466 O 1156.45 1.42816 -5.84711 0
M  V30 11467 H 1160.27 -0.292436 -3.02289 0
M  V30 11468 H 1157.86 -0.209129 -1.47929 0
M  V30 11469 H 1159.74 2.07393 -3.66833 0
M  V30 11470 H 1158.42 2.08919 -2.47254 0
M  V30 11471 H 1157.32 0.147953 -3.73807 0
M  V30 11472 H 1158.66 0.214331 -4.91733 0
M  V30 11473 N 1160.31 1.56586 -0.178487 0
M  V30 11474 C 1161.24 2.14168 0.787856 0
M  V30 11475 C 1162.22 1.07374 1.22105 0
M  V30 11476 O 1163.4 1.35391 1.31154 0
M  V30 11477 C 1160.53 2.68708 2.06189 0
M  V30 11478 C 1159.58 3.8794 1.77215 0
M  V30 11479 S 1160.41 5.27274 0.935002 0
M  V30 11480 C 1161.57 5.85224 2.21954 0
M  V30 11481 H 1161.8 2.958 0.298293 0
M  V30 11482 H 1159.33 1.54357 0.0362853 0
M  V30 11483 H 1161.29 3.00777 2.79363 0
M  V30 11484 H 1159.95 1.87149 2.52258 0
M  V30 11485 H 1159.14 4.24453 2.71764 0
M  V30 11486 H 1158.75 3.56795 1.12132 0
M  V30 11487 H 1161.04 5.98575 3.17355 0
M  V30 11488 H 1161.98 6.82162 1.89898 0
M  V30 11489 H 1162.39 5.13697 2.34042 0
M  V30 11490 N 1161.79 -0.095206 1.57312 0
M  V30 11491 C 1162.73 -1.11551 2.02052 0
M  V30 11492 C 1163.7 -1.39808 0.896818 0
M  V30 11493 O 1164.89 -1.51273 1.1628 0
M  V30 11494 C 1162.03 -2.43056 2.44985 0
M  V30 11495 C 1161.14 -2.21531 3.70875 0
M  V30 11496 C 1160.28 -3.46434 4.02687 0
M  V30 11497 C 1159.32 -3.2017 5.21687 0
M  V30 11498 N 1158.45 -4.37339 5.49253 0
M  V30 11499 H 1163.29 -0.727 2.88996 0
M  V30 11500 H 1160.83 -0.347441 1.42938 0
M  V30 11501 H 1162.79 -3.19803 2.67921 0
M  V30 11502 H 1161.42 -2.79754 1.61051 0
M  V30 11503 H 1160.47 -1.35587 3.55416 0
M  V30 11504 H 1161.78 -1.98116 4.57768 0
M  V30 11505 H 1160.94 -4.31589 4.26399 0
M  V30 11506 H 1159.67 -3.72904 3.14315 0
M  V30 11507 H 1158.68 -2.33409 4.97796 0
M  V30 11508 H 1159.9 -2.95047 6.11657 0
M  V30 11509 H 1157.85 -4.63885 4.6384 0
M  V30 11510 H 1157.77 -4.17114 6.30517 0
M  V30 11511 H 1159.04 -5.23559 5.775 0
M  V30 11512 N 1163.26 -1.53291 -0.366026 0
M  V30 11513 C 1164.5 -1.71153 -1.11741 0
M  V30 11514 C 1164.87 -0.453416 -1.86569 0
M  V30 11515 O 1166.07 -0.508724 -2.63942 0
M  V30 11516 C 1164.34 -2.92657 -2.0515 0
M  V30 11517 S 1165.9 -3.31223 -2.87814 0
M  V30 11518 H 1162.72 -0.602251 -0.377909 0
M  V30 11519 H 1165.32 -1.91391 -0.398721 0
M  V30 11520 H 1164.02 -3.8242 -1.48939 0
M  V30 11521 H 1163.55 -2.7482 -2.81492 0
M  V30 11522 H 1165.57 -2.83201 -4.07445 0
M  V30 11523 N 1164.74 0.6258 -1.44643 0
M  V30 11524 C 1165.69 1.75869 -1.52226 0
M  V30 11525 C 1166.68 1.64765 -0.39355 0
M  V30 11526 O 1167.89 1.70779 -0.568718 0
M  V30 11527 H 1164.27 0.580712 -0.477784 0
M  V30 11528 H 1166.24 1.66596 -2.47565 0
M  V30 11529 C 1164.99 3.14217 -1.48873 0
M  V30 11530 H 1164.31 3.23411 -2.35043 0
M  V30 11531 H 1165.75 3.93365 -1.58239 0
M  V30 11532 C 1164.21 3.36243 -0.210299 0
M  V30 11533 O 1164.74 3.95243 0.717335 0
M  V30 11534 N 1162.94 2.90385 -0.111744 0
M  V30 11535 H 1162.49 2.42555 -0.867466 0
M  V30 11536 H 1162.45 3.05498 0.742871 0
M  V30 11537 N 1166.22 1.31629 0.866686 0
M  V30 11538 C 1167.47 1.21263 1.61678 0
M  V30 11539 C 1167.79 -0.228562 1.93656 0
M  V30 11540 O 1167.06 -1.15014 1.58583 0
M  V30 11541 H 1165.64 0.445817 0.59938 0
M  V30 11542 H 1168.3 1.64998 1.03739 0
M  V30 11543 H 1167.4 1.78669 2.55898 0
M  V30 11544 N 1167.7 -1.08142 1.14644 0
M  V30 11545 C 1168.65 -2.15133 0.835845 0
M  V30 11546 C 1169.62 -1.64795 -0.207785 0
M  V30 11547 O 1170.8 -1.90644 -0.07711 0
M  V30 11548 C 1167.94 -3.4359 0.322456 0
M  V30 11549 C 1167.05 -4.07761 1.42671 0
M  V30 11550 C 1166.19 -5.24022 0.870281 0
M  V30 11551 C 1165.23 -5.8014 1.95202 0
M  V30 11552 N 1164.37 -6.87743 1.41257 0
M  V30 11553 H 1169.21 -2.41042 1.75222 0
M  V30 11554 H 1166.74 -1.18288 0.874428 0
M  V30 11555 H 1168.7 -4.17199 0.00657059 0
M  V30 11556 H 1167.33 -3.17958 -0.557014 0
M  V30 11557 H 1166.38 -3.31885 1.85893 0
M  V30 11558 H 1167.69 -4.45485 2.24375 0
M  V30 11559 H 1166.85 -6.04582 0.506459 0
M  V30 11560 H 1165.59 -4.87695 0.0223118 0
M  V30 11561 H 1164.59 -4.98232 2.32476 0
M  V30 11562 H 1165.82 -6.18525 2.80363 0
M  V30 11563 H 1163.76 -6.5337 0.586826 0
M  V30 11564 H 1163.68 -7.24308 2.16596 0
M  V30 11565 H 1164.95 -7.72028 1.07674 0
M  V30 11566 N 1169.18 -0.941978 -1.26351 0
M  V30 11567 C 1170.09 -0.45833 -2.30079 0
M  V30 11568 C 1171.1 0.468084 -1.67586 0
M  V30 11569 O 1172.28 0.347418 -1.98381 0
M  V30 11570 C 1169.34 0.26797 -3.45663 0
M  V30 11571 C 1168.41 -0.695102 -4.23635 0
M  V30 11572 C 1167.64 -0.003369 -5.337 0
M  V30 11573 O 1167.86 1.21342 -5.57344 0
M  V30 11574 O 1166.8 -0.682476 -5.98018 0
M  V30 11575 H 1170.62 -1.31998 -2.73514 0
M  V30 11576 H 1168.21 -0.707897 -1.31564 0
M  V30 11577 H 1170.09 0.677061 -4.15925 0
M  V30 11578 H 1168.76 1.105 -3.04256 0
M  V30 11579 H 1167.67 -1.15415 -3.55851 0
M  V30 11580 H 1169 -1.49977 -4.68794 0
M  V30 11581 N 1170.66 1.40747 -0.709091 0
M  V30 11582 C 1171.88 2.05841 -0.253816 0
M  V30 11583 C 1172.31 1.53056 1.09341 0
M  V30 11584 O 1171.66 0.663181 1.68735 0
M  V30 11585 C 1171.71 3.59822 -0.236699 0
M  V30 11586 O 1170.82 4.04876 0.784168 0
M  V30 11587 H 1170.16 0.65295 -0.120631 0
M  V30 11588 H 1172.69 1.80266 -0.967749 0
M  V30 11589 H 1172.7 4.07936 -0.0721616 0
M  V30 11590 H 1171.37 3.97608 -1.21988 0
M  V30 11591 H 1169.95 3.68237 0.587884 0
M  V30 11592 N 1172.13 0.454803 1.50895 0
M  V30 11593 C 1173.55 0.108037 1.59234 0
M  V30 11594 C 1173.75 -1.38416 1.46435 0
M  V30 11595 O 1172.81 -2.15586 1.31449 0
M  V30 11596 C 1174.12 0.643721 2.93729 0
M  V30 11597 C 1175.67 0.605703 3.07083 0
M  V30 11598 C 1176.14 1.11865 4.44128 0
M  V30 11599 N 1177.63 1.07738 4.50496 0
M  V30 11600 C 1178.37 1.44495 5.54895 0
M  V30 11601 N 1177.86 1.88624 6.66628 0
M  V30 11602 N 1179.66 1.36201 5.45349 0
M  V30 11603 H 1171.81 1.4255 1.57459 0
M  V30 11604 H 1174.07 0.588504 0.743214 0
M  V30 11605 H 1173.78 1.68844 3.0852 0
M  V30 11606 H 1173.65 0.0782404 3.77119 0
M  V30 11607 H 1176.04 -0.430065 2.91949 0
M  V30 11608 H 1176.12 1.2078 2.2549 0
M  V30 11609 H 1175.76 2.15297 4.6001 0
M  V30 11610 H 1175.69 0.492933 5.24288 0
M  V30 11611 H 1178.18 0.753526 3.70311 0
M  V30 11612 H 1178.5 2.14863 7.4233 0
M  V30 11613 H 1176.84 1.92564 6.6779 0
M  V30 11614 H 1180.03 1.01579 4.56946 0
M  V30 11615 H 1180.21 1.65175 6.26595 0
M  V30 11616 N 1173.61 -1.56489 0.186789 0
M  V30 11617 C 1174.86 -1.96517 -0.45433 0
M  V30 11618 C 1175.17 -1.07618 -1.63333 0
M  V30 11619 O 1176.38 -1.37392 -2.3417 0
M  V30 11620 C 1174.84 -3.49482 -0.859685 0
M  V30 11621 C 1174.44 -4.47031 0.294572 0
M  V30 11622 C 1176.19 -3.98296 -1.46835 0
M  V30 11623 C 1174.09 -5.91254 -0.131279 0
M  V30 11624 H 1173.02 -0.733765 -0.17351 0
M  V30 11625 H 1175.68 -1.8139 0.277485 0
M  V30 11626 H 1174.06 -3.60082 -1.64793 0
M  V30 11627 H 1175.23 -4.48156 1.07205 0
M  V30 11628 H 1173.55 -4.08362 0.814197 0
M  V30 11629 H 1176.14 -5.03518 -1.79928 0
M  V30 11630 H 1176.49 -3.42123 -2.37186 0
M  V30 11631 H 1177.02 -3.90776 -0.744247 0
M  V30 11632 H 1173.76 -6.51334 0.737839 0
M  V30 11633 H 1173.28 -5.93401 -0.873786 0
M  V30 11634 H 1174.96 -6.44485 -0.569913 0
M  V30 11635 N 1175.09 0.086862 -1.5736 0
M  V30 11636 C 1176.34 0.784846 -1.87648 0
M  V30 11637 C 1176.69 1.7594 -0.778647 0
M  V30 11638 O 1175.98 1.90349 0.218612 0
M  V30 11639 C 1176.18 1.54537 -3.22263 0
M  V30 11640 C 1176.01 0.645971 -4.45036 0
M  V30 11641 C 1174.78 0.288589 -5.04475 0
M  V30 11642 C 1176.97 -0.0506915 -5.14275 0
M  V30 11643 N 1174.96 -0.618109 -6.1078 0
M  V30 11644 C 1176.33 -0.815144 -6.14618 0
M  V30 11645 C 1178.38 -0.123748 -4.97746 0
M  V30 11646 C 1177.09 -1.64584 -7.00218 0
M  V30 11647 C 1179.11 -0.94137 -5.8386 0
M  V30 11648 C 1178.47 -1.69392 -6.83729 0
M  V30 11649 H 1174.57 0.263103 -0.736411 0
M  V30 11650 H 1177.16 0.0470027 -1.94643 0
M  V30 11651 H 1175.33 2.25403 -3.16304 0
M  V30 11652 H 1177.06 2.19119 -3.40248 0
M  V30 11653 H 1173.81 0.638093 -4.69282 0
M  V30 11654 H 1174.24 -1.06426 -6.68583 0
M  V30 11655 H 1178.88 0.443728 -4.20465 0
M  V30 11656 H 1176.6 -2.22435 -7.76884 0
M  V30 11657 H 1180.18 -1.00068 -5.7313 0
M  V30 11658 H 1179.06 -2.31639 -7.49208 0
M  V30 11659 N 1176.57 1.53483 0.357892 0
M  V30 11660 C 1177.5 1.76757 1.4591 0
M  V30 11661 C 1178.51 0.648502 1.49326 0
M  V30 11662 O 1179.7 0.924932 1.52667 0
M  V30 11663 C 1176.8 1.83938 2.8464 0
M  V30 11664 C 1175.97 3.13683 3.04831 0
M  V30 11665 C 1175.03 3.12007 4.23719 0
M  V30 11666 O 1174.06 3.8578 4.18524 0
M  V30 11667 N 1175.26 2.33366 5.31527 0
M  V30 11668 H 1178.03 2.71778 1.2632 0
M  V30 11669 H 1175.59 1.52355 0.547673 0
M  V30 11670 H 1177.58 1.80285 3.62325 0
M  V30 11671 H 1176.15 0.961675 2.9744 0
M  V30 11672 H 1175.37 3.30576 2.14739 0
M  V30 11673 H 1176.66 3.99412 3.15194 0
M  V30 11674 H 1176.06 1.72954 5.38613 0
M  V30 11675 H 1174.61 2.35524 6.07759 0
M  V30 11676 N 1178.05 -0.61812 1.44973 0
M  V30 11677 C 1179.29 -1.38882 1.4997 0
M  V30 11678 C 1179.65 -1.91533 0.133841 0
M  V30 11679 O 1180.85 -2.68736 0.0585012 0
M  V30 11680 C 1179.12 -2.5136 2.54073 0
M  V30 11681 S 1180.68 -3.39324 2.78216 0
M  V30 11682 H 1177.5 -0.473631 0.530278 0
M  V30 11683 H 1180.1 -0.714299 1.81984 0
M  V30 11684 H 1178.8 -2.11012 3.51997 0
M  V30 11685 H 1178.34 -3.23625 2.23675 0
M  V30 11686 H 1180.35 -4.49198 2.10797 0
M  V30 11687 N 1179.52 -1.32087 -0.859693 0
M  V30 11688 C 1180.47 -1.17188 -1.95578 0
M  V30 11689 C 1181.46 -0.0801302 -1.607 0
M  V30 11690 O 1182.65 -0.306118 -1.74333 0
M  V30 11691 C 1179.78 -0.891916 -3.31511 0
M  V30 11692 C 1178.86 -2.02513 -3.72625 0
M  V30 11693 N 1179.26 -3.27321 -3.85609 0
M  V30 11694 C 1177.55 -1.92717 -4.02214 0
M  V30 11695 C 1178.25 -4.01513 -4.20906 0
M  V30 11696 N 1177.23 -3.29767 -4.32151 0
M  V30 11697 H 1181.03 -2.11816 -2.03743 0
M  V30 11698 H 1178.55 -1.23794 -1.05114 0
M  V30 11699 H 1180.54 -0.766143 -4.098 0
M  V30 11700 H 1179.2 0.0460349 -3.24667 0
M  V30 11701 H 1180.21 -3.62317 -3.70063 0
M  V30 11702 H 1176.89 -1.06452 -4.03701 0
M  V30 11703 H 1178.28 -5.09116 -4.38463 0
M  V30 11704 N 1181 1.07532 -1.15215 0
M  V30 11705 C 1182.23 1.84356 -0.950139 0
M  V30 11706 C 1182.65 1.81429 0.496502 0
M  V30 11707 O 1182.01 1.20589 1.35381 0
M  V30 11708 C 1182.06 3.29425 -1.46669 0
M  V30 11709 O 1181.16 4.07008 -0.664674 0
M  V30 11710 H 1180.5 0.570921 -0.339036 0
M  V30 11711 H 1183.03 1.35665 -1.53154 0
M  V30 11712 H 1183.04 3.8026 -1.47873 0
M  V30 11713 H 1181.72 3.3087 -2.51988 0
M  V30 11714 H 1180.29 3.65841 -0.72211 0
M  V30 11715 N 1182.48 0.948665 1.2585 0
M  V30 11716 C 1183.43 0.434929 2.23813 0
M  V30 11717 C 1184.41 -0.472518 1.53805 0
M  V30 11718 O 1185.61 -0.306542 1.74325 0
M  V30 11719 C 1182.74 -0.291678 3.42059 0
M  V30 11720 C 1181.82 0.633493 4.19342 0
M  V30 11721 N 1182.21 1.76254 4.74097 0
M  V30 11722 C 1180.51 0.440528 4.43819 0
M  V30 11723 C 1181.21 2.33968 5.32573 0
M  V30 11724 N 1180.19 1.62687 5.18685 0
M  V30 11725 H 1183.99 1.29668 2.63749 0
M  V30 11726 H 1181.5 0.805431 1.4102 0
M  V30 11727 H 1183.5 -0.676811 4.1137 0
M  V30 11728 H 1182.16 -1.15011 3.03649 0
M  V30 11729 H 1183.17 2.14453 4.71413 0
M  V30 11730 H 1179.85 -0.375515 4.15808 0
M  V30 11731 H 1181.24 3.2914 5.85761 0
M  V30 11732 N 1183.96 -1.40369 0.716545 0
M  V30 11733 C 1185.21 -2.00473 0.255959 0
M  V30 11734 C 1185.53 -1.57104 -1.15514 0
M  V30 11735 O 1184.8 -0.810925 -1.78328 0
M  V30 11736 H 1183.38 -0.741357 0.0916427 0
M  V30 11737 H 1186.04 -1.71692 0.922389 0
M  V30 11738 H 1185.14 -3.10752 0.289806 0
M  V30 11739 N 1185.44 -0.462799 -1.50652 0
M  V30 11740 C 1186.68 0.0873392 -2.03212 0
M  V30 11741 C 1187.04 1.38147 -1.33915 0
M  V30 11742 O 1186.33 1.86161 -0.453286 0
M  V30 11743 C 1186.52 0.335294 -3.55824 0
M  V30 11744 C 1186.35 -0.933253 -4.3991 0
M  V30 11745 C 1185.12 -1.47417 -4.83318 0
M  V30 11746 C 1187.32 -1.8264 -4.80777 0
M  V30 11747 N 1185.3 -2.6926 -5.51699 0
M  V30 11748 C 1186.67 -2.89075 -5.48485 0
M  V30 11749 C 1188.73 -1.83778 -4.62742 0
M  V30 11750 C 1187.43 -3.96625 -6.00067 0
M  V30 11751 C 1189.46 -2.90279 -5.15259 0
M  V30 11752 C 1188.82 -3.95433 -5.82934 0
M  V30 11753 H 1184.92 -0.00785676 -0.781961 0
M  V30 11754 H 1187.5 -0.629156 -1.84254 0
M  V30 11755 H 1185.67 1.02083 -3.74745 0
M  V30 11756 H 1187.41 0.879039 -3.95038 0
M  V30 11757 H 1184.16 -1.02451 -4.62386 0
M  V30 11758 H 1184.59 -3.31115 -5.90502 0
M  V30 11759 H 1189.23 -1.03802 -4.0986 0
M  V30 11760 H 1186.95 -4.77424 -6.51991 0
M  V30 11761 H 1190.53 -2.92133 -5.0314 0
M  V30 11762 H 1189.41 -4.76487 -6.2284 0
M  V30 11763 N 1186.91 1.56388 -0.195085 0
M  V30 11764 C 1188.16 1.97189 0.44281 0
M  V30 11765 C 1188.48 1.08312 1.62153 0
M  V30 11766 O 1187.75 0.154404 1.95291 0
M  V30 11767 H 1186.33 0.728188 0.166585 0
M  V30 11768 H 1189 1.92852 -0.281815 0
M  V30 11769 H 1188.09 3.02016 0.786945 0
M  V30 11770 N 1188.39 -0.0785156 1.57404 0
M  V30 11771 C 1189.32 -1.12058 1.99939 0
M  V30 11772 C 1190.34 -1.35372 0.904343 0
M  V30 11773 O 1191.53 -1.33731 1.1823 0
M  V30 11774 C 1188.63 -2.47285 2.31739 0
M  V30 11775 C 1187.8 -2.44021 3.63005 0
M  V30 11776 C 1186.86 -3.61303 3.82552 0
M  V30 11777 O 1185.88 -3.43039 4.54217 0
M  V30 11778 N 1187.09 -4.81404 3.24392 0
M  V30 11779 H 1189.85 -0.758416 2.89945 0
M  V30 11780 H 1187.41 -0.267266 1.59679 0
M  V30 11781 H 1189.4 -3.24377 2.41995 0
M  V30 11782 H 1187.97 -2.75529 1.47657 0
M  V30 11783 H 1187.19 -1.52361 3.63565 0
M  V30 11784 H 1188.48 -2.38934 4.49208 0
M  V30 11785 H 1187.88 -4.99147 2.66211 0
M  V30 11786 H 1186.44 -5.56031 3.40107 0
M  V30 11787 N 1189.87 -1.5367 -0.349747 0
M  V30 11788 C 1190.8 -1.77528 -1.4497 0
M  V30 11789 C 1191.82 -0.656412 -1.4898 0
M  V30 11790 O 1193 -0.933016 -1.52174 0
M  V30 11791 C 1190.1 -1.85445 -2.8366 0
M  V30 11792 C 1189.28 -3.15295 -3.03163 0
M  V30 11793 C 1188.34 -3.1425 -4.22059 0
M  V30 11794 O 1187.36 -3.87994 -4.16472 0
M  V30 11795 N 1188.56 -2.36181 -5.30282 0
M  V30 11796 H 1191.33 -2.72444 -1.24877 0
M  V30 11797 H 1188.89 -1.52644 -0.539586 0
M  V30 11798 H 1190.88 -1.82204 -3.61364 0
M  V30 11799 H 1189.45 -0.977436 -2.96926 0
M  V30 11800 H 1188.67 -3.31711 -2.12983 0
M  V30 11801 H 1189.96 -4.01078 -3.13072 0
M  V30 11802 H 1189.36 -1.75808 -5.37688 0
M  V30 11803 H 1187.92 -2.38744 -6.06502 0
M  V30 11804 N 1191.35 0.610423 -1.45298 0
M  V30 11805 C 1192.3 1.74245 -1.54083 0
M  V30 11806 C 1193.29 1.64338 -0.411003 0
M  V30 11807 O 1194.5 1.70167 -0.586799 0
M  V30 11808 H 1190.87 0.575612 -0.483916 0
M  V30 11809 H 1192.84 1.63961 -2.49318 0
M  V30 11810 C 1191.59 3.1262 -1.52198 0
M  V30 11811 H 1190.91 3.209 -2.3846 0
M  V30 11812 H 1192.35 3.91665 -1.62403 0
M  V30 11813 C 1190.81 3.36001 -0.24595 0
M  V30 11814 O 1191.34 3.95982 0.675374 0
M  V30 11815 N 1189.55 2.9025 -0.142537 0
M  V30 11816 H 1189.1 2.41621 -0.893143 0
M  V30 11817 H 1189.05 3.06268 0.710427 0
M  V30 11818 N 1192.83 1.32541 0.852676 0
M  V30 11819 C 1194.07 1.24532 1.62083 0
M  V30 11820 C 1194.43 -0.189531 1.91062 0
M  V30 11821 O 1195.63 -0.393382 2.65906 0
M  V30 11822 C 1193.9 2.0828 2.90438 0
M  V30 11823 S 1195.46 2.17317 3.81207 0
M  V30 11824 H 1192.28 0.443261 0.555915 0
M  V30 11825 H 1194.88 1.67413 1.00961 0
M  V30 11826 H 1193.59 3.11587 2.67099 0
M  V30 11827 H 1193.12 1.66184 3.56576 0
M  V30 11828 H 1195.13 1.32412 4.78207 0
M  V30 11829 N 1194.3 -1.0692 1.15784 0
M  V30 11830 C 1195.72 -1.31707 0.901408 0
M  V30 11831 C 1195.92 -1.96429 -0.449203 0
M  V30 11832 O 1194.98 -2.22692 -1.19015 0
M  V30 11833 C 1196.29 -2.20391 2.04568 0
M  V30 11834 C 1197.84 -2.33827 2.08072 0
M  V30 11835 C 1198.31 -3.25862 3.21835 0
M  V30 11836 N 1199.8 -3.33444 3.21511 0
M  V30 11837 C 1200.54 -4.04731 4.06177 0
M  V30 11838 N 1200.03 -4.78596 5.00917 0
M  V30 11839 N 1201.83 -4.00717 3.94185 0
M  V30 11840 H 1193.98 -0.632989 2.02749 0
M  V30 11841 H 1196.24 -0.341587 0.88432 0
M  V30 11842 H 1195.95 -1.80102 3.02087 0
M  V30 11843 H 1195.82 -3.20943 1.9818 0
M  V30 11844 H 1198.21 -2.73367 1.11151 0
M  V30 11845 H 1198.29 -1.32964 2.18527 0
M  V30 11846 H 1197.93 -2.8704 4.19012 0
M  V30 11847 H 1197.86 -4.26689 3.08617 0
M  V30 11848 H 1200.35 -2.80798 2.52905 0
M  V30 11849 H 1200.67 -5.30499 5.61952 0
M  V30 11850 H 1199.01 -4.77598 5.04902 0
M  V30 11851 H 1202.2 -3.42126 3.1948 0
M  V30 11852 H 1202.38 -4.56008 4.60392 0
M  V30 11853 N 1195.78 -0.955326 -1.25345 0
M  V30 11854 C 1196.73 -0.446792 -2.23579 0
M  V30 11855 C 1197.72 0.464354 -1.54054 0
M  V30 11856 O 1198.91 0.297293 -1.74485 0
M  V30 11857 C 1196.04 0.273533 -3.42209 0
M  V30 11858 C 1195.12 -0.655722 -4.19 0
M  V30 11859 N 1195.51 -1.78766 -4.73156 0
M  V30 11860 C 1193.81 -0.464059 -4.43579 0
M  V30 11861 C 1194.51 -2.36789 -5.31324 0
M  V30 11862 N 1193.49 -1.65435 -5.17815 0
M  V30 11863 H 1197.29 -1.31065 -2.63057 0
M  V30 11864 H 1194.81 -0.812899 -1.40591 0
M  V30 11865 H 1196.8 0.654986 -4.11723 0
M  V30 11866 H 1195.46 1.13399 -3.04254 0
M  V30 11867 H 1196.47 -2.1695 -4.70269 0
M  V30 11868 H 1193.15 0.353459 -4.16001 0
M  V30 11869 H 1194.54 -3.32242 -5.84008 0
M  V30 11870 N 1197.26 1.39987 -0.723979 0
M  V30 11871 C 1198.21 2.30672 -0.0768286 0
M  V30 11872 C 1199.18 1.48634 0.741422 0
M  V30 11873 O 1200.36 1.77351 0.703649 0
M  V30 11874 C 1197.5 3.34902 0.832729 0
M  V30 11875 C 1196.62 4.32 0.00304942 0
M  V30 11876 C 1195.75 5.23298 0.91286 0
M  V30 11877 C 1194.79 6.12051 0.0777706 0
M  V30 11878 N 1193.93 6.9574 0.942912 0
M  V30 11879 H 1198.77 2.85446 -0.855832 0
M  V30 11880 H 1196.3 1.40561 -0.433718 0
M  V30 11881 H 1198.26 3.93911 1.37441 0
M  V30 11882 H 1196.89 2.81611 1.57782 0
M  V30 11883 H 1195.94 3.74702 -0.655916 0
M  V30 11884 H 1197.26 4.94637 -0.643124 0
M  V30 11885 H 1196.41 5.87279 1.52277 0
M  V30 11886 H 1195.15 4.60956 1.59284 0
M  V30 11887 H 1194.15 5.47092 -0.545022 0
M  V30 11888 H 1195.38 6.76455 -0.598827 0
M  V30 11889 H 1193.33 6.35977 1.60838 0
M  V30 11890 H 1193.24 7.55176 0.352968 0
M  V30 11891 H 1194.51 7.64162 1.53874 0
M  V30 11892 N 1198.74 0.470782 1.50404 0
M  V30 11893 C 1199.65 -0.328877 2.32283 0
M  V30 11894 C 1200.67 -0.99629 1.42654 0
M  V30 11895 O 1201.84 -0.984331 1.75707 0
M  V30 11896 C 1198.91 -1.39675 3.1732 0
M  V30 11897 C 1197.97 -0.745965 4.22769 0
M  V30 11898 C 1197.2 -1.76295 5.03742 0
M  V30 11899 O 1197.42 -2.98943 4.85788 0
M  V30 11900 O 1196.36 -1.33495 5.86909 0
M  V30 11901 H 1200.18 0.340491 3.01785 0
M  V30 11902 H 1197.77 0.232637 1.47578 0
M  V30 11903 H 1199.65 -2.0153 3.70086 0
M  V30 11904 H 1198.33 -2.04959 2.50546 0
M  V30 11905 H 1197.23 -0.0884647 3.73995 0
M  V30 11906 H 1198.57 -0.136074 4.92012 0
M  V30 11907 N 1200.22 -1.56282 0.203376 0
M  V30 11908 C 1201.49 -1.89587 -0.481256 0
M  V30 11909 C 1201.87 -1.11812 -1.79057 0
M  V30 11910 O 1201.22 -0.221759 -2.27421 0
M  V30 11911 C 1201.43 -3.42071 -0.691965 0
M  V30 11912 C 1202.78 -4.12471 -1.00761 0
M  V30 11913 O 1203.8 -3.47568 -0.779396 0
M  V30 11914 O 1202.66 -5.27194 -1.43974 0
M  V30 11915 H 1199.76 -0.787682 -0.251963 0
M  V30 11916 H 1202.3 -1.67934 0.244207 0
M  V30 11917 H 1201.08 -3.9061 0.232322 0
M  V30 11918 H 1200.7 -3.69444 -1.46958 0
M  V30 11919 N 1201.7 0.070167 -1.57444 0
M  V30 11920 C 1202.66 1.06761 -2.02817 0
M  V30 11921 C 1203.66 1.31498 -0.925462 0
M  V30 11922 O 1204.85 1.27192 -1.19029 0
M  V30 11923 C 1201.98 2.41086 -2.41019 0
M  V30 11924 H 1203.17 0.67651 -2.9217 0
M  V30 11925 H 1200.73 0.315936 -1.53074 0
M  V30 11926 H 1201.46 2.85025 -1.54697 0
M  V30 11927 H 1201.25 2.24472 -3.21488 0
M  V30 11928 H 1202.74 3.12778 -2.76694 0
M  V30 11929 N 1203.17 1.53854 0.341593 0
M  V30 11930 C 1204.42 1.70856 1.07948 0
M  V30 11931 C 1204.74 0.475474 1.89114 0
M  V30 11932 O 1204.01 -0.510592 1.89129 0
M  V30 11933 H 1202.59 0.629914 0.401519 0
M  V30 11934 H 1205.25 1.91112 0.382393 0
M  V30 11935 H 1204.35 2.5803 1.75575 0
M  V30 11936 N 1204.65 -0.602709 1.4562 0
M  V30 11937 C 1205.9 -1.36359 1.50113 0
M  V30 11938 C 1206.23 -1.93663 0.144297 0
M  V30 11939 O 1205.51 -1.75337 -0.841851 0
M  V30 11940 C 1205.79 -2.50788 2.58413 0
M  V30 11941 C 1205.64 -1.98649 4.03557 0
M  V30 11942 C 1206.96 -3.52905 2.62957 0
M  V30 11943 H 1204.08 -0.494455 0.54652 0
M  V30 11944 H 1206.72 -0.678957 1.77455 0
M  V30 11945 H 1204.87 -3.09191 2.3523 0
M  V30 11946 H 1206.54 -1.44857 4.37966 0
M  V30 11947 H 1204.79 -1.29615 4.13984 0
M  V30 11948 H 1205.46 -2.81159 4.7503 0
M  V30 11949 H 1207.93 -3.0435 2.83743 0
M  V30 11950 H 1206.81 -4.30454 3.40589 0
M  V30 11951 H 1207.07 -4.0884 1.68233 0
M  V30 11952 N 1206.13 -1.32992 -0.845635 0
M  V30 11953 C 1207.38 -1.23415 -1.59536 0
M  V30 11954 C 1207.69 0.200278 -1.94572 0
M  V30 11955 O 1208.9 0.417993 -2.68263 0
M  V30 11956 C 1207.35 -2.16207 -2.8772 0
M  V30 11957 C 1206.96 -3.64782 -2.60073 0
M  V30 11958 C 1208.71 -2.15488 -3.65739 0
M  V30 11959 C 1206.61 -4.49508 -3.84313 0
M  V30 11960 H 1205.54 -0.458366 -0.598679 0
M  V30 11961 H 1208.19 -1.58012 -0.932981 0
M  V30 11962 H 1206.58 -1.74535 -3.55462 0
M  V30 11963 H 1207.75 -4.14852 -2.00585 0
M  V30 11964 H 1206.06 -3.67723 -1.95369 0
M  V30 11965 H 1208.66 -2.76021 -4.57948 0
M  V30 11966 H 1209 -1.14818 -4.00153 0
M  V30 11967 H 1209.54 -2.55487 -3.04912 0
M  V30 11968 H 1206.28 -5.51027 -3.55035 0
M  V30 11969 H 1205.8 -4.04185 -4.43165 0
M  V30 11970 H 1207.48 -4.62969 -4.51961 0
M  V30 11971 N 1207.61 1.06304 -1.1635 0
M  V30 11972 C 1208.85 1.80686 -0.955614 0
M  V30 11973 C 1209.21 1.85171 0.507525 0
M  V30 11974 O 1210.41 2.55531 0.834103 0
M  V30 11975 C 1208.68 3.21276 -1.56577 0
M  V30 11976 S 1210.24 4.12274 -1.50251 0
M  V30 11977 H 1207.06 0.622426 -0.343666 0
M  V30 11978 H 1209.66 1.27628 -1.48092 0
M  V30 11979 H 1208.37 3.15607 -2.62336 0
M  V30 11980 H 1207.9 3.7941 -1.03978 0
M  V30 11981 H 1209.91 4.93647 -0.502703 0
M  V30 11982 N 1209.09 0.96196 1.24836 0
M  V30 11983 C 1210.31 0.637709 1.97353 0
M  V30 11984 C 1210.74 -0.784919 1.7094 0
M  V30 11985 O 1210.09 -1.53188 0.969694 0
M  V30 11986 C 1210.14 0.911485 3.4889 0
M  V30 11987 O 1209.25 -0.00601668 4.124 0
M  V30 11988 H 1208.59 0.241685 0.618453 0
M  V30 11989 H 1211.12 1.29055 1.58764 0
M  V30 11990 H 1211.13 0.840702 3.99245 0
M  V30 11991 H 1209.8 1.9483 3.67442 0
M  V30 11992 H 1208.38 0.117597 3.72715 0
M  V30 11993 N 1210.56 -1.39601 0.731392 0
M  V30 11994 C 1211.47 -2.34425 0.090527 0
M  V30 11995 C 1212.49 -1.58131 -0.725992 0
M  V30 11996 O 1213.67 -1.90441 -0.655294 0
M  V30 11997 C 1210.73 -3.37138 -0.808624 0
M  V30 11998 C 1209.79 -4.29295 0.0197365 0
M  V30 11999 C 1209.02 -5.27102 -0.836593 0
M  V30 12000 O 1209.25 -5.31302 -2.07543 0
M  V30 12001 O 1208.18 -6.01307 -0.267172 0
M  V30 12002 H 1212.01 -2.9088 0.873084 0
M  V30 12003 H 1209.59 -1.41066 0.492024 0
M  V30 12004 H 1211.47 -4.00087 -1.32319 0
M  V30 12005 H 1210.15 -2.83074 -1.57006 0
M  V30 12006 H 1209.06 -3.69581 0.579744 0
M  V30 12007 H 1210.39 -4.86555 0.743308 0
M  V30 12008 N 1212.04 -0.478751 -1.50152 0
M  V30 12009 C 1213.29 0.073585 -2.02366 0
M  V30 12010 C 1213.62 1.3903 -1.36018 0
M  V30 12011 O 1212.87 1.89787 -0.477435 0
M  V30 12012 C 1213.17 0.297535 -3.56159 0
M  V30 12013 C 1212.84 -0.938419 -4.41027 0
M  V30 12014 C 1211.5 -1.27727 -4.63939 0
M  V30 12015 C 1213.85 -1.76098 -4.9055 0
M  V30 12016 C 1211.18 -2.4386 -5.33619 0
M  V30 12017 C 1213.53 -2.91366 -5.61506 0
M  V30 12018 C 1212.2 -3.25657 -5.8267 0
M  V30 12019 H 1211.47 0.0269267 -0.740511 0
M  V30 12020 H 1214.11 -0.63439 -1.80687 0
M  V30 12021 H 1212.42 1.08783 -3.76395 0
M  V30 12022 H 1214.11 0.73899 -3.94132 0
M  V30 12023 H 1210.7 -0.664441 -4.23418 0
M  V30 12024 H 1214.89 -1.51237 -4.72696 0
M  V30 12025 H 1210.14 -2.70692 -5.48211 0
M  V30 12026 H 1214.32 -3.55445 -5.98859 0
M  V30 12027 H 1211.95 -4.15751 -6.36439 0
M  V30 12028 N 1213.52 1.56172 -0.211661 0
M  V30 12029 C 1214.45 2.15791 0.74225 0
M  V30 12030 C 1215.43 1.0994 1.198 0
M  V30 12031 O 1216.62 1.38143 1.28253 0
M  V30 12032 C 1213.74 2.73021 2.00443 0
M  V30 12033 C 1212.79 3.91611 1.68946 0
M  V30 12034 S 1213.62 5.29139 0.822949 0
M  V30 12035 C 1214.78 5.898 2.09491 0
M  V30 12036 H 1215.01 2.96366 0.235482 0
M  V30 12037 H 1212.54 1.544 0.0035357 0
M  V30 12038 H 1214.5 3.06635 2.7292 0
M  V30 12039 H 1213.16 1.92457 2.48232 0
M  V30 12040 H 1212.36 4.30122 2.62699 0
M  V30 12041 H 1211.96 3.59093 1.04539 0
M  V30 12042 H 1214.25 6.05172 3.04587 0
M  V30 12043 H 1215.19 6.86036 1.75386 0
M  V30 12044 H 1215.6 5.18546 2.23093 0
M  V30 12045 N 1215 -0.0618163 1.57479 0
M  V30 12046 C 1216.22 -0.775513 1.92355 0
M  V30 12047 C 1216.65 -1.69816 0.808949 0
M  V30 12048 O 1216.01 -1.79736 -0.23761 0
M  V30 12049 C 1216.05 -1.5367 3.26218 0
M  V30 12050 O 1215.16 -2.64802 3.16155 0
M  V30 12051 H 1214.5 -0.210909 0.629614 0
M  V30 12052 H 1217.03 -0.0270752 2.04582 0
M  V30 12053 H 1217.04 -1.91379 3.6033 0
M  V30 12054 H 1215.71 -0.859798 4.06916 0
M  V30 12055 H 1214.29 -2.29876 2.93618 0
M  V30 12056 N 1216.48 -1.54033 -0.333429 0
M  V30 12057 C 1217.41 -1.85719 -1.4153 0
M  V30 12058 C 1218.39 -0.713144 -1.54429 0
M  V30 12059 O 1219.57 -0.965984 -1.68471 0
M  V30 12060 C 1216.7 -2.07578 -2.78439 0
M  V30 12061 C 1215.66 -3.23411 -2.80338 0
M  V30 12062 C 1214.98 -3.30622 -4.2023 0
M  V30 12063 C 1216.28 -4.6129 -2.44968 0
M  V30 12064 H 1217.98 -2.76325 -1.15261 0
M  V30 12065 H 1215.52 -1.32957 -0.55303 0
M  V30 12066 H 1217.48 -2.28329 -3.5418 0
M  V30 12067 H 1216.2 -1.13713 -3.06165 0
M  V30 12068 H 1214.86 -3.02531 -2.07052 0
M  V30 12069 H 1214.51 -2.34333 -4.45081 0
M  V30 12070 H 1214.21 -4.08466 -4.22409 0
M  V30 12071 H 1215.73 -3.53596 -4.97798 0
M  V30 12072 H 1217.14 -4.81987 -3.10421 0
M  V30 12073 H 1215.54 -5.41611 -2.58414 0
M  V30 12074 H 1216.61 -4.6421 -1.40134 0
M  V30 12075 N 1217.95 0.594978 -1.45938 0
M  V30 12076 C 1219.37 0.917069 -1.30622 0
M  V30 12077 C 1219.57 1.99702 -0.268554 0
M  V30 12078 O 1218.63 2.50293 0.333146 0
M  V30 12079 C 1219.94 1.34604 -2.68891 0
M  V30 12080 C 1221.49 1.45957 -2.76886 0
M  V30 12081 C 1221.96 1.92225 -4.15708 0
M  V30 12082 N 1223.45 1.99439 -4.18065 0
M  V30 12083 C 1224.19 2.36488 -5.22361 0
M  V30 12084 N 1223.68 2.72416 -6.36994 0
M  V30 12085 N 1225.48 2.36936 -5.09723 0
M  V30 12086 H 1217.63 -0.118625 -2.12068 0
M  V30 12087 H 1219.89 0.00959453 -0.947951 0
M  V30 12088 H 1219.6 0.626605 -3.46073 0
M  V30 12089 H 1219.47 2.31006 -2.98188 0
M  V30 12090 H 1221.86 2.16989 -1.99999 0
M  V30 12091 H 1221.94 0.47838 -2.51287 0
M  V30 12092 H 1221.58 1.21775 -4.93085 0
M  V30 12093 H 1221.51 2.9128 -4.38707 0
M  V30 12094 H 1224 1.74212 -3.35349 0
M  V30 12095 H 1224.32 2.99604 -7.1236 0
M  V30 12096 H 1222.66 2.70083 -6.40375 0
M  V30 12097 H 1225.85 2.08282 -4.19209 0
M  V30 12098 H 1226.03 2.65483 -5.9112 0
M  V30 12099 N 1219.43 1.33438 0.838571 0
M  V30 12100 C 1220.36 1.26344 1.96365 0
M  V30 12101 C 1221.34 0.143956 1.6949 0
M  V30 12102 O 1222.53 0.333779 1.9131 0
M  V30 12103 C 1219.66 1.0022 3.32526 0
M  V30 12104 C 1218.61 2.08466 3.73799 0
M  V30 12105 C 1217.94 1.67555 5.07769 0
M  V30 12106 C 1219.24 3.50144 3.87552 0
M  V30 12107 H 1220.93 2.20478 2.02558 0
M  V30 12108 H 1218.48 1.06139 0.973168 0
M  V30 12109 H 1220.43 0.939068 4.10803 0
M  V30 12110 H 1219.16 0.0252514 3.2659 0
M  V30 12111 H 1217.81 2.13822 2.97785 0
M  V30 12112 H 1217.46 0.685619 4.98305 0
M  V30 12113 H 1217.16 2.39993 5.36356 0
M  V30 12114 H 1218.69 1.62708 5.88522 0
M  V30 12115 H 1220.1 3.47287 4.56141 0
M  V30 12116 H 1218.5 4.21069 4.27575 0
M  V30 12117 H 1219.57 3.88628 2.89994 0
M  V30 12118 N 1220.91 -1.05686 1.16912 0
M  V30 12119 C 1222.14 -1.82282 0.978811 0
M  V30 12120 C 1222.55 -1.8278 -0.472972 0
M  V30 12121 O 1221.91 -1.25143 -1.32836 0
M  V30 12122 C 1221.96 -3.28623 1.50629 0
M  V30 12123 O 1221.68 -3.28269 2.90122 0
M  V30 12124 C 1223.18 -4.21927 1.35987 0
M  V30 12125 H 1220.4 -0.574558 0.346588 0
M  V30 12126 H 1222.95 -1.33301 1.55084 0
M  V30 12127 H 1221.1 -3.74893 0.976404 0
M  V30 12128 H 1221.52 -4.19824 3.14401 0
M  V30 12129 H 1222.99 -5.2261 1.77716 0
M  V30 12130 H 1223.47 -4.38131 0.30626 0
M  V30 12131 H 1224.07 -3.81508 1.87968 0
M  V30 12132 N 1222.39 -0.968567 -1.24324 0
M  V30 12133 C 1223.61 -0.648166 -1.97012 0
M  V30 12134 C 1224.04 0.775842 -1.71354 0
M  V30 12135 O 1223.4 1.52672 -0.977804 0
M  V30 12136 C 1223.44 -0.929974 -3.48402 0
M  V30 12137 O 1222.55 -0.015854 -4.12397 0
M  V30 12138 H 1221.89 -0.244961 -0.617163 0
M  V30 12139 H 1224.42 -1.29895 -1.58077 0
M  V30 12140 H 1224.43 -0.861863 -3.98793 0
M  V30 12141 H 1223.1 -1.96776 -3.66404 0
M  V30 12142 H 1221.68 -0.137361 -3.72647 0
M  V30 12143 N 1223.87 1.39211 -0.738786 0
M  V30 12144 C 1224.78 2.34374 -0.102958 0
M  V30 12145 C 1225.79 1.58514 0.717596 0
M  V30 12146 O 1226.97 1.90786 0.645186 0
M  V30 12147 C 1224.03 3.37562 0.790733 0
M  V30 12148 C 1223.09 4.29279 -0.0425028 0
M  V30 12149 C 1222.33 5.27539 0.808628 0
M  V30 12150 O 1222.55 5.32396 2.04722 0
M  V30 12151 O 1221.48 6.0144 0.235279 0
M  V30 12152 H 1225.31 2.90412 -0.888498 0
M  V30 12153 H 1222.9 1.40803 -0.499498 0
M  V30 12154 H 1224.78 4.00783 1.30196 0
M  V30 12155 H 1223.45 2.83903 1.55502 0
M  V30 12156 H 1222.36 3.69268 -0.599335 0
M  V30 12157 H 1223.69 4.86154 -0.7691 0
M  V30 12158 N 1225.34 0.486708 1.49896 0
M  V30 12159 C 1226.31 -0.288126 2.27382 0
M  V30 12160 C 1227.31 -0.906675 1.32801 0
M  V30 12161 O 1228.5 -0.773425 1.56089 0
M  V30 12162 C 1225.63 -1.41194 3.10285 0
M  V30 12163 H 1226.82 0.391618 2.97332 0
M  V30 12164 H 1224.38 0.24123 1.54427 0
M  V30 12165 H 1225.11 -2.12627 2.44868 0
M  V30 12166 H 1224.9 -0.974033 3.79809 0
M  V30 12167 H 1226.39 -1.95812 3.68846 0
M  V30 12168 N 1226.82 -1.56058 0.219941 0
M  V30 12169 C 1228.05 -2.031 -0.42014 0
M  V30 12170 C 1228.47 -1.09875 -1.52673 0
M  V30 12171 O 1227.83 -0.0866458 -1.81093 0
M  V30 12172 C 1227.88 -3.48389 -0.93047 0
M  V30 12173 O 1226.98 -3.583 -2.04192 0
M  V30 12174 H 1226.32 -0.657129 -0.0952772 0
M  V30 12175 H 1228.85 -2.01787 0.338105 0
M  V30 12176 H 1228.86 -3.88678 -1.2407 0
M  V30 12177 H 1227.54 -4.15725 -0.120539 0
M  V30 12178 H 1226.12 -3.29898 -1.73845 0
M  V30 12179 N 1228.3 0.053464 -1.57509 0
M  V30 12180 C 1229.72 0.408651 -1.5428 0
M  V30 12181 C 1229.92 1.78086 -0.942735 0
M  V30 12182 O 1228.97 2.46366 -0.553163 0
M  V30 12183 C 1230.29 0.332884 -2.98852 0
M  V30 12184 C 1231.83 0.411745 -3.1028 0
M  V30 12185 C 1232.31 0.365691 -4.56538 0
M  V30 12186 N 1233.8 0.425222 -4.61244 0
M  V30 12187 C 1234.54 0.412093 -5.71917 0
M  V30 12188 N 1234.03 0.352693 -6.91902 0
M  V30 12189 N 1235.82 0.460016 -5.60214 0
M  V30 12190 H 1227.98 -0.844834 -1.94875 0
M  V30 12191 H 1230.24 -0.318888 -0.892757 0
M  V30 12192 H 1229.94 -0.609116 -3.46385 0
M  V30 12193 H 1229.82 1.13605 -3.59686 0
M  V30 12194 H 1232.21 1.34417 -2.62709 0
M  V30 12195 H 1232.29 -0.420333 -2.52323 0
M  V30 12196 H 1231.93 -0.562963 -5.0477 0
M  V30 12197 H 1231.86 1.21555 -5.12379 0
M  V30 12198 H 1234.35 0.474634 -3.74908 0
M  V30 12199 H 1234.66 0.347105 -7.7202 0
M  V30 12200 H 1233.01 0.319104 -6.94267 0
M  V30 12201 H 1236.2 0.504242 -4.65376 0
M  V30 12202 H 1236.37 0.446315 -6.46461 0
M  V30 12203 N 1229.78 1.54207 0.325255 0
M  V30 12204 C 1230.69 1.86495 1.42326 0
M  V30 12205 C 1231.71 0.756718 1.56684 0
M  V30 12206 O 1232.88 1.05084 1.71812 0
M  V30 12207 C 1229.95 2.08414 2.77064 0
M  V30 12208 C 1229.01 3.32221 2.71897 0
M  V30 12209 C 1228.24 3.53085 4.00209 0
M  V30 12210 O 1228.46 2.77421 4.98391 0
M  V30 12211 O 1227.4 4.46559 4.0357 0
M  V30 12212 H 1231.22 2.79859 1.17951 0
M  V30 12213 H 1228.81 1.40091 0.519124 0
M  V30 12214 H 1230.69 2.24171 3.56827 0
M  V30 12215 H 1229.37 1.18238 3.01333 0
M  V30 12216 H 1228.27 3.21851 1.90691 0
M  V30 12217 H 1229.61 4.22449 2.52582 0
M  V30 12218 N 1231.26 -0.58723 1.46251 0
M  V30 12219 C 1232.22 -1.67863 1.5606 0
M  V30 12220 C 1233.22 -1.54715 0.438162 0
M  V30 12221 O 1234.41 -1.59415 0.702323 0
M  V30 12222 C 1231.54 -3.07262 1.47659 0
M  V30 12223 H 1232.74 -1.60525 2.53321 0
M  V30 12224 H 1230.29 -0.804691 1.33994 0
M  V30 12225 H 1231.02 -3.20159 0.5166 0
M  V30 12226 H 1230.81 -3.18213 2.29092 0
M  V30 12227 H 1232.3 -3.8672 1.57599 0
M  V30 12228 N 1232.74 -1.33881 -0.831482 0
M  V30 12229 C 1233.98 -1.27095 -1.60082 0
M  V30 12230 C 1234.34 0.15911 -1.9134 0
M  V30 12231 O 1235.54 0.351029 -2.66498 0
M  V30 12232 C 1233.81 -2.12874 -2.87088 0
M  V30 12233 S 1235.37 -2.23354 -3.77702 0
M  V30 12234 H 1232.19 -0.452049 -0.548792 0
M  V30 12235 H 1234.79 -1.68998 -0.98285 0
M  V30 12236 H 1233.49 -3.15797 -2.62108 0
M  V30 12237 H 1233.03 -1.71836 -3.53887 0
M  V30 12238 H 1235.04 -1.40003 -4.76039 0
M  V30 12239 N 1234.21 1.05064 -1.1747 0
M  V30 12240 C 1235.18 2.1101 -0.89485 0
M  V30 12241 C 1236.18 1.60384 0.11553 0
M  V30 12242 O 1237.37 1.73808 -0.116785 0
M  V30 12243 C 1234.5 3.39194 -0.340642 0
M  V30 12244 H 1235.69 2.37269 -1.83421 0
M  V30 12245 H 1233.24 1.21329 -0.985343 0
M  V30 12246 H 1233.98 3.18591 0.605808 0
M  V30 12247 H 1233.76 3.77251 -1.06885 0
M  V30 12248 H 1235.25 4.17281 -0.163204 0
M  V30 12249 N 1235.69 0.975146 1.23809 0
M  V30 12250 C 1236.94 0.639858 1.91704 0
M  V30 12251 C 1237.26 -0.828557 1.76522 0
M  V30 12252 O 1236.53 -1.59217 1.14135 0
M  V30 12253 H 1235.11 0.233667 0.709513 0
M  V30 12254 H 1237.77 1.23782 1.50545 0
M  V30 12255 H 1236.87 0.886915 2.99233 0
M  V30 12256 N 1237.17 -1.38817 0.746158 0
M  V30 12257 C 1238.59 -1.53894 0.42294 0
M  V30 12258 C 1238.79 -1.71064 -1.06486 0
M  V30 12259 O 1237.84 -1.71744 -1.85095 0
M  V30 12260 C 1239.15 -2.75029 1.2157 0
M  V30 12261 C 1240.7 -2.88873 1.20504 0
M  V30 12262 C 1241.18 -4.1296 1.9806 0
M  V30 12263 N 1242.67 -4.20022 1.95283 0
M  V30 12264 C 1243.4 -5.15011 2.52093 0
M  V30 12265 N 1242.9 -6.1572 3.17586 0
M  V30 12266 N 1244.69 -5.07308 2.42064 0
M  V30 12267 H 1236.84 -1.25921 1.71049 0
M  V30 12268 H 1239.11 -0.611148 0.724708 0
M  V30 12269 H 1238.81 -2.68722 2.26895 0
M  V30 12270 H 1238.69 -3.68009 0.827593 0
M  V30 12271 H 1241.07 -2.94667 0.159877 0
M  V30 12272 H 1241.15 -1.96925 1.63261 0
M  V30 12273 H 1240.8 -4.07929 3.02583 0
M  V30 12274 H 1240.73 -5.03974 1.52702 0
M  V30 12275 H 1243.22 -3.47892 1.4758 0
M  V30 12276 H 1243.53 -6.84682 3.58373 0
M  V30 12277 H 1241.88 -6.16075 3.21678 0
M  V30 12278 H 1245.07 -4.27569 1.90532 0
M  V30 12279 H 1245.24 -5.81158 2.86635 0
M  V30 12280 N 1238.65 -0.49465 -1.49636 0
M  V30 12281 C 1239.58 0.276606 -2.31856 0
M  V30 12282 C 1240.56 0.968499 -1.39836 0
M  V30 12283 O 1241.74 0.96113 -1.68748 0
M  V30 12284 C 1238.87 1.34522 -3.20189 0
M  V30 12285 C 1237.83 0.773571 -4.20951 0
M  V30 12286 C 1237.15 1.94223 -4.98178 0
M  V30 12287 C 1238.45 -0.231096 -5.21788 0
M  V30 12288 H 1240.15 -0.409668 -2.96584 0
M  V30 12289 H 1237.69 -0.198461 -1.42626 0
M  V30 12290 H 1239.65 1.89244 -3.76517 0
M  V30 12291 H 1238.37 2.06059 -2.53392 0
M  V30 12292 H 1237.03 0.248144 -3.65759 0
M  V30 12293 H 1236.68 2.64514 -4.27834 0
M  V30 12294 H 1236.38 1.56584 -5.66353 0
M  V30 12295 H 1237.9 2.49391 -5.57348 0
M  V30 12296 H 1239.32 0.227768 -5.72847 0
M  V30 12297 H 1237.71 -0.522984 -5.97817 0
M  V30 12298 H 1238.78 -1.14914 -4.71087 0
M  V30 12299 N 1240.13 1.55939 -0.228214 0
M  V30 12300 C 1241.04 2.24213 0.690339 0
M  V30 12301 C 1242.05 1.25197 1.20838 0
M  V30 12302 O 1243.23 1.58026 1.24859 0
M  V30 12303 C 1240.29 2.91384 1.87873 0
M  V30 12304 C 1239.35 4.05761 1.40201 0
M  V30 12305 C 1238.59 4.6972 2.53376 0
M  V30 12306 O 1238.81 4.32687 3.71669 0
M  V30 12307 O 1237.74 5.58587 2.24198 0
M  V30 12308 H 1241.57 3.03383 0.138692 0
M  V30 12309 H 1239.15 1.494 0.00251504 0
M  V30 12310 H 1241.04 3.33758 2.57262 0
M  V30 12311 H 1239.71 2.15168 2.41835 0
M  V30 12312 H 1238.62 3.67943 0.675945 0
M  V30 12313 H 1239.95 4.83739 0.908691 0
M  V30 12314 N 1241.6 -0.0451101 1.57535 0
M  V30 12315 C 1242.85 -0.740209 1.88809 0
M  V30 12316 C 1243.18 -1.75854 0.823956 0
M  V30 12317 O 1242.46 -1.93817 -0.16286 0
M  V30 12318 C 1242.74 -1.42424 3.30737 0
M  V30 12319 C 1242.59 -0.42052 4.4783 0
M  V30 12320 C 1243.91 -2.36241 3.7132 0
M  V30 12321 H 1241.03 -0.267628 0.686691 0
M  V30 12322 H 1243.67 -0.00309149 1.9 0
M  V30 12323 H 1241.82 -2.05254 3.29853 0
M  V30 12324 H 1243.5 0.204625 4.60846 0
M  V30 12325 H 1241.74 0.261739 4.3301 0
M  V30 12326 H 1242.41 -0.937298 5.43984 0
M  V30 12327 H 1244.89 -1.83468 3.73468 0
M  V30 12328 H 1243.76 -2.81091 4.71465 0
M  V30 12329 H 1244.02 -3.2222 3.02699 0
M  V30 12330 N 1243.08 -1.54377 -0.317073 0
M  V30 12331 C 1244.33 -1.72893 -1.05424 0
M  V30 12332 C 1244.66 -0.506082 -1.87801 0
M  V30 12333 O 1243.91 0.51213 -1.8888 0
M  V30 12334 C 1244.21 -2.96066 -2.00199 0
M  V30 12335 C 1243.88 -4.30551 -1.33927 0
M  V30 12336 C 1242.54 -4.67112 -1.15584 0
M  V30 12337 C 1244.89 -5.13986 -0.864158 0
M  V30 12338 C 1242.22 -5.84701 -0.483892 0
M  V30 12339 C 1244.57 -6.32264 -0.206006 0
M  V30 12340 C 1243.24 -6.67499 -0.0104849 0
M  V30 12341 H 1242.51 -0.63266 -0.385776 0
M  V30 12342 H 1245.15 -1.88623 -0.330722 0
M  V30 12343 H 1243.46 -2.7505 -2.79024 0
M  V30 12344 H 1245.15 -3.07586 -2.57278 0
M  V30 12345 H 1241.74 -4.0179 -1.49207 0
M  V30 12346 H 1245.93 -4.86252 -0.993635 0
M  V30 12347 H 1241.18 -6.10555 -0.32127 0
M  V30 12348 H 1245.36 -6.96192 0.170108 0
M  V30 12349 H 1242.99 -7.58472 0.512209 0
M  V30 12350 N 1244.56 0.579466 -1.4656 0
M  V30 12351 C 1245.79 1.36153 -1.55389 0
M  V30 12352 C 1246.2 1.88192 -0.195062 0
M  V30 12353 O 1245.54 1.64464 0.81836 0
M  V30 12354 C 1245.6 2.58269 -2.50075 0
M  V30 12355 C 1245.27 2.27675 -3.96249 0
M  V30 12356 C 1246.26 1.86313 -4.85369 0
M  V30 12357 C 1243.95 2.39719 -4.41407 0
M  V30 12358 C 1245.94 1.57395 -6.17661 0
M  V30 12359 C 1243.63 2.10414 -5.73733 0
M  V30 12360 C 1244.63 1.69317 -6.6168 0
M  V30 12361 O 1244.32 1.40373 -7.9155 0
M  V30 12362 H 1244.05 0.422174 -0.527963 0
M  V30 12363 H 1246.6 0.711089 -1.92698 0
M  V30 12364 H 1244.83 3.26129 -2.0779 0
M  V30 12365 H 1246.52 3.20339 -2.49275 0
M  V30 12366 H 1247.29 1.7652 -4.51736 0
M  V30 12367 H 1243.17 2.70669 -3.73175 0
M  V30 12368 H 1246.71 1.25244 -6.86265 0
M  V30 12369 H 1242.61 2.19833 -6.06913 0
M  V30 12370 H 1243.38 1.54191 -8.03845 0
M  V30 12371 N 1246.04 1.3432 0.824371 0
M  V30 12372 C 1246.99 1.2578 1.95658 0
M  V30 12373 C 1247.98 0.156199 1.68678 0
M  V30 12374 O 1249.19 0.321081 1.77113 0
M  V30 12375 H 1245.56 0.390711 0.642533 0
M  V30 12376 H 1247.53 2.21471 1.99983 0
M  V30 12377 C 1246.28 1.02865 3.32136 0
M  V30 12378 H 1245.6 1.86863 3.53443 0
M  V30 12379 H 1247.04 1.00925 4.11813 0
M  V30 12380 C 1245.5 -0.268097 3.35832 0
M  V30 12381 O 1246.03 -1.26995 3.81097 0
M  V30 12382 N 1244.24 -0.300702 2.8904 0
M  V30 12383 H 1243.79 0.51515 2.52396 0
M  V30 12384 H 1243.74 -1.16811 2.91895 0
M  V30 12385 N 1247.52 -1.0444 1.18026 0
M  V30 12386 C 1248.76 -1.77224 0.971391 0
M  V30 12387 C 1249.09 -1.88466 -0.500564 0
M  V30 12388 O 1248.36 -1.40692 -1.36317 0
M  V30 12389 H 1246.94 -0.656485 0.356422 0
M  V30 12390 H 1249.6 -1.26064 1.4864 0
M  V30 12391 H 1248.69 -2.78626 1.4062 0
M  V30 12392 N 1248.99 -0.981699 -1.2329 0
M  V30 12393 C 1249.96 -0.527992 -2.23036 0
M  V30 12394 C 1250.96 0.383083 -1.5617 0
M  V30 12395 O 1252.15 0.176595 -1.73303 0
M  V30 12396 C 1249.28 0.233501 -3.40099 0
M  V30 12397 H 1250.47 -1.40995 -2.64689 0
M  V30 12398 H 1248.03 -0.767724 -1.36146 0
M  V30 12399 H 1248.76 1.13194 -3.03904 0
M  V30 12400 H 1248.55 -0.420505 -3.89839 0
M  V30 12401 H 1250.04 0.539485 -4.14101 0
M  V30 12402 N 1250.47 1.3842 -0.753509 0
M  V30 12403 C 1251.72 2.00882 -0.319047 0
M  V30 12404 C 1252.07 1.58741 1.08715 0
M  V30 12405 O 1251.37 0.814892 1.73407 0
M  V30 12406 C 1251.56 3.55375 -0.379937 0
M  V30 12407 C 1251.39 4.12518 -1.79051 0
M  V30 12408 C 1250.16 4.44286 -2.40703 0
M  V30 12409 C 1252.36 4.34783 -2.74716 0
M  V30 12410 N 1250.34 4.87036 -3.73723 0
M  V30 12411 C 1251.71 4.79941 -3.92501 0
M  V30 12412 C 1253.77 4.16882 -2.72239 0
M  V30 12413 C 1252.47 5.09075 -5.08169 0
M  V30 12414 C 1254.49 4.4714 -3.87065 0
M  V30 12415 C 1253.86 4.92522 -5.03588 0
M  V30 12416 H 1249.96 0.764737 -0.163404 0
M  V30 12417 H 1252.54 1.68037 -0.983445 0
M  V30 12418 H 1250.71 3.87567 0.254192 0
M  V30 12419 H 1252.44 4.04631 0.0748361 0
M  V30 12420 H 1249.2 4.32727 -1.9247 0
M  V30 12421 H 1249.62 5.12745 -4.42065 0
M  V30 12422 H 1254.26 3.80983 -1.83335 0
M  V30 12423 H 1251.98 5.4387 -5.97688 0
M  V30 12424 H 1255.57 4.34895 -3.86468 0
M  V30 12425 H 1254.45 5.15489 -5.90966 0
M  V30 12426 N 1251.95 0.502579 1.49372 0
M  V30 12427 C 1253.2 -0.0412993 2.02058 0
M  V30 12428 C 1253.52 -1.37338 1.38431 0
M  V30 12429 O 1252.79 -1.88305 0.540175 0
M  V30 12430 H 1251.37 -0.0182522 0.746777 0
M  V30 12431 H 1254.03 0.660179 1.83378 0
M  V30 12432 H 1253.13 -0.169812 3.11638 0
M  V30 12433 N 1253.43 -1.55816 0.23648 0
M  V30 12434 C 1254.66 -2.03083 -0.395584 0
M  V30 12435 C 1255.07 -1.11599 -1.52286 0
M  V30 12436 O 1254.43 -0.128403 -1.82048 0
M  V30 12437 C 1254.48 -3.49776 -0.913197 0
M  V30 12438 O 1254.2 -4.37773 0.169151 0
M  V30 12439 C 1255.7 -4.12756 -1.617 0
M  V30 12440 H 1252.92 -0.66421 -0.0952146 0
M  V30 12441 H 1255.47 -2.01354 0.357299 0
M  V30 12442 H 1253.62 -3.52072 -1.6163 0
M  V30 12443 H 1254.03 -5.24029 -0.222217 0
M  V30 12444 H 1255.51 -5.17123 -1.93101 0
M  V30 12445 H 1255.99 -3.58631 -2.53537 0
M  V30 12446 H 1256.59 -4.14353 -0.958736 0
M  V30 12447 N 1254.91 0.036755 -1.57557 0
M  V30 12448 C 1256.15 0.730186 -1.89199 0
M  V30 12449 C 1256.49 1.75414 -0.833271 0
M  V30 12450 O 1255.76 1.93901 0.152579 0
M  V30 12451 C 1256.04 1.40669 -3.31488 0
M  V30 12452 C 1255.9 0.396764 -4.48047 0
M  V30 12453 C 1257.22 2.34268 -3.72567 0
M  V30 12454 H 1254.33 0.263983 -0.6881 0
M  V30 12455 H 1256.98 -0.0069847 -1.89999 0
M  V30 12456 H 1255.13 2.03502 -3.30937 0
M  V30 12457 H 1256.8 -0.229062 -4.60731 0
M  V30 12458 H 1255.04 -0.284698 -4.32865 0
M  V30 12459 H 1255.71 0.908436 -5.44474 0
M  V30 12460 H 1258.19 1.81485 -3.74436 0
M  V30 12461 H 1257.06 2.78587 -4.72949 0
M  V30 12462 H 1257.33 3.20611 -3.04403 0
M  V30 12463 N 1256.39 1.54543 0.308881 0
M  V30 12464 C 1257.63 1.73107 1.043 0
M  V30 12465 C 1257.95 0.515481 1.88063 0
M  V30 12466 O 1257.22 -0.47036 1.90169 0
M  V30 12467 H 1255.8 0.638289 0.388068 0
M  V30 12468 H 1258.47 1.9188 0.341769 0
M  V30 12469 H 1257.56 2.61697 1.70063 0
M  V30 12470 N 1257.86 -0.571685 1.46866 0
M  V30 12471 C 1258.81 -1.67992 1.58263 0
M  V30 12472 C 1259.78 -1.60535 0.426345 0
M  V30 12473 O 1260.97 -1.79584 0.644534 0
M  V30 12474 C 1258.11 -3.06327 1.58927 0
M  V30 12475 C 1257.22 -3.24328 2.85369 0
M  V30 12476 C 1256.35 -4.52976 2.77464 0
M  V30 12477 C 1255.39 -4.64359 3.98795 0
M  V30 12478 N 1254.53 -5.84345 3.89211 0
M  V30 12479 H 1259.37 -1.57589 2.52922 0
M  V30 12480 H 1256.91 -0.767883 1.25467 0
M  V30 12481 H 1258.86 -3.86411 1.57296 0
M  V30 12482 H 1257.49 -3.15601 0.677912 0
M  V30 12483 H 1256.55 -2.37774 2.96931 0
M  V30 12484 H 1257.86 -3.28605 3.7526 0
M  V30 12485 H 1257.01 -5.41303 2.74001 0
M  V30 12486 H 1255.75 -4.51155 1.85231 0
M  V30 12487 H 1254.76 -3.74448 4.02578 0
M  V30 12488 H 1255.98 -4.6795 4.92137 0
M  V30 12489 H 1253.93 -5.835 2.99772 0
M  V30 12490 H 1253.84 -5.89938 4.72768 0
M  V30 12491 H 1255.11 -6.75072 3.89741 0
M  V30 12492 N 1259.34 -1.34755 -0.817236 0
M  V30 12493 C 1260.57 -1.30676 -1.61054 0
M  V30 12494 C 1260.99 0.115343 -1.87746 0
M  V30 12495 O 1260.35 1.07887 -1.45705 0
M  V30 12496 C 1260.4 -2.10881 -2.92509 0
M  V30 12497 O 1259.5 -1.48223 -3.84842 0
M  V30 12498 H 1258.84 -0.448531 -0.489608 0
M  V30 12499 H 1261.37 -1.77642 -1.01512 0
M  V30 12500 H 1261.38 -2.22446 -3.42026 0
M  V30 12501 H 1260.06 -3.14274 -2.72406 0
M  V30 12502 H 1258.63 -1.45434 -3.4337 0
M  V30 12503 N 1260.82 1.03812 -1.18578 0
M  V30 12504 C 1262.04 1.8124 -1.00831 0
M  V30 12505 C 1262.47 1.82917 0.43853 0
M  V30 12506 O 1261.83 1.24835 1.31476 0
M  V30 12507 C 1261.88 3.24592 -1.57075 0
M  V30 12508 O 1260.98 4.04688 -0.793824 0
M  V30 12509 H 1260.32 0.559846 -0.357028 0
M  V30 12510 H 1262.85 1.30724 -1.57393 0
M  V30 12511 H 1262.86 3.75363 -1.59896 0
M  V30 12512 H 1261.54 3.22686 -2.62387 0
M  V30 12513 H 1260.11 3.63359 -0.838134 0
M  V30 12514 N 1262.3 0.988223 1.22768 0
M  V30 12515 C 1263.23 0.47962 2.23103 0
M  V30 12516 C 1264.21 -0.457546 1.5603 0
M  V30 12517 O 1265.39 -0.384178 1.84544 0
M  V30 12518 C 1262.52 -0.305248 3.37322 0
M  V30 12519 C 1261.57 0.577215 4.22576 0
M  V30 12520 S 1262.4 2.02974 4.95542 0
M  V30 12521 C 1263.55 1.25423 6.13205 0
M  V30 12522 H 1263.79 1.32985 2.65899 0
M  V30 12523 H 1261.32 0.794824 1.3237 0
M  V30 12524 H 1263.28 -0.752057 4.03552 0
M  V30 12525 H 1261.94 -1.1307 2.93043 0
M  V30 12526 H 1261.13 -0.0264391 5.03993 0
M  V30 12527 H 1260.73 0.960593 3.61453 0
M  V30 12528 H 1263.03 0.519499 6.75505 0
M  V30 12529 H 1263.97 2.04351 6.77972 0
M  V30 12530 H 1264.38 0.769573 5.5923 0
M  V30 12531 N 1263.78 -1.38018 0.760839 0
M  V30 12532 C 1265 -2.04757 0.330038 0
M  V30 12533 C 1265.43 -1.57009 -1.03585 0
M  V30 12534 O 1264.78 -0.725349 -1.66158 0
M  V30 12535 C 1264.83 -3.58696 0.370082 0
M  V30 12536 O 1263.94 -4.07507 -0.633361 0
M  V30 12537 H 1263.28 -0.648023 0.144782 0
M  V30 12538 H 1265.81 -1.7655 1.03399 0
M  V30 12539 H 1265.82 -4.07387 0.223515 0
M  V30 12540 H 1264.49 -3.92806 1.36661 0
M  V30 12541 H 1263.07 -3.70165 -0.45081 0
M  V30 12542 N 1265.25 -0.510493 -1.49103 0
M  V30 12543 C 1266.16 0.267176 -2.33074 0
M  V30 12544 C 1267.18 0.958117 -1.45245 0
M  V30 12545 O 1268.36 0.937399 -1.78255 0
M  V30 12546 C 1265.42 1.31212 -3.20911 0
M  V30 12547 C 1264.48 0.633613 -4.24598 0
M  V30 12548 C 1263.71 1.62878 -5.08239 0
M  V30 12549 O 1263.94 2.85958 -4.93543 0
M  V30 12550 O 1262.87 1.17887 -5.90242 0
M  V30 12551 H 1266.7 -0.420384 -3.00776 0
M  V30 12552 H 1264.28 -0.271683 -1.46909 0
M  V30 12553 H 1266.16 1.91647 -3.75299 0
M  V30 12554 H 1264.84 1.98244 -2.55892 0
M  V30 12555 H 1263.75 -0.0107246 -3.74098 0
M  V30 12556 H 1265.08 0.0055777 -4.922 0
M  V30 12557 N 1266.73 1.55688 -0.24474 0
M  V30 12558 C 1267.96 2.0329 0.384808 0
M  V30 12559 C 1268.37 1.12405 1.51692 0
M  V30 12560 O 1267.73 0.138056 1.81977 0
M  V30 12561 C 1267.78 3.50255 0.894635 0
M  V30 12562 O 1267.5 4.37677 -0.192365 0
M  V30 12563 C 1269 4.13608 1.59509 0
M  V30 12564 H 1266.22 0.664706 0.0916908 0
M  V30 12565 H 1268.77 2.01162 -0.367973 0
M  V30 12566 H 1266.92 3.52924 1.5976 0
M  V30 12567 H 1267.34 5.2414 0.194424 0
M  V30 12568 H 1268.81 5.1814 1.90356 0
M  V30 12569 H 1269.29 3.5997 2.51631 0
M  V30 12570 H 1269.89 4.14856 0.936749 0
M  V30 12571 N 1268.21 -0.0283989 1.57574 0
M  V30 12572 C 1269.44 -0.730831 1.93563 0
M  V30 12573 C 1269.85 -1.68857 0.844556 0
M  V30 12574 O 1269.21 -1.8162 -0.178971 0
M  V30 12575 C 1269.26 -1.48731 3.29486 0
M  V30 12576 O 1268.98 -0.568017 4.34402 0
M  V30 12577 C 1270.48 -2.28684 3.79761 0
M  V30 12578 H 1267.7 -0.205346 0.638807 0
M  V30 12579 H 1270.25 0.0142728 2.04495 0
M  V30 12580 H 1268.4 -2.18429 3.19949 0
M  V30 12581 H 1268.82 -1.09861 5.12865 0
M  V30 12582 H 1270.29 -2.77157 4.77376 0
M  V30 12583 H 1270.77 -3.10133 3.10989 0
M  V30 12584 H 1271.37 -1.64059 3.92383 0
M  V30 12585 N 1269.69 -1.54705 -0.300681 0
M  V30 12586 C 1270.93 -1.74259 -1.03738 0
M  V30 12587 C 1271.27 -0.52703 -1.86912 0
M  V30 12588 O 1270.54 0.475862 -1.88589 0
M  V30 12589 C 1270.82 -3.03175 -1.94311 0
M  V30 12590 C 1270.68 -4.35031 -1.14315 0
M  V30 12591 C 1272 -3.27962 -2.93478 0
M  V30 12592 H 1269.12 -0.634031 -0.37573 0
M  V30 12593 H 1271.76 -1.87421 -0.312012 0
M  V30 12594 H 1269.91 -2.92086 -2.5616 0
M  V30 12595 H 1271.58 -4.5804 -0.547489 0
M  V30 12596 H 1269.82 -4.31503 -0.44587 0
M  V30 12597 H 1270.49 -5.21502 -1.80941 0
M  V30 12598 H 1272.97 -3.38663 -2.41757 0
M  V30 12599 H 1271.85 -4.19481 -3.54016 0
M  V30 12600 H 1272.11 -2.46273 -3.67154 0
M  V30 12601 N 1271.17 0.563888 -1.47167 0
M  V30 12602 C 1272.41 1.31875 -1.53145 0
M  V30 12603 C 1272.74 1.94047 -0.192518 0
M  V30 12604 O 1272.01 1.79577 0.782872 0
M  V30 12605 H 1270.59 0.489694 -0.5641 0
M  V30 12606 H 1273.25 0.658976 -1.83422 0
M  V30 12607 H 1272.34 2.11574 -2.2944 0
M  V30 12608 N 1272.64 1.35187 0.810078 0
M  V30 12609 C 1273.89 1.28454 1.56931 0
M  V30 12610 C 1274.22 -0.141747 1.93682 0
M  V30 12611 O 1273.5 -1.09028 1.61069 0
M  V30 12612 C 1273.78 2.18771 2.86027 0
M  V30 12613 C 1273.63 3.69999 2.55774 0
M  V30 12614 C 1274.95 2.08265 3.87703 0
M  V30 12615 H 1272.07 0.467959 0.569371 0
M  V30 12616 H 1274.71 1.65556 0.932262 0
M  V30 12617 H 1272.86 1.8726 3.40391 0
M  V30 12618 H 1274.54 4.11936 2.07621 0
M  V30 12619 H 1272.78 3.90453 1.89021 0
M  V30 12620 H 1273.45 4.28577 3.47888 0
M  V30 12621 H 1275.93 2.35958 3.42729 0
M  V30 12622 H 1274.8 2.73663 4.75815 0
M  V30 12623 H 1275.06 1.06352 4.29117 0
M  V30 12624 N 1274.12 -1.03182 1.19127 0
M  V30 12625 C 1275.37 -1.76794 0.993563 0
M  V30 12626 C 1275.7 -1.88306 -0.474809 0
M  V30 12627 O 1274.98 -1.39769 -1.35258 0
M  V30 12628 C 1275.26 -3.19573 1.65968 0
M  V30 12629 C 1275.11 -3.1595 3.2015 0
M  V30 12630 C 1276.43 -4.17897 1.38023 0
M  V30 12631 H 1273.55 -0.641768 0.362357 0
M  V30 12632 H 1276.19 -1.20472 1.46924 0
M  V30 12633 H 1274.34 -3.67663 1.25524 0
M  V30 12634 H 1276.01 -2.7578 3.69788 0
M  V30 12635 H 1274.26 -2.53743 3.51848 0
M  V30 12636 H 1274.93 -4.16811 3.61901 0
M  V30 12637 H 1277.4 -3.78394 1.73082 0
M  V30 12638 H 1276.28 -5.15997 1.87186 0
M  V30 12639 H 1276.54 -4.41048 0.304812 0
M  V30 12640 N 1275.6 -0.99472 -1.22242 0
M  V30 12641 C 1276.84 -0.679831 -1.92763 0
M  V30 12642 C 1277.2 0.774024 -1.75707 0
M  V30 12643 O 1278.41 1.20041 -2.40507 0
M  V30 12644 C 1276.68 -1.07685 -3.40791 0
M  V30 12645 S 1278.24 -0.880607 -4.29873 0
M  V30 12646 H 1275.05 -0.248508 -0.666157 0
M  V30 12647 H 1277.66 -1.27738 -1.47997 0
M  V30 12648 H 1276.36 -2.1313 -3.50719 0
M  V30 12649 H 1275.89 -0.471172 -3.90568 0
M  V30 12650 H 1277.91 0.227887 -4.95676 0
M  V30 12651 N 1277.08 1.37613 -0.768148 0
M  V30 12652 C 1278.49 1.53202 -0.44737 0
M  V30 12653 C 1278.69 1.72736 1.03752 0
M  V30 12654 O 1277.75 1.74667 1.8234 0
M  V30 12655 C 1279.06 2.7306 -1.25931 0
M  V30 12656 C 1280.61 2.8692 -1.25084 0
M  V30 12657 C 1281.09 4.09757 -2.04605 0
M  V30 12658 N 1282.58 4.16862 -2.0194 0
M  V30 12659 C 1283.31 5.10936 -2.60254 0
M  V30 12660 N 1282.81 6.1059 -3.27341 0
M  V30 12661 N 1284.6 5.03393 -2.50104 0
M  V30 12662 H 1276.75 1.23184 -1.7303 0
M  V30 12663 H 1279.02 0.599541 -0.73434 0
M  V30 12664 H 1278.72 2.65078 -2.31141 0
M  V30 12665 H 1278.6 3.66646 -0.886036 0
M  V30 12666 H 1280.98 2.94375 -0.206736 0
M  V30 12667 H 1281.06 1.94303 -1.66373 0
M  V30 12668 H 1280.71 4.03063 -3.09035 0
M  V30 12669 H 1280.64 5.01481 -1.60701 0
M  V30 12670 H 1283.13 3.455 -1.53096 0
M  V30 12671 H 1283.44 6.78893 -3.6922 0
M  V30 12672 H 1281.79 6.10879 -3.31439 0
M  V30 12673 H 1284.98 4.24483 -1.9731 0
M  V30 12674 H 1285.15 5.76524 -2.95844 0
M  V30 12675 N 1278.56 0.518393 1.4883 0
M  V30 12676 C 1279.49 -0.287642 2.27388 0
M  V30 12677 C 1280.5 -0.914974 1.34655 0
M  V30 12678 O 1281.69 -0.795373 1.598 0
M  V30 12679 C 1278.79 -1.42149 3.07647 0
M  V30 12680 C 1277.96 -0.898238 4.28078 0
M  V30 12681 C 1277.02 -1.91179 4.90242 0
M  V30 12682 O 1276.05 -1.47337 5.498 0
M  V30 12683 N 1277.25 -3.24331 4.81445 0
M  V30 12684 H 1280.02 0.386047 2.97203 0
M  V30 12685 H 1277.58 0.352002 1.58027 0
M  V30 12686 H 1279.57 -2.09745 3.46106 0
M  V30 12687 H 1278.14 -1.99903 2.40328 0
M  V30 12688 H 1277.36 -0.0466326 3.94172 0
M  V30 12689 H 1278.65 -0.527338 5.0606 0
M  V30 12690 H 1278.04 -3.62627 4.34187 0
M  V30 12691 H 1276.6 -3.87593 5.24037 0
M  V30 12692 N 1280.03 -1.55556 0.252993 0
M  V30 12693 C 1280.96 -2.24613 -0.638047 0
M  V30 12694 C 1281.95 -1.22852 -1.1765 0
M  V30 12695 O 1283.13 -1.51519 -1.21472 0
M  V30 12696 C 1280.26 -2.95029 -1.83236 0
M  V30 12697 C 1279.21 -4.03531 -1.42641 0
M  V30 12698 C 1278.54 -4.61404 -2.70204 0
M  V30 12699 C 1279.84 -5.18923 -0.592958 0
M  V30 12700 H 1281.53 -2.99335 -0.0621918 0
M  V30 12701 H 1279.08 -1.43972 -0.0284722 0
M  V30 12702 H 1281.03 -3.42042 -2.46141 0
M  V30 12703 H 1279.76 -2.17805 -2.43369 0
M  V30 12704 H 1278.42 -3.57296 -0.820672 0
M  V30 12705 H 1278.06 -3.80874 -3.28548 0
M  V30 12706 H 1277.76 -5.34652 -2.43764 0
M  V30 12707 H 1279.29 -5.11154 -3.33997 0
M  V30 12708 H 1280.7 -5.62124 -1.12646 0
M  V30 12709 H 1279.1 -5.98598 -0.424358 0
M  V30 12710 H 1280.17 -4.83301 0.393434 0
M  V30 12711 N 1281.51 0.0200419 -1.57587 0
M  V30 12712 C 1282.76 0.707627 -1.89307 0
M  V30 12713 C 1283.08 1.7541 -0.851831 0
M  V30 12714 O 1282.35 1.95571 0.113404 0
M  V30 12715 H 1280.93 0.264349 -0.698662 0
M  V30 12716 H 1283.59 -0.0161428 -1.94893 0
M  V30 12717 H 1282.69 1.19152 -2.8846 0
M  V30 12718 N 1282.99 1.54862 0.292472 0
M  V30 12719 C 1284.23 1.76289 1.03448 0
M  V30 12720 C 1284.59 0.541914 1.84194 0
M  V30 12721 O 1285.8 0.634075 2.61214 0
M  V30 12722 C 1284.07 3.02112 1.90953 0
M  V30 12723 S 1285.63 3.44577 2.71683 0
M  V30 12724 H 1282.44 0.619596 0.348744 0
M  V30 12725 H 1285.05 1.93075 0.306952 0
M  V30 12726 H 1283.75 3.89091 1.30523 0
M  V30 12727 H 1283.28 2.87937 2.68059 0
M  V30 12728 H 1285.3 3.02318 3.93469 0
M  V30 12729 N 1284.47 -0.556076 1.47464 0
M  V30 12730 C 1285.43 -1.64515 1.59586 0
M  V30 12731 C 1286.43 -1.53751 0.470881 0
M  V30 12732 O 1287.62 -1.57889 0.735979 0
M  V30 12733 C 1284.75 -3.0406 1.54143 0
M  V30 12734 H 1285.95 -1.55116 2.56669 0
M  V30 12735 H 1283.5 -0.776087 1.35671 0
M  V30 12736 H 1284.23 -3.18991 0.584395 0
M  V30 12737 H 1284.02 -3.13282 2.3579 0
M  V30 12738 H 1285.51 -3.8329 1.65766 0
M  V30 12739 N 1285.95 -1.35615 -0.802897 0
M  V30 12740 C 1287.22 -1.19655 -1.54732 0
M  V30 12741 C 1287.6 0.222827 -2.09921 0
M  V30 12742 O 1286.95 1.2268 -1.92774 0
M  V30 12743 C 1287.16 -2.26761 -2.65293 0
M  V30 12744 C 1288.51 -2.62754 -3.33535 0
M  V30 12745 O 1289.53 -2.25702 -2.75567 0
M  V30 12746 O 1288.39 -3.26476 -4.38264 0
M  V30 12747 H 1285.49 -0.465079 -0.683835 0
M  V30 12748 H 1288.03 -1.47307 -0.84254 0
M  V30 12749 H 1286.81 -3.21946 -2.22411 0
M  V30 12750 H 1286.43 -2.00399 -3.43404 0
M  V30 12751 N 1287.43 1.02549 -1.19673 0
M  V30 12752 C 1288.37 2.109 -0.937536 0
M  V30 12753 C 1289.34 1.65599 0.128923 0
M  V30 12754 O 1290.53 1.90795 -0.0139366 0
M  V30 12755 C 1287.67 3.4166 -0.48602 0
M  V30 12756 C 1286.78 4.0049 -1.61963 0
M  V30 12757 C 1285.92 5.19273 -1.11931 0
M  V30 12758 C 1284.95 5.70166 -2.22659 0
M  V30 12759 N 1284.09 6.80221 -1.73909 0
M  V30 12760 H 1288.93 2.32408 -1.86523 0
M  V30 12761 H 1286.47 1.13982 -0.929869 0
M  V30 12762 H 1288.43 4.16693 -0.205614 0
M  V30 12763 H 1287.06 3.20253 0.404678 0
M  V30 12764 H 1286.11 3.22638 -2.01516 0
M  V30 12765 H 1287.42 4.34273 -2.45374 0
M  V30 12766 H 1286.57 6.01478 -0.794336 0
M  V30 12767 H 1285.31 4.87033 -0.254972 0
M  V30 12768 H 1284.32 4.86572 -2.55983 0
M  V30 12769 H 1285.54 6.04444 -3.09554 0
M  V30 12770 H 1283.49 6.49826 -0.897889 0
M  V30 12771 H 1283.41 7.13149 -2.50907 0
M  V30 12772 H 1284.67 7.66011 -1.44386 0
M  V30 12773 N 1288.9 1.00119 1.21713 0
M  V30 12774 C 1290.15 0.680377 1.90303 0
M  V30 12775 C 1290.47 -0.790927 1.7824 0
M  V30 12776 O 1289.74 -1.5676 1.17486 0
M  V30 12777 H 1288.32 0.248665 0.704397 0
M  V30 12778 H 1290.98 1.26948 1.47886 0
M  V30 12779 H 1290.08 0.950188 2.97284 0
M  V30 12780 N 1290.38 -1.37203 0.775435 0
M  V30 12781 C 1291.33 -2.30228 0.162388 0
M  V30 12782 C 1292.3 -1.51284 -0.685747 0
M  V30 12783 O 1293.48 -1.7984 -0.637342 0
M  V30 12784 C 1290.62 -3.37762 -0.707858 0
M  V30 12785 C 1289.74 -4.31714 0.157287 0
M  V30 12786 C 1288.87 -5.26325 -0.718012 0
M  V30 12787 C 1287.91 -6.11918 0.149442 0
M  V30 12788 N 1287.05 -6.9876 -0.684043 0
M  V30 12789 H 1291.89 -2.82073 0.961184 0
M  V30 12790 H 1289.42 -1.38854 0.485587 0
M  V30 12791 H 1291.38 -3.98741 -1.22726 0
M  V30 12792 H 1290.01 -2.87273 -1.47222 0
M  V30 12793 H 1289.06 -3.7201 0.794533 0
M  V30 12794 H 1290.38 -4.91909 0.826262 0
M  V30 12795 H 1289.53 -5.92526 -1.30376 0
M  V30 12796 H 1288.27 -4.6655 -1.42066 0
M  V30 12797 H 1287.27 -5.44692 0.747697 0
M  V30 12798 H 1288.5 -6.73766 0.849476 0
M  V30 12799 H 1286.45 -6.41508 -1.37124 0
M  V30 12800 H 1286.36 -7.55965 -0.0724464 0
M  V30 12801 H 1287.63 -7.69346 -1.25407 0
M  V30 12802 N 1291.86 -0.526279 -1.48553 0
M  V30 12803 C 1293.11 0.0111473 -2.01697 0
M  V30 12804 C 1293.42 1.35675 -1.40895 0
M  V30 12805 O 1294.63 1.98233 -1.85515 0
M  V30 12806 C 1293.08 0.0702721 -3.59831 0
M  V30 12807 C 1292.69 -1.27022 -4.29616 0
M  V30 12808 C 1294.44 0.556722 -4.20834 0
M  V30 12809 C 1292.34 -1.17188 -5.79673 0
M  V30 12810 H 1291.27 0.00793697 -0.753958 0
M  V30 12811 H 1293.92 -0.669503 -1.70851 0
M  V30 12812 H 1292.31 0.81592 -3.87503 0
M  V30 12813 H 1293.48 -2.03114 -4.1362 0
M  V30 12814 H 1291.79 -1.69211 -3.80469 0
M  V30 12815 H 1294.39 0.648205 -5.30756 0
M  V30 12816 H 1294.73 1.56163 -3.859 0
M  V30 12817 H 1295.27 -0.133132 -3.97577 0
M  V30 12818 H 1292.01 -2.15182 -6.19174 0
M  V30 12819 H 1291.53 -0.452259 -5.98093 0
M  V30 12820 H 1293.21 -0.861011 -6.41245 0
M  V30 12821 N 1293.34 1.5542 -0.261239 0
M  V30 12822 C 1294.29 2.23382 0.648324 0
M  V30 12823 C 1295.28 1.22615 1.16884 0
M  V30 12824 O 1296.49 1.40587 1.12407 0
M  V30 12825 H 1292.86 0.716733 0.227592 0
M  V30 12826 H 1294.83 2.98354 0.0521289 0
M  V30 12827 C 1293.58 2.9579 1.82766 0
M  V30 12828 H 1292.9 3.73109 1.4363 0
M  V30 12829 H 1294.34 3.46686 2.441 0
M  V30 12830 C 1292.8 2.00472 2.70763 0
M  V30 12831 O 1293.33 1.54698 3.70717 0
M  V30 12832 N 1291.54 1.67267 2.37635 0
M  V30 12833 H 1291.09 2.04685 1.56402 0
M  V30 12834 H 1291.04 1.03759 2.96785 0
M  V30 12835 N 1294.82 -0.0116844 1.57596 0
M  V30 12836 C 1296.23 -0.55604 1.78228 0
M  V30 12837 C 1296.58 -1.74624 0.894474 0
M  V30 12838 O 1295.7 -2.16196 0.0938498 0
M  V30 12839 C 1296.3 -1.0155 3.23223 0
M  V30 12840 C 1294.86 -1.50525 3.44992 0
M  V30 12841 C 1294 -0.451133 2.73606 0
M  V30 12842 H 1296.95 0.214516 1.57243 0
M  V30 12843 H 1296.98 -1.88208 3.30693 0
M  V30 12844 H 1296.49 -0.149048 3.87814 0
M  V30 12845 H 1294.59 -2.39298 2.856 0
M  V30 12846 H 1294.7 -1.54076 4.53649 0
M  V30 12847 H 1293.07 -0.910135 2.37884 0
M  V30 12848 H 1293.85 0.406152 3.40889 0
M  V30 12849 N 1296.29 -1.55015 -0.284256 0
M  V30 12850 C 1297.26 -1.8636 -1.33426 0
M  V30 12851 C 1298.26 -0.737457 -1.42892 0
M  V30 12852 O 1299.45 -1.00569 -1.42238 0
M  V30 12853 C 1296.58 -2.05884 -2.71707 0
M  V30 12854 H 1297.77 -2.80212 -1.06869 0
M  V30 12855 H 1295.32 -1.47334 -0.521767 0
M  V30 12856 H 1296.06 -1.14376 -3.03461 0
M  V30 12857 H 1295.84 -2.87867 -2.66224 0
M  V30 12858 H 1297.33 -2.31447 -3.47595 0
M  V30 12859 N 1297.77 0.548248 -1.47757 0
M  V30 12860 C 1299 1.335 -1.58722 0
M  V30 12861 C 1299.42 1.86549 -0.241034 0
M  V30 12862 O 1298.78 1.63447 0.784517 0
M  V30 12863 C 1298.83 2.47457 -2.62293 0
M  V30 12864 O 1297.93 3.49956 -2.18185 0
M  V30 12865 H 1297.27 0.396166 -0.532868 0
M  V30 12866 H 1299.8 0.66164 -1.93607 0
M  V30 12867 H 1299.81 2.93901 -2.82995 0
M  V30 12868 H 1298.49 2.08203 -3.60034 0
M  V30 12869 H 1297.06 3.09755 -2.0762 0
M  V30 12870 N 1299.25 1.36039 0.795694 0
M  V30 12871 C 1300.18 1.32528 1.92246 0
M  V30 12872 C 1301.16 0.197805 1.68946 0
M  V30 12873 O 1302.35 0.394474 1.90151 0
M  V30 12874 C 1299.48 1.10748 3.29169 0
M  V30 12875 C 1298.43 2.20253 3.66978 0
M  V30 12876 C 1297.76 1.83624 5.02181 0
M  V30 12877 C 1299.06 3.62296 3.76216 0
M  V30 12878 H 1300.75 2.2681 1.95442 0
M  V30 12879 H 1298.3 1.09181 0.938908 0
M  V30 12880 H 1300.25 1.06929 4.07608 0
M  V30 12881 H 1298.97 0.129141 3.26345 0
M  V30 12882 H 1297.63 2.23187 2.90832 0
M  V30 12883 H 1297.28 0.843804 4.95872 0
M  V30 12884 H 1296.98 2.56935 5.28449 0
M  V30 12885 H 1298.5 1.81349 5.83048 0
M  V30 12886 H 1299.92 3.61623 4.44861 0
M  V30 12887 H 1298.31 4.34459 4.13963 0
M  V30 12888 H 1299.38 3.97657 2.77483 0
M  V30 12889 N 1300.73 -1.01913 1.20215 0
M  V30 12890 C 1302.01 -1.7262 0.919867 0
M  V30 12891 C 1302.39 -2.03203 -0.572001 0
M  V30 12892 O 1301.73 -1.69448 -1.53296 0
M  V30 12893 C 1301.94 -2.9959 1.79016 0
M  V30 12894 C 1303.29 -3.72905 2.03045 0
M  V30 12895 O 1304.32 -3.0954 1.76249 0
M  V30 12896 O 1303.17 -4.86844 2.48285 0
M  V30 12897 H 1300.27 -0.752194 0.343705 0
M  V30 12898 H 1302.81 -1.07783 1.31076 0
M  V30 12899 H 1301.59 -2.73292 2.80048 0
M  V30 12900 H 1301.21 -3.72168 1.39918 0
M  V30 12901 N 1302.21 -1.00763 -1.2118 0
M  V30 12902 C 1303.15 -0.570257 -2.23644 0
M  V30 12903 C 1304.12 0.405039 -1.61086 0
M  V30 12904 O 1305.31 0.306496 -1.88322 0
M  V30 12905 C 1302.45 0.094325 -3.44971 0
M  V30 12906 C 1301.56 -0.924463 -4.21993 0
M  V30 12907 C 1300.7 -0.231869 -5.30694 0
M  V30 12908 C 1299.74 -1.23803 -5.99449 0
M  V30 12909 N 1298.87 -0.572725 -6.9976 0
M  V30 12910 H 1303.71 -1.44869 -2.60417 0
M  V30 12911 H 1301.25 -0.725369 -1.27972 0
M  V30 12912 H 1303.21 0.496689 -4.14233 0
M  V30 12913 H 1301.84 0.936457 -3.08918 0
M  V30 12914 H 1300.89 -1.44505 -3.51884 0
M  V30 12915 H 1302.2 -1.69004 -4.69296 0
M  V30 12916 H 1301.36 0.226465 -6.06277 0
M  V30 12917 H 1300.09 0.566092 -4.84403 0
M  V30 12918 H 1299.1 -1.70684 -5.22635 0
M  V30 12919 H 1300.32 -2.03711 -6.47826 0
M  V30 12920 H 1298.27 0.205531 -6.55678 0
M  V30 12921 H 1298.19 -1.27651 -7.45145 0
M  V30 12922 H 1299.46 -0.137683 -7.79378 0
M  V30 12923 N 1303.68 1.3679 -0.7827 0
M  V30 12924 C 1304.65 2.28472 -0.182525 0
M  V30 12925 C 1305.65 1.48524 0.616217 0
M  V30 12926 O 1306.84 1.68599 0.438197 0
M  V30 12927 C 1303.97 3.32588 0.748202 0
M  V30 12928 H 1305.16 2.83059 -0.99085 0
M  V30 12929 H 1302.72 1.46241 -0.551658 0
M  V30 12930 H 1303.45 2.83145 1.58112 0
M  V30 12931 H 1303.24 3.91698 0.177481 0
M  V30 12932 H 1304.73 4.01073 1.16321 0
M  V30 12933 N 1305.16 0.53415 1.48272 0
M  V30 12934 C 1306.1 -0.273689 2.26553 0
M  V30 12935 C 1307.07 -0.941085 1.32598 0
M  V30 12936 O 1308.26 -0.964653 1.61947 0
M  V30 12937 C 1305.38 -1.38796 3.08955 0
M  V30 12938 C 1304.43 -0.831533 4.18315 0
M  V30 12939 S 1305.26 0.303875 5.34637 0
M  V30 12940 C 1306.42 -0.812767 6.206 0
M  V30 12941 H 1306.65 0.390639 2.94722 0
M  V30 12942 H 1304.19 0.320014 1.51047 0
M  V30 12943 H 1306.14 -2.02622 3.57008 0
M  V30 12944 H 1304.8 -2.02402 2.40192 0
M  V30 12945 H 1304 -1.66758 4.75613 0
M  V30 12946 H 1303.6 -0.269881 3.73025 0
M  V30 12947 H 1305.89 -1.71043 6.55554 0
M  V30 12948 H 1306.83 -0.27767 7.07555 0
M  V30 12949 H 1307.24 -1.09505 5.53777 0
M  V30 12950 N 1306.64 -1.55279 0.269478 0
M  V30 12951 C 1307.87 -2.04334 -0.355313 0
M  V30 12952 C 1308.29 -1.14677 -1.491 0
M  V30 12953 O 1307.65 -0.144215 -1.80726 0
M  V30 12954 C 1307.7 -3.51172 -0.819162 0
M  V30 12955 O 1306.8 -3.64615 -1.9269 0
M  V30 12956 H 1306.14 -0.659827 -0.0743229 0
M  V30 12957 H 1308.67 -2.00609 0.402131 0
M  V30 12958 H 1308.68 -3.92428 -1.11642 0
M  V30 12959 H 1307.36 -4.15898 0.0117821 0
M  V30 12960 H 1305.93 -3.35261 -1.63261 0
M  V30 12961 N 1308.12 0.00332656 -1.576 0
M  V30 12962 C 1309.37 0.688044 -1.89602 0
M  V30 12963 C 1309.68 1.75121 -0.871316 0
M  V30 12964 O 1310.89 2.49032 -1.08144 0
M  V30 12965 C 1309.34 1.27494 -3.36561 0
M  V30 12966 C 1308.95 0.246771 -4.4732 0
M  V30 12967 C 1310.69 1.93804 -3.77677 0
M  V30 12968 C 1308.6 0.843471 -5.85354 0
M  V30 12969 H 1307.53 0.260747 -0.707479 0
M  V30 12970 H 1310.18 -0.0566727 -1.83412 0
M  V30 12971 H 1308.56 2.07022 -3.37577 0
M  V30 12972 H 1309.74 -0.523668 -4.57815 0
M  V30 12973 H 1308.05 -0.3157 -4.15202 0
M  V30 12974 H 1310.65 2.39347 -4.78139 0
M  V30 12975 H 1310.99 2.7672 -3.11017 0
M  V30 12976 H 1311.53 1.21015 -3.78946 0
M  V30 12977 H 1308.27 0.0531655 -6.55478 0
M  V30 12978 H 1307.79 1.58315 -5.7853 0
M  V30 12979 H 1309.46 1.34311 -6.32906 0
M  V30 12980 N 1309.6 1.55164 0.276031 0
M  V30 12981 C 1311.01 1.66367 0.847293 0
M  V30 12982 C 1311.36 0.588692 1.8716 0
M  V30 12983 O 1310.48 -0.27035 2.14705 0
M  V30 12984 C 1311.08 3.01593 1.5436 0
M  V30 12985 C 1309.64 3.14833 2.06293 0
M  V30 12986 C 1308.78 2.62152 0.903959 0
M  V30 12987 H 1311.74 1.58613 0.0524478 0
M  V30 12988 H 1311.76 2.94412 2.41043 0
M  V30 12989 H 1311.27 3.7981 0.797849 0
M  V30 12990 H 1309.37 2.41384 2.83839 0
M  V30 12991 H 1309.48 4.21353 2.28032 0
M  V30 12992 H 1307.85 2.19233 1.29649 0
M  V30 12993 H 1308.63 3.4287 0.171765 0
M  V30 12994 N 1311.07 -0.540404 1.48045 0
M  V30 12995 C 1312.01 -1.66223 1.56349 0
M  V30 12996 C 1312.99 -1.57227 0.414552 0
M  V30 12997 O 1314.17 -1.77847 0.624709 0
M  V30 12998 C 1311.3 -3.04568 1.48176 0
M  V30 12999 C 1310.34 -3.31957 2.67781 0
M  V30 13000 S 1311.18 -3.19368 4.29842 0
M  V30 13001 C 1312.33 -4.60177 4.2425 0
M  V30 13002 H 1312.56 -1.58927 2.51256 0
M  V30 13003 H 1310.1 -0.722554 1.3645 0
M  V30 13004 H 1312.06 -3.84359 1.44147 0
M  V30 13005 H 1310.72 -3.09314 0.54625 0
M  V30 13006 H 1309.91 -4.32855 2.58172 0
M  V30 13007 H 1309.51 -2.59817 2.69019 0
M  V30 13008 H 1311.8 -5.51482 3.9354 0
M  V30 13009 H 1312.75 -4.74842 5.25291 0
M  V30 13010 H 1313.15 -4.39011 3.54865 0
M  V30 13011 N 1312.55 -1.36459 -0.788468 0
M  V30 13012 C 1313.8 -1.31942 -1.54799 0
M  V30 13013 C 1314.15 0.100282 -1.92138 0
M  V30 13014 O 1313.45 1.05505 -1.59935 0
M  V30 13015 C 1313.64 -2.17672 -2.83467 0
M  V30 13016 C 1313.47 -3.67836 -2.58702 0
M  V30 13017 C 1312.24 -4.37009 -2.53675 0
M  V30 13018 C 1314.44 -4.61081 -2.27835 0
M  V30 13019 N 1312.42 -5.72811 -2.20817 0
M  V30 13020 C 1313.79 -5.85137 -2.04973 0
M  V30 13021 C 1315.85 -4.49636 -2.13849 0
M  V30 13022 C 1314.55 -6.99034 -1.69541 0
M  V30 13023 C 1316.57 -5.63401 -1.79816 0
M  V30 13024 C 1315.94 -6.86497 -1.57803 0
M  V30 13025 H 1312.04 -0.538087 -0.567438 0
M  V30 13026 H 1314.62 -1.7152 -0.921358 0
M  V30 13027 H 1312.79 -1.80338 -3.43995 0
M  V30 13028 H 1314.52 -2.04539 -3.49208 0
M  V30 13029 H 1311.28 -3.89822 -2.68953 0
M  V30 13030 H 1311.7 -6.44535 -2.07132 0
M  V30 13031 H 1316.34 -3.55054 -2.29558 0
M  V30 13032 H 1314.06 -7.93567 -1.52571 0
M  V30 13033 H 1317.65 -5.56508 -1.69677 0
M  V30 13034 H 1316.53 -7.73036 -1.31855 0
M  V30 13035 N 1314.03 1.01274 -1.20754 0
M  V30 13036 C 1315.28 1.75191 -1.02156 0
M  V30 13037 C 1315.61 1.89038 0.444791 0
M  V30 13038 O 1314.88 1.41903 1.33018 0
M  V30 13039 C 1315.17 3.16892 -1.71031 0
M  V30 13040 C 1315.02 3.10816 -3.25136 0
M  V30 13041 C 1316.34 4.15648 -1.44654 0
M  V30 13042 H 1313.46 0.635922 -0.372521 0
M  V30 13043 H 1316.1 1.18119 -1.48822 0
M  V30 13044 H 1314.25 3.6562 -1.31357 0
M  V30 13045 H 1315.92 2.69863 -3.74128 0
M  V30 13046 H 1314.17 2.48113 -3.5584 0
M  V30 13047 H 1314.84 4.11001 -3.68487 0
M  V30 13048 H 1317.31 3.75592 -1.7908 0
M  V30 13049 H 1316.19 5.12954 -1.95371 0
M  V30 13050 H 1316.45 4.40507 -0.37494 0
M  V30 13051 N 1315.51 1.01404 1.20644 0
M  V30 13052 C 1316.79 0.617088 1.85611 0
M  V30 13053 C 1317.17 -0.904947 1.9072 0
M  V30 13054 O 1316.51 -1.79562 1.41315 0
M  V30 13055 C 1316.72 1.26193 3.25386 0
M  V30 13056 C 1318.07 1.37575 4.01694 0
M  V30 13057 O 1319.1 1.21795 3.34731 0
M  V30 13058 O 1317.96 1.6305 5.2161 0
M  V30 13059 H 1315.05 0.212579 0.799211 0
M  V30 13060 H 1317.6 1.11126 1.28254 0
M  V30 13061 H 1316.37 2.30206 3.16419 0
M  V30 13062 H 1315.99 0.754679 3.90372 0
M  V30 13063 N 1316.99 -1.36373 0.789944 0
M  V30 13064 C 1317.94 -2.31928 0.17666 0
M  V30 13065 C 1318.93 -1.55831 -0.664316 0
M  V30 13066 O 1320.14 -1.71089 -0.559341 0
M  V30 13067 H 1316.51 -0.751021 0.038353 0
M  V30 13068 H 1318.48 -2.81216 0.998004 0
M  V30 13069 C 1317.23 -3.41112 -0.673646 0
M  V30 13070 H 1316.55 -3.99784 -0.0358875 0
M  V30 13071 H 1317.99 -4.10292 -1.06942 0
M  V30 13072 C 1316.45 -2.82728 -1.83211 0
M  V30 13073 O 1316.98 -2.74935 -2.92871 0
M  V30 13074 N 1315.19 -2.4001 -1.6384 0
M  V30 13075 H 1314.74 -2.46549 -0.746423 0
M  V30 13076 H 1314.69 -2.01294 -2.41512 0
M  V30 13077 N 1318.47 -0.542005 -1.47987 0
M  V30 13078 C 1319.71 -0.0123299 -2.02796 0
M  V30 13079 C 1320.04 1.32789 -1.41707 0
M  V30 13080 O 1319.32 1.86048 -0.567119 0
M  V30 13081 C 1319.6 0.0969277 -3.5997 0
M  V30 13082 C 1319.46 -1.26931 -4.31519 0
M  V30 13083 C 1320.77 0.817854 -4.32434 0
M  V30 13084 H 1317.89 -0.00595479 -0.736976 0
M  V30 13085 H 1320.54 -0.70136 -1.76581 0
M  V30 13086 H 1318.69 0.683755 -3.82436 0
M  V30 13087 H 1320.36 -1.89817 -4.20437 0
M  V30 13088 H 1318.6 -1.84804 -3.92467 0
M  V30 13089 H 1319.27 -1.14573 -5.39979 0
M  V30 13090 H 1321.75 0.319749 -4.1487 0
M  V30 13091 H 1320.62 0.863225 -5.4207 0
M  V30 13092 H 1320.88 1.87075 -4.00569 0
M  V30 13093 N 1319.94 1.55134 -0.277709 0
M  V30 13094 C 1320.88 2.20028 0.641913 0
M  V30 13095 C 1321.89 1.18578 1.11549 0
M  V30 13096 O 1323.08 1.45291 1.03695 0
M  V30 13097 C 1320.18 2.81443 1.88794 0
M  V30 13098 C 1319.35 4.08607 1.56074 0
M  V30 13099 C 1318.41 4.54045 2.6595 0
M  V30 13100 O 1317.44 5.19762 2.32026 0
M  V30 13101 N 1318.64 4.24403 3.96058 0
M  V30 13102 H 1321.4 2.99575 0.0864929 0
M  V30 13103 H 1318.96 1.61598 -0.0989178 0
M  V30 13104 H 1320.96 3.08784 2.616 0
M  V30 13105 H 1319.53 2.05873 2.35234 0
M  V30 13106 H 1318.75 3.88527 0.666388 0
M  V30 13107 H 1320.03 4.91455 1.31719 0
M  V30 13108 H 1319.43 3.71708 4.26439 0
M  V30 13109 H 1317.99 4.56509 4.65234 0
M  V30 13110 N 1321.42 0.00503138 1.57599 0
M  V30 13111 C 1322.66 -0.683203 1.92644 0
M  V30 13112 C 1323.03 -1.70657 0.879778 0
M  V30 13113 O 1324.23 -2.44555 1.11563 0
M  V30 13114 C 1322.5 -1.30509 3.32719 0
M  V30 13115 S 1324.06 -2.01775 3.89657 0
M  V30 13116 H 1320.87 -0.225551 0.674276 0
M  V30 13117 H 1323.48 0.0629255 1.95399 0
M  V30 13118 H 1322.18 -0.547509 4.06731 0
M  V30 13119 H 1321.71 -2.08904 3.3335 0
M  V30 13120 H 1323.73 -3.29348 3.7114 0
M  V30 13121 N 1322.9 -1.55308 -0.267798 0
M  V30 13122 C 1324.31 -1.66814 -0.838459 0
M  V30 13123 C 1324.66 -0.598609 -1.86845 0
M  V30 13124 O 1323.79 0.25896 -2.14845 0
M  V30 13125 C 1324.38 -3.02408 -1.52758 0
M  V30 13126 C 1322.94 -3.15923 -2.04621 0
M  V30 13127 C 1322.09 -2.62628 -0.890044 0
M  V30 13128 H 1325.04 -1.58639 -0.0440354 0
M  V30 13129 H 1325.06 -2.95687 -2.39478 0
M  V30 13130 H 1324.57 -3.80228 -0.777695 0
M  V30 13131 H 1322.67 -2.42886 -2.82555 0
M  V30 13132 H 1322.79 -4.22556 -2.25794 0
M  V30 13133 H 1321.15 -2.19918 -1.28485 0
M  V30 13134 H 1321.93 -3.42956 -0.153579 0
M  V30 13135 N 1324.38 0.532545 -1.4833 0
M  V30 13136 C 1325.32 1.63737 -1.62661 0
M  V30 13137 C 1326.29 1.59348 -0.468758 0
M  V30 13138 O 1327.48 1.77812 -0.691921 0
M  V30 13139 C 1324.62 3.02006 -1.66993 0
M  V30 13140 C 1323.73 3.16648 -2.93867 0
M  V30 13141 C 1322.87 4.4546 -2.89376 0
M  V30 13142 C 1321.91 4.53622 -4.10966 0
M  V30 13143 N 1321.04 5.7382 -4.04567 0
M  V30 13144 H 1325.88 1.50828 -2.57012 0
M  V30 13145 H 1323.42 0.734348 -1.27459 0
M  V30 13146 H 1325.38 3.82105 -1.67486 0
M  V30 13147 H 1324.01 3.13693 -0.76135 0
M  V30 13148 H 1323.06 2.29817 -3.0313 0
M  V30 13149 H 1324.37 3.1854 -3.8384 0
M  V30 13150 H 1323.53 5.33848 -2.88256 0
M  V30 13151 H 1322.27 4.46085 -1.97127 0
M  V30 13152 H 1321.27 3.63642 -4.12364 0
M  V30 13153 H 1322.5 4.54738 -5.04371 0
M  V30 13154 H 1320.44 5.75347 -3.15137 0
M  V30 13155 H 1320.36 5.77196 -4.88243 0
M  V30 13156 H 1321.63 6.64502 -4.07502 0
M  V30 13157 N 1325.86 1.36875 0.78122 0
M  V30 13158 C 1327.1 1.31299 1.53639 0
M  V30 13159 C 1327.42 -0.104942 1.94717 0
M  V30 13160 O 1326.69 -1.04696 1.65576 0
M  V30 13161 H 1325.27 0.483032 0.569815 0
M  V30 13162 H 1327.94 1.71261 0.930359 0
M  V30 13163 H 1327.03 1.94581 2.44018 0
M  V30 13164 N 1327.33 -1.00632 1.21289 0
M  V30 13165 C 1328.74 -1.55838 1.02817 0
M  V30 13166 C 1329.1 -1.91816 -0.412425 0
M  V30 13167 O 1328.22 -1.73342 -1.29543 0
M  V30 13168 C 1328.82 -2.83168 1.86014 0
M  V30 13169 C 1327.37 -3.34865 1.71879 0
M  V30 13170 C 1326.52 -2.0807 1.83309 0
M  V30 13171 H 1329.47 -0.828939 1.3533 0
M  V30 13172 H 1329.49 -3.54996 1.36961 0
M  V30 13173 H 1329.01 -2.56951 2.90857 0
M  V30 13174 H 1327.11 -3.6602 0.697153 0
M  V30 13175 H 1327.22 -4.06374 2.53766 0
M  V30 13176 H 1325.58 -2.21006 1.26603 0
M  V30 13177 H 1326.37 -1.84267 2.89656 0
M  V30 13178 N 1328.81 -1.02043 -1.20104 0
M  V30 13179 C 1330.09 -0.626922 -1.85281 0
M  V30 13180 C 1330.47 0.894819 -1.91197 0
M  V30 13181 O 1329.82 1.7881 -1.42265 0
M  V30 13182 C 1330.03 -1.27917 -3.24713 0
M  V30 13183 C 1331.37 -1.39704 -4.00959 0
M  V30 13184 O 1332.4 -1.23568 -3.3408 0
M  V30 13185 O 1331.26 -1.65814 -5.20738 0
M  V30 13186 H 1328.35 -0.216815 -0.798073 0
M  V30 13187 H 1330.9 -1.11804 -1.27663 0
M  V30 13188 H 1329.67 -2.3188 -3.15194 0
M  V30 13189 H 1329.29 -0.775371 -3.89966 0
M  V30 13190 N 1330.29 1.35952 -0.797165 0
M  V30 13191 C 1331.52 2.0328 -0.385316 0
M  V30 13192 C 1331.93 1.60095 1.00076 0
M  V30 13193 O 1331.29 0.794014 1.64322 0
M  V30 13194 C 1331.34 3.5871 -0.448284 0
M  V30 13195 O 1331.06 4.00323 -1.7797 0
M  V30 13196 C 1332.56 4.43291 -0.0280465 0
M  V30 13197 H 1329.78 0.652192 -0.157756 0
M  V30 13198 H 1332.33 1.73769 -1.07817 0
M  V30 13199 H 1330.48 3.86903 0.196224 0
M  V30 13200 H 1330.9 4.94941 -1.73592 0
M  V30 13201 H 1332.37 5.51862 -0.123234 0
M  V30 13202 H 1332.85 4.27059 1.02552 0
M  V30 13203 H 1333.45 4.20375 -0.645343 0
M  V30 13204 N 1331.77 0.549846 1.47697 0
M  V30 13205 C 1332.7 -0.190364 2.32723 0
M  V30 13206 C 1333.68 -0.915933 1.43334 0
M  V30 13207 O 1334.86 -0.897838 1.72199 0
M  V30 13208 C 1331.99 -1.22545 3.24961 0
M  V30 13209 C 1330.95 -0.616805 4.23532 0
M  V30 13210 C 1330.27 -1.75599 5.05044 0
M  V30 13211 C 1331.57 0.424595 5.20571 0
M  V30 13212 H 1333.27 0.519461 2.94859 0
M  V30 13213 H 1330.81 0.251259 1.41791 0
M  V30 13214 H 1332.77 -1.75139 3.83281 0
M  V30 13215 H 1331.49 -1.96512 2.60865 0
M  V30 13216 H 1330.15 -0.112224 3.66428 0
M  V30 13217 H 1329.8 -2.48453 4.37356 0
M  V30 13218 H 1329.5 -1.35456 5.71774 0
M  V30 13219 H 1331.02 -2.28533 5.6622 0
M  V30 13220 H 1332.44 -0.0150025 5.73298 0
M  V30 13221 H 1330.83 0.7445 5.95464 0
M  V30 13222 H 1331.9 1.32318 4.66497 0
M  V30 13223 N 1333.25 -1.54984 0.285932 0
M  V30 13224 C 1334.49 -2.00848 -0.321162 0
M  V30 13225 C 1334.85 -1.17086 -1.52672 0
M  V30 13226 O 1334.14 -0.235523 -1.90147 0
M  V30 13227 C 1334.33 -3.49581 -0.7435 0
M  V30 13228 C 1334.16 -4.47738 0.419586 0
M  V30 13229 C 1332.93 -4.97096 0.906821 0
M  V30 13230 C 1335.13 -4.98636 1.25963 0
M  V30 13231 N 1333.11 -5.79076 2.03824 0
M  V30 13232 C 1334.48 -5.78169 2.23878 0
M  V30 13233 C 1336.54 -4.80852 1.29174 0
M  V30 13234 C 1335.24 -6.41813 3.2476 0
M  V30 13235 C 1337.27 -5.45303 2.28906 0
M  V30 13236 C 1336.63 -6.24656 3.25552 0
M  V30 13237 H 1332.73 -0.777647 -0.0823951 0
M  V30 13238 H 1335.31 -1.90282 0.412418 0
M  V30 13239 H 1333.48 -3.60468 -1.44628 0
M  V30 13240 H 1335.22 -3.82261 -1.32885 0
M  V30 13241 H 1331.97 -4.71117 0.484305 0
M  V30 13242 H 1332.4 -6.24754 2.6079 0
M  V30 13243 H 1337.04 -4.19097 0.558318 0
M  V30 13244 H 1334.76 -7.0271 3.99029 0
M  V30 13245 H 1338.34 -5.33479 2.32145 0
M  V30 13246 H 1337.22 -6.73645 4.01462 0
M  V30 13247 N 1334.72 -0.0133892 -1.57594 0
M  V30 13248 C 1335.66 1.00211 -2.06132 0
M  V30 13249 C 1336.67 1.29869 -0.98173 0
M  V30 13250 O 1337.86 1.2661 -1.25826 0
M  V30 13251 C 1334.96 2.33354 -2.45763 0
M  V30 13252 C 1334.13 2.22441 -3.76615 0
M  V30 13253 C 1333.19 3.38385 -4.02967 0
M  V30 13254 O 1332.22 3.15973 -4.73445 0
M  V30 13255 N 1333.42 4.61672 -3.51908 0
M  V30 13256 H 1336.18 0.588079 -2.93874 0
M  V30 13257 H 1333.74 0.173714 -1.60965 0
M  V30 13258 H 1335.74 3.09716 -2.60496 0
M  V30 13259 H 1334.31 2.66451 -1.6347 0
M  V30 13260 H 1333.53 1.30905 -3.7183 0
M  V30 13261 H 1334.81 2.12337 -4.62375 0
M  V30 13262 H 1334.21 4.82777 -2.9486 0
M  V30 13263 H 1332.77 5.35256 -3.71947 0
M  V30 13264 N 1336.2 1.55448 0.259558 0
M  V30 13265 C 1337.44 1.78444 0.996849 0
M  V30 13266 C 1337.81 0.580862 1.83003 0
M  V30 13267 O 1339.01 0.68934 2.59811 0
M  V30 13268 C 1337.28 3.06094 1.84502 0
M  V30 13269 S 1338.84 3.50263 2.64313 0
M  V30 13270 H 1335.66 0.626854 0.335523 0
M  V30 13271 H 1338.26 1.93683 0.265929 0
M  V30 13272 H 1336.96 3.91772 1.22241 0
M  V30 13273 H 1336.49 2.93558 2.61891 0
M  V30 13274 H 1338.51 3.10596 3.86968 0
M  V30 13275 N 1337.68 -0.524672 1.4861 0
M  V30 13276 C 1339.09 -1.10655 1.50374 0
M  V30 13277 C 1339.44 -1.94242 0.276512 0
M  V30 13278 O 1338.57 -2.07451 -0.615887 0
M  V30 13279 C 1339.16 -2.01348 2.72478 0
M  V30 13280 C 1337.72 -2.54743 2.77097 0
M  V30 13281 C 1336.87 -1.31822 2.43964 0
M  V30 13282 H 1339.82 -0.309674 1.55649 0
M  V30 13283 H 1339.84 -2.85709 2.51297 0
M  V30 13284 H 1339.35 -1.40485 3.61781 0
M  V30 13285 H 1337.45 -3.19313 1.92016 0
M  V30 13286 H 1337.57 -2.93514 3.78664 0
M  V30 13287 H 1335.93 -1.63574 1.95233 0
M  V30 13288 H 1336.71 -0.727026 3.35513 0
M  V30 13289 N 1339.16 -1.37287 -0.77395 0
M  V30 13290 C 1340.38 -1.35734 -1.56815 0
M  V30 13291 C 1340.81 0.0555546 -1.88018 0
M  V30 13292 O 1340.17 1.03197 -1.49064 0
M  V30 13293 C 1340.21 -2.2008 -2.85652 0
M  V30 13294 O 1339.32 -1.60391 -3.79932 0
M  V30 13295 H 1338.66 -0.463881 -0.47509 0
M  V30 13296 H 1341.19 -1.80781 -0.958087 0
M  V30 13297 H 1341.2 -2.33215 -3.34776 0
M  V30 13298 H 1339.87 -3.22781 -2.6227 0
M  V30 13299 H 1338.45 -1.56285 -3.3857 0
M  V30 13300 N 1340.64 0.999871 -1.21821 0
M  V30 13301 C 1341.86 1.7794 -1.06546 0
M  V30 13302 C 1342.29 1.84219 0.380115 0
M  V30 13303 O 1341.64 1.28955 1.27438 0
M  V30 13304 C 1341.69 3.1943 -1.67322 0
M  V30 13305 O 1340.8 4.01957 -0.922171 0
M  V30 13306 H 1340.14 0.548204 -0.374658 0
M  V30 13307 H 1342.67 1.2565 -1.61472 0
M  V30 13308 H 1342.68 3.70086 -1.71757 0
M  V30 13309 H 1341.35 3.14175 -2.7252 0
M  V30 13310 H 1339.93 3.60509 -0.95331 0
M  V30 13311 N 1342.11 1.02678 1.19562 0
M  V30 13312 C 1343.53 0.752027 1.70884 0
M  V30 13313 C 1343.88 -0.728523 1.82173 0
M  V30 13314 O 1343 -1.56799 1.49141 0
M  V30 13315 C 1343.6 1.35848 3.10372 0
M  V30 13316 C 1342.16 1.13236 3.58963 0
M  V30 13317 C 1341.3 1.45785 2.35886 0
M  V30 13318 H 1344.25 1.19497 1.04432 0
M  V30 13319 H 1344.27 0.754347 3.72948 0
M  V30 13320 H 1343.79 2.43604 3.02124 0
M  V30 13321 H 1341.89 0.0729271 3.72529 0
M  V30 13322 H 1342 1.81959 4.43202 0
M  V30 13323 H 1340.36 0.877125 2.3912 0
M  V30 13324 H 1341.15 2.54619 2.30269 0
M  V30 13325 N 1343.59 -1.35528 0.804364 0
M  V30 13326 C 1344.84 -1.9956 0.393383 0
M  V30 13327 C 1345.19 -1.62667 -1.02749 0
M  V30 13328 O 1344.49 -0.87869 -1.70263 0
M  V30 13329 C 1344.68 -3.5372 0.511571 0
M  V30 13330 C 1344.51 -4.05588 1.94238 0
M  V30 13331 C 1343.28 -4.35046 2.57027 0
M  V30 13332 C 1345.48 -4.24287 2.90663 0
M  V30 13333 N 1343.46 -4.7283 3.91541 0
M  V30 13334 C 1344.83 -4.65043 4.10043 0
M  V30 13335 C 1346.89 -4.0649 2.87524 0
M  V30 13336 C 1345.59 -4.89864 5.26712 0
M  V30 13337 C 1347.61 -4.32467 4.03394 0
M  V30 13338 C 1346.98 -4.73492 5.21521 0
M  V30 13339 H 1343.08 -0.758146 0.191674 0
M  V30 13340 H 1345.66 -1.64271 1.04513 0
M  V30 13341 H 1343.83 -3.88244 -0.110174 0
M  V30 13342 H 1345.56 -4.0463 0.0753915 0
M  V30 13343 H 1342.32 -4.25285 2.08397 0
M  V30 13344 H 1342.74 -4.95985 4.6079 0
M  V30 13345 H 1347.38 -3.73916 1.97349 0
M  V30 13346 H 1345.1 -5.21313 6.17461 0
M  V30 13347 H 1348.69 -4.20252 4.02343 0
M  V30 13348 H 1347.57 -4.93201 6.09691 0
M  V30 13349 N 1345.07 -0.557671 -1.47404 0
M  V30 13350 C 1345.98 0.19289 -2.33806 0
M  V30 13351 C 1347 0.911424 -1.4822 0
M  V30 13352 O 1348.17 0.880214 -1.81147 0
M  V30 13353 C 1345.24 1.20937 -3.24923 0
M  V30 13354 C 1344.3 0.498209 -4.26399 0
M  V30 13355 C 1343.53 1.46626 -5.13163 0
M  V30 13356 O 1343.76 2.70111 -5.0239 0
M  V30 13357 O 1342.69 0.990497 -5.93694 0
M  V30 13358 H 1346.52 -0.515861 -2.99287 0
M  V30 13359 H 1344.1 -0.318283 -1.4597 0
M  V30 13360 H 1345.98 1.7961 -3.81206 0
M  V30 13361 H 1344.66 1.90003 -2.6207 0
M  V30 13362 H 1343.56 -0.129736 -3.73875 0
M  V30 13363 H 1344.9 -0.151015 -4.91968 0
M  V30 13364 N 1346.55 1.54831 -0.294147 0
M  V30 13365 C 1347.5 2.23263 0.58499 0
M  V30 13366 C 1348.47 1.21278 1.13494 0
M  V30 13367 O 1349.65 1.49878 1.18073 0
M  V30 13368 C 1346.79 2.97185 1.75429 0
M  V30 13369 C 1345.9 4.1393 1.23638 0
M  V30 13370 C 1345.04 4.7545 2.36899 0
M  V30 13371 C 1344.08 5.84352 1.82207 0
M  V30 13372 N 1343.22 6.39855 2.89015 0
M  V30 13373 H 1348.06 2.98 -0.00519329 0
M  V30 13374 H 1345.59 1.47093 -0.0143313 0
M  V30 13375 H 1347.55 3.38271 2.4419 0
M  V30 13376 H 1346.18 2.24837 2.3162 0
M  V30 13377 H 1345.23 3.77832 0.441247 0
M  V30 13378 H 1346.54 4.92409 0.795946 0
M  V30 13379 H 1345.7 5.19353 3.1362 0
M  V30 13380 H 1344.44 3.96288 2.84266 0
M  V30 13381 H 1343.44 5.39879 1.03974 0
M  V30 13382 H 1344.67 6.65393 1.35753 0
M  V30 13383 H 1342.61 5.6358 3.35729 0
M  V30 13384 H 1342.53 7.13661 2.49447 0
M  V30 13385 H 1343.8 6.88417 3.65654 0
M  V30 13386 N 1348.03 0.0217466 1.57585 0
M  V30 13387 C 1349.44 -0.334576 1.56054 0
M  V30 13388 C 1349.64 -1.73386 1.02663 0
M  V30 13389 O 1348.7 -2.43447 0.670078 0
M  V30 13390 C 1350.01 -0.189919 3.001 0
M  V30 13391 C 1351.56 -0.263238 3.11891 0
M  V30 13392 C 1352.04 -0.147455 4.57763 0
M  V30 13393 N 1353.53 -0.204672 4.62748 0
M  V30 13394 C 1354.26 -0.138755 5.73232 0
M  V30 13395 N 1353.76 -0.0221762 6.92796 0
M  V30 13396 N 1355.55 -0.192206 5.61771 0
M  V30 13397 H 1347.7 0.936849 1.90622 0
M  V30 13398 H 1349.96 0.361119 0.876526 0
M  V30 13399 H 1349.67 0.773687 3.43084 0
M  V30 13400 H 1349.54 -0.963148 3.64696 0
M  V30 13401 H 1351.93 -1.2173 2.68823 0
M  V30 13402 H 1352.01 0.540241 2.5003 0
M  V30 13403 H 1351.66 0.803155 5.0151 0
M  V30 13404 H 1351.59 -0.969703 5.17595 0
M  V30 13405 H 1354.08 -0.29522 3.76745 0
M  V30 13406 H 1354.39 0.021631 7.72797 0
M  V30 13407 H 1352.74 0.0125033 6.94999 0
M  V30 13408 H 1355.93 -0.28163 4.67252 0
M  V30 13409 H 1356.1 -0.137372 6.47854 0
M  V30 13410 N 1349.51 -1.55583 -0.251311 0
M  V30 13411 C 1350.44 -1.9296 -1.31486 0
M  V30 13412 C 1351.42 -0.794001 -1.50431 0
M  V30 13413 O 1352.6 -1.05393 -1.63113 0
M  V30 13414 C 1349.73 -2.22046 -2.67045 0
M  V30 13415 C 1348.69 -3.37816 -2.62801 0
M  V30 13416 C 1348.01 -3.52433 -4.02113 0
M  V30 13417 C 1349.31 -4.73626 -2.20171 0
M  V30 13418 H 1351.01 -2.82046 -1.00451 0
M  V30 13419 H 1348.55 -1.35702 -0.481775 0
M  V30 13420 H 1350.5 -2.46783 -3.41579 0
M  V30 13421 H 1349.23 -1.29782 -2.99707 0
M  V30 13422 H 1347.89 -3.13081 -1.90724 0
M  V30 13423 H 1347.54 -2.57597 -4.32034 0
M  V30 13424 H 1347.24 -4.30283 -4.00163 0
M  V30 13425 H 1348.76 -3.79486 -4.78354 0
M  V30 13426 H 1350.17 -4.97764 -2.84436 0
M  V30 13427 H 1348.57 -5.54547 -2.29341 0
M  V30 13428 H 1349.64 -4.70985 -1.1533 0
M  V30 13429 N 1350.98 0.516783 -1.48886 0
M  V30 13430 C 1351.95 1.60226 -1.63891 0
M  V30 13431 C 1352.95 1.52448 -0.511479 0
M  V30 13432 O 1354.14 1.55882 -0.777582 0
M  V30 13433 C 1351.27 2.99867 -1.62151 0
M  V30 13434 H 1352.46 1.48256 -2.60692 0
M  V30 13435 H 1350.01 0.739844 -1.37681 0
M  V30 13436 H 1350.75 3.1733 -0.668764 0
M  V30 13437 H 1350.53 3.0692 -2.44013 0
M  V30 13438 H 1352.02 3.7876 -1.7587 0
M  V30 13439 N 1352.46 1.37696 0.766659 0
M  V30 13440 C 1353.69 1.36564 1.56093 0
M  V30 13441 C 1354.11 -0.0455828 1.88045 0
M  V30 13442 O 1353.47 -1.02405 1.49609 0
M  V30 13443 C 1353.52 2.21592 2.84481 0
M  V30 13444 O 1352.62 1.62404 3.79076 0
M  V30 13445 H 1351.96 0.466394 0.472623 0
M  V30 13446 H 1354.49 1.81287 0.948486 0
M  V30 13447 H 1354.5 2.34987 3.33534 0
M  V30 13448 H 1353.18 3.24167 2.60554 0
M  V30 13449 H 1351.75 1.58078 3.37736 0
M  V30 13450 N 1353.94 -0.993397 1.22349 0
M  V30 13451 C 1355.35 -1.54739 1.04465 0
M  V30 13452 C 1355.7 -1.92243 -0.392057 0
M  V30 13453 O 1354.83 -1.74707 -1.27697 0
M  V30 13454 C 1355.42 -2.81179 1.89007 0
M  V30 13455 C 1353.98 -3.33023 1.75421 0
M  V30 13456 C 1353.13 -2.06114 1.85505 0
M  V30 13457 H 1356.08 -0.814539 1.36202 0
M  V30 13458 H 1356.1 -3.53523 1.40718 0
M  V30 13459 H 1355.61 -2.53851 2.93566 0
M  V30 13460 H 1353.71 -3.6526 0.735935 0
M  V30 13461 H 1353.83 -4.03659 2.58062 0
M  V30 13462 H 1352.19 -2.19651 1.2894 0
M  V30 13463 H 1352.97 -1.81184 2.91594 0
M  V30 13464 N 1355.42 -1.03311 -1.19015 0
M  V30 13465 C 1356.64 -0.751686 -1.93299 0
M  V30 13466 C 1357.07 0.68392 -1.75226 0
M  V30 13467 O 1356.43 1.47274 -1.05736 0
M  V30 13468 C 1356.47 -1.11335 -3.42982 0
M  V30 13469 O 1355.58 -0.234434 -4.11733 0
M  V30 13470 H 1354.92 -0.277331 -0.60331 0
M  V30 13471 H 1357.45 -1.38092 -1.5097 0
M  V30 13472 H 1357.46 -1.07204 -3.93664 0
M  V30 13473 H 1356.13 -2.15922 -3.55458 0
M  V30 13474 H 1354.71 -0.3347 -3.71395 0
M  V30 13475 N 1356.9 1.35099 -0.81154 0
M  V30 13476 C 1357.81 2.33499 -0.22705 0
M  V30 13477 C 1358.82 1.62095 0.632562 0
M  V30 13478 O 1360 1.93938 0.543147 0
M  V30 13479 C 1357.06 3.41279 0.610687 0
M  V30 13480 C 1356.12 4.2845 -0.269994 0
M  V30 13481 C 1355.36 5.31083 0.527854 0
M  V30 13482 O 1355.58 5.42499 1.76213 0
M  V30 13483 O 1354.51 6.01842 -0.083862 0
M  V30 13484 H 1358.34 2.85294 -1.04119 0
M  V30 13485 H 1355.92 1.37957 -0.573432 0
M  V30 13486 H 1357.81 4.07121 1.08768 0
M  V30 13487 H 1356.48 2.91746 1.40235 0
M  V30 13488 H 1355.39 3.65572 -0.794234 0
M  V30 13489 H 1356.72 4.81394 -1.02572 0
M  V30 13490 N 1358.37 0.56548 1.47106 0
M  V30 13491 C 1359.28 -0.180488 2.33905 0
M  V30 13492 C 1360.3 -0.90355 1.48701 0
M  V30 13493 O 1361.48 -0.870595 1.81611 0
M  V30 13494 C 1358.54 -1.19212 3.2556 0
M  V30 13495 C 1357.6 -0.475589 4.26658 0
M  V30 13496 C 1356.83 -1.43902 5.13934 0
M  V30 13497 O 1357.06 -2.67443 5.03816 0
M  V30 13498 O 1355.99 -0.958998 5.94211 0
M  V30 13499 H 1359.82 0.531726 2.99009 0
M  V30 13500 H 1357.4 0.32602 1.45799 0
M  V30 13501 H 1359.28 -1.77586 3.82153 0
M  V30 13502 H 1357.96 -1.8861 2.63074 0
M  V30 13503 H 1356.87 0.149561 3.73801 0
M  V30 13504 H 1358.2 0.177103 4.91881 0
M  V30 13505 N 1359.85 -1.54672 0.302354 0
M  V30 13506 C 1361.08 -2.04578 -0.309093 0
M  V30 13507 C 1361.5 -1.17957 -1.47416 0
M  V30 13508 O 1360.85 -0.2055 -1.81339 0
M  V30 13509 C 1360.9 -3.53334 -0.764023 0
M  V30 13510 O 1360.62 -4.36662 0.354674 0
M  V30 13511 C 1362.13 -4.19243 -1.44048 0
M  V30 13512 H 1359.35 -0.667651 -0.0669575 0
M  V30 13513 H 1361.89 -1.99658 0.442379 0
M  V30 13514 H 1360.04 -3.5861 -1.46552 0
M  V30 13515 H 1360.46 -5.245 0.000241188 0
M  V30 13516 H 1361.93 -5.24847 -1.70995 0
M  V30 13517 H 1362.41 -3.69061 -2.38098 0
M  V30 13518 H 1363.02 -4.18046 -0.782132 0
M  V30 13519 N 1361.33 -0.0301034 -1.57571 0
M  V30 13520 C 1362.58 0.643491 -1.92953 0
M  V30 13521 C 1362.93 1.69679 -0.907009 0
M  V30 13522 O 1362.22 1.91446 0.0768136 0
M  V30 13523 C 1362.42 1.30206 -3.32838 0
M  V30 13524 C 1362.25 0.314074 -4.48602 0
M  V30 13525 C 1361.02 -0.0864138 -5.05226 0
M  V30 13526 C 1363.22 -0.432028 -5.12482 0
M  V30 13527 N 1361.2 -1.06947 -6.04513 0
M  V30 13528 C 1362.57 -1.26881 -6.06878 0
M  V30 13529 C 1364.62 -0.492623 -4.95457 0
M  V30 13530 C 1363.33 -2.16071 -6.8608 0
M  V30 13531 C 1365.35 -1.37187 -5.75268 0
M  V30 13532 C 1364.71 -2.19642 -6.69281 0
M  V30 13533 H 1360.81 0.207753 -0.753898 0
M  V30 13534 H 1363.4 -0.0975084 -1.94456 0
M  V30 13535 H 1361.57 2.0132 -3.32152 0
M  V30 13536 H 1363.3 1.93276 -3.55565 0
M  V30 13537 H 1360.06 0.288233 -4.72722 0
M  V30 13538 H 1360.48 -1.55726 -6.58846 0
M  V30 13539 H 1365.12 0.130615 -4.22598 0
M  V30 13540 H 1362.84 -2.79449 -7.58244 0
M  V30 13541 H 1366.43 -1.42306 -5.64128 0
M  V30 13542 H 1365.31 -2.86576 -7.29962 0
M  V30 13543 N 1362.81 1.55714 0.243056 0
M  V30 13544 C 1364.06 1.76927 0.96849 0
M  V30 13545 C 1364.37 0.594748 1.86339 0
M  V30 13546 O 1365.58 0.689981 2.62586 0
M  V30 13547 C 1364.03 3.13246 1.77214 0
M  V30 13548 C 1363.64 4.38358 0.92444 0
M  V30 13549 C 1365.38 3.43796 2.49007 0
M  V30 13550 C 1363.29 5.65708 1.7242 0
M  V30 13551 H 1362.22 0.659574 0.365346 0
M  V30 13552 H 1364.87 1.8214 0.223026 0
M  V30 13553 H 1363.25 3.02151 2.5597 0
M  V30 13554 H 1364.43 4.60452 0.178936 0
M  V30 13555 H 1362.74 4.15171 0.319653 0
M  V30 13556 H 1365.34 4.3616 3.09303 0
M  V30 13557 H 1365.68 2.65297 3.20817 0
M  V30 13558 H 1366.22 3.56124 1.77259 0
M  V30 13559 H 1362.96 6.47039 1.04978 0
M  V30 13560 H 1362.48 5.4771 2.44488 0
M  V30 13561 H 1364.15 6.05105 2.29036 0
M  V30 13562 N 1364.29 -0.50888 1.49158 0
M  V30 13563 C 1365.51 -1.28771 1.61943 0
M  V30 13564 C 1365.93 -1.86594 0.287759 0
M  V30 13565 O 1365.29 -1.67448 -0.725769 0
M  V30 13566 C 1365.34 -2.4236 2.68224 0
M  V30 13567 O 1365.06 -1.86915 3.96225 0
M  V30 13568 C 1366.56 -3.33856 2.91642 0
M  V30 13569 H 1363.78 -0.390849 0.545416 0
M  V30 13570 H 1366.32 -0.611729 1.95136 0
M  V30 13571 H 1364.48 -3.05803 2.37831 0
M  V30 13572 H 1364.89 -2.61426 4.54705 0
M  V30 13573 H 1366.37 -4.09856 3.69759 0
M  V30 13574 H 1366.84 -3.90374 2.01258 0
M  V30 13575 H 1367.45 -2.76187 3.23421 0
M  V30 13576 N 1365.76 -1.381 -0.759346 0
M  V30 13577 C 1367 -1.35402 -1.5312 0
M  V30 13578 C 1367.37 0.0574616 -1.91914 0
M  V30 13579 O 1368.57 0.20927 -2.67984 0
M  V30 13580 C 1366.84 -2.27793 -2.754 0
M  V30 13581 S 1368.4 -2.43061 -3.65331 0
M  V30 13582 H 1365.22 -0.480503 -0.524059 0
M  V30 13583 H 1367.82 -1.7397 -0.891886 0
M  V30 13584 H 1366.52 -3.29247 -2.45 0
M  V30 13585 H 1366.05 -1.90353 -3.44281 0
M  V30 13586 H 1368.07 -1.6504 -4.67949 0
M  V30 13587 N 1367.24 0.986894 -1.22875 0
M  V30 13588 C 1368.52 1.70121 -0.965311 0
M  V30 13589 C 1368.9 2.04648 0.517924 0
M  V30 13590 O 1368.25 1.73453 1.48749 0
M  V30 13591 C 1368.46 2.94738 -1.86897 0
M  V30 13592 C 1369.81 3.6739 -2.12861 0
M  V30 13593 O 1370.83 3.04758 -1.84394 0
M  V30 13594 O 1369.69 4.8009 -2.61106 0
M  V30 13595 H 1366.78 0.742817 -0.363527 0
M  V30 13596 H 1369.33 1.0427 -1.33887 0
M  V30 13597 H 1368.1 2.65771 -2.87196 0
M  V30 13598 H 1367.72 3.68327 -1.49736 0
M  V30 13599 N 1368.72 1.0394 1.18466 0
M  V30 13600 C 1369.67 0.623063 2.241 0
M  V30 13601 C 1370.66 -0.349518 1.65755 0
M  V30 13602 O 1371.87 -0.216947 1.78688 0
M  V30 13603 H 1368.24 0.183263 0.729327 0
M  V30 13604 H 1370.21 1.52439 2.56524 0
M  V30 13605 C 1368.96 0.000626805 3.477 0
M  V30 13606 H 1368.29 0.740056 3.92891 0
M  V30 13607 H 1369.73 -0.253484 4.23242 0
M  V30 13608 C 1368.19 -1.24907 3.1289 0
M  V30 13609 O 1368.72 -2.33996 3.2651 0
M  V30 13610 N 1366.92 -1.14187 2.67226 0
M  V30 13611 H 1366.47 -0.254146 2.56343 0
M  V30 13612 H 1366.43 -1.97893 2.44307 0
M  V30 13613 N 1370.2 -1.34667 0.818693 0
M  V30 13614 C 1371.15 -2.29595 0.235551 0
M  V30 13615 C 1372.12 -1.53389 -0.63727 0
M  V30 13616 O 1373.3 -1.81777 -0.579804 0
M  V30 13617 C 1370.44 -3.39843 -0.600043 0
M  V30 13618 C 1369.55 -4.30995 0.294553 0
M  V30 13619 C 1368.69 -5.28343 -0.550203 0
M  V30 13620 C 1367.73 -6.11132 0.344043 0
M  V30 13621 N 1366.86 -7.00582 -0.461392 0
M  V30 13622 H 1371.7 -2.78872 1.05044 0
M  V30 13623 H 1369.24 -1.37239 0.529517 0
M  V30 13624 H 1371.2 -4.02443 -1.09978 0
M  V30 13625 H 1369.83 -2.91811 -1.38008 0
M  V30 13626 H 1368.88 -3.69294 0.912483 0
M  V30 13627 H 1370.19 -4.89031 0.982341 0
M  V30 13628 H 1369.35 -5.96374 -1.11459 0
M  V30 13629 H 1368.09 -4.70833 -1.27151 0
M  V30 13630 H 1367.09 -5.42038 0.920608 0
M  V30 13631 H 1368.32 -6.70722 1.0634 0
M  V30 13632 H 1366.26 -6.45546 -1.16645 0
M  V30 13633 H 1366.18 -7.55813 0.168095 0
M  V30 13634 H 1367.45 -7.72946 -1.00867 0
M  V30 13635 N 1371.68 -0.573274 -1.46804 0
M  V30 13636 C 1372.93 -0.0530267 -2.0163 0
M  V30 13637 C 1373.24 1.31124 -1.45141 0
M  V30 13638 O 1374.44 1.92231 -1.91728 0
M  V30 13639 C 1372.9 -0.0442411 -3.59873 0
M  V30 13640 C 1372.51 -1.40625 -4.25357 0
M  V30 13641 C 1374.25 0.422556 -4.22392 0
M  V30 13642 C 1372.16 -1.3557 -5.75652 0
M  V30 13643 H 1371.09 -0.0160537 -0.753829 0
M  V30 13644 H 1373.74 -0.723518 -1.68634 0
M  V30 13645 H 1372.12 0.692225 -3.89903 0
M  V30 13646 H 1373.3 -2.1617 -4.06949 0
M  V30 13647 H 1371.61 -1.81229 -3.74893 0
M  V30 13648 H 1374.21 0.479021 -5.3255 0
M  V30 13649 H 1374.55 1.43806 -3.90673 0
M  V30 13650 H 1375.08 -0.259551 -3.96952 0
M  V30 13651 H 1371.82 -2.34772 -6.12015 0
M  V30 13652 H 1371.34 -0.642309 -5.96351 0
M  V30 13653 H 1373.02 -1.06458 -6.38182 0
M  V30 13654 N 1373.15 1.5451 -0.310553 0
M  V30 13655 C 1374.57 1.59543 0.0425296 0
M  V30 13656 C 1374.77 1.32737 1.51602 0
M  V30 13657 O 1373.83 1.10543 2.27016 0
M  V30 13658 C 1375.14 2.98489 -0.364002 0
M  V30 13659 C 1376.69 3.11425 -0.313566 0
M  V30 13660 C 1377.16 4.52695 -0.695064 0
M  V30 13661 N 1378.65 4.58645 -0.647966 0
M  V30 13662 C 1379.39 5.66044 -0.915508 0
M  V30 13663 N 1378.88 6.81439 -1.24951 0
M  V30 13664 N 1380.68 5.55759 -0.841933 0
M  V30 13665 H 1372.83 1.70194 -1.27074 0
M  V30 13666 H 1375.09 0.795374 -0.515833 0
M  V30 13667 H 1374.8 3.23061 -1.39012 0
M  V30 13668 H 1374.67 3.76177 0.27756 0
M  V30 13669 H 1377.06 2.86596 0.703326 0
M  V30 13670 H 1377.14 2.35871 -0.989883 0
M  V30 13671 H 1376.78 4.78255 -1.70981 0
M  V30 13672 H 1376.71 5.266 0.00342684 0
M  V30 13673 H 1379.2 3.75765 -0.401137 0
M  V30 13674 H 1379.52 7.59277 -1.43938 0
M  V30 13675 H 1377.86 6.82968 -1.28764 0
M  V30 13676 H 1381.05 4.64486 -0.58058 0
M  V30 13677 H 1381.23 6.39374 -1.0538 0
M  V30 13678 N 1374.63 0.0384594 1.57553 0
M  V30 13679 C 1375.56 -0.938444 2.13812 0
M  V30 13680 C 1376.54 -1.33307 1.05657 0
M  V30 13681 O 1377.73 -1.41003 1.33535 0
M  V30 13682 C 1374.86 -2.21764 2.67279 0
M  V30 13683 C 1373.81 -1.96347 3.80305 0
M  V30 13684 C 1373.14 -3.30612 4.20238 0
M  V30 13685 C 1374.44 -1.2952 5.05986 0
M  V30 13686 H 1376.13 -0.469887 2.9569 0
M  V30 13687 H 1373.68 -0.224576 1.42238 0
M  V30 13688 H 1375.63 -2.90493 3.05273 0
M  V30 13689 H 1374.36 -2.70802 1.82576 0
M  V30 13690 H 1373.02 -1.30033 3.42764 0
M  V30 13691 H 1372.66 -3.77427 3.32502 0
M  V30 13692 H 1372.36 -3.14409 4.96408 0
M  V30 13693 H 1373.89 -4.00594 4.60822 0
M  V30 13694 H 1375.3 -1.88264 5.41507 0
M  V30 13695 H 1373.7 -1.23685 5.87216 0
M  V30 13696 H 1374.77 -0.269439 4.84151 0
M  V30 13697 N 1376.11 -1.55841 -0.234795 0
M  V30 13698 C 1377.04 -1.87793 -1.31402 0
M  V30 13699 C 1378.06 -0.765113 -1.43701 0
M  V30 13700 O 1379.25 -1.04332 -1.44834 0
M  V30 13701 C 1376.35 -2.05976 -2.69123 0
M  V30 13702 C 1375.52 -3.36914 -2.7894 0
M  V30 13703 C 1374.58 -3.44691 -3.97586 0
M  V30 13704 O 1373.6 -4.17818 -3.86545 0
M  V30 13705 N 1374.81 -2.74866 -5.11301 0
M  V30 13706 H 1377.57 -2.80957 -1.04324 0
M  V30 13707 H 1375.13 -1.56226 -0.424872 0
M  V30 13708 H 1377.12 -2.08507 -3.46853 0
M  V30 13709 H 1375.69 -1.195 -2.88857 0
M  V30 13710 H 1374.91 -3.46595 -1.87791 0
M  V30 13711 H 1376.2 -4.23196 -2.82458 0
M  V30 13712 H 1375.6 -2.15208 -5.23165 0
M  V30 13713 H 1374.16 -2.83075 -5.87122 0
M  V30 13714 N 1377.59 0.500963 -1.49426 0
M  V30 13715 C 1378.5 1.62889 -1.68833 0
M  V30 13716 C 1379.52 1.64367 -0.570932 0
M  V30 13717 O 1380.69 1.82786 -0.845641 0
M  V30 13718 C 1377.76 2.99255 -1.75063 0
M  V30 13719 C 1376.82 3.08404 -2.9864 0
M  V30 13720 C 1376.05 4.38266 -3.04564 0
M  V30 13721 O 1376.27 5.27065 -2.1808 0
M  V30 13722 O 1375.21 4.52387 -3.97026 0
M  V30 13723 H 1379.03 1.49446 -2.64385 0
M  V30 13724 H 1376.62 0.677254 -1.33168 0
M  V30 13725 H 1378.5 3.80303 -1.81515 0
M  V30 13726 H 1377.18 3.1296 -0.826896 0
M  V30 13727 H 1376.08 2.26544 -2.97706 0
M  V30 13728 H 1377.42 2.99626 -3.90494 0
M  V30 13729 N 1379.07 1.38501 0.752011 0
M  V30 13730 C 1380.32 1.34529 1.50819 0
M  V30 13731 C 1380.64 -0.0636155 1.94896 0
M  V30 13732 O 1379.91 -1.01161 1.6776 0
M  V30 13733 H 1378.49 0.49501 0.559441 0
M  V30 13734 H 1381.15 1.73196 0.893822 0
M  V30 13735 H 1380.24 1.99713 2.39835 0
M  V30 13736 N 1380.55 -0.980364 1.23396 0
M  V30 13737 C 1381.96 -1.53622 1.061 0
M  V30 13738 C 1382.31 -1.92648 -0.371645 0
M  V30 13739 O 1381.43 -1.76051 -1.25837 0
M  V30 13740 C 1382.03 -2.79159 1.91979 0
M  V30 13741 C 1380.59 -3.31144 1.78943 0
M  V30 13742 C 1379.73 -2.04135 1.87681 0
M  V30 13743 H 1382.68 -0.800047 1.37058 0
M  V30 13744 H 1382.71 -3.52011 1.4446 0
M  V30 13745 H 1382.22 -2.50723 2.96242 0
M  V30 13746 H 1380.32 -3.64459 0.774634 0
M  V30 13747 H 1380.43 -4.009 2.62329 0
M  V30 13748 H 1378.8 -2.18271 1.31262 0
M  V30 13749 H 1379.58 -1.78081 2.93499 0
M  V30 13750 N 1382.02 -1.04567 -1.17913 0
M  V30 13751 C 1383.25 -0.772204 -1.9195 0
M  V30 13752 C 1383.67 0.671303 -1.76462 0
M  V30 13753 O 1383.02 1.45805 -1.0976 0
M  V30 13754 C 1383.07 -1.13539 -3.43207 0
M  V30 13755 O 1382.8 -2.52223 -3.58211 0
M  V30 13756 C 1384.3 -0.887146 -4.34332 0
M  V30 13757 H 1381.52 -0.281234 -0.609219 0
M  V30 13758 H 1384.06 -1.39467 -1.49563 0
M  V30 13759 H 1382.22 -0.557784 -3.83363 0
M  V30 13760 H 1382.63 -2.66275 -4.51882 0
M  V30 13761 H 1384.1 -1.19107 -5.38997 0
M  V30 13762 H 1384.58 0.1779 -4.3884 0
M  V30 13763 H 1385.19 -1.44829 -3.99881 0
M  V30 13764 N 1383.5 1.34231 -0.825823 0
M  V30 13765 C 1384.73 2.02949 -0.427354 0
M  V30 13766 C 1385.15 1.61772 0.959755 0
M  V30 13767 O 1384.51 0.803799 1.62508 0
M  V30 13768 C 1384.56 3.56522 -0.540799 0
M  V30 13769 O 1383.66 4.10065 0.438213 0
M  V30 13770 H 1383 0.640378 -0.175535 0
M  V30 13771 H 1385.53 1.71416 -1.11704 0
M  V30 13772 H 1385.54 4.05857 -0.41763 0
M  V30 13773 H 1384.22 3.85839 -1.55246 0
M  V30 13774 H 1382.79 3.71894 0.273687 0
M  V30 13775 N 1384.98 0.581051 1.46498 0
M  V30 13776 C 1386.22 0.0686577 2.04285 0
M  V30 13777 C 1386.58 -1.2666 1.44296 0
M  V30 13778 O 1387.78 -1.86813 1.93273 0
M  V30 13779 C 1386.06 0.0021308 3.574 0
M  V30 13780 S 1387.61 -0.452928 4.36456 0
M  V30 13781 H 1384.43 0.0366686 0.710054 0
M  V30 13782 H 1387.03 0.773174 1.79561 0
M  V30 13783 H 1385.74 0.977908 3.98579 0
M  V30 13784 H 1385.27 -0.725207 3.86658 0
M  V30 13785 H 1387.28 -1.708 4.65877 0
M  V30 13786 N 1386.46 -1.54343 0.318742 0
M  V30 13787 C 1387.68 -2.05361 -0.290126 0
M  V30 13788 C 1388.11 -1.19362 -1.45376 0
M  V30 13789 O 1387.47 -0.201639 -1.80175 0
M  V30 13790 C 1387.51 -3.53601 -0.707025 0
M  V30 13791 O 1386.62 -3.70561 -1.80992 0
M  V30 13792 H 1385.96 -0.661858 -0.0532933 0
M  V30 13793 H 1388.49 -1.99228 0.46575 0
M  V30 13794 H 1388.5 -3.95782 -0.991005 0
M  V30 13795 H 1387.17 -4.1565 0.144091 0
M  V30 13796 H 1385.75 -3.40286 -1.52513 0
M  V30 13797 N 1387.94 -0.0468143 -1.5753 0
M  V30 13798 C 1389.18 0.626699 -1.92138 0
M  V30 13799 C 1389.5 1.7164 -0.925463 0
M  V30 13800 O 1388.77 1.95876 0.0303531 0
M  V30 13801 H 1387.35 0.234479 -0.709245 0
M  V30 13802 H 1390.02 -0.0987892 -1.94649 0
M  V30 13803 H 1389.11 1.06811 -2.93254 0
M  V30 13804 N 1389.41 1.55964 0.226527 0
M  V30 13805 C 1390.83 1.48844 0.575999 0
M  V30 13806 C 1391.03 0.740966 1.87382 0
M  V30 13807 O 1390.09 0.278599 2.50958 0
M  V30 13808 C 1391.4 2.93371 0.65984 0
M  V30 13809 C 1392.95 3.03862 0.750802 0
M  V30 13810 C 1393.42 4.49738 0.86603 0
M  V30 13811 N 1394.91 4.5376 0.930379 0
M  V30 13812 C 1395.65 5.63905 1.03916 0
M  V30 13813 N 1395.14 6.83814 1.1122 0
M  V30 13814 N 1396.94 5.51746 1.07391 0
M  V30 13815 H 1389.09 2.02991 -0.625179 0
M  V30 13816 H 1391.35 0.922435 -0.218674 0
M  V30 13817 H 1391.06 3.50985 -0.22411 0
M  V30 13818 H 1390.93 3.44994 1.52509 0
M  V30 13819 H 1393.32 2.46316 1.6252 0
M  V30 13820 H 1393.4 2.55416 -0.140019 0
M  V30 13821 H 1393.04 5.079 -0.00388632 0
M  V30 13822 H 1392.97 4.95884 1.77219 0
M  V30 13823 H 1395.46 3.67404 0.884451 0
M  V30 13824 H 1395.78 7.63507 1.19484 0
M  V30 13825 H 1394.12 6.86535 1.08142 0
M  V30 13826 H 1397.31 4.56997 1.01347 0
M  V30 13827 H 1397.49 6.37619 1.15523 0
M  V30 13828 N 1390.89 -0.493031 1.4969 0
M  V30 13829 C 1392.14 -1.24849 1.59814 0
M  V30 13830 C 1392.47 -1.92059 0.287555 0
M  V30 13831 O 1391.75 -1.81099 -0.709471 0
M  V30 13832 C 1392.03 -2.30929 2.76304 0
M  V30 13833 C 1391.88 -1.68167 4.17181 0
M  V30 13834 C 1393.2 -3.32427 2.8841 0
M  V30 13835 H 1390.32 -0.452553 0.581691 0
M  V30 13836 H 1392.96 -0.545455 1.82002 0
M  V30 13837 H 1391.11 -2.9089 2.57517 0
M  V30 13838 H 1392.78 -1.11971 4.47504 0
M  V30 13839 H 1391.03 -0.985496 4.22458 0
M  V30 13840 H 1391.7 -2.45148 4.94577 0
M  V30 13841 H 1394.17 -2.82464 3.05537 0
M  V30 13842 H 1393.05 -4.04004 3.71581 0
M  V30 13843 H 1393.31 -3.95234 1.98097 0
M  V30 13844 N 1392.37 -1.38898 -0.744656 0
M  V30 13845 C 1393.28 -1.39098 -1.88915 0
M  V30 13846 C 1394.3 -0.286956 -1.71617 0
M  V30 13847 O 1395.47 -0.526852 -1.94387 0
M  V30 13848 C 1392.54 -1.22352 -3.24393 0
M  V30 13849 C 1391.6 -2.4264 -3.54153 0
M  V30 13850 C 1390.83 -2.26683 -4.83167 0
M  V30 13851 O 1391.05 -1.26523 -5.56191 0
M  V30 13852 O 1389.99 -3.15464 -5.12607 0
M  V30 13853 H 1393.81 -2.35551 -1.91701 0
M  V30 13854 H 1391.4 -1.19911 -0.891158 0
M  V30 13855 H 1393.28 -1.15109 -4.05374 0
M  V30 13856 H 1391.96 -0.289886 -3.22399 0
M  V30 13857 H 1390.86 -2.55459 -2.73298 0
M  V30 13858 H 1392.2 -3.34664 -3.60917 0
M  V30 13859 N 1393.85 0.973806 -1.23914 0
M  V30 13860 C 1395.1 1.71027 -1.06923 0
M  V30 13861 C 1395.41 1.91612 0.392947 0
M  V30 13862 O 1396.62 2.62771 0.682927 0
M  V30 13863 C 1395.07 3.07811 -1.86496 0
M  V30 13864 C 1394.68 2.9509 -3.37085 0
M  V30 13865 C 1396.42 3.85371 -1.78015 0
M  V30 13866 C 1394.33 4.27145 -4.09024 0
M  V30 13867 H 1393.26 0.641329 -0.396501 0
M  V30 13868 H 1395.91 1.08562 -1.47941 0
M  V30 13869 H 1394.29 3.71069 -1.38288 0
M  V30 13870 H 1395.47 2.4088 -3.92827 0
M  V30 13871 H 1393.78 2.30999 -3.46451 0
M  V30 13872 H 1396.38 4.83147 -2.2907 0
M  V30 13873 H 1396.72 4.09594 -0.744196 0
M  V30 13874 H 1397.26 3.28827 -2.23869 0
M  V30 13875 H 1394 4.08117 -5.12953 0
M  V30 13876 H 1393.52 4.81194 -3.58068 0
M  V30 13877 H 1395.19 4.95798 -4.15685 0
M  V30 13878 N 1395.33 1.05191 1.17357 0
M  V30 13879 C 1396.57 0.772902 1.88143 0
M  V30 13880 C 1396.93 -0.692542 1.79504 0
M  V30 13881 O 1396.22 -1.49992 1.19219 0
M  V30 13882 C 1396.41 1.18779 3.37085 0
M  V30 13883 C 1396.24 2.69203 3.60222 0
M  V30 13884 C 1395.01 3.36512 3.76945 0
M  V30 13885 C 1397.21 3.67423 3.59867 0
M  V30 13886 N 1395.19 4.758 3.87927 0
M  V30 13887 C 1396.56 4.92441 3.76699 0
M  V30 13888 C 1398.62 3.60893 3.43017 0
M  V30 13889 C 1397.32 6.11709 3.78425 0
M  V30 13890 C 1399.35 4.796 3.46031 0
M  V30 13891 C 1398.71 6.03441 3.63371 0
M  V30 13892 H 1394.81 0.335055 0.706585 0
M  V30 13893 H 1397.39 1.34385 1.40886 0
M  V30 13894 H 1395.56 0.644801 3.8301 0
M  V30 13895 H 1397.3 0.85862 3.95487 0
M  V30 13896 H 1394.05 2.86913 3.768 0
M  V30 13897 H 1394.48 5.48225 3.97213 0
M  V30 13898 H 1399.12 2.66112 3.28548 0
M  V30 13899 H 1396.84 7.06833 3.91679 0
M  V30 13900 H 1400.42 4.762 3.34252 0
M  V30 13901 H 1399.3 6.93759 3.65607 0
M  V30 13902 N 1396.8 -1.33791 0.83293 0
M  V30 13903 C 1397.75 -2.26795 0.234069 0
M  V30 13904 C 1398.74 -1.48991 -0.60749 0
M  V30 13905 O 1399.93 -1.70907 -0.46043 0
M  V30 13906 C 1397.06 -3.38107 -0.594863 0
M  V30 13907 C 1396.15 -4.23315 0.257877 0
M  V30 13908 N 1396.54 -4.87899 1.33373 0
M  V30 13909 C 1394.83 -4.45978 0.0438997 0
M  V30 13910 C 1395.54 -5.51278 1.85655 0
M  V30 13911 N 1394.51 -5.31103 1.15892 0
M  V30 13912 H 1398.31 -2.7424 1.05688 0
M  V30 13913 H 1395.83 -1.47627 0.676767 0
M  V30 13914 H 1397.82 -4.03716 -1.04014 0
M  V30 13915 H 1396.48 -2.92212 -1.41571 0
M  V30 13916 H 1397.5 -4.88624 1.71659 0
M  V30 13917 H 1394.17 -4.10818 -0.743985 0
M  V30 13918 H 1395.56 -6.12723 2.75717 0
M  V30 13919 N 1398.28 -0.588812 -1.46187 0
M  V30 13920 C 1399.53 -0.0765765 -2.01955 0
M  V30 13921 C 1399.85 1.29034 -1.46203 0
M  V30 13922 O 1399.12 1.84836 -0.649044 0
M  V30 13923 H 1397.7 -0.025318 -0.746571 0
M  V30 13924 H 1400.36 -0.765971 -1.79217 0
M  V30 13925 H 1399.46 -0.0121702 -3.12098 0
M  V30 13926 N 1399.76 1.54172 -0.326923 0
M  V30 13927 C 1401.01 2.00233 0.274098 0
M  V30 13928 C 1401.33 1.21665 1.5239 0
M  V30 13929 O 1400.6 0.319359 1.93279 0
M  V30 13930 H 1399.18 0.739687 0.104271 0
M  V30 13931 H 1401.84 1.8977 -0.444244 0
M  V30 13932 H 1400.94 3.07599 0.528154 0
M  V30 13933 N 1401.24 0.0551678 1.57503 0
M  V30 13934 C 1402.46 -0.630692 1.97578 0
M  V30 13935 C 1402.89 -1.63348 0.932686 0
M  V30 13936 O 1402.25 -1.81004 -0.103632 0
M  V30 13937 C 1402.29 -1.29049 3.36718 0
M  V30 13938 O 1401.4 -2.40621 3.34926 0
M  V30 13939 H 1400.74 -0.163625 0.643524 0
M  V30 13940 H 1403.27 0.124753 2.04219 0
M  V30 13941 H 1403.28 -1.64124 3.73534 0
M  V30 13942 H 1401.95 -0.55559 4.12172 0
M  V30 13943 H 1400.53 -2.07463 3.0986 0
M  V30 13944 N 1402.72 -1.56081 -0.218252 0
M  V30 13945 C 1403.96 -1.80421 -0.939135 0
M  V30 13946 C 1404.32 -0.628671 -1.81839 0
M  V30 13947 O 1403.61 0.377148 -1.87851 0
M  V30 13948 C 1403.8 -3.08199 -1.80965 0
M  V30 13949 C 1403.63 -4.38069 -1.01616 0
M  V30 13950 C 1402.4 -5.0029 -0.709772 0
M  V30 13951 C 1404.6 -5.12895 -0.379884 0
M  V30 13952 N 1402.58 -6.13811 0.104778 0
M  V30 13953 C 1403.95 -6.19284 0.29791 0
M  V30 13954 C 1406.01 -4.97036 -0.29325 0
M  V30 13955 C 1404.71 -7.11535 1.05405 0
M  V30 13956 C 1406.74 -5.8969 0.449435 0
M  V30 13957 C 1406.1 -6.95507 1.11576 0
M  V30 13958 H 1402.2 -0.711808 -0.32381 0
M  V30 13959 H 1404.78 -1.93567 -0.209735 0
M  V30 13960 H 1402.95 -2.9633 -2.51084 0
M  V30 13961 H 1404.69 -3.20717 -2.46826 0
M  V30 13962 H 1401.44 -4.62295 -1.0286 0
M  V30 13963 H 1401.87 -6.75144 0.500985 0
M  V30 13964 H 1406.51 -4.15276 -0.794059 0
M  V30 13965 H 1404.23 -7.92774 1.56637 0
M  V30 13966 H 1407.81 -5.79494 0.517515 0
M  V30 13967 H 1406.69 -7.65966 1.68126 0
M  V30 13968 N 1404.2 0.485086 -1.49949 0
M  V30 13969 C 1405.44 1.23571 -1.5992 0
M  V30 13970 C 1405.76 1.92754 -0.295108 0
M  V30 13971 O 1405.03 1.83474 0.686582 0
M  V30 13972 H 1403.61 0.459104 -0.589264 0
M  V30 13973 H 1406.28 0.560822 -1.86657 0
M  V30 13974 H 1405.37 1.99114 -2.40333 0
M  V30 13975 N 1405.67 1.39291 0.737279 0
M  V30 13976 C 1406.9 1.39659 1.52653 0
M  V30 13977 C 1407.32 -0.00948259 1.88798 0
M  V30 13978 O 1406.67 -0.980249 1.53939 0
M  V30 13979 C 1406.72 2.2674 2.81552 0
M  V30 13980 O 1406.45 3.61871 2.46943 0
M  V30 13981 C 1407.95 2.35466 3.75594 0
M  V30 13982 H 1405.17 0.477108 0.471814 0
M  V30 13983 H 1407.71 1.83077 0.911205 0
M  V30 13984 H 1405.87 1.86741 3.39421 0
M  V30 13985 H 1406.28 4.07897 3.29728 0
M  V30 13986 H 1407.75 3.00649 4.62941 0
M  V30 13987 H 1408.23 1.37314 4.17183 0
M  V30 13988 H 1408.84 2.75925 3.23644 0
M  V30 13989 N 1407.15 -0.967221 1.24429 0
M  V30 13990 C 1408.4 -1.71279 1.08588 0
M  V30 13991 C 1408.73 -1.90558 -0.374325 0
M  V30 13992 O 1408.01 -1.46742 -1.27659 0
M  V30 13993 C 1408.29 -3.10326 1.82674 0
M  V30 13994 C 1408.14 -2.98535 3.36447 0
M  V30 13995 C 1409.46 -4.09993 1.59981 0
M  V30 13996 H 1406.58 -0.621658 0.395867 0
M  V30 13997 H 1409.22 -1.12514 1.53103 0
M  V30 13998 H 1407.37 -3.60492 1.44836 0
M  V30 13999 H 1409.04 -2.55791 3.83886 0
M  V30 14000 H 1407.29 -2.34736 3.64803 0
M  V30 14001 H 1407.96 -3.97041 3.83487 0
M  V30 14002 H 1410.43 -3.68687 1.92897 0
M  V30 14003 H 1409.31 -5.05349 2.14274 0
M  V30 14004 H 1409.57 -4.38812 0.538173 0
M  V30 14005 N 1408.63 -1.05812 -1.16797 0
M  V30 14006 C 1409.87 -0.781055 -1.88889 0
M  V30 14007 C 1410.23 0.679797 -1.79563 0
M  V30 14008 O 1411.43 1.07124 -2.46532 0
M  V30 14009 C 1409.71 -1.25598 -3.34604 0
M  V30 14010 S 1411.26 -1.10724 -4.24601 0
M  V30 14011 H 1408.08 -0.28347 -0.652047 0
M  V30 14012 H 1410.68 -1.35404 -1.41018 0
M  V30 14013 H 1409.39 -2.31421 -3.38928 0
M  V30 14014 H 1408.92 -0.677541 -3.87522 0
M  V30 14015 H 1410.93 -0.0351807 -4.96188 0
M  V30 14016 N 1410.11 1.33347 -0.840014 0
M  V30 14017 C 1411.38 1.92293 -0.358158 0
M  V30 14018 C 1411.76 1.76594 1.15662 0
M  V30 14019 O 1411.11 1.15503 1.97158 0
M  V30 14020 C 1411.32 3.39558 -0.806329 0
M  V30 14021 C 1412.67 4.16705 -0.81501 0
M  V30 14022 O 1413.69 3.48214 -0.75001 0
M  V30 14023 O 1412.55 5.38974 -0.903818 0
M  V30 14024 H 1409.65 0.820737 -0.101585 0
M  V30 14025 H 1412.19 1.42213 -0.925942 0
M  V30 14026 H 1410.97 3.44861 -1.84897 0
M  V30 14027 H 1410.59 3.97017 -0.215181 0
M  V30 14028 N 1411.59 0.596556 1.45873 0
M  V30 14029 C 1412.86 0.0199562 1.9559 0
M  V30 14030 C 1413.24 -1.44479 1.53912 0
M  V30 14031 O 1412.59 -2.14173 0.796384 0
M  V30 14032 C 1412.8 0.206497 3.48389 0
M  V30 14033 C 1414.15 0.0815298 4.24522 0
M  V30 14034 O 1415.17 0.136045 3.5594 0
M  V30 14035 O 1414.03 -0.0426117 5.46483 0
M  V30 14036 H 1411.13 -0.0419913 0.825933 0
M  V30 14037 H 1413.67 0.665846 1.56092 0
M  V30 14038 H 1412.44 1.22422 3.71656 0
M  V30 14039 H 1412.07 -0.475175 3.9475 0
M  V30 14040 N 1413.06 -1.53996 0.335095 0
M  V30 14041 C 1414.29 -2.05657 -0.268328 0
M  V30 14042 C 1414.71 -1.20897 -1.44102 0
M  V30 14043 O 1414.07 -0.220737 -1.79951 0
M  V30 14044 C 1414.12 -3.54331 -0.669481 0
M  V30 14045 O 1413.22 -3.7246 -1.77052 0
M  V30 14046 H 1412.56 -0.662386 -0.0462705 0
M  V30 14047 H 1415.09 -1.98723 0.486854 0
M  V30 14048 H 1415.1 -3.9681 -0.948971 0
M  V30 14049 H 1413.78 -4.15474 0.188168 0
M  V30 14050 H 1412.36 -3.41884 -1.48895 0
M  V30 14051 N 1414.54 -0.0635198 -1.57472 0
M  V30 14052 C 1415.79 0.602418 -1.94274 0
M  V30 14053 C 1416.14 1.67717 -0.942797 0
M  V30 14054 O 1415.44 1.91566 0.0361878 0
M  V30 14055 C 1415.63 1.23117 -3.35525 0
M  V30 14056 C 1415.46 0.218848 -4.49167 0
M  V30 14057 C 1414.23 -0.19356 -5.04929 0
M  V30 14058 C 1416.43 -0.540636 -5.1145 0
M  V30 14059 N 1414.41 -1.19745 -6.02108 0
M  V30 14060 C 1415.78 -1.39725 -6.0405 0
M  V30 14061 C 1417.83 -0.597606 -4.94301 0
M  V30 14062 C 1416.54 -2.30575 -6.81342 0
M  V30 14063 C 1418.56 -1.49358 -5.72229 0
M  V30 14064 C 1417.93 -2.33789 -6.64471 0
M  V30 14065 H 1414.02 0.191715 -0.758135 0
M  V30 14066 H 1416.61 -0.138733 -1.94205 0
M  V30 14067 H 1414.78 1.94229 -3.36348 0
M  V30 14068 H 1416.51 1.85691 -3.59584 0
M  V30 14069 H 1413.27 0.187897 -4.73227 0
M  V30 14070 H 1413.69 -1.69666 -6.55395 0
M  V30 14071 H 1418.33 0.0409459 -4.2278 0
M  V30 14072 H 1416.05 -2.9547 -7.52146 0
M  V30 14073 H 1419.64 -1.5424 -5.60983 0
M  V30 14074 H 1418.52 -3.01995 -7.23719 0
M  V30 14075 N 1416.02 1.56195 0.209972 0
M  V30 14076 C 1417.3 1.70553 0.957653 0
M  V30 14077 C 1417.68 0.614091 2.01971 0
M  V30 14078 O 1417.02 -0.377192 2.25365 0
M  V30 14079 C 1417.23 3.12314 1.55759 0
M  V30 14080 C 1418.58 3.72085 2.04543 0
M  V30 14081 O 1419.61 3.15349 1.65631 0
M  V30 14082 O 1418.47 4.71627 2.76099 0
M  V30 14083 H 1415.56 0.695077 0.448104 0
M  V30 14084 H 1418.11 1.68507 0.20084 0
M  V30 14085 H 1416.88 3.83215 0.791302 0
M  V30 14086 H 1416.5 3.18526 2.37964 0
M  V30 14087 N 1417.5 -0.477127 1.50204 0
M  V30 14088 C 1418.43 -1.58405 1.71552 0
M  V30 14089 C 1419.41 -1.60463 0.564413 0
M  V30 14090 O 1420.59 -1.76826 0.802893 0
M  V30 14091 C 1417.72 -2.96765 1.8041 0
M  V30 14092 C 1416.68 -3.09573 2.95548 0
M  V30 14093 C 1416 -4.49522 2.89542 0
M  V30 14094 C 1417.3 -2.87356 4.36147 0
M  V30 14095 H 1419 -1.40792 2.64231 0
M  V30 14096 H 1416.54 -0.675886 1.27153 0
M  V30 14097 H 1418.5 -3.74125 1.9393 0
M  V30 14098 H 1417.22 -3.1552 0.843489 0
M  V30 14099 H 1415.88 -2.34645 2.81669 0
M  V30 14100 H 1415.53 -4.65186 1.91339 0
M  V30 14101 H 1415.23 -4.59028 3.66834 0
M  V30 14102 H 1416.75 -5.28909 3.05102 0
M  V30 14103 H 1418.17 -3.54469 4.50583 0
M  V30 14104 H 1416.56 -3.08313 5.14843 0
M  V30 14105 H 1417.63 -1.83264 4.48935 0
M  V30 14106 N 1418.98 -1.3968 -0.729882 0
M  V30 14107 C 1420.25 -1.27689 -1.48172 0
M  V30 14108 C 1420.63 0.111239 -2.10807 0
M  V30 14109 O 1419.98 1.12289 -1.99006 0
M  V30 14110 C 1420.19 -2.40505 -2.529 0
M  V30 14111 C 1421.54 -2.80064 -3.19138 0
M  V30 14112 O 1422.56 -2.39992 -2.63215 0
M  V30 14113 O 1421.42 -3.49248 -4.20342 0
M  V30 14114 H 1418.52 -0.500674 -0.658221 0
M  V30 14115 H 1421.06 -1.51566 -0.763272 0
M  V30 14116 H 1419.83 -3.33282 -2.05033 0
M  V30 14117 H 1419.46 -2.1832 -3.32298 0
M  V30 14118 N 1420.45 0.960609 -1.2494 0
M  V30 14119 C 1421.73 1.68035 -1.00118 0
M  V30 14120 C 1422.11 2.057 0.474399 0
M  V30 14121 O 1421.46 1.76569 1.45036 0
M  V30 14122 C 1421.67 2.90708 -1.93106 0
M  V30 14123 C 1423.02 3.62792 -2.20606 0
M  V30 14124 O 1424.04 3.00778 -1.90816 0
M  V30 14125 O 1422.9 4.74443 -2.71231 0
M  V30 14126 H 1419.99 0.734939 -0.379202 0
M  V30 14127 H 1422.54 1.01407 -1.36069 0
M  V30 14128 H 1421.31 2.59619 -2.92769 0
M  V30 14129 H 1420.94 3.65068 -1.57515 0
M  V30 14130 N 1421.93 1.0643 1.16234 0
M  V30 14131 C 1422.9 0.680383 2.18869 0
M  V30 14132 C 1423.9 -0.274591 1.58438 0
M  V30 14133 O 1425.09 -0.0567907 1.74107 0
M  V30 14134 C 1422.22 0.00134091 3.409 0
M  V30 14135 H 1423.41 1.58894 2.54347 0
M  V30 14136 H 1420.96 0.859688 1.30534 0
M  V30 14137 H 1421.7 -0.919903 3.1098 0
M  V30 14138 H 1421.48 0.688057 3.86016 0
M  V30 14139 H 1422.97 -0.252938 4.16833 0
M  V30 14140 N 1423.41 -1.329 0.847073 0
M  V30 14141 C 1424.34 -2.27903 0.243522 0
M  V30 14142 C 1425.36 -1.52101 -0.58043 0
M  V30 14143 O 1426.54 -1.73818 -0.406158 0
M  V30 14144 C 1423.64 -3.32107 -0.675118 0
M  V30 14145 C 1422.82 -4.37258 0.111305 0
M  V30 14146 C 1421.88 -5.21085 -0.731933 0
M  V30 14147 O 1420.9 -5.68951 -0.168176 0
M  V30 14148 N 1422.1 -5.43175 -2.04794 0
M  V30 14149 H 1424.87 -2.80335 1.05983 0
M  V30 14150 H 1422.43 -1.4568 0.706322 0
M  V30 14151 H 1424.42 -3.85093 -1.2444 0
M  V30 14152 H 1422.99 -2.79891 -1.39212 0
M  V30 14153 H 1422.21 -3.8466 0.861991 0
M  V30 14154 H 1423.5 -5.04608 0.651756 0
M  V30 14155 H 1422.9 -5.06002 -2.5294 0
M  V30 14156 H 1421.46 -5.99186 -2.56552 0
M  V30 14157 N 1424.89 -0.604284 -1.45555 0
M  V30 14158 C 1426.13 -0.0983316 -2.02561 0
M  V30 14159 C 1426.47 1.26659 -1.47211 0
M  V30 14160 O 1425.74 1.83476 -0.645519 0
M  V30 14161 C 1426.03 -0.0558349 -3.60057 0
M  V30 14162 C 1425.88 -1.45119 -4.25747 0
M  V30 14163 C 1427.2 0.633708 -4.35514 0
M  V30 14164 H 1424.32 -0.0372071 -0.73606 0
M  V30 14165 H 1426.96 -0.775623 -1.73448 0
M  V30 14166 H 1425.11 0.520935 -3.84992 0
M  V30 14167 H 1426.78 -2.07478 -4.12008 0
M  V30 14168 H 1425.02 -2.01283 -3.84275 0
M  V30 14169 H 1425.69 -1.37372 -5.34633 0
M  V30 14170 H 1428.17 0.143501 -4.15852 0
M  V30 14171 H 1427.05 0.632538 -5.45243 0
M  V30 14172 H 1427.31 1.69917 -4.08143 0
M  V30 14173 N 1426.37 1.53816 -0.343257 0
M  V30 14174 C 1427.61 2.01207 0.253721 0
M  V30 14175 C 1427.95 1.23069 1.50225 0
M  V30 14176 O 1427.22 0.31824 1.91879 0
M  V30 14177 C 1427.5 3.5559 0.56815 0
M  V30 14178 C 1427.36 4.44438 -0.692457 0
M  V30 14179 C 1428.68 4.17974 1.37788 0
M  V30 14180 H 1425.79 0.731392 0.0907427 0
M  V30 14181 H 1428.44 1.84254 -0.463736 0
M  V30 14182 H 1426.59 3.70166 1.17937 0
M  V30 14183 H 1428.26 4.41698 -1.33042 0
M  V30 14184 H 1426.5 4.13312 -1.3174 0
M  V30 14185 H 1427.17 5.5034 -0.427715 0
M  V30 14186 H 1429.65 4.07094 0.861043 0
M  V30 14187 H 1428.52 5.26068 1.56663 0
M  V30 14188 H 1428.79 3.72577 2.3799 0
M  V30 14189 N 1427.84 0.0718701 1.57436 0
M  V30 14190 C 1429.08 -0.600882 1.95368 0
M  V30 14191 C 1429.45 -1.66772 0.951368 0
M  V30 14192 O 1430.65 -2.39603 1.21835 0
M  V30 14193 C 1428.92 -1.1628 3.37955 0
M  V30 14194 S 1430.48 -1.85067 3.97864 0
M  V30 14195 H 1427.3 -0.196749 0.683235 0
M  V30 14196 H 1429.9 0.145744 1.94956 0
M  V30 14197 H 1428.6 -0.374507 4.08688 0
M  V30 14198 H 1428.13 -1.94578 3.41911 0
M  V30 14199 H 1430.15 -3.1331 3.84774 0
M  V30 14200 N 1429.32 -1.56304 -0.201686 0
M  V30 14201 C 1430.25 -1.90538 -1.27389 0
M  V30 14202 C 1431.27 -0.795422 -1.42045 0
M  V30 14203 O 1432.46 -1.07381 -1.42589 0
M  V30 14204 C 1429.56 -2.11638 -2.64694 0
M  V30 14205 C 1428.73 -3.42755 -2.71731 0
M  V30 14206 C 1427.79 -3.53047 -3.90185 0
M  V30 14207 O 1426.81 -4.25923 -3.77595 0
M  V30 14208 N 1428.02 -2.85649 -5.05356 0
M  V30 14209 H 1430.78 -2.83106 -0.983411 0
M  V30 14210 H 1428.34 -1.57092 -0.391638 0
M  V30 14211 H 1430.33 -2.15818 -3.42352 0
M  V30 14212 H 1428.9 -1.256 -2.86258 0
M  V30 14213 H 1428.12 -3.50501 -1.80397 0
M  V30 14214 H 1429.41 -4.29092 -2.73418 0
M  V30 14215 H 1428.81 -2.26256 -5.18483 0
M  V30 14216 H 1427.37 -2.95465 -5.80985 0
M  V30 14217 N 1430.8 0.469154 -1.50455 0
M  V30 14218 C 1431.73 1.58443 -1.65615 0
M  V30 14219 C 1432.75 1.53668 -0.537584 0
M  V30 14220 O 1433.93 1.59021 -0.810832 0
M  V30 14221 C 1431.03 2.97327 -1.62634 0
M  V30 14222 C 1430.21 3.2695 -2.90555 0
M  V30 14223 C 1429.27 4.45398 -2.80191 0
M  V30 14224 O 1428.29 4.45611 -3.54146 0
M  V30 14225 N 1429.49 5.47167 -1.93878 0
M  V30 14226 H 1432.26 1.45854 -2.61814 0
M  V30 14227 H 1429.82 0.657604 -1.47943 0
M  V30 14228 H 1431.81 3.74537 -1.53311 0
M  V30 14229 H 1430.38 3.03675 -0.741624 0
M  V30 14230 H 1429.6 2.38335 -3.13991 0
M  V30 14231 H 1430.89 3.43554 -3.75297 0
M  V30 14232 H 1430.29 5.49817 -1.33109 0
M  V30 14233 H 1428.85 6.23353 -1.90457 0
M  V30 14234 N 1432.28 1.40065 0.722464 0
M  V30 14235 C 1433.21 1.42532 1.84951 0
M  V30 14236 C 1434.19 0.287082 1.6766 0
M  V30 14237 O 1435.37 0.494715 1.87793 0
M  V30 14238 C 1432.5 1.28041 3.22836 0
M  V30 14239 C 1431.46 2.39396 3.54787 0
M  V30 14240 C 1430.78 2.09986 4.91742 0
M  V30 14241 C 1432.08 3.81729 3.56483 0
M  V30 14242 H 1433.78 2.36851 1.83144 0
M  V30 14243 H 1431.32 1.14005 0.879714 0
M  V30 14244 H 1433.28 1.28385 4.01367 0
M  V30 14245 H 1432 0.301947 3.25201 0
M  V30 14246 H 1430.66 2.3829 2.78592 0
M  V30 14247 H 1430.31 1.10547 4.90702 0
M  V30 14248 H 1430.01 2.84586 5.14086 0
M  V30 14249 H 1431.53 2.12 5.72615 0
M  V30 14250 H 1432.95 3.84696 4.25067 0
M  V30 14251 H 1431.34 4.55791 3.90351 0
M  V30 14252 H 1432.41 4.11807 2.56014 0
M  V30 14253 N 1433.76 -0.95397 1.25448 0
M  V30 14254 C 1435.01 -1.6953 1.10018 0
M  V30 14255 C 1435.33 -1.9166 -0.359385 0
M  V30 14256 O 1434.6 -1.50417 -1.25506 0
M  V30 14257 H 1433.18 -0.628238 0.404136 0
M  V30 14258 H 1435.84 -1.14691 1.57581 0
M  V30 14259 H 1434.93 -2.67427 1.60901 0
M  V30 14260 N 1435.24 -1.07045 -1.15668 0
M  V30 14261 C 1436.48 -0.801045 -1.8805 0
M  V30 14262 C 1436.84 0.660714 -1.80274 0
M  V30 14263 O 1438.04 1.04503 -2.47654 0
M  V30 14264 C 1436.31 -1.2914 -3.33253 0
M  V30 14265 S 1437.87 -1.15221 -4.23402 0
M  V30 14266 H 1434.69 -0.29037 -0.649004 0
M  V30 14267 H 1437.29 -1.36892 -1.39574 0
M  V30 14268 H 1435.99 -2.35003 -3.36455 0
M  V30 14269 H 1435.53 -0.718605 -3.86781 0
M  V30 14270 H 1437.54 -0.087806 -4.96122 0
M  V30 14271 N 1436.71 1.32449 -0.85411 0
M  V30 14272 C 1437.96 1.96881 -0.45632 0
M  V30 14273 C 1438.28 1.67926 0.991248 0
M  V30 14274 O 1437.55 0.986195 1.69266 0
M  V30 14275 H 1436.13 0.728378 -0.165752 0
M  V30 14276 H 1438.79 1.61542 -1.09042 0
M  V30 14277 H 1437.89 3.0626 -0.600927 0
M  V30 14278 N 1438.19 0.611994 1.45232 0
M  V30 14279 C 1439.6 0.193464 1.85695 0
M  V30 14280 C 1439.95 -1.25069 1.5117 0
M  V30 14281 O 1439.08 -1.94894 0.940497 0
M  V30 14282 C 1439.67 0.344334 3.37046 0
M  V30 14283 C 1438.23 -0.0195378 3.76395 0
M  V30 14284 C 1437.38 0.666714 2.69166 0
M  V30 14285 H 1440.33 0.818395 1.35971 0
M  V30 14286 H 1440.35 -0.422209 3.7815 0
M  V30 14287 H 1439.86 1.3955 3.62143 0
M  V30 14288 H 1437.96 -1.06971 3.56915 0
M  V30 14289 H 1438.08 0.377184 4.77613 0
M  V30 14290 H 1436.44 0.103912 2.54488 0
M  V30 14291 H 1437.22 1.7201 2.97099 0
M  V30 14292 N 1439.67 -1.53632 0.351409 0
M  V30 14293 C 1440.63 -2.23916 -0.489293 0
M  V30 14294 C 1441.63 -1.24207 -1.02124 0
M  V30 14295 O 1442.82 -1.48589 -0.909235 0
M  V30 14296 C 1439.95 -2.96492 -1.68242 0
M  V30 14297 H 1441.15 -2.99637 0.125518 0
M  V30 14298 H 1438.7 -1.55961 0.102874 0
M  V30 14299 H 1439.44 -2.24978 -2.33571 0
M  V30 14300 H 1439.22 -3.69637 -1.3081 0
M  V30 14301 H 1440.71 -3.49961 -2.27853 0
M  V30 14302 N 1441.15 -0.0802183 -1.57396 0
M  V30 14303 C 1442.08 0.881426 -2.16225 0
M  V30 14304 C 1443.06 1.30459 -1.09154 0
M  V30 14305 O 1444.24 1.37413 -1.37227 0
M  V30 14306 C 1441.37 2.14599 -2.73065 0
M  V30 14307 C 1440.33 1.86195 -3.85377 0
M  V30 14308 C 1439.65 3.19354 -4.28856 0
M  V30 14309 C 1440.95 1.16059 -5.09242 0
M  V30 14310 H 1442.65 0.391325 -2.96832 0
M  V30 14311 H 1440.19 0.186785 -1.42783 0
M  V30 14312 H 1442.15 2.82297 -3.12868 0
M  V30 14313 H 1440.87 2.65866 -1.89691 0
M  V30 14314 H 1439.53 1.209 -3.46091 0
M  V30 14315 H 1439.18 3.68479 -3.42392 0
M  V30 14316 H 1438.88 3.01137 -5.04569 0
M  V30 14317 H 1440.4 3.88235 -4.71281 0
M  V30 14318 H 1441.82 1.7384 -5.46308 0
M  V30 14319 H 1440.21 1.08072 -5.90288 0
M  V30 14320 H 1441.28 0.14098 -4.84695 0
M  V30 14321 N 1442.63 1.56409 0.193394 0
M  V30 14322 C 1443.57 1.94681 1.23968 0
M  V30 14323 C 1444.54 0.807634 1.45143 0
M  V30 14324 O 1445.73 1.06593 1.58248 0
M  V30 14325 C 1442.87 2.29306 2.57901 0
M  V30 14326 C 1441.98 3.56296 2.4429 0
M  V30 14327 C 1441.12 3.80235 3.70938 0
M  V30 14328 C 1440.15 5.00645 3.52167 0
M  V30 14329 N 1439.29 5.20829 4.70831 0
M  V30 14330 H 1444.13 2.83884 0.906298 0
M  V30 14331 H 1441.67 1.40486 0.436146 0
M  V30 14332 H 1443.63 2.47398 3.35932 0
M  V30 14333 H 1442.26 1.43241 2.89278 0
M  V30 14334 H 1441.31 3.46241 1.57547 0
M  V30 14335 H 1442.62 4.44483 2.26354 0
M  V30 14336 H 1441.77 3.98575 4.57408 0
M  V30 14337 H 1440.51 2.90381 3.91829 0
M  V30 14338 H 1439.52 4.82225 2.64081 0
M  V30 14339 H 1440.74 5.92009 3.32719 0
M  V30 14340 H 1438.69 4.33923 4.91983 0
M  V30 14341 H 1438.61 6.03199 4.55726 0
M  V30 14342 H 1439.87 5.4363 5.58648 0
M  V30 14343 N 1444.1 -0.461169 1.50702 0
M  V30 14344 C 1445.07 -1.54032 1.69725 0
M  V30 14345 C 1446.07 -1.50445 0.567707 0
M  V30 14346 O 1447.26 -1.52889 0.834901 0
M  V30 14347 C 1444.39 -2.93642 1.73168 0
M  V30 14348 H 1445.58 -1.38478 2.66015 0
M  V30 14349 H 1443.13 -0.688235 1.40332 0
M  V30 14350 H 1443.87 -3.14629 0.786078 0
M  V30 14351 H 1443.65 -2.97652 2.55236 0
M  V30 14352 H 1445.14 -3.71972 1.89807 0
M  V30 14353 N 1445.58 -1.40446 -0.715026 0
M  V30 14354 C 1446.83 -1.38754 -1.47491 0
M  V30 14355 C 1447.16 0.0099443 -1.94497 0
M  V30 14356 O 1446.41 0.99458 -1.68543 0
M  V30 14357 C 1446.71 -2.32392 -2.7153 0
M  V30 14358 C 1446.38 -3.79635 -2.43286 0
M  V30 14359 C 1445.04 -4.19751 -2.35293 0
M  V30 14360 C 1447.39 -4.72681 -2.19596 0
M  V30 14361 C 1444.72 -5.50947 -2.01679 0
M  V30 14362 C 1447.07 -6.04176 -1.87495 0
M  V30 14363 C 1445.73 -6.43333 -1.77985 0
M  V30 14364 H 1445 -0.507738 -0.539706 0
M  V30 14365 H 1447.65 -1.73104 -0.81898 0
M  V30 14366 H 1445.96 -1.91229 -3.41963 0
M  V30 14367 H 1447.65 -2.28366 -3.29621 0
M  V30 14368 H 1444.24 -3.47852 -2.50393 0
M  V30 14369 H 1448.43 -4.42506 -2.24727 0
M  V30 14370 H 1443.68 -5.80187 -1.92854 0
M  V30 14371 H 1447.86 -6.75788 -1.68179 0
M  V30 14372 H 1445.48 -7.44909 -1.51706 0
M  V30 14373 N 1447.06 0.947303 -1.25952 0
M  V30 14374 C 1448.01 2.04511 -1.06976 0
M  V30 14375 C 1448.98 1.66084 0.023347 0
M  V30 14376 O 1450.16 1.9032 -0.135247 0
M  V30 14377 C 1447.3 3.37878 -0.70232 0
M  V30 14378 C 1446.41 3.89379 -1.87105 0
M  V30 14379 C 1445.55 5.11104 -1.44728 0
M  V30 14380 C 1444.59 5.54852 -2.58469 0
M  V30 14381 N 1443.73 6.67784 -2.16817 0
M  V30 14382 H 1448.57 2.20075 -2.00925 0
M  V30 14383 H 1446.1 1.07837 -1.00048 0
M  V30 14384 H 1448.06 4.14542 -0.470199 0
M  V30 14385 H 1446.69 3.22179 0.20019 0
M  V30 14386 H 1445.74 3.09169 -2.21627 0
M  V30 14387 H 1447.05 4.17789 -2.72496 0
M  V30 14388 H 1446.21 5.95208 -1.17525 0
M  V30 14389 H 1444.95 4.84426 -0.564191 0
M  V30 14390 H 1443.95 4.69308 -2.86409 0
M  V30 14391 H 1445.18 5.83534 -3.47368 0
M  V30 14392 H 1443.12 6.428 -1.30934 0
M  V30 14393 H 1443.04 6.95749 -2.95753 0
M  V30 14394 H 1444.31 7.55278 -1.92809 0
M  V30 14395 N 1448.54 1.07657 1.15099 0
M  V30 14396 C 1449.45 0.711198 2.2356 0
M  V30 14397 C 1450.46 -0.278932 1.7175 0
M  V30 14398 O 1451.64 -0.124788 2.01013 0
M  V30 14399 C 1448.71 0.117855 3.465 0
M  V30 14400 C 1447.77 1.16162 4.13286 0
M  V30 14401 C 1447 0.596494 5.30356 0
M  V30 14402 O 1447.22 -0.586474 5.67377 0
M  V30 14403 O 1446.16 1.34288 5.86729 0
M  V30 14404 H 1449.98 1.61578 2.5715 0
M  V30 14405 H 1447.57 0.84973 1.22882 0
M  V30 14406 H 1449.45 -0.210613 4.20873 0
M  V30 14407 H 1448.12 -0.760008 3.14652 0
M  V30 14408 H 1447.03 1.54249 3.4082 0
M  V30 14409 H 1448.36 2.01149 4.49221 0
M  V30 14410 N 1450.02 -1.31994 0.861122 0
M  V30 14411 C 1450.98 -2.27019 0.315421 0
M  V30 14412 C 1451.98 -1.51864 -0.528575 0
M  V30 14413 O 1453.17 -1.70867 -0.339154 0
M  V30 14414 C 1450.3 -3.36384 -0.553021 0
M  V30 14415 H 1451.49 -2.768 1.1542 0
M  V30 14416 H 1449.05 -1.42776 0.635982 0
M  V30 14417 H 1449.78 -2.91882 -1.41335 0
M  V30 14418 H 1449.57 -3.92067 0.0511919 0
M  V30 14419 H 1451.06 -4.07172 -0.927392 0
M  V30 14420 N 1451.49 -0.619688 -1.44906 0
M  V30 14421 C 1452.4 0.0935512 -2.34413 0
M  V30 14422 C 1453.42 0.847738 -1.51952 0
M  V30 14423 O 1454.6 0.802591 -1.84717 0
M  V30 14424 C 1451.66 1.07047 -3.2976 0
M  V30 14425 C 1450.72 0.31691 -4.28129 0
M  V30 14426 C 1449.96 1.24729 -5.1892 0
M  V30 14427 O 1450.18 2.4856 -5.13395 0
M  V30 14428 O 1449.11 0.737799 -5.97361 0
M  V30 14429 H 1452.94 -0.642335 -2.96829 0
M  V30 14430 H 1450.52 -0.379908 -1.44489 0
M  V30 14431 H 1452.41 1.63281 -3.88481 0
M  V30 14432 H 1451.08 1.78717 -2.69893 0
M  V30 14433 H 1449.99 -0.288192 -3.72988 0
M  V30 14434 H 1451.32 -0.359539 -4.90885 0
M  V30 14435 N 1452.97 1.53444 -0.359552 0
M  V30 14436 C 1454.22 2.01166 0.232022 0
M  V30 14437 C 1454.55 1.24699 1.49266 0
M  V30 14438 O 1453.8 0.327164 1.92946 0
M  V30 14439 C 1454.1 3.5273 0.575863 0
M  V30 14440 C 1453.77 4.47027 -0.589746 0
M  V30 14441 C 1452.43 4.72525 -0.909587 0
M  V30 14442 C 1454.78 5.02846 -1.37095 0
M  V30 14443 C 1452.11 5.51096 -2.01271 0
M  V30 14444 C 1454.46 5.82622 -2.46444 0
M  V30 14445 C 1453.13 6.06409 -2.7897 0
M  V30 14446 H 1452.4 0.73612 0.084903 0
M  V30 14447 H 1455.04 1.85105 -0.490771 0
M  V30 14448 H 1453.35 3.66708 1.37959 0
M  V30 14449 H 1455.04 3.87125 1.04573 0
M  V30 14450 H 1451.63 4.27324 -0.330418 0
M  V30 14451 H 1455.82 4.83098 -1.1371 0
M  V30 14452 H 1451.07 5.67747 -2.26877 0
M  V30 14453 H 1455.25 6.24884 -3.07398 0
M  V30 14454 H 1452.88 6.67077 -3.64572 0
M  V30 14455 N 1454.45 0.0885642 1.57351 0
M  V30 14456 C 1455.7 -0.575536 1.93732 0
M  V30 14457 C 1456.02 -1.69126 0.970644 0
M  V30 14458 O 1455.29 -1.95888 0.0215907 0
M  V30 14459 H 1453.87 -0.215592 0.715213 0
M  V30 14460 H 1456.53 0.150362 1.94319 0
M  V30 14461 H 1455.63 -0.989979 2.95983 0
M  V30 14462 N 1455.93 -1.56509 -0.185096 0
M  V30 14463 C 1456.86 -1.91878 -1.25361 0
M  V30 14464 C 1457.87 -0.810443 -1.41194 0
M  V30 14465 O 1459.06 -1.08887 -1.41442 0
M  V30 14466 C 1456.16 -2.14433 -2.62434 0
M  V30 14467 C 1455.34 -3.45618 -2.6808 0
M  V30 14468 C 1454.39 -3.57165 -3.86419 0
M  V30 14469 O 1453.42 -4.29904 -3.73056 0
M  V30 14470 N 1454.62 -2.90993 -5.02298 0
M  V30 14471 H 1457.39 -2.84133 -0.953328 0
M  V30 14472 H 1454.95 -1.57498 -0.374955 0
M  V30 14473 H 1456.94 -2.19437 -3.40044 0
M  V30 14474 H 1455.51 -1.28629 -2.84909 0
M  V30 14475 H 1454.73 -3.52394 -1.76669 0
M  V30 14476 H 1456.02 -4.31968 -2.68851 0
M  V30 14477 H 1455.42 -2.31743 -5.16054 0
M  V30 14478 H 1453.97 -3.01611 -5.77819 0
M  V30 14479 N 1457.41 0.45317 -1.50944 0
M  V30 14480 C 1458.65 1.20151 -1.62506 0
M  V30 14481 C 1458.98 1.92085 -0.335927 0
M  V30 14482 O 1458.25 1.84889 0.64751 0
M  V30 14483 H 1456.83 0.446502 -0.59887 0
M  V30 14484 H 1459.49 0.521103 -1.87804 0
M  V30 14485 H 1458.58 1.93972 -2.44502 0
M  V30 14486 N 1458.88 1.40823 0.707568 0
M  V30 14487 C 1460.11 1.42866 1.49656 0
M  V30 14488 C 1460.53 0.0305663 1.88775 0
M  V30 14489 O 1459.88 -0.947376 1.55984 0
M  V30 14490 C 1459.94 2.32661 2.76679 0
M  V30 14491 O 1459.66 3.67028 2.39211 0
M  V30 14492 C 1461.16 2.4338 3.70514 0
M  V30 14493 H 1458.38 0.487009 0.461588 0
M  V30 14494 H 1460.92 1.84969 0.872167 0
M  V30 14495 H 1459.08 1.93898 3.35384 0
M  V30 14496 H 1459.49 4.14799 3.21002 0
M  V30 14497 H 1460.96 3.10401 4.56459 0
M  V30 14498 H 1461.44 1.46132 4.14176 0
M  V30 14499 H 1462.05 2.82728 3.17718 0
M  V30 14500 N 1460.36 -0.94061 1.26453 0
M  V30 14501 C 1461.61 -1.68354 1.11809 0
M  V30 14502 C 1461.93 -1.9203 -0.339037 0
M  V30 14503 O 1461.2 -1.51739 -1.23903 0
M  V30 14504 H 1459.78 -0.623916 0.410777 0
M  V30 14505 H 1462.44 -1.13014 1.58789 0
M  V30 14506 H 1461.54 -2.65706 1.63728 0
M  V30 14507 N 1461.84 -1.08266 -1.14527 0
M  V30 14508 C 1463.25 -0.832702 -1.67102 0
M  V30 14509 C 1463.6 0.640776 -1.85441 0
M  V30 14510 O 1462.73 1.49505 -1.56452 0
M  V30 14511 C 1463.32 -1.50502 -3.03537 0
M  V30 14512 C 1461.88 -1.30234 -3.53152 0
M  V30 14513 C 1461.03 -1.56873 -2.28661 0
M  V30 14514 H 1463.98 -1.24344 -0.986118 0
M  V30 14515 H 1464 -0.931426 -3.68924 0
M  V30 14516 H 1463.51 -2.57741 -2.90157 0
M  V30 14517 H 1461.61 -0.250582 -3.71756 0
M  V30 14518 H 1461.73 -2.02898 -4.34015 0
M  V30 14519 H 1460.09 -0.990214 -2.34663 0
M  V30 14520 H 1460.87 -2.65316 -2.17859 0
M  V30 14521 N 1463.32 1.31536 -0.86811 0
M  V30 14522 C 1464.57 1.96045 -0.474271 0
M  V30 14523 C 1464.88 1.6939 0.978071 0
M  V30 14524 O 1466.09 2.27746 1.47797 0
M  V30 14525 C 1464.54 3.5096 -0.797203 0
M  V30 14526 C 1464.15 3.86456 -2.26618 0
M  V30 14527 C 1465.9 4.21871 -0.471745 0
M  V30 14528 C 1463.8 5.34474 -2.53162 0
M  V30 14529 H 1462.73 0.733737 -0.173627 0
M  V30 14530 H 1465.38 1.49734 -1.06076 0
M  V30 14531 H 1463.77 3.95752 -0.139994 0
M  V30 14532 H 1464.94 3.52629 -2.9663 0
M  V30 14533 H 1463.25 3.28605 -2.55749 0
M  V30 14534 H 1465.85 5.30767 -0.647317 0
M  V30 14535 H 1466.19 4.12131 0.58768 0
M  V30 14536 H 1466.73 3.82706 -1.08542 0
M  V30 14537 H 1463.47 5.49248 -3.57781 0
M  V30 14538 H 1462.99 5.6966 -1.87743 0
M  V30 14539 H 1464.67 6.01716 -2.37797 0
M  V30 14540 N 1464.8 0.627364 1.44575 0
M  V30 14541 C 1466.04 0.139049 2.02924 0
M  V30 14542 C 1466.4 -1.22408 1.48439 0
M  V30 14543 O 1465.69 -1.7997 0.657374 0
M  V30 14544 C 1465.89 0.0622409 3.57346 0
M  V30 14545 C 1465.71 1.41638 4.26812 0
M  V30 14546 C 1464.48 2.00219 4.6394 0
M  V30 14547 C 1466.68 2.34942 4.57501 0
M  V30 14548 N 1464.66 3.28907 5.18356 0
M  V30 14549 C 1466.04 3.48242 5.1296 0
M  V30 14550 C 1468.09 2.34068 4.3945 0
M  V30 14551 C 1466.79 4.60859 5.52269 0
M  V30 14552 C 1468.82 3.45746 4.79806 0
M  V30 14553 C 1468.18 4.5777 5.35375 0
M  V30 14554 H 1464.28 0.094714 0.776243 0
M  V30 14555 H 1466.86 0.830037 1.76121 0
M  V30 14556 H 1465.04 -0.598017 3.83769 0
M  V30 14557 H 1466.77 -0.434554 4.0236 0
M  V30 14558 H 1463.52 1.53205 4.48135 0
M  V30 14559 H 1463.95 3.94691 5.50044 0
M  V30 14560 H 1468.59 1.4871 3.95784 0
M  V30 14561 H 1466.31 5.46927 5.94892 0
M  V30 14562 H 1469.89 3.46241 4.67556 0
M  V30 14563 H 1468.77 5.42757 5.66025 0
M  V30 14564 N 1466.28 -1.53251 0.367684 0
M  V30 14565 C 1467.21 -2.28728 -0.469676 0
M  V30 14566 C 1468.19 -1.3124 -1.08213 0
M  V30 14567 O 1469.37 -1.60112 -1.09898 0
M  V30 14568 C 1466.5 -3.07808 -1.60846 0
M  V30 14569 C 1465.46 -4.13 -1.12315 0
M  V30 14570 C 1464.78 -4.80176 -2.35234 0
M  V30 14571 C 1466.08 -5.21892 -0.2064 0
M  V30 14572 H 1467.78 -2.98972 0.160019 0
M  V30 14573 H 1465.32 -1.43786 0.0784011 0
M  V30 14574 H 1467.27 -3.59358 -2.20091 0
M  V30 14575 H 1466 -2.35258 -2.26542 0
M  V30 14576 H 1464.66 -3.62399 -0.553378 0
M  V30 14577 H 1464.31 -4.04196 -2.99391 0
M  V30 14578 H 1464.01 -5.51261 -2.03433 0
M  V30 14579 H 1465.53 -5.34521 -2.9516 0
M  V30 14580 H 1466.94 -5.68932 -0.706386 0
M  V30 14581 H 1465.34 -6.00096 0.0208362 0
M  V30 14582 H 1466.41 -4.79051 0.750851 0
M  V30 14583 N 1467.75 -0.0969077 -1.57302 0
M  V30 14584 C 1468.7 0.878876 -2.15357 0
M  V30 14585 C 1469.7 1.29091 -1.0969 0
M  V30 14586 O 1470.9 1.26523 -1.28031 0
M  V30 14587 H 1467.28 0.301458 -0.688932 0
M  V30 14588 H 1469.25 0.364542 -2.96165 0
M  V30 14589 C 1468 2.12761 -2.75006 0
M  V30 14590 H 1467.32 1.81944 -3.56 0
M  V30 14591 H 1468.76 2.79092 -3.19193 0
M  V30 14592 C 1467.22 2.90283 -1.70989 0
M  V30 14593 O 1467.75 3.84889 -1.14992 0
M  V30 14594 N 1465.95 2.53857 -1.41439 0
M  V30 14595 H 1465.5 1.76993 -1.87166 0
M  V30 14596 H 1465.46 3.06025 -0.720816 0
M  V30 14597 N 1469.23 1.56605 0.176793 0
M  V30 14598 C 1470.14 1.99211 1.23903 0
M  V30 14599 C 1471.16 0.902614 1.48758 0
M  V30 14600 O 1472.33 1.20982 1.61014 0
M  V30 14601 C 1469.4 2.33873 2.55938 0
M  V30 14602 C 1468.46 3.56624 2.38994 0
M  V30 14603 C 1467.69 3.89623 3.64733 0
M  V30 14604 O 1467.92 3.23662 4.6968 0
M  V30 14605 O 1466.85 4.82992 3.5917 0
M  V30 14606 H 1470.68 2.89827 0.907398 0
M  V30 14607 H 1468.26 1.44401 0.383234 0
M  V30 14608 H 1470.14 2.57161 3.33836 0
M  V30 14609 H 1468.82 1.46421 2.88691 0
M  V30 14610 H 1467.72 3.38561 1.59146 0
M  V30 14611 H 1469.06 4.446 2.11167 0
M  V30 14612 N 1470.71 -0.445159 1.51182 0
M  V30 14613 C 1471.96 -1.19701 1.63705 0
M  V30 14614 C 1472.29 -1.91047 0.348511 0
M  V30 14615 O 1471.56 -1.83264 -0.651497 0
M  V30 14616 C 1471.85 -2.22021 2.83511 0
M  V30 14617 C 1471.7 -1.54809 4.2232 0
M  V30 14618 C 1473.02 -3.23083 2.9884 0
M  V30 14619 H 1470.14 -0.433818 0.595795 0
M  V30 14620 H 1472.78 -0.487276 1.83645 0
M  V30 14621 H 1470.93 -2.82551 2.66641 0
M  V30 14622 H 1472.6 -0.976774 4.5084 0
M  V30 14623 H 1470.84 -0.850596 4.25379 0
M  V30 14624 H 1471.52 -2.29289 5.02126 0
M  V30 14625 H 1473.99 -2.72601 3.14369 0
M  V30 14626 H 1472.87 -3.91978 3.84246 0
M  V30 14627 H 1473.13 -3.88732 2.1057 0
M  V30 14628 N 1472.19 -1.41197 -0.700089 0
M  V30 14629 C 1473.13 -1.42688 -1.81407 0
M  V30 14630 C 1474.1 -0.28182 -1.63692 0
M  V30 14631 O 1475.29 -0.482196 -1.84606 0
M  V30 14632 C 1472.43 -1.31041 -3.19252 0
M  V30 14633 C 1471.54 -2.5538 -3.48432 0
M  V30 14634 C 1470.68 -2.3606 -4.75867 0
M  V30 14635 C 1469.72 -3.55898 -4.97999 0
M  V30 14636 N 1468.85 -3.35676 -6.16657 0
M  V30 14637 H 1473.69 -2.37898 -1.79467 0
M  V30 14638 H 1471.23 -1.18137 -0.87647 0
M  V30 14639 H 1473.19 -1.22292 -3.98874 0
M  V30 14640 H 1471.82 -0.394422 -3.20381 0
M  V30 14641 H 1470.87 -2.74598 -2.6325 0
M  V30 14642 H 1472.18 -3.44535 -3.6069 0
M  V30 14643 H 1471.34 -2.24752 -5.63535 0
M  V30 14644 H 1470.08 -1.44355 -4.65846 0
M  V30 14645 H 1469.08 -3.67665 -4.08781 0
M  V30 14646 H 1470.31 -4.4855 -5.09882 0
M  V30 14647 H 1468.25 -2.46667 -6.07858 0
M  V30 14648 H 1468.17 -4.18404 -6.29662 0
M  V30 14649 H 1469.44 -3.28132 -7.07071 0
M  V30 14650 N 1473.67 0.933891 -1.2695 0
M  V30 14651 C 1474.91 1.69554 -1.14153 0
M  V30 14652 C 1475.27 1.89503 0.308639 0
M  V30 14653 O 1476.47 2.62925 0.558894 0
M  V30 14654 C 1474.74 3.02894 -1.8971 0
M  V30 14655 S 1476.3 3.94051 -1.93053 0
M  V30 14656 H 1473.12 0.582546 -0.407629 0
M  V30 14657 H 1475.72 1.11233 -1.60772 0
M  V30 14658 H 1474.42 2.86061 -2.94274 0
M  V30 14659 H 1473.96 3.6627 -1.43561 0
M  V30 14660 H 1475.97 4.85551 -1.02249 0
M  V30 14661 N 1475.14 1.08871 1.13951 0
M  V30 14662 C 1476.09 0.722966 2.19184 0
M  V30 14663 C 1477.06 -0.293108 1.63493 0
M  V30 14664 O 1478.25 -0.176036 1.89986 0
M  V30 14665 C 1475.39 0.143542 3.44801 0
M  V30 14666 C 1474.5 1.21297 4.14622 0
M  V30 14667 C 1473.63 0.596902 5.27836 0
M  V30 14668 C 1472.67 1.64803 5.89497 0
M  V30 14669 N 1471.81 1.05341 6.94152 0
M  V30 14670 H 1476.65 1.62464 2.49819 0
M  V30 14671 H 1474.19 0.811803 1.22671 0
M  V30 14672 H 1476.14 -0.210153 4.1667 0
M  V30 14673 H 1474.77 -0.721426 3.14635 0
M  V30 14674 H 1473.83 1.68403 3.41093 0
M  V30 14675 H 1475.14 2.00931 4.56539 0
M  V30 14676 H 1474.29 0.191724 6.06397 0
M  V30 14677 H 1473.03 -0.231052 4.87152 0
M  V30 14678 H 1472.04 2.06282 5.09635 0
M  V30 14679 H 1473.26 2.47855 6.32254 0
M  V30 14680 H 1471.21 0.24664 6.55536 0
M  V30 14681 H 1471.12 1.7868 7.34581 0
M  V30 14682 H 1472.39 0.674253 7.76578 0
M  V30 14683 N 1476.62 -1.31073 0.875073 0
M  V30 14684 C 1477.87 -1.9613 0.487584 0
M  V30 14685 C 1478.19 -1.69482 -0.964407 0
M  V30 14686 O 1477.46 -1.013 -1.67676 0
M  V30 14687 H 1476.04 -0.725649 0.177319 0
M  V30 14688 H 1478.7 -1.59787 1.11598 0
M  V30 14689 H 1477.8 -3.05265 0.649574 0
M  V30 14690 N 1478.1 -0.635022 -1.4424 0
M  V30 14691 C 1479.05 0.0797218 -2.32463 0
M  V30 14692 C 1480.04 0.831818 -1.47571 0
M  V30 14693 O 1481.25 0.744277 -1.63892 0
M  V30 14694 H 1477.62 0.0445532 -0.750679 0
M  V30 14695 H 1479.59 -0.682374 -2.90493 0
M  V30 14696 C 1478.34 1.04505 -3.31623 0
M  V30 14697 H 1477.67 0.475755 -3.96959 0
M  V30 14698 H 1479.11 1.51458 -3.96026 0
M  V30 14699 C 1477.57 2.13221 -2.60842 0
M  V30 14700 O 1478.1 3.21357 -2.41025 0
M  V30 14701 N 1476.3 1.89264 -2.20516 0
M  V30 14702 H 1475.85 1.01329 -2.36834 0
M  V30 14703 H 1475.81 2.62203 -1.73484 0
M  V30 14704 N 1479.58 1.53054 -0.375806 0
M  V30 14705 C 1480.49 2.29772 0.47349 0
M  V30 14706 C 1481.5 1.36144 1.08355 0
M  V30 14707 O 1482.68 1.69208 1.09228 0
M  V30 14708 C 1479.75 3.07964 1.59245 0
M  V30 14709 C 1478.81 4.17277 1.00888 0
M  V30 14710 C 1478.04 4.91731 2.07451 0
M  V30 14711 O 1478.26 4.66143 3.28736 0
M  V30 14712 O 1477.2 5.77413 1.69936 0
M  V30 14713 H 1481.02 3.03324 -0.151105 0
M  V30 14714 H 1478.61 1.48744 -0.139895 0
M  V30 14715 H 1480.49 3.56759 2.24279 0
M  V30 14716 H 1479.16 2.37239 2.20226 0
M  V30 14717 H 1478.07 3.7271 0.322167 0
M  V30 14718 H 1479.4 4.90198 0.443483 0
M  V30 14719 N 1481.06 0.105248 1.57248 0
M  V30 14720 C 1482.28 -0.567515 1.99484 0
M  V30 14721 C 1482.71 -1.60298 0.984182 0
M  V30 14722 O 1482.06 -1.81242 -0.0459944 0
M  V30 14723 C 1482.11 -1.18271 3.40653 0
M  V30 14724 O 1481.22 -2.29843 3.42412 0
M  V30 14725 H 1480.56 -0.143069 0.648404 0
M  V30 14726 H 1483.09 0.189661 2.03719 0
M  V30 14727 H 1483.1 -1.52157 3.78566 0
M  V30 14728 H 1481.77 -0.424179 4.13731 0
M  V30 14729 H 1480.35 -1.975 3.16304 0
M  V30 14730 N 1482.53 -1.56697 -0.168486 0
M  V30 14731 C 1483.76 -1.86652 -0.904195 0
M  V30 14732 C 1484.18 -0.691906 -1.74912 0
M  V30 14733 O 1483.54 0.358971 -1.77711 0
M  V30 14734 C 1483.59 -3.15043 -1.75442 0
M  V30 14735 O 1482.69 -2.97466 -2.85636 0
M  V30 14736 H 1482.04 -0.613859 -0.253128 0
M  V30 14737 H 1484.57 -2.03927 -0.165773 0
M  V30 14738 H 1484.58 -3.4652 -2.15378 0
M  V30 14739 H 1483.25 -4.00147 -1.13381 0
M  V30 14740 H 1481.83 -2.7735 -2.49262 0
M  V30 14741 N 1484.01 0.437135 -1.51416 0
M  V30 14742 C 1484.94 1.538 -1.75692 0
M  V30 14743 C 1485.92 1.5891 -0.606759 0
M  V30 14744 O 1487.11 1.74635 -0.849492 0
M  V30 14745 C 1484.24 2.91877 -1.88215 0
M  V30 14746 C 1483.19 3.01628 -3.03652 0
M  V30 14747 C 1482.52 4.41687 -3.01358 0
M  V30 14748 C 1483.82 2.75691 -4.43612 0
M  V30 14749 H 1485.51 1.33737 -2.67871 0
M  V30 14750 H 1483.06 0.641936 -1.289 0
M  V30 14751 H 1485.01 3.68851 -2.03781 0
M  V30 14752 H 1483.74 3.13173 -0.926847 0
M  V30 14753 H 1482.39 2.27094 -2.87791 0
M  V30 14754 H 1482.04 4.5995 -2.03605 0
M  V30 14755 H 1481.74 4.49141 -3.78875 0
M  V30 14756 H 1483.27 5.20634 -3.19018 0
M  V30 14757 H 1484.68 3.42398 -4.59822 0
M  V30 14758 H 1483.08 2.94554 -5.22836 0
M  V30 14759 H 1484.15 1.71297 -4.53636 0
M  V30 14760 N 1485.49 1.41566 0.692592 0
M  V30 14761 C 1486.74 1.42293 1.45342 0
M  V30 14762 C 1487.09 0.032316 1.92373 0
M  V30 14763 O 1486.38 -0.942367 1.66823 0
M  V30 14764 C 1486.58 2.36683 2.67799 0
M  V30 14765 C 1486.41 3.84784 2.32748 0
M  V30 14766 C 1485.18 4.53446 2.22967 0
M  V30 14767 C 1487.38 4.75681 1.95531 0
M  V30 14768 N 1485.36 5.86662 1.80833 0
M  V30 14769 C 1486.73 5.97868 1.64178 0
M  V30 14770 C 1488.78 4.633 1.82367 0
M  V30 14771 C 1487.49 7.09053 1.20983 0
M  V30 14772 C 1489.51 5.74449 1.40577 0
M  V30 14773 C 1488.87 6.95737 1.10137 0
M  V30 14774 H 1484.97 0.575898 0.529023 0
M  V30 14775 H 1487.56 1.77459 0.801013 0
M  V30 14776 H 1485.73 2.03606 3.30755 0
M  V30 14777 H 1487.46 2.28109 3.34288 0
M  V30 14778 H 1484.22 4.07423 2.4146 0
M  V30 14779 H 1484.64 6.57273 1.62239 0
M  V30 14780 H 1489.28 3.70024 2.04554 0
M  V30 14781 H 1487 8.02192 0.975411 0
M  V30 14782 H 1490.59 5.66875 1.30937 0
M  V30 14783 H 1489.47 7.80282 0.782888 0
M  V30 14784 N 1486.97 -0.927146 1.27443 0
M  V30 14785 C 1488.25 -1.65322 1.04538 0
M  V30 14786 C 1488.63 -2.06886 -0.419694 0
M  V30 14787 O 1487.97 -1.80352 -1.40304 0
M  V30 14788 C 1488.18 -2.85486 2.00746 0
M  V30 14789 C 1489.53 -3.56816 2.30147 0
M  V30 14790 O 1490.56 -2.95613 1.98724 0
M  V30 14791 O 1489.41 -4.67085 2.83714 0
M  V30 14792 H 1486.51 -0.724627 0.398554 0
M  V30 14793 H 1489.05 -0.977633 1.3871 0
M  V30 14794 H 1487.83 -2.51766 2.99549 0
M  V30 14795 H 1487.45 -3.60763 1.67139 0
M  V30 14796 N 1488.45 -1.09474 -1.13372 0
M  V30 14797 C 1489.69 -0.840753 -1.86308 0
M  V30 14798 C 1490.05 0.622327 -1.81635 0
M  V30 14799 O 1491.25 0.992265 -2.49815 0
M  V30 14800 C 1489.52 -1.3618 -3.30439 0
M  V30 14801 S 1491.08 -1.24176 -4.20863 0
M  V30 14802 H 1487.9 -0.304071 -0.642699 0
M  V30 14803 H 1490.5 -1.39822 -1.36639 0
M  V30 14804 H 1489.21 -2.42087 -3.31394 0
M  V30 14805 H 1488.74 -0.800485 -3.8517 0
M  V30 14806 H 1490.75 -0.193021 -4.95824 0
M  V30 14807 N 1489.92 1.30607 -0.882012 0
M  V30 14808 C 1491.34 1.78418 -0.549892 0
M  V30 14809 C 1491.69 1.72553 0.933797 0
M  V30 14810 O 1490.81 1.30058 1.72956 0
M  V30 14811 C 1491.41 3.2397 -0.991398 0
M  V30 14812 C 1489.97 3.69629 -0.710739 0
M  V30 14813 C 1489.11 2.51127 -1.17602 0
M  V30 14814 H 1492.06 1.17519 -1.06653 0
M  V30 14815 H 1492.08 3.79159 -0.319115 0
M  V30 14816 H 1491.6 3.28207 -2.07128 0
M  V30 14817 H 1489.7 3.70883 0.357273 0
M  V30 14818 H 1489.81 4.61232 -1.29621 0
M  V30 14819 H 1488.17 2.47642 -0.595444 0
M  V30 14820 H 1488.96 2.58103 -2.26358 0
M  V30 14821 N 1491.4 0.642663 1.43901 0
M  V30 14822 C 1492.37 -0.0457858 2.29154 0
M  V30 14823 C 1493.37 -0.760988 1.41653 0
M  V30 14824 O 1494.56 -0.603832 1.634 0
M  V30 14825 C 1491.69 -1.07552 3.23489 0
M  V30 14826 H 1492.88 0.704193 2.91515 0
M  V30 14827 H 1490.43 0.403361 1.51006 0
M  V30 14828 H 1491.17 -1.85509 2.66002 0
M  V30 14829 H 1490.95 -0.566468 3.87987 0
M  V30 14830 H 1492.44 -1.55663 3.87503 0
M  V30 14831 N 1492.88 -1.52852 0.383918 0
M  V30 14832 C 1494.3 -1.59565 0.0336391 0
M  V30 14833 C 1494.5 -1.39819 -1.45097 0
M  V30 14834 O 1493.55 -1.21249 -2.21484 0
M  V30 14835 C 1494.87 -2.96412 0.506001 0
M  V30 14836 C 1496.41 -3.09575 0.461794 0
M  V30 14837 C 1496.89 -4.48863 0.910259 0
M  V30 14838 N 1498.38 -4.55032 0.866053 0
M  V30 14839 C 1499.12 -5.61032 1.18453 0
M  V30 14840 N 1498.61 -6.74701 1.57321 0
M  V30 14841 N 1500.4 -5.51109 1.10613 0
M  V30 14842 H 1492.56 -1.63937 1.3505 0
M  V30 14843 H 1494.82 -0.769857 0.553194 0
M  V30 14844 H 1494.52 -3.16061 1.54268 0
M  V30 14845 H 1494.4 -3.77073 -0.0977643 0
M  V30 14846 H 1496.79 -2.89625 -0.565786 0
M  V30 14847 H 1496.87 -2.30879 1.10129 0
M  V30 14848 H 1496.51 -4.69553 1.93604 0
M  V30 14849 H 1496.44 -5.26017 0.247825 0
M  V30 14850 H 1498.93 -3.73423 0.579962 0
M  V30 14851 H 1499.24 -7.51545 1.8 0
M  V30 14852 H 1497.59 -6.76046 1.61203 0
M  V30 14853 H 1500.78 -4.61187 0.801531 0
M  V30 14854 H 1500.95 -6.33618 1.35766 0
M  V30 14855 N 1494.36 -0.113586 -1.5719 0
M  V30 14856 C 1495.78 0.243023 -1.57739 0
M  V30 14857 C 1495.98 1.67105 -1.12597 0
M  V30 14858 O 1495.03 2.39126 -0.810874 0
M  V30 14859 C 1496.34 0.014629 -3.00696 0
M  V30 14860 C 1497.89 0.0809485 -3.12895 0
M  V30 14861 C 1498.37 -0.119685 -4.57844 0
M  V30 14862 N 1499.86 -0.0654711 -4.63154 0
M  V30 14863 C 1500.59 -0.195692 -5.73066 0
M  V30 14864 N 1500.09 -0.381782 -6.91747 0
M  V30 14865 N 1501.88 -0.13565 -5.61936 0
M  V30 14866 H 1494.03 -1.04639 -1.84836 0
M  V30 14867 H 1496.3 -0.411609 -0.85398 0
M  V30 14868 H 1496 -0.972399 -3.3799 0
M  V30 14869 H 1495.88 0.748882 -3.69691 0
M  V30 14870 H 1498.26 1.0585 -2.75463 0
M  V30 14871 H 1498.34 -0.685097 -2.46455 0
M  V30 14872 H 1497.99 -1.09418 -4.95974 0
M  V30 14873 H 1497.92 0.666281 -5.22368 0
M  V30 14874 H 1500.41 0.0750649 -3.77825 0
M  V30 14875 H 1500.72 -0.472157 -7.71356 0
M  V30 14876 H 1499.07 -0.417686 -6.93744 0
M  V30 14877 H 1502.26 0.0087301 -4.68099 0
M  V30 14878 H 1502.43 -0.240579 -6.47553 0
M  V30 14879 N 1495.84 1.56784 0.160173 0
M  V30 14880 C 1497.08 1.83782 0.871526 0
M  V30 14881 C 1497.44 0.695726 1.79381 0
M  V30 14882 O 1496.73 -0.307168 1.89122 0
M  V30 14883 C 1496.93 3.14703 1.69402 0
M  V30 14884 C 1496.75 4.41538 0.852869 0
M  V30 14885 C 1495.52 5.0258 0.523604 0
M  V30 14886 C 1497.72 5.13952 0.189264 0
M  V30 14887 N 1495.7 6.12999 -0.332518 0
M  V30 14888 C 1497.08 6.17752 -0.527548 0
M  V30 14889 C 1499.13 4.97782 0.108577 0
M  V30 14890 C 1497.83 7.07133 -1.31741 0
M  V30 14891 C 1499.86 5.87615 -0.667985 0
M  V30 14892 C 1499.22 6.90887 -1.37312 0
M  V30 14893 H 1495.32 0.723336 0.297169 0
M  V30 14894 H 1497.9 1.94212 0.137749 0
M  V30 14895 H 1496.08 3.05445 2.39913 0
M  V30 14896 H 1497.81 3.29657 2.34752 0
M  V30 14897 H 1494.56 4.65794 0.85631 0
M  V30 14898 H 1494.99 6.72819 -0.751215 0
M  V30 14899 H 1499.63 4.17937 0.639385 0
M  V30 14900 H 1497.35 7.86414 -1.85952 0
M  V30 14901 H 1500.93 5.77174 -0.732234 0
M  V30 14902 H 1499.81 7.59198 -1.96438 0
M  V30 14903 N 1497.32 -0.429099 1.51646 0
M  V30 14904 C 1498.56 -1.17551 1.64396 0
M  V30 14905 C 1498.88 -1.91526 0.366444 0
M  V30 14906 O 1498.15 -1.85896 -0.618013 0
M  V30 14907 H 1496.73 -0.436918 0.605898 0
M  V30 14908 H 1499.4 -0.491159 1.8861 0
M  V30 14909 H 1498.49 -1.90057 2.47557 0
M  V30 14910 N 1498.79 -1.41931 -0.685074 0
M  V30 14911 C 1499.74 -1.41066 -1.79121 0
M  V30 14912 C 1500.73 -0.283467 -1.58383 0
M  V30 14913 O 1501.92 -0.524931 -1.69037 0
M  V30 14914 C 1499.05 -1.30551 -3.17508 0
M  V30 14915 C 1498.13 -2.48174 -3.43905 0
M  V30 14916 N 1498.53 -3.73621 -3.40941 0
M  V30 14917 C 1496.82 -2.42213 -3.74498 0
M  V30 14918 C 1497.52 -4.51693 -3.66536 0
M  V30 14919 N 1496.5 -3.81955 -3.86796 0
M  V30 14920 H 1500.3 -2.35965 -1.75208 0
M  V30 14921 H 1497.82 -1.36135 -0.885498 0
M  V30 14922 H 1499.81 -1.28013 -3.9676 0
M  V30 14923 H 1498.47 -0.366454 -3.22625 0
M  V30 14924 H 1499.48 -4.0636 -3.21079 0
M  V30 14925 H 1496.16 -1.56835 -3.86923 0
M  V30 14926 H 1497.55 -5.60654 -3.70292 0
M  V30 14927 N 1500.27 0.920374 -1.27933 0
M  V30 14928 C 1501.5 1.70804 -1.17647 0
M  V30 14929 C 1501.92 1.86264 0.262189 0
M  V30 14930 O 1501.28 1.36798 1.18979 0
M  V30 14931 C 1501.33 3.08142 -1.87298 0
M  V30 14932 O 1500.43 3.95279 -1.17593 0
M  V30 14933 H 1499.77 0.523267 -0.408763 0
M  V30 14934 H 1502.3 1.15127 -1.69136 0
M  V30 14935 H 1502.31 3.58414 -1.94945 0
M  V30 14936 H 1500.99 2.96208 -2.91948 0
M  V30 14937 H 1499.56 3.53716 -1.18065 0
M  V30 14938 N 1501.75 1.10074 1.1279 0
M  V30 14939 C 1502.66 0.758458 2.22001 0
M  V30 14940 C 1503.68 -0.242438 1.72303 0
M  V30 14941 O 1504.85 -0.0821223 2.01233 0
M  V30 14942 C 1501.92 0.191326 3.46172 0
M  V30 14943 C 1500.98 1.24902 4.10729 0
M  V30 14944 C 1500.21 0.708857 5.28972 0
M  V30 14945 O 1500.43 -0.465993 5.68493 0
M  V30 14946 O 1499.37 1.46703 5.83748 0
M  V30 14947 H 1503.19 1.66997 2.53665 0
M  V30 14948 H 1500.78 0.875604 1.21052 0
M  V30 14949 H 1502.66 -0.121292 4.21225 0
M  V30 14950 H 1501.34 -0.693094 3.16193 0
M  V30 14951 H 1500.24 1.61444 3.37471 0
M  V30 14952 H 1501.58 2.10632 4.44854 0
M  V30 14953 N 1503.23 -1.30138 0.888926 0
M  V30 14954 C 1504.47 -1.97776 0.516122 0
M  V30 14955 C 1504.83 -1.68613 -0.918358 0
M  V30 14956 O 1506.03 -2.29617 -1.39748 0
M  V30 14957 C 1504.3 -3.48608 0.787866 0
M  V30 14958 S 1505.86 -4.35735 0.517757 0
M  V30 14959 H 1502.68 -0.684617 0.191885 0
M  V30 14960 H 1505.28 -1.58168 1.14904 0
M  V30 14961 H 1503.99 -3.67326 1.8303 0
M  V30 14962 H 1503.52 -3.93141 0.142652 0
M  V30 14963 H 1505.53 -4.9203 -0.64192 0
M  V30 14964 N 1504.71 -0.650285 -1.43559 0
M  V30 14965 C 1505.95 -0.162164 -2.01448 0
M  V30 14966 C 1506.27 1.22717 -1.51544 0
M  V30 14967 O 1505.54 1.81917 -0.726855 0
M  V30 14968 H 1504.12 -0.0569599 -0.744825 0
M  V30 14969 H 1506.79 -0.841294 -1.75807 0
M  V30 14970 H 1505.88 -0.144531 -3.11765 0
M  V30 14971 N 1506.18 1.52647 -0.392018 0
M  V30 14972 C 1507.13 2.23336 0.458815 0
M  V30 14973 C 1508.12 1.23825 1.02743 0
M  V30 14974 O 1509.31 1.49148 0.953089 0
M  V30 14975 C 1506.44 3.04566 1.58412 0
M  V30 14976 C 1505.52 4.11474 1.02711 0
M  V30 14977 N 1505.92 5.05423 0.195282 0
M  V30 14978 C 1504.21 4.26654 1.29934 0
M  V30 14979 C 1504.91 5.81591 -0.112738 0
M  V30 14980 N 1503.89 5.4137 0.491926 0
M  V30 14981 H 1507.69 2.93328 -0.183222 0
M  V30 14982 H 1505.21 1.61145 -0.201476 0
M  V30 14983 H 1507.2 3.53747 2.2061 0
M  V30 14984 H 1505.86 2.36109 2.22896 0
M  V30 14985 H 1506.87 5.17628 -0.167677 0
M  V30 14986 H 1503.55 3.69426 1.94501 0
M  V30 14987 H 1504.94 6.67276 -0.786879 0
M  V30 14988 N 1507.66 0.121921 1.57128 0
M  V30 14989 C 1508.61 -0.827205 2.15467 0
M  V30 14990 C 1509.58 -1.26155 1.08047 0
M  V30 14991 O 1510.76 -1.33855 1.35969 0
M  V30 14992 C 1507.9 -2.07077 2.76067 0
M  V30 14993 C 1507.02 -1.68452 3.97804 0
M  V30 14994 C 1506.15 -2.87797 4.46482 0
M  V30 14995 C 1505.19 -2.45426 5.60743 0
M  V30 14996 N 1504.33 -3.57695 6.04151 0
M  V30 14997 H 1509.17 -0.322879 2.96246 0
M  V30 14998 H 1506.71 -0.147677 1.46357 0
M  V30 14999 H 1508.66 -2.79943 3.09335 0
M  V30 15000 H 1507.29 -2.54963 1.97974 0
M  V30 15001 H 1506.35 -0.854487 3.70679 0
M  V30 15002 H 1507.66 -1.33316 4.80654 0
M  V30 15003 H 1506.81 -3.68885 4.81673 0
M  V30 15004 H 1505.55 -3.26162 3.62587 0
M  V30 15005 H 1504.56 -1.62772 5.25153 0
M  V30 15006 H 1505.78 -2.08175 6.46405 0
M  V30 15007 H 1503.73 -3.95728 5.23197 0
M  V30 15008 H 1503.64 -3.26491 6.81865 0
M  V30 15009 H 1504.91 -4.39213 6.43981 0
M  V30 15010 N 1509.14 -1.56867 -0.151857 0
M  V30 15011 C 1510.05 -2.01157 -1.20718 0
M  V30 15012 C 1511.07 -0.926166 -1.47303 0
M  V30 15013 O 1512.24 -1.23528 -1.59069 0
M  V30 15014 C 1509.31 -2.37915 -2.52185 0
M  V30 15015 C 1508.37 -3.60381 -2.3329 0
M  V30 15016 C 1507.6 -3.95376 -3.58488 0
M  V30 15017 O 1507.82 -3.31093 -4.64471 0
M  V30 15018 O 1506.76 -4.88645 -3.5144 0
M  V30 15019 H 1510.58 -2.91234 -0.861175 0
M  V30 15020 H 1508.17 -1.44993 -0.360213 0
M  V30 15021 H 1510.05 -2.6244 -3.29702 0
M  V30 15022 H 1508.73 -1.50995 -2.86325 0
M  V30 15023 H 1507.63 -3.4105 -1.5374 0
M  V30 15024 H 1508.97 -4.47903 -2.04067 0
M  V30 15025 N 1510.62 0.421051 -1.51871 0
M  V30 15026 C 1511.9 1.18133 -1.55897 0
M  V30 15027 C 1512.28 2.08459 -0.332876 0
M  V30 15028 O 1511.62 2.18114 0.681052 0
M  V30 15029 C 1511.83 1.96902 -2.88151 0
M  V30 15030 C 1513.18 2.53382 -3.4071 0
M  V30 15031 O 1514.21 2.07095 -2.89811 0
M  V30 15032 O 1513.06 3.37846 -4.29561 0
M  V30 15033 H 1510.16 0.538721 -0.627462 0
M  V30 15034 H 1512.7 0.428798 -1.64193 0
M  V30 15035 H 1511.48 1.30659 -3.68841 0
M  V30 15036 H 1511.1 2.79185 -2.83093 0
M  V30 15037 N 1512.1 1.42293 0.677538 0
M  V30 15038 C 1513.06 1.45258 1.77293 0
M  V30 15039 C 1514.06 0.340554 1.57152 0
M  V30 15040 O 1515.25 0.601259 1.63495 0
M  V30 15041 C 1512.38 1.28156 3.15894 0
M  V30 15042 H 1513.57 2.42787 1.76052 0
M  V30 15043 H 1511.13 1.287 0.886908 0
M  V30 15044 H 1511.86 0.315381 3.22763 0
M  V30 15045 H 1511.65 2.08744 3.31916 0
M  V30 15046 H 1513.14 1.33107 3.95818 0
M  V30 15047 N 1513.57 -0.913576 1.28419 0
M  V30 15048 C 1514.54 -1.99757 1.12382 0
M  V30 15049 C 1515.54 -1.60675 0.063435 0
M  V30 15050 O 1516.73 -1.71433 0.30923 0
M  V30 15051 C 1513.86 -3.33307 0.715506 0
M  V30 15052 H 1515.05 -2.15414 2.08655 0
M  V30 15053 H 1512.61 -1.09626 1.11408 0
M  V30 15054 H 1513.34 -3.23351 -0.247977 0
M  V30 15055 H 1513.13 -3.63034 1.4815 0
M  V30 15056 H 1514.62 -4.12882 0.625953 0
M  V30 15057 N 1515.05 -1.1067 -1.12204 0
M  V30 15058 C 1516.3 -0.85189 -1.8404 0
M  V30 15059 C 1516.63 0.620988 -1.84004 0
M  V30 15060 O 1515.91 1.45801 -1.28734 0
M  V30 15061 C 1516.19 -1.40401 -3.31602 0
M  V30 15062 C 1516.04 -2.94392 -3.40078 0
M  V30 15063 C 1517.36 -1.04834 -4.27432 0
M  V30 15064 H 1514.48 -0.310924 -0.668203 0
M  V30 15065 H 1517.12 -1.37026 -1.3162 0
M  V30 15066 H 1515.27 -0.963107 -3.76373 0
M  V30 15067 H 1516.94 -3.47027 -3.03924 0
M  V30 15068 H 1515.19 -3.3087 -2.80548 0
M  V30 15069 H 1515.86 -3.28107 -4.43903 0
M  V30 15070 H 1518.33 -1.42882 -3.90799 0
M  V30 15071 H 1517.21 -1.46153 -5.29085 0
M  V30 15072 H 1517.47 0.0419272 -4.4208 0
M  V30 15073 N 1516.53 1.29665 -0.895815 0
M  V30 15074 C 1517.48 2.29791 -0.360404 0
M  V30 15075 C 1518.47 1.60617 0.538384 0
M  V30 15076 O 1519.68 1.74993 0.421616 0
M  V30 15077 H 1516.05 0.745599 -0.0979118 0
M  V30 15078 H 1518.02 2.72396 -1.21832 0
M  V30 15079 C 1516.77 3.45386 0.400451 0
M  V30 15080 H 1516.1 3.98805 -0.281915 0
M  V30 15081 H 1517.54 4.17492 0.740003 0
M  V30 15082 C 1516 2.96393 1.60165 0
M  V30 15083 O 1516.53 2.97339 2.70097 0
M  V30 15084 N 1514.73 2.52271 1.44249 0
M  V30 15085 H 1514.28 2.51701 0.548142 0
M  V30 15086 H 1514.24 2.19849 2.24753 0
M  V30 15087 N 1518.01 0.657889 1.43212 0
M  V30 15088 C 1519.25 0.176848 2.03634 0
M  V30 15089 C 1519.61 -1.18833 1.50807 0
M  V30 15090 O 1520.81 -1.76305 2.02904 0
M  V30 15091 C 1519.08 0.191578 3.56886 0
M  V30 15092 S 1520.64 -0.220935 4.38243 0
M  V30 15093 H 1517.46 0.0742555 0.707112 0
M  V30 15094 H 1520.06 0.867268 1.7521 0
M  V30 15095 H 1518.77 1.18781 3.92835 0
M  V30 15096 H 1518.3 -0.519229 3.89958 0
M  V30 15097 H 1520.31 -1.45865 4.74276 0
M  V30 15098 N 1519.49 -1.52437 0.400108 0
M  V30 15099 C 1520.71 -2.0613 -0.178364 0
M  V30 15100 C 1521.13 -1.27094 -1.39616 0
M  V30 15101 O 1520.49 -0.320409 -1.79665 0
M  V30 15102 C 1520.54 -3.57478 -0.53777 0
M  V30 15103 O 1520.26 -4.33522 0.631657 0
M  V30 15104 C 1521.76 -4.27556 -1.17094 0
M  V30 15105 H 1518.98 -0.670558 -0.0243619 0
M  V30 15106 H 1521.52 -1.9644 0.568459 0
M  V30 15107 H 1519.68 -3.67205 -1.23449 0
M  V30 15108 H 1520.09 -5.23437 0.333803 0
M  V30 15109 H 1521.57 -5.3466 -1.3727 0
M  V30 15110 H 1522.04 -3.83456 -2.14145 0
M  V30 15111 H 1522.65 -4.22174 -0.514687 0
M  V30 15112 N 1520.96 -0.130252 -1.57061 0
M  V30 15113 C 1522.24 0.569171 -1.87136 0
M  V30 15114 C 1522.62 1.84078 -1.03337 0
M  V30 15115 O 1521.97 2.28208 -0.11543 0
M  V30 15116 C 1522.18 0.850782 -3.38471 0
M  V30 15117 C 1523.53 1.19892 -4.07322 0
M  V30 15118 O 1524.55 0.940682 -3.43554 0
M  V30 15119 O 1523.41 1.6841 -5.19904 0
M  V30 15120 H 1520.5 0.288433 -0.775071 0
M  V30 15121 H 1523.05 -0.165603 -1.6889 0
M  V30 15122 H 1521.82 -0.0498562 -3.91268 0
M  V30 15123 H 1521.45 1.64032 -3.62187 0
M  V30 15124 N 1522.44 1.56945 0.143535 0
M  V30 15125 C 1523.69 1.82728 0.854011 0
M  V30 15126 C 1524.01 0.712048 1.82179 0
M  V30 15127 O 1525.21 0.855579 2.57667 0
M  V30 15128 C 1523.67 3.23882 1.56934 0
M  V30 15129 C 1523.28 4.4335 0.643789 0
M  V30 15130 C 1525.02 3.58936 2.26639 0
M  V30 15131 C 1522.93 5.75528 1.36094 0
M  V30 15132 H 1521.86 0.681474 0.32266 0
M  V30 15133 H 1524.51 1.83189 0.106741 0
M  V30 15134 H 1522.89 3.17819 2.36236 0
M  V30 15135 H 1524.06 4.60658 -0.114257 0
M  V30 15136 H 1522.38 4.16364 0.0549721 0
M  V30 15137 H 1524.98 4.54948 2.80939 0
M  V30 15138 H 1525.32 2.85163 3.03295 0
M  V30 15139 H 1525.85 3.66676 1.54252 0
M  V30 15140 H 1522.59 6.52406 0.636157 0
M  V30 15141 H 1522.11 5.62149 2.09161 0
M  V30 15142 H 1523.79 6.18445 1.9009 0
M  V30 15143 N 1523.92 -0.412991 1.52093 0
M  V30 15144 C 1525.15 -1.18667 1.70096 0
M  V30 15145 C 1525.57 -1.83622 0.408012 0
M  V30 15146 O 1524.93 -1.69847 -0.634174 0
M  V30 15147 C 1524.98 -2.22837 2.83507 0
M  V30 15148 O 1524.08 -3.2889 2.48807 0
M  V30 15149 H 1523.42 -0.346581 0.566373 0
M  V30 15150 H 1525.95 -0.484642 1.98777 0
M  V30 15151 H 1525.96 -2.67229 3.08306 0
M  V30 15152 H 1524.64 -1.74942 3.77317 0
M  V30 15153 H 1523.21 -2.89804 2.34665 0
M  V30 15154 N 1525.4 -1.4265 -0.669982 0
M  V30 15155 C 1526.65 -1.43589 -1.43213 0
M  V30 15156 C 1526.98 -0.0537998 -1.94125 0
M  V30 15157 O 1526.25 0.922727 -1.71219 0
M  V30 15158 C 1526.54 -2.46433 -2.62569 0
M  V30 15159 C 1526.39 -3.93851 -2.17258 0
M  V30 15160 C 1527.71 -2.46208 -3.64787 0
M  V30 15161 H 1524.83 -0.522859 -0.519411 0
M  V30 15162 H 1527.47 -1.74094 -0.760997 0
M  V30 15163 H 1525.62 -2.20551 -3.19828 0
M  V30 15164 H 1527.29 -4.30732 -1.6513 0
M  V30 15165 H 1525.53 -4.07487 -1.48786 0
M  V30 15166 H 1526.21 -4.61398 -3.03012 0
M  V30 15167 H 1528.68 -2.69237 -3.17255 0
M  V30 15168 H 1527.56 -3.20138 -4.45873 0
M  V30 15169 H 1527.82 -1.48979 -4.16242 0
M  V30 15170 N 1526.88 0.906753 -1.28902 0
M  V30 15171 C 1527.81 2.01497 -1.09233 0
M  V30 15172 C 1528.82 1.62746 -0.0419378 0
M  V30 15173 O 1530.01 1.76198 -0.285728 0
M  V30 15174 C 1527.11 3.32816 -0.639255 0
M  V30 15175 C 1526.28 4.00137 -1.76661 0
M  V30 15176 C 1525.34 5.09742 -1.30573 0
M  V30 15177 O 1524.37 5.32559 -2.00921 0
M  V30 15178 N 1525.57 5.80243 -0.17275 0
M  V30 15179 H 1528.34 2.18927 -2.04673 0
M  V30 15180 H 1525.9 1.0785 -1.20748 0
M  V30 15181 H 1527.89 4.03477 -0.31439 0
M  V30 15182 H 1526.46 3.11807 0.222498 0
M  V30 15183 H 1525.68 3.22933 -2.26071 0
M  V30 15184 H 1526.97 4.41859 -2.52266 0
M  V30 15185 H 1526.37 5.64184 0.413931 0
M  V30 15186 H 1524.92 6.51734 0.0927926 0
M  V30 15187 N 1528.36 1.11264 1.11616 0
M  V30 15188 C 1529.3 0.769295 2.17602 0
M  V30 15189 C 1530.27 -0.258362 1.64078 0
M  V30 15190 O 1531.46 -0.135698 1.90317 0
M  V30 15191 C 1528.6 0.216647 3.44419 0
M  V30 15192 C 1527.71 1.30064 4.11955 0
M  V30 15193 C 1526.85 0.708729 5.26451 0
M  V30 15194 C 1525.88 1.7727 5.85868 0
M  V30 15195 N 1525.02 1.20042 6.91762 0
M  V30 15196 H 1529.86 1.67727 2.46316 0
M  V30 15197 H 1527.4 0.83764 1.20921 0
M  V30 15198 H 1529.36 -0.121724 4.17022 0
M  V30 15199 H 1527.99 -0.654525 3.16095 0
M  V30 15200 H 1527.04 1.756 3.37445 0
M  V30 15201 H 1528.35 2.1057 4.52174 0
M  V30 15202 H 1527.5 0.320307 6.05854 0
M  V30 15203 H 1526.24 -0.127668 4.87533 0
M  V30 15204 H 1525.25 2.17046 5.05145 0
M  V30 15205 H 1526.47 2.6121 6.26854 0
M  V30 15206 H 1524.42 0.385633 6.54866 0
M  V30 15207 H 1524.34 1.94221 7.30626 0
M  V30 15208 H 1525.6 0.838825 7.74974 0
M  V30 15209 N 1529.83 -1.29188 0.902679 0
M  V30 15210 C 1531.06 -1.99576 0.545635 0
M  V30 15211 C 1531.48 -1.67541 -0.870372 0
M  V30 15212 O 1530.83 -0.922082 -1.57493 0
M  V30 15213 C 1530.88 -3.54013 0.731916 0
M  V30 15214 O 1530.61 -3.84914 2.09219 0
M  V30 15215 C 1532.11 -4.41666 0.38022 0
M  V30 15216 H 1529.33 -0.637593 0.209083 0
M  V30 15217 H 1531.87 -1.64652 1.21284 0
M  V30 15218 H 1530.03 -3.87239 0.111849 0
M  V30 15219 H 1530.44 -4.79581 2.12373 0
M  V30 15220 H 1531.91 -5.49138 0.561382 0
M  V30 15221 H 1532.39 -4.33858 -0.682915 0
M  V30 15222 H 1533 -4.13918 0.977354 0
M  V30 15223 N 1531.31 -0.665475 -1.42861 0
M  V30 15224 C 1532.72 -0.26225 -1.84849 0
M  V30 15225 C 1533.07 1.19372 -1.55707 0
M  V30 15226 O 1532.2 1.91269 -1.01218 0
M  V30 15227 C 1532.79 -0.469189 -3.35535 0
M  V30 15228 C 1531.35 -0.120172 -3.76208 0
M  V30 15229 C 1530.5 -0.766153 -2.66506 0
M  V30 15230 H 1533.45 -0.868296 -1.32839 0
M  V30 15231 H 1533.47 0.281571 -3.79457 0
M  V30 15232 H 1532.98 -1.52894 -3.56714 0
M  V30 15233 H 1531.08 0.936505 -3.60639 0
M  V30 15234 H 1531.2 -0.554188 -4.75884 0
M  V30 15235 H 1529.56 -0.198292 -2.53927 0
M  V30 15236 H 1530.34 -1.82918 -2.9051 0
M  V30 15237 N 1532.79 1.52222 -0.408187 0
M  V30 15238 C 1533.72 2.24676 0.453129 0
M  V30 15239 C 1534.73 1.27605 1.01098 0
M  V30 15240 O 1535.92 1.53557 0.910084 0
M  V30 15241 C 1533.02 2.96431 1.64262 0
M  V30 15242 C 1532.2 4.20364 1.20883 0
M  V30 15243 C 1531.26 4.74951 2.26512 0
M  V30 15244 O 1530.28 5.37556 1.87142 0
M  V30 15245 N 1531.48 4.56443 3.58665 0
M  V30 15246 H 1534.25 2.9923 -0.16771 0
M  V30 15247 H 1531.81 1.60178 -0.235517 0
M  V30 15248 H 1533.8 3.29844 2.3449 0
M  V30 15249 H 1532.37 2.25068 2.1694 0
M  V30 15250 H 1531.59 3.92776 0.334712 0
M  V30 15251 H 1532.88 5.0085 0.895939 0
M  V30 15252 H 1532.28 4.06511 3.93402 0
M  V30 15253 H 1530.83 4.94295 4.24871 0
M  V30 15254 N 1534.27 0.138579 1.5699 0
M  V30 15255 C 1535.21 -0.804305 2.16332 0
M  V30 15256 C 1536.18 -1.25002 1.09379 0
M  V30 15257 O 1537.37 -1.32405 1.37381 0
M  V30 15258 C 1534.51 -2.04137 2.78248 0
M  V30 15259 C 1533.62 -1.64223 3.99568 0
M  V30 15260 C 1532.76 -2.83046 4.49509 0
M  V30 15261 C 1531.8 -2.39465 5.63314 0
M  V30 15262 N 1530.93 -3.51267 6.07911 0
M  V30 15263 H 1535.77 -0.29144 2.96571 0
M  V30 15264 H 1533.31 -0.132146 1.46505 0
M  V30 15265 H 1535.27 -2.76646 3.12286 0
M  V30 15266 H 1533.9 -2.52849 2.00667 0
M  V30 15267 H 1532.95 -0.815123 3.71564 0
M  V30 15268 H 1534.26 -1.2821 4.82041 0
M  V30 15269 H 1533.42 -3.63755 4.85559 0
M  V30 15270 H 1532.16 -3.22298 3.66026 0
M  V30 15271 H 1531.16 -1.57193 5.2685 0
M  V30 15272 H 1532.39 -2.01307 6.48577 0
M  V30 15273 H 1530.33 -3.90156 5.27365 0
M  V30 15274 H 1530.25 -3.19241 6.85289 0
M  V30 15275 H 1531.52 -4.32358 6.48604 0
M  V30 15276 N 1535.75 -1.57019 -0.13521 0
M  V30 15277 C 1536.71 -1.98229 -1.15056 0
M  V30 15278 C 1537.71 -0.870295 -1.35213 0
M  V30 15279 O 1538.9 -1.13668 -1.32005 0
M  V30 15280 C 1536.03 -2.30844 -2.50846 0
M  V30 15281 H 1537.22 -2.89123 -0.796744 0
M  V30 15282 H 1534.78 -1.51636 -0.378962 0
M  V30 15283 H 1535.51 -1.42779 -2.91178 0
M  V30 15284 H 1535.3 -3.11931 -2.37574 0
M  V30 15285 H 1536.79 -2.63524 -3.23952 0
M  V30 15286 N 1537.22 0.404919 -1.52309 0
M  V30 15287 C 1538.45 1.17309 -1.70429 0
M  V30 15288 C 1538.87 1.84169 -0.415617 0
M  V30 15289 O 1538.22 1.7205 0.608693 0
M  V30 15290 C 1538.28 2.23306 -2.84282 0
M  V30 15291 O 1538 1.59176 -4.0816 0
M  V30 15292 C 1539.5 3.12972 -3.13948 0
M  V30 15293 H 1536.72 0.352348 -0.571045 0
M  V30 15294 H 1539.26 0.475851 -1.98887 0
M  V30 15295 H 1537.42 2.88693 -2.58332 0
M  V30 15296 H 1537.83 2.29481 -4.71634 0
M  V30 15297 H 1539.3 3.83411 -3.97115 0
M  V30 15298 H 1539.78 3.75582 -2.27672 0
M  V30 15299 H 1540.39 2.53251 -3.41678 0
M  V30 15300 N 1538.7 1.43003 0.662408 0
M  V30 15301 C 1539.93 1.47555 1.45035 0
M  V30 15302 C 1540.35 0.0906083 1.88582 0
M  V30 15303 O 1539.7 -0.897271 1.58919 0
M  V30 15304 C 1539.75 2.41345 2.69137 0
M  V30 15305 O 1539.47 3.74453 2.27413 0
M  V30 15306 C 1540.98 2.55045 3.62584 0
M  V30 15307 H 1538.2 0.501448 0.44586 0
M  V30 15308 H 1540.74 1.8765 0.812879 0
M  V30 15309 H 1538.89 2.0447 3.29045 0
M  V30 15310 H 1539.31 4.24801 3.07643 0
M  V30 15311 H 1540.78 3.24766 4.46353 0
M  V30 15312 H 1541.26 1.59235 4.09318 0
M  V30 15313 H 1541.87 2.92693 3.08563 0
M  V30 15314 N 1540.18 -0.899904 1.29381 0
M  V30 15315 C 1541.43 -1.64712 1.17109 0
M  V30 15316 C 1541.75 -1.93011 -0.277772 0
M  V30 15317 O 1541.02 -1.55604 -1.19013 0
M  V30 15318 H 1539.6 -0.610532 0.430418 0
M  V30 15319 H 1542.26 -1.07905 1.62304 0
M  V30 15320 H 1541.36 -2.60362 1.72098 0
M  V30 15321 N 1541.66 -1.11854 -1.11024 0
M  V30 15322 C 1543.07 -0.853341 -1.34871 0
M  V30 15323 C 1543.27 0.519725 -1.94682 0
M  V30 15324 O 1542.33 1.26966 -2.18256 0
M  V30 15325 C 1543.64 -1.9649 -2.27623 0
M  V30 15326 C 1545.19 -1.99507 -2.41176 0
M  V30 15327 C 1545.67 -3.09879 -3.37253 0
M  V30 15328 N 1547.16 -3.09281 -3.44818 0
M  V30 15329 C 1547.89 -3.91322 -4.19111 0
M  V30 15330 N 1547.39 -4.83337 -4.96344 0
M  V30 15331 N 1549.18 -3.79483 -4.14667 0
M  V30 15332 H 1541.33 -2.00335 -0.70567 0
M  V30 15333 H 1543.6 -0.871431 -0.373245 0
M  V30 15334 H 1543.3 -2.95397 -1.90875 0
M  V30 15335 H 1543.18 -1.86481 -3.27879 0
M  V30 15336 H 1545.56 -1.01223 -2.77196 0
M  V30 15337 H 1545.64 -2.13592 -1.40756 0
M  V30 15338 H 1545.29 -4.08391 -3.01959 0
M  V30 15339 H 1545.22 -2.93033 -4.37537 0
M  V30 15340 H 1547.71 -2.42617 -2.89733 0
M  V30 15341 H 1548.02 -5.42462 -5.50413 0
M  V30 15342 H 1546.37 -4.87356 -4.95489 0
M  V30 15343 H 1549.56 -3.06938 -3.53421 0
M  V30 15344 H 1549.73 -4.43653 -4.72309 0
M  V30 15345 N 1543.14 1.28707 -0.909517 0
M  V30 15346 C 1544.36 1.99821 -0.555557 0
M  V30 15347 C 1544.79 1.67549 0.854931 0
M  V30 15348 O 1544.14 0.905521 1.57067 0
M  V30 15349 C 1544.19 3.52361 -0.766438 0
M  V30 15350 O 1543.3 4.12022 0.17654 0
M  V30 15351 H 1542.64 0.627918 -0.215905 0
M  V30 15352 H 1545.17 1.63965 -1.2238 0
M  V30 15353 H 1545.18 4.02379 -0.674894 0
M  V30 15354 H 1543.85 3.75184 -1.7947 0
M  V30 15355 H 1542.43 3.72882 0.0366216 0
M  V30 15356 N 1544.61 0.673042 1.42506 0
M  V30 15357 C 1545.84 0.201349 2.0642 0
M  V30 15358 C 1546.26 -1.132 1.50224 0
M  V30 15359 O 1545.62 -1.70368 0.620024 0
M  V30 15360 C 1545.67 0.14505 3.60308 0
M  V30 15361 O 1544.77 -0.886953 4.02749 0
M  V30 15362 H 1544.12 0.103975 0.655809 0
M  V30 15363 H 1546.65 0.921559 1.8267 0
M  V30 15364 H 1546.66 -0.0316792 4.07988 0
M  V30 15365 H 1545.33 1.11829 4.00583 0
M  V30 15366 H 1543.91 -0.681408 3.66621 0
M  V30 15367 N 1546.09 -1.52004 0.416254 0
M  V30 15368 C 1547.51 -1.59457 0.0674775 0
M  V30 15369 C 1547.71 -1.42865 -1.42098 0
M  V30 15370 O 1546.76 -1.2592 -2.18862 0
M  V30 15371 C 1548.08 -2.95272 0.56876 0
M  V30 15372 C 1549.63 -3.08525 0.527356 0
M  V30 15373 C 1550.1 -4.46832 1.00526 0
M  V30 15374 N 1551.59 -4.53092 0.962377 0
M  V30 15375 C 1552.33 -5.58393 1.30327 0
M  V30 15376 N 1551.82 -6.71212 1.71597 0
M  V30 15377 N 1553.62 -5.48639 1.22278 0
M  V30 15378 H 1545.77 -1.61036 1.38496 0
M  V30 15379 H 1548.03 -0.75795 0.569399 0
M  V30 15380 H 1547.74 -3.12717 1.60937 0
M  V30 15381 H 1547.61 -3.77196 -0.0177595 0
M  V30 15382 H 1550 -2.9076 -0.504225 0
M  V30 15383 H 1550.08 -2.28491 1.15002 0
M  V30 15384 H 1549.72 -4.6534 2.03521 0
M  V30 15385 H 1549.65 -5.25373 0.359345 0
M  V30 15386 H 1552.14 -3.72109 0.65904 0
M  V30 15387 H 1552.46 -7.47558 1.95901 0
M  V30 15388 H 1550.8 -6.72475 1.75507 0
M  V30 15389 H 1553.99 -4.59383 0.899175 0
M  V30 15390 H 1554.16 -6.30596 1.49175 0
M  V30 15391 N 1547.57 -0.146903 -1.56914 0
M  V30 15392 C 1548.5 0.823803 -2.13883 0
M  V30 15393 C 1549.52 1.21081 -1.08826 0
M  V30 15394 O 1550.7 1.15491 -1.36103 0
M  V30 15395 C 1547.8 2.11686 -2.64655 0
M  V30 15396 C 1546.98 1.89723 -3.94112 0
M  V30 15397 C 1546.04 3.03016 -4.30195 0
M  V30 15398 O 1545.06 2.74711 -4.9852 0
M  V30 15399 N 1546.26 4.30187 -3.89768 0
M  V30 15400 H 1549.03 0.336904 -2.978 0
M  V30 15401 H 1546.59 0.0366704 -1.61858 0
M  V30 15402 H 1548.58 2.86525 -2.85807 0
M  V30 15403 H 1547.15 2.51639 -1.85464 0
M  V30 15404 H 1546.37 0.989208 -3.81587 0
M  V30 15405 H 1547.66 1.72387 -4.78707 0
M  V30 15406 H 1547.06 4.56051 -3.34715 0
M  V30 15407 H 1545.62 5.01807 -4.15972 0
M  V30 15408 N 1549.05 1.57088 0.126881 0
M  V30 15409 C 1550.27 1.88984 0.854389 0
M  V30 15410 C 1550.7 0.738037 1.73016 0
M  V30 15411 O 1550.06 -0.311728 1.786 0
M  V30 15412 C 1550.1 3.19584 1.67028 0
M  V30 15413 O 1549.21 3.04935 2.77648 0
M  V30 15414 H 1548.55 0.620354 0.236763 0
M  V30 15415 H 1551.08 2.04295 0.111647 0
M  V30 15416 H 1551.09 3.52109 2.06115 0
M  V30 15417 H 1549.76 4.03012 1.02732 0
M  V30 15418 H 1548.34 2.83861 2.41821 0
M  V30 15419 N 1550.53 -0.396836 1.52522 0
M  V30 15420 C 1551.75 -1.16857 1.71345 0
M  V30 15421 C 1552.18 -1.83178 0.427465 0
M  V30 15422 O 1551.53 -1.7051 -0.616123 0
M  V30 15423 C 1551.58 -2.19817 2.85855 0
M  V30 15424 O 1550.69 -3.26233 2.52281 0
M  V30 15425 H 1550.03 -0.340554 0.570017 0
M  V30 15426 H 1552.56 -0.463532 1.9928 0
M  V30 15427 H 1552.57 -2.63944 3.11123 0
M  V30 15428 H 1551.24 -1.70931 3.79151 0
M  V30 15429 H 1549.82 -2.87299 2.37726 0
M  V30 15430 N 1552.01 -1.43353 -0.654814 0
M  V30 15431 C 1553.25 -1.44885 -1.41473 0
M  V30 15432 C 1553.58 -0.0725577 -1.94365 0
M  V30 15433 O 1552.84 0.9222 -1.72609 0
M  V30 15434 C 1553.13 -2.437 -2.61429 0
M  V30 15435 C 1552.8 -3.89612 -2.26965 0
M  V30 15436 C 1551.46 -4.29353 -2.17278 0
M  V30 15437 C 1553.81 -4.81569 -1.99351 0
M  V30 15438 C 1551.14 -5.59005 -1.7813 0
M  V30 15439 C 1553.49 -6.11584 -1.61702 0
M  V30 15440 C 1552.16 -6.50303 -1.50539 0
M  V30 15441 H 1551.43 -0.530172 -0.517686 0
M  V30 15442 H 1554.08 -1.76422 -0.744824 0
M  V30 15443 H 1552.38 -2.05561 -3.33544 0
M  V30 15444 H 1554.08 -2.42141 -3.19638 0
M  V30 15445 H 1550.67 -3.58159 -2.35414 0
M  V30 15446 H 1554.85 -4.51639 -2.05757 0
M  V30 15447 H 1550.11 -5.87845 -1.68072 0
M  V30 15448 H 1554.28 -6.82312 -1.39365 0
M  V30 15449 H 1551.91 -7.50673 -1.19975 0
M  V30 15450 N 1553.48 0.89303 -1.29857 0
M  V30 15451 C 1554.73 1.63881 -1.17583 0
M  V30 15452 C 1555.05 1.93723 0.270293 0
M  V30 15453 O 1556.25 2.66582 0.514432 0
M  V30 15454 C 1554.71 2.95327 -2.05694 0
M  V30 15455 C 1554.32 2.73055 -3.55169 0
M  V30 15456 C 1556.06 3.7327 -2.02162 0
M  V30 15457 C 1553.97 4.00268 -4.35361 0
M  V30 15458 H 1552.9 0.614815 -0.436485 0
M  V30 15459 H 1555.55 0.989339 -1.54546 0
M  V30 15460 H 1553.93 3.61523 -1.61607 0
M  V30 15461 H 1555.1 2.1541 -4.07351 0
M  V30 15462 H 1553.42 2.08498 -3.6044 0
M  V30 15463 H 1556.02 4.67601 -2.59333 0
M  V30 15464 H 1556.36 4.04032 -1.00318 0
M  V30 15465 H 1556.89 3.13925 -2.44328 0
M  V30 15466 H 1553.63 3.74669 -5.37869 0
M  V30 15467 H 1553.15 4.57448 -3.87945 0
M  V30 15468 H 1554.83 4.68358 -4.46374 0
M  V30 15469 N 1554.96 1.12442 1.10429 0
M  V30 15470 C 1555.92 0.795443 2.14954 0
M  V30 15471 C 1556.92 -0.19022 1.59671 0
M  V30 15472 O 1558.11 0.0355797 1.74164 0
M  V30 15473 C 1555.25 0.182043 3.40414 0
M  V30 15474 H 1556.44 1.72153 2.45567 0
M  V30 15475 H 1553.99 0.927672 1.25793 0
M  V30 15476 H 1554.73 -0.753766 3.15419 0
M  V30 15477 H 1554.51 0.891708 3.81826 0
M  V30 15478 H 1556 -0.0316286 4.17588 0
M  V30 15479 N 1556.44 -1.28223 0.91633 0
M  V30 15480 C 1557.69 -1.95153 0.551639 0
M  V30 15481 C 1558.02 -1.71938 -0.902829 0
M  V30 15482 O 1557.29 -1.04184 -1.64243 0
M  V30 15483 C 1557.58 -3.49565 0.864647 0
M  V30 15484 C 1557.43 -3.82171 2.37203 0
M  V30 15485 C 1558.75 -4.38604 0.362593 0
M  V30 15486 H 1555.87 -0.708808 0.20189 0
M  V30 15487 H 1558.51 -1.51545 1.14604 0
M  V30 15488 H 1556.66 -3.8684 0.358782 0
M  V30 15489 H 1558.33 -3.54751 2.94872 0
M  V30 15490 H 1556.57 -3.29124 2.82595 0
M  V30 15491 H 1557.25 -4.90007 2.54159 0
M  V30 15492 H 1559.72 -4.08416 0.795983 0
M  V30 15493 H 1558.6 -5.45493 0.61066 0
M  V30 15494 H 1558.86 -4.35911 -0.737137 0
M  V30 15495 N 1557.92 -0.68059 -1.42147 0
M  V30 15496 C 1559.17 -0.204857 -2.01059 0
M  V30 15497 C 1559.49 1.19475 -1.54113 0
M  V30 15498 O 1558.76 1.80334 -0.765279 0
M  V30 15499 H 1557.34 -0.0727459 -0.743449 0
M  V30 15500 H 1560 -0.878396 -1.73983 0
M  V30 15501 H 1559.09 -0.210628 -3.11388 0
M  V30 15502 N 1559.4 1.51781 -0.424309 0
M  V30 15503 C 1560.64 2.01157 0.147925 0
M  V30 15504 C 1560.96 1.31369 1.44919 0
M  V30 15505 O 1562.16 1.71643 2.10359 0
M  V30 15506 C 1560.62 3.58526 0.31417 0
M  V30 15507 C 1560.23 4.37242 -0.975898 0
M  V30 15508 C 1561.97 4.16088 0.840876 0
M  V30 15509 C 1559.88 5.86287 -0.776009 0
M  V30 15510 H 1558.81 0.751684 0.0590568 0
M  V30 15511 H 1561.46 1.74998 -0.552079 0
M  V30 15512 H 1559.84 3.81077 1.07687 0
M  V30 15513 H 1561.02 4.26444 -1.74592 0
M  V30 15514 H 1559.33 3.9107 -1.43015 0
M  V30 15515 H 1561.93 5.25138 1.0067 0
M  V30 15516 H 1562.27 3.7442 1.81977 0
M  V30 15517 H 1562.8 3.97565 0.136836 0
M  V30 15518 H 1559.54 6.32343 -1.7269 0
M  V30 15519 H 1559.06 5.99783 -0.0455544 0
M  V30 15520 H 1560.74 6.45609 -0.424095 0
M  V30 15521 N 1560.87 0.155222 1.56834 0
M  V30 15522 C 1561.8 -0.777258 2.20184 0
M  V30 15523 C 1562.78 -1.25102 1.15254 0
M  V30 15524 O 1563.97 -1.3071 1.43627 0
M  V30 15525 C 1561.1 -2.01326 2.82993 0
M  V30 15526 C 1560.05 -1.67596 3.93822 0
M  V30 15527 C 1559.38 -2.98529 4.43604 0
M  V30 15528 C 1560.68 -0.916302 5.142 0
M  V30 15529 H 1562.37 -0.249257 2.98361 0
M  V30 15530 H 1559.92 -0.118448 1.43512 0
M  V30 15531 H 1561.87 -2.67048 3.2598 0
M  V30 15532 H 1560.6 -2.56513 2.0216 0
M  V30 15533 H 1559.26 -1.0425 3.51465 0
M  V30 15534 H 1558.9 -3.51723 3.59583 0
M  V30 15535 H 1558.6 -2.76721 5.18362 0
M  V30 15536 H 1560.13 -3.65308 4.89267 0
M  V30 15537 H 1561.54 -1.47577 5.5398 0
M  V30 15538 H 1559.94 -0.797856 5.94772 0
M  V30 15539 H 1561.01 0.0904351 4.84816 0
M  V30 15540 N 1562.35 -1.57153 -0.118549 0
M  V30 15541 C 1563.6 -1.84511 -0.824623 0
M  V30 15542 C 1563.92 -0.740473 -1.80394 0
M  V30 15543 O 1563.19 0.235481 -1.9448 0
M  V30 15544 H 1561.77 -0.680764 -0.307522 0
M  V30 15545 H 1564.43 -1.94613 -0.105764 0
M  V30 15546 H 1563.53 -2.80444 -1.36958 0
M  V30 15547 N 1563.83 0.388742 -1.5273 0
M  V30 15548 C 1565.08 1.13543 -1.68035 0
M  V30 15549 C 1565.41 1.89622 -0.419177 0
M  V30 15550 O 1564.68 1.85556 0.583031 0
M  V30 15551 C 1564.97 2.11346 -2.91556 0
M  V30 15552 C 1564.82 1.39029 -4.27775 0
M  V30 15553 C 1566.14 3.11769 -3.10625 0
M  V30 15554 H 1563.26 0.411406 -0.611485 0
M  V30 15555 H 1565.9 0.418781 -1.85327 0
M  V30 15556 H 1564.05 2.7246 -2.76944 0
M  V30 15557 H 1565.72 0.808775 -4.54155 0
M  V30 15558 H 1563.96 0.692133 -4.28243 0
M  V30 15559 H 1564.64 2.10495 -5.1029 0
M  V30 15560 H 1567.11 2.60745 -3.2427 0
M  V30 15561 H 1565.99 3.77447 -3.98529 0
M  V30 15562 H 1566.25 3.80649 -2.24853 0
M  V30 15563 N 1565.31 1.43698 0.647203 0
M  V30 15564 C 1566.55 1.45849 1.40911 0
M  V30 15565 C 1566.89 0.0846767 1.94015 0
M  V30 15566 O 1566.16 -0.89537 1.72665 0
M  V30 15567 C 1566.44 2.50579 2.58616 0
M  V30 15568 C 1566.3 3.97258 2.10965 0
M  V30 15569 C 1567.62 2.51981 3.60824 0
M  V30 15570 H 1564.74 0.531056 0.511027 0
M  V30 15571 H 1567.38 1.75283 0.733204 0
M  V30 15572 H 1565.53 2.25611 3.16278 0
M  V30 15573 H 1567.2 4.33304 1.58257 0
M  V30 15574 H 1565.44 4.09802 1.42284 0
M  V30 15575 H 1566.11 4.6616 2.95633 0
M  V30 15576 H 1568.59 2.7425 3.12932 0
M  V30 15577 H 1567.47 3.27191 4.40723 0
M  V30 15578 H 1567.73 1.55582 4.1382 0
M  V30 15579 N 1566.79 -0.886131 1.30328 0
M  V30 15580 C 1567.72 -2.00793 1.19183 0
M  V30 15581 C 1568.7 -1.69899 0.08276 0
M  V30 15582 O 1569.88 -1.92389 0.264593 0
M  V30 15583 C 1567.01 -3.35922 0.881669 0
M  V30 15584 C 1565.97 -3.81072 1.94855 0
M  V30 15585 C 1565.29 -5.1348 1.4914 0
M  V30 15586 C 1566.59 -3.99923 3.35944 0
M  V30 15587 H 1568.29 -2.10375 2.13032 0
M  V30 15588 H 1565.83 -1.0108 1.02561 0
M  V30 15589 H 1567.79 -4.13922 0.790359 0
M  V30 15590 H 1566.51 -3.26469 -0.0925037 0
M  V30 15591 H 1565.17 -3.053 2.02947 0
M  V30 15592 H 1564.82 -5.00453 0.50553 0
M  V30 15593 H 1564.52 -5.44659 2.205 0
M  V30 15594 H 1566.04 -5.94005 1.41386 0
M  V30 15595 H 1567.45 -4.68364 3.30617 0
M  V30 15596 H 1565.85 -4.42477 4.05381 0
M  V30 15597 H 1566.92 -3.03816 3.77921 0
M  V30 15598 N 1568.26 -1.13026 -1.09832 0
M  V30 15599 C 1569.19 -0.826338 -2.18389 0
M  V30 15600 C 1570.18 0.212529 -1.68767 0
M  V30 15601 O 1571.36 0.072363 -1.94065 0
M  V30 15602 C 1568.49 -0.286991 -3.46112 0
M  V30 15603 C 1567.44 -1.25963 -4.09044 0
M  V30 15604 C 1566.77 -0.580231 -5.31542 0
M  V30 15605 C 1568.07 -2.61661 -4.5203 0
M  V30 15606 H 1569.76 -1.73408 -2.4407 0
M  V30 15607 H 1567.31 -0.835201 -1.17305 0
M  V30 15608 H 1569.26 -0.062067 -4.21354 0
M  V30 15609 H 1567.99 0.656121 -3.19942 0
M  V30 15610 H 1566.65 -1.47047 -3.35816 0
M  V30 15611 H 1566.29 0.368222 -5.0165 0
M  V30 15612 H 1565.99 -1.2291 -5.74601 0
M  V30 15613 H 1567.52 -0.36449 -6.09511 0
M  V30 15614 H 1568.93 -2.44569 -5.18516 0
M  V30 15615 H 1567.33 -3.22685 -5.05959 0
M  V30 15616 H 1568.4 -3.19637 -3.64637 0
M  V30 15617 N 1569.74 1.27735 -0.923117 0
M  V30 15618 C 1570.71 2.25256 -0.423375 0
M  V30 15619 C 1571.71 1.54213 0.455517 0
M  V30 15620 O 1572.9 1.7229 0.257245 0
M  V30 15621 C 1570.03 3.3864 0.391897 0
M  V30 15622 H 1571.22 2.70978 -1.28495 0
M  V30 15623 H 1568.77 1.39579 -0.703378 0
M  V30 15624 H 1569.51 2.98293 1.27248 0
M  V30 15625 H 1569.29 3.91376 -0.238194 0
M  V30 15626 H 1570.78 4.11133 0.732069 0
M  V30 15627 N 1571.22 0.688118 1.41784 0
M  V30 15628 C 1572.47 0.213085 2.00571 0
M  V30 15629 C 1572.78 -1.19176 1.55101 0
M  V30 15630 O 1573.99 -1.76387 2.06397 0
M  V30 15631 C 1572.44 0.330075 3.58383 0
M  V30 15632 C 1572.05 1.73981 4.12837 0
M  V30 15633 C 1573.8 -0.0855651 4.24414 0
M  V30 15634 C 1571.7 1.80886 5.63058 0
M  V30 15635 H 1570.63 0.075906 0.750169 0
M  V30 15636 H 1573.28 0.855236 1.62351 0
M  V30 15637 H 1571.67 -0.380199 3.94171 0
M  V30 15638 H 1572.84 2.47825 3.88484 0
M  V30 15639 H 1571.16 2.10447 3.59306 0
M  V30 15640 H 1573.75 -0.0543142 5.34672 0
M  V30 15641 H 1574.1 -1.12307 4.00865 0
M  V30 15642 H 1574.63 0.574169 3.93635 0
M  V30 15643 H 1571.37 2.82663 5.91424 0
M  V30 15644 H 1570.89 1.11417 5.89361 0
M  V30 15645 H 1572.57 1.56835 6.27704 0
M  V30 15646 N 1572.7 -1.51554 0.432352 0
M  V30 15647 C 1573.95 -2.02044 -0.135779 0
M  V30 15648 C 1574.27 -1.31679 -1.43147 0
M  V30 15649 O 1573.53 -0.418849 -1.91165 0
M  V30 15650 C 1573.83 -3.55076 -0.406915 0
M  V30 15651 C 1573.49 -4.43704 0.802356 0
M  V30 15652 C 1572.16 -4.67647 1.134 0
M  V30 15653 C 1574.51 -4.95733 1.6093 0
M  V30 15654 C 1571.84 -5.40865 2.27335 0
M  V30 15655 C 1574.19 -5.702 2.73961 0
M  V30 15656 C 1572.85 -5.92408 3.07585 0
M  V30 15657 H 1572.12 -0.739332 -0.0496851 0
M  V30 15658 H 1574.77 -1.82552 0.578528 0
M  V30 15659 H 1573.07 -3.72872 -1.20306 0
M  V30 15660 H 1574.77 -3.91673 -0.859839 0
M  V30 15661 H 1571.36 -4.25261 0.533923 0
M  V30 15662 H 1575.54 -4.77123 1.3663 0
M  V30 15663 H 1570.8 -5.56276 2.53706 0
M  V30 15664 H 1574.97 -6.09506 3.36861 0
M  V30 15665 H 1572.6 -6.48923 3.95984 0
M  V30 15666 N 1574.18 -0.163538 -1.56749 0
M  V30 15667 C 1575.42 0.48412 -1.96937 0
M  V30 15668 C 1575.76 1.63418 -1.04919 0
M  V30 15669 O 1575.03 1.94269 -0.094783 0
M  V30 15670 C 1575.31 0.974532 -3.46663 0
M  V30 15671 C 1575.17 -0.175173 -4.49459 0
M  V30 15672 C 1576.49 1.85082 -3.9929 0
M  V30 15673 H 1573.6 0.174503 -0.716043 0
M  V30 15674 H 1576.25 -0.248103 -1.88373 0
M  V30 15675 H 1574.4 1.59849 -3.54091 0
M  V30 15676 H 1576.07 -0.812038 -4.54096 0
M  V30 15677 H 1574.31 -0.831853 -4.2575 0
M  V30 15678 H 1574.98 0.20996 -5.51601 0
M  V30 15679 H 1577.46 1.32488 -3.94444 0
M  V30 15680 H 1576.33 2.163 -5.04485 0
M  V30 15681 H 1576.6 2.79378 -3.42638 0
M  V30 15682 N 1575.65 1.57214 0.110213 0
M  V30 15683 C 1576.62 2.00034 1.11888 0
M  V30 15684 C 1577.62 0.891697 1.33811 0
M  V30 15685 O 1578.81 1.15754 1.3018 0
M  V30 15686 C 1575.94 2.34806 2.47142 0
M  V30 15687 H 1577.13 2.90354 0.750647 0
M  V30 15688 H 1574.69 1.5222 0.35479 0
M  V30 15689 H 1575.42 1.47393 2.8887 0
M  V30 15690 H 1575.21 3.15671 2.32581 0
M  V30 15691 H 1576.7 2.68644 3.19719 0
M  V30 15692 N 1577.13 -0.380637 1.52934 0
M  V30 15693 C 1578.06 -1.47174 1.81279 0
M  V30 15694 C 1579.04 -1.56549 0.665319 0
M  V30 15695 O 1580.23 -1.71362 0.913722 0
M  V30 15696 C 1577.36 -2.84691 1.98918 0
M  V30 15697 C 1576.31 -2.90151 3.14637 0
M  V30 15698 C 1575.64 -4.30198 3.17544 0
M  V30 15699 C 1576.94 -2.59037 4.53539 0
M  V30 15700 H 1578.63 -1.23703 2.7265 0
M  V30 15701 H 1576.18 -0.593654 1.31194 0
M  V30 15702 H 1578.13 -3.61034 2.1733 0
M  V30 15703 H 1576.86 -3.09517 1.04244 0
M  V30 15704 H 1575.51 -2.16257 2.96021 0
M  V30 15705 H 1575.16 -4.52076 2.20536 0
M  V30 15706 H 1574.86 -4.3477 3.95284 0
M  V30 15707 H 1576.39 -5.08435 3.38121 0
M  V30 15708 H 1577.8 -3.25096 4.72214 0
M  V30 15709 H 1576.2 -2.74946 5.33408 0
M  V30 15710 H 1577.27 -1.54342 4.59681 0
M  V30 15711 N 1578.61 -1.44039 -0.639573 0
M  V30 15712 C 1579.86 -1.46377 -1.39928 0
M  V30 15713 C 1580.19 -0.0931685 -1.94277 0
M  V30 15714 O 1579.44 0.903841 -1.73578 0
M  V30 15715 C 1579.74 -2.46459 -2.5883 0
M  V30 15716 C 1579.41 -3.91998 -2.2282 0
M  V30 15717 C 1578.07 -4.31633 -2.12712 0
M  V30 15718 C 1580.42 -4.83656 -1.94232 0
M  V30 15719 C 1577.75 -5.60863 -1.72191 0
M  V30 15720 C 1580.1 -6.13265 -1.55206 0
M  V30 15721 C 1578.76 -6.51863 -1.43633 0
M  V30 15722 H 1578.03 -0.535633 -0.512034 0
M  V30 15723 H 1580.68 -1.77202 -0.72607 0
M  V30 15724 H 1578.99 -2.09087 -3.31345 0
M  V30 15725 H 1580.68 -2.45518 -3.17052 0
M  V30 15726 H 1577.27 -3.60636 -2.31602 0
M  V30 15727 H 1581.46 -4.53796 -2.00955 0
M  V30 15728 H 1576.71 -5.89595 -1.61828 0
M  V30 15729 H 1580.89 -6.83752 -1.32121 0
M  V30 15730 H 1578.51 -7.51903 -1.12006 0
M  V30 15731 N 1580.09 0.879207 -1.30796 0
M  V30 15732 C 1581.34 1.6315 -1.19951 0
M  V30 15733 C 1581.66 1.92958 0.244468 0
M  V30 15734 O 1580.92 1.55316 1.19061 0
M  V30 15735 C 1581.22 2.97578 -1.97945 0
M  V30 15736 C 1580.88 2.873 -3.47519 0
M  V30 15737 C 1579.55 2.84204 -3.88306 0
M  V30 15738 C 1581.9 2.75006 -4.42743 0
M  V30 15739 C 1579.23 2.6666 -5.22599 0
M  V30 15740 C 1581.58 2.59 -5.7715 0
M  V30 15741 C 1580.24 2.54282 -6.17168 0
M  V30 15742 H 1579.51 0.597008 -0.438934 0
M  V30 15743 H 1582.16 1.02179 -1.61962 0
M  V30 15744 H 1580.46 3.62532 -1.48587 0
M  V30 15745 H 1582.16 3.54759 -1.86941 0
M  V30 15746 H 1578.75 2.90522 -3.15111 0
M  V30 15747 H 1582.93 2.7646 -4.12169 0
M  V30 15748 H 1578.19 2.61426 -5.5269 0
M  V30 15749 H 1582.36 2.48462 -6.50568 0
M  V30 15750 H 1579.99 2.40446 -7.21172 0
M  V30 15751 N 1581.57 1.13606 1.09231 0
M  V30 15752 C 1582.5 0.837908 2.17948 0
M  V30 15753 C 1583.48 -0.203575 1.68877 0
M  V30 15754 O 1584.66 -0.0620702 1.94101 0
M  V30 15755 C 1581.79 0.305342 3.45955 0
M  V30 15756 C 1580.75 1.2813 4.08371 0
M  V30 15757 C 1580.07 0.608412 5.31227 0
M  V30 15758 C 1581.37 2.64055 4.50636 0
M  V30 15759 H 1583.07 1.747 2.43147 0
M  V30 15760 H 1580.61 0.84141 1.1686 0
M  V30 15761 H 1582.57 0.0844116 4.21315 0
M  V30 15762 H 1581.29 -0.639144 3.20285 0
M  V30 15763 H 1579.95 1.48826 3.35032 0
M  V30 15764 H 1579.6 -0.341613 5.01839 0
M  V30 15765 H 1579.3 1.25956 5.73942 0
M  V30 15766 H 1580.82 0.396809 6.09309 0
M  V30 15767 H 1582.24 2.47316 5.17212 0
M  V30 15768 H 1580.63 3.25364 5.0424 0
M  V30 15769 H 1581.7 3.21566 3.62937 0
M  V30 15770 N 1583.05 -1.27244 0.929878 0
M  V30 15771 C 1584.27 -1.98373 0.587845 0
M  V30 15772 C 1584.69 -1.69349 -0.834638 0
M  V30 15773 O 1584.05 -0.955281 -1.55501 0
M  V30 15774 C 1584.1 -3.52381 0.806843 0
M  V30 15775 O 1583.82 -3.8039 2.17337 0
M  V30 15776 C 1585.32 -4.40761 0.473818 0
M  V30 15777 H 1582.54 -0.633015 0.22256 0
M  V30 15778 H 1585.08 -1.62043 1.2475 0
M  V30 15779 H 1583.24 -3.86914 0.193963 0
M  V30 15780 H 1583.65 -4.74968 2.22498 0
M  V30 15781 H 1585.13 -5.47824 0.677736 0
M  V30 15782 H 1585.6 -4.35209 -0.590734 0
M  V30 15783 H 1586.21 -4.11751 1.06493 0
M  V30 15784 N 1584.52 -0.695628 -1.41417 0
M  V30 15785 C 1585.47 -0.0303383 -2.3078 0
M  V30 15786 C 1586.44 0.771218 -1.4711 0
M  V30 15787 O 1587.63 0.739239 -1.75897 0
M  V30 15788 C 1584.77 0.900034 -3.33157 0
M  V30 15789 C 1583.88 0.0900862 -4.31906 0
M  V30 15790 C 1583.01 1.01811 -5.21352 0
M  V30 15791 C 1582.05 0.201068 -6.1177 0
M  V30 15792 N 1581.19 1.0829 -6.93699 0
M  V30 15793 H 1586.03 -0.798148 -2.87113 0
M  V30 15794 H 1583.57 -0.405311 -1.41406 0
M  V30 15795 H 1585.52 1.45349 -3.91062 0
M  V30 15796 H 1584.15 1.63424 -2.78375 0
M  V30 15797 H 1583.21 -0.58029 -3.75948 0
M  V30 15798 H 1584.52 -0.543336 -4.95832 0
M  V30 15799 H 1583.67 1.64079 -5.84092 0
M  V30 15800 H 1582.41 1.68538 -4.57653 0
M  V30 15801 H 1581.42 -0.434686 -5.48079 0
M  V30 15802 H 1582.64 -0.462416 -6.77524 0
M  V30 15803 H 1580.59 1.73619 -6.32608 0
M  V30 15804 H 1580.5 0.505046 -7.54311 0
M  V30 15805 H 1581.77 1.69239 -7.60906 0
M  V30 15806 N 1586 1.51322 -0.440383 0
M  V30 15807 C 1586.95 2.27823 0.369526 0
M  V30 15808 C 1587.92 1.31543 1.01418 0
M  V30 15809 O 1589.1 1.60449 1.03251 0
M  V30 15810 C 1586.24 3.12553 1.46304 0
M  V30 15811 C 1585.36 4.23829 0.836217 0
M  V30 15812 C 1584.49 4.95865 1.90504 0
M  V30 15813 C 1583.53 5.99058 1.25681 0
M  V30 15814 N 1582.67 6.64489 2.26712 0
M  V30 15815 H 1587.51 2.96593 -0.289205 0
M  V30 15816 H 1585.04 1.46287 -0.154466 0
M  V30 15817 H 1587 3.60006 2.10836 0
M  V30 15818 H 1585.63 2.4589 2.09136 0
M  V30 15819 H 1584.68 3.80318 0.0791116 0
M  V30 15820 H 1586 4.97753 0.322989 0
M  V30 15821 H 1585.15 5.46881 2.6269 0
M  V30 15822 H 1583.89 4.21578 2.452 0
M  V30 15823 H 1582.89 5.47331 0.520422 0
M  V30 15824 H 1584.12 6.75303 0.717138 0
M  V30 15825 H 1582.07 5.93014 2.80483 0
M  V30 15826 H 1581.98 7.34188 1.80289 0
M  V30 15827 H 1583.25 7.20134 2.98373 0
M  V30 15828 N 1587.48 0.171848 1.5666 0
M  V30 15829 C 1588.9 -0.184312 1.58532 0
M  V30 15830 C 1589.1 -1.62811 1.18721 0
M  V30 15831 O 1588.15 -2.35951 0.899066 0
M  V30 15832 C 1589.46 0.0969826 3.00544 0
M  V30 15833 C 1591.01 0.0352364 3.1298 0
M  V30 15834 C 1591.49 0.289528 4.57084 0
M  V30 15835 N 1592.98 0.237322 4.62592 0
M  V30 15836 C 1593.71 0.408247 5.71945 0
M  V30 15837 N 1593.21 0.638256 6.89854 0
M  V30 15838 N 1595 0.344115 5.61046 0
M  V30 15839 H 1587.15 1.11427 1.80825 0
M  V30 15840 H 1589.42 0.44302 0.838115 0
M  V30 15841 H 1589.12 1.09717 3.34148 0
M  V30 15842 H 1589 -0.611157 3.72216 0
M  V30 15843 H 1591.38 -0.955531 2.79202 0
M  V30 15844 H 1591.46 0.776095 2.43743 0
M  V30 15845 H 1591.11 1.27751 4.91571 0
M  V30 15846 H 1591.04 -0.471948 5.24481 0
M  V30 15847 H 1593.53 0.0652142 3.77844 0
M  V30 15848 H 1593.84 0.758116 7.69072 0
M  V30 15849 H 1592.19 0.674877 6.91716 0
M  V30 15850 H 1595.38 0.165008 4.67809 0
M  V30 15851 H 1595.55 0.480749 6.46214 0
M  V30 15852 N 1588.96 -1.5727 -0.101874 0
M  V30 15853 C 1590.37 -1.5295 -0.455899 0
M  V30 15854 C 1590.57 -0.887526 -1.80901 0
M  V30 15855 O 1589.63 -0.477143 -2.47951 0
M  V30 15856 C 1590.94 -2.97687 -0.424625 0
M  V30 15857 C 1592.49 -3.08867 -0.506963 0
M  V30 15858 C 1592.97 -4.55197 -0.505907 0
M  V30 15859 N 1594.46 -4.59718 -0.566856 0
M  V30 15860 C 1595.19 -5.7038 -0.587766 0
M  V30 15861 N 1594.69 -6.9049 -0.56529 0
M  V30 15862 N 1596.48 -5.58535 -0.632067 0
M  V30 15863 H 1588.63 -1.97381 0.784509 0
M  V30 15864 H 1590.89 -0.902141 0.291284 0
M  V30 15865 H 1590.6 -3.48094 0.502312 0
M  V30 15866 H 1590.47 -3.56022 -1.24612 0
M  V30 15867 H 1592.86 -2.58451 -1.42432 0
M  V30 15868 H 1592.94 -2.53496 0.342544 0
M  V30 15869 H 1592.59 -5.06263 0.407477 0
M  V30 15870 H 1592.52 -5.08399 -1.37253 0
M  V30 15871 H 1595.01 -3.73271 -0.589696 0
M  V30 15872 H 1595.32 -7.70588 -0.584342 0
M  V30 15873 H 1593.67 -6.92957 -0.532444 0
M  V30 15874 H 1596.86 -4.63606 -0.647109 0
M  V30 15875 H 1597.03 -6.44783 -0.644895 0
M  V30 15876 N 1590.44 0.372521 -1.53134 0
M  V30 15877 C 1591.37 1.4759 -1.75357 0
M  V30 15878 C 1592.38 1.49938 -0.634223 0
M  V30 15879 O 1593.57 1.53543 -0.910322 0
M  V30 15880 C 1590.67 2.86382 -1.81214 0
M  V30 15881 C 1589.84 3.0781 -3.1076 0
M  V30 15882 C 1588.9 4.26677 -3.07949 0
M  V30 15883 O 1587.93 4.22186 -3.81769 0
M  V30 15884 N 1589.13 5.33729 -2.28283 0
M  V30 15885 H 1591.89 1.28908 -2.7056 0
M  V30 15886 H 1589.46 0.562186 -1.51826 0
M  V30 15887 H 1591.45 3.64029 -1.7682 0
M  V30 15888 H 1590.02 2.98344 -0.933249 0
M  V30 15889 H 1589.24 2.17884 -3.28512 0
M  V30 15890 H 1590.53 3.18991 -3.96386 0
M  V30 15891 H 1589.92 5.40238 -1.67806 0
M  V30 15892 H 1588.48 6.09979 -2.29714 0
M  V30 15893 N 1591.91 1.44376 0.631925 0
M  V30 15894 C 1593.33 1.28245 0.950014 0
M  V30 15895 C 1593.53 0.217644 2.00321 0
M  V30 15896 O 1592.59 -0.396736 2.49364 0
M  V30 15897 C 1593.9 2.65378 1.41404 0
M  V30 15898 C 1595.45 2.73081 1.52956 0
M  V30 15899 C 1595.92 4.10682 2.02742 0
M  V30 15900 N 1597.41 4.12854 2.10014 0
M  V30 15901 C 1598.15 5.16173 2.49705 0
M  V30 15902 N 1597.64 6.29855 2.88539 0
M  V30 15903 N 1599.44 5.03528 2.49832 0
M  V30 15904 H 1591.59 2.12302 -0.0646167 0
M  V30 15905 H 1593.85 0.9474 0.0337162 0
M  V30 15906 H 1593.56 3.44366 0.714476 0
M  V30 15907 H 1593.43 2.92213 2.3852 0
M  V30 15908 H 1595.82 1.94412 2.22009 0
M  V30 15909 H 1595.9 2.49988 0.542176 0
M  V30 15910 H 1595.54 4.89827 1.34285 0
M  V30 15911 H 1595.47 4.31152 3.02351 0
M  V30 15912 H 1597.96 3.30806 1.8269 0
M  V30 15913 H 1598.28 7.04505 3.17637 0
M  V30 15914 H 1596.62 6.33294 2.86293 0
M  V30 15915 H 1599.81 4.13773 2.18883 0
M  V30 15916 H 1599.99 5.84172 2.80441 0
M  V30 15917 N 1593.39 -0.872258 1.31261 0
M  V30 15918 C 1594.32 -1.9853 1.14537 0
M  V30 15919 C 1595.34 -1.62578 0.0850723 0
M  V30 15920 O 1596.53 -1.75379 0.332343 0
M  V30 15921 C 1593.63 -3.31005 0.72727 0
M  V30 15922 C 1592.8 -3.95313 1.87208 0
M  V30 15923 C 1591.86 -5.06101 1.44042 0
M  V30 15924 O 1590.88 -5.27045 2.1497 0
M  V30 15925 N 1592.09 -5.79581 0.32653 0
M  V30 15926 H 1594.85 -2.13423 2.10406 0
M  V30 15927 H 1592.41 -1.0461 1.23565 0
M  V30 15928 H 1594.4 -4.02502 0.421255 0
M  V30 15929 H 1592.97 -3.12287 -0.13975 0
M  V30 15930 H 1592.19 -3.16825 2.34553 0
M  V30 15931 H 1593.48 -4.35015 2.63893 0
M  V30 15932 H 1592.88 -5.65083 -0.264202 0
M  V30 15933 H 1591.44 -6.51751 0.0800358 0
M  V30 15934 N 1594.87 -1.14184 -1.08627 0
M  V30 15935 C 1596.29 -0.881757 -1.33031 0
M  V30 15936 C 1596.49 0.478313 -1.95741 0
M  V30 15937 O 1595.54 1.22308 -2.209 0
M  V30 15938 C 1596.85 -2.01274 -2.23404 0
M  V30 15939 C 1598.4 -2.04578 -2.3689 0
M  V30 15940 C 1598.88 -3.16962 -3.30604 0
M  V30 15941 N 1600.37 -3.16526 -3.3818 0
M  V30 15942 C 1601.1 -4.00124 -4.10716 0
M  V30 15943 N 1600.6 -4.93757 -4.8598 0
M  V30 15944 N 1602.39 -3.88193 -4.06525 0
M  V30 15945 H 1594.54 -2.01787 -0.663017 0
M  V30 15946 H 1596.81 -0.879152 -0.354677 0
M  V30 15947 H 1596.51 -2.9938 -1.84566 0
M  V30 15948 H 1596.39 -1.93393 -3.2385 0
M  V30 15949 H 1598.77 -1.0708 -2.74987 0
M  V30 15950 H 1598.85 -2.16529 -1.36194 0
M  V30 15951 H 1598.5 -4.14704 -2.93228 0
M  V30 15952 H 1598.43 -3.02248 -4.31223 0
M  V30 15953 H 1600.92 -2.48708 -2.84522 0
M  V30 15954 H 1601.23 -5.54015 -5.38783 0
M  V30 15955 H 1599.58 -4.97756 -4.8504 0
M  V30 15956 H 1602.77 -3.14365 -3.46831 0
M  V30 15957 H 1602.94 -4.53571 -4.62793 0
M  V30 15958 N 1596.35 1.26749 -0.936613 0
M  V30 15959 C 1597.28 2.2892 -0.460213 0
M  V30 15960 C 1598.26 1.63065 0.484135 0
M  V30 15961 O 1599.44 1.90305 0.386973 0
M  V30 15962 C 1596.57 3.46172 0.279648 0
M  V30 15963 C 1595.53 4.24083 -0.57771 0
M  V30 15964 C 1594.85 5.33903 0.291843 0
M  V30 15965 C 1596.15 4.88562 -1.84673 0
M  V30 15966 H 1597.85 2.69019 -1.31412 0
M  V30 15967 H 1595.39 1.29325 -0.633333 0
M  V30 15968 H 1597.35 4.16755 0.623931 0
M  V30 15969 H 1596.07 3.05014 1.16765 0
M  V30 15970 H 1594.73 3.55258 -0.904824 0
M  V30 15971 H 1594.38 4.88986 1.17906 0
M  V30 15972 H 1594.08 5.8694 -0.278372 0
M  V30 15973 H 1595.6 6.07326 0.631498 0
M  V30 15974 H 1597.02 5.51384 -1.56997 0
M  V30 15975 H 1595.41 5.51697 -2.36115 0
M  V30 15976 H 1596.48 4.11761 -2.56088 0
M  V30 15977 N 1597.83 0.703118 1.41046 0
M  V30 15978 C 1598.79 0.0514476 2.29142 0
M  V30 15979 C 1599.79 -0.700223 1.44753 0
M  V30 15980 O 1600.98 -0.533985 1.65814 0
M  V30 15981 C 1598.11 -0.93735 3.2776 0
M  V30 15982 H 1599.3 0.827201 2.88266 0
M  V30 15983 H 1596.86 0.467045 1.49159 0
M  V30 15984 H 1597.59 -1.7406 2.7363 0
M  V30 15985 H 1597.38 -0.4014 3.9004 0
M  V30 15986 H 1598.87 -1.39088 3.93757 0
M  V30 15987 N 1599.3 -1.51086 0.448402 0
M  V30 15988 C 1600.55 -2.02476 -0.114511 0
M  V30 15989 C 1600.88 -1.33126 -1.4139 0
M  V30 15990 O 1600.16 -0.449665 -1.89231 0
M  V30 15991 C 1600.44 -3.58659 -0.321842 0
M  V30 15992 C 1600.29 -4.38612 0.996975 0
M  V30 15993 C 1601.61 -4.26473 -1.08667 0
M  V30 15994 H 1598.73 -0.735906 -0.0401431 0
M  V30 15995 H 1601.37 -1.80622 0.589563 0
M  V30 15996 H 1599.52 -3.77411 -0.92157 0
M  V30 15997 H 1601.2 -4.31484 1.63154 0
M  V30 15998 H 1599.44 -4.03255 1.599 0
M  V30 15999 H 1600.11 -5.46087 0.805817 0
M  V30 16000 H 1602.59 -4.12058 -0.578559 0
M  V30 16001 H 1601.46 -5.35611 -1.20051 0
M  V30 16002 H 1601.72 -3.88086 -2.11758 0
M  V30 16003 N 1600.78 -0.180154 -1.56567 0
M  V30 16004 C 1602.01 0.471692 -2.01965 0
M  V30 16005 C 1602.43 1.5542 -1.05954 0
M  V30 16006 O 1601.79 1.81255 -0.0405307 0
M  V30 16007 C 1601.84 1.01883 -3.45908 0
M  V30 16008 O 1600.94 2.13245 -3.52988 0
M  V30 16009 H 1600.28 0.11197 -0.654491 0
M  V30 16010 H 1602.81 -0.286642 -2.02582 0
M  V30 16011 H 1602.82 1.33922 -3.85395 0
M  V30 16012 H 1601.5 0.226299 -4.15284 0
M  V30 16013 H 1600.08 1.82184 -3.25367 0
M  V30 16014 N 1602.26 1.57322 0.0935319 0
M  V30 16015 C 1603.49 1.90754 0.814111 0
M  V30 16016 C 1603.91 0.774571 1.71412 0
M  V30 16017 O 1603.27 -0.273775 1.79221 0
M  V30 16018 C 1603.32 3.23055 1.60211 0
M  V30 16019 O 1602.42 3.10755 2.71118 0
M  V30 16020 H 1601.76 0.625237 0.223552 0
M  V30 16021 H 1604.29 2.04486 0.068288 0
M  V30 16022 H 1604.3 3.56401 1.986 0
M  V30 16023 H 1602.98 4.05101 0.941607 0
M  V30 16024 H 1601.55 2.88926 2.35745 0
M  V30 16025 N 1603.74 -0.364395 1.53329 0
M  V30 16026 C 1605.15 -0.706147 1.43128 0
M  V30 16027 C 1605.35 -1.93231 0.571307 0
M  V30 16028 O 1604.41 -2.52442 0.0542079 0
M  V30 16029 C 1605.72 -0.918245 2.86337 0
M  V30 16030 C 1607.27 -1.01818 2.95976 0
M  V30 16031 C 1607.75 -1.26274 4.40249 0
M  V30 16032 N 1609.24 -1.33042 4.43683 0
M  V30 16033 C 1609.97 -1.53677 5.52423 0
M  V30 16034 N 1609.47 -1.7162 6.71207 0
M  V30 16035 N 1611.26 -1.56056 5.40003 0
M  V30 16036 H 1603.41 0.442091 2.07748 0
M  V30 16037 H 1605.68 0.135735 0.938232 0
M  V30 16038 H 1605.38 -0.0890628 3.51587 0
M  V30 16039 H 1605.26 -1.826 3.30056 0
M  V30 16040 H 1607.64 -1.83791 2.30879 0
M  V30 16041 H 1607.72 -0.0877892 2.55649 0
M  V30 16042 H 1607.37 -0.448026 5.0592 0
M  V30 16043 H 1607.3 -2.20637 4.78149 0
M  V30 16044 H 1609.79 -1.20784 3.58078 0
M  V30 16045 H 1610.1 -1.86942 7.49848 0
M  V30 16046 H 1608.45 -1.68797 6.7419 0
M  V30 16047 H 1611.64 -1.41605 4.46168 0
M  V30 16048 H 1611.81 -1.71796 6.24812 0
M  V30 16049 N 1605.22 -1.44709 -0.62426 0
M  V30 16050 C 1606.46 -1.47561 -1.38094 0
M  V30 16051 C 1606.79 -0.112115 -1.94677 0
M  V30 16052 O 1606.06 0.856458 -1.76186 0
M  V30 16053 H 1604.64 -0.543368 -0.512601 0
M  V30 16054 H 1607.3 -1.8054 -0.734258 0
M  V30 16055 H 1606.39 -2.20496 -2.2088 0
M  V30 16056 N 1606.69 0.865285 -1.31722 0
M  V30 16057 C 1607.6 2.00542 -1.21738 0
M  V30 16058 C 1608.62 1.7349 -0.133124 0
M  V30 16059 O 1609.8 1.98303 -0.351809 0
M  V30 16060 C 1606.86 3.33993 -0.930045 0
M  V30 16061 C 1605.92 3.74337 -2.10167 0
M  V30 16062 C 1605.16 5.0142 -1.82795 0
M  V30 16063 O 1605.38 5.65242 -0.765345 0
M  V30 16064 O 1604.31 5.38642 -2.68604 0
M  V30 16065 H 1608.14 2.11898 -2.17561 0
M  V30 16066 H 1605.72 0.994313 -1.11507 0
M  V30 16067 H 1607.61 4.14008 -0.785846 0
M  V30 16068 H 1606.28 3.237 -0.00188642 0
M  V30 16069 H 1605.19 2.94943 -2.3013 0
M  V30 16070 H 1606.52 3.89261 -3.01225 0
M  V30 16071 N 1608.17 1.14759 1.0802 0
M  V30 16072 C 1609.12 0.833824 2.17141 0
M  V30 16073 C 1610.11 -0.189939 1.68332 0
M  V30 16074 O 1611.32 -0.0456447 1.79942 0
M  V30 16075 H 1607.7 0.251944 0.70854 0
M  V30 16076 H 1609.67 1.76196 2.40827 0
M  V30 16077 C 1608.42 0.33203 3.46111 0
M  V30 16078 H 1607.74 1.11117 3.84048 0
M  V30 16079 H 1609.18 0.151078 4.23731 0
M  V30 16080 C 1607.64 -0.945153 3.2337 0
M  V30 16081 O 1608.17 -2.0181 3.47326 0
M  V30 16082 N 1606.37 -0.881963 2.76893 0
M  V30 16083 H 1605.92 -0.00865768 2.57599 0
M  V30 16084 H 1605.88 -1.73706 2.62056 0
M  V30 16085 N 1609.65 -1.26251 0.943322 0
M  V30 16086 C 1610.58 -2.28673 0.472347 0
M  V30 16087 C 1611.56 -1.63319 -0.475481 0
M  V30 16088 O 1612.75 -1.90508 -0.376875 0
M  V30 16089 C 1609.88 -3.46316 -0.261286 0
M  V30 16090 C 1608.83 -4.23771 0.600192 0
M  V30 16091 C 1608.16 -5.3405 -0.263525 0
M  V30 16092 C 1609.46 -4.87576 1.87262 0
M  V30 16093 H 1611.15 -2.68319 1.32836 0
M  V30 16094 H 1608.7 -1.28987 0.640182 0
M  V30 16095 H 1610.65 -4.1708 -0.601821 0
M  V30 16096 H 1609.37 -3.05629 -1.15146 0
M  V30 16097 H 1608.03 -3.54774 0.923651 0
M  V30 16098 H 1607.68 -4.89604 -1.15312 0
M  V30 16099 H 1607.38 -5.86784 0.309495 0
M  V30 16100 H 1608.9 -6.07652 -0.599281 0
M  V30 16101 H 1610.32 -5.50544 1.59919 0
M  V30 16102 H 1608.72 -5.50437 2.39038 0
M  V30 16103 H 1609.79 -4.10397 2.58268 0
M  V30 16104 N 1611.13 -0.710588 -1.40671 0
M  V30 16105 C 1612.38 -0.248316 -2.01274 0
M  V30 16106 C 1612.71 1.1539 -1.56201 0
M  V30 16107 O 1611.98 1.78182 -0.779838 0
M  V30 16108 C 1612.27 -0.322762 -3.58651 0
M  V30 16109 C 1612.12 -1.763 -4.1381 0
M  V30 16110 C 1613.44 0.308908 -4.39015 0
M  V30 16111 H 1610.56 -0.0917037 -0.731272 0
M  V30 16112 H 1613.2 -0.902145 -1.67216 0
M  V30 16113 H 1611.35 0.233923 -3.87795 0
M  V30 16114 H 1613.02 -2.37468 -3.95483 0
M  V30 16115 H 1611.26 -2.29233 -3.68286 0
M  V30 16116 H 1611.94 -1.76652 -5.22971 0
M  V30 16117 H 1614.41 -0.165363 -4.15771 0
M  V30 16118 H 1613.29 0.226347 -5.48433 0
M  V30 16119 H 1613.55 1.39174 -4.19622 0
M  V30 16120 N 1612.61 1.50847 -0.456408 0
M  V30 16121 C 1613.56 2.25081 0.363678 0
M  V30 16122 C 1614.54 1.28071 0.973991 0
M  V30 16123 O 1615.73 1.53056 0.888972 0
M  V30 16124 C 1612.86 3.11011 1.45352 0
M  V30 16125 C 1611.95 4.15461 0.851665 0
M  V30 16126 N 1612.34 5.05796 -0.0192612 0
M  V30 16127 C 1610.64 4.31781 1.11721 0
M  V30 16128 C 1611.34 5.80589 -0.359309 0
M  V30 16129 N 1610.31 5.42969 0.26187 0
M  V30 16130 H 1614.12 2.92287 -0.307467 0
M  V30 16131 H 1611.63 1.60146 -0.269642 0
M  V30 16132 H 1613.63 3.62786 2.05407 0
M  V30 16133 H 1612.29 2.45351 2.12681 0
M  V30 16134 H 1613.3 5.16452 -0.38707 0
M  V30 16135 H 1609.98 3.77343 1.78657 0
M  V30 16136 H 1611.37 6.63339 -1.06919 0
M  V30 16137 N 1614.09 0.188454 1.56469 0
M  V30 16138 C 1615.02 -0.766806 2.15992 0
M  V30 16139 C 1616.03 -1.18153 1.11998 0
M  V30 16140 O 1617.22 -1.11842 1.39118 0
M  V30 16141 C 1614.32 -2.04594 2.70175 0
M  V30 16142 C 1613.49 -1.79207 3.99003 0
M  V30 16143 C 1612.55 -2.91504 4.38078 0
M  V30 16144 O 1611.58 -2.61397 5.05628 0
M  V30 16145 N 1612.78 -4.19702 4.01037 0
M  V30 16146 H 1615.54 -0.257829 2.98589 0
M  V30 16147 H 1613.11 0.00625645 1.61899 0
M  V30 16148 H 1615.1 -2.78846 2.93303 0
M  V30 16149 H 1613.67 -2.46633 1.9207 0
M  V30 16150 H 1612.89 -0.88769 3.84075 0
M  V30 16151 H 1614.18 -1.59634 4.83109 0
M  V30 16152 H 1613.57 -4.47016 3.46689 0
M  V30 16153 H 1612.13 -4.90602 4.2913 0
M  V30 16154 N 1615.56 -1.5737 -0.0851874 0
M  V30 16155 C 1616.81 -1.85772 -0.785604 0
M  V30 16156 C 1617.13 -0.779172 -1.79411 0
M  V30 16157 O 1618.33 -0.950621 -2.54314 0
M  V30 16158 C 1616.79 -3.29484 -1.44805 0
M  V30 16159 C 1616.4 -4.45434 -0.478799 0
M  V30 16160 C 1618.14 -3.671 -2.13161 0
M  V30 16161 C 1616.05 -5.80183 -1.1464 0
M  V30 16162 H 1614.98 -0.69298 -0.297145 0
M  V30 16163 H 1617.63 -1.83459 -0.0386776 0
M  V30 16164 H 1616.01 -3.26367 -2.24278 0
M  V30 16165 H 1617.18 -4.59917 0.285148 0
M  V30 16166 H 1615.5 -4.16281 0.0995964 0
M  V30 16167 H 1618.1 -4.65061 -2.6386 0
M  V30 16168 H 1618.44 -2.96223 -2.92503 0
M  V30 16169 H 1618.97 -3.72148 -1.40536 0
M  V30 16170 H 1615.71 -6.54317 -0.393583 0
M  V30 16171 H 1615.23 -5.69525 -1.88153 0
M  V30 16172 H 1616.91 -6.25074 -1.67006 0
M  V30 16173 N 1617.04 0.356258 -1.53521 0
M  V30 16174 C 1617.97 1.45722 -1.76912 0
M  V30 16175 C 1618.99 1.49257 -0.650091 0
M  V30 16176 O 1620.18 1.52569 -0.926557 0
M  V30 16177 C 1617.28 2.84444 -1.84241 0
M  V30 16178 C 1616.45 3.04497 -3.14007 0
M  V30 16179 C 1615.51 4.23387 -3.12458 0
M  V30 16180 O 1614.53 4.18113 -3.86225 0
M  V30 16181 N 1615.74 5.31278 -2.33931 0
M  V30 16182 H 1618.5 1.26031 -2.71912 0
M  V30 16183 H 1616.06 0.546052 -1.52414 0
M  V30 16184 H 1618.05 3.62133 -1.80671 0
M  V30 16185 H 1616.62 2.97338 -0.96484 0
M  V30 16186 H 1615.84 2.14387 -3.30805 0
M  V30 16187 H 1617.13 3.14769 -3.99747 0
M  V30 16188 H 1616.53 5.38428 -1.73527 0
M  V30 16189 H 1615.09 6.07508 -2.36171 0
M  V30 16190 N 1618.52 1.45038 0.616577 0
M  V30 16191 C 1619.75 1.51874 1.40064 0
M  V30 16192 C 1620.16 0.147105 1.88627 0
M  V30 16193 O 1619.5 -0.85995 1.62329 0
M  V30 16194 C 1619.56 2.43421 2.64549 0
M  V30 16195 C 1619.23 3.90326 2.37685 0
M  V30 16196 C 1620.22 4.80471 1.98605 0
M  V30 16197 C 1617.91 4.35163 2.50875 0
M  V30 16198 C 1619.9 6.13456 1.73064 0
M  V30 16199 C 1617.59 5.68192 2.24947 0
M  V30 16200 C 1618.59 6.57157 1.86102 0
M  V30 16201 O 1618.28 7.87721 1.60472 0
M  V30 16202 H 1618.01 0.517048 0.435474 0
M  V30 16203 H 1620.56 1.90826 0.759899 0
M  V30 16204 H 1618.79 1.99423 3.31312 0
M  V30 16205 H 1620.48 2.41042 3.26579 0
M  V30 16206 H 1621.25 4.47098 1.87959 0
M  V30 16207 H 1617.13 3.66165 2.80078 0
M  V30 16208 H 1620.67 6.82855 1.42669 0
M  V30 16209 H 1616.57 6.01122 2.35207 0
M  V30 16210 H 1617.33 7.99661 1.74598 0
M  V30 16211 N 1620 -0.858287 1.32179 0
M  V30 16212 C 1621.41 -1.14591 1.1109 0
M  V30 16213 C 1621.61 -2.01194 -0.110998 0
M  V30 16214 O 1620.67 -2.39593 -0.79695 0
M  V30 16215 C 1621.98 -1.82675 2.38852 0
M  V30 16216 C 1623.53 -1.95326 2.44574 0
M  V30 16217 C 1624.01 -2.66826 3.72247 0
M  V30 16218 N 1625.5 -2.74353 3.73208 0
M  V30 16219 C 1626.23 -3.30317 4.68698 0
M  V30 16220 N 1625.73 -3.87121 5.74552 0
M  V30 16221 N 1627.52 -3.28386 4.562 0
M  V30 16222 H 1619.67 -0.281471 2.10527 0
M  V30 16223 H 1621.93 -0.187326 0.929308 0
M  V30 16224 H 1621.64 -1.26495 3.28165 0
M  V30 16225 H 1621.51 -2.82862 2.49537 0
M  V30 16226 H 1623.9 -2.50668 1.55723 0
M  V30 16227 H 1623.98 -0.94147 2.37844 0
M  V30 16228 H 1623.63 -2.12149 4.61471 0
M  V30 16229 H 1623.56 -3.68437 3.76247 0
M  V30 16230 H 1626.05 -2.34051 2.96696 0
M  V30 16231 H 1626.36 -4.2797 6.43476 0
M  V30 16232 H 1624.71 -3.85463 5.78311 0
M  V30 16233 H 1627.9 -2.83254 3.72672 0
M  V30 16234 H 1628.07 -3.71701 5.30794 0
M  V30 16235 N 1621.48 -1.1533 -1.07409 0
M  V30 16236 C 1622.39 -0.863514 -2.1813 0
M  V30 16237 C 1623.4 0.159954 -1.73263 0
M  V30 16238 O 1624.58 -0.0139818 -2.01395 0
M  V30 16239 C 1621.64 -0.356271 -3.44865 0
M  V30 16240 C 1620.7 -1.44356 -4.04302 0
M  V30 16241 C 1619.94 -0.960429 -5.24987 0
M  V30 16242 O 1620.16 0.194227 -5.70069 0
M  V30 16243 O 1619.09 -1.74387 -5.76084 0
M  V30 16244 H 1622.92 -1.78909 -2.45408 0
M  V30 16245 H 1620.5 -0.932362 -1.16736 0
M  V30 16246 H 1622.39 -0.0798183 -4.21324 0
M  V30 16247 H 1621.06 0.541445 -3.1914 0
M  V30 16248 H 1619.97 -1.77361 -3.29384 0
M  V30 16249 H 1621.3 -2.31617 -4.34298 0
M  V30 16250 N 1622.95 1.25748 -0.950004 0
M  V30 16251 C 1623.89 2.24472 -0.410787 0
M  V30 16252 C 1624.86 1.54549 0.505309 0
M  V30 16253 O 1626.05 1.83275 0.440744 0
M  V30 16254 C 1623.18 3.36224 0.408832 0
M  V30 16255 C 1622.22 4.24151 -0.446997 0
M  V30 16256 S 1623.05 5.01549 -1.87639 0
M  V30 16257 C 1624.21 6.16771 -1.06507 0
M  V30 16258 H 1624.44 2.69863 -1.24745 0
M  V30 16259 H 1621.98 1.34752 -0.753744 0
M  V30 16260 H 1623.93 4.01049 0.875796 0
M  V30 16261 H 1622.6 2.89427 1.22027 0
M  V30 16262 H 1621.79 5.03673 0.181407 0
M  V30 16263 H 1621.39 3.64236 -0.848989 0
M  V30 16264 H 1623.68 6.76783 -0.311531 0
M  V30 16265 H 1624.63 6.83936 -1.83406 0
M  V30 16266 H 1625.03 5.61332 -0.597243 0
M  V30 16267 N 1624.43 0.718038 1.40292 0
M  V30 16268 C 1625.38 0.0559466 2.32533 0
M  V30 16269 C 1626.37 -0.744365 1.5217 0
M  V30 16270 O 1627.58 -0.647458 1.67952 0
M  V30 16271 H 1623.95 -0.000710627 0.752 0
M  V30 16272 H 1625.93 0.850579 2.8602 0
M  V30 16273 C 1624.67 -0.849927 3.37152 0
M  V30 16274 H 1624 -0.243507 3.99058 0
M  V30 16275 H 1625.44 -1.28111 4.04183 0
M  V30 16276 C 1623.9 -1.9765 2.7283 0
M  V30 16277 O 1624.43 -3.06757 2.59351 0
M  V30 16278 N 1622.63 -1.76086 2.31176 0
M  V30 16279 H 1622.18 -0.873485 2.42339 0
M  V30 16280 H 1622.14 -2.51643 1.88477 0
M  V30 16281 N 1625.91 -1.50602 0.464402 0
M  V30 16282 C 1627.14 -2.07191 -0.0930678 0
M  V30 16283 C 1627.56 -1.32675 -1.33338 0
M  V30 16284 O 1626.92 -0.372453 -1.77433 0
M  V30 16285 C 1626.97 -3.5873 -0.366775 0
M  V30 16286 O 1626.07 -3.86125 -1.44849 0
M  V30 16287 H 1625.41 -0.663924 0.0100336 0
M  V30 16288 H 1627.94 -1.93882 0.653522 0
M  V30 16289 H 1627.95 -4.03425 -0.609258 0
M  V30 16290 H 1626.63 -4.12385 0.539608 0
M  V30 16291 H 1625.2 -3.53273 -1.19384 0
M  V30 16292 N 1627.39 -0.19675 -1.56367 0
M  V30 16293 C 1628.63 0.443732 -1.99525 0
M  V30 16294 C 1628.99 1.58685 -1.08088 0
M  V30 16295 O 1630.19 2.29164 -1.4049 0
M  V30 16296 C 1628.46 0.890565 -3.46127 0
M  V30 16297 S 1630.02 1.52865 -4.11312 0
M  V30 16298 H 1626.84 0.141834 -0.69671 0
M  V30 16299 H 1629.44 -0.300205 -1.93181 0
M  V30 16300 H 1628.15 0.0485587 -4.10371 0
M  V30 16301 H 1627.68 1.66793 -3.56292 0
M  V30 16302 H 1629.69 2.81743 -4.08455 0
M  V30 16303 N 1628.87 1.57413 0.0768405 0
M  V30 16304 C 1629.8 2.06378 1.09226 0
M  V30 16305 C 1630.78 0.956269 1.40675 0
M  V30 16306 O 1631.96 1.22868 1.5039 0
M  V30 16307 C 1629.09 2.50349 2.40712 0
M  V30 16308 C 1628.05 3.64931 2.23628 0
M  V30 16309 C 1627.37 3.9494 3.60453 0
M  V30 16310 C 1628.67 4.95162 1.66169 0
M  V30 16311 H 1630.37 2.91463 0.684827 0
M  V30 16312 H 1627.91 1.40215 0.327974 0
M  V30 16313 H 1629.87 2.83216 3.12036 0
M  V30 16314 H 1628.59 1.62287 2.83426 0
M  V30 16315 H 1627.25 3.32339 1.54747 0
M  V30 16316 H 1626.9 3.04016 4.00728 0
M  V30 16317 H 1626.6 4.72091 3.49863 0
M  V30 16318 H 1628.12 4.30299 4.33215 0
M  V30 16319 H 1629.53 5.26292 2.27353 0
M  V30 16320 H 1627.93 5.76601 1.66289 0
M  V30 16321 H 1629 4.80885 0.62271 0
M  V30 16322 N 1630.34 -0.348112 1.53707 0
M  V30 16323 C 1631.29 -1.44755 1.82068 0
M  V30 16324 C 1632.29 -1.54672 0.690865 0
M  V30 16325 O 1633.49 -1.5735 0.874123 0
M  V30 16326 H 1629.87 -0.482562 0.576747 0
M  V30 16327 H 1631.84 -1.18047 2.74058 0
M  V30 16328 C 1630.59 -2.81345 2.04305 0
M  V30 16329 H 1629.91 -2.74479 2.90691 0
M  V30 16330 H 1631.35 -3.57405 2.28117 0
M  V30 16331 C 1629.81 -3.26586 0.827224 0
M  V30 16332 O 1630.34 -4.01693 0.0244098 0
M  V30 16333 N 1628.55 -2.83335 0.645731 0
M  V30 16334 H 1628.09 -2.22379 1.3002 0
M  V30 16335 H 1628.05 -3.1396 -0.166313 0
M  V30 16336 N 1631.82 -1.45363 -0.608876 0
M  V30 16337 C 1632.79 -1.53551 -1.70161 0
M  V30 16338 C 1633.79 -0.415146 -1.55349 0
M  V30 16339 O 1634.98 -0.67858 -1.6044 0
M  V30 16340 C 1632.11 -1.43081 -3.0942 0
M  V30 16341 H 1633.3 -2.5091 -1.64268 0
M  V30 16342 H 1630.85 -1.32785 -0.824493 0
M  V30 16343 H 1631.59 -0.469016 -3.20891 0
M  V30 16344 H 1631.37 -2.24343 -3.21579 0
M  V30 16345 H 1632.86 -1.51841 -3.89017 0
M  V30 16346 N 1633.3 0.851265 -1.32632 0
M  V30 16347 C 1634.58 1.58945 -1.13999 0
M  V30 16348 C 1634.96 2.08981 0.29836 0
M  V30 16349 O 1634.31 1.88226 1.2955 0
M  V30 16350 C 1634.52 2.73296 -2.17049 0
M  V30 16351 C 1635.86 3.42791 -2.50559 0
M  V30 16352 O 1636.89 2.83524 -2.15621 0
M  V30 16353 O 1635.75 4.49749 -3.10464 0
M  V30 16354 H 1632.84 0.700157 -0.440124 0
M  V30 16355 H 1635.39 0.895098 -1.44174 0
M  V30 16356 H 1634.16 2.33873 -3.13718 0
M  V30 16357 H 1633.78 3.50405 -1.87888 0
M  V30 16358 N 1634.78 1.15898 1.06796 0
M  V30 16359 C 1636.06 0.847701 1.76276 0
M  V30 16360 C 1636.44 -0.655537 2.00664 0
M  V30 16361 O 1635.78 -1.60171 1.62964 0
M  V30 16362 C 1635.99 1.66475 3.06736 0
M  V30 16363 C 1637.34 1.87452 3.80982 0
M  V30 16364 O 1638.37 1.63298 3.16563 0
M  V30 16365 O 1637.22 2.27942 4.96694 0
M  V30 16366 H 1634.32 0.312308 0.765763 0
M  V30 16367 H 1636.86 1.26507 1.13111 0
M  V30 16368 H 1635.64 2.68508 2.84638 0
M  V30 16369 H 1635.26 1.24409 3.77635 0
M  V30 16370 N 1636.26 -1.25243 0.956659 0
M  V30 16371 C 1637.19 -2.28159 0.496574 0
M  V30 16372 C 1638.17 -1.63814 -0.458132 0
M  V30 16373 O 1639.35 -1.90897 -0.356648 0
M  V30 16374 C 1636.48 -3.46573 -0.22454 0
M  V30 16375 C 1635.44 -4.2311 0.645104 0
M  V30 16376 C 1634.76 -5.343 -0.206867 0
M  V30 16377 C 1636.06 -4.85562 1.92422 0
M  V30 16378 H 1637.76 -2.66895 1.35675 0
M  V30 16379 H 1635.3 -1.28301 0.653827 0
M  V30 16380 H 1637.26 -4.17695 -0.55755 0
M  V30 16381 H 1635.98 -3.06833 -1.11898 0
M  V30 16382 H 1634.64 -3.53774 0.961228 0
M  V30 16383 H 1634.29 -4.908 -1.10112 0
M  V30 16384 H 1633.99 -5.86423 0.371714 0
M  V30 16385 H 1635.51 -6.08253 -0.534798 0
M  V30 16386 H 1636.92 -5.48817 1.65749 0
M  V30 16387 H 1635.32 -5.47871 2.44862 0
M  V30 16388 H 1636.39 -4.07634 2.62607 0
M  V30 16389 N 1637.73 -0.725468 -1.3991 0
M  V30 16390 C 1639.01 -0.195971 -1.94616 0
M  V30 16391 C 1639.39 1.30035 -1.66295 0
M  V30 16392 O 1638.74 2.06133 -0.985977 0
M  V30 16393 C 1638.95 -0.519325 -3.45115 0
M  V30 16394 C 1640.3 -0.46341 -4.22064 0
M  V30 16395 O 1641.32 -0.455958 -3.5327 0
M  V30 16396 O 1640.18 -0.449579 -5.44648 0
M  V30 16397 H 1637.27 -0.0325409 -0.82636 0
M  V30 16398 H 1639.82 -0.803676 -1.49463 0
M  V30 16399 H 1638.59 -1.55386 -3.59125 0
M  V30 16400 H 1638.22 0.117838 -3.97425 0
M  V30 16401 N 1639.21 1.50354 -0.472382 0
M  V30 16402 C 1640.14 2.3142 0.310995 0
M  V30 16403 C 1641.12 1.38383 0.989151 0
M  V30 16404 O 1642.31 1.67303 0.986074 0
M  V30 16405 C 1639.44 3.18157 1.3926 0
M  V30 16406 C 1638.39 4.19756 0.835977 0
M  V30 16407 C 1637.72 4.9524 2.01597 0
M  V30 16408 C 1639.02 5.22074 -0.15361 0
M  V30 16409 H 1640.71 2.97159 -0.365595 0
M  V30 16410 H 1638.26 1.42905 -0.177266 0
M  V30 16411 H 1640.21 3.73666 1.94813 0
M  V30 16412 H 1638.94 2.50305 2.09798 0
M  V30 16413 H 1637.59 3.65351 0.302414 0
M  V30 16414 H 1637.24 4.2386 2.70836 0
M  V30 16415 H 1636.94 5.63966 1.64974 0
M  V30 16416 H 1638.47 5.53584 2.57637 0
M  V30 16417 H 1639.88 5.72446 0.312783 0
M  V30 16418 H 1638.28 5.98527 -0.43418 0
M  V30 16419 H 1639.35 4.72741 -1.07908 0
M  V30 16420 N 1640.69 0.205039 1.56261 0
M  V30 16421 C 1641.62 -0.751391 2.15475 0
M  V30 16422 C 1642.6 -1.20265 1.09431 0
M  V30 16423 O 1643.79 -1.28837 1.37598 0
M  V30 16424 C 1640.91 -2.01598 2.72169 0
M  V30 16425 C 1639.96 -1.70605 3.90892 0
M  V30 16426 S 1640.79 -0.845372 5.28785 0
M  V30 16427 C 1641.95 -2.11989 5.88907 0
M  V30 16428 H 1642.18 -0.248043 2.96263 0
M  V30 16429 H 1639.71 -0.0100808 1.54397 0
M  V30 16430 H 1641.67 -2.74217 3.05475 0
M  V30 16431 H 1640.33 -2.49045 1.91403 0
M  V30 16432 H 1639.53 -2.6452 4.29005 0
M  V30 16433 H 1639.13 -1.0606 3.58646 0
M  V30 16434 H 1641.42 -3.0715 6.03875 0
M  V30 16435 H 1642.36 -1.78292 6.85286 0
M  V30 16436 H 1642.77 -2.25289 5.17596 0
M  V30 16437 N 1642.17 -1.57451 -0.0684915 0
M  V30 16438 C 1643.12 -2.04959 -1.09975 0
M  V30 16439 C 1644.11 -0.955558 -1.39877 0
M  V30 16440 O 1645.32 -1.14066 -1.39245 0
M  V30 16441 H 1641.69 -0.653542 -0.372003 0
M  V30 16442 H 1643.66 -2.90713 -0.67294 0
M  V30 16443 C 1642.41 -2.51192 -2.40412 0
M  V30 16444 H 1641.74 -3.3497 -2.18254 0
M  V30 16445 H 1643.18 -2.88183 -3.11008 0
M  V30 16446 C 1641.63 -1.39624 -3.06605 0
M  V30 16447 O 1642.16 -0.740191 -3.94822 0
M  V30 16448 N 1640.37 -1.14054 -2.67283 0
M  V30 16449 H 1639.92 -1.67585 -1.95635 0
M  V30 16450 H 1639.88 -0.396106 -3.11895 0
M  V30 16451 N 1643.65 0.339955 -1.5389 0
M  V30 16452 C 1644.87 1.10417 -1.75564 0
M  V30 16453 C 1645.3 1.81466 -0.495156 0
M  V30 16454 O 1644.66 1.72679 0.552415 0
M  V30 16455 C 1644.7 2.09056 -2.93816 0
M  V30 16456 O 1643.81 3.16645 -2.64215 0
M  V30 16457 H 1643.15 0.319164 -0.582263 0
M  V30 16458 H 1645.68 0.389251 -2.00863 0
M  V30 16459 H 1645.69 2.52215 -3.20705 0
M  V30 16460 H 1644.36 1.56741 -3.85234 0
M  V30 16461 H 1642.94 2.78278 -2.48225 0
M  V30 16462 N 1645.13 1.45684 0.601159 0
M  V30 16463 C 1646.35 1.53806 1.39135 0
M  V30 16464 C 1646.78 0.173625 1.87297 0
M  V30 16465 O 1646.13 -0.842931 1.60513 0
M  V30 16466 C 1646.18 2.53201 2.56752 0
M  V30 16467 O 1645.29 2.05427 3.57594 0
M  V30 16468 H 1644.63 0.51824 0.415118 0
M  V30 16469 H 1647.16 1.91095 0.731006 0
M  V30 16470 H 1647.17 2.72215 3.03912 0
M  V30 16471 H 1645.84 3.52294 2.21047 0
M  V30 16472 H 1644.42 1.96318 3.17039 0
M  V30 16473 N 1646.6 -0.84422 1.33082 0
M  V30 16474 C 1647.51 -1.9858 1.24913 0
M  V30 16475 C 1648.53 -1.73256 0.160708 0
M  V30 16476 O 1649.71 -1.97719 0.383313 0
M  V30 16477 C 1646.77 -3.32471 0.983063 0
M  V30 16478 C 1645.83 -3.70946 2.16096 0
M  V30 16479 C 1645.06 -4.98448 1.90749 0
M  V30 16480 O 1645.29 -5.63953 0.855173 0
M  V30 16481 O 1644.22 -5.34301 2.7714 0
M  V30 16482 H 1648.05 -2.0841 2.20905 0
M  V30 16483 H 1645.63 -0.976447 1.13075 0
M  V30 16484 H 1647.51 -4.12705 0.851612 0
M  V30 16485 H 1646.19 -3.23656 0.053384 0
M  V30 16486 H 1645.1 -2.91244 2.34793 0
M  V30 16487 H 1646.43 -3.8442 3.07379 0
M  V30 16488 N 1648.08 -1.16463 -1.0618 0
M  V30 16489 C 1649.03 -0.868264 -2.15787 0
M  V30 16490 C 1650.02 0.163135 -1.68613 0
M  V30 16491 O 1651.23 0.0170117 -1.79992 0
M  V30 16492 H 1647.6 -0.263184 -0.704442 0
M  V30 16493 H 1649.58 -1.80005 -2.37993 0
M  V30 16494 C 1648.32 -0.387052 -3.45539 0
M  V30 16495 H 1647.65 -1.17212 -3.82232 0
M  V30 16496 H 1649.09 -0.218471 -4.23437 0
M  V30 16497 C 1647.55 0.893588 -3.24833 0
M  V30 16498 O 1648.08 1.96259 -3.50493 0
M  V30 16499 N 1646.28 0.8378 -2.78261 0
M  V30 16500 H 1645.83 -0.0323251 -2.5758 0
M  V30 16501 H 1645.79 1.69515 -2.64787 0
M  V30 16502 N 1649.56 1.24734 -0.963288 0
M  V30 16503 C 1650.78 1.97285 -0.639808 0
M  V30 16504 C 1651.21 1.71024 0.783099 0
M  V30 16505 O 1650.57 0.971324 1.53085 0
M  V30 16506 C 1650.62 3.48793 -0.915197 0
M  V30 16507 O 1649.72 4.124 0.00162805 0
M  V30 16508 H 1649.06 0.618196 -0.242343 0
M  V30 16509 H 1651.59 1.58627 -1.29224 0
M  V30 16510 H 1651.6 3.99155 -0.84495 0
M  V30 16511 H 1650.28 3.67235 -1.95221 0
M  V30 16512 H 1648.85 3.72702 -0.121563 0
M  V30 16513 N 1651.04 0.732878 1.39523 0
M  V30 16514 C 1651.99 0.0676184 2.279 0
M  V30 16515 C 1652.97 -0.7148 1.44151 0
M  V30 16516 O 1654.16 -0.584158 1.67083 0
M  V30 16517 C 1651.29 -0.840482 3.32853 0
M  V30 16518 C 1650.38 -0.052326 4.24068 0
M  V30 16519 N 1650.77 0.973429 4.96345 0
M  V30 16520 C 1649.07 -0.282301 4.45106 0
M  V30 16521 C 1649.77 1.44851 5.63376 0
M  V30 16522 N 1648.74 0.767499 5.38155 0
M  V30 16523 H 1652.55 0.853533 2.81233 0
M  V30 16524 H 1650.06 0.567016 1.5218 0
M  V30 16525 H 1652.06 -1.33254 3.95031 0
M  V30 16526 H 1650.72 -1.62558 2.81078 0
M  V30 16527 H 1651.73 1.35474 4.99867 0
M  V30 16528 H 1648.41 -1.04237 4.04278 0
M  V30 16529 H 1649.8 2.30179 6.31242 0
M  V30 16530 N 1652.52 -1.50101 0.480349 0
M  V30 16531 C 1653.43 -2.32488 -0.31408 0
M  V30 16532 C 1654.44 -1.43285 -0.987186 0
M  V30 16533 O 1655.62 -1.7633 -0.973123 0
M  V30 16534 C 1652.68 -3.18203 -1.37651 0
M  V30 16535 C 1651.74 -4.23236 -0.71903 0
M  V30 16536 C 1650.98 -5.04854 -1.73084 0
M  V30 16537 O 1651.2 -4.87681 -2.95843 0
M  V30 16538 O 1650.13 -5.87748 -1.29755 0
M  V30 16539 H 1653.96 -3.01562 0.3597 0
M  V30 16540 H 1651.54 -1.47427 0.242029 0
M  V30 16541 H 1653.43 -3.71362 -1.9917 0
M  V30 16542 H 1652.1 -2.51846 -2.0336 0
M  V30 16543 H 1651.01 -3.74044 -0.0646492 0
M  V30 16544 H 1652.34 -4.92089 -0.104743 0
M  V30 16545 N 1653.99 -0.213323 -1.5615 0
M  V30 16546 C 1655.22 0.428746 -2.0292 0
M  V30 16547 C 1655.64 1.53137 -1.09227 0
M  V30 16548 O 1655 1.81128 -0.0789684 0
M  V30 16549 C 1655.05 0.945231 -3.47991 0
M  V30 16550 O 1654.15 2.05709 -3.57432 0
M  V30 16551 H 1653.49 0.0980619 -0.656719 0
M  V30 16552 H 1656.02 -0.329548 -2.01929 0
M  V30 16553 H 1656.03 1.25717 -3.88149 0
M  V30 16554 H 1654.71 0.138161 -4.1567 0
M  V30 16555 H 1653.29 1.75242 -3.29158 0
M  V30 16556 N 1655.47 1.57485 0.0601405 0
M  V30 16557 C 1656.44 2.03493 1.05467 0
M  V30 16558 C 1657.44 0.933816 1.30907 0
M  V30 16559 O 1658.63 1.19837 1.26431 0
M  V30 16560 C 1655.76 2.42549 2.39547 0
M  V30 16561 H 1656.95 2.92595 0.657893 0
M  V30 16562 H 1654.5 1.53272 0.306183 0
M  V30 16563 H 1655.24 1.56509 2.84034 0
M  V30 16564 H 1655.02 3.22911 2.22421 0
M  V30 16565 H 1656.51 2.7868 3.1101 0
M  V30 16566 N 1656.95 -0.331789 1.54068 0
M  V30 16567 C 1658.23 -1.08843 1.6252 0
M  V30 16568 C 1658.61 -2.06164 0.453847 0
M  V30 16569 O 1657.96 -2.21714 -0.552727 0
M  V30 16570 C 1658.17 -1.79767 2.9914 0
M  V30 16571 C 1659.51 -2.33086 3.54903 0
M  V30 16572 O 1660.54 -1.89846 3.01392 0
M  V30 16573 O 1659.4 -3.12226 4.48528 0
M  V30 16574 H 1656.49 -0.501222 0.657804 0
M  V30 16575 H 1659.04 -0.332339 1.66414 0
M  V30 16576 H 1657.81 -1.08932 3.75832 0
M  V30 16577 H 1657.43 -2.62205 2.98888 0
M  V30 16578 N 1658.43 -1.46001 -0.593424 0
M  V30 16579 C 1659.68 -1.50755 -1.352 0
M  V30 16580 C 1660 -0.154929 -1.93882 0
M  V30 16581 O 1659.26 0.848161 -1.76365 0
M  V30 16582 C 1659.56 -2.54568 -2.50858 0
M  V30 16583 C 1659.22 -3.98888 -2.10236 0
M  V30 16584 C 1657.89 -4.38182 -1.98872 0
M  V30 16585 C 1660.24 -4.89591 -1.78746 0
M  V30 16586 C 1657.57 -5.66057 -1.5426 0
M  V30 16587 C 1659.92 -6.17892 -1.35617 0
M  V30 16588 C 1658.58 -6.56103 -1.22822 0
M  V30 16589 H 1657.85 -0.551652 -0.494734 0
M  V30 16590 H 1660.5 -1.79422 -0.669327 0
M  V30 16591 H 1658.8 -2.19523 -3.24526 0
M  V30 16592 H 1660.5 -2.5548 -3.09081 0
M  V30 16593 H 1657.09 -3.67822 -2.20012 0
M  V30 16594 H 1661.27 -4.59959 -1.86416 0
M  V30 16595 H 1656.53 -5.94444 -1.42988 0
M  V30 16596 H 1660.7 -6.87609 -1.10301 0
M  V30 16597 H 1658.33 -7.55086 -0.880285 0
M  V30 16598 N 1659.91 0.83715 -1.33527 0
M  V30 16599 C 1661.13 1.62976 -1.28271 0
M  V30 16600 C 1661.56 1.87554 0.143201 0
M  V30 16601 O 1660.91 1.44088 1.10038 0
M  V30 16602 C 1660.96 2.95607 -2.06516 0
M  V30 16603 O 1660.07 3.87 -1.42494 0
M  V30 16604 H 1659.41 0.496212 -0.441214 0
M  V30 16605 H 1661.94 1.04137 -1.76115 0
M  V30 16606 H 1661.95 3.4529 -2.17344 0
M  V30 16607 H 1660.62 2.77041 -3.10195 0
M  V30 16608 H 1659.2 3.45492 -1.40321 0
M  V30 16609 N 1661.38 1.17024 1.05561 0
M  V30 16610 C 1662.35 0.885897 2.11387 0
M  V30 16611 C 1663.35 -0.122327 1.60334 0
M  V30 16612 O 1664.54 0.109416 1.73856 0
M  V30 16613 C 1661.67 0.32626 3.39335 0
M  V30 16614 H 1662.86 1.82414 2.38045 0
M  V30 16615 H 1660.42 0.980191 1.21745 0
M  V30 16616 H 1661.15 -0.619308 3.18332 0
M  V30 16617 H 1660.94 1.05285 3.777 0
M  V30 16618 H 1662.43 0.145513 4.17346 0
M  V30 16619 N 1662.86 -1.24221 0.969889 0
M  V30 16620 C 1663.83 -2.23529 0.506686 0
M  V30 16621 C 1664.83 -1.55797 -0.397968 0
M  V30 16622 O 1666.02 -1.73126 -0.193124 0
M  V30 16623 C 1663.15 -3.39861 -0.265943 0
M  V30 16624 H 1664.34 -2.66022 1.38463 0
M  V30 16625 H 1661.89 -1.36872 0.754698 0
M  V30 16626 H 1662.63 -3.0281 -1.16089 0
M  V30 16627 H 1662.41 -3.90222 0.383286 0
M  V30 16628 H 1663.9 -4.13567 -0.578975 0
M  V30 16629 N 1664.34 -0.740267 -1.39132 0
M  V30 16630 C 1665.25 -0.105452 -2.34363 0
M  V30 16631 C 1666.27 0.715908 -1.5859 0
M  V30 16632 O 1667.44 0.643155 -1.90855 0
M  V30 16633 C 1664.51 0.787141 -3.37646 0
M  V30 16634 C 1663.57 -0.047071 -4.29274 0
M  V30 16635 C 1662.8 0.803014 -5.27624 0
M  V30 16636 O 1663.02 2.04155 -5.32613 0
M  V30 16637 O 1661.96 0.228879 -6.01465 0
M  V30 16638 H 1665.78 -0.891588 -2.90318 0
M  V30 16639 H 1663.37 -0.500996 -1.40749 0
M  V30 16640 H 1665.25 1.29769 -4.00921 0
M  V30 16641 H 1663.93 1.552 -2.84068 0
M  V30 16642 H 1662.83 -0.603265 -3.69204 0
M  V30 16643 H 1664.17 -0.774273 -4.86072 0
M  V30 16644 N 1665.82 1.49844 -0.488302 0
M  V30 16645 C 1666.75 2.31737 0.286432 0
M  V30 16646 C 1667.73 1.39424 0.974418 0
M  V30 16647 O 1668.91 1.68339 0.968274 0
M  V30 16648 C 1666.04 3.19616 1.35878 0
M  V30 16649 C 1665 4.20619 0.791409 0
M  V30 16650 C 1664.32 4.9735 1.96333 0
M  V30 16651 C 1665.62 5.21882 -0.208975 0
M  V30 16652 H 1667.32 2.96755 -0.397092 0
M  V30 16653 H 1664.86 1.42709 -0.192413 0
M  V30 16654 H 1666.82 3.75711 1.90838 0
M  V30 16655 H 1665.54 2.52516 2.07131 0
M  V30 16656 H 1664.2 3.65651 0.263647 0
M  V30 16657 H 1663.85 4.26708 2.66325 0
M  V30 16658 H 1663.55 5.65684 1.58983 0
M  V30 16659 H 1665.07 5.56286 2.51751 0
M  V30 16660 H 1666.49 5.72746 0.252049 0
M  V30 16661 H 1664.88 5.98033 -0.497638 0
M  V30 16662 H 1665.95 4.7157 -1.12916 0
M  V30 16663 N 1667.3 0.221601 1.56034 0
M  V30 16664 C 1668.55 -0.410442 1.9748 0
M  V30 16665 C 1668.86 -1.60895 1.1123 0
M  V30 16666 O 1670.06 -2.31052 1.42574 0
M  V30 16667 C 1668.52 -0.781624 3.5131 0
M  V30 16668 C 1668.13 0.394077 4.46263 0
M  V30 16669 C 1669.87 -1.37927 4.01468 0
M  V30 16670 C 1667.78 0.000458181 5.914 0
M  V30 16671 H 1666.71 -0.157122 0.737447 0
M  V30 16672 H 1669.36 0.317821 1.80727 0
M  V30 16673 H 1667.74 -1.56731 3.63664 0
M  V30 16674 H 1668.92 1.17161 4.45657 0
M  V30 16675 H 1667.23 0.904959 4.06447 0
M  V30 16676 H 1669.83 -1.68667 5.07401 0
M  V30 16677 H 1670.17 -2.29507 3.47322 0
M  V30 16678 H 1670.7 -0.657015 3.92337 0
M  V30 16679 H 1667.44 0.882743 6.49529 0
M  V30 16680 H 1666.96 -0.741386 5.952 0
M  V30 16681 H 1668.64 -0.42621 6.45595 0
M  V30 16682 N 1668.77 -1.57515 -0.0517878 0
M  V30 16683 C 1670 -1.92845 -0.763249 0
M  V30 16684 C 1670.42 -0.819745 -1.69298 0
M  V30 16685 O 1669.78 0.226161 -1.79884 0
M  V30 16686 C 1669.83 -3.27189 -1.5159 0
M  V30 16687 O 1668.93 -3.17834 -2.62783 0
M  V30 16688 H 1668.28 -0.630944 -0.206896 0
M  V30 16689 H 1670.81 -2.04595 -0.0140481 0
M  V30 16690 H 1670.82 -3.61542 -1.89081 0
M  V30 16691 H 1669.49 -4.07455 -0.833871 0
M  V30 16692 H 1668.07 -2.95075 -2.28002 0
M  V30 16693 N 1670.25 0.323614 -1.54242 0
M  V30 16694 C 1671.5 1.06314 -1.727 0
M  V30 16695 C 1671.83 1.87674 -0.499225 0
M  V30 16696 O 1671.11 1.87862 0.503805 0
M  V30 16697 C 1671.39 1.9879 -3.00258 0
M  V30 16698 C 1671.24 1.2076 -4.33286 0
M  V30 16699 C 1672.56 2.98314 -3.23569 0
M  V30 16700 H 1669.68 0.385101 -0.628384 0
M  V30 16701 H 1672.32 0.339801 -1.86937 0
M  V30 16702 H 1670.47 2.60468 -2.88251 0
M  V30 16703 H 1672.15 0.615425 -4.57176 0
M  V30 16704 H 1670.39 0.509878 -4.30793 0
M  V30 16705 H 1671.06 1.88662 -5.18759 0
M  V30 16706 H 1673.54 2.46757 -3.35037 0
M  V30 16707 H 1672.41 3.60204 -4.14179 0
M  V30 16708 H 1672.67 3.7077 -2.40795 0
M  V30 16709 N 1671.73 1.46313 0.585673 0
M  V30 16710 C 1672.96 1.55273 1.37496 0
M  V30 16711 C 1673.38 0.193481 1.87102 0
M  V30 16712 O 1672.74 -0.825859 1.61398 0
M  V30 16713 C 1672.79 2.5591 2.54052 0
M  V30 16714 O 1671.89 2.09208 3.55395 0
M  V30 16715 H 1671.23 0.522614 0.409598 0
M  V30 16716 H 1673.76 1.9186 0.710697 0
M  V30 16717 H 1673.77 2.75424 3.01008 0
M  V30 16718 H 1672.45 3.54619 2.17298 0
M  V30 16719 H 1671.02 1.9967 3.14939 0
M  V30 16720 N 1673.21 -0.830057 1.33969 0
M  V30 16721 C 1674.16 -1.94049 1.24955 0
M  V30 16722 C 1675.13 -1.65619 0.126279 0
M  V30 16723 O 1676.31 -1.88329 0.306049 0
M  V30 16724 C 1673.45 -3.30182 1.00367 0
M  V30 16725 C 1672.56 -3.70952 2.21402 0
M  V30 16726 C 1671.7 -4.95998 1.90157 0
M  V30 16727 C 1670.74 -5.29327 3.07374 0
M  V30 16728 N 1669.88 -6.45551 2.76059 0
M  V30 16729 H 1674.72 -2.01091 2.19923 0
M  V30 16730 H 1672.25 -0.983918 1.0935 0
M  V30 16731 H 1674.21 -4.08625 0.841516 0
M  V30 16732 H 1672.84 -3.22673 0.090692 0
M  V30 16733 H 1671.89 -2.8796 2.48563 0
M  V30 16734 H 1673.2 -3.91558 3.09004 0
M  V30 16735 H 1672.36 -5.8221 1.70636 0
M  V30 16736 H 1671.1 -4.77379 0.998045 0
M  V30 16737 H 1670.1 -4.41616 3.27499 0
M  V30 16738 H 1671.33 -5.4989 3.98495 0
M  V30 16739 H 1669.27 -6.28401 1.88275 0
M  V30 16740 H 1669.19 -6.66295 3.57193 0
M  V30 16741 H 1670.46 -7.34851 2.60026 0
M  V30 16742 N 1674.69 -1.17582 -1.04939 0
M  V30 16743 C 1675.93 -0.965778 -1.77986 0
M  V30 16744 C 1676.26 0.505366 -1.8782 0
M  V30 16745 O 1675.52 1.39132 -1.37625 0
M  V30 16746 C 1675.82 -1.55507 -3.21796 0
M  V30 16747 C 1675.48 -3.05086 -3.32014 0
M  V30 16748 C 1674.14 -3.45914 -3.3451 0
M  V30 16749 C 1676.5 -4.01096 -3.32824 0
M  V30 16750 C 1673.82 -4.81344 -3.35447 0
M  V30 16751 C 1676.18 -5.3643 -3.353 0
M  V30 16752 C 1674.84 -5.76718 -3.36084 0
M  V30 16753 H 1674.11 -0.353403 -0.651297 0
M  V30 16754 H 1676.76 -1.46512 -1.23315 0
M  V30 16755 H 1675.06 -0.977509 -3.7941 0
M  V30 16756 H 1676.76 -1.36807 -3.76941 0
M  V30 16757 H 1673.35 -2.72541 -3.30786 0
M  V30 16758 H 1677.53 -3.7061 -3.30094 0
M  V30 16759 H 1672.79 -5.11868 -3.34366 0
M  V30 16760 H 1676.96 -6.106 -3.34874 0
M  V30 16761 H 1674.59 -6.81637 -3.36563 0
M  V30 16762 N 1676.17 1.23705 -0.976463 0
M  V30 16763 C 1677.1 2.2734 -0.532809 0
M  V30 16764 C 1678.08 1.64523 0.432012 0
M  V30 16765 O 1679.26 1.9144 0.326233 0
M  V30 16766 C 1676.39 3.46887 0.169374 0
M  V30 16767 C 1675.35 4.22031 -0.712336 0
M  V30 16768 C 1674.67 5.34561 0.121838 0
M  V30 16769 C 1675.97 4.8244 -2.00123 0
M  V30 16770 H 1677.67 2.64702 -1.39904 0
M  V30 16771 H 1675.21 1.27244 -0.674156 0
M  V30 16772 H 1677.16 4.18529 0.491028 0
M  V30 16773 H 1675.89 3.08574 1.07002 0
M  V30 16774 H 1674.55 3.522 -1.01739 0
M  V30 16775 H 1674.2 4.92489 1.0229 0
M  V30 16776 H 1673.9 5.85758 -0.464962 0
M  V30 16777 H 1675.42 6.09027 0.437963 0
M  V30 16778 H 1676.83 5.46111 -1.7446 0
M  V30 16779 H 1675.23 5.43906 -2.53548 0
M  V30 16780 H 1676.3 4.03405 -2.69059 0
M  V30 16781 N 1677.64 0.747635 1.38738 0
M  V30 16782 C 1679.05 0.369576 1.83006 0
M  V30 16783 C 1679.41 -1.10091 1.62402 0
M  V30 16784 O 1678.53 -1.85042 1.12198 0
M  V30 16785 C 1679.13 0.664018 3.32229 0
M  V30 16786 C 1677.68 0.339308 3.74868 0
M  V30 16787 C 1676.83 0.920231 2.61586 0
M  V30 16788 H 1679.78 0.944268 1.27551 0
M  V30 16789 H 1679.8 -0.0598575 3.80453 0
M  V30 16790 H 1679.32 1.73432 3.47193 0
M  V30 16791 H 1677.42 -0.724649 3.65485 0
M  V30 16792 H 1677.53 0.830699 4.71843 0
M  V30 16793 H 1675.89 0.346002 2.52339 0
M  V30 16794 H 1676.68 1.99544 2.79351 0
M  V30 16795 N 1679.12 -1.49583 0.496242 0
M  V30 16796 C 1680.37 -2.01634 -0.051782 0
M  V30 16797 C 1680.68 -1.38133 -1.38487 0
M  V30 16798 O 1681.89 -1.81484 -2.0193 0
M  V30 16799 C 1680.35 -3.59617 -0.142755 0
M  V30 16800 C 1679.95 -4.32088 1.1834 0
M  V30 16801 C 1681.7 -4.19626 -0.641397 0
M  V30 16802 C 1679.6 -5.81917 1.05485 0
M  V30 16803 H 1678.53 -0.753645 -0.0231258 0
M  V30 16804 H 1681.19 -1.72165 0.634944 0
M  V30 16805 H 1679.57 -3.85781 -0.893826 0
M  V30 16806 H 1680.74 -4.17628 1.94739 0
M  V30 16807 H 1679.06 -3.83801 1.61511 0
M  V30 16808 H 1681.65 -5.29343 -0.755008 0
M  V30 16809 H 1682 -3.82676 -1.63906 0
M  V30 16810 H 1682.53 -3.97765 0.053003 0
M  V30 16811 H 1679.27 -6.23384 2.02664 0
M  V30 16812 H 1678.79 -5.98882 0.331667 0
M  V30 16813 H 1680.47 -6.4285 0.731641 0
M  V30 16814 N 1680.6 -0.229873 -1.55915 0
M  V30 16815 C 1681.82 0.4072 -2.03363 0
M  V30 16816 C 1682.25 1.5197 -1.10845 0
M  V30 16817 O 1681.61 1.81034 -0.098175 0
M  V30 16818 C 1681.66 0.908268 -3.48974 0
M  V30 16819 O 1680.76 2.01907 -3.59593 0
M  V30 16820 H 1680.1 0.091091 -0.657722 0
M  V30 16821 H 1682.63 -0.350947 -2.01568 0
M  V30 16822 H 1682.64 1.21593 -3.8946 0
M  V30 16823 H 1681.32 0.0940655 -4.15794 0
M  V30 16824 H 1679.89 1.71741 -3.30998 0
M  V30 16825 N 1682.08 1.5754 0.0434337 0
M  V30 16826 C 1683.33 1.88235 0.735652 0
M  V30 16827 C 1683.65 0.825698 1.76656 0
M  V30 16828 O 1682.92 -0.142424 1.95382 0
M  V30 16829 H 1681.5 0.694661 0.274692 0
M  V30 16830 H 1684.16 1.94896 0.0127911 0
M  V30 16831 H 1683.25 2.86659 1.23421 0
M  V30 16832 N 1683.56 -0.31543 1.54411 0
M  V30 16833 C 1684.49 -1.41263 1.79221 0
M  V30 16834 C 1685.47 -1.49363 0.642601 0
M  V30 16835 O 1686.65 -1.66648 0.880953 0
M  V30 16836 C 1683.78 -2.79294 1.91605 0
M  V30 16837 C 1682.82 -2.88686 3.13946 0
M  V30 16838 S 1683.66 -2.52259 4.72362 0
M  V30 16839 C 1684.81 -3.92347 4.87663 0
M  V30 16840 H 1685.05 -1.20006 2.72003 0
M  V30 16841 H 1682.58 -0.51273 1.45638 0
M  V30 16842 H 1684.54 -3.58803 1.99425 0
M  V30 16843 H 1683.2 -2.97828 0.997857 0
M  V30 16844 H 1682.39 -3.89896 3.1937 0
M  V30 16845 H 1681.99 -2.17157 3.04498 0
M  V30 16846 H 1684.28 -4.8719 4.70799 0
M  V30 16847 H 1685.23 -3.91901 5.89762 0
M  V30 16848 H 1685.64 -3.81679 4.1591 0
M  V30 16849 N 1685.03 -1.46622 -0.577906 0
M  V30 16850 C 1685.94 -1.60143 -1.71439 0
M  V30 16851 C 1686.96 -0.484781 -1.6711 0
M  V30 16852 O 1688.14 -0.749551 -1.86932 0
M  V30 16853 C 1685.2 -1.59282 -3.07945 0
M  V30 16854 C 1684.26 -2.82216 -3.235 0
M  V30 16855 C 1683.5 -2.81387 -4.53495 0
M  V30 16856 O 1683.72 -1.90407 -5.37681 0
M  V30 16857 O 1682.65 -3.72991 -4.724 0
M  V30 16858 H 1686.48 -2.56265 -1.62978 0
M  V30 16859 H 1684.06 -1.2947 -0.745514 0
M  V30 16860 H 1685.95 -1.61515 -3.89218 0
M  V30 16861 H 1684.62 -0.663212 -3.16833 0
M  V30 16862 H 1683.53 -2.85536 -2.41702 0
M  V30 16863 H 1684.86 -3.74402 -3.19506 0
M  V30 16864 N 1686.51 0.822941 -1.34408 0
M  V30 16865 C 1687.46 1.93383 -1.25982 0
M  V30 16866 C 1688.43 1.6555 -0.13506 0
M  V30 16867 O 1689.61 1.88164 -0.316033 0
M  V30 16868 C 1686.75 3.29646 -1.02117 0
M  V30 16869 C 1685.87 3.69772 -2.23366 0
M  V30 16870 C 1685 4.94982 -1.92784 0
M  V30 16871 C 1684.04 5.2769 -3.10177 0
M  V30 16872 N 1683.18 6.44078 -2.79479 0
M  V30 16873 H 1688.02 1.99922 -2.20987 0
M  V30 16874 H 1685.56 0.978105 -1.0987 0
M  V30 16875 H 1687.51 4.08173 -0.863175 0
M  V30 16876 H 1686.14 3.2262 -0.107803 0
M  V30 16877 H 1685.2 2.86637 -2.50086 0
M  V30 16878 H 1686.51 3.89914 -3.11076 0
M  V30 16879 H 1685.66 5.81297 -1.73721 0
M  V30 16880 H 1684.4 4.76843 -1.02335 0
M  V30 16881 H 1683.41 4.39873 -3.29837 0
M  V30 16882 H 1684.63 5.47769 -4.01405 0
M  V30 16883 H 1682.58 6.27394 -1.91605 0
M  V30 16884 H 1682.49 6.64392 -3.60721 0
M  V30 16885 H 1683.76 7.33462 -2.63919 0
M  V30 16886 N 1687.99 1.18137 1.04314 0
M  V30 16887 C 1688.9 0.921044 2.15764 0
M  V30 16888 C 1689.92 -0.11396 1.73626 0
M  V30 16889 O 1691.09 0.0673733 2.01287 0
M  V30 16890 C 1688.16 0.447581 3.43799 0
M  V30 16891 C 1687.22 1.55025 4.00332 0
M  V30 16892 C 1686.45 1.09928 5.22256 0
M  V30 16893 O 1686.67 -0.0430152 5.70384 0
M  V30 16894 O 1685.61 1.896 5.71258 0
M  V30 16895 H 1689.43 1.85353 2.40579 0
M  V30 16896 H 1687.02 0.962985 1.14223 0
M  V30 16897 H 1688.9 0.191497 4.20965 0
M  V30 16898 H 1687.58 -0.456641 3.20463 0
M  V30 16899 H 1686.48 1.86032 3.24566 0
M  V30 16900 H 1687.82 2.4305 4.28004 0
M  V30 16901 N 1689.47 -1.23186 0.98301 0
M  V30 16902 C 1690.43 -2.22979 0.530366 0
M  V30 16903 C 1691.43 -1.56211 -0.381421 0
M  V30 16904 O 1692.62 -1.73321 -0.17475 0
M  V30 16905 C 1689.75 -3.40124 -0.229882 0
M  V30 16906 H 1690.95 -2.64539 1.41277 0
M  V30 16907 H 1688.5 -1.36064 0.769172 0
M  V30 16908 H 1689.23 -3.04024 -1.12871 0
M  V30 16909 H 1689.02 -3.89794 0.424653 0
M  V30 16910 H 1690.51 -4.14158 -0.535078 0
M  V30 16911 N 1690.95 -0.754982 -1.38339 0
M  V30 16912 C 1692.2 -0.308537 -1.99326 0
M  V30 16913 C 1692.51 1.1164 -1.60611 0
M  V30 16914 O 1693.71 1.66339 -2.14578 0
M  V30 16915 C 1692.17 -0.500688 -3.564 0
M  V30 16916 C 1691.78 -1.9348 -4.04066 0
M  V30 16917 C 1693.52 -0.117026 -4.24339 0
M  V30 16918 C 1691.43 -2.07544 -5.53786 0
M  V30 16919 H 1690.36 -0.111611 -0.745694 0
M  V30 16920 H 1693.01 -0.931722 -1.58086 0
M  V30 16921 H 1691.39 0.191702 -3.95536 0
M  V30 16922 H 1692.57 -2.66077 -3.76217 0
M  V30 16923 H 1690.88 -2.27351 -3.48856 0
M  V30 16924 H 1693.48 -0.200847 -5.34323 0
M  V30 16925 H 1693.82 0.930531 -4.05767 0
M  V30 16926 H 1694.35 -0.761323 -3.90447 0
M  V30 16927 H 1691.09 -3.10559 -5.77264 0
M  V30 16928 H 1690.61 -1.39409 -5.83374 0
M  V30 16929 H 1692.29 -1.86605 -6.19506 0
M  V30 16930 N 1692.42 1.49318 -0.504168 0
M  V30 16931 C 1693.35 2.32027 0.261837 0
M  V30 16932 C 1694.34 1.4045 0.959575 0
M  V30 16933 O 1695.52 1.69357 0.950365 0
M  V30 16934 C 1692.65 3.21039 1.3248 0
M  V30 16935 C 1691.6 4.21435 0.746752 0
M  V30 16936 C 1690.93 4.99405 1.91047 0
M  V30 16937 C 1692.23 5.21631 -0.264315 0
M  V30 16938 H 1693.92 2.96317 -0.428544 0
M  V30 16939 H 1691.47 1.42497 -0.207539 0
M  V30 16940 H 1693.42 3.77714 1.86843 0
M  V30 16941 H 1692.15 2.54699 2.04441 0
M  V30 16942 H 1690.81 3.6591 0.22485 0
M  V30 16943 H 1690.45 4.29509 2.61784 0
M  V30 16944 H 1690.15 5.67338 1.52975 0
M  V30 16945 H 1691.68 5.58924 2.45837 0
M  V30 16946 H 1693.09 5.72981 0.191288 0
M  V30 16947 H 1691.49 5.97472 -0.561039 0
M  V30 16948 H 1692.56 4.70346 -1.17911 0
M  V30 16949 N 1693.9 0.238138 1.5579 0
M  V30 16950 C 1695.13 -0.396409 2.03576 0
M  V30 16951 C 1695.55 -1.5138 1.11649 0
M  V30 16952 O 1694.91 -1.80979 0.107774 0
M  V30 16953 C 1694.96 -0.889749 3.49451 0
M  V30 16954 O 1694.06 -1.99997 3.60659 0
M  V30 16955 H 1693.4 -0.0876017 0.658196 0
M  V30 16956 H 1695.93 0.361632 2.01379 0
M  V30 16957 H 1695.94 -1.19526 3.901 0
M  V30 16958 H 1694.62 -0.0720136 4.15838 0
M  V30 16959 H 1693.2 -1.69983 3.31904 0
M  V30 16960 N 1695.38 -1.57561 -0.0350783 0
M  V30 16961 C 1696.33 -2.02627 -1.04528 0
M  V30 16962 C 1697.31 -0.914525 -1.32383 0
M  V30 16963 O 1698.51 -1.17843 -1.32068 0
M  V30 16964 C 1695.64 -2.50425 -2.34824 0
M  V30 16965 C 1694.72 -3.68408 -2.10086 0
M  V30 16966 N 1695.11 -4.8134 -1.55387 0
M  V30 16967 C 1693.41 -3.75666 -2.40398 0
M  V30 16968 C 1694.11 -5.62998 -1.46314 0
M  V30 16969 N 1693.09 -5.07933 -1.93662 0
M  V30 16970 H 1696.89 -2.87366 -0.616284 0
M  V30 16971 H 1694.4 -1.60594 -0.241499 0
M  V30 16972 H 1696.4 -2.80968 -3.07998 0
M  V30 16973 H 1695.06 -1.67089 -2.78408 0
M  V30 16974 H 1696.07 -5.029 -1.2374 0
M  V30 16975 H 1692.75 -3.03119 -2.87098 0
M  V30 16976 H 1694.14 -6.63714 -1.04564 0
M  V30 16977 N 1696.86 0.307236 -1.54576 0
M  V30 16978 C 1698.09 1.06233 -1.77545 0
M  V30 16979 C 1698.5 1.81153 -0.5319 0
M  V30 16980 O 1697.86 1.75573 0.498044 0
M  V30 16981 C 1697.91 2.04775 -2.97908 0
M  V30 16982 O 1697.63 1.32896 -4.17457 0
M  V30 16983 C 1699.13 2.92373 -3.33216 0
M  V30 16984 H 1696.35 0.315318 -0.592297 0
M  V30 16985 H 1698.9 0.348403 -2.0151 0
M  V30 16986 H 1697.05 2.71679 -2.76169 0
M  V30 16987 H 1697.46 1.99022 -4.85274 0
M  V30 16988 H 1698.94 3.5738 -4.20694 0
M  V30 16989 H 1699.42 3.60343 -2.51097 0
M  V30 16990 H 1700.02 2.31009 -3.57093 0
M  V30 16991 N 1698.34 1.46926 0.570122 0
M  V30 16992 C 1699.25 1.6105 1.70587 0
M  V30 16993 C 1700.26 0.493636 1.66851 0
M  V30 16994 O 1701.44 0.759454 1.86532 0
M  V30 16995 C 1698.5 1.60913 3.07096 0
M  V30 16996 C 1697.56 2.83928 3.21999 0
M  V30 16997 C 1696.8 2.83788 4.51996 0
M  V30 16998 O 1697.02 1.93256 5.36664 0
M  V30 16999 O 1695.95 3.75491 4.70415 0
M  V30 17000 H 1699.78 2.57126 1.61616 0
M  V30 17001 H 1697.37 1.29863 0.738637 0
M  V30 17002 H 1699.25 1.63576 3.88356 0
M  V30 17003 H 1697.92 0.680005 3.16477 0
M  V30 17004 H 1696.83 2.86814 2.40185 0
M  V30 17005 H 1698.16 3.76091 3.17516 0
M  V30 17006 N 1699.82 -0.815801 1.34842 0
M  V30 17007 C 1700.76 -1.92713 1.27006 0
M  V30 17008 C 1701.73 -1.65476 0.143838 0
M  V30 17009 O 1702.92 -1.87994 0.326007 0
M  V30 17010 C 1700.06 -3.29099 1.03863 0
M  V30 17011 C 1699.17 -3.68583 2.25324 0
M  V30 17012 C 1698.31 -4.93953 1.95407 0
M  V30 17013 C 1697.34 -5.26037 3.12971 0
M  V30 17014 N 1696.48 -6.42586 2.82891 0
M  V30 17015 H 1701.32 -1.98747 2.22044 0
M  V30 17016 H 1698.86 -0.972265 1.10388 0
M  V30 17017 H 1700.82 -4.07709 0.884809 0
M  V30 17018 H 1699.45 -3.22558 0.124911 0
M  V30 17019 H 1698.5 -2.85307 2.51603 0
M  V30 17020 H 1699.81 -3.88259 3.1314 0
M  V30 17021 H 1698.96 -5.80367 1.76801 0
M  V30 17022 H 1697.7 -4.76293 1.04862 0
M  V30 17023 H 1696.71 -4.38117 3.32165 0
M  V30 17024 H 1697.93 -5.45632 4.04305 0
M  V30 17025 H 1695.88 -6.26369 1.9493 0
M  V30 17026 H 1695.8 -6.62469 3.64239 0
M  V30 17027 H 1697.06 -7.32052 2.67805 0
M  V30 17028 N 1701.29 -1.18689 -1.03686 0
M  V30 17029 C 1702.2 -0.932473 -2.15272 0
M  V30 17030 C 1703.22 0.104751 -1.73684 0
M  V30 17031 O 1704.4 -0.0780471 -2.01249 0
M  V30 17032 C 1701.46 -0.465807 -3.43557 0
M  V30 17033 C 1700.52 -1.57146 -3.99504 0
M  V30 17034 C 1699.75 -1.12696 -5.21666 0
M  V30 17035 O 1699.98 0.0127657 -5.70399 0
M  V30 17036 O 1698.91 -1.92627 -5.70244 0
M  V30 17037 H 1702.74 -1.86626 -2.39592 0
M  V30 17038 H 1700.32 -0.969029 -1.13711 0
M  V30 17039 H 1702.2 -0.213819 -4.20857 0
M  V30 17040 H 1700.88 0.43964 -3.20701 0
M  V30 17041 H 1699.79 -1.8775 -3.23575 0
M  V30 17042 H 1701.12 -2.45317 -4.26709 0
M  V30 17043 N 1702.77 1.22662 -0.989529 0
M  V30 17044 C 1703.72 2.26484 -0.529864 0
M  V30 17045 C 1704.71 1.64168 0.417759 0
M  V30 17046 O 1705.92 1.77638 0.290649 0
M  V30 17047 H 1702.29 0.736282 -0.152949 0
M  V30 17048 H 1704.27 2.62608 -1.41702 0
M  V30 17049 C 1703.01 3.47405 0.143148 0
M  V30 17050 H 1702.34 3.95615 -0.576962 0
M  V30 17051 H 1703.78 4.21831 0.428279 0
M  V30 17052 C 1702.24 3.07457 1.37738 0
M  V30 17053 O 1702.77 3.16555 2.47297 0
M  V30 17054 N 1700.97 2.62276 1.25139 0
M  V30 17055 H 1700.52 2.55073 0.359927 0
M  V30 17056 H 1700.48 2.35915 2.07826 0
M  V30 17057 N 1704.25 0.762308 1.37937 0
M  V30 17058 C 1705.5 0.321732 1.99523 0
M  V30 17059 C 1705.82 -1.10286 1.60816 0
M  V30 17060 O 1705.09 -1.75565 0.869117 0
M  V30 17061 H 1703.67 0.115967 0.737943 0
M  V30 17062 H 1706.33 0.978339 1.68566 0
M  V30 17063 H 1705.43 0.391818 3.09631 0
M  V30 17064 N 1705.73 -1.49049 0.51208 0
M  V30 17065 C 1706.68 -2.30981 -0.273991 0
M  V30 17066 C 1707.67 -1.40092 -0.952402 0
M  V30 17067 O 1708.88 -1.57088 -0.878828 0
M  V30 17068 H 1705.25 -0.744317 -0.107221 0
M  V30 17069 H 1707.22 -2.95185 0.436866 0
M  V30 17070 C 1705.97 -3.21714 -1.31892 0
M  V30 17071 H 1705.29 -3.91585 -0.806302 0
M  V30 17072 H 1706.73 -3.81961 -1.8407 0
M  V30 17073 C 1705.19 -2.42082 -2.34303 0
M  V30 17074 O 1705.72 -2.13285 -3.40401 0
M  V30 17075 N 1703.93 -2.03903 -2.07055 0
M  V30 17076 H 1703.48 -2.27523 -1.20794 0
M  V30 17077 H 1703.43 -1.50932 -2.75802 0
M  V30 17078 N 1707.21 -0.246397 -1.55662 0
M  V30 17079 C 1708.14 0.647563 -2.24341 0
M  V30 17080 C 1709.12 1.1817 -1.22352 0
M  V30 17081 O 1710.3 1.22114 -1.51003 0
M  V30 17082 C 1707.43 1.84485 -2.94249 0
M  V30 17083 C 1706.39 1.4435 -4.02923 0
M  V30 17084 C 1705.71 2.72158 -4.60255 0
M  V30 17085 C 1707.01 0.614951 -5.18667 0
M  V30 17086 H 1708.71 0.0748803 -2.99306 0
M  V30 17087 H 1706.25 0.034575 -1.43958 0
M  V30 17088 H 1708.2 2.47588 -3.40995 0
M  V30 17089 H 1706.93 2.4429 -2.16772 0
M  V30 17090 H 1705.59 0.835811 -3.56945 0
M  V30 17091 H 1705.24 3.3016 -3.79478 0
M  V30 17092 H 1704.94 2.46028 -5.33614 0
M  V30 17093 H 1706.46 3.36161 -5.09734 0
M  V30 17094 H 1707.87 1.15028 -5.61642 0
M  V30 17095 H 1706.27 0.449729 -5.98412 0
M  V30 17096 H 1707.34 -0.372943 -4.83464 0
M  V30 17097 O 1708.72 1.61118 -0.110998 0
M  V30 17098 H 1709.41 1.87426 0.489005 0
M  V30 END ATOM
M  V30 BEGIN BOND
M  V30 END BOND
M  V30 END CTAB
M  END
$$$$
