drugbank_target|Q86XP1 Diacylglycerol kinase eta (DB14001)
 OpenBabel12092121233D

  0  0  0     0  0            999 V3000
M  V30 BEGIN CTAB
M  V30 COUNTS 18902 19086 0 0 0
M  V30 BEGIN ATOM
M  V30 1 H -0.908 1.98254 -0.117106 0
M  V30 2 N 0 1.576 0 0
M  V30 3 C 0.933 2.03868 1.02534 0
M  V30 4 C 1.911 0.928543 1.3348 0
M  V30 5 O 3.095 1.19667 1.45644 0
M  V30 6 C 0.222 2.43627 2.35294 0
M  V30 7 C -0.732 3.65373 2.2001 0
M  V30 8 S 0.101 5.13292 1.52614 0
M  V30 9 C 1.257 5.56322 2.86805 0
M  V30 10 H 1.49 2.90518 0.631377 0
M  V30 11 H -0.977 1.52953 0.210867 0
M  V30 12 H 0.981 2.67203 3.11629 0
M  V30 13 H -0.358 1.57376 2.7183 0
M  V30 14 H -1.165 3.90944 3.18086 0
M  V30 15 H -1.563 3.418 1.51819 0
M  V30 16 H 0.729 5.58782 3.83104 0
M  V30 17 H 1.672 6.56266 2.65933 0
M  V30 18 H 2.08 4.83886 2.90714 0
M  V30 19 N 1.4781 -0.272755 1.55222 0
M  V30 20 C 2.4411 -1.32041 1.87344 0
M  V30 21 C 3.4411 -1.42342 0.74803 0
M  V30 22 O 4.6311 -1.41488 1.0162 0
M  V30 23 C 1.7631 -2.70173 2.07893 0
M  V30 24 H 2.9561 -1.04789 2.80997 0
M  V30 25 H 0.5091 -0.51083 1.47717 0
M  V30 26 H 1.2441 -3.02605 1.16622 0
M  V30 27 H 1.0291 -2.64082 2.89833 0
M  V30 28 H 2.5191 -3.45869 2.34017 0
M  V30 29 N 2.9562 -1.48159 -0.537278 0
M  V30 30 C 4.2042 -1.55497 -1.29094 0
M  V30 31 C 4.5252 -0.227454 -1.93669 0
M  V30 32 O 3.7952 0.750386 -1.80959 0
M  V30 33 H 2.3752 -0.572832 -0.47945 0
M  V30 34 H 5.0372 -1.84579 -0.625818 0
M  V30 35 H 4.1332 -2.33216 -2.07405 0
M  V30 36 N 4.4343 0.785586 -1.36625 0
M  V30 37 C 5.3973 1.87999 -1.31107 0
M  V30 38 C 6.3973 1.59316 -0.217959 0
M  V30 39 O 7.5873 1.67656 -0.472977 0
M  V30 40 C 4.7193 3.24861 -1.03334 0
M  V30 41 H 5.9123 1.94307 -2.2844 0
M  V30 42 H 3.4653 0.983813 -1.21453 0
M  V30 43 H 4.2003 3.24235 -0.0647432 0
M  V30 44 H 3.9853 3.4707 -1.82441 0
M  V30 45 H 5.4753 4.04929 -1.02088 0
M  V30 46 N 5.9124 1.20967 1.01018 0
M  V30 47 C 7.1604 1.02172 1.74371 0
M  V30 48 C 7.4814 -0.446414 1.89821 0
M  V30 49 O 6.7514 -1.32234 1.44537 0
M  V30 50 H 5.3314 0.375066 0.646014 0
M  V30 51 H 7.9934 1.52187 1.21758 0
M  V30 52 H 7.0894 1.48538 2.74487 0
M  V30 53 N 7.3905 -1.2043 1.01659 0
M  V30 54 C 8.6385 -1.89423 0.704522 0
M  V30 55 C 8.9595 -1.79231 -0.768197 0
M  V30 56 O 8.2295 -1.1947 -1.55254 0
M  V30 57 H 6.8095 -0.701178 0.257602 0
M  V30 58 H 9.4715 -1.4626 1.28818 0
M  V30 59 H 8.5675 -2.96052 0.987916 0
M  V30 60 N 8.8686 -0.792821 -1.36206 0
M  V30 61 C 9.8006 -0.151469 -2.28699 0
M  V30 62 C 10.8136 0.641262 -1.49638 0
M  V30 63 O 12.0026 0.475885 -1.72039 0
M  V30 64 C 9.1026 0.808424 -3.29117 0
M  V30 65 C 8.2756 0.0650202 -4.37352 0
M  V30 66 C 7.3346 0.941358 -5.17711 0
M  V30 67 O 6.3606 0.397352 -5.67811 0
M  V30 68 N 7.5626 2.2652 -5.3448 0
M  V30 69 H 10.3276 -0.945982 -2.84379 0
M  V30 70 H 7.8886 -0.647032 -1.48409 0
M  V30 71 H 9.8806 1.3986 -3.79765 0
M  V30 72 H 8.4506 1.5038 -2.74052 0
M  V30 73 H 7.6706 -0.706255 -3.87822 0
M  V30 74 H 8.9586 -0.447847 -5.06825 0
M  V30 75 H 8.3566 2.73128 -4.95396 0
M  V30 76 H 6.9136 2.80493 -5.88359 0
M  V30 77 N 10.3467 1.47872 -0.545128 0
M  V30 78 C 11.2967 2.26842 0.229456 0
M  V30 79 C 12.2807 1.33626 0.896267 0
M  V30 80 O 13.4727 1.58063 0.79657 0
M  V30 81 C 10.6017 3.19089 1.26638 0
M  V30 82 C 9.6877 4.19783 0.603598 0
M  V30 83 N 10.0787 5.0479 -0.319405 0
M  V30 84 C 8.3767 4.3765 0.858989 0
M  V30 85 C 9.0777 5.77433 -0.703241 0
M  V30 86 N 8.0537 5.43566 -0.0608309 0
M  V30 87 H 11.8557 2.89947 -0.480391 0
M  V30 88 H 9.3697 1.58263 -0.364209 0
M  V30 89 H 11.3667 3.74337 1.83515 0
M  V30 90 H 10.0267 2.5754 1.97745 0
M  V30 91 H 11.0377 5.13244 -0.692889 0
M  V30 92 H 7.7147 3.87281 1.55948 0
M  V30 93 H 9.1047 6.55824 -1.46098 0
M  V30 94 N 11.8248 0.280983 1.55075 0
M  V30 95 C 12.7748 -0.618585 2.19448 0
M  V30 96 C 13.7588 -1.11401 1.16098 0
M  V30 97 O 14.9508 -1.0581 1.41891 0
M  V30 98 C 12.0798 -1.79951 2.92357 0
M  V30 99 C 11.1658 -1.321 4.03002 0
M  V30 100 N 11.5568 -0.559044 5.02701 0
M  V30 101 C 9.8548 -1.60346 4.16179 0
M  V30 102 C 10.5558 -0.306722 5.80891 0
M  V30 103 N 9.5318 -0.880825 5.36416 0
M  V30 104 H 13.3338 -0.0286638 2.93886 0
M  V30 105 H 10.8478 0.0848104 1.62178 0
M  V30 106 H 12.8448 -2.45531 3.36927 0
M  V30 107 H 11.5048 -2.39333 2.19431 0
M  V30 108 H 12.5158 -0.205827 5.17491 0
M  V30 109 H 9.1928 -2.20621 3.54447 0
M  V30 110 H 10.5828 0.30391 6.71212 0
M  V30 111 N 13.3029 -1.57598 0.00835791 0
M  V30 112 C 14.7139 -1.7892 -0.53333 0
M  V30 113 C 15.0649 -0.916609 -1.73473 0
M  V30 114 O 14.1899 -0.121336 -2.1606 0
M  V30 115 C 14.7849 -3.24488 -0.974313 0
M  V30 116 C 13.3439 -3.46878 -1.46125 0
M  V30 117 C 12.4909 -2.74157 -0.416302 0
M  V30 118 H 15.4419 -1.56958 0.234495 0
M  V30 119 H 15.4629 -3.3306 -1.83988 0
M  V30 120 H 14.9749 -3.87972 -0.099718 0
M  V30 121 H 13.0759 -2.8862 -2.35646 0
M  V30 122 H 13.1889 -4.55572 -1.48295 0
M  V30 123 H 11.5529 -2.39022 -0.87981 0
M  V30 124 H 12.3359 -3.40345 0.44947 0
M  V30 125 N 14.781 0.264519 -1.55364 0
M  V30 126 C 16.192 0.834936 -1.6699 0
M  V30 127 C 16.543 1.86718 -0.602552 0
M  V30 128 O 15.668 2.14899 0.254425 0
M  V30 129 C 16.263 1.5212 -3.02729 0
M  V30 130 C 14.822 2.03954 -3.16354 0
M  V30 131 C 13.969 0.884498 -2.62815 0
M  V30 132 H 16.92 0.0406869 -1.58648 0
M  V30 133 H 16.941 2.38853 -2.96191 0
M  V30 134 H 16.453 0.769668 -3.80392 0
M  V30 135 H 14.554 2.82041 -2.43482 0
M  V30 136 H 14.667 2.24902 -4.23032 0
M  V30 137 H 13.031 1.2802 -2.20188 0
M  V30 138 H 13.814 0.14634 -3.42988 0
M  V30 139 N 16.2591 1.48442 0.529413 0
M  V30 140 C 17.5071 1.56179 1.28267 0
M  V30 141 C 17.8281 0.237721 1.93546 0
M  V30 142 O 17.0981 -0.740779 1.81354 0
M  V30 143 H 15.6781 0.575367 0.476405 0
M  V30 144 H 18.3401 1.84909 0.61602 0
M  V30 145 H 17.4361 2.34312 2.06165 0
M  V30 146 N 17.7372 -0.778329 1.37039 0
M  V30 147 C 18.7002 -1.87301 1.32102 0
M  V30 148 C 19.7002 -1.59198 0.226405 0
M  V30 149 O 20.8902 -1.67403 0.481861 0
M  V30 150 C 18.0222 -3.24309 1.05055 0
M  V30 151 H 19.2152 -1.93093 2.29467 0
M  V30 152 H 16.7682 -0.977358 1.21973 0
M  V30 153 H 17.5032 -3.24196 0.0819373 0
M  V30 154 H 17.2882 -3.46098 1.84279 0
M  V30 155 H 18.7782 -4.04382 1.04234 0
M  V30 156 N 19.2153 -1.21501 -1.00376 0
M  V30 157 C 20.1783 -0.976927 -2.07337 0
M  V30 158 C 21.1783 0.0525322 -1.60714 0
M  V30 159 O 22.3683 -0.184869 -1.73216 0
M  V30 160 C 19.5003 -0.473423 -3.37597 0
M  V30 161 H 20.6933 -1.92587 -2.29892 0
M  V30 162 H 18.2463 -1.03217 -1.17371 0
M  V30 163 H 18.9813 0.480379 -3.20722 0
M  V30 164 H 18.7663 -1.216 -3.72768 0
M  V30 165 H 20.2563 -0.32675 -4.1632 0
M  V30 166 N 20.6934 1.19889 -1.02296 0
M  V30 167 C 21.9414 1.89046 -0.714558 0
M  V30 168 C 22.2624 1.79636 0.758681 0
M  V30 169 O 21.5324 1.20292 1.54618 0
M  V30 170 H 20.1124 0.699802 -0.261317 0
M  V30 171 H 22.7744 1.45574 -1.29592 0
M  V30 172 H 21.8704 2.95524 -1.0036 0
M  V30 173 N 22.1715 0.800033 1.35784 0
M  V30 174 C 23.4195 0.376597 1.9856 0
M  V30 175 C 23.7405 -1.05812 1.63795 0
M  V30 176 O 23.0105 -1.73103 0.917171 0
M  V30 177 H 21.5905 0.136261 0.734467 0
M  V30 178 H 24.2525 1.02442 1.65806 0
M  V30 179 H 23.3485 0.477002 3.08433 0
M  V30 180 N 23.6496 -1.47581 0.552962 0
M  V30 181 C 24.6126 -2.28439 -0.186605 0
M  V30 182 C 25.6126 -1.36706 -0.84665 0
M  V30 183 O 26.8026 -1.59378 -0.703164 0
M  V30 184 C 23.9346 -3.16264 -1.2724 0
M  V30 185 H 25.1276 -2.95294 0.523609 0
M  V30 186 H 22.6806 -1.532 0.309745 0
M  V30 187 H 23.4156 -2.54091 -2.01514 0
M  V30 188 H 23.2006 -3.83769 -0.803968 0
M  V30 189 H 24.6906 -3.77198 -1.79196 0
M  V30 190 N 25.1277 -0.289203 -1.54924 0
M  V30 191 C 26.0907 0.579144 -2.21762 0
M  V30 192 C 27.0907 1.07047 -1.1999 0
M  V30 193 O 28.2807 0.968384 -1.44803 0
M  V30 194 C 25.4127 1.80055 -2.8947 0
M  V30 195 H 26.6057 -0.00464908 -2.999 0
M  V30 196 H 24.1587 -0.0399306 -1.56249 0
M  V30 197 H 24.8937 2.42449 -2.15381 0
M  V30 198 H 24.6787 1.45602 -3.64064 0
M  V30 199 H 26.1687 2.41773 -3.40493 0
M  V30 200 N 26.6058 1.57591 -0.0167156 0
M  V30 201 C 27.5688 2.08393 0.954204 0
M  V30 202 C 28.5688 0.996531 1.26198 0
M  V30 203 O 29.7588 1.25858 1.20438 0
M  V30 204 C 26.8908 2.5394 2.27436 0
M  V30 205 H 28.0838 2.95455 0.514451 0
M  V30 206 H 25.6368 1.54582 0.231089 0
M  V30 207 H 26.3718 1.70171 2.76066 0
M  V30 208 H 26.1568 3.33371 2.06412 0
M  V30 209 H 27.6468 2.93512 2.97053 0
M  V30 210 N 28.0839 -0.256276 1.55502 0
M  V30 211 C 29.3319 -0.983672 1.76545 0
M  V30 212 C 29.6529 -1.86206 0.578982 0
M  V30 213 O 28.9229 -1.91656 -0.405577 0
M  V30 214 H 27.5029 -0.366191 0.651086 0
M  V30 215 H 30.1649 -0.276479 1.92929 0
M  V30 216 H 29.2609 -1.61087 2.67315 0
M  V30 217 N 29.562 -1.4872 -0.521534 0
M  V30 218 C 30.525 -1.63379 -1.60748 0
M  V30 219 C 31.525 -0.50661 -1.52611 0
M  V30 220 O 32.715 -0.772601 -1.5613 0
M  V30 221 C 29.847 -1.61192 -3.00383 0
M  V30 222 H 31.04 -2.60217 -1.49087 0
M  V30 223 H 28.593 -1.37444 -0.744235 0
M  V30 224 H 29.328 -0.65863 -3.17541 0
M  V30 225 H 29.113 -2.43032 -3.07698 0
M  V30 226 H 30.603 -1.7466 -3.7932 0
M  V30 227 N 31.0401 0.771051 -1.3745 0
M  V30 228 C 32.2881 1.52661 -1.32435 0
M  V30 229 C 32.6091 1.9479 0.0905024 0
M  V30 230 O 31.8791 1.66348 1.03466 0
M  V30 231 H 30.4591 0.566218 -0.487244 0
M  V30 232 H 33.1211 0.917636 -1.71946 0
M  V30 233 H 32.2171 2.42568 -1.96385 0
M  V30 234 N 32.5182 1.22032 0.997298 0
M  V30 235 C 33.4812 0.987909 2.06816 0
M  V30 236 C 34.4812 -0.0440084 1.6074 0
M  V30 237 O 35.6712 0.194053 1.73116 0
M  V30 238 C 32.8032 0.49132 3.37341 0
M  V30 239 H 33.9962 1.93803 2.28868 0
M  V30 240 H 31.5492 1.03838 1.16822 0
M  V30 241 H 32.2842 -0.463364 3.20973 0
M  V30 242 H 32.0692 1.23575 3.72118 0
M  V30 243 H 33.5592 0.348824 4.16141 0
M  V30 244 N 33.9963 -1.19345 1.0293 0
M  V30 245 C 34.9593 -2.20793 0.615069 0
M  V30 246 C 35.9593 -1.57553 -0.321533 0
M  V30 247 O 37.1493 -1.73862 -0.108483 0
M  V30 248 C 34.2813 -3.40754 -0.0999222 0
M  V30 249 H 35.4743 -2.58955 1.51269 0
M  V30 250 H 33.0273 -1.3303 0.820534 0
M  V30 251 H 33.7623 -3.0811 -1.01187 0
M  V30 252 H 33.5473 -3.87889 0.57309 0
M  V30 253 H 35.0373 -4.15898 -0.376645 0
M  V30 254 N 35.4744 -0.807222 -1.35358 0
M  V30 255 C 36.7204 -0.388463 -1.99045 0
M  V30 256 C 37.0534 1.04184 -1.63888 0
M  V30 257 O 36.3284 1.72292 -0.902535 0
M  V30 258 C 36.6114 -0.572783 -3.55515 0
M  V30 259 C 36.4644 -2.04807 -4.00468 0
M  V30 260 C 37.7834 0.00114064 -4.401 0
M  V30 261 H 34.9024 -0.142619 -0.723069 0
M  V30 262 H 37.5444 -1.01687 -1.60498 0
M  V30 263 H 35.6944 -0.0378425 -3.88482 0
M  V30 264 H 37.3664 -2.64544 -3.77908 0
M  V30 265 H 35.6094 -2.54427 -3.51353 0
M  V30 266 H 36.2804 -2.12792 -5.09337 0
M  V30 267 H 38.7564 -0.455716 -4.13597 0
M  V30 268 H 37.6324 -0.157737 -5.48673 0
M  V30 269 H 37.8934 1.09488 -4.28328 0
M  V30 270 N 36.9525 1.47285 -0.560781 0
M  V30 271 C 38.1805 2.06855 -0.0430262 0
M  V30 272 C 38.5955 1.41291 1.25229 0
M  V30 273 O 37.9525 0.510648 1.7521 0
M  V30 274 C 38.0035 3.61178 0.152518 0
M  V30 275 O 37.7245 4.24285 -1.0915 0
M  V30 276 C 39.2255 4.37624 0.707145 0
M  V30 277 H 36.4455 0.669319 -0.0474652 0
M  V30 278 H 38.9895 1.89237 -0.77521 0
M  V30 279 H 37.1445 3.78298 0.834843 0
M  V30 280 H 37.5585 5.16868 -0.891482 0
M  V30 281 H 39.0325 5.46271 0.793244 0
M  V30 282 H 39.5095 4.04152 1.71923 0
M  V30 283 H 40.1155 4.25257 0.0604027 0
M  V30 284 N 38.4306 0.297415 1.54768 0
M  V30 285 C 39.6556 -0.318435 2.04941 0
M  V30 286 C 40.0806 -1.4701 1.17345 0
M  V30 287 O 39.4386 -1.80436 0.176758 0
M  V30 288 C 39.4866 -0.755749 3.52592 0
M  V30 289 O 38.5906 -1.86088 3.68028 0
M  V30 290 H 37.9316 -0.062421 0.661059 0
M  V30 291 H 40.4616 0.438215 1.99852 0
M  V30 292 H 40.4716 -1.04552 3.94376 0
M  V30 293 H 39.1466 0.0867233 4.1581 0
M  V30 294 H 37.7236 -1.57193 3.38149 0
M  V30 295 N 39.9087 -1.5758 0.0250728 0
M  V30 296 C 40.8717 -2.08896 -0.943139 0
M  V30 297 C 41.8717 -1.00321 -1.25668 0
M  V30 298 O 43.0617 -1.26495 -1.19769 0
M  V30 299 C 40.1937 -2.55143 -2.26086 0
M  V30 300 H 41.3867 -2.95723 -0.498775 0
M  V30 301 H 38.9397 -1.54703 -0.222888 0
M  V30 302 H 39.6747 -1.71633 -2.75159 0
M  V30 303 H 39.4597 -3.34461 -2.04641 0
M  V30 304 H 40.9497 -2.95083 -2.95492 0
M  V30 305 N 41.3868 0.248026 -1.55636 0
M  V30 306 C 42.3498 1.29044 -1.89421 0
M  V30 307 C 43.3498 1.41134 -0.770581 0
M  V30 308 O 44.5398 1.39854 -1.03858 0
M  V30 309 C 41.6718 2.66831 -2.12165 0
M  V30 310 H 42.8648 1.00305 -2.82629 0
M  V30 311 H 40.4178 0.487265 -1.48511 0
M  V30 312 H 41.1528 3.00711 -1.21422 0
M  V30 313 H 40.9378 2.59438 -2.93997 0
M  V30 314 H 42.4278 3.42103 -2.3949 0
M  V30 315 N 42.8649 1.48995 0.513639 0
M  V30 316 C 43.8279 1.64229 1.59879 0
M  V30 317 C 44.8279 0.514696 1.5234 0
M  V30 318 O 46.0179 0.78087 1.55718 0
M  V30 319 C 43.1499 1.62783 2.99524 0
M  V30 320 H 44.3429 2.61004 1.47705 0
M  V30 321 H 41.8959 1.37837 0.736936 0
M  V30 322 H 42.6309 0.675461 3.17188 0
M  V30 323 H 42.4159 2.4466 3.06404 0
M  V30 324 H 43.9059 1.76669 3.78388 0
M  V30 325 N 44.343 -0.763751 1.37857 0
M  V30 326 C 45.568 -1.55805 1.36893 0
M  V30 327 C 45.993 -1.88054 -0.0416135 0
M  V30 328 O 45.351 -1.49825 -1.02089 0
M  V30 329 C 45.399 -2.84012 2.22192 0
M  V30 330 O 44.503 -3.78732 1.63204 0
M  V30 331 H 43.844 -0.471638 0.46739 0
M  V30 332 H 46.374 -0.944657 1.81487 0
M  V30 333 H 46.384 -3.33037 2.35691 0
M  V30 334 H 45.059 -2.59869 3.24716 0
M  V30 335 H 43.636 -3.37402 1.58791 0
M  V30 336 N 45.8211 -1.22559 -0.990812 0
M  V30 337 C 46.7841 -0.998863 -2.0629 0
M  V30 338 C 47.7841 0.0354834 -1.60761 0
M  V30 339 O 48.9741 -0.203231 -1.7301 0
M  V30 340 C 46.1061 -0.509203 -3.37076 0
M  V30 341 H 47.2991 -1.95014 -2.27837 0
M  V30 342 H 44.8521 -1.04456 -1.16269 0
M  V30 343 H 45.5871 0.446335 -3.21214 0
M  V30 344 H 45.3721 -1.25547 -3.71457 0
M  V30 345 H 46.8621 -0.370888 -4.1595 0
M  V30 346 N 47.2992 1.18797 -1.03562 0
M  V30 347 C 48.5472 1.88278 -0.734569 0
M  V30 348 C 48.8682 1.8043 0.739586 0
M  V30 349 O 48.1382 1.21925 1.53333 0
M  V30 350 H 46.7182 0.696991 -0.268725 0
M  V30 351 H 49.3802 1.44192 -1.31129 0
M  V30 352 H 48.4762 2.94443 -1.03489 0
M  V30 353 N 48.7773 0.814389 1.34928 0
M  V30 354 C 50.1883 0.458364 1.80986 0
M  V30 355 C 50.5393 -1.02042 1.67577 0
M  V30 356 O 49.6643 -1.79352 1.21086 0
M  V30 357 C 50.2593 0.825212 3.28597 0
M  V30 358 C 48.8183 0.521677 3.72767 0
M  V30 359 C 47.9653 1.04668 2.56788 0
M  V30 360 H 50.9163 1.00533 1.22795 0
M  V30 361 H 50.9373 0.12571 3.80292 0
M  V30 362 H 50.4493 1.90154 3.38324 0
M  V30 363 H 48.5503 -0.545589 3.68584 0
M  V30 364 H 48.6633 1.05977 4.67232 0
M  V30 365 H 47.0273 0.468622 2.50352 0
M  V30 366 H 47.8103 2.12927 2.6929 0
M  V30 367 N 50.2554 -1.46986 0.568584 0
M  V30 368 C 51.5034 -2.02041 0.0487022 0
M  V30 369 C 51.8244 -1.44408 -1.31039 0
M  V30 370 O 51.0944 -0.623477 -1.85714 0
M  V30 371 H 49.6744 -0.746849 0.015014 0
M  V30 372 H 52.3364 -1.80257 0.741168 0
M  V30 373 H 51.4324 -3.12085 -0.0308961 0
M  V30 374 N 51.7335 -0.305618 -1.54608 0
M  V30 375 C 52.6435 0.57778 -2.27374 0
M  V30 376 C 53.6595 1.14451 -1.31061 0
M  V30 377 O 54.8355 1.16831 -1.6405 0
M  V30 378 C 51.9005 1.73123 -3.00382 0
M  V30 379 C 50.9615 1.19812 -4.12242 0
M  V30 380 C 50.1945 2.2966 -4.81759 0
M  V30 381 O 50.4175 3.49651 -4.50666 0
M  V30 382 O 49.3515 1.96091 -5.69062 0
M  V30 383 H 53.1775 -0.012624 -3.03697 0
M  V30 384 H 50.7625 -0.0719184 -1.49227 0
M  V30 385 H 52.6445 2.40315 -3.4616 0
M  V30 386 H 51.3195 2.30815 -2.26949 0
M  V30 387 H 50.2265 0.491798 -3.70853 0
M  V30 388 H 51.5595 0.666566 -4.87666 0
M  V30 389 N 53.2116 1.57565 -0.0334293 0
M  V30 390 C 54.4886 1.83282 0.683163 0
M  V30 391 C 54.8686 0.91823 1.90084 0
M  V30 392 O 54.2166 -0.025113 2.28486 0
M  V30 393 C 54.4266 3.32599 1.0573 0
M  V30 394 C 55.7746 3.99179 1.44711 0
M  V30 395 O 56.7986 3.3712 1.15015 0
M  V30 396 O 55.6576 5.08565 2.0006 0
M  V30 397 H 52.7516 0.755869 0.335546 0
M  V30 398 H 55.2976 1.69589 -0.0614402 0
M  V30 399 H 54.0696 3.90834 0.190828 0
M  V30 400 H 53.6926 3.51415 1.85993 0
M  V30 401 N 54.6897 -0.239769 1.55765 0
M  V30 402 C 55.9147 -0.988373 1.82335 0
M  V30 403 C 56.3397 -1.77886 0.611421 0
M  V30 404 O 55.6977 -1.75889 -0.439639 0
M  V30 405 C 55.7457 -1.89627 3.06715 0
M  V30 406 O 54.8497 -2.98904 2.84131 0
M  V30 407 H 54.1907 -0.280858 0.601677 0
M  V30 408 H 56.7207 -0.258597 2.02959 0
M  V30 409 H 56.7307 -2.30957 3.36338 0
M  V30 410 H 55.4057 -1.31511 3.9456 0
M  V30 411 H 53.9827 -2.61651 2.65694 0
M  V30 412 N 56.1678 -1.49265 -0.50573 0
M  V30 413 C 57.3928 -1.62478 -1.28902 0
M  V30 414 C 57.8178 -0.294332 -1.85783 0
M  V30 415 O 57.1758 0.737412 -1.65626 0
M  V30 416 C 57.2238 -2.69268 -2.39848 0
M  V30 417 O 56.3278 -2.28113 -3.43567 0
M  V30 418 H 55.6688 -0.54399 -0.380751 0
M  V30 419 H 58.1988 -1.95421 -0.605952 0
M  V30 420 H 58.2088 -2.91291 -2.85681 0
M  V30 421 H 56.8838 -3.65846 -1.97812 0
M  V30 422 H 55.4608 -2.16401 -3.03685 0
M  V30 423 N 57.6459 0.756429 -1.3826 0
M  V30 424 C 58.9229 1.50584 -1.24835 0
M  V30 425 C 59.3029 2.10556 0.151485 0
M  V30 426 O 58.6509 1.96825 1.1607 0
M  V30 427 C 58.8609 2.57448 -2.3563 0
M  V30 428 C 60.2089 3.24429 -2.73917 0
M  V30 429 O 61.2329 2.67751 -2.34921 0
M  V30 430 O 60.0919 4.26937 -3.41156 0
M  V30 431 H 57.1859 0.667664 -0.48801 0
M  V30 432 H 59.7319 0.792083 -1.5008 0
M  V30 433 H 58.5039 2.11362 -3.29305 0
M  V30 434 H 58.1269 3.36408 -2.11933 0
M  V30 435 N 59.124 1.23083 0.984299 0
M  V30 436 C 60.349 1.088 1.76571 0
M  V30 437 C 60.774 -0.356657 1.84688 0
M  V30 438 O 60.132 -1.25788 1.30565 0
M  V30 439 C 60.18 1.71371 3.17277 0
M  V30 440 O 59.284 0.973213 4.00752 0
M  V30 441 H 58.625 0.381599 0.543395 0
M  V30 442 H 61.155 1.63057 1.23587 0
M  V30 443 H 61.165 1.76449 3.67872 0
M  V30 444 H 59.84 2.76493 3.10684 0
M  V30 445 H 58.417 0.999078 3.59267 0
M  V30 446 N 60.6021 -1.18246 1.0419 0
M  V30 447 C 61.5121 -2.25574 0.644476 0
M  V30 448 C 62.5281 -1.70845 -0.329826 0
M  V30 449 O 63.7041 -2.00554 -0.184443 0
M  V30 450 C 60.7691 -3.46697 0.014877 0
M  V30 451 C 59.8301 -4.16554 1.03834 0
M  V30 452 C 59.0631 -5.31894 0.438692 0
M  V30 453 O 59.2861 -5.65385 -0.754752 0
M  V30 454 O 58.2201 -5.90459 1.168 0
M  V30 455 H 62.0461 -2.61836 1.53869 0
M  V30 456 H 59.6311 -1.25352 0.812854 0
M  V30 457 H 61.5131 -4.20062 -0.335538 0
M  V30 458 H 60.1881 -3.12255 -0.853138 0
M  V30 459 H 59.0951 -3.45251 1.44057 0
M  V30 460 H 60.4281 -4.54998 1.87716 0
M  V30 461 N 62.0802 -0.821533 -1.34494 0
M  V30 462 C 63.0432 -0.247847 -2.27856 0
M  V30 463 C 64.0432 0.573453 -1.50227 0
M  V30 464 O 65.2332 0.389759 -1.69784 0
M  V30 465 C 62.3652 0.652698 -3.34593 0
M  V30 466 H 63.5582 -1.07146 -2.80107 0
M  V30 467 H 61.1112 -0.593291 -1.44602 0
M  V30 468 H 61.8462 1.49943 -2.87555 0
M  V30 469 H 61.6312 0.065292 -3.92046 0
M  V30 470 H 63.1212 1.04793 -4.04238 0
M  V30 471 N 63.5583 1.46682 -0.576371 0
M  V30 472 C 64.4683 2.34032 0.163141 0
M  V30 473 C 65.4843 1.49367 0.892501 0
M  V30 474 O 66.6603 1.82252 0.857106 0
M  V30 475 C 63.7253 3.26435 1.16795 0
M  V30 476 C 62.7863 4.26998 0.443944 0
M  V30 477 C 62.0193 5.14986 1.40088 0
M  V30 478 O 62.2423 5.05785 2.637 0
M  V30 479 O 61.1763 5.94906 0.914917 0
M  V30 480 H 65.0023 2.98607 -0.55388 0
M  V30 481 H 62.5873 1.45554 -0.336821 0
M  V30 482 H 64.4693 3.83459 1.74748 0
M  V30 483 H 63.1443 2.64465 1.86655 0
M  V30 484 H 62.0513 3.7368 -0.177271 0
M  V30 485 H 63.3843 4.91736 -0.213566 0
M  V30 486 N 65.0364 0.313813 1.54444 0
M  V30 487 C 65.9684 -0.590425 2.21465 0
M  V30 488 C 66.9814 -1.08753 1.21147 0
M  V30 489 O 68.1704 -1.00278 1.4767 0
M  V30 490 C 65.2704 -1.82179 2.85769 0
M  V30 491 C 64.4434 -1.46502 4.12136 0
M  V30 492 C 63.5024 -2.55288 4.60124 0
M  V30 493 O 62.5284 -2.19842 5.25032 0
M  V30 494 N 63.7304 -3.86053 4.33525 0
M  V30 495 H 66.4954 -0.0166033 2.99695 0
M  V30 496 H 64.0564 0.136578 1.61323 0
M  V30 497 H 66.0484 -2.54328 3.14801 0
M  V30 498 H 64.6184 -2.30369 2.11303 0
M  V30 499 H 63.8384 -0.575595 3.89975 0
M  V30 500 H 65.1264 -1.20221 4.94393 0
M  V30 501 H 64.5244 -4.17654 3.81552 0
M  V30 502 H 63.0814 -4.54461 4.67235 0
M  V30 503 N 66.5145 -1.57545 0.0417849 0
M  V30 504 C 67.4245 -2.14451 -0.951213 0
M  V30 505 C 68.4405 -1.09992 -1.34825 0
M  V30 506 O 69.6165 -1.42114 -1.42708 0
M  V30 507 C 66.6815 -2.67063 -2.21084 0
M  V30 508 C 65.7425 -3.86284 -1.87304 0
M  V30 509 C 64.9755 -4.36378 -3.07261 0
M  V30 510 O 65.1985 -3.85587 -4.20332 0
M  V30 511 O 64.1325 -5.28077 -2.88822 0
M  V30 512 H 67.9585 -2.99601 -0.497287 0
M  V30 513 H 65.5435 -1.48317 -0.179567 0
M  V30 514 H 67.4255 -3.00914 -2.95006 0
M  V30 515 H 66.1005 -1.84989 -2.65633 0
M  V30 516 H 65.0075 -3.57338 -1.10727 0
M  V30 517 H 66.3405 -4.6956 -1.47562 0
M  V30 518 N 67.9926 0.231505 -1.5589 0
M  V30 519 C 69.2406 0.955461 -1.78088 0
M  V30 520 C 69.5616 1.85262 -0.608533 0
M  V30 521 O 68.8316 1.92277 0.375035 0
M  V30 522 H 67.4116 0.355787 -0.656829 0
M  V30 523 H 70.0736 0.245751 -1.93344 0
M  V30 524 H 69.1696 1.56814 -2.69844 0
M  V30 525 N 69.4707 1.49531 0.497807 0
M  V30 526 C 70.8817 1.52344 1.07927 0
M  V30 527 C 71.2327 0.311469 1.93712 0
M  V30 528 O 70.3577 -0.578405 2.08527 0
M  V30 529 C 70.9527 2.76062 1.96405 0
M  V30 530 C 69.5117 2.81643 2.49709 0
M  V30 531 C 68.6587 2.46299 1.27404 0
M  V30 532 H 71.6097 1.56182 0.281576 0
M  V30 533 H 71.6307 2.56405 2.81135 0
M  V30 534 H 71.1427 3.64254 1.33943 0
M  V30 535 H 69.2437 1.97739 3.15801 0
M  V30 536 H 69.3567 3.83891 2.86643 0
M  V30 537 H 67.7207 1.98148 1.60029 0
M  V30 538 H 68.5037 3.36769 0.66645 0
M  V30 539 N 70.9488 -0.749086 1.3866 0
M  V30 540 C 71.8808 -1.87273 1.32142 0
M  V30 541 C 72.8938 -1.61127 0.232787 0
M  V30 542 O 74.0828 -1.71623 0.49069 0
M  V30 543 C 71.1828 -3.23005 1.02571 0
M  V30 544 C 70.3558 -3.7662 2.22433 0
M  V30 545 C 69.4148 -4.90879 1.89537 0
M  V30 546 O 68.4408 -5.05276 2.62078 0
M  V30 547 N 69.6428 -5.74198 0.853031 0
M  V30 548 H 72.4078 -1.93373 2.28969 0
M  V30 549 H 69.9688 -0.929216 1.32579 0
M  V30 550 H 71.9608 -3.96992 0.786085 0
M  V30 551 H 70.5308 -3.12262 0.145249 0
M  V30 552 H 69.7508 -2.94147 2.62434 0
M  V30 553 H 71.0388 -4.09173 3.02415 0
M  V30 554 H 70.4368 -5.6514 0.25155 0
M  V30 555 H 68.9938 -6.48313 0.67329 0
M  V30 556 N 72.4269 -1.23603 -0.977757 0
M  V30 557 C 73.3739 -1.01954 -2.07061 0
M  V30 558 C 74.3439 0.0638697 -1.65977 0
M  V30 559 O 75.5289 -0.0887624 -1.90593 0
M  V30 560 C 72.6689 -0.619658 -3.39491 0
M  V30 561 C 71.7819 -1.77547 -3.93829 0
M  V30 562 C 70.9169 -1.32212 -5.14484 0
M  V30 563 C 69.9559 -2.44852 -5.60994 0
M  V30 564 N 69.0929 -2.00456 -6.72876 0
M  V30 565 H 73.9329 -1.95495 -2.24913 0
M  V30 566 H 71.4699 -0.973861 -1.10247 0
M  V30 567 H 73.4279 -0.368898 -4.15566 0
M  V30 568 H 72.0579 0.278752 -3.21594 0
M  V30 569 H 71.1099 -2.14016 -3.14486 0
M  V30 570 H 72.4219 -2.62219 -4.24314 0
M  V30 571 H 71.5759 -1.02965 -5.97899 0
M  V30 572 H 70.3149 -0.445808 -4.85658 0
M  V30 573 H 69.3199 -2.74871 -4.76157 0
M  V30 574 H 70.5449 -3.33024 -5.91837 0
M  V30 575 H 68.4909 -1.15208 -6.45804 0
M  V30 576 H 68.4079 -2.78687 -7.02759 0
M  V30 577 H 69.6759 -1.7432 -7.59758 0
M  V30 578 N 73.905 1.17692 -1.04816 0
M  V30 579 C 74.835 2.23777 -0.666791 0
M  V30 580 C 75.816 1.66796 0.33361 0
M  V30 581 O 77.001 1.93039 0.212042 0
M  V30 582 C 74.131 3.47281 -0.0367933 0
M  V30 583 C 73.085 4.17059 -0.961546 0
M  V30 584 C 72.411 5.34342 -0.195626 0
M  V30 585 C 73.711 4.69713 -2.28402 0
M  V30 586 H 75.405 2.55933 -1.55367 0
M  V30 587 H 72.951 1.23019 -0.748484 0
M  V30 588 H 74.904 4.20706 0.241775 0
M  V30 589 H 73.628 3.14381 0.885004 0
M  V30 590 H 72.287 3.45541 -1.22462 0
M  V30 591 H 71.935 4.97692 0.728816 0
M  V30 592 H 71.635 5.81966 -0.811775 0
M  V30 593 H 73.159 6.10553 0.0757473 0
M  V30 594 H 74.573 5.34794 -2.06563 0
M  V30 595 H 72.97 5.279 -2.8538 0
M  V30 596 H 74.04 3.86726 -2.92525 0
M  V30 597 N 75.3831 0.828654 1.34056 0
M  V30 598 C 76.6321 0.415828 1.97367 0
M  V30 599 C 76.9451 -1.02796 1.6641 0
M  V30 600 O 78.1511 -1.54497 2.23255 0
M  V30 601 C 76.6071 0.692601 3.53173 0
M  V30 602 C 76.2151 2.15038 3.93017 0
M  V30 603 C 77.9591 0.346222 4.23086 0
M  V30 604 C 75.8661 2.37174 5.41758 0
M  V30 605 H 74.7961 0.151755 0.738571 0
M  V30 606 H 77.4471 1.01581 1.52819 0
M  V30 607 H 75.8291 0.0223764 3.95994 0
M  V30 608 H 77.0031 2.86024 3.61285 0
M  V30 609 H 75.3181 2.45875 3.36057 0
M  V30 610 H 77.9151 0.48937 5.32456 0
M  V30 611 H 78.2581 -0.709842 4.10204 0
M  V30 612 H 78.7911 0.971258 3.85761 0
M  V30 613 H 75.5301 3.41308 5.59633 0
M  V30 614 H 75.0501 1.70738 5.74986 0
M  V30 615 H 76.7291 2.19818 6.08514 0
M  V30 616 N 76.8612 -1.46375 0.584142 0
M  V30 617 C 78.2772 -1.57694 0.245929 0
M  V30 618 C 78.4772 -1.57903 -1.25175 0
M  V30 619 O 77.5332 -1.49676 -2.03355 0
M  V30 620 C 78.8462 -2.87028 0.896402 0
M  V30 621 C 80.3942 -3.00662 0.870127 0
M  V30 622 C 80.8692 -4.32734 1.50017 0
M  V30 623 N 82.3602 -4.39436 1.46458 0
M  V30 624 C 83.0952 -5.40248 1.92144 0
M  V30 625 N 82.5912 -6.47726 2.4581 0
M  V30 626 N 84.3842 -5.31459 1.83052 0
M  V30 627 H 76.5352 -1.44483 1.55687 0
M  V30 628 H 78.7982 -0.689291 0.650831 0
M  V30 629 H 78.5042 -2.9269 1.95002 0
M  V30 630 H 78.3782 -3.75014 0.405486 0
M  V30 631 H 80.7652 -2.94581 -0.174871 0
M  V30 632 H 80.8462 -2.14148 1.39908 0
M  V30 633 H 80.4902 -4.39573 2.54437 0
M  V30 634 H 80.4202 -5.18025 0.946432 0
M  V30 635 H 82.9112 -3.62367 1.07231 0
M  V30 636 H 83.2242 -7.20863 2.78525 0
M  V30 637 H 81.5692 -6.48542 2.49836 0
M  V30 638 H 84.7602 -4.46396 1.40883 0
M  V30 639 H 84.9332 -6.09881 2.18973 0
M  V30 640 N 78.3393 -0.321999 -1.54275 0
M  V30 641 C 79.2863 0.544664 -2.24281 0
M  V30 642 C 80.2563 1.1129 -1.23303 0
M  V30 643 O 81.4413 1.15354 -1.51981 0
M  V30 644 C 78.5813 1.70045 -3.00298 0
M  V30 645 C 77.6943 1.16159 -4.1609 0
M  V30 646 C 76.8293 2.28293 -4.79641 0
M  V30 647 C 75.8683 1.71648 -5.8754 0
M  V30 648 N 75.0053 2.77438 -6.44959 0
M  V30 649 H 79.8453 -0.0588907 -2.97942 0
M  V30 650 H 77.3823 -0.0408345 -1.47043 0
M  V30 651 H 79.3403 2.38054 -3.42616 0
M  V30 652 H 77.9703 2.27531 -2.28975 0
M  V30 653 H 77.0223 0.373092 -3.78566 0
M  V30 654 H 78.3343 0.707087 -4.93763 0
M  V30 655 H 77.4883 3.0421 -5.2492 0
M  V30 656 H 76.2273 2.77079 -4.01346 0
M  V30 657 H 75.2323 0.942282 -5.41665 0
M  V30 658 H 76.4573 1.23741 -6.67731 0
M  V30 659 H 74.4033 3.25519 -5.69538 0
M  V30 660 H 74.3203 2.36547 -7.1804 0
M  V30 661 H 75.5883 3.53189 -6.94894 0
M  V30 662 N 79.8174 1.5752 -0.0501392 0
M  V30 663 C 81.0634 1.92936 0.624798 0
M  V30 664 C 81.3964 0.928685 1.70555 0
M  V30 665 O 80.6714 -0.0454779 1.94447 0
M  V30 666 C 80.9544 3.38737 1.22185 0
M  V30 667 C 80.8074 4.49552 0.149218 0
M  V30 668 C 82.1264 3.84913 2.13378 0
M  V30 669 H 79.2454 0.701604 0.225657 0
M  V30 670 H 81.8874 1.89671 -0.111693 0
M  V30 671 H 80.0374 3.4165 1.84953 0
M  V30 672 H 81.7094 4.58768 -0.482648 0
M  V30 673 H 79.9524 4.30638 -0.522841 0
M  V30 674 H 80.6234 5.48653 0.606966 0
M  V30 675 H 83.0994 3.8387 1.60572 0
M  V30 676 H 81.9754 4.87584 2.52097 0
M  V30 677 H 82.2364 3.21611 3.03346 0
M  V30 678 N 81.2955 -0.223234 1.56011 0
M  V30 679 C 82.5205 -0.968978 1.83373 0
M  V30 680 C 82.9455 -1.77227 0.630254 0
M  V30 681 O 82.3035 -1.76345 -0.420959 0
M  V30 682 C 82.3515 -1.86363 3.08709 0
M  V30 683 O 81.4555 -2.95873 2.87285 0
M  V30 684 H 80.7965 -0.274461 0.604622 0
M  V30 685 H 83.3265 -0.237056 2.03222 0
M  V30 686 H 83.3365 -2.27376 3.38768 0
M  V30 687 H 82.0115 -1.27319 3.95933 0
M  V30 688 H 80.5885 -2.58818 2.68454 0
M  V30 689 N 82.7736 -1.49793 -0.48987 0
M  V30 690 C 84.0016 -1.63568 -1.26701 0
M  V30 691 C 84.4166 -0.311465 -1.86213 0
M  V30 692 O 83.7736 0.704416 -1.68357 0
M  V30 693 C 83.8246 -2.71284 -2.38929 0
M  V30 694 O 83.5456 -3.9857 -1.81861 0
M  V30 695 C 85.0466 -2.95864 -3.3012 0
M  V30 696 H 82.2666 -0.550342 -0.383881 0
M  V30 697 H 84.8106 -1.95898 -0.586864 0
M  V30 698 H 82.9656 -2.417 -3.02753 0
M  V30 699 H 83.3796 -4.57993 -2.55622 0
M  V30 700 H 84.8536 -3.74941 -4.05121 0
M  V30 701 H 85.3306 -2.06206 -3.87783 0
M  V30 702 H 85.9366 -3.26907 -2.72051 0
M  V30 703 N 84.2517 0.741722 -1.39055 0
M  V30 704 C 85.4767 1.53607 -1.39354 0
M  V30 705 C 85.9017 1.88096 0.0116905 0
M  V30 706 O 85.2597 1.5143 0.996924 0
M  V30 707 C 85.3077 2.80441 -2.26682 0
M  V30 708 O 84.4117 3.76088 -1.69208 0
M  V30 709 H 83.7527 0.464142 -0.474835 0
M  V30 710 H 86.2827 0.915665 -1.82967 0
M  V30 711 H 86.2927 3.29246 -2.40959 0
M  V30 712 H 84.9677 2.5467 -3.2881 0
M  V30 713 H 83.5447 3.34833 -1.64138 0
M  V30 714 N 85.7298 1.2412 0.971189 0
M  V30 715 C 86.9778 1.07668 1.71032 0
M  V30 716 C 87.2988 -0.385797 1.91146 0
M  V30 717 O 86.5688 -1.27569 1.4867 0
M  V30 718 H 85.1488 0.395429 0.633755 0
M  V30 719 H 87.8108 1.55984 1.16855 0
M  V30 720 H 86.9068 1.57195 2.69622 0
M  V30 721 N 87.2079 -1.17134 1.05439 0
M  V30 722 C 88.1399 -2.2078 0.615539 0
M  V30 723 C 89.1529 -1.59584 -0.322001 0
M  V30 724 O 90.3419 -1.78133 -0.114344 0
M  V30 725 C 87.4419 -3.38691 -0.118938 0
M  V30 726 C 86.6149 -4.29454 0.829924 0
M  V30 727 C 85.6739 -5.26024 0.136258 0
M  V30 728 O 84.6999 -5.63952 0.77115 0
M  V30 729 N 85.9019 -5.69487 -1.1254 0
M  V30 730 H 88.6669 -2.59052 1.50705 0
M  V30 731 H 86.2279 -1.32058 0.936603 0
M  V30 732 H 88.2199 -4.00329 -0.593179 0
M  V30 733 H 86.7899 -2.98996 -0.91215 0
M  V30 734 H 86.0099 -3.65211 1.48373 0
M  V30 735 H 87.2979 -4.86984 1.47392 0
M  V30 736 H 86.6959 -5.4075 -1.6615 0
M  V30 737 H 85.2529 -6.33257 -1.54366 0
M  V30 738 N 88.686 -0.835752 -1.33615 0
M  V30 739 C 89.935 -0.426289 -1.97144 0
M  V30 740 C 90.248 1.01912 -1.66953 0
M  V30 741 O 91.454 1.53311 -2.24072 0
M  V30 742 C 89.91 -0.711321 -3.52801 0
M  V30 743 C 89.518 -2.1712 -3.91871 0
M  V30 744 C 91.262 -0.368654 -4.22896 0
M  V30 745 C 89.169 -2.40044 -5.40493 0
M  V30 746 H 88.099 -0.15567 -0.737755 0
M  V30 747 H 90.75 -1.0239 -1.52278 0
M  V30 748 H 89.132 -0.0433766 -3.95976 0
M  V30 749 H 90.306 -2.87936 -3.59763 0
M  V30 750 H 88.621 -2.47654 -3.34749 0
M  V30 751 H 91.218 -0.517601 -5.32189 0
M  V30 752 H 91.561 0.688078 -4.10574 0
M  V30 753 H 92.094 -0.991702 -3.8524 0
M  V30 754 H 88.833 -3.44271 -5.57815 0
M  V30 755 H 88.353 -1.73785 -5.74072 0
M  V30 756 H 90.032 -2.23042 -6.0734 0
M  V30 757 N 90.1641 1.46063 -0.591896 0
M  V30 758 C 91.5801 1.57561 -0.254288 0
M  V30 759 C 91.7801 1.58565 1.24336 0
M  V30 760 O 90.8361 1.50753 2.02558 0
M  V30 761 C 92.1491 2.86549 -0.911611 0
M  V30 762 C 93.6971 3.00197 -0.886059 0
M  V30 763 C 94.1721 4.31933 -1.5231 0
M  V30 764 N 95.6631 4.38654 -1.48786 0
M  V30 765 C 96.3981 5.39222 -1.95006 0
M  V30 766 N 95.8941 6.46414 -2.49241 0
M  V30 767 N 97.6871 5.3048 -1.85868 0
M  V30 768 H 89.8381 1.43655 -1.56451 0
M  V30 769 H 92.1011 0.68583 -0.654478 0
M  V30 770 H 91.8071 2.91651 -1.96551 0
M  V30 771 H 91.6811 3.74794 -0.425368 0
M  V30 772 H 94.0681 2.9467 0.159246 0
M  V30 773 H 94.1491 2.13403 -1.41041 0
M  V30 774 H 93.7931 4.38217 -2.56765 0
M  V30 775 H 93.7231 5.17516 -0.973891 0
M  V30 776 H 96.2141 3.61793 -1.09151 0
M  V30 777 H 96.5271 7.19376 -2.82344 0
M  V30 778 H 94.8721 6.47208 -2.53272 0
M  V30 779 H 98.0631 4.45643 -1.43248 0
M  V30 780 H 98.2361 6.08711 -2.22204 0
M  V30 781 N 91.6422 0.330177 1.54103 0
M  V30 782 C 92.8702 -0.272179 2.05102 0
M  V30 783 C 93.2852 -1.45267 1.20595 0
M  V30 784 O 92.6422 -1.8094 0.238144 0
M  V30 785 C 92.6932 -0.70023 3.54653 0
M  V30 786 O 92.4142 0.433301 4.35952 0
M  V30 787 C 93.9152 -1.3647 4.21771 0
M  V30 788 H 91.1352 -0.0549159 0.668749 0
M  V30 789 H 93.6792 0.478285 1.98828 0
M  V30 790 H 91.8342 -1.40066 3.61193 0
M  V30 791 H 92.2482 0.0947539 5.24414 0
M  V30 792 H 93.7222 -1.61509 5.27843 0
M  V30 793 H 94.1992 -2.31409 3.73292 0
M  V30 794 H 94.8052 -0.706675 4.19388 0
M  V30 795 N 93.1203 -1.57491 0.0584922 0
M  V30 796 C 94.0673 -2.11958 -0.913376 0
M  V30 797 C 95.0373 -1.02875 -1.30407 0
M  V30 798 O 96.2223 -1.30464 -1.39226 0
M  V30 799 C 93.3623 -2.67497 -2.18035 0
M  V30 800 C 92.4753 -3.90691 -1.84349 0
M  V30 801 C 91.6103 -4.3452 -3.05559 0
M  V30 802 C 90.6493 -5.50395 -2.67827 0
M  V30 803 N 89.7863 -5.89244 -3.81754 0
M  V30 804 H 94.6263 -2.94704 -0.442017 0
M  V30 805 H 92.1633 -1.45643 -0.206545 0
M  V30 806 H 94.1213 -2.978 -2.92183 0
M  V30 807 H 92.7513 -1.87537 -2.62735 0
M  V30 808 H 91.8033 -3.66934 -1.00319 0
M  V30 809 H 93.1153 -4.7489 -1.5258 0
M  V30 810 H 92.2693 -4.66414 -3.87998 0
M  V30 811 H 91.0083 -3.49147 -3.40511 0
M  V30 812 H 90.0133 -5.18165 -1.83806 0
M  V30 813 H 91.2383 -6.3749 -2.34059 0
M  V30 814 H 89.1843 -5.06823 -4.16493 0
M  V30 815 H 89.1013 -6.68151 -3.53708 0
M  V30 816 H 90.3693 -6.25756 -4.64811 0
M  V30 817 N 94.5984 0.214957 -1.56127 0
M  V30 818 C 95.8264 0.955092 -1.83536 0
M  V30 819 C 96.2414 1.77677 -0.638472 0
M  V30 820 O 95.5984 1.78219 0.392968 0
M  V30 821 C 95.6494 1.86734 -3.09536 0
M  V30 822 O 95.3704 1.07887 -4.24608 0
M  V30 823 C 96.8714 2.72082 -3.4998 0
M  V30 824 H 94.0914 0.279611 -0.609966 0
M  V30 825 H 96.6354 0.228197 -2.03223 0
M  V30 826 H 94.7904 2.5481 -2.91806 0
M  V30 827 H 95.2044 1.69872 -4.9623 0
M  V30 828 H 96.6784 3.31782 -4.41163 0
M  V30 829 H 97.1554 3.44806 -2.7204 0
M  V30 830 H 97.7614 2.09409 -3.70173 0
M  V30 831 N 96.0765 1.50051 0.48192 0
M  V30 832 C 97.3015 1.64508 1.26301 0
M  V30 833 C 97.7265 0.323851 1.85291 0
M  V30 834 O 97.0845 -0.710969 1.66778 0
M  V30 835 C 97.1325 2.7305 2.35533 0
M  V30 836 O 96.2365 2.3355 3.39895 0
M  V30 837 H 95.5775 0.549978 0.372048 0
M  V30 838 H 98.1075 1.9636 0.574786 0
M  V30 839 H 98.1175 2.95799 2.8101 0
M  V30 840 H 96.7925 3.68946 1.91967 0
M  V30 841 H 95.3695 2.21205 3.00204 0
M  V30 842 N 97.5546 -0.734337 1.39446 0
M  V30 843 C 98.8036 -1.48937 1.36017 0
M  V30 844 C 99.1166 -1.95557 -0.0409005 0
M  V30 845 O 100.323 -2.70779 -0.19778 0
M  V30 846 C 98.7786 -2.69125 2.38955 0
M  V30 847 C 98.3866 -2.29452 3.8478 0
M  V30 848 C 100.131 -3.46944 2.44603 0
M  V30 849 C 98.0376 -3.46366 4.79358 0
M  V30 850 H 96.9676 -0.559296 0.505672 0
M  V30 851 H 99.6186 -0.800983 1.65095 0
M  V30 852 H 98.0006 -3.40041 2.02948 0
M  V30 853 H 99.1746 -1.66077 4.29831 0
M  V30 854 H 97.4896 -1.64723 3.82433 0
M  V30 855 H 100.087 -4.33907 3.12456 0
M  V30 856 H 100.43 -3.89454 1.47076 0
M  V30 857 H 100.963 -2.83056 2.79507 0
M  V30 858 H 97.7016 -3.08905 5.78151 0
M  V30 859 H 97.2216 -4.08719 4.38986 0
M  V30 860 H 98.9006 -4.12691 4.98292 0
M  V30 861 N 99.0327 -1.24633 -0.964593 0
M  V30 862 C 99.9797 -1.04144 -2.05968 0
M  V30 863 C 100.95 0.046262 -1.66036 0
M  V30 864 O 102.135 -0.108972 -1.90489 0
M  V30 865 C 99.2747 -0.65563 -3.38815 0
M  V30 866 C 98.3877 -1.81714 -3.91923 0
M  V30 867 C 97.5227 -1.37662 -5.13052 0
M  V30 868 C 96.5617 -2.50788 -5.58365 0
M  V30 869 N 95.6987 -2.07582 -6.70712 0
M  V30 870 H 100.539 -1.9787 -2.22827 0
M  V30 871 H 98.0757 -0.9855 -1.09208 0
M  V30 872 H 100.034 -0.412954 -4.15151 0
M  V30 873 H 98.6637 0.244627 -3.21872 0
M  V30 874 H 97.7157 -2.1734 -3.12198 0
M  V30 875 H 99.0277 -2.66705 -4.21509 0
M  V30 876 H 98.1817 -1.093 -5.96773 0
M  V30 877 H 96.9207 -0.497293 -4.85158 0
M  V30 878 H 95.9257 -2.79906 -4.73215 0
M  V30 879 H 97.1507 -3.39283 -5.88272 0
M  V30 880 H 95.0967 -1.22051 -6.44546 0
M  V30 881 H 95.0137 -2.86125 -6.99763 0
M  V30 882 H 96.2817 -1.82369 -7.57867 0
M  V30 883 N 100.511 1.16574 -1.06058 0
M  V30 884 C 101.421 2.2452 -0.680282 0
M  V30 885 C 102.437 1.71348 0.302604 0
M  V30 886 O 103.613 2.00822 0.152513 0
M  V30 887 C 100.678 3.46629 -0.0700315 0
M  V30 888 C 99.7388 4.14849 -1.10448 0
M  V30 889 C 98.9718 5.31129 -0.523256 0
M  V30 890 O 99.1948 5.66514 0.664709 0
M  V30 891 O 98.1288 5.88526 -1.26179 0
M  V30 892 H 101.955 2.59355 -1.58015 0
M  V30 893 H 99.5398 1.24043 -0.832694 0
M  V30 894 H 101.422 4.20543 0.268667 0
M  V30 895 H 100.097 3.13573 0.803353 0
M  V30 896 H 99.0038 3.42916 -1.49532 0
M  V30 897 H 100.337 4.51954 -1.94931 0
M  V30 898 N 101.989 0.842826 1.3317 0
M  V30 899 C 103.237 0.439577 1.97262 0
M  V30 900 C 103.558 -1.00548 1.67078 0
M  V30 901 O 102.828 -1.70098 0.971779 0
M  V30 902 H 101.408 0.159558 0.72976 0
M  V30 903 H 104.07 1.07665 1.62463 0
M  V30 904 H 103.166 0.574886 3.0676 0
M  V30 905 N 103.467 -1.45747 0.599634 0
M  V30 906 C 104.399 -2.28628 -0.161879 0
M  V30 907 C 105.412 -1.39494 -0.839367 0
M  V30 908 O 106.601 -1.63941 -0.706089 0
M  V30 909 C 103.701 -3.15014 -1.24976 0
M  V30 910 C 102.874 -4.32378 -0.660935 0
M  V30 911 C 101.933 -5.00033 -1.63869 0
M  V30 912 O 100.959 -5.57085 -1.1681 0
M  V30 913 N 102.161 -4.98589 -2.97303 0
M  V30 914 H 104.926 -2.94624 0.549265 0
M  V30 915 H 102.487 -1.55847 0.438565 0
M  V30 916 H 104.479 -3.5714 -1.9035 0
M  V30 917 H 103.049 -2.5098 -1.86354 0
M  V30 918 H 102.269 -3.9383 0.170688 0
M  V30 919 H 103.557 -5.08197 -0.247619 0
M  V30 920 H 102.955 -4.53514 -3.38145 0
M  V30 921 H 101.512 -5.44603 -3.58121 0
M  V30 922 N 104.945 -0.338344 -1.53925 0
M  V30 923 C 105.875 0.51328 -2.27789 0
M  V30 924 C 106.856 1.107 -1.29149 0
M  V30 925 O 108.041 1.12937 -1.57984 0
M  V30 926 C 105.171 1.66697 -3.04679 0
M  V30 927 C 104.125 1.20183 -4.1078 0
M  V30 928 C 103.451 2.44363 -4.75595 0
M  V30 929 C 104.751 0.30605 -5.21403 0
M  V30 930 H 106.445 -0.102883 -2.99223 0
M  V30 931 H 103.991 -0.0509219 -1.4391 0
M  V30 932 H 105.944 2.26915 -3.55088 0
M  V30 933 H 104.668 2.30995 -2.30887 0
M  V30 934 H 103.327 0.622499 -3.61276 0
M  V30 935 H 102.975 3.07057 -3.98403 0
M  V30 936 H 102.675 2.13925 -5.47275 0
M  V30 937 H 104.199 3.05317 -5.28786 0
M  V30 938 H 105.613 0.814929 -5.67478 0
M  V30 939 H 104.01 0.0937929 -6.00027 0
M  V30 940 H 105.08 -0.65921 -4.80398 0
M  V30 941 N 106.423 1.57458 -0.0668435 0
M  V30 942 C 107.353 2.15468 0.899764 0
M  V30 943 C 108.334 1.08042 1.31381 0
M  V30 944 O 109.519 1.36054 1.38574 0
M  V30 945 C 106.649 2.71232 2.16911 0
M  V30 946 C 105.603 3.83781 1.89463 0
M  V30 947 C 104.929 4.26127 3.22986 0
M  V30 948 C 106.229 5.08238 1.20381 0
M  V30 949 H 107.923 2.96488 0.416529 0
M  V30 950 H 105.469 1.4262 0.198908 0
M  V30 951 H 107.422 3.10458 2.84945 0
M  V30 952 H 106.146 1.87426 2.67468 0
M  V30 953 H 104.805 3.45051 1.23836 0
M  V30 954 H 104.453 3.39249 3.71374 0
M  V30 955 H 104.153 5.01993 3.05413 0
M  V30 956 H 105.677 4.67966 3.92225 0
M  V30 957 H 107.091 5.44811 1.78475 0
M  V30 958 H 105.488 5.89349 1.13083 0
M  V30 959 H 106.558 4.84558 0.182153 0
M  V30 960 N 107.901 -0.206675 1.56239 0
M  V30 961 C 108.848 -1.25617 1.93621 0
M  V30 962 C 109.818 -1.45824 0.795274 0
M  V30 963 O 111.003 -1.59148 1.05245 0
M  V30 964 C 108.143 -2.59839 2.27107 0
M  V30 965 C 107.256 -2.47308 3.54207 0
M  V30 966 C 106.391 -3.74155 3.7707 0
M  V30 967 C 105.43 -3.56407 4.97635 0
M  V30 968 N 104.567 -4.75238 5.1681 0
M  V30 969 H 109.407 -0.930383 2.83104 0
M  V30 970 H 106.944 -0.448065 1.4011 0
M  V30 971 H 108.902 -3.38021 2.44535 0
M  V30 972 H 107.532 -2.90485 1.40778 0
M  V30 973 H 106.584 -1.60483 3.4489 0
M  V30 974 H 107.896 -2.30122 4.42544 0
M  V30 975 H 107.05 -4.60778 3.94675 0
M  V30 976 H 105.789 -3.94282 2.87042 0
M  V30 977 H 104.794 -2.68168 4.79964 0
M  V30 978 H 106.019 -3.37736 5.89161 0
M  V30 979 H 103.965 -4.95651 4.29728 0
M  V30 980 H 103.882 -4.60835 5.99306 0
M  V30 981 H 105.15 -5.63246 5.38864 0
M  V30 982 N 109.379 -1.50304 -0.473955 0
M  V30 983 C 110.311 -1.65109 -1.58971 0
M  V30 984 C 111.324 -0.532676 -1.53839 0
M  V30 985 O 112.513 -0.805751 -1.59279 0
M  V30 986 C 109.613 -1.61684 -2.97845 0
M  V30 987 C 108.786 -2.8951 -3.27876 0
M  V30 988 C 107.845 -2.78768 -4.4629 0
M  V30 989 O 106.871 -3.52722 -4.46739 0
M  V30 990 N 108.073 -1.9213 -5.47783 0
M  V30 991 H 110.838 -2.61347 -1.46689 0
M  V30 992 H 108.399 -1.47732 -0.662324 0
M  V30 993 H 110.391 -1.52114 -3.75024 0
M  V30 994 H 108.961 -0.731925 -3.03911 0
M  V30 995 H 108.181 -3.13228 -2.39336 0
M  V30 996 H 109.469 -3.74199 -3.4475 0
M  V30 997 H 108.867 -1.31353 -5.50239 0
M  V30 998 H 107.424 -1.88466 -6.23958 0
M  V30 999 N 110.857 0.726932 -1.39834 0
M  V30 1000 C 112.085 1.51613 -1.40787 0
M  V30 1001 C 112.5 1.88799 -0.00451505 0
M  V30 1002 O 111.857 1.54662 0.968809 0
M  V30 1003 C 111.908 2.79863 -2.28821 0
M  V30 1004 O 111.629 2.44253 -3.63692 0
M  V30 1005 C 113.13 3.73837 -2.38245 0
M  V30 1006 H 110.35 0.468264 -0.480593 0
M  V30 1007 H 112.894 0.897607 -1.83748 0
M  V30 1008 H 111.049 3.38027 -1.89252 0
M  V30 1009 H 111.463 3.26695 -4.1033 0
M  V30 1010 H 112.937 4.60699 -3.04073 0
M  V30 1011 H 113.414 4.16153 -1.40403 0
M  V30 1012 H 114.02 3.21589 -2.78317 0
M  V30 1013 N 112.336 1.25143 0.95797 0
M  V30 1014 C 113.561 1.12521 1.74223 0
M  V30 1015 C 113.986 -0.317402 1.85403 0
M  V30 1016 O 113.344 -1.2299 1.33204 0
M  V30 1017 C 113.392 1.78062 3.1357 0
M  V30 1018 O 112.496 1.058 3.98598 0
M  V30 1019 H 111.837 0.39304 0.535178 0
M  V30 1020 H 114.367 1.65641 1.201 0
M  V30 1021 H 114.377 1.84213 3.64046 0
M  V30 1022 H 113.052 2.83021 3.04749 0
M  V30 1023 H 111.629 1.07506 3.57067 0
M  V30 1024 N 113.814 -1.1601 1.06675 0
M  V30 1025 C 115.039 -1.91068 0.806706 0
M  V30 1026 C 115.464 -1.77112 -0.633485 0
M  V30 1027 O 114.822 -1.09908 -1.44187 0
M  V30 1028 C 114.87 -3.39655 1.21106 0
M  V30 1029 O 113.974 -4.10893 0.352189 0
M  V30 1030 H 113.315 -0.595125 0.294486 0
M  V30 1031 H 115.845 -1.46955 1.42356 0
M  V30 1032 H 115.855 -3.90434 1.18428 0
M  V30 1033 H 114.53 -3.49132 2.26008 0
M  V30 1034 H 113.107 -3.70285 0.440868 0
M  V30 1035 N 115.292 -0.849877 -1.32721 0
M  V30 1036 C 116.539 -0.450923 -1.97416 0
M  V30 1037 C 116.867 0.992376 -1.67279 0
M  V30 1038 O 116.122 1.71048 -0.950845 0
M  V30 1039 C 116.421 -0.631272 -3.51781 0
M  V30 1040 C 116.087 -2.04432 -4.01894 0
M  V30 1041 C 114.749 -2.4308 -4.1529 0
M  V30 1042 C 117.101 -2.96679 -4.28522 0
M  V30 1043 C 114.429 -3.73257 -4.52654 0
M  V30 1044 C 116.781 -4.26349 -4.67343 0
M  V30 1045 C 115.445 -4.64939 -4.78945 0
M  V30 1046 H 114.715 -0.165004 -0.722395 0
M  V30 1047 H 117.362 -1.07901 -1.58207 0
M  V30 1048 H 115.667 0.0800767 -3.91718 0
M  V30 1049 H 117.364 -0.302709 -3.99856 0
M  V30 1050 H 113.954 -1.73419 -3.91949 0
M  V30 1051 H 118.138 -2.68054 -4.17685 0
M  V30 1052 H 113.394 -4.02946 -4.59831 0
M  V30 1053 H 117.568 -4.97895 -4.86902 0
M  V30 1054 H 115.195 -5.65855 -5.07654 0
M  V30 1055 N 116.77 1.45427 -0.607355 0
M  V30 1056 C 117.702 2.2871 0.149752 0
M  V30 1057 C 118.715 1.39937 0.831958 0
M  V30 1058 O 119.904 1.64313 0.697385 0
M  V30 1059 C 117.004 3.15673 1.23304 0
M  V30 1060 C 116.177 4.32722 0.637996 0
M  V30 1061 C 115.236 5.00895 1.61215 0
M  V30 1062 O 114.262 5.57697 1.13854 0
M  V30 1063 N 115.464 5.00159 2.94655 0
M  V30 1064 H 118.229 2.94328 -0.564882 0
M  V30 1065 H 115.79 1.55612 -0.446823 0
M  V30 1066 H 117.782 3.58144 1.88454 0
M  V30 1067 H 116.352 2.51965 1.8502 0
M  V30 1068 H 115.572 3.93734 -0.191572 0
M  V30 1069 H 116.86 5.08321 0.220665 0
M  V30 1070 H 116.258 4.553 3.35735 0
M  V30 1071 H 114.815 5.46495 3.55228 0
M  V30 1072 N 118.248 0.346503 1.53744 0
M  V30 1073 C 119.664 -0.00530975 1.59599 0
M  V30 1074 C 119.864 -1.48465 1.36236 0
M  V30 1075 O 118.92 -2.24376 1.15808 0
M  V30 1076 C 120.233 0.433516 2.97559 0
M  V30 1077 C 121.781 0.386111 3.10609 0
M  V30 1078 C 122.256 0.800451 4.50951 0
M  V30 1079 N 123.747 0.754753 4.5701 0
M  V30 1080 C 124.482 1.04727 5.63755 0
M  V30 1081 N 123.978 1.4081 6.7834 0
M  V30 1082 N 125.771 0.971316 5.53644 0
M  V30 1083 H 117.922 1.31009 1.67184 0
M  V30 1084 H 120.185 0.534242 0.783128 0
M  V30 1085 H 119.891 1.46509 3.19731 0
M  V30 1086 H 119.765 -0.189753 3.76722 0
M  V30 1087 H 122.152 -0.636295 2.88158 0
M  V30 1088 H 122.233 1.04462 2.33498 0
M  V30 1089 H 121.877 1.82088 4.74137 0
M  V30 1090 H 121.807 0.119386 5.26465 0
M  V30 1091 H 124.298 0.488662 3.74727 0
M  V30 1092 H 124.611 1.61607 7.55714 0
M  V30 1093 H 122.956 1.44657 6.79779 0
M  V30 1094 H 126.147 0.688748 4.63005 0
M  V30 1095 H 126.32 1.20263 6.36742 0
M  V30 1096 N 119.726 -1.57421 0.075193 0
M  V30 1097 C 120.972 -1.94716 -0.587998 0
M  V30 1098 C 121.327 -0.955205 -1.67014 0
M  V30 1099 O 120.62 0.0219842 -1.91587 0
M  V30 1100 C 120.814 -3.36428 -1.20626 0
M  V30 1101 C 120.643 -4.49317 -0.185541 0
M  V30 1102 C 119.413 -5.04772 0.23099 0
M  V30 1103 C 121.611 -5.11036 0.57854 0
M  V30 1104 N 119.593 -6.01204 1.24206 0
M  V30 1105 C 120.964 -6.02998 1.44199 0
M  V30 1106 C 123.019 -4.93844 0.634237 0
M  V30 1107 C 121.722 -6.79614 2.3562 0
M  V30 1108 C 123.748 -5.71106 1.53597 0
M  V30 1109 C 123.11 -6.6272 2.38709 0
M  V30 1110 H 119.209 -0.759536 -0.186089 0
M  V30 1111 H 121.793 -1.94097 0.153128 0
M  V30 1112 H 119.964 -3.37778 -1.9173 0
M  V30 1113 H 121.696 -3.60951 -1.8302 0
M  V30 1114 H 118.451 -4.73353 -0.152807 0
M  V30 1115 H 118.875 -6.54119 1.74521 0
M  V30 1116 H 123.517 -4.22799 -0.00960004 0
M  V30 1117 H 121.235 -7.49934 3.01038 0
M  V30 1118 H 124.821 -5.59824 1.58394 0
M  V30 1119 H 123.701 -7.2146 3.07352 0
M  V30 1120 N 121.204 0.198386 -1.56346 0
M  V30 1121 C 122.151 1.24589 -1.94284 0
M  V30 1122 C 123.121 1.454 -0.802997 0
M  V30 1123 O 124.306 1.58588 -1.06087 0
M  V30 1124 C 121.446 2.58631 -2.28482 0
M  V30 1125 C 120.559 2.45426 -3.55514 0
M  V30 1126 C 119.694 3.7215 -3.79049 0
M  V30 1127 C 118.733 3.53763 -4.99518 0
M  V30 1128 N 117.87 4.72491 -5.19323 0
M  V30 1129 H 122.71 0.915356 -2.83593 0
M  V30 1130 H 120.247 0.440629 -1.40346 0
M  V30 1131 H 122.205 3.3672 -2.46324 0
M  V30 1132 H 120.835 2.89734 -1.42317 0
M  V30 1133 H 119.887 1.58652 -3.45737 0
M  V30 1134 H 121.199 2.27772 -4.43758 0
M  V30 1135 H 120.353 4.58679 -3.97113 0
M  V30 1136 H 119.092 3.92754 -2.89129 0
M  V30 1137 H 118.097 2.65619 -4.8138 0
M  V30 1138 H 119.322 3.34607 -5.90944 0
M  V30 1139 H 117.268 4.93365 -4.3235 0
M  V30 1140 H 117.185 4.5765 -6.01741 0
M  V30 1141 H 118.453 5.6038 -5.41843 0
M  V30 1142 N 122.682 1.50554 0.465978 0
M  V30 1143 C 123.629 1.6979 1.56333 0
M  V30 1144 C 124.599 0.539239 1.57103 0
M  V30 1145 O 125.784 0.770401 1.74555 0
M  V30 1146 C 122.924 1.80273 2.94271 0
M  V30 1147 C 122.037 3.07674 3.0325 0
M  V30 1148 C 121.172 3.08922 4.32135 0
M  V30 1149 C 120.211 4.30755 4.34875 0
M  V30 1150 N 119.348 4.29714 5.55239 0
M  V30 1151 H 124.188 2.63472 1.39235 0
M  V30 1152 H 121.725 1.30602 0.676873 0
M  V30 1153 H 123.683 1.84332 3.74269 0
M  V30 1154 H 122.313 0.900258 3.09992 0
M  V30 1155 H 121.365 3.13062 2.16094 0
M  V30 1156 H 122.677 3.97642 3.01135 0
M  V30 1157 H 121.831 3.11738 5.20485 0
M  V30 1158 H 120.57 2.16792 4.36866 0
M  V30 1159 H 119.575 4.28146 3.44922 0
M  V30 1160 H 120.8 5.24117 4.31831 0
M  V30 1161 H 118.746 3.4044 5.60746 0
M  V30 1162 H 118.663 5.13456 5.54886 0
M  V30 1163 H 119.931 4.36683 6.457 0
M  V30 1164 N 124.16 -0.719506 1.40217 0
M  V30 1165 C 125.576 -1.02707 1.22161 0
M  V30 1166 C 125.776 -2.0128 0.0940557 0
M  V30 1167 O 124.832 -2.46452 -0.549318 0
M  V30 1168 C 126.145 -1.57454 2.56181 0
M  V30 1169 C 127.693 -1.69458 2.63159 0
M  V30 1170 C 128.168 -2.27611 3.97438 0
M  V30 1171 N 129.659 -2.35002 3.99159 0
M  V30 1172 C 130.394 -2.80972 4.99842 0
M  V30 1173 N 129.89 -3.26723 6.10921 0
M  V30 1174 N 131.683 -2.80321 4.87213 0
M  V30 1175 H 123.834 -0.0660492 2.12297 0
M  V30 1176 H 126.097 -0.0919077 0.943534 0
M  V30 1177 H 125.803 -0.924873 3.39321 0
M  V30 1178 H 125.677 -2.56036 2.76993 0
M  V30 1179 H 128.064 -2.33543 1.80393 0
M  V30 1180 H 128.145 -0.694867 2.46181 0
M  V30 1181 H 127.789 -1.6415 4.80643 0
M  V30 1182 H 127.719 -3.2829 4.11744 0
M  V30 1183 H 130.21 -2.02685 3.18947 0
M  V30 1184 H 130.523 -3.60355 6.8364 0
M  V30 1185 H 128.868 -3.24692 6.14492 0
M  V30 1186 H 132.059 -2.43912 3.9953 0
M  V30 1187 H 132.232 -3.15831 5.65822 0
M  V30 1188 N 125.638 -1.25649 -0.95132 0
M  V30 1189 C 126.868 -1.13179 -1.72841 0
M  V30 1190 C 127.276 0.316827 -1.86528 0
M  V30 1191 O 126.619 1.22948 -1.3649 0
M  V30 1192 C 126.681 -1.71644 -3.15878 0
M  V30 1193 C 126.345 -3.20667 -3.25609 0
M  V30 1194 C 127.342 -4.17616 -3.09666 0
M  V30 1195 C 125.027 -3.6094 -3.49324 0
M  V30 1196 C 127.021 -5.52817 -3.17289 0
M  V30 1197 C 124.708 -4.96278 -3.56584 0
M  V30 1198 C 125.706 -5.92025 -3.40581 0
M  V30 1199 O 125.394 -7.24899 -3.47528 0
M  V30 1200 H 125.126 -0.395389 -0.54831 0
M  V30 1201 H 127.68 -1.66566 -1.20187 0
M  V30 1202 H 125.91 -1.12707 -3.69911 0
M  V30 1203 H 127.599 -1.54225 -3.75459 0
M  V30 1204 H 128.365 -3.87842 -2.91211 0
M  V30 1205 H 124.244 -2.86907 -3.6084 0
M  V30 1206 H 127.788 -6.2753 -3.04716 0
M  V30 1207 H 123.685 -5.25716 -3.74556 0
M  V30 1208 H 124.453 -7.33039 -3.64138 0
M  V30 1209 N 127.117 1.15442 -1.07289 0
M  V30 1210 C 128.364 1.86213 -0.795668 0
M  V30 1211 C 128.692 1.82291 0.678238 0
M  V30 1212 O 127.947 1.24057 1.51355 0
M  V30 1213 C 128.246 3.3489 -1.24834 0
M  V30 1214 C 127.912 3.59007 -2.72809 0
M  V30 1215 C 126.574 3.65298 -3.13227 0
M  V30 1216 C 128.926 3.68762 -3.68326 0
M  V30 1217 C 126.254 3.78854 -4.4798 0
M  V30 1218 C 128.606 3.83842 -5.0284 0
M  V30 1219 C 127.27 3.88378 -5.4288 0
M  V30 1220 H 126.54 0.681403 -0.291155 0
M  V30 1221 H 129.187 1.36435 -1.34379 0
M  V30 1222 H 127.492 3.8687 -0.619595 0
M  V30 1223 H 129.189 3.88052 -1.01076 0
M  V30 1224 H 125.779 3.5475 -2.40521 0
M  V30 1225 H 129.963 3.63202 -3.38227 0
M  V30 1226 H 125.219 3.80623 -4.78472 0
M  V30 1227 H 129.393 3.90332 -5.76727 0
M  V30 1228 H 127.02 3.98635 -6.47298 0
M  V30 1229 N 128.595 0.856903 1.32268 0
M  V30 1230 C 129.542 0.301172 2.28827 0
M  V30 1231 C 130.512 -0.593104 1.5515 0
M  V30 1232 O 131.697 -0.527537 1.83362 0
M  V30 1233 C 128.837 -0.502523 3.41422 0
M  V30 1234 C 127.95 0.417797 4.29975 0
M  V30 1235 C 127.085 -0.398749 5.29701 0
M  V30 1236 C 126.124 0.518827 6.09897 0
M  V30 1237 N 125.261 -0.260674 7.01616 0
M  V30 1238 H 130.101 1.12983 2.75751 0
M  V30 1239 H 127.638 0.568582 1.35667 0
M  V30 1240 H 129.596 -0.984141 4.05426 0
M  V30 1241 H 128.226 -1.29599 2.95642 0
M  V30 1242 H 127.278 1.01781 3.66531 0
M  V30 1243 H 128.59 1.12191 4.86019 0
M  V30 1244 H 127.744 -0.943435 5.9932 0
M  V30 1245 H 126.483 -1.13622 4.7428 0
M  V30 1246 H 125.488 1.07538 5.39181 0
M  V30 1247 H 126.713 1.25495 6.67404 0
M  V30 1248 H 124.659 -0.981198 6.4862 0
M  V30 1249 H 124.576 0.384364 7.55022 0
M  V30 1250 H 125.844 -0.787014 7.75517 0
M  V30 1251 N 130.073 -1.45103 0.615059 0
M  V30 1252 C 131.003 -2.33339 -0.0865619 0
M  V30 1253 C 131.984 -1.4727 -0.851209 0
M  V30 1254 O 133.169 -1.76026 -0.820281 0
M  V30 1255 C 130.299 -3.30095 -1.07956 0
M  V30 1256 C 129.253 -4.25858 -0.427628 0
M  V30 1257 C 128.579 -5.12361 -1.5294 0
M  V30 1258 C 129.879 -5.18165 0.655944 0
M  V30 1259 H 131.573 -2.92254 0.650224 0
M  V30 1260 H 129.119 -1.40532 0.314138 0
M  V30 1261 H 131.072 -3.90698 -1.57901 0
M  V30 1262 H 129.796 -2.69355 -1.84703 0
M  V30 1263 H 128.455 -3.66564 0.0510292 0
M  V30 1264 H 128.103 -4.47984 -2.28734 0
M  V30 1265 H 127.803 -5.77238 -1.09865 0
M  V30 1266 H 129.327 -5.75833 -2.03098 0
M  V30 1267 H 130.741 -5.72796 0.240257 0
M  V30 1268 H 129.138 -5.91559 1.00888 0
M  V30 1269 H 130.208 -4.60144 1.52957 0
M  V30 1270 N 131.551 -0.354651 -1.53558 0
M  V30 1271 C 132.967 -0.00315426 -1.596 0
M  V30 1272 C 133.167 1.47741 -1.37021 0
M  V30 1273 O 132.223 2.23759 -1.16996 0
M  V30 1274 C 133.536 -0.44929 -2.97325 0
M  V30 1275 C 135.084 -0.402578 -3.104 0
M  V30 1276 C 135.559 -0.824355 -4.5052 0
M  V30 1277 N 137.05 -0.778979 -4.56603 0
M  V30 1278 C 137.785 -1.07715 -5.63192 0
M  V30 1279 N 137.281 -1.44405 -6.77583 0
M  V30 1280 N 139.074 -1.00066 -5.53121 0
M  V30 1281 H 131.225 -1.31893 -1.66487 0
M  V30 1282 H 133.488 -0.538388 -0.780284 0
M  V30 1283 H 133.194 -1.48202 -3.1895 0
M  V30 1284 H 133.068 0.169772 -3.76818 0
M  V30 1285 H 135.455 0.621004 -2.88492 0
M  V30 1286 H 135.536 -1.05699 -2.32941 0
M  V30 1287 H 135.18 -1.846 -4.73165 0
M  V30 1288 H 135.11 -0.147304 -5.26394 0
M  V30 1289 H 137.601 -0.508528 -3.74463 0
M  V30 1290 H 137.914 -1.65612 -7.54846 0
M  V30 1291 H 136.259 -1.4826 -6.79002 0
M  V30 1292 H 139.45 -0.713293 -4.62633 0
M  V30 1293 H 139.623 -1.23638 -6.36096 0
M  V30 1294 N 133.029 1.57378 -0.0835403 0
M  V30 1295 C 134.277 1.93547 0.581718 0
M  V30 1296 C 134.598 0.96524 1.69435 0
M  V30 1297 O 133.868 0.0153369 1.95894 0
M  V30 1298 H 132.448 0.714521 0.217874 0
M  V30 1299 H 135.11 1.94366 -0.144158 0
M  V30 1300 H 134.206 2.95665 0.999423 0
M  V30 1301 N 134.507 -0.190092 1.56449 0
M  V30 1302 C 135.923 -0.54113 1.50146 0
M  V30 1303 C 136.123 -1.85603 0.784465 0
M  V30 1304 O 135.179 -2.5024 0.337051 0
M  V30 1305 C 136.492 -0.591241 2.9483 0
M  V30 1306 C 138.04 -0.679732 3.0553 0
M  V30 1307 C 138.515 -0.760908 4.51635 0
M  V30 1308 N 140.006 -0.824302 4.55806 0
M  V30 1309 C 140.741 -0.907365 5.66175 0
M  V30 1310 N 140.237 -0.952422 6.86222 0
M  V30 1311 N 142.03 -0.94494 5.541 0
M  V30 1312 H 134.181 0.67235 2.01478 0
M  V30 1313 H 136.444 0.240127 0.917084 0
M  V30 1314 H 136.15 0.305905 3.50367 0
M  V30 1315 H 136.024 -1.44422 3.48457 0
M  V30 1316 H 138.411 -1.56731 2.50039 0
M  V30 1317 H 138.492 0.199549 2.5502 0
M  V30 1318 H 138.136 0.122336 5.07753 0
M  V30 1319 H 138.066 -1.65606 4.99882 0
M  V30 1320 H 140.557 -0.798526 3.69367 0
M  V30 1321 H 140.87 -1.01645 7.66086 0
M  V30 1322 H 139.215 -0.921014 6.8887 0
M  V30 1323 H 142.406 -0.906612 4.59236 0
M  V30 1324 H 142.579 -1.00622 6.4014 0
M  V30 1325 N 135.985 -1.50799 -0.457987 0
M  V30 1326 C 137.213 -1.66218 -1.23203 0
M  V30 1327 C 137.628 -0.350894 -1.85511 0
M  V30 1328 O 136.985 0.668546 -1.69814 0
M  V30 1329 C 137.036 -2.76291 -2.33121 0
M  V30 1330 O 136.757 -4.02338 -1.73366 0
M  V30 1331 C 138.258 -3.028 -3.2377 0
M  V30 1332 H 135.478 -0.558361 -0.372121 0
M  V30 1333 H 138.022 -1.97099 -0.545179 0
M  V30 1334 H 136.177 -2.48068 -2.97558 0
M  V30 1335 H 136.591 -4.63312 -2.4585 0
M  V30 1336 H 138.065 -3.8345 -3.97077 0
M  V30 1337 H 138.542 -2.14385 -3.83322 0
M  V30 1338 H 139.148 -3.32604 -2.65056 0
M  V30 1339 N 137.463 0.71206 -1.40597 0
M  V30 1340 C 138.393 1.83889 -1.43899 0
M  V30 1341 C 139.374 1.67442 -0.299504 0
M  V30 1342 O 140.559 1.87421 -0.508624 0
M  V30 1343 C 137.689 3.21877 -1.30431 0
M  V30 1344 C 136.643 3.53002 -2.42019 0
M  V30 1345 C 135.969 4.90172 -2.13626 0
M  V30 1346 C 137.269 3.53643 -3.84362 0
M  V30 1347 H 138.963 1.81383 -2.38203 0
M  V30 1348 H 136.509 0.871237 -1.14654 0
M  V30 1349 H 138.462 4.00404 -1.31357 0
M  V30 1350 H 137.186 3.24968 -0.326049 0
M  V30 1351 H 135.845 2.76818 -2.40349 0
M  V30 1352 H 135.493 4.89869 -1.14182 0
M  V30 1353 H 135.193 5.11962 -2.88389 0
M  V30 1354 H 136.717 5.71028 -2.1624 0
M  V30 1355 H 138.131 4.22203 -3.87837 0
M  V30 1356 H 136.528 3.86961 -4.58673 0
M  V30 1357 H 137.598 2.52954 -4.13693 0
M  V30 1358 N 138.941 1.26152 0.944643 0
M  V30 1359 C 140.171 1.14094 1.72239 0
M  V30 1360 C 140.579 -0.306931 1.86694 0
M  V30 1361 O 139.922 -1.22222 1.3714 0
M  V30 1362 C 139.984 1.73316 3.14963 0
M  V30 1363 C 139.648 3.2239 3.23904 0
M  V30 1364 C 140.645 4.19252 3.07447 0
M  V30 1365 C 138.33 3.62788 3.47405 0
M  V30 1366 C 140.324 5.54491 3.14353 0
M  V30 1367 C 138.011 4.98162 3.53947 0
M  V30 1368 C 139.009 5.93823 3.37436 0
M  V30 1369 O 138.697 7.26732 3.43679 0
M  V30 1370 H 138.429 0.398292 0.546205 0
M  V30 1371 H 140.983 1.67201 1.19301 0
M  V30 1372 H 139.213 1.14667 3.69308 0
M  V30 1373 H 140.902 1.56214 3.74636 0
M  V30 1374 H 141.668 3.8938 2.8915 0
M  V30 1375 H 137.547 2.88816 3.59313 0
M  V30 1376 H 141.091 6.29137 3.01384 0
M  V30 1377 H 136.988 5.27695 3.71763 0
M  V30 1378 H 137.756 7.3496 3.60245 0
M  V30 1379 N 140.419 -1.14872 1.07899 0
M  V30 1380 C 141.649 -1.89386 0.825631 0
M  V30 1381 C 142.057 -1.78565 -0.625406 0
M  V30 1382 O 141.4 -1.13918 -1.44113 0
M  V30 1383 C 141.462 -3.40206 1.16191 0
M  V30 1384 C 141.126 -3.74812 2.61467 0
M  V30 1385 C 142.123 -3.75367 3.59716 0
M  V30 1386 C 139.808 -4.0495 2.97189 0
M  V30 1387 C 141.802 -4.05574 4.9172 0
M  V30 1388 C 139.489 -4.34821 4.29388 0
M  V30 1389 C 140.487 -4.35116 5.26463 0
M  V30 1390 O 140.175 -4.64267 6.56286 0
M  V30 1391 H 139.907 -0.606894 0.297751 0
M  V30 1392 H 142.461 -1.46438 1.44031 0
M  V30 1393 H 140.691 -3.8358 0.490214 0
M  V30 1394 H 142.38 -3.96018 0.890193 0
M  V30 1395 H 143.146 -3.52176 3.33462 0
M  V30 1396 H 139.025 -4.03876 2.22273 0
M  V30 1397 H 142.569 -4.05719 5.67484 0
M  V30 1398 H 138.466 -4.5748 4.55392 0
M  V30 1399 H 139.234 -4.82007 6.61522 0
M  V30 1400 N 141.898 -0.863906 -1.31812 0
M  V30 1401 C 142.861 -0.320212 -2.26952 0
M  V30 1402 C 143.861 0.525369 -1.51975 0
M  V30 1403 O 145.051 0.335547 -1.70938 0
M  V30 1404 C 142.183 0.545919 -3.365 0
M  V30 1405 H 143.376 -1.16004 -2.76556 0
M  V30 1406 H 140.929 -0.638995 -1.42641 0
M  V30 1407 H 141.664 1.40718 -2.92179 0
M  V30 1408 H 141.449 -0.0594674 -3.92055 0
M  V30 1409 H 142.939 0.918796 -4.07367 0
M  V30 1410 N 143.376 1.44774 -0.622745 0
M  V30 1411 C 144.323 2.30635 0.0871679 0
M  V30 1412 C 145.293 1.42994 0.845097 0
M  V30 1413 O 146.478 1.71907 0.827812 0
M  V30 1414 C 143.618 3.28144 1.06844 0
M  V30 1415 C 142.731 4.30888 0.309809 0
M  V30 1416 C 141.866 5.15494 1.28215 0
M  V30 1417 C 140.905 6.09953 0.512198 0
M  V30 1418 N 140.042 6.87287 1.43458 0
M  V30 1419 H 144.882 2.90803 -0.650974 0
M  V30 1420 H 142.419 1.43286 -0.33281 0
M  V30 1421 H 144.377 3.83157 1.65066 0
M  V30 1422 H 143.007 2.69695 1.77382 0
M  V30 1423 H 142.059 3.78414 -0.388181 0
M  V30 1424 H 143.371 4.97955 -0.290254 0
M  V30 1425 H 142.525 5.74983 1.93596 0
M  V30 1426 H 141.264 4.48481 1.91614 0
M  V30 1427 H 140.269 5.49581 -0.155151 0
M  V30 1428 H 141.494 6.78999 -0.116958 0
M  V30 1429 H 139.44 6.2295 2.05594 0
M  V30 1430 H 139.357 7.50763 0.888335 0
M  V30 1431 H 140.625 7.51306 2.07749 0
M  V30 1432 N 144.854 0.36279 1.53368 0
M  V30 1433 C 146.131 -0.284021 1.93527 0
M  V30 1434 C 146.511 -1.66628 1.29608 0
M  V30 1435 O 145.859 -2.23942 0.45413 0
M  V30 1436 C 146.069 -0.337028 3.47369 0
M  V30 1437 C 147.417 -0.578708 4.20638 0
M  V30 1438 O 148.441 -0.418352 3.53735 0
M  V30 1439 O 147.3 -0.89074 5.39192 0
M  V30 1440 H 144.394 -0.169743 0.809393 0
M  V30 1441 H 146.94 0.41537 1.64538 0
M  V30 1442 H 145.712 0.632217 3.86159 0
M  V30 1443 H 145.335 -1.08243 3.82582 0
M  V30 1444 N 146.332 -1.57332 0.0918853 0
M  V30 1445 C 147.557 -1.98995 -0.584442 0
M  V30 1446 C 147.982 -0.970528 -1.61128 0
M  V30 1447 O 147.34 0.0613904 -1.81196 0
M  V30 1448 C 147.388 -3.39636 -1.21161 0
M  V30 1449 O 146.492 -3.40447 -2.32744 0
M  V30 1450 H 145.833 -0.647165 -0.148572 0
M  V30 1451 H 148.363 -2.03873 0.172347 0
M  V30 1452 H 148.373 -3.7726 -1.55367 0
M  V30 1453 H 147.048 -4.13356 -0.459313 0
M  V30 1454 H 145.625 -3.14614 -2.0018 0
M  V30 1455 N 147.81 0.181792 -1.56548 0
M  V30 1456 C 148.757 1.22521 -1.95595 0
M  V30 1457 C 149.727 1.4454 -0.818373 0
M  V30 1458 O 150.912 1.57454 -1.07763 0
M  V30 1459 C 148.052 2.56193 -2.31212 0
M  V30 1460 C 147.165 2.41641 -3.58097 0
M  V30 1461 C 146.3 3.68108 -3.82975 0
M  V30 1462 C 145.339 3.48445 -5.03242 0
M  V30 1463 N 144.476 4.66956 -5.24306 0
M  V30 1464 H 149.316 0.885226 -2.84548 0
M  V30 1465 H 146.853 0.425718 -1.40805 0
M  V30 1466 H 148.811 3.34088 -2.49882 0
M  V30 1467 H 147.441 2.88208 -1.45382 0
M  V30 1468 H 146.493 1.54976 -3.474 0
M  V30 1469 H 147.805 2.23052 -4.46149 0
M  V30 1470 H 146.959 4.54441 -4.01956 0
M  V30 1471 H 145.698 3.89666 -2.93278 0
M  V30 1472 H 144.703 2.60499 -4.8417 0
M  V30 1473 H 145.928 3.2832 -5.9446 0
M  V30 1474 H 143.874 4.88752 -4.37559 0
M  V30 1475 H 143.791 4.51242 -6.06561 0
M  V30 1476 H 145.059 5.54602 -5.47756 0
M  V30 1477 N 149.288 1.51039 0.449983 0
M  V30 1478 C 150.513 1.6715 1.22783 0
M  V30 1479 C 150.938 0.363081 1.84563 0
M  V30 1480 O 150.296 -0.675433 1.68249 0
M  V30 1481 C 150.344 2.77985 2.29689 0
M  V30 1482 O 149.448 2.40707 3.34864 0
M  V30 1483 H 148.789 0.557746 0.360299 0
M  V30 1484 H 151.319 1.97535 0.533005 0
M  V30 1485 H 151.329 3.01693 2.74673 0
M  V30 1486 H 150.004 3.72935 1.84098 0
M  V30 1487 H 148.581 2.27523 2.95445 0
M  V30 1488 N 150.766 -0.704594 1.40972 0
M  V30 1489 C 151.696 -1.83124 1.44872 0
M  V30 1490 C 152.677 -1.67281 0.30838 0
M  V30 1491 O 153.862 -1.87149 0.518556 0
M  V30 1492 C 150.992 -3.21181 1.32136 0
M  V30 1493 C 149.946 -3.51714 2.43888 0
M  V30 1494 C 149.272 -4.89032 2.16222 0
M  V30 1495 C 150.572 -3.516 3.86232 0
M  V30 1496 H 152.266 -1.80117 2.39161 0
M  V30 1497 H 149.812 -0.865145 1.15114 0
M  V30 1498 H 151.765 -3.99702 1.33479 0
M  V30 1499 H 150.489 -3.24791 0.343279 0
M  V30 1500 H 149.148 -2.75539 2.41813 0
M  V30 1501 H 148.796 -4.89256 1.16778 0
M  V30 1502 H 148.496 -5.10426 2.911 0
M  V30 1503 H 150.02 -5.69873 2.19265 0
M  V30 1504 H 151.434 -4.2014 3.9007 0
M  V30 1505 H 149.831 -3.84523 4.60719 0
M  V30 1506 H 150.901 -2.50757 4.15029 0
M  V30 1507 N 152.244 -1.26651 -0.937939 0
M  V30 1508 C 153.493 -1.11775 -1.67897 0
M  V30 1509 C 153.806 0.33794 -1.92659 0
M  V30 1510 O 155.012 0.607434 -2.64618 0
M  V30 1511 C 153.468 -1.9523 -3.02346 0
M  V30 1512 C 153.076 -3.45393 -2.8532 0
M  V30 1513 C 154.82 -1.88972 -3.80118 0
M  V30 1514 C 152.727 -4.21083 -4.15263 0
M  V30 1515 H 151.657 -0.414696 -0.629717 0
M  V30 1516 H 154.308 -1.50988 -1.04283 0
M  V30 1517 H 152.69 -1.48853 -3.66959 0
M  V30 1518 H 153.864 -3.99561 -2.29537 0
M  V30 1519 H 152.179 -3.52921 -2.20988 0
M  V30 1520 H 154.776 -2.42805 -4.76392 0
M  V30 1521 H 155.119 -0.86113 -4.07296 0
M  V30 1522 H 155.652 -2.33189 -3.22285 0
M  V30 1523 H 152.391 -5.24425 -3.93267 0
M  V30 1524 H 151.911 -3.71695 -4.70747 0
M  V30 1525 H 153.59 -4.29706 -4.83696 0
M  V30 1526 N 153.722 1.14298 -1.08507 0
M  V30 1527 C 154.969 1.85359 -0.815373 0
M  V30 1528 C 155.297 1.83001 0.658865 0
M  V30 1529 O 154.552 1.25655 1.50031 0
M  V30 1530 C 154.851 3.33547 -1.28379 0
M  V30 1531 C 154.517 3.56093 -2.76602 0
M  V30 1532 C 153.179 3.61955 -3.17084 0
M  V30 1533 C 155.531 3.64834 -3.72217 0
M  V30 1534 C 152.859 3.74082 -4.51973 0
M  V30 1535 C 155.211 3.78487 -5.06883 0
M  V30 1536 C 153.875 3.82598 -5.46969 0
M  V30 1537 H 153.145 0.678276 -0.298366 0
M  V30 1538 H 155.792 1.35002 -1.35819 0
M  V30 1539 H 154.097 3.86191 -0.660593 0
M  V30 1540 H 155.794 3.86959 -1.05186 0
M  V30 1541 H 152.384 3.52179 -2.4427 0
M  V30 1542 H 156.568 3.59595 -3.42061 0
M  V30 1543 H 151.824 3.75527 -4.82483 0
M  V30 1544 H 155.998 3.84193 -5.80834 0
M  V30 1545 H 153.625 3.91747 -6.51489 0
M  V30 1546 N 155.201 0.870884 1.31352 0
M  V30 1547 C 156.478 0.402907 1.91405 0
M  V30 1548 C 156.858 -1.11512 1.79244 0
M  V30 1549 O 156.206 -1.94411 1.2007 0
M  V30 1550 C 156.416 0.885301 3.37585 0
M  V30 1551 C 157.764 0.911971 4.14691 0
M  V30 1552 O 158.788 0.831016 3.46371 0
M  V30 1553 O 157.647 1.02927 5.3672 0
M  V30 1554 H 154.741 0.120698 0.818145 0
M  V30 1555 H 157.287 0.958857 1.40014 0
M  V30 1556 H 156.059 1.92889 3.40455 0
M  V30 1557 H 155.682 0.307714 3.96407 0
M  V30 1558 N 156.679 -1.44442 0.630414 0
M  V30 1559 C 157.589 -2.34476 -0.0761693 0
M  V30 1560 C 158.605 -1.52576 -0.836449 0
M  V30 1561 O 159.781 -1.85307 -0.788874 0
M  V30 1562 C 156.846 -3.30545 -1.04599 0
M  V30 1563 C 155.907 -4.28352 -0.28516 0
M  V30 1564 C 155.14 -5.19831 -1.20878 0
M  V30 1565 O 155.363 -5.15223 -2.44747 0
M  V30 1566 O 154.297 -5.97892 -0.693491 0
M  V30 1567 H 158.123 -2.96345 0.664324 0
M  V30 1568 H 155.708 -1.44203 0.39061 0
M  V30 1569 H 157.59 -3.89681 -1.60396 0
M  V30 1570 H 156.265 -2.7121 -1.76711 0
M  V30 1571 H 155.172 -3.72764 0.315837 0
M  V30 1572 H 156.505 -4.90605 0.395924 0
M  V30 1573 N 158.157 -0.370918 -1.53173 0
M  V30 1574 C 159.403 0.217423 -2.01631 0
M  V30 1575 C 159.736 1.47983 -1.25756 0
M  V30 1576 O 159.011 1.91274 -0.352764 0
M  V30 1577 C 159.294 0.503982 -3.56556 0
M  V30 1578 C 159.147 -0.77243 -4.43118 0
M  V30 1579 C 160.466 1.30234 -4.20389 0
M  V30 1580 H 157.585 0.0775486 -0.732909 0
M  V30 1581 H 160.227 -0.496863 -1.83388 0
M  V30 1582 H 158.377 1.11248 -3.72231 0
M  V30 1583 H 160.049 -1.4098 -4.39229 0
M  V30 1584 H 158.292 -1.39167 -4.10871 0
M  V30 1585 H 158.963 -0.526815 -5.4948 0
M  V30 1586 H 161.439 0.787546 -4.08579 0
M  V30 1587 H 160.315 1.47158 -5.28806 0
M  V30 1588 H 160.576 2.31237 -3.76805 0
M  V30 1589 N 159.635 1.57281 -0.100228 0
M  V30 1590 C 160.912 1.86014 0.604812 0
M  V30 1591 C 161.292 0.998025 1.86018 0
M  V30 1592 O 160.64 0.0718184 2.28387 0
M  V30 1593 C 160.85 3.36784 0.915278 0
M  V30 1594 C 162.198 4.04957 1.27651 0
M  V30 1595 O 163.222 3.41695 1.00613 0
M  V30 1596 O 162.081 5.16593 1.7831 0
M  V30 1597 H 159.175 0.76942 0.303185 0
M  V30 1598 H 161.721 1.69176 -0.133313 0
M  V30 1599 H 160.493 3.91292 0.0248896 0
M  V30 1600 H 160.116 3.58987 1.70921 0
M  V30 1601 N 161.113 -0.173488 1.56642 0
M  V30 1602 C 162.043 -1.2171 1.99271 0
M  V30 1603 C 163.024 -1.46289 0.867959 0
M  V30 1604 O 164.209 -1.5766 1.13388 0
M  V30 1605 C 161.339 -2.55651 2.35074 0
M  V30 1606 C 160.293 -2.45645 3.50489 0
M  V30 1607 C 159.619 -3.84056 3.72028 0
M  V30 1608 C 160.919 -1.96302 4.84007 0
M  V30 1609 H 162.613 -0.86275 2.867 0
M  V30 1610 H 160.159 -0.413571 1.37933 0
M  V30 1611 H 162.112 -3.2886 2.63494 0
M  V30 1612 H 160.836 -2.92869 1.44552 0
M  V30 1613 H 159.495 -1.7489 3.22194 0
M  V30 1614 H 159.143 -4.18664 2.788 0
M  V30 1615 H 158.843 -3.7823 4.49684 0
M  V30 1616 H 160.367 -4.58854 4.02846 0
M  V30 1617 H 161.781 -2.59284 5.11317 0
M  V30 1618 H 160.178 -2.01429 5.65284 0
M  V30 1619 H 161.248 -0.917226 4.76146 0
M  V30 1620 N 162.591 -1.51276 -0.441967 0
M  V30 1621 C 163.816 -1.67799 -1.21895 0
M  V30 1622 C 164.241 -0.372864 -1.84367 0
M  V30 1623 O 163.599 0.666501 -1.68604 0
M  V30 1624 C 163.647 -2.79199 -2.28211 0
M  V30 1625 O 162.751 -2.42479 -3.33583 0
M  V30 1626 H 162.092 -0.559649 -0.357336 0
M  V30 1627 H 164.622 -1.97815 -0.522522 0
M  V30 1628 H 164.632 -3.03146 -2.73069 0
M  V30 1629 H 163.307 -3.73906 -1.82118 0
M  V30 1630 H 161.884 -2.29087 -2.94234 0
M  V30 1631 N 164.069 0.697108 -1.41344 0
M  V30 1632 C 165.346 1.45154 -1.31109 0
M  V30 1633 C 165.726 2.11009 0.0620449 0
M  V30 1634 O 165.074 2.01571 1.07618 0
M  V30 1635 C 165.284 2.47223 -2.46337 0
M  V30 1636 C 166.632 3.1252 -2.87431 0
M  V30 1637 O 167.656 2.57547 -2.46065 0
M  V30 1638 O 166.515 4.12083 -3.58957 0
M  V30 1639 H 163.609 0.646365 -0.515889 0
M  V30 1640 H 166.155 0.727716 -1.53305 0
M  V30 1641 H 164.927 1.97204 -3.37974 0
M  V30 1642 H 164.55 3.27116 -2.2601 0
M  V30 1643 N 165.547 1.27147 0.931209 0
M  V30 1644 C 166.51 1.09615 2.01289 0
M  V30 1645 C 167.51 0.0412581 1.60747 0
M  V30 1646 O 168.7 0.285545 1.71844 0
M  V30 1647 C 165.832 0.669447 3.34262 0
M  V30 1648 H 167.025 2.05662 2.18273 0
M  V30 1649 H 164.578 1.09885 1.11153 0
M  V30 1650 H 165.313 -0.292572 3.22978 0
M  V30 1651 H 165.098 1.43127 3.65044 0
M  V30 1652 H 166.588 0.568921 4.13706 0
M  V30 1653 N 167.025 -1.13721 1.09112 0
M  V30 1654 C 168.25 -1.89314 0.847053 0
M  V30 1655 C 168.675 -1.78416 -0.595774 0
M  V30 1656 O 168.033 -1.12942 -1.41823 0
M  V30 1657 C 168.081 -3.3701 1.28284 0
M  V30 1658 O 167.185 -4.10054 0.439267 0
M  V30 1659 H 166.526 -0.588745 0.307044 0
M  V30 1660 H 169.056 -1.43902 1.45442 0
M  V30 1661 H 169.066 -3.87834 1.26683 0
M  V30 1662 H 167.741 -3.4426 2.33363 0
M  V30 1663 H 166.318 -3.69266 0.519312 0
M  V30 1664 N 168.503 -0.877838 -1.30888 0
M  V30 1665 C 169.749 -0.493426 -1.96706 0
M  V30 1666 C 170.082 0.953504 -1.6918 0
M  V30 1667 O 169.357 1.67266 -0.992594 0
M  V30 1668 C 169.64 -0.760429 -3.51979 0
M  V30 1669 C 169.493 -2.25747 -3.89048 0
M  V30 1670 C 170.812 -0.232148 -4.39487 0
M  V30 1671 H 167.931 -0.180746 -0.714493 0
M  V30 1672 H 170.573 -1.10052 -1.54882 0
M  V30 1673 H 168.723 -0.243715 -3.87735 0
M  V30 1674 H 170.395 -2.84204 -3.63354 0
M  V30 1675 H 168.638 -2.72694 -3.37373 0
M  V30 1676 H 169.309 -2.39491 -4.97341 0
M  V30 1677 H 171.785 -0.674314 -4.106 0
M  V30 1678 H 170.661 -0.448355 -5.47066 0
M  V30 1679 H 170.922 0.866297 -4.33529 0
M  V30 1680 N 169.982 1.44106 -0.638065 0
M  V30 1681 C 170.945 2.29138 0.0531013 0
M  V30 1682 C 171.945 1.41409 0.765506 0
M  V30 1683 O 173.135 1.63206 0.609046 0
M  V30 1684 C 170.267 3.23144 1.08584 0
M  V30 1685 H 171.46 2.91739 -0.694883 0
M  V30 1686 H 169.013 1.51134 -0.398538 0
M  V30 1687 H 169.748 2.65408 1.86357 0
M  V30 1688 H 169.533 3.87804 0.578852 0
M  V30 1689 H 171.023 3.87004 1.56899 0
M  V30 1690 N 171.46 0.379036 1.52974 0
M  V30 1691 C 172.37 -0.468639 2.29872 0
M  V30 1692 C 173.386 -1.08067 1.36373 0
M  V30 1693 O 174.562 -1.08871 1.69438 0
M  V30 1694 C 171.627 -1.58594 3.083 0
M  V30 1695 C 170.688 -1.00007 4.17489 0
M  V30 1696 C 169.921 -2.06413 4.92168 0
M  V30 1697 O 170.144 -3.27751 4.66835 0
M  V30 1698 O 169.078 -1.68717 5.7777 0
M  V30 1699 H 172.904 0.157508 3.03291 0
M  V30 1700 H 170.489 0.143035 1.48714 0
M  V30 1701 H 172.371 -2.23525 3.57232 0
M  V30 1702 H 171.046 -2.19724 2.37703 0
M  V30 1703 H 169.953 -0.314299 3.72777 0
M  V30 1704 H 171.286 -0.433135 4.90291 0
M  V30 1705 N 172.938 -1.57226 0.108567 0
M  V30 1706 C 173.901 -2.13602 -0.831082 0
M  V30 1707 C 174.901 -1.06841 -1.20173 0
M  V30 1708 O 176.091 -1.32666 -1.12895 0
M  V30 1709 C 173.223 -2.66769 -2.12243 0
M  V30 1710 H 174.416 -2.97951 -0.341317 0
M  V30 1711 H 171.969 -1.55667 -0.14057 0
M  V30 1712 H 172.704 -1.85977 -2.65675 0
M  V30 1713 H 172.489 -3.44839 -1.86625 0
M  V30 1714 H 173.979 -3.10332 -2.79435 0
M  V30 1715 N 174.416 0.165178 -1.56732 0
M  V30 1716 C 175.641 0.900253 -1.86843 0
M  V30 1717 C 176.066 1.74766 -0.695596 0
M  V30 1718 O 175.424 1.77786 0.35522 0
M  V30 1719 C 175.472 1.74777 -3.15413 0
M  V30 1720 O 174.576 2.85007 -2.98068 0
M  V30 1721 H 173.917 0.251832 -0.614391 0
M  V30 1722 H 176.447 0.161468 -2.03962 0
M  V30 1723 H 176.457 2.14646 -3.46974 0
M  V30 1724 H 175.132 1.12537 -4.00385 0
M  V30 1725 H 173.709 2.48676 -2.77875 0
M  V30 1726 N 175.894 1.51508 0.433938 0
M  V30 1727 C 177.122 1.68157 1.20543 0
M  V30 1728 C 177.537 0.380362 1.84929 0
M  V30 1729 O 176.894 -0.641446 1.70856 0
M  V30 1730 C 176.945 2.79965 2.28696 0
M  V30 1731 O 176.666 4.05045 1.66943 0
M  V30 1732 C 178.167 3.07912 3.18912 0
M  V30 1733 H 175.387 0.56421 0.363191 0
M  V30 1734 H 177.931 1.97941 0.513754 0
M  V30 1735 H 176.086 2.5277 2.93574 0
M  V30 1736 H 176.5 4.67165 2.38448 0
M  V30 1737 H 177.974 3.89719 3.90926 0
M  V30 1738 H 178.451 2.20456 3.79863 0
M  V30 1739 H 179.057 3.36779 2.59731 0
M  V30 1740 N 177.372 -0.689602 1.41712 0
M  V30 1741 C 178.319 -1.80345 1.44029 0
M  V30 1742 C 179.289 -1.63478 0.293948 0
M  V30 1743 O 180.474 -1.84244 0.495869 0
M  V30 1744 C 177.614 -3.18272 1.33405 0
M  V30 1745 C 176.727 -3.46529 2.57956 0
M  V30 1746 C 175.862 -4.74103 2.39582 0
M  V30 1747 C 174.901 -4.95347 3.5958 0
M  V30 1748 N 174.038 -6.14151 3.40239 0
M  V30 1749 H 178.878 -1.77698 2.39222 0
M  V30 1750 H 176.415 -0.867688 1.18784 0
M  V30 1751 H 178.373 -3.97956 1.25246 0
M  V30 1752 H 177.003 -3.2008 0.418164 0
M  V30 1753 H 176.055 -2.61207 2.76542 0
M  V30 1754 H 177.367 -3.58126 3.47199 0
M  V30 1755 H 176.521 -5.61853 2.28924 0
M  V30 1756 H 175.26 -4.64763 1.47805 0
M  V30 1757 H 174.265 -4.06044 3.70686 0
M  V30 1758 H 175.49 -5.06542 4.52318 0
M  V30 1759 H 173.436 -6.06013 2.51167 0
M  V30 1760 H 173.353 -6.26543 4.23061 0
M  V30 1761 H 174.621 -7.04619 3.33365 0
M  V30 1762 N 178.85 -1.27639 -0.924453 0
M  V30 1763 C 179.798 -1.10485 -2.04685 0
M  V30 1764 C 180.792 -0.0270421 -1.69378 0
M  V30 1765 O 181.998 -0.185008 -1.79047 0
M  V30 1766 H 178.373 -0.340546 -0.670472 0
M  V30 1767 H 180.344 -2.05566 -2.16298 0
M  V30 1768 C 179.093 -0.772229 -3.39016 0
M  V30 1769 H 178.416 -1.59351 -3.66671 0
M  V30 1770 H 179.856 -0.692097 -4.18313 0
M  V30 1771 C 178.315 0.523554 -3.32807 0
M  V30 1772 O 178.845 1.55702 -3.70297 0
M  V30 1773 N 177.051 0.520363 -2.85903 0
M  V30 1774 H 176.598 -0.32107 -2.55591 0
M  V30 1775 H 176.556 1.38742 -2.82131 0
M  V30 1776 N 180.328 1.1314 -1.09713 0
M  V30 1777 C 181.291 2.16831 -0.742751 0
M  V30 1778 C 182.291 1.59159 0.229129 0
M  V30 1779 O 183.481 1.74199 0.00693237 0
M  V30 1780 C 180.613 3.40756 -0.0989168 0
M  V30 1781 H 181.806 2.49695 -1.66109 0
M  V30 1782 H 179.359 1.2802 -0.896699 0
M  V30 1783 H 180.094 3.13485 0.830514 0
M  V30 1784 H 179.879 3.83888 -0.798265 0
M  V30 1785 H 181.369 4.17386 0.133524 0
M  V30 1786 N 181.806 0.884767 1.30421 0
M  V30 1787 C 182.754 0.340869 2.30089 0
M  V30 1788 C 183.748 -0.55201 1.60154 0
M  V30 1789 O 184.954 -0.436467 1.74628 0
M  V30 1790 H 181.329 0.0915739 0.746404 0
M  V30 1791 H 183.3 1.19513 2.73421 0
M  V30 1792 C 182.049 -0.429779 3.45034 0
M  V30 1793 H 181.372 0.248024 3.9903 0
M  V30 1794 H 182.812 -0.775445 4.16849 0
M  V30 1795 C 181.271 -1.62677 2.95022 0
M  V30 1796 O 181.801 -2.72614 2.95033 0
M  V30 1797 N 180.007 -1.46387 2.51036 0
M  V30 1798 H 179.554 -0.569506 2.51226 0
M  V30 1799 H 179.512 -2.26612 2.17932 0
M  V30 1800 N 183.284 -1.43765 0.645699 0
M  V30 1801 C 184.232 -2.32516 -0.0624849 0
M  V30 1802 C 185.226 -1.48183 -0.820855 0
M  V30 1803 O 186.432 -1.64439 -0.732106 0
M  V30 1804 H 182.807 -0.750989 -0.0389864 0
M  V30 1805 H 184.778 -2.89979 0.703892 0
M  V30 1806 C 183.527 -3.32389 -1.02044 0
M  V30 1807 H 182.85 -3.97301 -0.446312 0
M  V30 1808 H 184.29 -3.97138 -1.48517 0
M  V30 1809 C 182.749 -2.62416 -2.11281 0
M  V30 1810 O 183.279 -2.434 -3.19561 0
M  V30 1811 N 181.485 -2.21913 -1.87624 0
M  V30 1812 H 181.032 -2.37578 -0.995703 0
M  V30 1813 H 180.99 -1.75424 -2.6091 0
M  V30 1814 N 184.763 -0.387143 -1.52771 0
M  V30 1815 C 185.988 0.198407 -2.06449 0
M  V30 1816 C 186.413 1.39918 -1.25716 0
M  V30 1817 O 185.771 1.79099 -0.281657 0
M  V30 1818 C 185.819 0.548893 -3.56398 0
M  V30 1819 O 184.923 1.64315 -3.78252 0
M  V30 1820 H 184.264 0.0237731 -0.663574 0
M  V30 1821 H 186.794 -0.553989 -1.96957 0
M  V30 1822 H 186.804 0.813812 -3.99801 0
M  V30 1823 H 185.479 -0.329005 -4.14597 0
M  V30 1824 H 184.056 1.37211 -3.46738 0
M  V30 1825 N 186.241 1.57166 -0.116904 0
M  V30 1826 C 187.488 1.95123 0.541603 0
M  V30 1827 C 187.816 1.00006 1.6682 0
M  V30 1828 O 187.071 0.0235658 1.95686 0
M  V30 1829 C 187.37 3.39508 1.11664 0
M  V30 1830 C 187.036 4.50762 0.111606 0
M  V30 1831 C 185.698 4.80918 -0.164758 0
M  V30 1832 C 188.05 5.18036 -0.573438 0
M  V30 1833 C 185.378 5.75666 -1.13249 0
M  V30 1834 C 187.73 6.13824 -1.52978 0
M  V30 1835 C 186.394 6.42374 -1.81415 0
M  V30 1836 H 185.664 0.714005 0.198187 0
M  V30 1837 H 188.311 1.9048 -0.197365 0
M  V30 1838 H 186.616 3.40835 1.93232 0
M  V30 1839 H 188.313 3.66189 1.63422 0
M  V30 1840 H 184.903 4.27272 0.337192 0
M  V30 1841 H 189.087 4.94896 -0.373092 0
M  V30 1842 H 184.343 5.96092 -1.35958 0
M  V30 1843 H 188.517 6.65039 -2.06629 0
M  V30 1844 H 186.144 7.15599 -2.56557 0
M  V30 1845 N 187.719 -0.156864 1.56817 0
M  V30 1846 C 188.947 -0.886316 1.86955 0
M  V30 1847 C 189.362 -1.75185 0.703975 0
M  V30 1848 O 188.719 -1.79555 -0.326552 0
M  V30 1849 C 188.77 -1.75117 3.16253 0
M  V30 1850 O 188.491 -0.920537 4.2832 0
M  V30 1851 C 189.992 -2.58905 3.59837 0
M  V30 1852 H 187.212 -0.25678 0.619923 0
M  V30 1853 H 189.756 -0.152615 2.0393 0
M  V30 1854 H 187.911 -2.43805 3.01062 0
M  V30 1855 H 188.325 -1.51337 5.02192 0
M  V30 1856 H 189.799 -3.1518 4.53172 0
M  V30 1857 H 190.276 -3.34472 2.84649 0
M  V30 1858 H 190.882 -1.95526 3.7769 0
M  V30 1859 N 189.197 -1.51736 -0.425897 0
M  V30 1860 C 190.446 -1.64201 -1.17136 0
M  V30 1861 C 190.759 -0.369705 -1.92074 0
M  V30 1862 O 191.965 -0.373898 -2.68913 0
M  V30 1863 C 190.421 -2.90035 -2.13091 0
M  V30 1864 C 190.029 -4.24312 -1.43747 0
M  V30 1865 C 191.773 -3.1186 -2.87999 0
M  V30 1866 C 189.68 -5.41285 -2.38253 0
M  V30 1867 H 188.61 -0.611624 -0.440944 0
M  V30 1868 H 191.261 -1.78212 -0.437328 0
M  V30 1869 H 189.643 -2.69684 -2.89977 0
M  V30 1870 H 190.817 -4.55086 -0.723408 0
M  V30 1871 H 189.132 -4.08456 -0.809465 0
M  V30 1872 H 191.729 -3.96427 -3.58817 0
M  V30 1873 H 192.072 -2.25403 -3.49999 0
M  V30 1874 H 192.605 -3.32605 -2.18217 0
M  V30 1875 H 189.344 -6.30037 -1.80925 0
M  V30 1876 H 188.864 -5.14872 -3.0768 0
M  V30 1877 H 190.543 -5.73694 -2.99139 0
M  V30 1878 N 190.675 0.682077 -1.42076 0
M  V30 1879 C 191.924 1.43786 -1.41451 0
M  V30 1880 C 192.237 1.95574 -0.0317074 0
M  V30 1881 O 193.443 2.71326 0.0971462 0
M  V30 1882 C 191.899 2.60071 -2.48779 0
M  V30 1883 C 191.507 2.15013 -3.93031 0
M  V30 1884 C 193.251 3.37626 -2.57311 0
M  V30 1885 C 191.158 3.28336 -4.91883 0
M  V30 1886 H 190.088 0.540143 -0.526082 0
M  V30 1887 H 192.739 0.739157 -1.67955 0
M  V30 1888 H 191.121 3.32275 -2.15429 0
M  V30 1889 H 192.295 1.5001 -4.35699 0
M  V30 1890 H 190.61 1.50416 -3.88284 0
M  V30 1891 H 193.207 4.22012 -3.28345 0
M  V30 1892 H 193.55 3.83727 -1.61429 0
M  V30 1893 H 194.083 2.72488 -2.89819 0
M  V30 1894 H 190.822 2.87234 -5.89217 0
M  V30 1895 H 190.342 3.92145 -4.53853 0
M  V30 1896 H 192.021 3.93913 -5.13265 0
M  V30 1897 N 192.153 1.28127 0.917671 0
M  V30 1898 C 193.381 1.17892 1.70026 0
M  V30 1899 C 193.796 -0.262958 1.8696 0
M  V30 1900 O 193.153 -1.17811 1.3938 0
M  V30 1901 C 193.204 1.86872 3.09453 0
M  V30 1902 O 192.925 3.25428 2.93306 0
M  V30 1903 C 194.426 1.8289 4.03815 0
M  V30 1904 H 191.646 0.40942 0.531617 0
M  V30 1905 H 194.19 1.69181 1.14883 0
M  V30 1906 H 192.345 1.39464 3.61426 0
M  V30 1907 H 192.759 3.59918 3.81523 0
M  V30 1908 H 194.233 2.35751 4.99125 0
M  V30 1909 H 194.71 0.800412 4.31845 0
M  V30 1910 H 195.316 2.29959 3.57769 0
M  V30 1911 N 193.631 -1.12557 1.10312 0
M  V30 1912 C 195.042 -1.65574 0.862678 0
M  V30 1913 C 195.393 -1.86566 -0.607256 0
M  V30 1914 O 194.518 -1.59121 -1.46662 0
M  V30 1915 C 195.113 -3.00776 1.55947 0
M  V30 1916 C 193.672 -3.50748 1.36576 0
M  V30 1917 C 192.819 -2.25797 1.60968 0
M  V30 1918 H 195.77 -0.963552 1.26101 0
M  V30 1919 H 195.791 -3.67185 0.997753 0
M  V30 1920 H 195.303 -2.85465 2.62928 0
M  V30 1921 H 193.404 -3.71245 0.317531 0
M  V30 1922 H 193.517 -4.30289 2.10686 0
M  V30 1923 H 191.881 -2.32841 1.03234 0
M  V30 1924 H 192.664 -2.13043 2.69198 0
M  V30 1925 N 195.109 -0.891671 -1.2995 0
M  V30 1926 C 196.356 -0.513501 -1.95881 0
M  V30 1927 C 196.684 0.938655 -1.70351 0
M  V30 1928 O 195.939 1.67936 -1.00478 0
M  V30 1929 C 196.238 -0.742868 -3.49594 0
M  V30 1930 C 195.904 -2.17114 -3.95186 0
M  V30 1931 C 194.566 -2.56169 -4.07346 0
M  V30 1932 C 196.918 -3.10162 -4.18866 0
M  V30 1933 C 194.246 -3.87469 -4.4055 0
M  V30 1934 C 196.598 -4.41001 -4.53542 0
M  V30 1935 C 195.262 -4.79941 -4.63911 0
M  V30 1936 H 194.532 -0.187903 -0.71678 0
M  V30 1937 H 197.179 -1.1288 -1.54694 0
M  V30 1938 H 195.484 -0.044586 -3.91775 0
M  V30 1939 H 197.181 -0.429767 -3.9869 0
M  V30 1940 H 193.771 -1.85801 -3.86233 0
M  V30 1941 H 197.955 -2.81206 -4.08946 0
M  V30 1942 H 193.211 -4.17371 -4.46779 0
M  V30 1943 H 197.385 -5.13133 -4.70815 0
M  V30 1944 H 195.012 -5.81719 -4.89395 0
M  V30 1945 N 196.587 1.43421 -0.653314 0
M  V30 1946 C 198.003 1.56341 -0.320886 0
M  V30 1947 C 198.203 1.63696 1.17499 0
M  V30 1948 O 197.259 1.59208 1.95982 0
M  V30 1949 C 198.572 2.82424 -1.03233 0
M  V30 1950 C 200.12 2.96168 -1.01259 0
M  V30 1951 C 200.595 4.25084 -1.70492 0
M  V30 1952 N 202.086 4.31948 -1.67257 0
M  V30 1953 C 202.821 5.30466 -2.17701 0
M  V30 1954 N 202.317 6.35261 -2.76434 0
M  V30 1955 N 204.11 5.2212 -2.082 0
M  V30 1956 H 196.261 1.3689 -1.62403 0
M  V30 1957 H 198.524 0.657455 -0.682977 0
M  V30 1958 H 198.23 2.83053 -2.08744 0
M  V30 1959 H 198.104 3.72653 -0.583948 0
M  V30 1960 H 200.491 2.9508 0.0341235 0
M  V30 1961 H 200.572 2.07229 -1.49966 0
M  V30 1962 H 200.216 4.26932 -2.7512 0
M  V30 1963 H 200.146 5.1292 -1.19251 0
M  V30 1964 H 202.637 3.56838 -1.24398 0
M  V30 1965 H 202.95 7.06754 -3.12601 0
M  V30 1966 H 201.295 6.35884 -2.80495 0
M  V30 1967 H 204.486 4.39166 -1.62021 0
M  V30 1968 H 204.659 5.98739 -2.47822 0
M  V30 1969 N 198.065 0.39524 1.52563 0
M  V30 1970 C 199.481 0.0454682 1.59535 0
M  V30 1971 C 199.681 -1.44056 1.4089 0
M  V30 1972 O 198.737 -2.20579 1.22888 0
M  V30 1973 C 200.05 0.527963 2.96029 0
M  V30 1974 C 201.598 0.484733 3.09224 0
M  V30 1975 C 202.073 0.943512 4.48176 0
M  V30 1976 N 203.564 0.899765 4.54377 0
M  V30 1977 C 204.299 1.22609 5.60138 0
M  V30 1978 N 203.795 1.62319 6.73516 0
M  V30 1979 N 205.588 1.14696 5.50274 0
M  V30 1980 H 197.739 1.36261 1.62931 0
M  V30 1981 H 200.002 0.558887 0.765735 0
M  V30 1982 H 199.708 1.56607 3.14908 0
M  V30 1983 H 199.582 -0.0698056 3.77135 0
M  V30 1984 H 201.969 -0.544298 2.90037 0
M  V30 1985 H 202.05 1.11838 2.30056 0
M  V30 1986 H 201.694 1.9708 4.68104 0
M  V30 1987 H 201.624 0.286817 5.25818 0
M  V30 1988 H 204.115 0.607632 3.72983 0
M  V30 1989 H 204.428 1.85567 7.5019 0
M  V30 1990 H 202.773 1.66211 6.74833 0
M  V30 1991 H 205.964 0.835701 4.6058 0
M  V30 1992 H 206.137 1.40459 6.32594 0
M  V30 1993 N 199.544 -1.57102 0.125237 0
M  V30 1994 C 200.474 -2.18659 -0.819174 0
M  V30 1995 C 201.455 -1.12843 -1.27281 0
M  V30 1996 O 202.64 -1.41104 -1.33429 0
M  V30 1997 C 199.77 -2.79096 -2.06695 0
M  V30 1998 C 198.724 -3.90548 -1.75088 0
M  V30 1999 C 198.05 -4.37821 -3.06948 0
M  V30 2000 C 199.35 -5.12356 -1.01435 0
M  V30 2001 H 201.044 -2.9783 -0.306202 0
M  V30 2002 H 198.59 -1.4326 -0.145839 0
M  V30 2003 H 200.543 -3.2082 -2.73226 0
M  V30 2004 H 199.267 -1.97223 -2.60328 0
M  V30 2005 H 197.926 -3.49409 -1.10944 0
M  V30 2006 H 197.574 -3.52799 -3.58527 0
M  V30 2007 H 197.274 -5.12982 -2.86571 0
M  V30 2008 H 198.798 -4.822 -3.74587 0
M  V30 2009 H 200.212 -5.5106 -1.58132 0
M  V30 2010 H 198.609 -5.9314 -0.911319 0
M  V30 2011 H 199.679 -4.849 -0.00218681 0
M  V30 2012 N 201.022 0.148545 -1.56898 0
M  V30 2013 C 201.955 1.21293 -1.93296 0
M  V30 2014 C 202.933 1.41637 -0.798599 0
M  V30 2015 O 204.117 1.56275 -1.05406 0
M  V30 2016 C 201.244 2.5721 -2.20365 0
M  V30 2017 C 200.29 2.53469 -3.4301 0
M  V30 2018 S 201.123 2.00315 -4.96623 0
M  V30 2019 C 202.279 3.37964 -5.26812 0
M  V30 2020 H 202.512 0.902393 -2.83274 0
M  V30 2021 H 200.045 0.354094 -1.50285 0
M  V30 2022 H 202.003 3.35427 -2.36641 0
M  V30 2023 H 200.664 2.85454 -1.31054 0
M  V30 2024 H 199.857 3.53518 -3.59223 0
M  V30 2025 H 199.459 1.83359 -3.25968 0
M  V30 2026 H 201.751 4.34066 -5.20185 0
M  V30 2027 H 202.694 3.26606 -6.28279 0
M  V30 2028 H 203.102 3.35028 -4.54331 0
M  V30 2029 N 202.5 1.5196 0.417844 0
M  V30 2030 C 203.43 1.77634 1.51554 0
M  V30 2031 C 204.411 0.626918 1.58126 0
M  V30 2032 O 205.596 0.871632 1.7354 0
M  V30 2033 C 202.726 1.91911 2.8946 0
M  V30 2034 C 201.68 3.07463 2.97743 0
M  V30 2035 C 201.006 3.06951 4.37819 0
M  V30 2036 C 202.306 4.47082 2.70027 0
M  V30 2037 H 204 2.6955 1.3032 0
M  V30 2038 H 201.546 1.29706 0.625492 0
M  V30 2039 H 203.499 2.08455 3.6623 0
M  V30 2040 H 202.223 0.966598 3.11969 0
M  V30 2041 H 200.882 2.90656 2.23416 0
M  V30 2042 H 200.53 2.09438 4.57323 0
M  V30 2043 H 200.23 3.84556 4.44286 0
M  V30 2044 H 201.754 3.25613 5.16535 0
M  V30 2045 H 203.168 4.6414 3.36522 0
M  V30 2046 H 201.565 5.2654 2.87881 0
M  V30 2047 H 202.635 4.55777 1.65514 0
M  V30 2048 N 203.978 -0.674533 1.42435 0
M  V30 2049 C 205.218 -1.4466 1.44405 0
M  V30 2050 C 205.582 -1.91911 0.0585784 0
M  V30 2051 O 206.783 -2.68759 -0.0469991 0
M  V30 2052 C 205.054 -2.61136 2.44013 0
M  V30 2053 S 206.613 -3.49981 2.64687 0
M  V30 2054 H 203.431 -0.494074 0.511284 0
M  V30 2055 H 206.033 -0.785162 1.7904 0
M  V30 2056 H 204.737 -2.24662 3.43446 0
M  V30 2057 H 204.268 -3.32153 2.10803 0
M  V30 2058 H 206.283 -4.57124 1.93007 0
M  V30 2059 N 205.456 -1.28612 -0.910864 0
M  V30 2060 C 206.419 -1.12803 -1.9952 0
M  V30 2061 C 207.419 -0.0668264 -1.60661 0
M  V30 2062 O 208.609 -0.312847 -1.71368 0
M  V30 2063 C 205.741 -0.72254 -3.33155 0
M  V30 2064 H 206.934 -2.09109 -2.14973 0
M  V30 2065 H 204.487 -1.11639 -1.09391 0
M  V30 2066 H 205.222 0.241152 -3.23402 0
M  V30 2067 H 205.007 -1.48916 -3.62721 0
M  V30 2068 H 206.497 -0.634666 -4.12749 0
M  V30 2069 N 206.934 1.1197 -1.10907 0
M  V30 2070 C 207.844 2.21433 -0.774896 0
M  V30 2071 C 208.86 1.72478 0.229657 0
M  V30 2072 O 210.036 2.01288 0.0672008 0
M  V30 2073 C 207.101 3.4602 -0.216986 0
M  V30 2074 C 206.162 4.09791 -1.27944 0
M  V30 2075 C 205.395 5.28431 -0.748055 0
M  V30 2076 O 205.618 5.68823 0.423833 0
M  V30 2077 O 204.552 5.82644 -1.51027 0
M  V30 2078 H 208.378 2.5242 -1.68873 0
M  V30 2079 H 205.963 1.20399 -0.884555 0
M  V30 2080 H 207.845 4.21304 0.090059 0
M  V30 2081 H 206.52 3.16698 0.669633 0
M  V30 2082 H 205.427 3.36265 -1.63941 0
M  V30 2083 H 206.76 4.4328 -2.13925 0
M  V30 2084 N 208.412 0.89855 1.29475 0
M  V30 2085 C 209.36 0.365253 2.29714 0
M  V30 2086 C 210.354 -0.534993 1.6073 0
M  V30 2087 O 211.56 -0.417921 1.75081 0
M  V30 2088 H 207.935 0.0994853 0.74539 0
M  V30 2089 H 209.906 1.22406 2.72138 0
M  V30 2090 C 208.655 -0.393159 3.4547 0
M  V30 2091 H 207.978 0.290332 3.98744 0
M  V30 2092 H 209.418 -0.731189 4.17648 0
M  V30 2093 C 207.877 -1.59539 2.9673 0
M  V30 2094 O 208.407 -2.69469 2.97908 0
M  V30 2095 N 206.613 -1.43716 2.52575 0
M  V30 2096 H 206.16 -0.542828 2.51816 0
M  V30 2097 H 206.118 -2.24288 2.20323 0
M  V30 2098 N 209.89 -1.43072 0.660911 0
M  V30 2099 C 211.306 -1.56169 0.329173 0
M  V30 2100 C 211.506 -1.64317 -1.16629 0
M  V30 2101 O 210.562 -1.60245 -1.95135 0
M  V30 2102 C 211.875 -2.81873 1.04729 0
M  V30 2103 C 213.423 -2.95627 1.02828 0
M  V30 2104 C 213.898 -4.24174 1.72744 0
M  V30 2105 N 215.389 -4.31055 1.69545 0
M  V30 2106 C 216.124 -5.29304 2.20511 0
M  V30 2107 N 215.62 -6.33786 2.79799 0
M  V30 2108 N 217.413 -5.21008 2.10966 0
M  V30 2109 H 209.564 -1.36027 1.63127 0
M  V30 2110 H 211.827 -0.653823 0.686454 0
M  V30 2111 H 211.533 -2.81942 2.10242 0
M  V30 2112 H 211.407 -3.72338 0.603702 0
M  V30 2113 H 213.794 -2.95094 -0.0184742 0
M  V30 2114 H 213.875 -2.06431 1.51063 0
M  V30 2115 H 213.519 -4.25467 2.7738 0
M  V30 2116 H 213.449 -5.1228 1.2197 0
M  V30 2117 H 215.94 -3.56174 1.26288 0
M  V30 2118 H 216.253 -7.05086 3.16344 0
M  V30 2119 H 214.598 -6.34387 2.83863 0
M  V30 2120 H 217.789 -4.38301 1.64347 0
M  V30 2121 H 217.962 -5.97416 2.50993 0
M  V30 2122 N 211.368 -0.403325 -1.52352 0
M  V30 2123 C 212.315 0.425011 -2.26853 0
M  V30 2124 C 213.285 1.04598 -1.29029 0
M  V30 2125 O 214.47 1.07135 -1.57882 0
M  V30 2126 C 211.61 1.53888 -3.08889 0
M  V30 2127 C 210.723 0.939396 -4.21663 0
M  V30 2128 C 209.858 2.02547 -4.91068 0
M  V30 2129 C 208.897 1.40263 -5.95813 0
M  V30 2130 N 208.034 2.4286 -6.58759 0
M  V30 2131 H 212.874 -0.21674 -2.97211 0
M  V30 2132 H 210.411 -0.118722 -1.4662 0
M  V30 2133 H 212.369 2.19558 -3.54753 0
M  V30 2134 H 210.999 2.15074 -2.40714 0
M  V30 2135 H 210.051 0.171898 -3.80011 0
M  V30 2136 H 211.363 0.44436 -4.96817 0
M  V30 2137 H 210.517 2.75958 -5.40308 0
M  V30 2138 H 209.256 2.55415 -4.15469 0
M  V30 2139 H 208.261 0.653833 -5.45898 0
M  V30 2140 H 209.486 0.881719 -6.73352 0
M  V30 2141 H 207.432 2.94871 -5.85992 0
M  V30 2142 H 207.349 1.98152 -7.2957 0
M  V30 2143 H 208.617 3.15858 -7.12639 0
M  V30 2144 N 212.846 1.57033 -0.133567 0
M  V30 2145 C 213.756 2.19632 0.824564 0
M  V30 2146 C 214.772 1.17666 1.28182 0
M  V30 2147 O 215.948 1.50193 1.3418 0
M  V30 2148 C 213.013 2.79499 2.05137 0
M  V30 2149 C 212.074 3.96548 1.64464 0
M  V30 2150 C 211.307 4.5355 2.81297 0
M  V30 2151 O 211.53 4.09438 3.97136 0
M  V30 2152 O 210.464 5.44018 2.57542 0
M  V30 2153 H 214.29 3.01991 0.321766 0
M  V30 2154 H 211.875 1.49112 0.0927889 0
M  V30 2155 H 213.757 3.17602 2.7696 0
M  V30 2156 H 212.432 2.00162 2.54395 0
M  V30 2157 H 211.339 3.63186 0.897048 0
M  V30 2158 H 212.672 4.77364 1.19934 0
M  V30 2159 N 214.325 -0.140222 1.56975 0
M  V30 2160 C 215.258 -1.20266 1.93936 0
M  V30 2161 C 216.236 -1.41212 0.806099 0
M  V30 2162 O 217.42 -1.55713 1.06234 0
M  V30 2163 C 214.547 -2.56037 2.21726 0
M  V30 2164 C 213.593 -2.51646 3.44349 0
M  V30 2165 S 214.426 -1.97678 4.97678 0
M  V30 2166 C 215.582 -3.35165 5.28597 0
M  V30 2167 H 215.815 -0.887358 2.83749 0
M  V30 2168 H 213.348 -0.346119 1.50471 0
M  V30 2169 H 215.306 -3.34167 2.38416 0
M  V30 2170 H 213.967 -2.84755 1.32566 0
M  V30 2171 H 213.16 -3.51608 3.61092 0
M  V30 2172 H 212.762 -1.81628 3.26936 0
M  V30 2173 H 215.054 -4.31302 5.2248 0
M  V30 2174 H 215.997 -3.23269 6.30002 0
M  V30 2175 H 216.405 -3.32614 4.56101 0
M  V30 2176 N 215.803 -1.52179 -0.40978 0
M  V30 2177 C 216.713 -1.78364 -1.52392 0
M  V30 2178 C 217.729 -0.669183 -1.60617 0
M  V30 2179 O 218.905 -0.954518 -1.77344 0
M  V30 2180 C 215.97 -1.92822 -2.88133 0
M  V30 2181 C 215.031 -3.16725 -2.898 0
M  V30 2182 C 214.264 -3.30483 -4.19067 0
M  V30 2183 O 214.487 -2.49522 -5.12928 0
M  V30 2184 O 213.421 -4.2363 -4.27576 0
M  V30 2185 H 217.247 -2.72931 -1.33201 0
M  V30 2186 H 214.832 -1.37016 -0.59557 0
M  V30 2187 H 216.714 -2.04157 -3.68643 0
M  V30 2188 H 215.389 -1.01444 -3.07393 0
M  V30 2189 H 214.296 -3.10848 -2.08146 0
M  V30 2190 H 215.629 -4.07881 -2.75489 0
M  V30 2191 N 217.281 0.66697 -1.42791 0
M  V30 2192 C 218.558 1.4234 -1.34159 0
M  V30 2193 C 218.938 2.11093 0.0172729 0
M  V30 2194 O 218.286 2.03808 1.03318 0
M  V30 2195 C 218.496 2.41942 -2.51526 0
M  V30 2196 C 219.844 3.06353 -2.93995 0
M  V30 2197 O 220.868 2.52269 -2.51473 0
M  V30 2198 O 219.727 4.04376 -3.67617 0
M  V30 2199 H 216.821 0.635277 -0.529483 0
M  V30 2200 H 219.367 0.695034 -1.54814 0
M  V30 2201 H 218.139 1.89991 -3.42081 0
M  V30 2202 H 217.762 3.22249 -2.32898 0
M  V30 2203 N 218.759 1.29093 0.90403 0
M  V30 2204 C 220.005 1.17996 1.65676 0
M  V30 2205 C 220.36 -0.266816 1.90541 0
M  V30 2206 O 219.653 -1.19 1.50165 0
M  V30 2207 C 219.847 1.92224 3.01305 0
M  V30 2208 C 219.676 3.43972 2.89678 0
M  V30 2209 C 218.446 4.1332 2.90679 0
M  V30 2210 C 220.644 4.39546 2.67028 0
M  V30 2211 N 218.626 5.51463 2.69743 0
M  V30 2212 C 219.997 5.65119 2.5503 0
M  V30 2213 C 222.052 4.29359 2.52101 0
M  V30 2214 C 220.755 6.81663 2.29626 0
M  V30 2215 C 222.781 5.4565 2.28079 0
M  V30 2216 C 222.143 6.70193 2.16843 0
M  V30 2217 H 218.242 0.486759 0.612037 0
M  V30 2218 H 220.826 1.62868 1.06688 0
M  V30 2219 H 218.997 1.49773 3.58361 0
M  V30 2220 H 220.729 1.73429 3.65656 0
M  V30 2221 H 217.484 3.64984 3.01801 0
M  V30 2222 H 217.908 6.24105 2.6234 0
M  V30 2223 H 222.55 3.33769 2.59534 0
M  V30 2224 H 220.268 7.77313 2.20932 0
M  V30 2225 H 223.854 5.39664 2.1738 0
M  V30 2226 H 222.734 7.58659 1.98511 0
M  V30 2227 N 220.237 -1.11381 1.11499 0
M  V30 2228 C 221.486 -1.82494 0.858993 0
M  V30 2229 C 221.799 -1.85605 -0.617278 0
M  V30 2230 O 223.005 -2.52824 -0.989552 0
M  V30 2231 C 221.461 -3.27745 1.48699 0
M  V30 2232 C 221.069 -3.32961 2.99735 0
M  V30 2233 C 222.813 -4.03754 1.31085 0
M  V30 2234 C 220.72 -4.72612 3.55516 0
M  V30 2235 H 219.65 -0.683802 0.317696 0
M  V30 2236 H 222.301 -1.25331 1.34031 0
M  V30 2237 H 220.683 -3.84844 0.933339 0
M  V30 2238 H 221.857 -2.85741 3.61509 0
M  V30 2239 H 220.172 -2.70433 3.16631 0
M  V30 2240 H 222.769 -5.06891 1.70192 0
M  V30 2241 H 223.112 -4.15527 0.253496 0
M  V30 2242 H 223.645 -3.53043 1.83318 0
M  V30 2243 H 220.384 -4.66036 4.60967 0
M  V30 2244 H 219.904 -5.2024 2.98513 0
M  V30 2245 H 221.583 -5.4157 3.53992 0
M  V30 2246 N 221.715 -0.905404 -1.28997 0
M  V30 2247 C 222.94 -0.549175 -1.99997 0
M  V30 2248 C 223.365 0.860276 -1.67275 0
M  V30 2249 O 222.723 1.57355 -0.900502 0
M  V30 2250 C 222.771 -0.755185 -3.52604 0
M  V30 2251 O 221.875 0.189692 -4.11964 0
M  V30 2252 H 221.216 -0.213899 -0.628604 0
M  V30 2253 H 223.746 -1.21856 -1.64354 0
M  V30 2254 H 223.756 -0.662045 -4.02593 0
M  V30 2255 H 222.431 -1.78271 -3.75755 0
M  V30 2256 H 221.008 0.0485257 -3.72868 0
M  V30 2257 N 223.193 1.4272 -0.668489 0
M  V30 2258 C 224.418 2.06484 -0.194758 0
M  V30 2259 C 224.843 1.49862 1.13679 0
M  V30 2260 O 224.201 0.614582 1.70565 0
M  V30 2261 C 224.249 3.60353 -0.133546 0
M  V30 2262 O 223.353 4.02464 0.899806 0
M  V30 2263 H 222.694 0.656137 -0.10188 0
M  V30 2264 H 225.224 1.82964 -0.915722 0
M  V30 2265 H 225.234 4.07976 0.0447041 0
M  V30 2266 H 223.909 4.00938 -1.1055 0
M  V30 2267 H 222.486 3.66402 0.693109 0
M  V30 2268 N 224.671 0.411399 1.52136 0
M  V30 2269 C 225.601 -0.404015 2.29978 0
M  V30 2270 C 226.582 -1.04412 1.34284 0
M  V30 2271 O 227.767 -1.0527 1.63192 0
M  V30 2272 C 224.897 -1.5197 3.12286 0
M  V30 2273 C 223.851 -1.00448 4.16046 0
M  V30 2274 C 223.177 -2.21393 4.86712 0
M  V30 2275 C 224.477 -0.0569336 5.22269 0
M  V30 2276 H 226.171 0.245529 2.98392 0
M  V30 2277 H 223.717 0.119525 1.43503 0
M  V30 2278 H 225.67 -2.09715 3.6551 0
M  V30 2279 H 224.394 -2.19716 2.41646 0
M  V30 2280 H 223.053 -0.449421 3.63835 0
M  V30 2281 H 222.701 -2.87699 4.12599 0
M  V30 2282 H 222.401 -1.87571 5.56858 0
M  V30 2283 H 223.925 -2.7974 5.4275 0
M  V30 2284 H 225.339 -0.54325 5.7072 0
M  V30 2285 H 223.736 0.192594 5.99791 0
M  V30 2286 H 224.806 0.887663 4.76706 0
M  V30 2287 N 226.149 -1.5696 0.141893 0
M  V30 2288 C 227.096 -2.16501 -0.799737 0
M  V30 2289 C 228.066 -1.09643 -1.24771 0
M  V30 2290 O 229.251 -1.3766 -1.32115 0
M  V30 2291 C 226.391 -2.78679 -2.03549 0
M  V30 2292 C 225.504 -3.99914 -1.6338 0
M  V30 2293 C 224.639 -4.50106 -2.82096 0
M  V30 2294 C 223.678 -5.63819 -2.38275 0
M  V30 2295 N 222.815 -6.08651 -3.49983 0
M  V30 2296 H 227.655 -2.96632 -0.285179 0
M  V30 2297 H 225.192 -1.46533 -0.129053 0
M  V30 2298 H 227.15 -3.1287 -2.75986 0
M  V30 2299 H 225.78 -2.012 -2.52425 0
M  V30 2300 H 224.832 -3.71735 -0.807279 0
M  V30 2301 H 226.144 -4.82311 -1.27192 0
M  V30 2302 H 225.298 -4.86325 -3.62729 0
M  V30 2303 H 224.037 -3.66706 -3.21525 0
M  V30 2304 H 223.042 -5.2718 -1.56081 0
M  V30 2305 H 224.267 -6.49 -1.99938 0
M  V30 2306 H 222.213 -5.28188 -3.89042 0
M  V30 2307 H 222.13 -6.85961 -3.17794 0
M  V30 2308 H 223.398 -6.49515 -4.30988 0
M  V30 2309 N 227.627 0.131896 -1.57047 0
M  V30 2310 C 228.852 0.860418 -1.8871 0
M  V30 2311 C 229.277 1.73251 -0.73251 0
M  V30 2312 O 228.635 1.785 0.317429 0
M  V30 2313 C 228.683 1.68047 -3.19049 0
M  V30 2314 O 227.787 2.7862 -3.04047 0
M  V30 2315 H 227.128 0.238743 -0.619595 0
M  V30 2316 H 229.658 0.118169 -2.04258 0
M  V30 2317 H 229.668 2.07238 -3.51449 0
M  V30 2318 H 228.343 1.04018 -4.02682 0
M  V30 2319 H 226.92 2.42726 -2.83088 0
M  V30 2320 N 229.106 1.52395 0.401703 0
M  V30 2321 C 230.352 1.67065 1.14966 0
M  V30 2322 C 230.685 0.403052 1.89971 0
M  V30 2323 O 229.96 -0.598774 1.85054 0
M  V30 2324 C 230.243 2.8975 2.13815 0
M  V30 2325 C 230.096 4.26578 1.42658 0
M  V30 2326 C 231.415 3.07965 3.14397 0
M  V30 2327 H 228.534 0.607968 0.416587 0
M  V30 2328 H 231.176 1.84965 0.434511 0
M  V30 2329 H 229.326 2.74619 2.74803 0
M  V30 2330 H 230.998 4.53451 0.847329 0
M  V30 2331 H 229.241 4.27639 0.72849 0
M  V30 2332 H 229.912 5.08483 2.14823 0
M  V30 2333 H 232.388 3.22043 2.63491 0
M  V30 2334 H 231.264 3.95308 3.80819 0
M  V30 2335 H 231.525 2.21611 3.82545 0
M  V30 2336 N 230.584 -0.659388 1.43143 0
M  V30 2337 C 231.516 -1.7849 1.43784 0
M  V30 2338 C 232.529 -1.5932 0.334787 0
M  V30 2339 O 233.718 -1.68155 0.598842 0
M  V30 2340 C 230.818 -3.15828 1.22906 0
M  V30 2341 C 229.991 -3.61711 2.45934 0
M  V30 2342 C 229.05 -4.77831 2.20371 0
M  V30 2343 O 228.076 -4.87586 2.93681 0
M  V30 2344 N 229.278 -5.67611 1.21647 0
M  V30 2345 H 232.043 -1.7842 2.40803 0
M  V30 2346 H 229.604 -0.84302 1.3822 0
M  V30 2347 H 231.596 -3.91189 1.03697 0
M  V30 2348 H 230.166 -3.10707 0.343542 0
M  V30 2349 H 229.386 -2.76861 2.80609 0
M  V30 2350 H 230.674 -3.89112 3.27825 0
M  V30 2351 H 230.072 -5.62397 0.610449 0
M  V30 2352 H 228.629 -6.42719 1.08423 0
M  V30 2353 N 232.062 -1.29571 -0.897171 0
M  V30 2354 C 233.29 -1.20583 -1.68129 0
M  V30 2355 C 233.705 0.233181 -1.87354 0
M  V30 2356 O 233.062 1.15579 -1.41236 0
M  V30 2357 C 233.113 -1.91772 -3.06441 0
M  V30 2358 O 232.834 -3.30053 -2.88091 0
M  V30 2359 C 234.335 -1.89291 -4.00854 0
M  V30 2360 H 231.555 -0.417826 -0.525036 0
M  V30 2361 H 234.099 -1.70987 -1.12177 0
M  V30 2362 H 232.254 -1.45196 -3.59161 0
M  V30 2363 H 232.668 -3.65942 -3.75748 0
M  V30 2364 H 234.142 -2.43662 -4.95311 0
M  V30 2365 H 234.619 -0.869014 -4.30517 0
M  V30 2366 H 235.225 -2.35622 -3.54066 0
M  V30 2367 N 233.54 1.10788 -1.12088 0
M  V30 2368 C 234.956 1.34691 -0.856186 0
M  V30 2369 C 235.156 1.94791 0.515615 0
M  V30 2370 O 234.212 2.18524 1.26505 0
M  V30 2371 C 235.525 2.27208 -1.9697 0
M  V30 2372 C 237.073 2.40755 -2.00016 0
M  V30 2373 C 237.548 3.36598 -3.1059 0
M  V30 2374 N 239.039 3.44164 -3.10008 0
M  V30 2375 C 239.774 4.18284 -3.92206 0
M  V30 2376 N 239.27 4.95322 -4.84384 0
M  V30 2377 N 241.063 4.13865 -3.80357 0
M  V30 2378 H 233.214 0.70144 -2.00483 0
M  V30 2379 H 235.477 0.371405 -0.872217 0
M  V30 2380 H 235.183 1.90251 -2.958 0
M  V30 2381 H 235.057 3.27485 -1.87172 0
M  V30 2382 H 237.444 2.76982 -1.01808 0
M  V30 2383 H 237.525 1.40305 -2.13888 0
M  V30 2384 H 237.169 3.01096 -4.09028 0
M  V30 2385 H 237.099 4.36918 -2.93956 0
M  V30 2386 H 239.59 2.8922 -2.43228 0
M  V30 2387 H 239.903 5.49267 -5.43623 0
M  V30 2388 H 238.248 4.94459 -4.884 0
M  V30 2389 H 241.439 3.52773 -3.07683 0
M  V30 2390 H 241.612 4.71372 -4.44649 0
M  V30 2391 N 235.018 0.912232 1.28515 0
M  V30 2392 C 235.928 0.404506 2.31086 0
M  V30 2393 C 236.944 -0.50707 1.66448 0
M  V30 2394 O 238.12 -0.393624 1.97516 0
M  V30 2395 C 235.185 -0.348572 3.44943 0
M  V30 2396 C 234.246 0.59604 4.25142 0
M  V30 2397 C 233.479 -0.121194 5.33562 0
M  V30 2398 O 233.702 -1.34317 5.5436 0
M  V30 2399 O 232.636 0.542716 5.99448 0
M  V30 2400 H 236.462 1.25579 2.76521 0
M  V30 2401 H 234.047 0.676998 1.33181 0
M  V30 2402 H 235.929 -0.77395 4.14232 0
M  V30 2403 H 234.604 -1.17571 3.01594 0
M  V30 2404 H 233.511 1.07079 3.58448 0
M  V30 2405 H 234.844 1.38995 4.72167 0
M  V30 2406 N 236.496 -1.42363 0.676048 0
M  V30 2407 C 237.907 -1.84649 0.275948 0
M  V30 2408 C 238.258 -1.56588 -1.18214 0
M  V30 2409 O 237.383 -1.02634 -1.90513 0
M  V30 2410 C 237.978 -3.35178 0.494053 0
M  V30 2411 C 236.537 -3.76109 0.148061 0
M  V30 2412 C 235.684 -2.65931 0.785891 0
M  V30 2413 H 238.635 -1.32192 0.878121 0
M  V30 2414 H 238.656 -3.79655 -0.25343 0
M  V30 2415 H 238.168 -3.55571 1.55535 0
M  V30 2416 H 236.269 -3.61323 -0.909742 0
M  V30 2417 H 236.382 -4.7546 0.589454 0
M  V30 2418 H 234.746 -2.53773 0.217113 0
M  V30 2419 H 235.529 -2.89146 1.85067 0
M  V30 2420 N 237.974 -0.419461 -1.51915 0
M  V30 2421 C 239.204 0.151915 -2.06041 0
M  V30 2422 C 239.612 1.38539 -1.28855 0
M  V30 2423 O 238.955 1.80592 -0.336463 0
M  V30 2424 C 239.017 0.557119 -3.55157 0
M  V30 2425 C 238.681 -0.567054 -4.53468 0
M  V30 2426 C 239.678 -1.43379 -4.99738 0
M  V30 2427 C 237.363 -0.742693 -4.96779 0
M  V30 2428 C 239.357 -2.46102 -5.87973 0
M  V30 2429 C 237.044 -1.77322 -5.84808 0
M  V30 2430 C 238.042 -2.63078 -6.30301 0
M  V30 2431 O 237.73 -3.64364 -7.16585 0
M  V30 2432 H 237.462 0.0193293 -0.675724 0
M  V30 2433 H 240.016 -0.592073 -1.96682 0
M  V30 2434 H 238.246 1.35355 -3.62238 0
M  V30 2435 H 239.935 1.05759 -3.9188 0
M  V30 2436 H 240.701 -1.30954 -4.66986 0
M  V30 2437 H 236.58 -0.0848307 -4.60922 0
M  V30 2438 H 240.124 -3.13071 -6.23404 0
M  V30 2439 H 236.021 -1.89773 -6.16974 0
M  V30 2440 H 236.789 -3.60731 -7.34721 0
M  V30 2441 N 239.452 1.56882 -0.150215 0
M  V30 2442 C 240.362 2.20494 0.801222 0
M  V30 2443 C 241.378 1.19019 1.26927 0
M  V30 2444 O 242.554 1.51607 1.32579 0
M  V30 2445 C 239.619 2.81659 2.02161 0
M  V30 2446 C 238.68 3.9827 1.60249 0
M  V30 2447 C 237.913 4.56508 2.7647 0
M  V30 2448 O 238.136 4.13627 3.92771 0
M  V30 2449 O 237.07 5.46719 2.51757 0
M  V30 2450 H 240.896 3.02315 0.289717 0
M  V30 2451 H 238.481 1.49202 0.0769684 0
M  V30 2452 H 240.363 3.20522 2.73576 0
M  V30 2453 H 239.038 2.02849 2.52258 0
M  V30 2454 H 237.945 3.64117 0.858477 0
M  V30 2455 H 239.278 4.78609 1.14864 0
M  V30 2456 N 240.93 -0.123565 1.57115 0
M  V30 2457 C 242.176 -0.833386 1.84885 0
M  V30 2458 C 242.509 -1.79742 0.735292 0
M  V30 2459 O 241.784 -1.92764 -0.25925 0
M  V30 2460 C 242.067 -1.5873 3.23228 0
M  V30 2461 C 241.92 -0.643183 4.45178 0
M  V30 2462 C 243.239 -2.54453 3.59085 0
M  V30 2463 H 240.358 -0.301518 0.6725 0
M  V30 2464 H 243 -0.097778 1.89748 0
M  V30 2465 H 241.15 -2.21438 3.19214 0
M  V30 2466 H 242.822 -0.0253015 4.61293 0
M  V30 2467 H 241.065 0.0456139 4.33776 0
M  V30 2468 H 241.736 -1.20724 5.38637 0
M  V30 2469 H 244.212 -2.01853 3.63861 0
M  V30 2470 H 243.088 -3.04238 4.5687 0
M  V30 2471 H 243.349 -3.36906 2.86264 0
M  V30 2472 N 242.408 -1.52605 -0.393616 0
M  V30 2473 C 243.371 -1.76415 -1.46323 0
M  V30 2474 C 244.371 -0.634126 -1.47768 0
M  V30 2475 O 245.561 -0.902142 -1.4902 0
M  V30 2476 C 242.693 -1.8607 -2.85641 0
M  V30 2477 H 243.886 -2.71916 -1.26498 0
M  V30 2478 H 241.439 -1.43257 -0.625073 0
M  V30 2479 H 242.174 -0.925378 -3.10817 0
M  V30 2480 H 241.959 -2.68235 -2.85993 0
M  V30 2481 H 243.449 -2.06179 -3.63153 0
M  V30 2482 N 243.887 0.651787 -1.4349 0
M  V30 2483 C 244.819 1.77725 -1.44729 0
M  V30 2484 C 245.832 1.59141 -0.343231 0
M  V30 2485 O 247.021 1.67835 -0.607751 0
M  V30 2486 C 244.121 3.15172 -1.24579 0
M  V30 2487 C 243.294 3.60402 -2.47849 0
M  V30 2488 C 242.353 4.76656 -2.22902 0
M  V30 2489 O 241.379 4.86022 -2.96263 0
M  V30 2490 N 242.581 5.66958 -1.24656 0
M  V30 2491 H 245.346 1.77141 -2.41746 0
M  V30 2492 H 242.907 0.835678 -1.38665 0
M  V30 2493 H 244.899 3.90634 -1.0577 0
M  V30 2494 H 243.469 3.1052 -0.360015 0
M  V30 2495 H 242.689 2.75369 -2.82073 0
M  V30 2496 H 243.977 3.87368 -3.29884 0
M  V30 2497 H 243.375 5.62065 -0.640265 0
M  V30 2498 H 241.932 6.42135 -1.1183 0
M  V30 2499 N 245.365 1.30045 0.890287 0
M  V30 2500 C 246.612 1.18561 1.64163 0
M  V30 2501 C 246.94 -0.260852 1.92743 0
M  V30 2502 O 246.195 -1.20376 1.54299 0
M  V30 2503 C 246.494 1.95409 2.99249 0
M  V30 2504 C 246.16 3.45066 2.90242 0
M  V30 2505 C 244.822 3.85878 2.87492 0
M  V30 2506 C 247.174 4.4039 2.78758 0
M  V30 2507 C 244.502 5.20314 2.7109 0
M  V30 2508 C 246.854 5.74928 2.63894 0
M  V30 2509 C 245.518 6.14986 2.59516 0
M  V30 2510 H 244.788 0.433846 0.600715 0
M  V30 2511 H 247.435 1.61088 1.03552 0
M  V30 2512 H 245.74 1.45501 3.63781 0
M  V30 2513 H 247.437 1.8392 3.56334 0
M  V30 2514 H 244.027 3.12631 2.93189 0
M  V30 2515 H 248.211 4.09806 2.79952 0
M  V30 2516 H 243.467 5.50449 2.66112 0
M  V30 2517 H 247.641 6.48434 2.53981 0
M  V30 2518 H 245.268 7.19104 2.46565 0
M  V30 2519 N 246.843 -1.10192 1.12674 0
M  V30 2520 C 247.791 -2.18694 0.792196 0
M  V30 2521 C 248.785 -1.67938 -0.222058 0
M  V30 2522 O 249.991 -1.79822 -0.0800074 0
M  V30 2523 H 246.366 -0.713223 0.238364 0
M  V30 2524 H 248.337 -2.44149 1.71564 0
M  V30 2525 C 247.086 -3.46682 0.265859 0
M  V30 2526 H 246.409 -3.86101 1.03761 0
M  V30 2527 H 247.849 -4.23942 0.0701128 0
M  V30 2528 C 246.308 -3.21506 -1.00675 0
M  V30 2529 O 246.838 -3.43408 -2.08408 0
M  V30 2530 N 245.044 -2.75158 -0.934692 0
M  V30 2531 H 244.591 -2.57535 -0.0578604 0
M  V30 2532 H 244.549 -2.58691 -1.7868 0
M  V30 2533 N 248.321 -0.919034 -1.28029 0
M  V30 2534 C 249.567 -0.555757 -1.95036 0
M  V30 2535 C 249.9 0.899198 -1.72128 0
M  V30 2536 O 249.175 1.64023 -1.04531 0
M  V30 2537 C 249.458 -0.872024 -3.49382 0
M  V30 2538 C 249.311 -2.3801 -3.81669 0
M  V30 2539 C 250.63 -0.37185 -4.38526 0
M  V30 2540 H 247.749 -0.203386 -0.708381 0
M  V30 2541 H 250.391 -1.14924 -1.51303 0
M  V30 2542 H 248.541 -0.366946 -3.86763 0
M  V30 2543 H 250.213 -2.9562 -3.54128 0
M  V30 2544 H 248.456 -2.83289 -3.28526 0
M  V30 2545 H 249.127 -2.55192 -4.8947 0
M  V30 2546 H 251.603 -0.804602 -4.08247 0
M  V30 2547 H 250.479 -0.622173 -5.45362 0
M  V30 2548 H 250.74 0.727934 -4.36066 0
M  V30 2549 N 249.799 1.42003 -0.683588 0
M  V30 2550 C 250.709 2.34597 -0.0109075 0
M  V30 2551 C 251.725 1.55576 0.779245 0
M  V30 2552 O 252.901 1.88107 0.719555 0
M  V30 2553 C 249.966 3.34199 0.922588 0
M  V30 2554 C 249.027 4.29115 0.125984 0
M  V30 2555 C 248.26 5.23959 1.01502 0
M  V30 2556 O 248.483 5.23952 2.25456 0
M  V30 2557 O 247.417 6.00053 0.47111 0
M  V30 2558 H 251.243 2.93675 -0.773853 0
M  V30 2559 H 248.828 1.42654 -0.443861 0
M  V30 2560 H 250.71 3.95365 1.45823 0
M  V30 2561 H 249.385 2.77582 1.66523 0
M  V30 2562 H 248.292 3.71335 -0.453969 0
M  V30 2563 H 249.625 4.88798 -0.577736 0
M  V30 2564 N 251.277 0.427512 1.51691 0
M  V30 2565 C 252.227 -0.406604 2.24345 0
M  V30 2566 C 253.211 -0.998276 1.26187 0
M  V30 2567 O 254.403 -0.918045 1.51331 0
M  V30 2568 C 251.532 -1.51266 3.08177 0
M  V30 2569 C 250.618 -0.930868 4.13758 0
M  V30 2570 N 251.009 -0.0773552 5.05741 0
M  V30 2571 C 249.307 -1.19948 4.29568 0
M  V30 2572 C 250.008 0.248344 5.8117 0
M  V30 2573 N 248.984 -0.365535 5.4237 0
M  V30 2574 H 252.786 0.251581 2.92821 0
M  V30 2575 H 250.3 0.239003 1.60632 0
M  V30 2576 H 252.297 -2.123 3.58796 0
M  V30 2577 H 250.957 -2.17328 2.41244 0
M  V30 2578 H 251.968 0.288351 5.17097 0
M  V30 2579 H 248.645 -1.85832 3.73862 0
M  V30 2580 H 250.035 0.942286 6.6526 0
M  V30 2581 N 252.755 -1.56801 0.158532 0
M  V30 2582 C 254.002 -1.9649 -0.489679 0
M  V30 2583 C 254.33 -1.04394 -1.6411 0
M  V30 2584 O 253.585 -0.0754401 -1.95555 0
M  V30 2585 C 253.884 -3.4235 -1.02623 0
M  V30 2586 C 253.55 -4.50899 0.00794526 0
M  V30 2587 C 252.212 -4.80312 0.292207 0
M  V30 2588 C 254.564 -5.16333 0.710584 0
M  V30 2589 C 251.892 -5.72461 1.28472 0
M  V30 2590 C 254.244 -6.09553 1.69199 0
M  V30 2591 C 252.908 -6.37339 1.98383 0
M  V30 2592 H 252.178 -0.719009 -0.179186 0
M  V30 2593 H 254.825 -1.8989 0.247798 0
M  V30 2594 H 253.13 -3.45838 -1.84128 0
M  V30 2595 H 254.827 -3.70393 -1.53656 0
M  V30 2596 H 251.417 -4.28015 -0.22379 0
M  V30 2597 H 255.601 -4.93732 0.504174 0
M  V30 2598 H 250.857 -5.92278 1.51714 0
M  V30 2599 H 255.031 -6.59327 2.24189 0
M  V30 2600 H 252.658 -7.08546 2.7544 0
M  V30 2601 N 254.233 0.115231 -1.57178 0
M  V30 2602 C 255.458 0.840354 -1.89612 0
M  V30 2603 C 255.883 1.72464 -0.750845 0
M  V30 2604 O 255.241 1.78826 0.298478 0
M  V30 2605 C 255.289 1.64654 -3.20814 0
M  V30 2606 O 254.393 2.7538 -3.06985 0
M  V30 2607 H 253.734 0.232158 -0.622092 0
M  V30 2608 H 256.264 0.0964977 -2.04372 0
M  V30 2609 H 256.274 2.03499 -3.53627 0
M  V30 2610 H 254.949 0.997416 -4.03763 0
M  V30 2611 H 253.526 2.3971 -2.85646 0
M  V30 2612 N 255.711 1.52812 0.385517 0
M  V30 2613 C 256.959 1.67694 1.12797 0
M  V30 2614 C 257.28 0.421115 1.90399 0
M  V30 2615 O 256.55 -0.564551 1.87589 0
M  V30 2616 H 255.13 0.618155 0.419396 0
M  V30 2617 H 257.792 1.89938 0.436972 0
M  V30 2618 H 256.888 2.52896 1.82894 0
M  V30 2619 N 257.189 -0.644168 1.43834 0
M  V30 2620 C 258.122 -1.76906 1.44151 0
M  V30 2621 C 259.1 -1.59774 0.301857 0
M  V30 2622 O 260.284 -1.81834 0.496841 0
M  V30 2623 C 257.411 -3.14321 1.26174 0
M  V30 2624 C 256.457 -3.50134 2.43533 0
M  V30 2625 S 257.29 -3.49085 4.06079 0
M  V30 2626 C 258.446 -4.89142 3.90501 0
M  V30 2627 H 258.679 -1.76368 2.39336 0
M  V30 2628 H 256.212 -0.817624 1.30974 0
M  V30 2629 H 258.17 -3.93625 1.16489 0
M  V30 2630 H 256.831 -3.12412 0.325224 0
M  V30 2631 H 256.024 -4.50095 2.26783 0
M  V30 2632 H 255.626 -2.78264 2.4989 0
M  V30 2633 H 257.918 -5.78036 3.53385 0
M  V30 2634 H 258.861 -5.10945 4.90246 0
M  V30 2635 H 259.269 -4.63102 3.22795 0
M  V30 2636 N 258.668 -1.30515 -0.883378 0
M  V30 2637 C 259.618 -1.13641 -1.9766 0
M  V30 2638 C 260.602 -0.0511314 -1.60819 0
M  V30 2639 O 261.794 -0.274623 -1.74857 0
M  V30 2640 C 258.923 -0.831976 -3.33066 0
M  V30 2641 C 258.009 -1.95759 -3.76217 0
M  V30 2642 N 258.4 -3.20313 -3.9145 0
M  V30 2643 C 256.698 -1.85431 -4.05625 0
M  V30 2644 C 257.399 -3.93856 -4.2808 0
M  V30 2645 N 256.375 -3.21919 -4.38029 0
M  V30 2646 H 260.177 -2.08106 -2.07531 0
M  V30 2647 H 257.691 -1.21877 -1.0733 0
M  V30 2648 H 259.688 -0.692102 -4.11115 0
M  V30 2649 H 258.348 0.104588 -3.24532 0
M  V30 2650 H 259.359 -3.55583 -3.76538 0
M  V30 2651 H 256.036 -0.991531 -4.05555 0
M  V30 2652 H 257.426 -5.01125 -4.47575 0
M  V30 2653 N 260.146 1.09593 -1.13257 0
M  V30 2654 C 261.094 2.18271 -0.803783 0
M  V30 2655 C 262.088 1.68054 0.213148 0
M  V30 2656 O 263.294 1.79862 0.0704699 0
M  V30 2657 H 259.669 0.711949 -0.242143 0
M  V30 2658 H 261.64 2.43235 -1.72856 0
M  V30 2659 C 260.389 3.46536 -0.28424 0
M  V30 2660 H 259.712 3.85545 -1.05807 0
M  V30 2661 H 261.152 4.23899 -0.0925945 0
M  V30 2662 C 259.611 3.22036 0.989684 0
M  V30 2663 O 260.141 3.44509 2.06584 0
M  V30 2664 N 258.347 2.7565 0.920086 0
M  V30 2665 H 257.894 2.57562 0.0442019 0
M  V30 2666 H 257.852 2.59635 1.77306 0
M  V30 2667 N 261.624 0.925811 1.2754 0
M  V30 2668 C 262.87 0.575575 1.95086 0
M  V30 2669 C 263.225 -0.873246 1.71441 0
M  V30 2670 O 262.518 -1.61443 1.03183 0
M  V30 2671 C 262.712 0.835296 3.47502 0
M  V30 2672 C 262.541 2.30781 3.85967 0
M  V30 2673 C 261.311 2.96017 4.09514 0
M  V30 2674 C 263.509 3.28519 3.95702 0
M  V30 2675 N 261.491 4.3344 4.34744 0
M  V30 2676 C 262.862 4.51146 4.25285 0
M  V30 2677 C 264.917 3.23753 3.7827 0
M  V30 2678 C 263.62 5.69606 4.39251 0
M  V30 2679 C 265.646 4.41523 3.9346 0
M  V30 2680 C 265.008 5.62928 4.23428 0
M  V30 2681 H 261.107 0.260711 0.737261 0
M  V30 2682 H 263.691 1.19204 1.53943 0
M  V30 2683 H 261.862 0.248005 3.87607 0
M  V30 2684 H 263.594 0.447878 4.02214 0
M  V30 2685 H 260.349 2.46695 4.04275 0
M  V30 2686 H 260.773 5.04528 4.5142 0
M  V30 2687 H 265.415 2.3096 3.54143 0
M  V30 2688 H 263.133 6.62866 4.62205 0
M  V30 2689 H 266.719 4.39351 3.81394 0
M  V30 2690 H 265.599 6.52538 4.34929 0
M  V30 2691 N 263.102 -1.41638 0.69111 0
M  V30 2692 C 264.332 -2.0533 0.228758 0
M  V30 2693 C 264.74 -1.52089 -1.12541 0
M  V30 2694 O 264.083 -0.662145 -1.71351 0
M  V30 2695 C 264.145 -3.59349 0.10407 0
M  V30 2696 C 263.809 -4.35362 1.38956 0
M  V30 2697 C 264.806 -4.64942 2.32648 0
M  V30 2698 C 262.491 -4.74714 1.64169 0
M  V30 2699 C 264.485 -5.32828 3.49818 0
M  V30 2700 C 262.172 -5.42338 2.81625 0
M  V30 2701 C 263.17 -5.71322 3.74273 0
M  V30 2702 O 262.858 -6.37554 4.89673 0
M  V30 2703 H 262.59 -0.667796 0.104997 0
M  V30 2704 H 265.144 -1.82477 0.942938 0
M  V30 2705 H 263.374 -3.80924 -0.665839 0
M  V30 2706 H 265.063 -4.04633 -0.320519 0
M  V30 2707 H 265.829 -4.35025 2.14425 0
M  V30 2708 H 261.708 -4.51538 0.929202 0
M  V30 2709 H 265.252 -5.55368 4.22152 0
M  V30 2710 H 261.149 -5.71673 2.99768 0
M  V30 2711 H 261.917 -6.56049 4.8943 0
M  V30 2712 N 264.58 -0.43555 -1.51462 0
M  V30 2713 C 265.543 0.365137 -2.26273 0
M  V30 2714 C 266.543 0.951227 -1.29647 0
M  V30 2715 O 267.733 0.825958 -1.53374 0
M  V30 2716 C 264.865 1.51645 -3.05314 0
M  V30 2717 H 266.058 -0.290474 -2.9849 0
M  V30 2718 H 263.611 -0.188676 -1.55157 0
M  V30 2719 H 264.346 2.20816 -2.3751 0
M  V30 2720 H 264.131 1.10238 -3.76284 0
M  V30 2721 H 265.621 2.08218 -3.61987 0
M  V30 2722 N 266.058 1.56714 -0.166846 0
M  V30 2723 C 267.298 1.98641 0.481763 0
M  V30 2724 C 267.662 1.05038 1.6072 0
M  V30 2725 O 268.863 1.36087 2.31805 0
M  V30 2726 C 267.134 3.44362 0.956517 0
M  V30 2727 S 268.693 4.08317 1.60694 0
M  V30 2728 H 265.511 0.693873 0.155116 0
M  V30 2729 H 268.113 1.93719 -0.263251 0
M  V30 2730 H 266.817 4.10204 0.126936 0
M  V30 2731 H 266.348 3.53041 1.73568 0
M  V30 2732 H 268.363 4.02999 2.89494 0
M  V30 2733 N 267.536 -0.106894 1.57237 0
M  V30 2734 C 268.761 -0.830287 1.90055 0
M  V30 2735 C 269.186 -1.72064 0.75998 0
M  V30 2736 O 268.544 -1.78982 -0.288991 0
M  V30 2737 C 268.592 -1.6295 3.21683 0
M  V30 2738 O 267.696 -2.73748 3.08441 0
M  V30 2739 H 267.037 -0.228855 0.623315 0
M  V30 2740 H 269.567 -0.085658 2.04421 0
M  V30 2741 H 269.577 -2.01621 3.54701 0
M  V30 2742 H 268.252 -0.975989 4.04286 0
M  V30 2743 H 266.829 -2.38192 2.86913 0
M  V30 2744 N 269.014 -1.53014 -0.377408 0
M  V30 2745 C 269.964 -1.74996 -1.46152 0
M  V30 2746 C 270.948 -0.604236 -1.49123 0
M  V30 2747 O 272.14 -0.862489 -1.54564 0
M  V30 2748 C 269.269 -1.93267 -2.8373 0
M  V30 2749 C 268.355 -3.13807 -2.85283 0
M  V30 2750 N 268.746 -4.35941 -2.56493 0
M  V30 2751 C 267.044 -3.14288 -3.16448 0
M  V30 2752 C 267.745 -5.17615 -2.65424 0
M  V30 2753 N 266.721 -4.53559 -2.99641 0
M  V30 2754 H 270.523 -2.67044 -1.22738 0
M  V30 2755 H 268.037 -1.51479 -0.585479 0
M  V30 2756 H 270.034 -2.0714 -3.61799 0
M  V30 2757 H 268.694 -1.0244 -3.08117 0
M  V30 2758 H 269.705 -4.63876 -2.30302 0
M  V30 2759 H 266.382 -2.33312 -3.46225 0
M  V30 2760 H 267.772 -6.25006 -2.46612 0
M  V30 2761 N 270.492 0.636531 -1.44174 0
M  V30 2762 C 271.455 1.73063 -1.50273 0
M  V30 2763 C 272.455 1.56113 -0.385397 0
M  V30 2764 O 273.645 1.61707 -0.64781 0
M  V30 2765 C 270.777 3.12096 -1.37145 0
M  V30 2766 H 271.97 1.69031 -2.47727 0
M  V30 2767 H 269.523 0.849706 -1.31186 0
M  V30 2768 H 270.258 3.21728 -0.407636 0
M  V30 2769 H 270.043 3.25805 -2.18159 0
M  V30 2770 H 271.533 3.91846 -1.44382 0
M  V30 2771 N 271.97 1.30982 0.876444 0
M  V30 2772 C 273.386 1.09498 1.16113 0
M  V30 2773 C 273.586 -0.13875 2.01022 0
M  V30 2774 O 272.642 -0.829935 2.38471 0
M  V30 2775 C 273.955 2.36308 1.85954 0
M  V30 2776 C 275.503 2.41856 1.98683 0
M  V30 2777 C 275.978 3.6853 2.71937 0
M  V30 2778 N 277.469 3.69387 2.79477 0
M  V30 2779 C 278.204 4.64096 3.36753 0
M  V30 2780 N 277.7 5.69155 3.95012 0
M  V30 2781 N 279.493 4.51626 3.3465 0
M  V30 2782 H 271.644 2.10118 0.310494 0
M  V30 2783 H 273.907 0.926634 0.200131 0
M  V30 2784 H 273.613 3.26388 1.31011 0
M  V30 2785 H 273.487 2.4561 2.86278 0
M  V30 2786 H 275.874 1.52249 2.52793 0
M  V30 2787 H 275.955 2.36523 0.9742 0
M  V30 2788 H 275.599 4.58499 2.18496 0
M  V30 2789 H 275.529 3.71127 3.73593 0
M  V30 2790 H 278.02 2.93438 2.38123 0
M  V30 2791 H 278.333 6.3751 4.36808 0
M  V30 2792 H 276.678 5.72937 3.93406 0
M  V30 2793 H 279.869 3.68728 2.8837 0
M  V30 2794 H 280.042 5.25614 3.7899 0
M  V30 2795 N 273.449 -1.08991 1.13837 0
M  V30 2796 C 274.86 -1.62746 0.914917 0
M  V30 2797 C 275.211 -1.88403 -0.547594 0
M  V30 2798 O 274.336 -1.63706 -1.41525 0
M  V30 2799 C 274.931 -2.95662 1.65437 0
M  V30 2800 C 273.49 -3.46225 1.47666 0
M  V30 2801 C 272.637 -2.20562 1.6807 0
M  V30 2802 H 275.588 -0.922946 1.29102 0
M  V30 2803 H 275.609 -3.63825 1.11407 0
M  V30 2804 H 275.121 -2.76956 2.71877 0
M  V30 2805 H 273.222 -3.70046 0.435478 0
M  V30 2806 H 273.335 -4.23368 2.24268 0
M  V30 2807 H 271.699 -2.29439 1.10589 0
M  V30 2808 H 272.482 -2.0437 2.7584 0
M  V30 2809 N 274.927 -0.932562 -1.27047 0
M  V30 2810 C 276.155 -0.592031 -1.98249 0
M  V30 2811 C 276.57 0.831062 -1.69525 0
M  V30 2812 O 275.927 1.55299 -0.958561 0
M  V30 2813 C 275.978 -0.814279 -3.5221 0
M  V30 2814 O 275.699 -2.18139 -3.7993 0
M  V30 2815 C 277.2 -0.483121 -4.4066 0
M  V30 2816 H 274.42 -0.223896 -0.632544 0
M  V30 2817 H 276.964 -1.25091 -1.61779 0
M  V30 2818 H 275.119 -0.20213 -3.86872 0
M  V30 2819 H 275.533 -2.235 -4.74498 0
M  V30 2820 H 277.007 -0.689298 -5.47679 0
M  V30 2821 H 277.484 0.581546 -4.35333 0
M  V30 2822 H 278.09 -1.07362 -4.11526 0
M  V30 2823 N 276.405 1.4127 -0.698611 0
M  V30 2824 C 277.652 2.0118 -0.230865 0
M  V30 2825 C 277.98 1.55338 1.17049 0
M  V30 2826 O 277.235 0.756775 1.80475 0
M  V30 2827 C 277.534 3.56592 -0.240192 0
M  V30 2828 C 277.2 4.21955 -1.58948 0
M  V30 2829 C 275.862 4.39524 -1.95887 0
M  V30 2830 C 278.214 4.58576 -2.47704 0
M  V30 2831 C 275.542 4.90992 -3.2116 0
M  V30 2832 C 277.894 5.11435 -3.72313 0
M  V30 2833 C 276.558 5.27215 -4.0939 0
M  V30 2834 H 275.828 0.736169 -0.0844796 0
M  V30 2835 H 278.475 1.69124 -0.8983 0
M  V30 2836 H 276.78 3.88456 0.510797 0
M  V30 2837 H 278.477 4.00758 0.139296 0
M  V30 2838 H 275.067 4.08657 -1.29219 0
M  V30 2839 H 279.251 4.44654 -2.20445 0
M  V30 2840 H 274.507 5.01393 -3.49878 0
M  V30 2841 H 278.681 5.38752 -4.4127 0
M  V30 2842 H 276.308 5.66859 -5.06533 0
M  V30 2843 N 277.883 0.443576 1.51229 0
M  V30 2844 C 279.123 -0.119889 2.04048 0
M  V30 2845 C 279.487 -1.39418 1.32009 0
M  V30 2846 O 280.688 -2.03829 1.75235 0
M  V30 2847 C 278.959 -0.327233 3.55899 0
M  V30 2848 S 280.518 -0.853208 4.30425 0
M  V30 2849 H 277.336 -0.028921 0.710412 0
M  V30 2850 H 279.938 0.604413 1.85922 0
M  V30 2851 H 278.642 0.606445 4.05895 0
M  V30 2852 H 278.173 -1.07844 3.7833 0
M  V30 2853 H 280.188 -2.13005 4.48155 0
M  V30 2854 N 279.361 -1.56624 0.175154 0
M  V30 2855 C 280.309 -2.19468 -0.770495 0
M  V30 2856 C 281.303 -1.15985 -1.23466 0
M  V30 2857 O 282.509 -1.34176 -1.19987 0
M  V30 2858 H 278.884 -0.703095 -0.266761 0
M  V30 2859 H 280.855 -2.97613 -0.216542 0
M  V30 2860 C 279.604 -2.85264 -1.98796 0
M  V30 2861 H 278.927 -3.64623 -1.63983 0
M  V30 2862 H 280.367 -3.327 -2.62843 0
M  V30 2863 C 278.826 -1.85239 -2.81404 0
M  V30 2864 O 279.356 -1.34024 -3.78682 0
M  V30 2865 N 277.562 -1.53911 -2.46495 0
M  V30 2866 H 277.109 -1.95751 -1.67449 0
M  V30 2867 H 277.067 -0.872382 -3.02054 0
M  V30 2868 N 280.839 0.0985539 -1.57292 0
M  V30 2869 C 282.085 0.803867 -1.86188 0
M  V30 2870 C 282.418 1.78549 -0.763794 0
M  V30 2871 O 281.693 1.93153 0.22855 0
M  V30 2872 C 281.976 1.53568 -3.25713 0
M  V30 2873 C 281.829 0.572277 -4.46145 0
M  V30 2874 C 283.148 2.48708 -3.63087 0
M  V30 2875 H 280.267 0.290781 -0.677211 0
M  V30 2876 H 282.909 0.0675783 -1.8988 0
M  V30 2877 H 281.059 2.16332 -3.22696 0
M  V30 2878 H 282.731 -0.0480894 -4.61275 0
M  V30 2879 H 280.974 -0.114618 -4.33649 0
M  V30 2880 H 281.645 1.12139 -5.40489 0
M  V30 2881 H 284.121 1.96039 -3.67026 0
M  V30 2882 H 282.997 2.96932 -4.61652 0
M  V30 2883 H 283.258 3.32309 -2.91588 0
M  V30 2884 N 282.317 1.53212 0.369288 0
M  V30 2885 C 283.557 1.70915 1.12105 0
M  V30 2886 C 283.921 0.449444 1.86665 0
M  V30 2887 O 285.122 0.503105 2.6405 0
M  V30 2888 C 283.393 2.9222 2.05772 0
M  V30 2889 S 284.952 3.30609 2.88519 0
M  V30 2890 H 281.77 0.601445 0.379189 0
M  V30 2891 H 284.372 1.91306 0.402794 0
M  V30 2892 H 283.076 3.82103 1.49752 0
M  V30 2893 H 282.607 2.7422 2.82076 0
M  V30 2894 H 284.622 2.82333 4.08047 0
M  V30 2895 N 283.795 -0.628877 1.44509 0
M  V30 2896 C 285.211 -0.947305 1.28446 0
M  V30 2897 C 285.411 -2.00275 0.221872 0
M  V30 2898 O 284.467 -2.49447 -0.391471 0
M  V30 2899 C 285.78 -1.40843 2.65676 0
M  V30 2900 C 287.328 -1.52379 2.73404 0
M  V30 2901 C 287.803 -2.01875 4.11109 0
M  V30 2902 N 289.294 -2.09142 4.13296 0
M  V30 2903 C 290.029 -2.48615 5.16699 0
M  V30 2904 N 289.525 -2.87209 6.30462 0
M  V30 2905 N 291.318 -2.48768 5.04054 0
M  V30 2906 H 283.469 0.0690977 2.12288 0
M  V30 2907 H 285.732 -0.0317164 0.947469 0
M  V30 2908 H 285.438 -0.707206 3.44516 0
M  V30 2909 H 285.312 -2.37902 2.92716 0
M  V30 2910 H 287.699 -2.21598 1.9488 0
M  V30 2911 H 287.78 -0.536898 2.50102 0
M  V30 2912 H 287.424 -1.3325 4.90109 0
M  V30 2913 H 287.354 -3.0144 4.31789 0
M  V30 2914 H 289.845 -1.81991 3.31191 0
M  V30 2915 H 290.158 -3.16149 7.05174 0
M  V30 2916 H 288.503 -2.84955 6.33897 0
M  V30 2917 H 291.694 -2.18009 4.14234 0
M  V30 2918 H 291.867 -2.79207 5.84763 0
M  V30 2919 N 285.273 -1.31445 -0.869486 0
M  V30 2920 C 286.183 -1.21097 -2.0093 0
M  V30 2921 C 287.199 -0.127584 -1.73532 0
M  V30 2922 O 288.375 -0.345477 -1.98415 0
M  V30 2923 C 285.44 -0.919378 -3.34288 0
M  V30 2924 C 284.501 -2.08971 -3.75006 0
M  V30 2925 C 283.734 -1.81194 -5.02001 0
M  V30 2926 O 283.957 -0.747296 -5.65484 0
M  V30 2927 O 282.891 -2.66883 -5.39497 0
M  V30 2928 H 286.717 -2.16883 -2.12592 0
M  V30 2929 H 284.302 -1.11189 -0.997868 0
M  V30 2930 H 286.184 -0.772625 -4.14257 0
M  V30 2931 H 284.859 0.00844772 -3.23699 0
M  V30 2932 H 283.766 -2.29187 -2.95676 0
M  V30 2933 H 285.099 -2.9998 -3.90221 0
M  V30 2934 N 286.751 1.08385 -1.14413 0
M  V30 2935 C 287.976 1.85057 -0.936413 0
M  V30 2936 C 288.401 1.81055 0.509971 0
M  V30 2937 O 287.759 1.1958 1.36273 0
M  V30 2938 C 287.807 3.30505 -1.44217 0
M  V30 2939 O 286.911 4.07491 -0.634409 0
M  V30 2940 H 286.252 0.573425 -0.334784 0
M  V30 2941 H 288.782 1.36799 -1.52142 0
M  V30 2942 H 288.792 3.81348 -1.45043 0
M  V30 2943 H 287.467 3.32734 -2.49522 0
M  V30 2944 H 286.044 3.66368 -0.694902 0
M  V30 2945 N 288.23 0.939286 1.26551 0
M  V30 2946 C 289.16 0.465044 2.28822 0
M  V30 2947 C 290.141 -0.480692 1.63167 0
M  V30 2948 O 291.326 -0.382955 1.90387 0
M  V30 2949 C 288.456 -0.27234 3.46231 0
M  V30 2950 C 287.41 0.58666 4.2396 0
M  V30 2951 C 286.736 -0.280573 5.33963 0
M  V30 2952 C 288.036 1.85704 4.88171 0
M  V30 2953 H 289.73 1.31979 2.68741 0
M  V30 2954 H 287.276 0.636061 1.29191 0
M  V30 2955 H 289.229 -0.615133 4.16886 0
M  V30 2956 H 287.953 -1.16121 3.0526 0
M  V30 2957 H 286.612 0.91232 3.55067 0
M  V30 2958 H 286.26 -1.16874 4.89234 0
M  V30 2959 H 285.96 0.29076 5.8688 0
M  V30 2960 H 287.484 -0.618678 6.07458 0
M  V30 2961 H 288.898 1.58161 5.51052 0
M  V30 2962 H 287.295 2.37279 5.51197 0
M  V30 2963 H 288.365 2.56957 4.11219 0
M  V30 2964 N 289.708 -1.40897 0.706093 0
M  V30 2965 C 290.933 -2.05895 0.249435 0
M  V30 2966 C 291.358 -1.52823 -1.09666 0
M  V30 2967 O 290.716 -0.659589 -1.68876 0
M  V30 2968 C 290.764 -3.59872 0.22904 0
M  V30 2969 O 289.868 -4.04708 -0.792784 0
M  V30 2970 H 289.209 -0.653206 0.119241 0
M  V30 2971 H 291.739 -1.80471 0.96391 0
M  V30 2972 H 291.749 -4.07951 0.0634791 0
M  V30 2973 H 290.424 -3.97866 1.21141 0
M  V30 2974 H 289.001 -3.68111 -0.59572 0
M  V30 2975 N 291.186 -0.45159 -1.50991 0
M  V30 2976 C 292.434 0.109857 -2.01801 0
M  V30 2977 C 292.755 1.41958 -1.3369 0
M  V30 2978 O 292.025 1.9003 -0.475951 0
M  V30 2979 H 290.605 0.0435884 -0.745727 0
M  V30 2980 H 293.267 -0.597557 -1.85514 0
M  V30 2981 H 292.363 0.275489 -3.10882 0
M  V30 2982 N 292.664 1.56529 -0.183458 0
M  V30 2983 C 293.91 1.97537 0.459036 0
M  V30 2984 C 294.243 1.06989 1.62071 0
M  V30 2985 O 293.518 0.11948 1.94133 0
M  V30 2986 C 293.801 3.47874 0.930368 0
M  V30 2987 C 293.654 4.492 -0.232317 0
M  V30 2988 C 294.973 4.01612 1.79989 0
M  V30 2989 H 292.092 0.718204 0.165383 0
M  V30 2990 H 294.734 1.88042 -0.272038 0
M  V30 2991 H 292.884 3.56095 1.55333 0
M  V30 2992 H 294.556 4.53027 -0.86972 0
M  V30 2993 H 292.799 4.24657 -0.885928 0
M  V30 2994 H 293.47 5.51823 0.139796 0
M  V30 2995 H 295.946 3.96097 1.27461 0
M  V30 2996 H 294.822 5.07195 2.09867 0
M  V30 2997 H 295.083 3.46163 2.74998 0
M  V30 2998 N 294.142 -0.090211 1.57342 0
M  V30 2999 C 295.37 -0.806224 1.90546 0
M  V30 3000 C 295.785 -1.72041 0.777644 0
M  V30 3001 O 295.142 -1.80778 -0.250103 0
M  V30 3002 C 295.193 -1.61546 3.23396 0
M  V30 3003 O 294.914 -0.738043 4.31839 0
M  V30 3004 C 296.415 -2.4341 3.70495 0
M  V30 3005 H 293.635 -0.230256 0.630257 0
M  V30 3006 H 296.179 -0.0659843 2.04394 0
M  V30 3007 H 294.334 -2.30816 3.11131 0
M  V30 3008 H 294.748 -1.29901 5.08159 0
M  V30 3009 H 296.222 -2.95676 4.66133 0
M  V30 3010 H 296.699 -3.22098 2.98579 0
M  V30 3011 H 297.305 -1.79331 3.85643 0
M  V30 3012 N 295.62 -1.53406 -0.361157 0
M  V30 3013 C 296.845 -1.74024 -1.12829 0
M  V30 3014 C 297.27 -0.470069 -1.82132 0
M  V30 3015 O 296.628 0.57619 -1.719 0
M  V30 3016 C 296.676 -2.90903 -2.13091 0
M  V30 3017 O 295.78 -2.59821 -3.20261 0
M  V30 3018 H 295.121 -0.577804 -0.327168 0
M  V30 3019 H 297.651 -2.00307 -0.41693 0
M  V30 3020 H 297.661 -3.17194 -2.56616 0
M  V30 3021 H 296.336 -3.83034 -1.62042 0
M  V30 3022 H 294.913 -2.44362 -2.81677 0
M  V30 3023 N 297.098 0.621204 -1.44841 0
M  V30 3024 C 298.048 1.72663 -1.48901 0
M  V30 3025 C 299.032 1.56964 -0.353702 0
M  V30 3026 O 300.224 1.66532 -0.599669 0
M  V30 3027 C 297.353 3.11381 -1.44557 0
M  V30 3028 C 296.439 3.32514 -2.6324 0
M  V30 3029 N 296.83 3.23969 -3.8843 0
M  V30 3030 C 295.128 3.63343 -2.58647 0
M  V30 3031 C 295.829 3.46062 -4.67564 0
M  V30 3032 N 294.805 3.69407 -3.98797 0
M  V30 3033 H 298.607 1.64529 -2.43531 0
M  V30 3034 H 296.121 0.82401 -1.39942 0
M  V30 3035 H 298.118 3.90667 -1.4555 0
M  V30 3036 H 296.778 3.20674 -0.509731 0
M  V30 3037 H 297.789 3.02669 -4.20252 0
M  V30 3038 H 294.466 3.79556 -1.73906 0
M  V30 3039 H 295.856 3.44963 -5.76585 0
M  V30 3040 N 298.576 1.31904 0.862503 0
M  V30 3041 C 299.824 1.21776 1.61292 0
M  V30 3042 C 300.145 -0.222413 1.93727 0
M  V30 3043 O 299.415 -1.1451 1.58947 0
M  V30 3044 H 297.995 0.447717 0.597962 0
M  V30 3045 H 300.657 1.65326 1.03215 0
M  V30 3046 H 299.753 1.7948 2.5533 0
M  V30 3047 N 300.054 -1.07777 1.14986 0
M  V30 3048 C 300.984 -2.16865 0.865557 0
M  V30 3049 C 301.965 -1.69123 -0.182083 0
M  V30 3050 O 303.15 -1.94164 -0.0373815 0
M  V30 3051 C 300.28 -3.45539 0.349313 0
M  V30 3052 C 299.234 -4.06708 1.33313 0
M  V30 3053 C 298.56 -5.30411 0.675918 0
M  V30 3054 C 299.86 -4.47241 2.69764 0
M  V30 3055 H 301.554 -2.40905 1.77778 0
M  V30 3056 H 299.1 -1.15781 0.856203 0
M  V30 3057 H 301.053 -4.21174 0.137983 0
M  V30 3058 H 299.777 -3.21072 -0.598362 0
M  V30 3059 H 298.436 -3.33112 1.53075 0
M  V30 3060 H 298.084 -5.02232 -0.277767 0
M  V30 3061 H 297.784 -5.72293 1.33244 0
M  V30 3062 H 299.308 -6.08755 0.474262 0
M  V30 3063 H 300.722 -5.14025 2.53873 0
M  V30 3064 H 299.119 -5.00062 3.3175 0
M  V30 3065 H 300.189 -3.58818 3.26156 0
M  V30 3066 N 301.532 -0.945985 -1.26051 0
M  V30 3067 C 302.757 -0.612525 -1.98149 0
M  V30 3068 C 303.182 0.806623 -1.69927 0
M  V30 3069 O 302.54 1.54411 -0.950108 0
M  V30 3070 C 302.588 -0.866981 -3.50023 0
M  V30 3071 O 301.692 0.0585333 -4.12358 0
M  V30 3072 H 301.033 -0.23379 -0.621481 0
M  V30 3073 H 303.563 -1.27023 -1.60395 0
M  V30 3074 H 303.573 -0.789792 -4.00283 0
M  V30 3075 H 302.248 -1.90135 -3.69894 0
M  V30 3076 H 300.825 -0.0701241 -3.72834 0
M  V30 3077 N 303.011 1.40521 -0.713556 0
M  V30 3078 C 304.251 2.02783 -0.256584 0
M  V30 3079 C 304.615 1.55352 1.12827 0
M  V30 3080 O 305.816 2.09663 1.68211 0
M  V30 3081 C 304.087 3.5586 -0.331414 0
M  V30 3082 S 305.646 4.38773 0.0488703 0
M  V30 3083 H 302.464 0.703655 -0.101934 0
M  V30 3084 H 305.066 1.71674 -0.935325 0
M  V30 3085 H 303.77 3.87874 -1.34098 0
M  V30 3086 H 303.301 3.91695 0.365873 0
M  V30 3087 H 305.316 4.79633 1.2715 0
M  V30 3088 N 304.489 0.459591 1.5075 0
M  V30 3089 C 305.399 -0.34613 2.32033 0
M  V30 3090 C 306.415 -1.00686 1.41909 0
M  V30 3091 O 307.591 -0.997361 1.7497 0
M  V30 3092 C 304.656 -1.42029 3.16273 0
M  V30 3093 C 303.717 -0.777362 4.22203 0
M  V30 3094 C 302.95 -1.80034 5.02418 0
M  V30 3095 O 303.173 -3.02544 4.83553 0
M  V30 3096 O 302.107 -1.37853 5.85901 0
M  V30 3097 H 305.933 0.318054 3.0203 0
M  V30 3098 H 303.518 0.221663 1.47746 0
M  V30 3099 H 305.4 -2.04275 3.68578 0
M  V30 3100 H 304.075 -2.06815 2.49016 0
M  V30 3101 H 302.982 -0.116256 3.73919 0
M  V30 3102 H 304.315 -0.172634 4.91897 0
M  V30 3103 N 305.967 -1.56429 0.191757 0
M  V30 3104 C 307.213 -1.97777 -0.448554 0
M  V30 3105 C 307.546 -1.07847 -1.61501 0
M  V30 3106 O 306.821 -0.129774 -1.94067 0
M  V30 3107 C 307.104 -3.48362 -0.911906 0
M  V30 3108 C 306.957 -4.4907 0.256136 0
M  V30 3109 C 308.276 -4.02561 -1.77857 0
M  V30 3110 H 305.395 -0.719071 -0.161572 0
M  V30 3111 H 308.037 -1.87896 0.282007 0
M  V30 3112 H 306.187 -3.56914 -1.53442 0
M  V30 3113 H 307.859 -4.5256 0.893733 0
M  V30 3114 H 306.102 -4.24181 0.908436 0
M  V30 3115 H 306.773 -5.51889 -0.11053 0
M  V30 3116 H 309.249 -3.96767 -1.25359 0
M  V30 3117 H 308.125 -5.08301 -2.07174 0
M  V30 3118 H 308.386 -3.47616 -2.73158 0
M  V30 3119 N 307.445 0.0818655 -1.57387 0
M  V30 3120 C 308.685 0.788375 -1.88584 0
M  V30 3121 C 309.049 1.75248 -0.784351 0
M  V30 3122 O 310.25 2.50334 -0.979105 0
M  V30 3123 C 308.521 1.48654 -3.25018 0
M  V30 3124 S 310.08 2.22951 -3.7794 0
M  V30 3125 H 306.898 0.262383 -0.660815 0
M  V30 3126 H 309.5 0.0448995 -1.95448 0
M  V30 3127 H 308.204 0.770919 -4.03094 0
M  V30 3128 H 307.735 2.26965 -3.21326 0
M  V30 3129 H 309.75 3.49309 -3.52417 0
M  V30 3130 N 308.923 1.53595 0.353017 0
M  V30 3131 C 309.87 1.80919 1.43308 0
M  V30 3132 C 310.84 0.654288 1.5267 0
M  V30 3133 O 312.025 0.897759 1.6836 0
M  V30 3134 C 309.165 2.01605 2.80089 0
M  V30 3135 C 308.278 3.29321 2.79593 0
M  V30 3136 C 307.413 3.40125 4.0803 0
M  V30 3137 C 306.452 4.61826 4.01725 0
M  V30 3138 N 305.589 4.69716 5.21834 0
M  V30 3139 H 310.429 2.73074 1.19308 0
M  V30 3140 H 307.966 1.35263 0.578131 0
M  V30 3141 H 309.924 2.11586 3.59565 0
M  V30 3142 H 308.554 1.12772 3.0246 0
M  V30 3143 H 307.606 3.28229 1.92276 0
M  V30 3144 H 308.918 4.18884 2.70809 0
M  V30 3145 H 308.072 3.49488 4.95927 0
M  V30 3146 H 306.811 2.48601 4.19582 0
M  V30 3147 H 305.816 4.52552 3.12213 0
M  V30 3148 H 307.041 5.54705 3.91764 0
M  V30 3149 H 304.987 3.81097 5.33948 0
M  V30 3150 H 304.904 5.53202 5.1527 0
M  V30 3151 H 306.172 4.83376 6.11529 0
M  V30 3152 N 310.401 -0.613514 1.45168 0
M  V30 3153 C 311.648 -1.37268 1.48875 0
M  V30 3154 C 311.976 -1.94077 0.128161 0
M  V30 3155 O 311.231 -1.75178 -0.872416 0
M  V30 3156 C 311.53 -2.54347 2.51083 0
M  V30 3157 C 311.196 -2.1572 3.95949 0
M  V30 3158 C 309.858 -2.04899 4.35396 0
M  V30 3159 C 312.21 -1.85485 4.87078 0
M  V30 3160 C 309.538 -1.62057 5.63875 0
M  V30 3161 C 311.89 -1.4413 6.15962 0
M  V30 3162 C 310.554 -1.31863 6.54346 0
M  V30 3163 H 309.824 -0.502299 0.544773 0
M  V30 3164 H 312.471 -0.694021 1.78481 0
M  V30 3165 H 310.776 -3.27524 2.15024 0
M  V30 3166 H 312.473 -3.12577 2.51191 0
M  V30 3167 H 309.063 -2.25066 3.64751 0
M  V30 3168 H 313.247 -1.92745 4.57343 0
M  V30 3169 H 308.503 -1.51177 5.92415 0
M  V30 3170 H 312.677 -1.19778 6.86022 0
M  V30 3171 H 310.304 -0.984392 7.538 0
M  V30 3172 N 311.879 -1.3236 -0.855495 0
M  V30 3173 C 312.826 -1.21225 -1.964 0
M  V30 3174 C 313.796 -0.0946204 -1.6583 0
M  V30 3175 O 314.981 -0.27002 -1.8888 0
M  V30 3176 C 312.121 -0.940419 -3.32039 0
M  V30 3177 C 311.234 -2.14276 -3.75113 0
M  V30 3178 C 310.369 -1.80648 -4.9954 0
M  V30 3179 C 309.408 -2.97208 -5.35102 0
M  V30 3180 N 308.545 -2.63678 -6.50706 0
M  V30 3181 H 313.385 -2.16042 -2.05255 0
M  V30 3182 H 310.922 -1.07451 -1.00463 0
M  V30 3183 H 312.88 -0.763311 -4.10158 0
M  V30 3184 H 311.51 -0.0290413 -3.22787 0
M  V30 3185 H 310.562 -2.43017 -2.92655 0
M  V30 3186 H 311.874 -3.01468 -3.97389 0
M  V30 3187 H 311.028 -1.59484 -5.85363 0
M  V30 3188 H 309.767 -0.906678 -4.79198 0
M  V30 3189 H 308.772 -3.19004 -4.47791 0
M  V30 3190 H 309.997 -3.87918 -5.57401 0
M  V30 3191 H 307.943 -1.76238 -6.31883 0
M  V30 3192 H 307.86 -3.444 -6.72997 0
M  V30 3193 H 309.128 -2.45942 -7.39684 0
M  V30 3194 N 313.357 1.07166 -1.15556 0
M  V30 3195 C 314.32 2.12589 -0.856644 0
M  V30 3196 C 315.32 1.6015 0.14444 0
M  V30 3197 O 316.51 1.7399 -0.0854163 0
M  V30 3198 C 313.642 3.39753 -0.279405 0
M  V30 3199 H 314.835 2.40539 -1.79112 0
M  V30 3200 H 312.388 1.23086 -0.963298 0
M  V30 3201 H 313.123 3.17447 0.663174 0
M  V30 3202 H 312.908 3.79117 -1.00063 0
M  V30 3203 H 314.398 4.17507 -0.0879113 0
M  V30 3204 N 314.835 0.952656 1.25548 0
M  V30 3205 C 315.785 0.442033 2.23674 0
M  V30 3206 C 316.769 -0.467632 1.53955 0
M  V30 3207 O 317.961 -0.301006 1.74422 0
M  V30 3208 C 315.09 -0.280816 3.4215 0
M  V30 3209 C 314.176 0.646803 4.19139 0
M  V30 3210 N 314.567 1.77759 4.73535 0
M  V30 3211 C 312.865 0.454617 4.43677 0
M  V30 3212 C 313.566 2.35658 5.31827 0
M  V30 3213 N 312.542 1.64333 5.18166 0
M  V30 3214 H 316.344 1.30505 2.63336 0
M  V30 3215 H 313.858 0.809904 1.40763 0
M  V30 3216 H 315.855 -0.663747 4.11582 0
M  V30 3217 H 314.515 -1.14046 3.04012 0
M  V30 3218 H 315.526 2.15949 4.7073 0
M  V30 3219 H 312.203 -0.362312 4.15925 0
M  V30 3220 H 313.593 3.30998 5.84713 0
M  V30 3221 N 316.313 -1.40141 0.720998 0
M  V30 3222 C 317.26 -2.30688 0.071919 0
M  V30 3223 C 318.23 -1.48476 -0.744584 0
M  V30 3224 O 319.415 -1.77201 -0.707423 0
M  V30 3225 C 316.555 -3.34724 -0.839855 0
M  V30 3226 C 315.668 -4.31998 -0.0122438 0
M  V30 3227 C 314.803 -5.23102 -0.923995 0
M  V30 3228 C 313.842 -6.12033 -0.0907969 0
M  V30 3229 N 312.979 -6.95537 -0.957718 0
M  V30 3230 H 317.819 -2.85628 0.849755 0
M  V30 3231 H 315.356 -1.40653 0.430726 0
M  V30 3232 H 317.314 -3.93618 -1.38279 0
M  V30 3233 H 315.944 -2.81274 -1.58381 0
M  V30 3234 H 314.996 -3.74841 0.64794 0
M  V30 3235 H 316.308 -4.94772 0.632595 0
M  V30 3236 H 315.462 -5.86953 -1.53527 0
M  V30 3237 H 314.201 -4.60615 -1.60264 0
M  V30 3238 H 313.206 -5.47207 0.533377 0
M  V30 3239 H 314.431 -6.76581 0.584428 0
M  V30 3240 H 312.377 -6.35633 -1.62192 0
M  V30 3241 H 312.294 -7.55099 -0.36904 0
M  V30 3242 H 313.562 -7.63832 -1.555 0
M  V30 3243 N 317.792 -0.46758 -1.50504 0
M  V30 3244 C 319.208 -0.121533 -1.59137 0
M  V30 3245 C 319.408 1.3717 -1.47603 0
M  V30 3246 O 318.464 2.14464 -1.33272 0
M  V30 3247 C 319.777 -0.6686 -2.93173 0
M  V30 3248 C 321.325 -0.631716 -3.06559 0
M  V30 3249 C 321.8 -1.15627 -4.43164 0
M  V30 3250 N 323.291 -1.11553 -4.49567 0
M  V30 3251 C 324.026 -1.49195 -5.5365 0
M  V30 3252 N 323.522 -1.94269 -6.65005 0
M  V30 3253 N 325.315 -1.4082 -5.44175 0
M  V30 3254 H 317.466 -1.4388 -1.56245 0
M  V30 3255 H 319.729 -0.594784 -0.738198 0
M  V30 3256 H 319.435 -1.71453 -3.07078 0
M  V30 3257 H 319.309 -0.11021 -3.77039 0
M  V30 3258 H 321.696 0.405297 -2.92304 0
M  V30 3259 H 321.777 -1.22687 -2.24458 0
M  V30 3260 H 321.421 -2.1919 -4.58168 0
M  V30 3261 H 321.351 -0.537365 -5.23851 0
M  V30 3262 H 323.842 -0.784895 -3.69659 0
M  V30 3263 H 324.155 -2.21148 -7.40482 0
M  V30 3264 H 322.5 -1.98219 -6.66134 0
M  V30 3265 H 325.691 -1.0545 -4.56068 0
M  V30 3266 H 325.864 -1.70481 -6.25172 0
M  V30 3267 N 319.27 1.56325 -0.20005 0
M  V30 3268 C 320.51 1.99619 0.439519 0
M  V30 3269 C 320.874 1.08423 1.58456 0
M  V30 3270 O 322.075 1.40973 2.28867 0
M  V30 3271 C 320.346 3.46314 0.883258 0
M  V30 3272 S 321.905 4.11634 1.51997 0
M  V30 3273 H 318.723 0.697007 0.140363 0
M  V30 3274 H 321.325 1.93118 -0.304282 0
M  V30 3275 H 320.029 4.10381 0.0398967 0
M  V30 3276 H 319.56 3.56643 1.6604 0
M  V30 3277 H 321.575 4.09049 2.8088 0
M  V30 3278 N 320.748 -0.0735177 1.57428 0
M  V30 3279 C 321.711 -1.07192 2.02589 0
M  V30 3280 C 322.711 -1.31695 0.922661 0
M  V30 3281 O 323.901 -1.27445 1.18758 0
M  V30 3282 C 321.033 -2.41599 2.40506 0
M  V30 3283 H 322.226 -0.682727 2.92025 0
M  V30 3284 H 319.779 -0.319193 1.53006 0
M  V30 3285 H 320.514 -2.85354 1.5409 0
M  V30 3286 H 320.299 -2.25156 3.21009 0
M  V30 3287 H 321.789 -3.13367 2.76027 0
M  V30 3288 N 322.226 -1.5378 -0.344866 0
M  V30 3289 C 323.472 -1.71216 -1.08687 0
M  V30 3290 C 323.805 -0.473281 -1.88345 0
M  V30 3291 O 323.08 0.52968 -1.87149 0
M  V30 3292 C 323.363 -2.97486 -2.02914 0
M  V30 3293 C 323.216 -4.31579 -1.26727 0
M  V30 3294 C 324.535 -3.19422 -3.0275 0
M  V30 3295 H 321.654 -0.62301 -0.393735 0
M  V30 3296 H 324.296 -1.8645 -0.365563 0
M  V30 3297 H 322.446 -2.84629 -2.64421 0
M  V30 3298 H 324.118 -4.56284 -0.67845 0
M  V30 3299 H 322.361 -4.30049 -0.569273 0
M  V30 3300 H 323.032 -5.16106 -1.95803 0
M  V30 3301 H 325.508 -3.316 -2.51357 0
M  V30 3302 H 324.384 -4.09169 -3.65885 0
M  V30 3303 H 324.645 -2.35656 -3.74057 0
M  V30 3304 N 323.704 0.605807 -1.45491 0
M  V30 3305 C 325.12 0.926751 -1.29936 0
M  V30 3306 C 325.32 1.99896 -0.253706 0
M  V30 3307 O 324.376 2.50038 0.351737 0
M  V30 3308 C 325.689 1.36599 -2.67883 0
M  V30 3309 C 327.237 1.4801 -2.75793 0
M  V30 3310 C 327.712 1.95309 -4.14268 0
M  V30 3311 N 329.203 2.0254 -4.16571 0
M  V30 3312 C 329.938 2.40363 -5.20589 0
M  V30 3313 N 329.434 2.77143 -6.34952 0
M  V30 3314 N 331.227 2.40718 -5.07948 0
M  V30 3315 H 323.378 -0.102862 -2.12151 0
M  V30 3316 H 325.641 0.016639 -0.947854 0
M  V30 3317 H 325.347 0.652306 -3.45598 0
M  V30 3318 H 325.221 2.33215 -2.96463 0
M  V30 3319 H 327.608 2.1847 -1.98381 0
M  V30 3320 H 327.689 0.497041 -2.50925 0
M  V30 3321 H 327.333 1.25436 -4.92167 0
M  V30 3322 H 327.263 2.94532 -4.3653 0
M  V30 3323 H 329.754 1.76699 -3.34045 0
M  V30 3324 H 330.067 3.0489 -7.10114 0
M  V30 3325 H 328.412 2.74834 -6.3835 0
M  V30 3326 H 331.603 2.11392 -4.1765 0
M  V30 3327 H 331.776 2.69869 -5.89131 0
M  V30 3328 N 325.182 1.32811 0.848464 0
M  V30 3329 C 326.145 1.22194 1.9391 0
M  V30 3330 C 327.145 0.143404 1.60159 0
M  V30 3331 O 328.335 0.394253 1.6968 0
M  V30 3332 C 325.467 0.88067 3.29328 0
M  V30 3333 H 326.66 2.19127 2.04752 0
M  V30 3334 H 324.213 1.16731 1.0394 0
M  V30 3335 H 324.948 -0.0865776 3.24184 0
M  V30 3336 H 324.733 1.66052 3.55203 0
M  V30 3337 H 326.223 0.830871 4.09251 0
M  V30 3338 N 326.66 -1.06551 1.16123 0
M  V30 3339 C 327.888 -1.83005 0.965237 0
M  V30 3340 C 328.303 -1.82423 -0.486542 0
M  V30 3341 O 327.66 -1.24152 -1.33763 0
M  V30 3342 C 327.711 -3.29733 1.48183 0
M  V30 3343 O 327.432 -3.30416 2.87674 0
M  V30 3344 C 328.933 -4.22926 1.32848 0
M  V30 3345 H 326.153 -0.577118 0.342309 0
M  V30 3346 H 328.697 -1.3445 1.54089 0
M  V30 3347 H 326.852 -3.75609 0.948517 0
M  V30 3348 H 327.266 -4.22149 3.11272 0
M  V30 3349 H 328.74 -5.23916 1.73827 0
M  V30 3350 H 329.217 -4.38346 0.273692 0
M  V30 3351 H 329.823 -3.82894 1.85127 0
M  V30 3352 N 328.138 -0.959301 -1.25041 0
M  V30 3353 C 329.086 -0.474437 -2.2771 0
M  V30 3354 C 330.08 0.457697 -1.631 0
M  V30 3355 O 331.286 0.333912 -1.76876 0
M  V30 3356 H 327.661 -0.134936 -0.739795 0
M  V30 3357 H 329.632 -1.35251 -2.65988 0
M  V30 3358 C 328.381 0.227884 -3.46952 0
M  V30 3359 H 327.704 -0.480248 -3.96905 0
M  V30 3360 H 329.144 0.531091 -4.20661 0
M  V30 3361 C 327.603 1.452 -3.04004 0
M  V30 3362 O 328.133 2.54949 -3.10426 0
M  V30 3363 N 326.339 1.31502 -2.59144 0
M  V30 3364 H 325.886 0.422065 -2.54119 0
M  V30 3365 H 325.844 2.13521 -2.30773 0
M  V30 3366 N 329.616 1.39756 -0.72842 0
M  V30 3367 C 330.564 2.32485 -0.0731849 0
M  V30 3368 C 331.558 1.52717 0.733063 0
M  V30 3369 O 332.764 1.68428 0.634988 0
M  V30 3370 H 329.139 0.751984 -0.00486469 0
M  V30 3371 H 331.11 2.85382 -0.871761 0
M  V30 3372 C 329.859 3.37773 0.824908 0
M  V30 3373 H 329.182 3.99227 0.213915 0
M  V30 3374 H 330.622 4.05121 1.25111 0
M  V30 3375 C 329.081 2.74287 1.95622 0
M  V30 3376 O 329.611 2.61618 3.04826 0
M  V30 3377 N 327.817 2.32475 1.74367 0
M  V30 3378 H 327.364 2.4298 0.855494 0
M  V30 3379 H 327.322 1.90337 2.50238 0
M  V30 3380 N 331.094 0.475555 1.50254 0
M  V30 3381 C 332.334 -0.0765802 2.04256 0
M  V30 3382 C 332.698 -1.36587 1.34937 0
M  V30 3383 O 333.899 -2.00066 1.79519 0
M  V30 3384 C 332.17 -0.251668 3.56513 0
M  V30 3385 S 333.729 -0.761716 4.32138 0
M  V30 3386 H 330.547 -0.0138456 0.710865 0
M  V30 3387 H 333.149 0.643714 1.84598 0
M  V30 3388 H 331.853 0.692404 4.04517 0
M  V30 3389 H 331.384 -0.997946 3.80532 0
M  V30 3390 H 333.399 -2.03451 4.52573 0
M  V30 3391 N 332.573 -1.56217 0.208337 0
M  V30 3392 C 333.52 -2.19699 -0.707192 0
M  V30 3393 C 334.49 -1.14836 -1.20008 0
M  V30 3394 O 335.675 -1.4314 -1.26157 0
M  V30 3395 C 332.815 -2.87061 -1.91546 0
M  V30 3396 C 331.928 -4.06483 -1.46271 0
M  V30 3397 C 331.063 -4.61665 -2.62752 0
M  V30 3398 C 330.102 -5.73417 -2.14147 0
M  V30 3399 N 329.239 -6.22948 -3.23853 0
M  V30 3400 H 334.079 -2.97575 -0.159111 0
M  V30 3401 H 331.616 -1.46948 -0.0667874 0
M  V30 3402 H 333.574 -3.24294 -2.62468 0
M  V30 3403 H 332.204 -2.11725 -2.43664 0
M  V30 3404 H 331.256 -3.74825 -0.648886 0
M  V30 3405 H 332.568 -4.87271 -1.06622 0
M  V30 3406 H 331.722 -5.01272 -3.41776 0
M  V30 3407 H 330.461 -3.80013 -3.05682 0
M  V30 3408 H 329.466 -5.33326 -1.33581 0
M  V30 3409 H 330.691 -6.56897 -1.72232 0
M  V30 3410 H 328.637 -5.44213 -3.6629 0
M  V30 3411 H 328.554 -6.98823 -2.88414 0
M  V30 3412 H 329.822 -6.6721 -4.03052 0
M  V30 3413 N 334.051 0.0651679 -1.57465 0
M  V30 3414 C 335.297 0.758912 -1.88712 0
M  V30 3415 C 335.652 1.7485 -0.802819 0
M  V30 3416 O 334.945 1.90632 0.192359 0
M  V30 3417 C 335.139 1.50081 -3.24362 0
M  V30 3418 C 334.968 0.584579 -4.45884 0
M  V30 3419 C 333.738 0.219039 -5.04825 0
M  V30 3420 C 335.936 -0.121559 -5.14156 0
M  V30 3421 N 333.918 -0.702222 -6.09871 0
M  V30 3422 C 335.289 -0.899767 -6.13436 0
M  V30 3423 C 337.344 -0.192331 -4.97528 0
M  V30 3424 C 336.047 -1.74218 -6.97883 0
M  V30 3425 C 338.073 -1.02174 -5.82507 0
M  V30 3426 C 337.435 -1.78798 -6.8133 0
M  V30 3427 H 333.534 0.25293 -0.739967 0
M  V30 3428 H 336.118 0.0201744 -1.9469 0
M  V30 3429 H 334.289 2.21023 -3.1938 0
M  V30 3430 H 336.021 2.14409 -3.43236 0
M  V30 3431 H 332.776 0.57336 -4.70117 0
M  V30 3432 H 333.2 -1.15629 -6.67052 0
M  V30 3433 H 337.842 0.385741 -4.21037 0
M  V30 3434 H 335.56 -2.3312 -7.73745 0
M  V30 3435 H 339.146 -1.07957 -5.71696 0
M  V30 3436 H 338.026 -2.41942 -7.45945 0
M  V30 3437 N 335.529 1.53961 0.336706 0
M  V30 3438 C 336.757 1.75483 1.09605 0
M  V30 3439 C 337.172 0.4972 1.82136 0
M  V30 3440 O 336.529 -0.53149 1.74589 0
M  V30 3441 C 336.58 2.93943 2.10428 0
M  V30 3442 O 336.301 4.14842 1.40846 0
M  V30 3443 C 337.802 3.27571 2.98684 0
M  V30 3444 H 335.022 0.586166 0.326574 0
M  V30 3445 H 337.566 2.00808 0.38683 0
M  V30 3446 H 335.721 2.70929 2.76905 0
M  V30 3447 H 336.135 4.81383 2.08255 0
M  V30 3448 H 337.609 4.13791 3.6535 0
M  V30 3449 H 338.086 2.44168 3.65074 0
M  V30 3450 H 338.692 3.52615 2.37787 0
M  V30 3451 N 337.007 -0.598083 1.45811 0
M  V30 3452 C 338.235 -1.38322 1.53866 0
M  V30 3453 C 338.65 -1.87992 0.174479 0
M  V30 3454 O 338.007 -1.62756 -0.825627 0
M  V30 3455 C 338.058 -2.58125 2.53089 0
M  V30 3456 O 337.779 -2.10516 3.84206 0
M  V30 3457 C 339.28 -3.50869 2.70935 0
M  V30 3458 H 336.5 -0.423093 0.520801 0
M  V30 3459 H 339.044 -0.728527 1.91083 0
M  V30 3460 H 337.199 -3.19615 2.18917 0
M  V30 3461 H 337.613 -2.88425 4.38077 0
M  V30 3462 H 339.087 -4.31451 3.44317 0
M  V30 3463 H 339.564 -4.01822 1.77301 0
M  V30 3464 H 340.17 -2.95225 3.06141 0
M  V30 3465 N 338.485 -1.33259 -0.841409 0
M  V30 3466 C 339.415 -1.25926 -1.96634 0
M  V30 3467 C 340.396 -0.140349 -1.6952 0
M  V30 3468 O 341.581 -0.329707 -1.91381 0
M  V30 3469 C 338.711 -0.99512 -3.32738 0
M  V30 3470 C 337.665 -2.0767 -3.74242 0
M  V30 3471 C 336.991 -1.66474 -5.08125 0
M  V30 3472 C 338.291 -3.49318 -3.88297 0
M  V30 3473 H 339.985 -2.20046 -2.03027 0
M  V30 3474 H 337.531 -1.05931 -0.975425 0
M  V30 3475 H 339.484 -0.930323 -4.11002 0
M  V30 3476 H 338.208 -0.0183004 -3.26595 0
M  V30 3477 H 336.867 -2.13187 -2.98239 0
M  V30 3478 H 336.515 -0.675012 -4.9845 0
M  V30 3479 H 336.215 -2.3885 -5.36865 0
M  V30 3480 H 337.739 -1.61455 -5.88867 0
M  V30 3481 H 339.153 -3.46316 -4.56879 0
M  V30 3482 H 337.55 -4.20158 -4.28471 0
M  V30 3483 H 338.62 -3.8801 -2.9082 0
M  V30 3484 N 339.963 1.05934 -1.16686 0
M  V30 3485 C 340.926 2.11669 -0.879144 0
M  V30 3486 C 341.926 1.60294 0.127445 0
M  V30 3487 O 343.116 1.7389 -0.103865 0
M  V30 3488 C 340.248 3.39438 -0.315425 0
M  V30 3489 H 341.441 2.38626 -1.81653 0
M  V30 3490 H 338.994 1.22058 -0.976299 0
M  V30 3491 H 339.729 3.18132 0.629468 0
M  V30 3492 H 339.514 3.78034 -1.04079 0
M  V30 3493 H 341.004 4.17391 -0.132189 0
M  V30 3494 N 341.441 0.965919 1.2453 0
M  V30 3495 C 342.666 0.643971 1.97149 0
M  V30 3496 C 343.091 -0.779487 1.71189 0
M  V30 3497 O 342.449 -1.5288 0.974553 0
M  V30 3498 C 342.497 0.922557 3.48599 0
M  V30 3499 O 341.601 0.00707672 4.12399 0
M  V30 3500 H 340.942 0.243647 0.617683 0
M  V30 3501 H 343.472 1.29558 1.58353 0
M  V30 3502 H 343.482 0.853373 3.98976 0
M  V30 3503 H 342.157 1.95996 3.66822 0
M  V30 3504 H 340.734 0.12943 3.72675 0
M  V30 3505 N 342.919 -1.39368 0.735821 0
M  V30 3506 C 344.168 -1.99733 0.281004 0
M  V30 3507 C 344.481 -1.59055 -1.13846 0
M  V30 3508 O 345.687 -2.12262 -1.69284 0
M  V30 3509 C 344.143 -3.57057 0.451462 0
M  V30 3510 C 343.751 -4.06697 1.87886 0
M  V30 3511 C 345.495 -4.2446 0.0584616 0
M  V30 3512 C 343.402 -5.56598 1.99883 0
M  V30 3513 H 342.332 -0.747163 0.101311 0
M  V30 3514 H 344.983 -1.59357 0.909819 0
M  V30 3515 H 343.365 -3.95234 -0.246263 0
M  V30 3516 H 344.539 -3.79853 2.60861 0
M  V30 3517 H 342.854 -3.5196 2.22515 0
M  V30 3518 H 345.451 -5.34549 0.127099 0
M  V30 3519 H 345.794 -4.04444 -0.986433 0
M  V30 3520 H 346.327 -3.9146 0.707374 0
M  V30 3521 H 343.066 -5.81494 3.02564 0
M  V30 3522 H 342.586 -5.85242 1.31346 0
M  V30 3523 H 344.265 -6.22022 1.78039 0
M  V30 3524 N 344.397 -0.483516 -1.5 0
M  V30 3525 C 345.645 0.067027 -2.01989 0
M  V30 3526 C 345.966 1.3909 -1.36671 0
M  V30 3527 O 345.236 1.88978 -0.516152 0
M  V30 3528 H 343.816 0.0277606 -0.746484 0
M  V30 3529 H 346.478 -0.636773 -1.84204 0
M  V30 3530 H 345.574 0.209484 -3.11396 0
M  V30 3531 N 345.875 1.56104 -0.216619 0
M  V30 3532 C 346.822 2.2007 0.695531 0
M  V30 3533 C 347.792 1.15471 1.19397 0
M  V30 3534 O 348.977 1.43807 1.25396 0
M  V30 3535 C 346.117 2.88073 1.90021 0
M  V30 3536 C 345.23 4.07253 1.44113 0
M  V30 3537 C 344.365 4.63052 2.603 0
M  V30 3538 C 343.404 5.74545 2.11103 0
M  V30 3539 N 342.541 6.24656 3.20545 0
M  V30 3540 H 347.381 2.97655 0.143327 0
M  V30 3541 H 344.918 1.46982 0.0589934 0
M  V30 3542 H 346.876 3.25681 2.60745 0
M  V30 3543 H 345.506 2.13015 2.42538 0
M  V30 3544 H 344.558 3.75164 0.628999 0
M  V30 3545 H 345.87 4.8783 1.04036 0
M  V30 3546 H 345.024 5.03078 3.39113 0
M  V30 3547 H 343.763 3.81628 3.03663 0
M  V30 3548 H 342.768 5.34027 1.3075 0
M  V30 3549 H 343.993 6.57801 1.68746 0
M  V30 3550 H 341.939 5.46148 3.63399 0
M  V30 3551 H 341.856 7.00343 2.84704 0
M  V30 3552 H 343.124 6.69338 3.99508 0
M  V30 3553 N 347.353 -0.0568162 1.57498 0
M  V30 3554 C 348.63 -0.786954 1.79071 0
M  V30 3555 C 349.01 -1.95028 0.80792 0
M  V30 3556 O 348.358 -2.27968 -0.155858 0
M  V30 3557 C 348.568 -1.24594 3.26002 0
M  V30 3558 C 349.916 -1.67323 3.90241 0
M  V30 3559 O 350.94 -1.34124 3.29984 0
M  V30 3560 O 349.799 -2.28842 4.9628 0
M  V30 3561 H 346.893 -0.378262 0.735423 0
M  V30 3562 H 349.439 -0.035734 1.69662 0
M  V30 3563 H 348.211 -0.41423 3.89101 0
M  V30 3564 H 347.834 -2.05803 3.40192 0
M  V30 3565 N 348.832 -1.54138 -0.328536 0
M  V30 3566 C 350.081 -1.71318 -1.06456 0
M  V30 3567 C 350.394 -0.491109 -1.89334 0
M  V30 3568 O 351.6 -0.54416 -2.65991 0
M  V30 3569 C 350.056 -3.03 -1.94214 0
M  V30 3570 C 349.664 -4.32595 -1.16471 0
M  V30 3571 C 351.408 -3.29544 -2.67583 0
M  V30 3572 C 349.315 -5.55341 -2.03347 0
M  V30 3573 H 348.245 -0.638429 -0.401155 0
M  V30 3574 H 350.896 -1.80633 -0.323106 0
M  V30 3575 H 349.278 -2.87579 -2.72239 0
M  V30 3576 H 350.452 -4.58766 -0.432525 0
M  V30 3577 H 348.767 -4.12777 -0.548063 0
M  V30 3578 H 351.364 -4.18444 -3.3288 0
M  V30 3579 H 351.707 -2.47206 -3.34955 0
M  V30 3580 H 352.24 -3.45809 -1.96623 0
M  V30 3581 H 348.979 -6.40268 -1.40491 0
M  V30 3582 H 348.499 -5.33397 -2.74313 0
M  V30 3583 H 350.178 -5.91557 -2.62049 0
M  V30 3584 N 350.31 0.590341 -1.46126 0
M  V30 3585 C 351.559 1.34499 -1.50309 0
M  V30 3586 C 351.872 1.94977 -0.156021 0
M  V30 3587 O 353.078 2.71395 -0.0756037 0
M  V30 3588 C 351.534 2.43723 -2.64815 0
M  V30 3589 C 351.142 1.89582 -4.0591 0
M  V30 3590 C 352.886 3.20579 -2.78262 0
M  V30 3591 C 350.793 2.9639 -5.11769 0
M  V30 3592 H 349.723 0.505593 -0.559368 0
M  V30 3593 H 352.374 0.630848 -1.72315 0
M  V30 3594 H 350.756 3.17902 -2.36124 0
M  V30 3595 H 351.93 1.21997 -4.44357 0
M  V30 3596 H 350.245 1.25418 -3.97063 0
M  V30 3597 H 352.842 4.00276 -3.54519 0
M  V30 3598 H 353.185 3.72684 -1.85505 0
M  V30 3599 H 353.718 2.53505 -3.06562 0
M  V30 3600 H 350.457 2.49181 -6.06291 0
M  V30 3601 H 349.977 3.62487 -4.77873 0
M  V30 3602 H 351.656 3.60474 -5.37278 0
M  V30 3603 N 351.788 1.33704 0.83433 0
M  V30 3604 C 352.698 1.26382 1.97648 0
M  V30 3605 C 353.714 0.173548 1.73132 0
M  V30 3606 O 354.89 0.397962 1.97429 0
M  V30 3607 C 351.955 1.00769 3.31733 0
M  V30 3608 C 351.016 2.1884 3.69334 0
M  V30 3609 C 350.249 1.9444 4.9702 0
M  V30 3610 O 350.472 0.896961 5.63303 0
M  V30 3611 O 349.406 2.81093 5.32231 0
M  V30 3612 H 353.232 2.22444 2.06767 0
M  V30 3613 H 350.817 1.13795 0.968037 0
M  V30 3614 H 352.699 0.882186 4.12062 0
M  V30 3615 H 351.374 0.0773783 3.23608 0
M  V30 3616 H 350.281 2.36946 2.89495 0
M  V30 3617 H 351.614 3.10221 3.82131 0
M  V30 3618 N 353.266 -1.05314 1.17247 0
M  V30 3619 C 354.543 -1.75184 0.87005 0
M  V30 3620 C 354.923 -2.01481 -0.629965 0
M  V30 3621 O 354.271 -1.64988 -1.58086 0
M  V30 3622 C 354.481 -3.04594 1.70363 0
M  V30 3623 C 355.829 -3.78567 1.92281 0
M  V30 3624 O 356.853 -3.14461 1.67311 0
M  V30 3625 O 355.712 -4.93755 2.3424 0
M  V30 3626 H 352.806 -0.761729 0.322021 0
M  V30 3627 H 355.352 -1.11493 1.27935 0
M  V30 3628 H 354.124 -2.81201 2.72106 0
M  V30 3629 H 353.747 -3.76022 1.29202 0
M  V30 3630 N 354.744 -0.972509 -1.24016 0
M  V30 3631 C 355.654 -0.5143 -2.28893 0
M  V30 3632 C 356.67 0.427078 -1.68677 0
M  V30 3633 O 357.846 0.298939 -1.99169 0
M  V30 3634 C 354.911 0.183598 -3.46214 0
M  V30 3635 C 353.972 -0.798202 -4.21814 0
M  V30 3636 C 353.205 -0.133514 -5.33533 0
M  V30 3637 O 353.428 1.07714 -5.60137 0
M  V30 3638 O 352.362 -0.828103 -5.96176 0
M  V30 3639 H 356.188 -1.38629 -2.70214 0
M  V30 3640 H 353.773 -0.739769 -1.29799 0
M  V30 3641 H 355.655 0.575433 -4.17453 0
M  V30 3642 H 354.33 1.03048 -3.0686 0
M  V30 3643 H 353.237 -1.24059 -3.52931 0
M  V30 3644 H 354.57 -1.61364 -4.64997 0
M  V30 3645 N 356.222 1.38976 -0.743202 0
M  V30 3646 C 357.499 1.94351 -0.220705 0
M  V30 3647 C 357.879 1.67935 1.2791 0
M  V30 3648 O 357.227 1.01211 2.04862 0
M  V30 3649 C 357.437 3.44426 -0.563171 0
M  V30 3650 C 358.785 4.2144 -0.517046 0
M  V30 3651 O 359.809 3.52661 -0.500846 0
M  V30 3652 O 358.668 5.44032 -0.518806 0
M  V30 3653 H 355.762 0.825879 -0.043047 0
M  V30 3654 H 358.308 1.48429 -0.822618 0
M  V30 3655 H 357.08 3.5712 -1.59941 0
M  V30 3656 H 356.703 3.97543 0.0672883 0
M  V30 3657 N 357.7 0.491464 1.49741 0
M  V30 3658 C 358.948 -0.0563141 2.02022 0
M  V30 3659 C 359.269 -1.38363 1.37407 0
M  V30 3660 O 358.539 -1.88702 0.526166 0
M  V30 3661 H 357.119 -0.0238014 0.746621 0
M  V30 3662 H 359.781 0.646533 1.83864 0
M  V30 3663 H 358.877 -0.192967 3.11503 0
M  V30 3664 N 359.178 -1.55987 0.224894 0
M  V30 3665 C 360.424 -1.98684 -0.406502 0
M  V30 3666 C 360.757 -1.11248 -1.59177 0
M  V30 3667 O 360.032 -0.170909 -1.93748 0
M  V30 3668 C 360.315 -3.50218 -0.837808 0
M  V30 3669 C 360.168 -4.48426 0.351332 0
M  V30 3670 C 361.487 -4.06243 -1.69278 0
M  V30 3671 H 358.606 -0.722337 -0.146283 0
M  V30 3672 H 361.248 -1.87255 0.321799 0
M  V30 3673 H 359.398 -3.60089 -1.45837 0
M  V30 3674 H 361.07 -4.50562 0.989526 0
M  V30 3675 H 359.313 -4.22159 0.998207 0
M  V30 3676 H 359.984 -5.52 0.00655905 0
M  V30 3677 H 362.46 -3.99337 -1.16914 0
M  V30 3678 H 361.336 -5.12581 -1.96346 0
M  V30 3679 H 361.597 -3.53332 -2.65723 0
M  V30 3680 N 360.656 0.0484629 -1.57525 0
M  V30 3681 C 361.619 1.03956 -2.04269 0
M  V30 3682 C 362.619 1.30211 -0.943496 0
M  V30 3683 O 363.809 1.25539 -1.20771 0
M  V30 3684 C 360.941 2.37742 -2.44319 0
M  V30 3685 H 362.134 0.636182 -2.93075 0
M  V30 3686 H 359.687 0.294811 -1.53494 0
M  V30 3687 H 360.422 2.82866 -1.5861 0
M  V30 3688 H 360.207 2.20021 -3.24551 0
M  V30 3689 H 361.697 3.08936 -2.80978 0
M  V30 3690 N 362.134 1.5431 0.320358 0
M  V30 3691 C 363.067 1.78769 1.41834 0
M  V30 3692 C 364.045 0.63783 1.49568 0
M  V30 3693 O 365.229 0.875628 1.66928 0
M  V30 3694 C 362.356 1.90712 2.79905 0
M  V30 3695 C 361.402 3.13023 2.89687 0
M  V30 3696 S 362.235 4.71554 2.53766 0
M  V30 3697 C 363.391 4.86408 3.93902 0
M  V30 3698 H 363.624 2.71619 1.20874 0
M  V30 3699 H 361.157 1.45474 0.517377 0
M  V30 3700 H 363.115 1.98279 3.59438 0
M  V30 3701 H 361.776 0.988343 2.98145 0
M  V30 3702 H 360.969 3.18124 3.90913 0
M  V30 3703 H 360.571 3.03803 2.18128 0
M  V30 3704 H 362.863 4.69241 4.88691 0
M  V30 3705 H 363.806 5.88508 3.93782 0
M  V30 3706 H 364.214 4.14689 3.83005 0
M  V30 3707 N 363.613 -0.582584 1.46437 0
M  V30 3708 C 365.024 -1.1647 1.45916 0
M  V30 3709 C 365.375 -1.95177 0.200077 0
M  V30 3710 O 364.5 -2.04874 -0.696819 0
M  V30 3711 C 365.095 -2.11885 2.64367 0
M  V30 3712 C 363.654 -2.65421 2.66887 0
M  V30 3713 C 362.801 -1.41294 2.38603 0
M  V30 3714 H 365.752 -0.370514 1.54314 0
M  V30 3715 H 365.773 -2.9535 2.39892 0
M  V30 3716 H 365.285 -1.54573 3.5599 0
M  V30 3717 H 363.386 -3.26602 1.79338 0
M  V30 3718 H 363.499 -3.08147 3.66854 0
M  V30 3719 H 361.863 -1.71109 1.88663 0
M  V30 3720 H 362.646 -0.858125 3.32402 0
M  V30 3721 N 365.091 -1.34144 -0.827227 0
M  V30 3722 C 366.041 -1.21923 -1.92663 0
M  V30 3723 C 367.025 -0.119294 -1.60457 0
M  V30 3724 O 368.217 -0.348539 -1.73534 0
M  V30 3725 C 365.346 -0.972492 -3.29238 0
M  V30 3726 C 364.432 -2.1154 -3.67576 0
M  V30 3727 N 364.823 -3.36627 -3.77512 0
M  V30 3728 C 363.121 -2.02468 -3.97395 0
M  V30 3729 C 363.822 -4.11658 -4.1099 0
M  V30 3730 N 362.798 -3.40207 -4.23981 0
M  V30 3731 H 366.6 -2.16721 -1.98517 0
M  V30 3732 H 364.114 -1.2632 -1.02064 0
M  V30 3733 H 366.111 -0.865847 -4.0781 0
M  V30 3734 H 364.771 -0.0331509 -3.24683 0
M  V30 3735 H 365.782 -3.71234 -3.61118 0
M  V30 3736 H 362.459 -1.16265 -4.00985 0
M  V30 3737 H 363.849 -5.19657 -4.25918 0
M  V30 3738 N 366.569 1.04691 -1.17803 0
M  V30 3739 C 367.501 2.12571 -0.857097 0
M  V30 3740 C 368.514 1.62174 0.142647 0
M  V30 3741 O 369.703 1.78301 -0.0843387 0
M  V30 3742 C 366.803 3.37915 -0.258216 0
M  V30 3743 C 365.976 4.1757 -1.30207 0
M  V30 3744 C 365.035 5.2125 -0.720029 0
M  V30 3745 O 364.061 5.51888 -1.39314 0
M  V30 3746 N 365.263 5.78466 0.485507 0
M  V30 3747 H 368.028 2.40698 -1.78562 0
M  V30 3748 H 365.589 1.20831 -1.07757 0
M  V30 3749 H 367.581 4.04442 0.144584 0
M  V30 3750 H 366.151 3.07281 0.574199 0
M  V30 3751 H 365.371 3.46458 -1.88043 0
M  V30 3752 H 366.659 4.67586 -2.00601 0
M  V30 3753 H 366.057 5.55866 1.05022 0
M  V30 3754 H 364.614 6.4649 0.830307 0
M  V30 3755 N 368.047 0.979072 1.23499 0
M  V30 3756 C 369.293 0.6578 1.9247 0
M  V30 3757 C 369.648 -0.799746 1.74991 0
M  V30 3758 O 368.941 -1.56922 1.09937 0
M  V30 3759 C 369.135 0.981932 3.43646 0
M  V30 3760 C 368.964 2.46944 3.75831 0
M  V30 3761 C 367.734 3.13119 3.96591 0
M  V30 3762 C 369.932 3.45006 3.81412 0
M  V30 3763 N 367.914 4.51489 4.15969 0
M  V30 3764 C 369.285 4.68778 4.05768 0
M  V30 3765 C 371.34 3.39505 3.64198 0
M  V30 3766 C 370.043 5.87723 4.14697 0
M  V30 3767 C 372.069 4.57814 3.7438 0
M  V30 3768 C 371.431 5.80381 3.99171 0
M  V30 3769 H 367.53 0.291746 0.72554 0
M  V30 3770 H 370.114 1.25626 1.48749 0
M  V30 3771 H 368.285 0.412179 3.86207 0
M  V30 3772 H 370.017 0.618068 3.99953 0
M  V30 3773 H 366.772 2.63619 3.93449 0
M  V30 3774 H 367.196 5.23221 4.29615 0
M  V30 3775 H 371.838 2.45773 3.44029 0
M  V30 3776 H 369.556 6.81874 4.33675 0
M  V30 3777 H 373.142 4.55132 3.62417 0
M  V30 3778 H 372.022 6.70398 4.06861 0
M  V30 3779 N 369.525 -1.3858 0.750561 0
M  V30 3780 C 370.455 -2.33102 0.136237 0
M  V30 3781 C 371.436 -1.54713 -0.706965 0
M  V30 3782 O 372.621 -1.83043 -0.648769 0
M  V30 3783 C 369.751 -3.38882 -0.760017 0
M  V30 3784 C 368.705 -4.27995 -0.0197785 0
M  V30 3785 C 368.031 -5.24605 -1.03408 0
M  V30 3786 C 369.331 -5.09554 1.14684 0
M  V30 3787 H 371.025 -2.84726 0.925822 0
M  V30 3788 H 368.571 -1.36898 0.446654 0
M  V30 3789 H 370.524 -4.0397 -1.19943 0
M  V30 3790 H 369.248 -2.85734 -1.58189 0
M  V30 3791 H 367.907 -3.64409 0.400184 0
M  V30 3792 H 367.555 -4.67746 -1.84994 0
M  V30 3793 H 367.255 -5.85081 -0.543464 0
M  V30 3794 H 368.779 -5.9257 -1.47288 0
M  V30 3795 H 370.193 -5.67899 0.785118 0
M  V30 3796 H 368.59 -5.7925 1.56812 0
M  V30 3797 H 369.66 -4.4347 1.96118 0
M  V30 3798 N 371.003 -0.499398 -1.49478 0
M  V30 3799 C 371.913 0.284489 -2.32869 0
M  V30 3800 C 372.929 0.968885 -1.44529 0
M  V30 3801 O 374.105 0.95062 -1.77553 0
M  V30 3802 C 371.17 1.33594 -3.19928 0
M  V30 3803 C 370.231 0.665149 -4.24116 0
M  V30 3804 C 369.464 1.6665 -5.07014 0
M  V30 3805 O 369.687 2.89618 -4.91404 0
M  V30 3806 O 368.621 1.22271 -5.8935 0
M  V30 3807 H 372.447 -0.39802 -3.01081 0
M  V30 3808 H 370.032 -0.260758 -1.47107 0
M  V30 3809 H 371.914 1.94431 -3.73864 0
M  V30 3810 H 370.589 2.0014 -2.54412 0
M  V30 3811 H 369.496 0.0170769 -3.74096 0
M  V30 3812 H 370.829 0.0421555 -4.92182 0
M  V30 3813 N 372.481 1.55866 -0.233164 0
M  V30 3814 C 373.729 1.9821 0.394593 0
M  V30 3815 C 374.05 1.12234 1.59463 0
M  V30 3816 O 373.32 0.201981 1.94856 0
M  V30 3817 H 371.9 0.732034 0.148778 0
M  V30 3818 H 374.562 1.92107 -0.32876 0
M  V30 3819 H 373.658 3.03845 0.713063 0
M  V30 3820 N 373.959 -0.0401083 1.57549 0
M  V30 3821 C 374.907 -1.06264 2.06908 0
M  V30 3822 C 375.901 -1.38132 0.980608 0
M  V30 3823 O 377.107 -1.37167 1.16556 0
M  V30 3824 H 373.482 -0.360166 0.660139 0
M  V30 3825 H 375.453 -0.620445 2.91878 0
M  V30 3826 C 374.202 -2.35846 2.55483 0
M  V30 3827 H 373.525 -2.12183 3.38849 0
M  V30 3828 H 374.965 -3.05765 2.93741 0
M  V30 3829 C 373.424 -3.0404 1.45126 0
M  V30 3830 O 373.954 -3.93424 0.811216 0
M  V30 3831 N 372.16 -2.65184 1.18852 0
M  V30 3832 H 371.707 -1.92584 1.71083 0
M  V30 3833 H 371.665 -3.1113 0.452244 0
M  V30 3834 N 375.437 -1.54477 -0.31217 0
M  V30 3835 C 376.367 -1.87652 -1.38957 0
M  V30 3836 C 377.348 -0.734358 -1.53431 0
M  V30 3837 O 378.533 -0.98911 -1.67123 0
M  V30 3838 C 375.663 -2.11396 -2.75552 0
M  V30 3839 C 374.617 -3.27243 -2.75855 0
M  V30 3840 C 373.943 -3.36382 -4.15633 0
M  V30 3841 C 375.243 -4.64622 -2.38587 0
M  V30 3842 H 376.937 -2.77887 -1.11442 0
M  V30 3843 H 374.483 -1.33707 -0.534655 0
M  V30 3844 H 376.436 -2.33189 -3.51 0
M  V30 3845 H 375.16 -1.17921 -3.04569 0
M  V30 3846 H 373.819 -3.05356 -2.02863 0
M  V30 3847 H 373.467 -2.40445 -4.41809 0
M  V30 3848 H 373.167 -4.14249 -4.1674 0
M  V30 3849 H 374.691 -3.60422 -4.92877 0
M  V30 3850 H 376.105 -4.86219 -3.03749 0
M  V30 3851 H 374.502 -5.45121 -2.50925 0
M  V30 3852 H 375.572 -4.66097 -1.33723 0
M  V30 3853 N 376.915 0.57481 -1.46744 0
M  V30 3854 C 378.326 1.15695 -1.46532 0
M  V30 3855 C 378.677 1.95068 -0.210425 0
M  V30 3856 O 377.802 2.05241 0.685944 0
M  V30 3857 C 378.397 2.1048 -2.65487 0
M  V30 3858 C 376.956 2.64002 -2.68291 0
M  V30 3859 C 376.103 1.40026 -2.39349 0
M  V30 3860 H 379.054 0.362325 -1.54509 0
M  V30 3861 H 379.075 2.94074 -2.41455 0
M  V30 3862 H 378.587 1.52683 -3.56805 0
M  V30 3863 H 376.688 3.25646 -1.81067 0
M  V30 3864 H 376.801 3.06197 -3.68483 0
M  V30 3865 H 375.165 1.70106 -1.89568 0
M  V30 3866 H 375.948 0.840485 -3.32852 0
M  V30 3867 N 378.394 1.34581 0.820102 0
M  V30 3868 C 379.64 1.27285 1.57881 0
M  V30 3869 C 379.973 -0.156137 1.93571 0
M  V30 3870 O 379.248 -1.10222 1.60254 0
M  V30 3871 C 379.531 2.16639 2.87645 0
M  V30 3872 C 379.384 3.68088 2.58517 0
M  V30 3873 C 380.703 2.05378 3.8924 0
M  V30 3874 H 377.822 0.463714 0.572833 0
M  V30 3875 H 380.464 1.64859 0.944539 0
M  V30 3876 H 378.614 1.84725 3.41773 0
M  V30 3877 H 380.286 4.10382 2.10676 0
M  V30 3878 H 378.529 3.89038 1.91917 0
M  V30 3879 H 379.2 4.2598 3.51063 0
M  V30 3880 H 381.676 2.33404 3.44473 0
M  V30 3881 H 380.552 2.7012 4.77835 0
M  V30 3882 H 380.813 1.0316 4.29896 0
M  V30 3883 N 379.872 -1.04064 1.18357 0
M  V30 3884 C 381.097 -1.81454 1.00445 0
M  V30 3885 C 381.522 -1.82823 -0.442423 0
M  V30 3886 O 380.88 -1.24555 -1.31741 0
M  V30 3887 C 380.928 -3.24925 1.56384 0
M  V30 3888 O 380.032 -4.04856 0.785209 0
M  V30 3889 H 379.373 -0.560604 0.355835 0
M  V30 3890 H 381.903 -1.31059 1.57114 0
M  V30 3891 H 381.913 -3.75702 1.59097 0
M  V30 3892 H 380.588 -3.23244 2.61699 0
M  V30 3893 H 379.165 -3.63537 0.830399 0
M  V30 3894 N 381.35 -0.985608 -1.22978 0
M  V30 3895 C 382.313 -0.535071 -2.22867 0
M  V30 3896 C 383.313 0.378123 -1.56291 0
M  V30 3897 O 384.503 0.171092 -1.73358 0
M  V30 3898 C 381.635 0.222702 -3.40172 0
M  V30 3899 H 382.828 -1.41835 -2.6424 0
M  V30 3900 H 380.381 -0.772042 -1.35901 0
M  V30 3901 H 381.116 1.12229 -3.04262 0
M  V30 3902 H 380.901 -0.43288 -3.89703 0
M  V30 3903 H 382.391 0.526335 -4.1427 0
M  V30 3904 N 382.828 1.3818 -0.7579 0
M  V30 3905 C 383.775 2.30416 -0.133057 0
M  V30 3906 C 384.745 1.50398 0.704957 0
M  V30 3907 O 385.93 1.79014 0.660192 0
M  V30 3908 C 383.07 3.36834 0.750813 0
M  V30 3909 C 382.183 4.31879 -0.102297 0
M  V30 3910 C 381.318 5.25368 0.784979 0
M  V30 3911 C 380.357 6.12058 -0.0715046 0
M  V30 3912 N 379.494 6.97832 0.772972 0
M  V30 3913 H 384.334 2.83274 -0.925186 0
M  V30 3914 H 381.871 1.39461 -0.467866 0
M  V30 3915 H 383.829 3.97145 1.27794 0
M  V30 3916 H 382.459 2.85374 1.50868 0
M  V30 3917 H 381.511 3.72991 -0.747095 0
M  V30 3918 H 382.823 4.92921 -0.763552 0
M  V30 3919 H 381.977 5.90818 1.37911 0
M  V30 3920 H 380.716 4.64703 1.47996 0
M  V30 3921 H 379.721 5.456 -0.678272 0
M  V30 3922 H 380.946 6.74793 -0.763606 0
M  V30 3923 H 378.892 6.3971 1.45282 0
M  V30 3924 H 378.809 7.55812 0.168709 0
M  V30 3925 H 380.077 7.67687 1.35194 0
M  V30 3926 N 384.306 0.507319 1.49211 0
M  V30 3927 C 385.546 -0.0332372 2.04373 0
M  V30 3928 C 385.91 -1.33694 1.37804 0
M  V30 3929 O 387.111 -1.96213 1.83722 0
M  V30 3930 C 385.382 -0.17599 3.56966 0
M  V30 3931 S 386.941 -0.669882 4.33657 0
M  V30 3932 H 383.759 0.00123603 0.710999 0
M  V30 3933 H 386.361 0.682725 1.83191 0
M  V30 3934 H 385.065 0.778053 4.02957 0
M  V30 3935 H 384.596 -0.917005 3.82563 0
M  V30 3936 H 386.611 -1.93806 4.56786 0
M  V30 3937 N 385.784 -1.5574 0.241426 0
M  V30 3938 C 386.747 -2.19877 -0.647063 0
M  V30 3939 C 387.747 -1.16642 -1.10686 0
M  V30 3940 O 388.937 -1.41757 -1.01245 0
M  V30 3941 C 386.069 -2.83797 -1.88871 0
M  V30 3942 H 387.262 -2.99772 -0.087574 0
M  V30 3943 H 384.815 -1.56298 -0.00813574 0
M  V30 3944 H 385.55 -2.07824 -2.48957 0
M  V30 3945 H 385.335 -3.59414 -1.56728 0
M  V30 3946 H 386.825 -3.32898 -2.52129 0
M  V30 3947 N 387.262 0.0317525 -1.57568 0
M  V30 3948 C 388.508 0.724175 -1.8943 0
M  V30 3949 C 388.841 1.75149 -0.838836 0
M  V30 3950 O 388.116 1.93948 0.146422 0
M  V30 3951 C 388.399 1.39615 -3.31933 0
M  V30 3952 C 388.252 0.382537 -4.4817 0
M  V30 3953 C 389.571 2.33084 -3.73309 0
M  V30 3954 H 386.69 0.261797 -0.688935 0
M  V30 3955 H 389.332 -0.013017 -1.89996 0
M  V30 3956 H 387.482 2.02451 -3.31581 0
M  V30 3957 H 389.154 -0.243689 -4.60656 0
M  V30 3958 H 387.397 -0.29844 -4.32772 0
M  V30 3959 H 388.068 0.891145 -5.44759 0
M  V30 3960 H 390.544 1.80295 -3.7501 0
M  V30 3961 H 389.42 2.77084 -4.73831 0
M  V30 3962 H 389.681 3.19643 -3.05419 0
M  V30 3963 N 388.74 1.54641 0.303973 0
M  V30 3964 C 389.98 1.75516 1.04755 0
M  V30 3965 C 390.344 0.528211 1.84591 0
M  V30 3966 O 391.545 0.614645 2.61678 0
M  V30 3967 C 389.816 3.00685 1.93193 0
M  V30 3968 S 391.375 3.42549 2.74237 0
M  V30 3969 H 388.193 0.616987 0.353339 0
M  V30 3970 H 390.795 1.92842 0.321292 0
M  V30 3971 H 389.499 3.8811 1.33411 0
M  V30 3972 H 389.03 2.85937 2.70191 0
M  V30 3973 H 391.045 2.99386 3.95705 0
M  V30 3974 N 390.218 -0.567019 1.47046 0
M  V30 3975 C 391.495 -1.3276 1.43646 0
M  V30 3976 C 391.875 -2.1071 0.128186 0
M  V30 3977 O 391.223 -2.10441 -0.890326 0
M  V30 3978 C 391.433 -2.2404 2.67595 0
M  V30 3979 C 392.781 -2.85372 3.14401 0
M  V30 3980 O 393.805 -2.34346 2.68254 0
M  V30 3981 O 392.664 -3.78091 3.946 0
M  V30 3982 H 389.758 -0.597293 0.571988 0
M  V30 3983 H 392.304 -0.586735 1.59234 0
M  V30 3984 H 391.076 -1.65975 3.54356 0
M  V30 3985 H 390.699 -3.05439 2.54544 0
M  V30 3986 N 391.696 -1.35014 -0.812953 0
M  V30 3987 C 392.643 -1.27412 -1.92444 0
M  V30 3988 C 393.613 -0.14733 -1.65445 0
M  V30 3989 O 394.798 -0.329974 -1.87925 0
M  V30 3990 C 391.938 -1.04558 -3.28879 0
M  V30 3991 C 391.051 -2.26101 -3.68106 0
M  V30 3992 C 390.186 -1.96449 -4.9354 0
M  V30 3993 C 389.225 -3.14081 -5.25376 0
M  V30 3994 N 388.362 -2.84246 -6.41988 0
M  V30 3995 H 393.202 -2.22463 -1.98278 0
M  V30 3996 H 390.739 -1.10593 -0.969933 0
M  V30 3997 H 392.697 -0.893413 -4.07522 0
M  V30 3998 H 391.327 -0.131719 -3.22531 0
M  V30 3999 H 390.379 -2.52204 -2.84775 0
M  V30 4000 H 391.691 -3.13959 -3.87597 0
M  V30 4001 H 390.845 -1.78026 -5.79993 0
M  V30 4002 H 389.584 -1.05867 -4.76071 0
M  V30 4003 H 388.589 -3.33089 -4.37415 0
M  V30 4004 H 389.814 -4.05455 -5.44778 0
M  V30 4005 H 387.76 -1.96252 -6.25956 0
M  V30 4006 H 387.677 -3.65637 -6.61699 0
M  V30 4007 H 388.945 -2.6935 -7.31485 0
M  V30 4008 N 393.175 1.03435 -1.18907 0
M  V30 4009 C 394.403 1.80381 -1.01342 0
M  V30 4010 C 394.818 1.83649 0.438005 0
M  V30 4011 O 394.175 1.27655 1.30424 0
M  V30 4012 C 394.226 3.25689 -1.56873 0
M  V30 4013 O 393.947 3.22673 -2.96334 0
M  V30 4014 C 395.448 4.19255 -1.44014 0
M  V30 4015 H 392.668 0.56784 -0.35749 0
M  V30 4016 H 395.212 1.30317 -1.576 0
M  V30 4017 H 393.367 3.72962 -1.04777 0
M  V30 4018 H 393.781 4.13748 -3.22355 0
M  V30 4019 H 395.255 5.19123 -1.87657 0
M  V30 4020 H 395.732 4.37467 -0.389815 0
M  V30 4021 H 396.338 3.77851 -1.95214 0
M  V30 4022 N 394.653 0.992116 1.22453 0
M  V30 4023 C 395.893 0.675727 1.92907 0
M  V30 4024 C 396.257 -0.777762 1.75542 0
M  V30 4025 O 397.458 -1.20553 2.40251 0
M  V30 4026 C 395.729 1.0696 3.4102 0
M  V30 4027 S 397.288 0.871456 4.30059 0
M  V30 4028 H 394.106 0.247089 0.666684 0
M  V30 4029 H 396.708 1.27423 1.48269 0
M  V30 4030 H 395.412 2.12383 3.51172 0
M  V30 4031 H 394.943 0.462858 3.90668 0
M  V30 4032 H 396.958 -0.238436 4.95627 0
M  V30 4033 N 396.131 -1.37776 0.765217 0
M  V30 4034 C 397.379 -1.99454 0.325943 0
M  V30 4035 C 397.7 -1.61049 -1.09947 0
M  V30 4036 O 396.97 -0.872821 -1.75381 0
M  V30 4037 H 395.55 -0.737697 0.117525 0
M  V30 4038 H 398.212 -1.68359 0.981895 0
M  V30 4039 H 397.308 -3.09547 0.398353 0
M  V30 4040 N 397.609 -0.515225 -1.4894 0
M  V30 4041 C 398.834 0.022727 -2.07388 0
M  V30 4042 C 399.259 1.2876 -1.37122 0
M  V30 4043 O 398.617 1.76067 -0.432431 0
M  V30 4044 C 398.665 0.244869 -3.59768 0
M  V30 4045 O 397.769 1.31667 -3.90817 0
M  V30 4046 H 397.11 -0.0325506 -0.663202 0
M  V30 4047 H 399.64 -0.718918 -1.91553 0
M  V30 4048 H 399.65 0.47205 -4.0526 0
M  V30 4049 H 398.325 -0.679194 -4.10317 0
M  V30 4050 H 396.902 1.07331 -3.5712 0
M  V30 4051 N 399.087 1.5561 -0.249682 0
M  V30 4052 C 400.333 1.99306 0.374841 0
M  V30 4053 C 400.666 1.13767 1.57387 0
M  V30 4054 O 399.941 0.201711 1.93451 0
M  V30 4055 C 400.224 3.51507 0.781986 0
M  V30 4056 C 400.077 4.4781 -0.422629 0
M  V30 4057 C 401.396 4.08884 1.62793 0
M  V30 4058 H 398.515 0.724572 0.134773 0
M  V30 4059 H 401.157 1.86719 -0.351549 0
M  V30 4060 H 399.307 3.62363 1.4009 0
M  V30 4061 H 400.979 4.48931 -1.06108 0
M  V30 4062 H 399.222 4.20518 -1.06524 0
M  V30 4063 H 399.893 5.51919 -0.0943766 0
M  V30 4064 H 402.369 4.01147 1.10547 0
M  V30 4065 H 401.245 5.1564 1.88166 0
M  V30 4066 H 401.506 3.57515 2.60068 0
M  V30 4067 N 400.565 -0.0233959 1.57583 0
M  V30 4068 C 401.495 -1.02162 2.09965 0
M  V30 4069 C 402.476 -1.3735 1.00344 0
M  V30 4070 O 403.661 -1.46135 1.27899 0
M  V30 4071 C 400.791 -2.32081 2.58371 0
M  V30 4072 C 399.745 -2.1112 3.72307 0
M  V30 4073 C 399.071 -3.46848 4.06941 0
M  V30 4074 C 400.371 -1.49276 5.00514 0
M  V30 4075 H 402.065 -0.585557 2.93618 0
M  V30 4076 H 399.611 -0.280218 1.41247 0
M  V30 4077 H 401.564 -3.02249 2.93639 0
M  V30 4078 H 400.288 -2.77758 1.71808 0
M  V30 4079 H 398.947 -1.43384 3.37397 0
M  V30 4080 H 398.595 -3.90184 3.17436 0
M  V30 4081 H 398.295 -3.33646 4.83688 0
M  V30 4082 H 399.819 -4.18369 4.44747 0
M  V30 4083 H 401.233 -2.09368 5.33702 0
M  V30 4084 H 399.63 -1.46632 5.8191 0
M  V30 4085 H 400.7 -0.459217 4.82721 0
M  V30 4086 N 402.043 -1.548 -0.295768 0
M  V30 4087 C 403.459 -1.4613 -0.641722 0
M  V30 4088 C 403.659 -0.656771 -1.90496 0
M  V30 4089 O 402.715 -0.166547 -2.5195 0
M  V30 4090 C 404.028 -2.90141 -0.789852 0
M  V30 4091 C 405.576 -3.00216 -0.885396 0
M  V30 4092 C 406.051 -4.45434 -1.06548 0
M  V30 4093 N 407.542 -4.49166 -1.13156 0
M  V30 4094 C 408.277 -5.58717 -1.28929 0
M  V30 4095 N 407.773 -6.78182 -1.41567 0
M  V30 4096 N 409.566 -5.46415 -1.31859 0
M  V30 4097 H 401.717 -2.05574 0.534147 0
M  V30 4098 H 403.98 -0.931259 0.177372 0
M  V30 4099 H 403.686 -3.51635 0.0675598 0
M  V30 4100 H 403.56 -3.37859 -1.67724 0
M  V30 4101 H 405.947 -2.38833 -1.73329 0
M  V30 4102 H 406.028 -2.55787 0.0261185 0
M  V30 4103 H 405.672 -5.07413 -0.222335 0
M  V30 4104 H 405.602 -4.87499 -1.9913 0
M  V30 4105 H 408.093 -3.631 -1.04721 0
M  V30 4106 H 408.406 -7.57428 -1.53372 0
M  V30 4107 H 406.751 -6.81037 -1.38613 0
M  V30 4108 H 409.942 -4.5203 -1.21601 0
M  V30 4109 H 410.115 -6.31841 -1.43808 0
M  V30 4110 N 403.521 0.559213 -1.47345 0
M  V30 4111 C 404.451 1.67622 -1.62558 0
M  V30 4112 C 405.432 1.63331 -0.475087 0
M  V30 4113 O 406.617 1.80983 -0.704182 0
M  V30 4114 C 403.747 3.0626 -1.63774 0
M  V30 4115 C 402.701 3.25397 -2.7803 0
M  V30 4116 C 402.027 4.64801 -2.64318 0
M  V30 4117 C 403.327 3.10965 -4.19641 0
M  V30 4118 H 405.021 1.55146 -2.56067 0
M  V30 4119 H 402.567 0.744961 -1.23233 0
M  V30 4120 H 404.52 3.84247 -1.73008 0
M  V30 4121 H 403.244 3.1969 -0.66825 0
M  V30 4122 H 401.903 2.49817 -2.68304 0
M  V30 4123 H 401.551 4.75028 -1.65401 0
M  V30 4124 H 401.251 4.78555 -3.40968 0
M  V30 4125 H 402.775 5.44926 -2.75478 0
M  V30 4126 H 404.189 3.78772 -4.30354 0
M  V30 4127 H 402.586 3.36229 -4.97062 0
M  V30 4128 H 403.656 2.07736 -4.38148 0
M  V30 4129 N 404.999 1.35443 0.805782 0
M  V30 4130 C 405.931 1.24285 1.92577 0
M  V30 4131 C 406.944 0.165962 1.61952 0
M  V30 4132 O 408.133 0.419303 1.73505 0
M  V30 4133 C 405.233 0.891272 3.2697 0
M  V30 4134 C 404.406 2.06669 3.85495 0
M  V30 4135 C 403.465 1.69077 4.98297 0
M  V30 4136 O 402.491 2.4096 5.15681 0
M  V30 4137 N 403.693 0.614869 5.77234 0
M  V30 4138 H 406.458 2.20777 2.02676 0
M  V30 4139 H 404.019 1.28623 0.983243 0
M  V30 4140 H 406.011 0.621256 3.99903 0
M  V30 4141 H 404.581 0.016004 3.12596 0
M  V30 4142 H 403.801 2.50046 3.04747 0
M  V30 4143 H 405.089 2.85237 4.21328 0
M  V30 4144 H 404.487 0.017648 5.65697 0
M  V30 4145 H 403.044 0.404636 6.50543 0
M  V30 4146 N 406.477 -1.02803 1.19454 0
M  V30 4147 C 407.754 -1.73299 0.907013 0
M  V30 4148 C 408.134 -2.02772 -0.587086 0
M  V30 4149 O 407.482 -1.68304 -1.54551 0
M  V30 4150 C 407.692 -3.00912 1.76785 0
M  V30 4151 C 409.04 -3.74403 2.00268 0
M  V30 4152 O 410.064 -3.10841 1.73943 0
M  V30 4153 O 408.923 -4.88675 2.4466 0
M  V30 4154 H 406.017 -0.754727 0.338106 0
M  V30 4155 H 408.563 -1.08754 1.30271 0
M  V30 4156 H 407.335 -2.75366 2.7801 0
M  V30 4157 H 406.958 -3.73197 1.37149 0
M  V30 4158 N 407.956 -0.998596 -1.21925 0
M  V30 4159 C 409.202 -0.688337 -1.91399 0
M  V30 4160 C 409.557 0.771805 -1.76241 0
M  V30 4161 O 408.85 1.55153 -1.1242 0
M  V30 4162 C 409.044 -1.03648 -3.42041 0
M  V30 4163 C 408.873 -2.52892 -3.71855 0
M  V30 4164 C 407.643 -3.19389 -3.91559 0
M  V30 4165 C 409.841 -3.5103 -3.75875 0
M  V30 4166 N 407.823 -4.5805 -4.08734 0
M  V30 4167 C 409.194 -4.75174 -3.98259 0
M  V30 4168 C 411.249 -3.45257 -3.58751 0
M  V30 4169 C 409.952 -5.94247 -4.05294 0
M  V30 4170 C 411.978 -4.63712 -3.67049 0
M  V30 4171 C 411.34 -5.86658 -3.89887 0
M  V30 4172 H 407.439 -0.303251 -0.720807 0
M  V30 4173 H 410.023 -1.27977 -1.46731 0
M  V30 4174 H 408.194 -0.473569 -3.85502 0
M  V30 4175 H 409.926 -0.681619 -3.98919 0
M  V30 4176 H 406.681 -2.69846 -3.89205 0
M  V30 4177 H 407.105 -5.29989 -4.21237 0
M  V30 4178 H 411.747 -2.51215 -3.40075 0
M  V30 4179 H 409.465 -6.88687 -4.22772 0
M  V30 4180 H 413.051 -4.6084 -3.5513 0
M  V30 4181 H 411.931 -6.76786 -3.96144 0
M  V30 4182 N 409.434 1.37368 -0.772513 0
M  V30 4183 C 410.381 2.30262 -0.157488 0
M  V30 4184 C 411.351 1.51137 0.688965 0
M  V30 4185 O 412.536 1.79704 0.641168 0
M  V30 4186 C 409.676 3.37611 0.715045 0
M  V30 4187 C 408.789 4.31746 -0.148098 0
M  V30 4188 C 407.924 5.26171 0.729213 0
M  V30 4189 C 406.963 6.11948 -0.136418 0
M  V30 4190 N 406.1 6.98613 0.698914 0
M  V30 4191 H 410.94 2.82277 -0.955179 0
M  V30 4192 H 408.477 1.38957 -0.482631 0
M  V30 4193 H 410.435 3.98479 1.23575 0
M  V30 4194 H 409.065 2.86959 1.47833 0
M  V30 4195 H 408.117 3.72178 -0.786613 0
M  V30 4196 H 409.429 4.92084 -0.81579 0
M  V30 4197 H 408.583 5.92247 1.31637 0
M  V30 4198 H 407.322 4.66246 1.43059 0
M  V30 4199 H 406.327 5.4485 -0.736102 0
M  V30 4200 H 407.552 6.73945 -0.835134 0
M  V30 4201 H 405.498 6.41215 1.38489 0
M  V30 4202 H 405.415 7.55948 0.0885358 0
M  V30 4203 H 406.683 7.69077 1.27044 0
M  V30 4204 N 410.912 0.523116 1.48665 0
M  V30 4205 C 412.152 -0.0115588 2.04397 0
M  V30 4206 C 412.516 -1.32225 1.39214 0
M  V30 4207 O 413.717 -1.94253 1.85793 0
M  V30 4208 C 411.988 -0.138119 3.57133 0
M  V30 4209 S 413.547 -0.623849 4.34343 0
M  V30 4210 H 410.365 0.00877706 0.710946 0
M  V30 4211 H 412.967 0.702116 1.82457 0
M  V30 4212 H 411.671 0.820748 4.02109 0
M  V30 4213 H 411.202 -0.876377 3.83514 0
M  V30 4214 H 413.217 -1.8895 4.58816 0
M  V30 4215 N 412.39 -1.55475 0.257931 0
M  V30 4216 C 413.32 -2.24815 -0.630912 0
M  V30 4217 C 414.301 -1.23224 -1.17259 0
M  V30 4218 O 415.486 -1.51904 -1.20991 0
M  V30 4219 C 412.616 -2.95609 -1.82298 0
M  V30 4220 C 411.57 -4.03982 -1.41359 0
M  V30 4221 C 410.896 -4.6226 -2.68738 0
M  V30 4222 C 412.196 -5.19109 -0.57648 0
M  V30 4223 H 413.89 -2.99354 -0.0526878 0
M  V30 4224 H 411.436 -1.4398 -0.023901 0
M  V30 4225 H 413.389 -3.42822 -2.45054 0
M  V30 4226 H 412.113 -2.18577 -2.42676 0
M  V30 4227 H 410.772 -3.57555 -0.809324 0
M  V30 4228 H 410.42 -3.81915 -3.27338 0
M  V30 4229 H 410.12 -5.35424 -2.42065 0
M  V30 4230 H 411.644 -5.12212 -3.32372 0
M  V30 4231 H 413.058 -5.62479 -1.10861 0
M  V30 4232 H 411.455 -5.98729 -0.405351 0
M  V30 4233 H 412.525 -4.83174 0.408776 0
M  V30 4234 N 413.868 0.0150385 -1.57593 0
M  V30 4235 C 415.114 0.69849 -1.91031 0
M  V30 4236 C 415.469 1.72208 -0.85804 0
M  V30 4237 O 414.762 1.91147 0.131614 0
M  V30 4238 C 414.956 1.39686 -3.28972 0
M  V30 4239 C 414.785 0.442428 -4.47518 0
M  V30 4240 C 413.555 0.0583223 -5.05266 0
M  V30 4241 C 415.753 -0.285072 -5.13509 0
M  V30 4242 N 413.735 -0.895893 -6.07328 0
M  V30 4243 C 415.106 -1.09447 -6.10263 0
M  V30 4244 C 417.161 -0.350518 -4.96665 0
M  V30 4245 C 415.864 -1.96333 -6.91987 0
M  V30 4246 C 417.89 -1.20655 -5.78962 0
M  V30 4247 C 417.252 -2.00383 -6.75297 0
M  V30 4248 H 413.351 0.22926 -0.747639 0
M  V30 4249 H 415.935 -0.0417748 -1.94655 0
M  V30 4250 H 414.106 2.1075 -3.2625 0
M  V30 4251 H 415.838 2.03381 -3.49883 0
M  V30 4252 H 412.593 0.423506 -4.71703 0
M  V30 4253 H 413.017 -1.36792 -6.63036 0
M  V30 4254 H 417.659 0.251596 -4.22051 0
M  V30 4255 H 415.377 -2.57618 -7.65936 0
M  V30 4256 H 418.963 -1.2609 -5.67972 0
M  V30 4257 H 417.843 -2.65552 -7.3787 0
M  V30 4258 N 415.346 1.54954 0.287554 0
M  V30 4259 C 416.586 1.76617 1.02887 0
M  V30 4260 C 416.95 0.547759 1.84021 0
M  V30 4261 O 418.151 0.642365 2.61012 0
M  V30 4262 C 416.422 3.02717 1.89993 0
M  V30 4263 S 417.981 3.45438 2.70588 0
M  V30 4264 H 414.799 0.6207 0.346775 0
M  V30 4265 H 417.401 1.93172 0.30082 0
M  V30 4266 H 416.105 3.89503 1.29287 0
M  V30 4267 H 415.636 2.88787 2.67144 0
M  V30 4268 H 417.651 3.03566 3.92508 0
M  V30 4269 N 416.824 -0.551391 1.4764 0
M  V30 4270 C 417.771 -1.65796 1.60563 0
M  V30 4271 C 418.741 -1.59932 0.448428 0
M  V30 4272 O 419.926 -1.78679 0.669222 0
M  V30 4273 C 417.066 -3.04108 1.63133 0
M  V30 4274 C 416.179 -3.20365 2.89811 0
M  V30 4275 C 415.314 -4.49109 2.8368 0
M  V30 4276 C 414.353 -4.58819 4.05156 0
M  V30 4277 N 413.49 -5.78926 3.97227 0
M  V30 4278 H 418.33 -1.54088 2.5507 0
M  V30 4279 H 415.867 -0.75052 1.26513 0
M  V30 4280 H 417.825 -3.84207 1.62606 0
M  V30 4281 H 416.455 -3.14637 0.721341 0
M  V30 4282 H 415.507 -2.33659 3.00179 0
M  V30 4283 H 416.819 -3.23402 3.79753 0
M  V30 4284 H 415.973 -5.37475 2.81434 0
M  V30 4285 H 414.712 -4.4856 1.91431 0
M  V30 4286 H 413.717 -3.68864 4.077 0
M  V30 4287 H 414.942 -4.61124 4.98539 0
M  V30 4288 H 412.888 -5.79314 3.07785 0
M  V30 4289 H 412.805 -5.83367 4.80853 0
M  V30 4290 H 414.073 -6.69637 3.99007 0
M  V30 4291 N 418.302 -1.35869 -0.798587 0
M  V30 4292 C 419.53 -1.32722 -1.58722 0
M  V30 4293 C 419.945 0.0935631 -1.88568 0
M  V30 4294 O 419.302 1.04784 -1.49421 0
M  V30 4295 C 419.353 -2.13974 -2.91371 0
M  V30 4296 O 419.074 -3.50514 -2.62815 0
M  V30 4297 C 420.575 -2.18504 -3.85708 0
M  V30 4298 H 417.795 -0.45562 -0.492596 0
M  V30 4299 H 420.339 -1.78837 -0.991843 0
M  V30 4300 H 418.494 -1.71438 -3.47402 0
M  V30 4301 H 418.908 -3.92806 -3.47568 0
M  V30 4302 H 420.382 -2.79732 -4.75872 0
M  V30 4303 H 420.859 -1.18597 -4.22885 0
M  V30 4304 H 421.465 -2.61236 -3.35612 0
M  V30 4305 N 419.78 1.02168 -1.19998 0
M  V30 4306 C 420.713 2.10232 -0.887558 0
M  V30 4307 C 421.691 1.61827 0.158317 0
M  V30 4308 O 422.875 1.88471 0.0330249 0
M  V30 4309 C 420.002 3.37092 -0.32964 0
M  V30 4310 C 419.048 4.0438 -1.3557 0
M  V30 4311 S 419.881 4.48956 -2.91888 0
M  V30 4312 C 421.037 5.79024 -2.37658 0
M  V30 4313 H 421.27 2.36409 -1.80272 0
M  V30 4314 H 418.803 1.15211 -1.0279 0
M  V30 4315 H 420.761 4.10498 -0.0142824 0
M  V30 4316 H 419.422 3.08996 0.563941 0
M  V30 4317 H 418.615 4.95632 -0.9146 0
M  V30 4318 H 418.217 3.37176 -1.61828 0
M  V30 4319 H 420.509 6.53942 -1.77103 0
M  V30 4320 H 421.452 6.27924 -3.27287 0
M  V30 4321 H 421.86 5.35043 -1.79971 0
M  V30 4322 N 421.258 1.00505 1.21394 0
M  V30 4323 C 422.504 0.688793 1.90745 0
M  V30 4324 C 422.837 -0.778486 1.77914 0
M  V30 4325 O 422.112 -1.56433 1.15581 0
M  V30 4326 C 422.395 1.11063 3.42545 0
M  V30 4327 C 422.248 2.63737 3.64367 0
M  V30 4328 C 423.567 0.673059 4.34923 0
M  V30 4329 H 420.686 0.251702 0.692687 0
M  V30 4330 H 423.328 1.25074 1.43026 0
M  V30 4331 H 421.478 0.632508 3.83317 0
M  V30 4332 H 423.15 3.19313 3.32922 0
M  V30 4333 H 421.393 3.05248 3.08231 0
M  V30 4334 H 422.064 2.88305 4.70727 0
M  V30 4335 H 424.54 1.08392 4.01734 0
M  V30 4336 H 423.416 0.996383 5.39781 0
M  V30 4337 H 423.677 -0.425808 4.40045 0
M  V30 4338 N 422.737 -1.36956 0.779787 0
M  V30 4339 C 423.687 -2.27539 0.144892 0
M  V30 4340 C 424.671 -1.46493 -0.665488 0
M  V30 4341 O 425.863 -1.68968 -0.527141 0
M  V30 4342 C 422.992 -3.35512 -0.727082 0
M  V30 4343 C 422.078 -4.24001 0.0915642 0
M  V30 4344 N 422.469 -4.92757 1.14125 0
M  V30 4345 C 420.767 -4.45807 -0.131141 0
M  V30 4346 C 421.468 -5.58138 1.6388 0
M  V30 4347 N 420.444 -5.35241 0.94962 0
M  V30 4348 H 424.246 -2.78176 0.948446 0
M  V30 4349 H 421.76 -1.50169 0.618315 0
M  V30 4350 H 423.757 -3.99324 -1.19776 0
M  V30 4351 H 422.417 -2.86431 -1.52929 0
M  V30 4352 H 423.428 -4.94984 1.52353 0
M  V30 4353 H 420.105 -4.07582 -0.904621 0
M  V30 4354 H 421.495 -6.23071 2.51461 0
M  V30 4355 N 424.215 -0.530993 -1.48385 0
M  V30 4356 C 425.443 -0.00134122 -2.069 0
M  V30 4357 C 425.858 1.2805 -1.3874 0
M  V30 4358 O 425.215 1.76204 -0.475244 0
M  V30 4359 C 425.266 0.225256 -3.60798 0
M  V30 4360 O 424.987 -1.0058 -4.26398 0
M  V30 4361 C 426.488 0.795172 -4.3611 0
M  V30 4362 H 423.708 -0.0339704 -0.67014 0
M  V30 4363 H 426.252 -0.736926 -1.90761 0
M  V30 4364 H 424.407 0.910891 -3.76539 0
M  V30 4365 H 424.821 -0.787165 -5.1856 0
M  V30 4366 H 426.295 0.903143 -5.44562 0
M  V30 4367 H 426.772 1.80031 -4.00606 0
M  V30 4368 H 427.378 0.146069 -4.25049 0
M  V30 4369 N 425.693 1.55336 -0.266172 0
M  V30 4370 C 426.656 2.20878 0.612001 0
M  V30 4371 C 427.656 1.18388 1.08816 0
M  V30 4372 O 428.846 1.4335 0.989774 0
M  V30 4373 C 425.978 2.86765 1.84332 0
M  V30 4374 H 427.171 2.99873 0.0398718 0
M  V30 4375 H 424.724 1.56291 -0.0167309 0
M  V30 4376 H 425.459 2.11759 2.45619 0
M  V30 4377 H 425.244 3.61862 1.5099 0
M  V30 4378 H 426.734 3.36867 2.46801 0
M  V30 4379 N 427.171 -0.0066808 1.57599 0
M  V30 4380 C 428.411 -0.697501 1.92131 0
M  V30 4381 C 428.775 -1.71306 0.867071 0
M  V30 4382 O 429.976 -2.45377 1.09743 0
M  V30 4383 C 428.247 -1.32978 3.3174 0
M  V30 4384 S 429.806 -2.04665 3.88146 0
M  V30 4385 H 426.624 -0.230555 0.672581 0
M  V30 4386 H 429.226 0.0484026 1.9544 0
M  V30 4387 H 427.93 -0.57772 4.06313 0
M  V30 4388 H 427.461 -2.11376 3.31789 0
M  V30 4389 H 429.476 -3.32097 3.68682 0
M  V30 4390 N 428.649 -1.55105 -0.279332 0
M  V30 4391 C 429.596 -1.8755 -1.34513 0
M  V30 4392 C 430.566 -0.726384 -1.49375 0
M  V30 4393 O 431.751 -0.977063 -1.63884 0
M  V30 4394 C 428.891 -2.14738 -2.70151 0
M  V30 4395 C 428.004 -3.42285 -2.63562 0
M  V30 4396 C 427.139 -3.59206 -3.91337 0
M  V30 4397 C 426.178 -4.80467 -3.79233 0
M  V30 4398 N 425.315 -4.94079 -4.98829 0
M  V30 4399 H 430.155 -2.78456 -1.06143 0
M  V30 4400 H 427.692 -1.37867 -0.512936 0
M  V30 4401 H 429.65 -2.28501 -3.49061 0
M  V30 4402 H 428.28 -1.27075 -2.96735 0
M  V30 4403 H 427.332 -3.37029 -1.76397 0
M  V30 4404 H 428.644 -4.31328 -2.50515 0
M  V30 4405 H 427.798 -3.72751 -4.78687 0
M  V30 4406 H 426.537 -2.68337 -4.07243 0
M  V30 4407 H 425.542 -4.66932 -2.90266 0
M  V30 4408 H 426.767 -5.72765 -3.64852 0
M  V30 4409 H 424.713 -4.06139 -5.15158 0
M  V30 4410 H 424.63 -5.77156 -4.8829 0
M  V30 4411 H 425.898 -5.12003 -5.8777 0
M  V30 4412 N 430.127 0.543554 -1.4793 0
M  V30 4413 C 431.404 1.30458 -1.4574 0
M  V30 4414 C 431.784 2.1048 -0.161692 0
M  V30 4415 O 431.132 2.11831 0.856734 0
M  V30 4416 C 431.342 2.19754 -2.71126 0
M  V30 4417 C 432.69 2.80334 -3.18901 0
M  V30 4418 O 433.714 2.30049 -2.71948 0
M  V30 4419 O 432.573 3.71766 -4.00565 0
M  V30 4420 H 429.667 0.588117 -0.581418 0
M  V30 4421 H 432.213 0.561328 -1.60147 0
M  V30 4422 H 430.985 1.60316 -3.56952 0
M  V30 4423 H 430.608 3.01351 -2.59371 0
M  V30 4424 N 431.605 1.3629 0.791371 0
M  V30 4425 C 432.535 1.33137 1.91825 0
M  V30 4426 C 433.516 0.203168 1.68882 0
M  V30 4427 O 434.701 0.400509 1.90025 0
M  V30 4428 C 431.831 1.11793 3.28816 0
M  V30 4429 C 430.785 2.21417 3.66277 0
M  V30 4430 C 430.111 1.85218 5.01596 0
M  V30 4431 C 431.411 3.63489 3.75064 0
M  V30 4432 H 433.105 2.2743 1.9472 0
M  V30 4433 H 430.651 1.09479 0.935437 0
M  V30 4434 H 432.604 1.08222 4.07266 0
M  V30 4435 H 431.328 0.139501 3.26302 0
M  V30 4436 H 429.987 2.2411 2.90121 0
M  V30 4437 H 429.635 0.859544 4.95602 0
M  V30 4438 H 429.335 2.58611 5.27631 0
M  V30 4439 H 430.859 1.832 5.82469 0
M  V30 4440 H 432.273 3.63034 4.43711 0
M  V30 4441 H 430.67 4.35771 4.12582 0
M  V30 4442 H 431.74 3.98536 2.76219 0
M  V30 4443 N 433.083 -1.0153 1.20538 0
M  V30 4444 C 434.313 -1.78487 1.04048 0
M  V30 4445 C 434.721 -1.84631 -0.413292 0
M  V30 4446 O 434.064 -1.29919 -1.29872 0
M  V30 4447 C 434.126 -3.24367 1.55003 0
M  V30 4448 C 433.79 -3.41827 3.0332 0
M  V30 4449 C 434.787 -3.30941 4.00966 0
M  V30 4450 C 432.472 -3.67602 3.42307 0
M  V30 4451 C 434.466 -3.45577 5.35589 0
M  V30 4452 C 432.153 -3.81881 4.77085 0
M  V30 4453 C 433.151 -3.70874 5.73534 0
M  V30 4454 O 432.839 -3.84714 7.05868 0
M  V30 4455 H 432.571 -0.568108 0.366373 0
M  V30 4456 H 435.125 -1.28677 1.60098 0
M  V30 4457 H 433.355 -3.75266 0.933397 0
M  V30 4458 H 435.044 -3.82963 1.34514 0
M  V30 4459 H 435.81 -3.10964 3.72191 0
M  V30 4460 H 431.689 -3.75256 2.67776 0
M  V30 4461 H 435.233 -3.36902 6.10854 0
M  V30 4462 H 431.13 -4.01359 5.0555 0
M  V30 4463 H 431.898 -4.01724 7.13134 0
M  V30 4464 N 434.561 -1.01147 -1.20859 0
M  V30 4465 C 435.511 -0.548247 -2.2131 0
M  V30 4466 C 436.495 0.393646 -1.5601 0
M  V30 4467 O 437.687 0.217445 -1.75659 0
M  V30 4468 C 434.816 0.117252 -3.431 0
M  V30 4469 C 433.902 -0.846043 -4.15575 0
M  V30 4470 N 434.293 -2.00149 -4.64515 0
M  V30 4471 C 432.591 -0.665783 -4.41003 0
M  V30 4472 C 433.292 -2.60764 -5.19978 0
M  V30 4473 N 432.268 -1.88868 -5.09735 0
M  V30 4474 H 436.07 -1.42921 -2.56809 0
M  V30 4475 H 433.584 -0.876142 -1.36739 0
M  V30 4476 H 435.581 0.46662 -4.1428 0
M  V30 4477 H 434.241 0.994115 -3.09107 0
M  V30 4478 H 435.252 -2.38162 -4.5989 0
M  V30 4479 H 431.929 0.163456 -4.1718 0
M  V30 4480 H 433.319 -3.58519 -5.68255 0
M  V30 4481 N 436.039 1.36541 -0.78704 0
M  V30 4482 C 437.45 1.81873 -0.421807 0
M  V30 4483 C 437.801 1.65487 1.05397 0
M  V30 4484 O 436.926 1.17448 1.81755 0
M  V30 4485 C 437.521 3.30192 -0.758841 0
M  V30 4486 C 436.08 3.73743 -0.446468 0
M  V30 4487 C 435.227 2.58844 -0.994728 0
M  V30 4488 H 438.178 1.24796 -0.98039 0
M  V30 4489 H 438.199 3.80468 -0.0490648 0
M  V30 4490 H 437.711 3.42087 -1.83299 0
M  V30 4491 H 435.812 3.6741 0.619739 0
M  V30 4492 H 435.925 4.69272 -0.965415 0
M  V30 4493 H 434.289 2.51245 -0.418087 0
M  V30 4494 H 435.072 2.73525 -2.07458 0
M  V30 4495 N 437.518 0.538854 1.48102 0
M  V30 4496 C 438.767 0.0059532 2.01699 0
M  V30 4497 C 439.08 -1.34476 1.42041 0
M  V30 4498 O 440.286 -1.96653 1.87189 0
M  V30 4499 C 438.742 -0.0397627 3.59878 0
M  V30 4500 C 438.35 1.30659 4.28523 0
M  V30 4501 C 440.094 -0.521024 4.2129 0
M  V30 4502 C 438.001 1.22098 5.78659 0
M  V30 4503 H 436.931 -0.00154456 0.753998 0
M  V30 4504 H 439.582 0.683963 1.70277 0
M  V30 4505 H 437.964 -0.783037 3.88181 0
M  V30 4506 H 439.138 2.06613 4.11883 0
M  V30 4507 H 437.453 1.7243 3.79021 0
M  V30 4508 H 440.05 -0.603184 5.31287 0
M  V30 4509 H 440.393 -1.52885 3.8721 0
M  V30 4510 H 440.926 0.166834 3.9745 0
M  V30 4511 H 437.665 2.20424 6.17328 0
M  V30 4512 H 437.185 0.50295 5.97688 0
M  V30 4513 H 438.864 0.915345 6.40492 0
M  V30 4514 N 438.996 -1.55193 0.274407 0
M  V30 4515 C 440.236 -2.01488 -0.343778 0
M  V30 4516 C 440.6 -1.1586 -1.53103 0
M  V30 4517 O 441.801 -1.51732 -2.2188 0
M  V30 4518 C 440.072 -3.50134 -0.717021 0
M  V30 4519 S 441.631 -4.18417 -1.32184 0
M  V30 4520 H 438.449 -0.70291 -0.106948 0
M  V30 4521 H 441.051 -1.91446 0.396075 0
M  V30 4522 H 439.755 -4.10104 0.155947 0
M  V30 4523 H 439.286 -3.64159 -1.48835 0
M  V30 4524 H 441.301 -4.21984 -2.61044 0
M  V30 4525 N 440.474 -0.00167713 -1.576 0
M  V30 4526 C 441.885 0.54091 -1.78693 0
M  V30 4527 C 442.236 1.7386 -0.909247 0
M  V30 4528 O 441.361 2.16109 -0.112176 0
M  V30 4529 C 441.956 0.98806 -3.24072 0
M  V30 4530 C 440.515 1.47594 -3.46256 0
M  V30 4531 C 439.662 0.42792 -2.73978 0
M  V30 4532 H 442.613 -0.22784 -1.57056 0
M  V30 4533 H 442.634 1.85398 -3.32277 0
M  V30 4534 H 442.146 0.116164 -3.87926 0
M  V30 4535 H 440.247 2.36868 -2.87618 0
M  V30 4536 H 440.36 1.50225 -4.54939 0
M  V30 4537 H 438.724 0.889934 -2.38647 0
M  V30 4538 H 439.507 -0.435038 -3.40532 0
M  V30 4539 N 441.952 1.55251 0.271103 0
M  V30 4540 C 442.882 1.9127 1.33933 0
M  V30 4541 C 443.863 0.77478 1.5143 0
M  V30 4542 O 445.048 1.03307 1.64442 0
M  V30 4543 C 442.178 2.18627 2.69851 0
M  V30 4544 C 441.132 3.34442 2.67081 0
M  V30 4545 C 440.458 3.47284 4.06569 0
M  V30 4546 C 441.758 4.70784 2.26185 0
M  V30 4547 H 443.452 2.80744 1.04035 0
M  V30 4548 H 440.998 1.35077 0.499017 0
M  V30 4549 H 442.951 2.42413 3.44694 0
M  V30 4550 H 441.675 1.25955 3.01335 0
M  V30 4551 H 440.334 3.10627 1.94695 0
M  V30 4552 H 439.982 2.52074 4.35279 0
M  V30 4553 H 439.682 4.25152 4.0561 0
M  V30 4554 H 441.206 3.73363 4.83148 0
M  V30 4555 H 442.62 4.94102 2.90751 0
M  V30 4556 H 441.017 5.51582 2.36384 0
M  V30 4557 H 442.087 4.69478 1.21319 0
M  V30 4558 N 443.43 -0.535701 1.48216 0
M  V30 4559 C 444.678 -1.28928 1.55634 0
M  V30 4560 C 444.999 -1.93645 0.229514 0
M  V30 4561 O 444.269 -1.81038 -0.74846 0
M  V30 4562 H 442.849 -0.47884 0.573342 0
M  V30 4563 H 445.511 -0.623853 1.84646 0
M  V30 4564 H 444.607 -2.07157 2.33436 0
M  V30 4565 N 444.908 -1.36708 -0.784132 0
M  V30 4566 C 445.84 -1.27333 -1.90575 0
M  V30 4567 C 446.853 -0.191706 -1.61667 0
M  V30 4568 O 448.042 -0.446854 -1.72816 0
M  V30 4569 C 445.142 -0.943177 -3.25511 0
M  V30 4570 C 444.315 -2.12776 -3.82158 0
M  V30 4571 C 443.374 -1.76983 -4.95544 0
M  V30 4572 O 442.4 -2.49134 -5.11782 0
M  V30 4573 N 443.602 -0.706624 -5.76183 0
M  V30 4574 H 446.367 -2.23974 -1.99138 0
M  V30 4575 H 443.928 -1.30171 -0.962656 0
M  V30 4576 H 445.92 -0.684799 -3.98864 0
M  V30 4577 H 444.49 -0.0657333 -3.12531 0
M  V30 4578 H 443.71 -2.54863 -3.0073 0
M  V30 4579 H 444.998 -2.91904 -4.16737 0
M  V30 4580 H 444.396 -0.107643 -5.65598 0
M  V30 4581 H 442.953 -0.50808 -6.49817 0
M  V30 4582 N 446.386 1.0089 -1.21074 0
M  V30 4583 C 447.626 1.76142 -1.03699 0
M  V30 4584 C 447.99 1.87292 0.422587 0
M  V30 4585 O 449.191 2.59068 0.716752 0
M  V30 4586 C 447.462 3.13805 -1.7106 0
M  V30 4587 S 449.021 4.04996 -1.68889 0
M  V30 4588 H 445.839 0.606113 -0.371683 0
M  V30 4589 H 448.441 1.20744 -1.53756 0
M  V30 4590 H 447.145 3.0332 -2.76451 0
M  V30 4591 H 446.676 3.74276 -1.21166 0
M  V30 4592 H 448.691 4.90842 -0.727211 0
M  V30 4593 N 447.864 1.01787 1.20321 0
M  V30 4594 C 448.811 0.589197 2.23153 0
M  V30 4595 C 449.781 -0.391367 1.61423 0
M  V30 4596 O 450.966 -0.290518 1.88575 0
M  V30 4597 C 448.106 -0.0650747 3.45039 0
M  V30 4598 C 447.219 0.960207 4.21194 0
M  V30 4599 C 446.354 0.276854 5.30478 0
M  V30 4600 C 445.393 1.2888 5.98378 0
M  V30 4601 N 444.53 0.632031 6.99249 0
M  V30 4602 H 449.37 1.47071 2.59179 0
M  V30 4603 H 446.907 0.736192 1.27352 0
M  V30 4604 H 448.865 -0.461552 4.14639 0
M  V30 4605 H 447.495 -0.910233 3.09701 0
M  V30 4606 H 446.547 1.47484 3.50646 0
M  V30 4607 H 447.859 1.72977 4.67847 0
M  V30 4608 H 447.013 -0.175056 6.06447 0
M  V30 4609 H 445.752 -0.525004 4.84866 0
M  V30 4610 H 444.757 1.75109 5.21169 0
M  V30 4611 H 445.982 2.09196 6.46076 0
M  V30 4612 H 443.928 -0.149935 6.55829 0
M  V30 4613 H 443.845 1.33964 7.44036 0
M  V30 4614 H 445.113 0.203755 7.79234 0
M  V30 4615 N 449.342 -1.36122 0.79427 0
M  V30 4616 C 450.588 -1.99406 0.369452 0
M  V30 4617 C 450.921 -1.62886 -1.05743 0
M  V30 4618 O 450.196 -0.886053 -1.73145 0
M  V30 4619 C 450.479 -3.56046 0.538833 0
M  V30 4620 C 450.332 -4.02404 2.00976 0
M  V30 4621 C 451.651 -4.40079 -0.0431359 0
M  V30 4622 H 448.77 -0.724397 0.135712 0
M  V30 4623 H 451.412 -1.61461 1.00151 0
M  V30 4624 H 449.562 -3.885 0.000771004 0
M  V30 4625 H 451.234 -3.80415 2.60926 0
M  V30 4626 H 449.477 -3.53765 2.51063 0
M  V30 4627 H 450.148 -5.11344 2.07922 0
M  V30 4628 H 452.624 -4.14013 0.416228 0
M  V30 4629 H 451.5 -5.48799 0.105374 0
M  V30 4630 H 451.761 -4.27264 -1.13571 0
M  V30 4631 N 450.82 -0.546701 -1.47814 0
M  V30 4632 C 452.045 -0.021268 -2.07389 0
M  V30 4633 C 452.47 1.25822 -1.39822 0
M  V30 4634 O 451.828 1.75111 -0.46968 0
M  V30 4635 C 451.876 0.168502 -3.60206 0
M  V30 4636 O 450.98 1.23347 -3.93522 0
M  V30 4637 H 450.321 -0.0466108 -0.662362 0
M  V30 4638 H 452.851 -0.759387 -1.89985 0
M  V30 4639 H 452.861 0.385982 -4.0617 0
M  V30 4640 H 451.536 -0.766075 -4.08784 0
M  V30 4641 H 450.113 0.997319 -3.59316 0
M  V30 4642 N 452.299 1.55045 -0.282633 0
M  V30 4643 C 453.548 1.98938 0.332667 0
M  V30 4644 C 453.861 1.17455 1.56409 0
M  V30 4645 O 455.067 1.51527 2.25282 0
M  V30 4646 C 453.523 3.54105 0.643226 0
M  V30 4647 C 453.131 4.44374 -0.568814 0
M  V30 4648 C 454.875 4.06569 1.22074 0
M  V30 4649 C 452.782 5.90943 -0.232426 0
M  V30 4650 H 451.712 0.743043 0.128075 0
M  V30 4651 H 454.363 1.79341 -0.388464 0
M  V30 4652 H 452.745 3.69532 1.42346 0
M  V30 4653 H 453.919 4.40718 -1.34551 0
M  V30 4654 H 452.234 4.02585 -1.06369 0
M  V30 4655 H 454.831 5.13626 1.48635 0
M  V30 4656 H 455.174 3.56057 2.15707 0
M  V30 4657 H 455.707 3.94612 0.502621 0
M  V30 4658 H 452.446 6.45567 -1.13683 0
M  V30 4659 H 451.966 5.9765 0.507357 0
M  V30 4660 H 453.645 6.4677 0.172657 0
M  V30 4661 N 453.777 0.010035 1.57597 0
M  V30 4662 C 455.026 -0.671945 1.90178 0
M  V30 4663 C 455.339 -1.74376 0.886131 0
M  V30 4664 O 456.545 -2.48107 1.10252 0
M  V30 4665 C 455.001 -1.24636 3.3763 0
M  V30 4666 C 454.609 -0.208838 4.47513 0
M  V30 4667 C 456.353 -1.90595 3.79307 0
M  V30 4668 C 454.26 -0.793814 5.86048 0
M  V30 4669 H 453.19 -0.25474 0.709665 0
M  V30 4670 H 455.841 0.0722206 1.83358 0
M  V30 4671 H 454.223 -2.04152 3.3932 0
M  V30 4672 H 455.397 0.562463 4.57354 0
M  V30 4673 H 453.712 0.350889 4.14919 0
M  V30 4674 H 456.309 -2.35284 4.80151 0
M  V30 4675 H 456.652 -2.74074 3.13352 0
M  V30 4676 H 457.185 -1.17798 3.79958 0
M  V30 4677 H 453.924 0.00240855 6.555 0
M  V30 4678 H 453.444 -1.53404 5.79851 0
M  V30 4679 H 455.123 -1.2894 6.34022 0
M  V30 4680 N 455.255 -1.55392 -0.262866 0
M  V30 4681 C 456.666 -1.67079 -0.833158 0
M  V30 4682 C 457.017 -0.604539 -1.86654 0
M  V30 4683 O 456.142 0.252138 -2.14926 0
M  V30 4684 C 456.737 -3.02891 -1.51797 0
M  V30 4685 C 455.296 -3.16571 -2.03617 0
M  V30 4686 C 454.443 -2.62909 -0.881701 0
M  V30 4687 H 457.394 -1.58652 -0.0389986 0
M  V30 4688 H 457.415 -2.96445 -2.38538 0
M  V30 4689 H 456.927 -3.80473 -0.765619 0
M  V30 4690 H 455.028 -2.43782 -2.81782 0
M  V30 4691 H 455.141 -4.23271 -2.24452 0
M  V30 4692 H 453.505 -2.20324 -1.27786 0
M  V30 4693 H 454.288 -3.43003 -0.14269 0
M  V30 4694 N 456.733 0.527833 -1.48498 0
M  V30 4695 C 458.144 1.10975 -1.50138 0
M  V30 4696 C 458.495 1.943 -0.272378 0
M  V30 4697 O 457.62 2.07319 0.620301 0
M  V30 4698 C 458.215 2.01927 -2.72049 0
M  V30 4699 C 456.774 2.55332 -2.76554 0
M  V30 4700 C 455.921 1.32341 -2.43683 0
M  V30 4701 H 458.872 0.312986 -1.55583 0
M  V30 4702 H 458.893 2.86244 -2.50689 0
M  V30 4703 H 458.405 1.41254 -3.61481 0
M  V30 4704 H 456.506 3.19721 -1.91336 0
M  V30 4705 H 456.619 2.94319 -3.78038 0
M  V30 4706 H 454.983 1.63989 -1.94884 0
M  V30 4707 H 455.766 0.734165 -3.35358 0
M  V30 4708 N 458.211 1.37122 0.776871 0
M  V30 4709 C 459.46 1.31373 1.53049 0
M  V30 4710 C 459.773 -0.101016 1.95339 0
M  V30 4711 O 460.979 -0.280953 2.70042 0
M  V30 4712 C 459.435 2.30567 2.76346 0
M  V30 4713 C 459.043 3.77543 2.41175 0
M  V30 4714 C 460.787 2.33818 3.54301 0
M  V30 4715 C 458.694 4.68481 3.60943 0
M  V30 4716 H 457.624 0.488234 0.574581 0
M  V30 4717 H 460.275 1.62554 0.851372 0
M  V30 4718 H 458.657 1.92396 3.46121 0
M  V30 4719 H 459.831 4.24521 1.79216 0
M  V30 4720 H 458.146 3.77187 1.76405 0
M  V30 4721 H 460.743 2.98965 4.4331 0
M  V30 4722 H 461.086 1.3503 3.93793 0
M  V30 4723 H 461.619 2.7067 2.91518 0
M  V30 4724 H 458.358 5.68378 3.26537 0
M  V30 4725 H 457.878 4.2621 4.22025 0
M  V30 4726 H 459.557 4.85366 4.27819 0
M  V30 4727 N 459.689 -1.00246 1.21608 0
M  V30 4728 C 460.652 -2.07233 0.979133 0
M  V30 4729 C 461.652 -1.6072 -0.0508219 0
M  V30 4730 O 462.842 -1.73196 0.186712 0
M  V30 4731 C 459.974 -3.37546 0.477016 0
M  V30 4732 H 461.167 -2.29687 1.92831 0
M  V30 4733 H 458.72 -1.17261 1.03342 0
M  V30 4734 H 459.455 -3.20773 -0.476966 0
M  V30 4735 H 459.24 -3.72638 1.21997 0
M  V30 4736 H 460.73 -4.16285 0.331181 0
M  V30 4737 N 461.167 -1.02423 -1.1978 0
M  V30 4738 C 462.097 -0.62157 -2.25075 0
M  V30 4739 C 463.078 0.367148 -1.6609 0
M  V30 4740 O 464.263 0.250892 -1.92573 0
M  V30 4741 C 461.393 0.0331826 -3.47284 0
M  V30 4742 C 460.347 -0.877323 -4.18912 0
M  V30 4743 C 459.673 -0.0879296 -5.34628 0
M  V30 4744 C 460.973 -2.18892 -4.74219 0
M  V30 4745 H 462.667 -1.50179 -2.59011 0
M  V30 4746 H 460.213 -0.723547 -1.24502 0
M  V30 4747 H 462.166 0.326488 -4.20133 0
M  V30 4748 H 460.89 0.948164 -3.12534 0
M  V30 4749 H 459.549 -1.15475 -3.47938 0
M  V30 4750 H 459.197 0.828941 -4.96123 0
M  V30 4751 H 458.897 -0.694359 -5.83483 0
M  V30 4752 H 460.421 0.198743 -6.10276 0
M  V30 4753 H 461.835 -1.95746 -5.38847 0
M  V30 4754 H 460.232 -2.74686 -5.33542 0
M  V30 4755 H 461.302 -2.84674 -3.92541 0
M  V30 4756 N 462.645 1.35699 -0.801477 0
M  V30 4757 C 463.593 2.3177 -0.196317 0
M  V30 4758 C 464.587 1.56388 0.651081 0
M  V30 4759 O 465.793 1.71557 0.544815 0
M  V30 4760 H 462.168 0.750669 -0.0447189 0
M  V30 4761 H 464.139 2.8036 -1.02181 0
M  V30 4762 C 462.888 3.41671 0.644702 0
M  V30 4763 H 462.211 3.998 0.0019921 0
M  V30 4764 H 463.651 4.11184 1.0346 0
M  V30 4765 C 462.11 2.84271 1.80808 0
M  V30 4766 O 462.64 2.77408 2.9053 0
M  V30 4767 N 460.846 2.41391 1.61799 0
M  V30 4768 H 460.393 2.47173 0.725493 0
M  V30 4769 H 460.351 2.03334 2.39797 0
M  V30 4770 N 464.123 0.554532 1.47522 0
M  V30 4771 C 465.348 0.0322661 2.07375 0
M  V30 4772 C 465.773 -1.25079 1.40488 0
M  V30 4773 O 465.131 -1.74859 0.47896 0
M  V30 4774 C 465.179 -0.149397 3.6029 0
M  V30 4775 O 464.283 -1.21259 3.9417 0
M  V30 4776 H 463.624 0.0501228 0.662106 0
M  V30 4777 H 466.154 0.769452 1.8958 0
M  V30 4778 H 466.164 -0.364437 4.06369 0
M  V30 4779 H 464.839 0.787743 4.08372 0
M  V30 4780 H 463.416 -0.97825 3.5984 0
M  V30 4781 N 465.601 -1.54893 0.290851 0
M  V30 4782 C 466.829 -2.04343 -0.324288 0
M  V30 4783 C 467.244 -1.16859 -1.48289 0
M  V30 4784 O 466.601 -0.192018 -1.81487 0
M  V30 4785 C 466.652 -3.52756 -0.79026 0
M  V30 4786 O 466.373 -4.36913 0.322213 0
M  V30 4787 C 467.874 -4.18161 -1.4716 0
M  V30 4788 H 465.094 -0.667135 -0.0719173 0
M  V30 4789 H 467.638 -1.99981 0.427529 0
M  V30 4790 H 465.793 -3.57511 -1.49213 0
M  V30 4791 H 466.207 -5.24486 -0.0387372 0
M  V30 4792 H 467.681 -5.23562 -1.7489 0
M  V30 4793 H 468.158 -3.67282 -2.40834 0
M  V30 4794 H 468.764 -4.17454 -0.813178 0
M  V30 4795 N 467.08 -0.0183926 -1.57589 0
M  V30 4796 C 468.357 0.700621 -1.82622 0
M  V30 4797 C 468.737 1.90951 -0.90005 0
M  V30 4798 O 468.085 2.28452 0.0469145 0
M  V30 4799 C 468.295 1.08899 -3.31575 0
M  V30 4800 C 469.643 1.48514 -3.9778 0
M  V30 4801 O 470.667 1.18227 -3.36007 0
M  V30 4802 O 469.526 2.04903 -5.06633 0
M  V30 4803 H 466.62 0.342743 -0.752633 0
M  V30 4804 H 469.166 -0.0452548 -1.6964 0
M  V30 4805 H 467.938 0.228113 -3.90635 0
M  V30 4806 H 467.561 1.89338 -3.49624 0
M  V30 4807 N 468.558 1.5553 0.254621 0
M  V30 4808 C 469.783 1.81383 1.00573 0
M  V30 4809 C 470.208 0.594419 1.78461 0
M  V30 4810 O 469.566 -0.456403 1.75461 0
M  V30 4811 C 469.614 3.04892 1.92545 0
M  V30 4812 O 468.718 2.81266 3.01601 0
M  V30 4813 H 468.059 0.598969 0.286587 0
M  V30 4814 H 470.589 2.02703 0.277952 0
M  V30 4815 H 470.599 3.34119 2.34155 0
M  V30 4816 H 469.274 3.93287 1.3527 0
M  V30 4817 H 467.851 2.63185 2.64174 0
M  V30 4818 N 470.036 -0.519951 1.48776 0
M  V30 4819 C 471.313 -1.28123 1.47797 0
M  V30 4820 C 471.693 -2.10196 0.195157 0
M  V30 4821 O 471.041 -2.13167 -0.822925 0
M  V30 4822 C 471.251 -2.15413 2.74587 0
M  V30 4823 C 472.599 -2.75225 3.23321 0
M  V30 4824 O 473.623 -2.25694 2.75574 0
M  V30 4825 O 472.482 -3.65346 4.06429 0
M  V30 4826 H 469.576 -0.578793 0.590701 0
M  V30 4827 H 472.122 -0.535779 1.6102 0
M  V30 4828 H 470.894 -1.54617 3.59457 0
M  V30 4829 H 470.517 -2.97186 2.64132 0
M  V30 4830 N 471.514 -1.37532 -0.769588 0
M  V30 4831 C 472.762 -1.32597 -1.5252 0
M  V30 4832 C 473.083 0.0884294 -1.94799 0
M  V30 4833 O 472.353 1.03289 -1.66458 0
M  V30 4834 H 470.933 -0.487846 -0.565699 0
M  V30 4835 H 473.595 -1.72044 -0.915806 0
M  V30 4836 H 472.691 -1.96643 -2.42359 0
M  V30 4837 N 472.992 0.995999 -1.22138 0
M  V30 4838 C 474.239 1.7351 -1.04406 0
M  V30 4839 C 474.567 1.89884 0.421244 0
M  V30 4840 O 473.822 1.43683 1.32867 0
M  V30 4841 C 474.121 3.14553 -1.6968 0
M  V30 4842 C 473.787 3.18102 -3.19565 0
M  V30 4843 C 472.449 3.18778 -3.60464 0
M  V30 4844 C 474.801 3.14636 -4.15516 0
M  V30 4845 C 472.129 3.13684 -4.95801 0
M  V30 4846 C 474.481 3.11084 -5.50826 0
M  V30 4847 C 473.145 3.10074 -5.91109 0
M  V30 4848 H 472.415 0.634916 -0.38205 0
M  V30 4849 H 475.062 1.1667 -1.51857 0
M  V30 4850 H 473.367 3.74682 -1.14546 0
M  V30 4851 H 475.064 3.70477 -1.53454 0
M  V30 4852 H 471.654 3.18324 -2.86998 0
M  V30 4853 H 475.838 3.13266 -3.84939 0
M  V30 4854 H 471.094 3.11245 -5.26247 0
M  V30 4855 H 475.268 3.07357 -6.24904 0
M  V30 4856 H 472.895 3.05882 -6.95946 0
M  V30 4857 N 474.47 1.03057 1.19235 0
M  V30 4858 C 475.71 0.736757 1.9066 0
M  V30 4859 C 476.074 -0.721521 1.77927 0
M  V30 4860 O 477.275 -1.12849 2.43964 0
M  V30 4861 C 475.546 1.17755 3.37444 0
M  V30 4862 S 477.105 1.00783 4.27069 0
M  V30 4863 H 473.923 0.268174 0.658486 0
M  V30 4864 H 476.525 1.32076 1.4414 0
M  V30 4865 H 475.229 2.23448 3.44237 0
M  V30 4866 H 474.76 0.586912 3.88997 0
M  V30 4867 H 476.775 -0.0806356 4.96134 0
M  V30 4868 N 475.948 -1.35272 0.808662 0
M  V30 4869 C 477.364 -1.51806 0.492653 0
M  V30 4870 C 477.564 -1.7574 -0.985778 0
M  V30 4871 O 476.62 -1.80003 -1.77074 0
M  V30 4872 C 477.933 -2.69202 1.33981 0
M  V30 4873 C 479.481 -2.8308 1.33547 0
M  V30 4874 C 479.956 -4.03502 2.16679 0
M  V30 4875 N 481.447 -4.10684 2.14227 0
M  V30 4876 C 482.182 -5.02984 2.75308 0
M  V30 4877 N 481.678 -6.00603 3.45323 0
M  V30 4878 N 483.471 -4.95746 2.64938 0
M  V30 4879 H 475.622 -1.17993 1.76611 0
M  V30 4880 H 477.885 -0.577476 0.751814 0
M  V30 4881 H 477.591 -2.581 2.38909 0
M  V30 4882 H 477.465 -3.63854 0.994491 0
M  V30 4883 H 479.852 -2.93631 0.294036 0
M  V30 4884 H 479.933 -1.89278 1.72068 0
M  V30 4885 H 479.577 -3.93711 3.20864 0
M  V30 4886 H 479.507 -4.96489 1.75517 0
M  V30 4887 H 481.998 -3.40802 1.63285 0
M  V30 4888 H 482.311 -6.67633 3.89212 0
M  V30 4889 H 480.656 -6.0077 3.49428 0
M  V30 4890 H 483.847 -4.18439 2.09825 0
M  V30 4891 H 484.02 -5.67487 3.12829 0
M  V30 4892 N 477.426 -0.562348 -1.47226 0
M  V30 4893 C 478.389 0.172056 -2.28553 0
M  V30 4894 C 479.389 0.837928 -1.37242 0
M  V30 4895 O 480.579 0.693001 -1.59822 0
M  V30 4896 C 477.711 1.25223 -3.17068 0
M  V30 4897 H 478.904 -0.542401 -2.94954 0
M  V30 4898 H 476.457 -0.319493 -1.53 0
M  V30 4899 H 477.192 1.99892 -2.55369 0
M  V30 4900 H 476.977 0.779515 -3.84273 0
M  V30 4901 H 478.467 1.76791 -3.78332 0
M  V30 4902 N 478.904 1.54736 -0.299062 0
M  V30 4903 C 480.132 2.04512 0.313447 0
M  V30 4904 C 480.547 1.17643 1.47667 0
M  V30 4905 O 479.904 0.20164 1.81383 0
M  V30 4906 C 479.955 3.53171 0.771542 0
M  V30 4907 O 479.676 4.36736 -0.345379 0
M  V30 4908 C 481.177 4.18936 1.4494 0
M  V30 4909 H 478.397 0.667507 0.0683784 0
M  V30 4910 H 480.941 1.99752 -0.438129 0
M  V30 4911 H 479.096 3.58298 1.47314 0
M  V30 4912 H 479.51 5.24499 0.0109219 0
M  V30 4913 H 480.984 5.24482 1.72111 0
M  V30 4914 H 481.461 3.68554 2.38883 0
M  V30 4915 H 482.067 4.17879 0.791028 0
M  V30 4916 N 480.382 0.0267497 1.57577 0
M  V30 4917 C 481.629 -0.652404 1.91703 0
M  V30 4918 C 481.957 -1.72271 0.902936 0
M  V30 4919 O 481.212 -1.955 -0.0884843 0
M  V30 4920 C 481.511 -1.30914 3.3256 0
M  V30 4921 C 481.177 -0.369441 4.49384 0
M  V30 4922 C 479.839 -0.110791 4.81072 0
M  V30 4923 C 482.191 0.275971 5.20469 0
M  V30 4924 C 479.519 0.801116 5.81205 0
M  V30 4925 C 481.871 1.17592 6.21575 0
M  V30 4926 C 480.535 1.44348 6.51705 0
M  V30 4927 H 479.805 -0.238732 0.70149 0
M  V30 4928 H 482.452 0.0880091 1.91298 0
M  V30 4929 H 480.757 -2.12425 3.29216 0
M  V30 4930 H 482.454 -1.84115 3.56234 0
M  V30 4931 H 479.044 -0.581211 4.24641 0
M  V30 4932 H 483.228 0.0892 4.9622 0
M  V30 4933 H 478.484 1.01614 6.02897 0
M  V30 4934 H 482.658 1.68223 6.75777 0
M  V30 4935 H 480.285 2.15176 7.29111 0
M  V30 4936 N 481.861 -1.55662 -0.24637 0
M  V30 4937 C 483.086 -1.81914 -0.996093 0
M  V30 4938 C 483.511 -0.603875 -1.78143 0
M  V30 4939 O 482.869 0.447091 -1.75701 0
M  V30 4940 C 482.917 -3.05908 -1.90925 0
M  V30 4941 O 482.021 -2.82861 -3.00105 0
M  V30 4942 H 481.362 -0.600481 -0.283406 0
M  V30 4943 H 483.892 -2.02848 -0.267199 0
M  V30 4944 H 483.902 -3.35356 -2.3238 0
M  V30 4945 H 482.577 -3.93999 -1.33183 0
M  V30 4946 H 481.154 -2.64583 -2.62775 0
M  V30 4947 N 483.339 0.512053 -1.4905 0
M  V30 4948 C 484.586 1.26686 -1.57978 0
M  V30 4949 C 484.914 1.92733 -0.261553 0
M  V30 4950 O 484.169 1.80772 0.749667 0
M  V30 4951 C 484.468 2.36446 -2.68008 0
M  V30 4952 C 484.134 1.87932 -4.09869 0
M  V30 4953 C 482.796 1.74419 -4.48477 0
M  V30 4954 C 485.148 1.5149 -4.98698 0
M  V30 4955 C 482.476 1.22827 -5.73699 0
M  V30 4956 C 484.828 1.01355 -6.24428 0
M  V30 4957 C 483.492 0.864735 -6.61875 0
M  V30 4958 H 482.762 0.463577 -0.578081 0
M  V30 4959 H 485.409 0.569421 -1.82838 0
M  V30 4960 H 483.714 3.11933 -2.37076 0
M  V30 4961 H 485.411 2.9453 -2.72127 0
M  V30 4962 H 482.001 1.99405 -3.79389 0
M  V30 4963 H 486.185 1.60782 -4.69535 0
M  V30 4964 H 481.441 1.10008 -6.01422 0
M  V30 4965 H 485.615 0.722351 -6.92644 0
M  V30 4966 H 483.242 0.462777 -7.5879 0
M  V30 4967 N 484.817 1.37938 0.762283 0
M  V30 4968 C 486.057 1.35076 1.53407 0
M  V30 4969 C 486.421 -0.061546 1.91901 0
M  V30 4970 O 487.622 -0.214973 2.67939 0
M  V30 4971 C 485.893 2.27206 2.75884 0
M  V30 4972 S 487.452 2.42283 3.65848 0
M  V30 4973 H 484.27 0.479387 0.52508 0
M  V30 4974 H 486.872 1.7378 0.895586 0
M  V30 4975 H 485.576 3.28724 2.457 0
M  V30 4976 H 485.107 1.8962 3.44685 0
M  V30 4977 H 487.122 1.64044 4.68299 0
M  V30 4978 N 486.295 -0.989507 1.22664 0
M  V30 4979 C 487.541 -1.7321 1.05481 0
M  V30 4980 C 487.874 -1.89852 -0.408635 0
M  V30 4981 O 487.149 -1.44416 -1.30285 0
M  V30 4982 C 487.432 -3.1357 1.77047 0
M  V30 4983 C 487.285 -3.04555 3.31008 0
M  V30 4984 C 488.604 -4.12812 1.5256 0
M  V30 4985 H 485.723 -0.628697 0.384589 0
M  V30 4986 H 488.365 -1.15258 1.51049 0
M  V30 4987 H 486.515 -3.63046 1.3831 0
M  V30 4988 H 488.187 -2.62674 3.7921 0
M  V30 4989 H 486.43 -2.41278 3.6051 0
M  V30 4990 H 487.101 -4.03894 3.76263 0
M  V30 4991 H 489.577 -3.72106 1.86215 0
M  V30 4992 H 488.453 -5.09132 2.05124 0
M  V30 4993 H 488.714 -4.39711 0.458936 0
M  V30 4994 N 487.773 -1.03688 -1.18687 0
M  V30 4995 C 488.998 -0.757819 -1.93059 0
M  V30 4996 C 489.423 0.678353 -1.75442 0
M  V30 4997 O 488.781 1.46938 -1.06203 0
M  V30 4998 C 488.829 -1.12423 -3.42627 0
M  V30 4999 O 487.933 -0.247505 -4.11657 0
M  V30 5000 H 487.274 -0.279245 -0.602427 0
M  V30 5001 H 489.804 -1.3857 -1.5053 0
M  V30 5002 H 489.814 -1.08454 -3.93322 0
M  V30 5003 H 488.489 -2.17049 -3.54771 0
M  V30 5004 H 487.066 -0.34649 -3.71287 0
M  V30 5005 N 489.251 1.34841 -0.815825 0
M  V30 5006 C 490.662 1.80937 -0.46029 0
M  V30 5007 C 491.013 1.67685 1.01863 0
M  V30 5008 O 490.138 1.21277 1.79223 0
M  V30 5009 C 490.733 3.28509 -0.828708 0
M  V30 5010 C 489.292 3.72712 -0.525644 0
M  V30 5011 C 488.439 2.56676 -1.04941 0
M  V30 5012 H 491.39 1.22688 -1.00664 0
M  V30 5013 H 491.411 3.80279 -0.129757 0
M  V30 5014 H 490.923 3.38122 -1.90513 0
M  V30 5015 H 489.024 3.68642 0.541666 0
M  V30 5016 H 489.137 4.67119 -1.06474 0
M  V30 5017 H 487.501 2.50302 -0.471286 0
M  V30 5018 H 488.284 2.69063 -2.13214 0
M  V30 5019 N 490.729 0.570148 1.46925 0
M  V30 5020 C 491.659 -0.158274 2.32963 0
M  V30 5021 C 492.64 -0.896093 1.44583 0
M  V30 5022 O 493.825 -0.874022 1.7342 0
M  V30 5023 C 490.955 -1.18055 3.26619 0
M  V30 5024 C 489.909 -0.558379 4.24342 0
M  V30 5025 C 489.235 -1.68623 5.07415 0
M  V30 5026 C 490.535 0.496295 5.19937 0
M  V30 5027 H 492.229 0.560046 2.94115 0
M  V30 5028 H 489.775 0.270775 1.41431 0
M  V30 5029 H 491.728 -1.69841 3.85658 0
M  V30 5030 H 490.452 -1.92899 2.63548 0
M  V30 5031 H 489.111 -0.0617157 3.66548 0
M  V30 5032 H 488.759 -2.42402 4.40738 0
M  V30 5033 H 488.459 -1.27564 5.73586 0
M  V30 5034 H 489.983 -2.20709 5.69315 0
M  V30 5035 H 491.397 0.0640052 5.73264 0
M  V30 5036 H 489.794 0.82649 5.94381 0
M  V30 5037 H 490.864 1.38735 4.6463 0
M  V30 5038 N 492.207 -1.54576 0.307264 0
M  V30 5039 C 493.137 -2.26708 -0.55907 0
M  V30 5040 C 494.118 -1.26893 -1.1328 0
M  V30 5041 O 495.303 -1.55677 -1.16097 0
M  V30 5042 C 492.433 -3.01259 -1.72801 0
M  V30 5043 C 491.387 -4.08275 -1.28435 0
M  V30 5044 C 490.713 -4.70575 -2.53895 0
M  V30 5045 C 492.013 -5.2068 -0.411038 0
M  V30 5046 H 493.707 -2.9937 0.042576 0
M  V30 5047 H 491.253 -1.43983 0.0219173 0
M  V30 5048 H 493.206 -3.50444 -2.34023 0
M  V30 5049 H 491.93 -2.26187 -2.356 0
M  V30 5050 H 490.589 -3.59949 -0.695161 0
M  V30 5051 H 490.237 -3.92136 -3.15021 0
M  V30 5052 H 489.937 -5.42854 -2.24908 0
M  V30 5053 H 491.461 -5.22527 -3.15908 0
M  V30 5054 H 492.875 -5.65721 -0.929097 0
M  V30 5055 H 491.272 -5.99716 -0.214664 0
M  V30 5056 H 492.342 -4.81629 0.562287 0
M  V30 5057 N 493.685 -0.035106 -1.57561 0
M  V30 5058 C 494.931 0.64318 -1.92331 0
M  V30 5059 C 495.264 1.71434 -0.912368 0
M  V30 5060 O 494.539 1.94395 0.0640303 0
M  V30 5061 C 494.822 1.25411 -3.37556 0
M  V30 5062 C 494.675 0.192109 -4.4939 0
M  V30 5063 C 495.994 2.17041 -3.82859 0
M  V30 5064 H 493.113 0.232341 -0.699419 0
M  V30 5065 H 495.755 -0.0935889 -1.89769 0
M  V30 5066 H 493.905 1.88205 -3.39869 0
M  V30 5067 H 495.577 -0.438849 -4.59208 0
M  V30 5068 H 493.82 -0.481725 -4.31117 0
M  V30 5069 H 494.491 0.659292 -5.48049 0
M  V30 5070 H 496.967 1.64228 -3.8232 0
M  V30 5071 H 495.843 2.56738 -4.85157 0
M  V30 5072 H 496.104 3.06401 -3.18702 0
M  V30 5073 N 495.163 1.55791 0.238111 0
M  V30 5074 C 496.41 1.78033 0.964907 0
M  V30 5075 C 496.738 0.600984 1.84982 0
M  V30 5076 O 495.993 -0.41536 1.91241 0
M  V30 5077 C 496.292 3.05869 1.84875 0
M  V30 5078 C 495.958 4.36808 1.11846 0
M  V30 5079 C 494.62 4.72388 0.916662 0
M  V30 5080 C 496.972 5.17717 0.60151 0
M  V30 5081 C 494.3 5.86406 0.185756 0
M  V30 5082 C 496.652 6.32494 -0.115972 0
M  V30 5083 C 495.316 6.66688 -0.329168 0
M  V30 5084 H 494.586 0.651469 0.353085 0
M  V30 5085 H 497.233 1.90061 0.234318 0
M  V30 5086 H 495.538 2.88891 2.64668 0
M  V30 5087 H 497.235 3.20278 2.41294 0
M  V30 5088 H 493.825 4.08862 1.28569 0
M  V30 5089 H 498.009 4.90678 0.744932 0
M  V30 5090 H 493.265 6.11399 0.0101886 0
M  V30 5091 H 497.439 6.94425 -0.524127 0
M  V30 5092 H 495.066 7.54884 -0.897474 0
M  V30 5093 N 496.642 -0.504142 1.49319 0
M  V30 5094 C 497.888 -1.26033 1.58882 0
M  V30 5095 C 498.221 -1.92268 0.273274 0
M  V30 5096 O 497.496 -1.80567 -0.72291 0
M  V30 5097 C 497.779 -2.32976 2.7458 0
M  V30 5098 C 497.632 -1.71263 4.1592 0
M  V30 5099 C 498.951 -3.34561 2.85932 0
M  V30 5100 H 496.07 -0.456863 0.578312 0
M  V30 5101 H 498.712 -0.558965 1.81592 0
M  V30 5102 H 496.862 -2.92796 2.55348 0
M  V30 5103 H 498.534 -1.15294 4.4666 0
M  V30 5104 H 496.777 -1.01686 4.21714 0
M  V30 5105 H 497.448 -2.48816 4.92742 0
M  V30 5106 H 499.924 -2.84727 3.0343 0
M  V30 5107 H 498.8 -4.06754 3.68568 0
M  V30 5108 H 499.061 -3.96695 1.95154 0
M  V30 5109 N 498.12 -1.38341 -0.754957 0
M  V30 5110 C 499.068 -1.35573 -1.89005 0
M  V30 5111 C 500.062 -0.241824 -1.67665 0
M  V30 5112 O 501.268 -0.410785 -1.7525 0
M  V30 5113 H 497.643 -0.422898 -0.621821 0
M  V30 5114 H 499.614 -2.31359 -1.88455 0
M  V30 5115 C 498.363 -1.19631 -3.26471 0
M  V30 5116 H 497.686 -2.04605 -3.43477 0
M  V30 5117 H 499.126 -1.21748 -4.06144 0
M  V30 5118 C 497.585 0.0968705 -3.36761 0
M  V30 5119 O 498.115 1.07439 -3.87066 0
M  V30 5120 N 496.321 0.153242 -2.90196 0
M  V30 5121 H 495.868 -0.642908 -2.49448 0
M  V30 5122 H 495.826 1.01807 -2.9746 0
M  V30 5123 N 499.598 0.982988 -1.23187 0
M  V30 5124 C 500.823 1.76455 -1.08988 0
M  V30 5125 C 501.248 1.84726 0.354691 0
M  V30 5126 O 500.606 1.30699 1.25649 0
M  V30 5127 C 500.654 3.17094 -1.71708 0
M  V30 5128 O 499.758 4.00648 -0.977477 0
M  V30 5129 H 499.099 0.542988 -0.382177 0
M  V30 5130 H 501.629 1.23413 -1.63188 0
M  V30 5131 H 501.639 3.67684 -1.76841 0
M  V30 5132 H 500.314 3.10389 -2.76823 0
M  V30 5133 H 498.891 3.59161 -1.0029 0
M  V30 5134 N 501.076 1.04316 1.18135 0
M  V30 5135 C 502.023 0.636398 2.21853 0
M  V30 5136 C 502.993 -0.357039 1.62217 0
M  V30 5137 O 504.178 -0.250453 1.89149 0
M  V30 5138 C 501.318 0.00812779 3.45099 0
M  V30 5139 C 500.431 1.04933 4.19062 0
M  V30 5140 C 499.566 0.389313 5.29771 0
M  V30 5141 C 498.605 1.41544 5.9551 0
M  V30 5142 N 497.742 0.78021 6.97751 0
M  V30 5143 H 502.582 1.52536 2.56002 0
M  V30 5144 H 500.119 0.76304 1.25762 0
M  V30 5145 H 502.077 -0.373497 4.15525 0
M  V30 5146 H 500.707 -0.844336 3.11562 0
M  V30 5147 H 499.759 1.54888 3.47439 0
M  V30 5148 H 501.071 1.82862 4.64072 0
M  V30 5149 H 500.225 -0.0463805 6.06682 0
M  V30 5150 H 498.964 -0.422038 4.8587 0
M  V30 5151 H 497.969 1.86124 5.17337 0
M  V30 5152 H 499.194 2.22854 6.41493 0
M  V30 5153 H 497.14 -0.0107899 6.55999 0
M  V30 5154 H 497.057 1.49716 7.41027 0
M  V30 5155 H 498.325 0.368996 7.78626 0
M  V30 5156 N 502.554 -1.34406 0.822964 0
M  V30 5157 C 503.779 -2.0304 0.423034 0
M  V30 5158 C 504.204 -1.61568 -0.963196 0
M  V30 5159 O 503.562 -0.800339 -1.62678 0
M  V30 5160 C 503.61 -3.56636 0.53321 0
M  V30 5161 O 502.714 -4.09971 -0.446939 0
M  V30 5162 H 502.055 -0.64075 0.174171 0
M  V30 5163 H 504.585 -1.71653 1.11339 0
M  V30 5164 H 504.595 -4.05945 0.408991 0
M  V30 5165 H 503.27 -3.86168 1.54425 0
M  V30 5166 H 501.847 -3.71835 -0.281601 0
M  V30 5167 N 504.032 -0.577932 -1.46621 0
M  V30 5168 C 505.28 -0.061566 -2.02006 0
M  V30 5169 C 505.601 1.30117 -1.4524 0
M  V30 5170 O 504.871 1.85313 -0.63529 0
M  V30 5171 H 503.451 -0.0197692 -0.746738 0
M  V30 5172 H 506.113 -0.752631 -1.79782 0
M  V30 5173 H 505.209 0.0110238 -3.12098 0
M  V30 5174 N 505.51 1.54411 -0.315457 0
M  V30 5175 C 506.787 1.92562 0.343398 0
M  V30 5176 C 507.167 1.24423 1.70535 0
M  V30 5177 O 506.515 0.385051 2.25232 0
M  V30 5178 C 506.725 3.46168 0.443687 0
M  V30 5179 C 508.073 4.18659 0.707783 0
M  V30 5180 O 509.097 3.52281 0.52693 0
M  V30 5181 O 507.956 5.36198 1.05612 0
M  V30 5182 H 505.05 0.80379 0.194552 0
M  V30 5183 H 507.596 1.65738 -0.364577 0
M  V30 5184 H 506.368 3.8792 -0.513172 0
M  V30 5185 H 505.991 3.79073 1.19956 0
M  V30 5186 N 506.988 0.0434614 1.5754 0
M  V30 5187 C 507.936 -0.951465 2.1225 0
M  V30 5188 C 508.93 -1.3274 1.05245 0
M  V30 5189 O 510.136 -1.30795 1.23663 0
M  V30 5190 H 506.511 -0.324667 0.678303 0
M  V30 5191 H 508.482 -0.464855 2.94757 0
M  V30 5192 C 507.231 -2.21972 2.67626 0
M  V30 5193 H 506.554 -1.93923 3.4962 0
M  V30 5194 H 507.994 -2.89765 3.09536 0
M  V30 5195 C 506.453 -2.95919 1.61038 0
M  V30 5196 O 506.983 -3.8857 1.01862 0
M  V30 5197 N 505.189 -2.58511 1.32741 0
M  V30 5198 H 504.736 -1.83244 1.81051 0
M  V30 5199 H 504.694 -3.08296 0.616531 0
M  V30 5200 N 508.466 -1.55915 -0.229846 0
M  V30 5201 C 509.398 -1.88209 -1.30805 0
M  V30 5202 C 510.411 -0.769672 -1.43457 0
M  V30 5203 O 511.6 -1.04792 -1.44502 0
M  V30 5204 C 508.7 -2.06829 -2.68468 0
M  V30 5205 C 507.873 -3.37798 -2.77869 0
M  V30 5206 C 506.932 -3.45952 -3.96489 0
M  V30 5207 O 505.958 -4.19043 -3.85216 0
M  V30 5208 N 507.16 -2.76488 -5.10426 0
M  V30 5209 H 509.925 -2.81286 -1.03431 0
M  V30 5210 H 507.486 -1.5636 -0.41991 0
M  V30 5211 H 509.478 -2.09608 -3.46189 0
M  V30 5212 H 508.048 -1.20416 -2.88477 0
M  V30 5213 H 507.268 -3.4719 -1.86689 0
M  V30 5214 H 508.556 -4.24091 -2.81113 0
M  V30 5215 H 507.954 -2.16868 -5.2248 0
M  V30 5216 H 506.511 -2.84938 -5.8622 0
M  V30 5217 N 509.944 0.496216 -1.49584 0
M  V30 5218 C 511.192 1.24756 -1.58998 0
M  V30 5219 C 511.513 1.92968 -0.280775 0
M  V30 5220 O 510.783 1.82959 0.700198 0
M  V30 5221 H 509.363 0.463471 -0.585836 0
M  V30 5222 H 512.025 0.574678 -1.86235 0
M  V30 5223 H 511.121 2.00895 -2.38847 0
M  V30 5224 N 511.423 1.38739 0.74761 0
M  V30 5225 C 512.669 1.35475 1.50912 0
M  V30 5226 C 513.002 -0.0533093 1.94127 0
M  V30 5227 O 512.277 -1.01572 1.65871 0
M  V30 5228 C 512.56 2.31582 2.75757 0
M  V30 5229 C 512.413 3.81274 2.38642 0
M  V30 5230 C 513.732 2.25722 3.77806 0
M  V30 5231 H 510.851 0.493427 0.547447 0
M  V30 5232 H 513.493 1.69634 0.855823 0
M  V30 5233 H 511.643 2.02582 3.31501 0
M  V30 5234 H 513.315 4.20972 1.88626 0
M  V30 5235 H 511.558 3.98664 1.71025 0
M  V30 5236 H 512.229 4.4399 3.27989 0
M  V30 5237 H 514.705 2.51336 3.31616 0
M  V30 5238 H 513.581 2.95069 4.62845 0
M  V30 5239 H 513.842 1.25803 4.23823 0
M  V30 5240 N 512.901 -0.976442 1.23707 0
M  V30 5241 C 513.848 -2.06952 1.02174 0
M  V30 5242 C 514.818 -1.65984 -0.0621034 0
M  V30 5243 O 516.003 -1.90584 0.0907906 0
M  V30 5244 C 513.143 -3.39425 0.62327 0
M  V30 5245 C 512.256 -3.9364 1.77966 0
M  V30 5246 C 511.391 -5.14343 1.3276 0
M  V30 5247 C 510.43 -5.60733 2.45449 0
M  V30 5248 N 509.567 -6.72662 2.01172 0
M  V30 5249 H 514.407 -2.24704 1.95734 0
M  V30 5250 H 511.944 -1.10143 0.975034 0
M  V30 5251 H 513.902 -4.15526 0.37332 0
M  V30 5252 H 512.532 -3.21624 -0.275329 0
M  V30 5253 H 511.584 -3.14258 2.14351 0
M  V30 5254 H 512.896 -4.24035 2.62671 0
M  V30 5255 H 512.05 -5.97789 1.03601 0
M  V30 5256 H 510.789 -4.8561 0.450975 0
M  V30 5257 H 509.794 -4.75865 2.75378 0
M  V30 5258 H 511.019 -5.91483 3.33654 0
M  V30 5259 H 508.965 -6.45681 1.15895 0
M  V30 5260 H 508.882 -7.02462 2.79434 0
M  V30 5261 H 510.15 -7.59572 1.75129 0
M  V30 5262 N 514.379 -1.04941 -1.1758 0
M  V30 5263 C 515.626 -0.757989 -1.87779 0
M  V30 5264 C 515.954 0.714827 -1.80888 0
M  V30 5265 O 515.209 1.53824 -1.20982 0
M  V30 5266 C 515.508 -1.18062 -3.37337 0
M  V30 5267 C 515.174 -2.65521 -3.6443 0
M  V30 5268 C 513.836 -3.05804 -3.71534 0
M  V30 5269 C 516.188 -3.60822 -3.76108 0
M  V30 5270 C 513.516 -4.40256 -3.87803 0
M  V30 5271 C 515.868 -4.95005 -3.93895 0
M  V30 5272 C 514.532 -5.34945 -3.99237 0
M  V30 5273 H 513.802 -0.277368 -0.68713 0
M  V30 5274 H 516.449 -1.31603 -1.39115 0
M  V30 5275 H 514.754 -0.541525 -3.8804 0
M  V30 5276 H 516.451 -0.932368 -3.9001 0
M  V30 5277 H 513.041 -2.33324 -3.59524 0
M  V30 5278 H 517.225 -3.30841 -3.69943 0
M  V30 5279 H 512.481 -4.70707 -3.90186 0
M  V30 5280 H 516.655 -5.68746 -4.01872 0
M  V30 5281 H 514.282 -6.39135 -4.11596 0
M  V30 5282 N 515.857 1.33968 -0.830081 0
M  V30 5283 C 516.787 2.31911 -0.271911 0
M  V30 5284 C 517.768 1.58571 0.61556 0
M  V30 5285 O 518.953 1.86514 0.540946 0
M  V30 5286 C 516.083 3.42737 0.561146 0
M  V30 5287 C 515.037 4.27383 -0.229789 0
M  V30 5288 C 514.363 5.29742 0.726463 0
M  V30 5289 C 515.663 5.02 -1.44197 0
M  V30 5290 H 517.357 2.78844 -1.09025 0
M  V30 5291 H 514.903 1.34061 -0.52571 0
M  V30 5292 H 516.856 4.10276 0.961867 0
M  V30 5293 H 515.58 2.94471 1.41261 0
M  V30 5294 H 514.239 3.61456 -0.611964 0
M  V30 5295 H 513.887 4.77736 1.57408 0
M  V30 5296 H 513.587 5.87255 0.20142 0
M  V30 5297 H 515.111 6.00149 1.12489 0
M  V30 5298 H 516.525 5.62355 -1.11488 0
M  V30 5299 H 514.922 5.69122 -1.90317 0
M  V30 5300 H 515.992 4.31281 -2.2164 0
M  V30 5301 N 517.335 0.585699 1.46312 0
M  V30 5302 C 518.751 0.247607 1.57668 0
M  V30 5303 C 518.951 -1.25007 1.58037 0
M  V30 5304 O 518.007 -2.03196 1.49893 0
M  V30 5305 C 519.32 0.899456 2.86933 0
M  V30 5306 C 520.868 0.873326 3.00569 0
M  V30 5307 C 521.343 1.50477 4.32574 0
M  V30 5308 N 522.834 1.46925 4.3928 0
M  V30 5309 C 523.569 1.92719 5.40044 0
M  V30 5310 N 523.065 2.46499 6.47464 0
M  V30 5311 N 524.858 1.83617 5.31264 0
M  V30 5312 H 517.009 1.55841 1.44317 0
M  V30 5313 H 519.272 0.651564 0.688599 0
M  V30 5314 H 518.978 1.95313 2.92482 0
M  V30 5315 H 518.852 0.409476 3.74971 0
M  V30 5316 H 521.239 -0.171736 2.946 0
M  V30 5317 H 521.32 1.40136 2.13999 0
M  V30 5318 H 520.964 2.54905 4.39302 0
M  V30 5319 H 520.894 0.951944 5.17924 0
M  V30 5320 H 523.385 1.07616 3.62253 0
M  V30 5321 H 523.698 2.79291 7.20567 0
M  V30 5322 H 522.043 2.50526 6.48276 0
M  V30 5323 H 525.234 1.41358 4.46246 0
M  V30 5324 H 525.407 2.19622 6.09648 0
M  V30 5325 N 518.813 -1.54241 0.323641 0
M  V30 5326 C 520.229 -1.59574 -0.0290018 0
M  V30 5327 C 520.429 -1.34017 -1.50472 0
M  V30 5328 O 519.485 -1.12464 -2.26071 0
M  V30 5329 C 520.798 -2.98169 0.389295 0
M  V30 5330 C 522.346 -3.11148 0.339958 0
M  V30 5331 C 522.821 -4.5209 0.733418 0
M  V30 5332 N 524.312 -4.5808 0.686827 0
M  V30 5333 C 525.047 -5.65248 0.963464 0
M  V30 5334 N 524.543 -6.80355 1.30724 0
M  V30 5335 N 526.336 -5.55025 0.88902 0
M  V30 5336 H 518.487 -1.6911 1.28512 0
M  V30 5337 H 520.75 -0.790972 0.522558 0
M  V30 5338 H 520.456 -3.21871 1.41746 0
M  V30 5339 H 520.33 -3.76399 -0.245657 0
M  V30 5340 H 522.717 -2.87182 -0.679002 0
M  V30 5341 H 522.798 -2.35023 1.00985 0
M  V30 5342 H 522.442 -4.76788 1.75029 0
M  V30 5343 H 522.372 -5.26584 0.0412189 0
M  V30 5344 H 524.863 -3.75411 0.43298 0
M  V30 5345 H 525.176 -7.58029 1.5037 0
M  V30 5346 H 523.521 -6.81851 1.3455 0
M  V30 5347 H 526.712 -4.63977 0.619939 0
M  V30 5348 H 526.885 -6.38458 1.10797 0
M  V30 5349 N 520.291 -0.0518155 -1.57515 0
M  V30 5350 C 521.538 0.621823 -1.92716 0
M  V30 5351 C 521.866 1.70813 -0.930229 0
M  V30 5352 O 521.121 1.95616 0.0573708 0
M  V30 5353 C 521.42 1.25607 -3.34601 0
M  V30 5354 C 521.086 0.297901 -4.49915 0
M  V30 5355 C 519.748 0.034243 -4.81188 0
M  V30 5356 C 522.1 -0.358738 -5.19964 0
M  V30 5357 C 519.428 -0.893479 -5.79857 0
M  V30 5358 C 521.78 -1.27466 -6.19625 0
M  V30 5359 C 520.444 -1.54698 -6.49326 0
M  V30 5360 H 519.714 0.227541 -0.705199 0
M  V30 5361 H 522.361 -0.118432 -1.91133 0
M  V30 5362 H 520.666 2.07161 -3.32553 0
M  V30 5363 H 522.363 1.78424 -3.59118 0
M  V30 5364 H 518.953 0.513581 -4.25512 0
M  V30 5365 H 523.137 -0.168133 -4.96015 0
M  V30 5366 H 518.393 -1.11193 -6.01204 0
M  V30 5367 H 522.567 -1.78953 -6.73015 0
M  V30 5368 H 520.194 -2.26748 -7.25596 0
M  V30 5369 N 521.769 1.56035 0.221574 0
M  V30 5370 C 522.716 1.92413 1.27459 0
M  V30 5371 C 523.686 0.781323 1.46576 0
M  V30 5372 O 524.871 1.03721 1.60145 0
M  V30 5373 C 522.011 2.24617 2.61995 0
M  V30 5374 C 521.124 3.51831 2.50677 0
M  V30 5375 C 520.259 3.73482 3.77736 0
M  V30 5376 C 519.298 4.94211 3.6114 0
M  V30 5377 N 518.435 5.12252 4.80148 0
M  V30 5378 H 523.275 2.82203 0.957355 0
M  V30 5379 H 520.812 1.39676 0.461415 0
M  V30 5380 H 522.77 2.41298 3.40339 0
M  V30 5381 H 521.4 1.38 2.91815 0
M  V30 5382 H 520.452 3.43343 1.63767 0
M  V30 5383 H 521.764 4.40328 2.34334 0
M  V30 5384 H 520.918 3.9026 4.64523 0
M  V30 5385 H 519.657 2.83266 3.97003 0
M  V30 5386 H 518.662 4.77384 2.72736 0
M  V30 5387 H 519.887 5.85912 3.43343 0
M  V30 5388 H 517.833 4.24978 4.99729 0
M  V30 5389 H 517.75 5.94881 4.66532 0
M  V30 5390 H 519.018 5.33465 5.68362 0
M  V30 5391 N 523.247 -0.488276 1.49845 0
M  V30 5392 C 524.179 -1.60539 1.63584 0
M  V30 5393 C 525.192 -1.5434 0.517972 0
M  V30 5394 O 526.381 -1.60041 0.790516 0
M  V30 5395 C 523.481 -2.99374 1.58835 0
M  V30 5396 C 522.654 -3.30624 2.86368 0
M  V30 5397 C 521.713 -4.4893 2.74496 0
M  V30 5398 O 520.739 -4.50085 3.48443 0
M  V30 5399 N 521.941 -5.49591 1.86894 0
M  V30 5400 H 524.706 -1.49176 2.59936 0
M  V30 5401 H 522.267 -0.67639 1.47094 0
M  V30 5402 H 524.259 -3.76459 1.48529 0
M  V30 5403 H 522.829 -3.04595 0.702892 0
M  V30 5404 H 522.049 -2.42314 3.1093 0
M  V30 5405 H 523.337 -3.48305 3.70892 0
M  V30 5406 H 522.735 -5.51467 1.26097 0
M  V30 5407 H 521.292 -6.25728 1.82503 0
M  V30 5408 N 524.725 -1.39134 -0.740242 0
M  V30 5409 C 525.655 -1.40165 -1.86751 0
M  V30 5410 C 526.636 -0.265708 -1.68012 0
M  V30 5411 O 527.821 -0.47076 -1.88408 0
M  V30 5412 C 524.951 -1.2392 -3.2444 0
M  V30 5413 C 523.905 -2.34858 -3.57807 0
M  V30 5414 C 523.231 -2.03707 -4.94376 0
M  V30 5415 C 524.531 -3.77159 -3.61315 0
M  V30 5416 H 526.225 -2.345 -1.86145 0
M  V30 5417 H 523.771 -1.12875 -0.89416 0
M  V30 5418 H 525.724 -1.23263 -4.02969 0
M  V30 5419 H 524.448 -0.26051 -3.25559 0
M  V30 5420 H 523.107 -2.34723 -2.81604 0
M  V30 5421 H 522.755 -1.04289 -4.9207 0
M  V30 5422 H 522.455 -2.78016 -5.17669 0
M  V30 5423 H 523.979 -2.04691 -5.75268 0
M  V30 5424 H 525.393 -3.79252 -4.29931 0
M  V30 5425 H 523.79 -4.50784 -3.96124 0
M  V30 5426 H 524.86 -4.08513 -2.61238 0
M  V30 5427 N 526.204 0.969867 -1.24223 0
M  V30 5428 C 527.134 2.08191 -1.05729 0
M  V30 5429 C 528.115 1.70075 0.0290765 0
M  V30 5430 O 529.3 1.93712 -0.137583 0
M  V30 5431 C 526.43 3.40991 -0.658995 0
M  V30 5432 C 525.384 3.93054 -1.69389 0
M  V30 5433 C 524.71 5.22171 -1.15072 0
M  V30 5434 C 526.01 4.21137 -3.08935 0
M  V30 5435 H 527.704 2.23921 -1.98746 0
M  V30 5436 H 525.25 1.07602 -0.956967 0
M  V30 5437 H 527.203 4.18221 -0.51662 0
M  V30 5438 H 525.927 3.25155 0.30686 0
M  V30 5439 H 524.586 3.17977 -1.82444 0
M  V30 5440 H 524.234 5.02694 -0.175539 0
M  V30 5441 H 523.934 5.57973 -1.84229 0
M  V30 5442 H 525.458 6.02013 -1.02042 0
M  V30 5443 H 526.872 4.8908 -2.99121 0
M  V30 5444 H 525.269 4.68163 -3.75425 0
M  V30 5445 H 526.339 3.27996 -3.57137 0
M  V30 5446 N 527.682 1.05563 1.17022 0
M  V30 5447 C 528.63 0.653887 2.2322 0
M  V30 5448 C 529.624 -0.326642 1.66221 0
M  V30 5449 O 530.83 -0.192301 1.7897 0
M  V30 5450 H 527.205 0.193297 0.726733 0
M  V30 5451 H 529.176 1.5596 2.54399 0
M  V30 5452 C 527.925 0.0485434 3.47666 0
M  V30 5453 H 527.248 0.79413 3.91834 0
M  V30 5454 H 528.688 -0.195133 4.23551 0
M  V30 5455 C 527.147 -1.20583 3.14581 0
M  V30 5456 O 527.677 -2.29475 3.29703 0
M  V30 5457 N 525.883 -1.10493 2.68774 0
M  V30 5458 H 525.43 -0.218795 2.56669 0
M  V30 5459 H 525.388 -1.94507 2.47011 0
M  V30 5460 N 529.16 -1.33526 0.837174 0
M  V30 5461 C 530.571 -1.80182 0.489017 0
M  V30 5462 C 530.922 -1.69285 -0.991826 0
M  V30 5463 O 530.047 -1.24113 -1.77271 0
M  V30 5464 C 530.642 -3.27149 0.880866 0
M  V30 5465 C 529.201 -3.71828 0.584872 0
M  V30 5466 C 528.348 -2.54974 1.09011 0
M  V30 5467 H 531.299 -1.21071 1.02603 0
M  V30 5468 H 531.32 -3.80024 0.190239 0
M  V30 5469 H 530.832 -3.35048 1.95869 0
M  V30 5470 H 528.933 -3.69457 -0.48295 0
M  V30 5471 H 529.046 -4.65366 1.13892 0
M  V30 5472 H 527.41 -2.4952 0.511047 0
M  V30 5473 H 528.193 -2.65637 2.17467 0
M  V30 5474 N 530.638 -0.59345 -1.46 0
M  V30 5475 C 531.601 0.123538 -2.28867 0
M  V30 5476 C 532.601 0.808628 -1.38989 0
M  V30 5477 O 533.791 0.658945 -1.61256 0
M  V30 5478 C 530.923 1.1847 -3.19653 0
M  V30 5479 H 532.116 -0.604843 -2.93737 0
M  V30 5480 H 529.669 -0.351875 -1.52288 0
M  V30 5481 H 530.404 1.94431 -2.59552 0
M  V30 5482 H 530.189 0.69783 -3.8584 0
M  V30 5483 H 531.679 1.68726 -3.81997 0
M  V30 5484 N 532.116 1.54067 -0.331816 0
M  V30 5485 C 533.048 2.22139 0.564538 0
M  V30 5486 C 534.061 1.22408 1.07332 0
M  V30 5487 O 535.25 1.4883 0.985481 0
M  V30 5488 C 532.35 2.87876 1.78831 0
M  V30 5489 C 531.523 4.13817 1.41682 0
M  V30 5490 C 530.582 4.63072 2.49901 0
M  V30 5491 O 529.608 5.27562 2.13699 0
M  V30 5492 N 530.81 4.38001 3.80967 0
M  V30 5493 H 533.575 2.99694 -0.0183736 0
M  V30 5494 H 531.136 1.61153 -0.155396 0
M  V30 5495 H 533.128 3.17747 2.50637 0
M  V30 5496 H 531.698 2.13977 2.27887 0
M  V30 5497 H 530.918 3.9062 0.530044 0
M  V30 5498 H 532.206 4.95762 1.14443 0
M  V30 5499 H 531.604 3.864 4.13173 0
M  V30 5500 H 530.161 4.72507 4.48977 0
M  V30 5501 N 533.594 0.0601682 1.57485 0
M  V30 5502 C 534.84 -0.612501 1.93329 0
M  V30 5503 C 535.173 -1.6996 0.939526 0
M  V30 5504 O 534.448 -1.94472 -0.0330957 0
M  V30 5505 C 534.731 -1.20025 3.39508 0
M  V30 5506 C 534.584 -0.12059 4.49638 0
M  V30 5507 C 535.903 -2.10923 3.86264 0
M  V30 5508 H 533.022 -0.221185 0.703027 0
M  V30 5509 H 535.664 0.123768 1.89596 0
M  V30 5510 H 533.814 -1.82774 3.42821 0
M  V30 5511 H 535.486 0.51185 4.58452 0
M  V30 5512 H 533.729 0.550251 4.30296 0
M  V30 5513 H 534.4 -0.572019 5.49028 0
M  V30 5514 H 536.876 -1.58124 3.84884 0
M  V30 5515 H 535.752 -2.48987 4.8918 0
M  V30 5516 H 536.013 -3.01292 3.23536 0
M  V30 5517 N 535.072 -1.5615 -0.213296 0
M  V30 5518 C 536.319 -1.79546 -0.936462 0
M  V30 5519 C 536.647 -0.630337 -1.84003 0
M  V30 5520 O 535.902 0.384883 -1.91878 0
M  V30 5521 C 536.201 -3.08772 -1.79985 0
M  V30 5522 C 535.867 -4.38532 -1.04882 0
M  V30 5523 C 534.529 -4.73787 -0.841393 0
M  V30 5524 C 536.881 -5.18609 -0.51907 0
M  V30 5525 C 534.209 -5.86627 -0.0924403 0
M  V30 5526 C 536.561 -6.32229 0.216581 0
M  V30 5527 C 535.225 -6.6608 0.435191 0
M  V30 5528 H 534.495 -0.657004 -0.342676 0
M  V30 5529 H 537.142 -1.9041 -0.204051 0
M  V30 5530 H 535.447 -2.93065 -2.60038 0
M  V30 5531 H 537.144 -3.24077 -2.36168 0
M  V30 5532 H 533.734 -4.10855 -1.22048 0
M  V30 5533 H 537.918 -4.91801 -0.666775 0
M  V30 5534 H 533.174 -6.11338 0.087081 0
M  V30 5535 H 537.348 -6.93503 0.634538 0
M  V30 5536 H 534.975 -7.5336 1.01746 0
M  V30 5537 N 536.55 0.480323 -1.50102 0
M  V30 5538 C 537.827 1.24159 -1.51142 0
M  V30 5539 C 538.207 2.09605 -0.250818 0
M  V30 5540 O 537.555 2.15274 0.766118 0
M  V30 5541 C 537.765 2.08057 -2.80202 0
M  V30 5542 C 539.113 2.66556 -3.30504 0
M  V30 5543 O 540.137 2.18308 -2.81461 0
M  V30 5544 O 538.996 3.54442 -4.15973 0
M  V30 5545 H 536.09 0.562928 -0.605839 0
M  V30 5546 H 538.636 0.492899 -1.62384 0
M  V30 5547 H 537.408 1.45032 -3.6343 0
M  V30 5548 H 537.031 2.90079 -2.71919 0
M  V30 5549 N 538.028 1.39524 0.732853 0
M  V30 5550 C 538.958 1.41153 1.86005 0
M  V30 5551 C 539.939 0.274614 1.67869 0
M  V30 5552 O 541.124 0.480745 1.88155 0
M  V30 5553 C 538.254 1.25638 3.23778 0
M  V30 5554 C 537.208 2.36752 3.56556 0
M  V30 5555 C 536.534 2.06326 4.93289 0
M  V30 5556 C 537.834 3.79069 3.5931 0
M  V30 5557 H 539.528 2.35484 1.84899 0
M  V30 5558 H 537.074 1.13348 0.888162 0
M  V30 5559 H 539.027 1.25398 4.0231 0
M  V30 5560 H 537.751 0.277772 3.25417 0
M  V30 5561 H 536.41 2.36213 2.80355 0
M  V30 5562 H 536.058 1.06897 4.9151 0
M  V30 5563 H 535.758 2.80757 5.16187 0
M  V30 5564 H 537.282 2.07739 5.74175 0
M  V30 5565 H 538.696 3.81526 4.27914 0
M  V30 5566 H 537.093 4.52878 3.93728 0
M  V30 5567 H 538.163 4.09893 2.59068 0
M  V30 5568 N 539.506 -0.963266 1.24736 0
M  V30 5569 C 540.439 -2.05758 0.986852 0
M  V30 5570 C 541.417 -1.62398 -0.0809272 0
M  V30 5571 O 542.601 -1.88414 0.0569347 0
M  V30 5572 C 539.728 -3.35135 0.490095 0
M  V30 5573 C 538.774 -3.97451 1.54709 0
M  V30 5574 S 539.607 -4.34519 3.12976 0
M  V30 5575 C 540.763 -5.67026 2.65014 0
M  V30 5576 H 540.996 -2.27539 1.91346 0
M  V30 5577 H 538.529 -1.10176 1.08169 0
M  V30 5578 H 540.487 -4.09962 0.21012 0
M  V30 5579 H 539.148 -3.11335 -0.415873 0
M  V30 5580 H 538.341 -4.90704 1.15003 0
M  V30 5581 H 537.943 -3.29071 1.77731 0
M  V30 5582 H 540.235 -6.44748 2.08102 0
M  V30 5583 H 541.178 -6.11594 3.56873 0
M  V30 5584 H 541.586 -5.25847 2.05294 0
M  V30 5585 N 540.985 -1.06182 -1.16461 0
M  V30 5586 C 541.933 -0.665716 -2.2287 0
M  V30 5587 C 542.927 0.317822 -1.66392 0
M  V30 5588 O 544.133 0.182807 -1.79069 0
M  V30 5589 H 540.508 -0.197148 -0.725697 0
M  V30 5590 H 542.479 -1.57307 -2.53569 0
M  V30 5591 C 541.228 -0.0669803 -3.47635 0
M  V30 5592 H 540.551 -0.814899 -3.91407 0
M  V30 5593 H 541.991 0.172669 -4.23648 0
M  V30 5594 C 540.45 1.18913 -3.15216 0
M  V30 5595 O 540.98 2.27723 -3.30916 0
M  V30 5596 N 539.186 1.09066 -2.69357 0
M  V30 5597 H 538.733 0.20518 -2.56782 0
M  V30 5598 H 538.691 1.93195 -2.48039 0
M  V30 5599 N 542.463 1.3308 -0.844243 0
M  V30 5600 C 543.711 1.97215 -0.441676 0
M  V30 5601 C 544.032 1.67185 1.0037 0
M  V30 5602 O 543.302 0.973588 1.69994 0
M  V30 5603 H 541.882 0.72959 -0.160335 0
M  V30 5604 H 544.544 1.62348 -1.07838 0
M  V30 5605 H 543.64 3.06698 -0.57815 0
M  V30 5606 N 543.941 0.601185 1.45683 0
M  V30 5607 C 545.189 0.0936957 2.01883 0
M  V30 5608 C 545.51 -1.2779 1.47291 0
M  V30 5609 O 544.78 -1.84279 0.664691 0
M  V30 5610 H 543.36 0.0316466 0.746329 0
M  V30 5611 H 546.022 0.781137 1.78562 0
M  V30 5612 H 545.118 0.0386297 3.12076 0
M  V30 5613 N 545.419 -1.53889 0.339982 0
M  V30 5614 C 546.83 -1.86139 -0.144671 0
M  V30 5615 C 547.181 -1.2613 -1.50285 0
M  V30 5616 O 546.306 -0.573515 -2.08662 0
M  V30 5617 C 546.901 -3.37728 -0.269285 0
M  V30 5618 C 545.46 -3.69868 -0.698168 0
M  V30 5619 C 544.607 -2.76777 0.170249 0
M  V30 5620 H 547.558 -1.48503 0.559704 0
M  V30 5621 H 547.579 -3.64331 -1.0974 0
M  V30 5622 H 547.091 -3.81375 0.719366 0
M  V30 5623 H 545.192 -3.31764 -1.69597 0
M  V30 5624 H 545.305 -4.76582 -0.490533 0
M  V30 5625 H 543.669 -2.52188 -0.356844 0
M  V30 5626 H 544.452 -3.23253 1.15597 0
M  V30 5627 N 546.897 -0.0685191 -1.57451 0
M  V30 5628 C 547.847 0.909895 -2.09057 0
M  V30 5629 C 548.831 1.26088 -0.999528 0
M  V30 5630 O 550.023 1.24041 -1.26265 0
M  V30 5631 C 547.152 2.17863 -2.65312 0
M  V30 5632 C 546.238 1.85427 -3.81415 0
M  V30 5633 N 546.629 1.23426 -4.9051 0
M  V30 5634 C 544.927 2.15196 -3.90649 0
M  V30 5635 C 545.628 1.09008 -5.71395 0
M  V30 5636 N 544.604 1.59871 -5.1956 0
M  V30 5637 H 548.406 0.426145 -2.90794 0
M  V30 5638 H 545.92 0.135462 -1.61834 0
M  V30 5639 H 547.917 2.88872 -3.00597 0
M  V30 5640 H 546.577 2.66829 -1.85021 0
M  V30 5641 H 547.588 0.904305 -5.09944 0
M  V30 5642 H 544.265 2.66562 -3.21327 0
M  V30 5643 H 545.655 0.607305 -6.6915 0
M  V30 5644 N 548.375 1.56261 0.205012 0
M  V30 5645 C 549.305 1.96779 1.257 0
M  V30 5646 C 550.286 0.838309 1.48008 0
M  V30 5647 O 551.471 1.10189 1.59913 0
M  V30 5648 C 548.601 2.29876 2.60335 0
M  V30 5649 C 547.555 3.45469 2.52656 0
M  V30 5650 C 546.881 3.64215 3.91473 0
M  V30 5651 C 548.181 4.79954 2.06014 0
M  V30 5652 H 549.875 2.84904 0.920338 0
M  V30 5653 H 547.421 1.37072 0.441277 0
M  V30 5654 H 549.374 2.56814 3.34102 0
M  V30 5655 H 548.098 1.38622 2.95722 0
M  V30 5656 H 546.757 3.18605 1.81345 0
M  V30 5657 H 546.405 2.70309 4.24196 0
M  V30 5658 H 546.105 4.41973 3.87213 0
M  V30 5659 H 547.629 3.93519 4.66878 0
M  V30 5660 H 549.043 5.05989 2.69533 0
M  V30 5661 H 547.44 5.61111 2.12777 0
M  V30 5662 H 548.51 4.74201 1.01297 0
M  V30 5663 N 549.853 -0.472356 1.50355 0
M  V30 5664 C 551.101 -1.22211 1.60962 0
M  V30 5665 C 551.422 -1.92497 0.311439 0
M  V30 5666 O 550.692 -1.8405 -0.671002 0
M  V30 5667 H 549.272 -0.454092 0.593135 0
M  V30 5668 H 551.934 -0.544977 1.87126 0
M  V30 5669 H 551.03 -1.9707 2.42012 0
M  V30 5670 N 551.331 -1.39911 -0.725443 0
M  V30 5671 C 552.261 -1.42138 -1.85254 0
M  V30 5672 C 553.242 -0.283513 -1.67721 0
M  V30 5673 O 554.427 -0.490717 -1.87898 0
M  V30 5674 C 551.557 -1.27354 -3.23107 0
M  V30 5675 C 550.511 -2.3864 -3.55296 0
M  V30 5676 C 549.837 -2.08939 -4.92188 0
M  V30 5677 C 551.137 -3.8097 -3.57295 0
M  V30 5678 H 552.831 -2.36461 -1.83648 0
M  V30 5679 H 550.377 -1.13817 -0.882138 0
M  V30 5680 H 552.33 -1.2753 -4.01639 0
M  V30 5681 H 551.054 -0.295025 -3.25265 0
M  V30 5682 H 549.713 -2.37696 -2.79099 0
M  V30 5683 H 549.361 -1.09502 -4.90936 0
M  V30 5684 H 549.061 -2.83491 -5.14691 0
M  V30 5685 H 550.585 -2.10781 -5.73065 0
M  V30 5686 H 551.999 -3.8379 -4.25885 0
M  V30 5687 H 550.396 -4.5496 -3.9132 0
M  V30 5688 H 551.466 -4.11261 -2.5689 0
M  V30 5689 N 552.809 0.956637 -1.25245 0
M  V30 5690 C 554.225 1.22733 -1.02023 0
M  V30 5691 C 554.425 1.99761 0.264186 0
M  V30 5692 O 553.481 2.32814 0.977436 0
M  V30 5693 C 554.794 2.00367 -2.24217 0
M  V30 5694 C 556.342 2.13418 -2.28958 0
M  V30 5695 C 556.817 2.9445 -3.50803 0
M  V30 5696 N 558.308 3.02029 -3.51187 0
M  V30 5697 C 559.043 3.65116 -4.42129 0
M  V30 5698 N 558.539 4.2983 -5.43339 0
M  V30 5699 N 560.332 3.62237 -4.29815 0
M  V30 5700 H 552.483 0.441282 -2.07765 0
M  V30 5701 H 554.746 0.257686 -0.912306 0
M  V30 5702 H 554.452 1.51165 -3.17556 0
M  V30 5703 H 554.326 3.01077 -2.27228 0
M  V30 5704 H 556.713 2.61819 -1.36143 0
M  V30 5705 H 556.794 1.1202 -2.29968 0
M  V30 5706 H 556.438 2.46741 -4.43939 0
M  V30 5707 H 556.368 3.9607 -3.47039 0
M  V30 5708 H 558.859 2.56007 -2.77973 0
M  V30 5709 H 559.172 4.75819 -6.08947 0
M  V30 5710 H 557.517 4.28465 -5.47214 0
M  V30 5711 H 560.708 3.10863 -3.49974 0
M  V30 5712 H 560.881 4.11117 -5.00886 0
M  V30 5713 N 554.287 1.06798 1.15896 0
M  V30 5714 C 555.217 0.704677 2.22613 0
M  V30 5715 C 556.198 -0.305252 1.67339 0
M  V30 5716 O 557.383 -0.179247 1.93371 0
M  V30 5717 C 554.513 0.0957325 3.47168 0
M  V30 5718 C 553.467 1.0322 4.15367 0
M  V30 5719 C 552.793 0.286293 5.33933 0
M  V30 5720 C 554.093 2.36341 4.65768 0
M  V30 5721 H 555.787 1.59688 2.53259 0
M  V30 5722 H 553.333 0.769257 1.21731 0
M  V30 5723 H 555.286 -0.170333 4.21056 0
M  V30 5724 H 554.01 -0.831516 3.15838 0
M  V30 5725 H 552.669 1.28309 3.43413 0
M  V30 5726 H 552.317 -0.644237 4.98857 0
M  V30 5727 H 552.017 0.910436 5.80504 0
M  V30 5728 H 553.541 0.0278938 6.10594 0
M  V30 5729 H 554.955 2.1561 5.31211 0
M  V30 5730 H 553.352 2.94299 5.2298 0
M  V30 5731 H 554.422 2.99047 3.81705 0
M  V30 5732 N 555.766 -1.3263 0.851289 0
M  V30 5733 C 557.013 -1.97368 0.453023 0
M  V30 5734 C 557.341 -1.67384 -0.990596 0
M  V30 5735 O 556.596 -0.952665 -1.70947 0
M  V30 5736 C 556.895 -3.51713 0.635015 0
M  V30 5737 C 556.561 -4.01676 2.04859 0
M  V30 5738 C 555.223 -4.15031 2.43522 0
M  V30 5739 C 557.575 -4.28206 2.97135 0
M  V30 5740 C 554.903 -4.52257 3.73739 0
M  V30 5741 C 557.255 -4.66889 4.26846 0
M  V30 5742 C 555.919 -4.7845 4.65448 0
M  V30 5743 H 555.189 -0.722219 0.165773 0
M  V30 5744 H 557.836 -1.58092 1.0807 0
M  V30 5745 H 556.141 -3.91726 -0.0759081 0
M  V30 5746 H 557.838 -3.99823 0.306964 0
M  V30 5747 H 554.428 -3.91764 1.73836 0
M  V30 5748 H 558.612 -4.174 2.68498 0
M  V30 5749 H 553.868 -4.59402 4.03435 0
M  V30 5750 H 558.042 -4.86372 4.98413 0
M  V30 5751 H 555.669 -5.07052 5.66395 0
M  V30 5752 N 557.244 -0.608902 -1.45362 0
M  V30 5753 C 558.176 0.147318 -2.28726 0
M  V30 5754 C 559.189 0.830468 -1.40025 0
M  V30 5755 O 560.378 0.695636 -1.64387 0
M  V30 5756 C 557.478 1.22968 -3.15804 0
M  V30 5757 C 556.651 0.633391 -4.3279 0
M  V30 5758 C 555.71 1.60682 -5.01067 0
M  V30 5759 O 554.736 1.13261 -5.57818 0
M  V30 5760 N 555.938 2.94123 -5.00472 0
M  V30 5761 H 558.703 -0.568014 -2.94268 0
M  V30 5762 H 556.264 -0.448479 -1.55564 0
M  V30 5763 H 558.256 1.88072 -3.58345 0
M  V30 5764 H 556.826 1.84752 -2.52162 0
M  V30 5765 H 556.046 -0.195762 -3.93714 0
M  V30 5766 H 557.334 0.215255 -5.08344 0
M  V30 5767 H 556.732 3.3525 -4.55657 0
M  V30 5768 H 555.289 3.54646 -5.46872 0
M  V30 5769 N 558.722 1.53707 -0.348139 0
M  V30 5770 C 559.669 2.25173 0.506518 0
M  V30 5771 C 560.639 1.25174 1.09182 0
M  V30 5772 O 561.824 1.53917 1.12757 0
M  V30 5773 C 558.964 3.03141 1.64923 0
M  V30 5774 C 558.077 4.18002 1.0908 0
M  V30 5775 C 557.212 4.83447 2.20119 0
M  V30 5776 C 556.251 5.90369 1.61651 0
M  V30 5777 N 555.388 6.49575 2.66451 0
M  V30 5778 H 560.228 2.97799 -0.109452 0
M  V30 5779 H 557.765 1.46953 -0.0657866 0
M  V30 5780 H 559.723 3.46607 2.32205 0
M  V30 5781 H 558.353 2.32803 2.23612 0
M  V30 5782 H 557.405 3.79145 0.308783 0
M  V30 5783 H 558.717 4.94892 0.623178 0
M  V30 5784 H 557.871 5.30008 2.95257 0
M  V30 5785 H 556.61 4.05991 2.70227 0
M  V30 5786 H 555.615 5.43186 0.850209 0
M  V30 5787 H 556.84 6.69735 1.1239 0
M  V30 5788 H 554.786 5.74981 3.15805 0
M  V30 5789 H 554.703 7.21952 2.24325 0
M  V30 5790 H 555.971 7.00789 3.41344 0
M  V30 5791 N 560.2 0.0768682 1.57412 0
M  V30 5792 C 561.447 -0.591085 1.93681 0
M  V30 5793 C 561.775 -1.69311 0.957286 0
M  V30 5794 O 561.03 -1.95682 -0.0262428 0
M  V30 5795 C 561.329 -1.20268 3.36557 0
M  V30 5796 C 560.995 -0.226286 4.50332 0
M  V30 5797 C 559.657 0.0423142 4.81181 0
M  V30 5798 C 562.009 0.441415 5.19327 0
M  V30 5799 C 559.337 0.985616 5.78362 0
M  V30 5800 C 561.689 1.37307 6.17519 0
M  V30 5801 C 560.353 1.65009 6.46783 0
M  V30 5802 H 559.623 -0.216293 0.70873 0
M  V30 5803 H 562.27 0.148824 1.90921 0
M  V30 5804 H 560.575 -2.01844 3.35807 0
M  V30 5805 H 562.272 -1.72688 3.61911 0
M  V30 5806 H 558.862 -0.445821 4.26275 0
M  V30 5807 H 563.046 0.247023 4.95685 0
M  V30 5808 H 558.302 1.20743 5.99359 0
M  V30 5809 H 562.476 1.89637 6.70083 0
M  V30 5810 H 560.103 2.38263 7.21897 0
M  V30 5811 N 561.678 -1.56367 -0.196722 0
M  V30 5812 C 562.955 -1.71359 -0.943159 0
M  V30 5813 C 563.335 -0.631192 -2.01443 0
M  V30 5814 O 562.683 0.358071 -2.25677 0
M  V30 5815 C 562.893 -3.13623 -1.53106 0
M  V30 5816 C 564.241 -3.73806 -2.01381 0
M  V30 5817 O 565.265 -3.16742 -1.62951 0
M  V30 5818 O 564.124 -4.73951 -2.7209 0
M  V30 5819 H 561.218 -0.698851 -0.442195 0
M  V30 5820 H 563.764 -1.68672 -0.186547 0
M  V30 5821 H 562.536 -3.83873 -0.758785 0
M  V30 5822 H 562.159 -3.20532 -2.35255 0
M  V30 5823 N 563.156 0.464375 -1.50603 0
M  V30 5824 C 564.104 1.58224 -1.70493 0
M  V30 5825 C 565.098 1.59492 -0.570836 0
M  V30 5826 O 566.304 1.63561 -0.751517 0
M  V30 5827 H 562.679 0.525161 -0.538247 0
M  V30 5828 H 564.65 1.38613 -2.64252 0
M  V30 5829 C 563.399 2.96113 -1.82243 0
M  V30 5830 H 562.722 2.95858 -2.68901 0
M  V30 5831 H 564.162 3.73769 -2.00182 0
M  V30 5832 C 562.621 3.31946 -0.575628 0
M  V30 5833 O 563.151 4.00708 0.282152 0
M  V30 5834 N 561.357 2.87436 -0.427665 0
M  V30 5835 H 560.904 2.31652 -1.12674 0
M  V30 5836 H 560.862 3.11776 0.405379 0
M  V30 5837 N 564.634 1.40294 0.718013 0
M  V30 5838 C 565.881 1.3844 1.47786 0
M  V30 5839 C 566.209 -0.0140838 1.94495 0
M  V30 5840 O 565.464 -0.998165 1.68331 0
M  V30 5841 C 565.763 2.31814 2.72024 0
M  V30 5842 C 565.429 3.79117 2.44093 0
M  V30 5843 C 564.091 4.19249 2.36185 0
M  V30 5844 C 566.443 4.72212 2.20602 0
M  V30 5845 C 563.771 5.50516 2.02851 0
M  V30 5846 C 566.123 6.03775 1.88781 0
M  V30 5847 C 564.787 6.42953 1.79354 0
M  V30 5848 H 564.057 0.506588 0.540786 0
M  V30 5849 H 566.704 1.72929 0.822663 0
M  V30 5850 H 565.009 1.90501 3.42369 0
M  V30 5851 H 566.706 2.27664 3.30106 0
M  V30 5852 H 563.296 3.47318 2.51133 0
M  V30 5853 H 567.48 4.42026 2.25669 0
M  V30 5854 H 562.736 5.79776 1.94088 0
M  V30 5855 H 566.91 6.75428 1.69617 0
M  V30 5856 H 564.537 7.44584 1.53291 0
M  V30 5857 N 566.112 -0.949982 1.2575 0
M  V30 5858 C 567.528 -1.22191 1.02672 0
M  V30 5859 C 567.728 -1.99898 -0.253588 0
M  V30 5860 O 566.784 -2.33329 -0.965076 0
M  V30 5861 C 568.097 -1.99175 2.25277 0
M  V30 5862 C 569.645 -2.12201 2.30087 0
M  V30 5863 C 570.12 -2.92586 3.5236 0
M  V30 5864 N 571.611 -3.00163 3.52784 0
M  V30 5865 C 572.346 -3.62766 4.44059 0
M  V30 5866 N 571.842 -4.26943 5.45611 0
M  V30 5867 N 573.635 -3.59953 4.3173 0
M  V30 5868 H 565.786 -0.430258 2.07996 0
M  V30 5869 H 568.049 -0.252844 0.91366 0
M  V30 5870 H 567.755 -1.49479 3.18354 0
M  V30 5871 H 567.629 -2.99868 2.28821 0
M  V30 5872 H 570.016 -2.61093 1.3753 0
M  V30 5873 H 570.097 -1.10799 2.30559 0
M  V30 5874 H 569.741 -2.44383 4.45241 0
M  V30 5875 H 569.671 -3.94224 3.49134 0
M  V30 5876 H 572.162 -2.54529 2.79327 0
M  V30 5877 H 572.475 -4.72583 6.11461 0
M  V30 5878 H 570.82 -4.25557 5.49478 0
M  V30 5879 H 574.011 -3.09003 3.51617 0
M  V30 5880 H 574.184 -4.08455 5.03059 0
M  V30 5881 N 567.59 -1.07411 -1.15328 0
M  V30 5882 C 568.839 -0.792643 -1.85473 0
M  V30 5883 C 569.152 0.683789 -1.83259 0
M  V30 5884 O 570.358 1.08005 -2.49093 0
M  V30 5885 C 568.814 -1.36787 -3.32892 0
M  V30 5886 C 568.422 -2.87536 -3.43551 0
M  V30 5887 C 570.166 -1.16444 -4.08217 0
M  V30 5888 C 568.073 -3.38247 -4.85122 0
M  V30 5889 H 567.003 -0.292838 -0.694811 0
M  V30 5890 H 569.654 -1.29426 -1.30082 0
M  V30 5891 H 568.036 -0.793993 -3.87958 0
M  V30 5892 H 569.21 -3.50973 -2.98588 0
M  V30 5893 H 567.525 -3.06676 -2.81672 0
M  V30 5894 H 570.122 -1.51808 -5.12697 0
M  V30 5895 H 570.465 -0.10353 -4.16171 0
M  V30 5896 H 570.998 -1.70472 -3.59422 0
M  V30 5897 H 567.737 -4.43866 -4.82351 0
M  V30 5898 H 567.257 -2.79564 -5.30664 0
M  V30 5899 H 568.936 -3.34238 -5.5398 0
M  V30 5900 N 569.068 1.32177 -0.85831 0
M  V30 5901 C 569.998 2.31282 -0.321041 0
M  V30 5902 C 570.979 1.59841 0.581786 0
M  V30 5903 O 572.164 1.87619 0.501262 0
M  V30 5904 C 569.294 3.4385 0.48832 0
M  V30 5905 C 568.248 4.26799 -0.320391 0
M  V30 5906 C 567.574 5.31164 0.613934 0
M  V30 5907 C 568.874 4.98829 -1.54813 0
M  V30 5908 H 570.568 2.76469 -1.14915 0
M  V30 5909 H 568.114 1.32916 -0.554028 0
M  V30 5910 H 570.067 4.12224 0.874626 0
M  V30 5911 H 568.791 2.97401 1.34983 0
M  V30 5912 H 567.45 3.60077 -0.688497 0
M  V30 5913 H 567.098 4.80967 1.47239 0
M  V30 5914 H 566.798 5.8755 0.0768097 0
M  V30 5915 H 568.322 6.024 0.997336 0
M  V30 5916 H 569.736 5.59864 -1.23392 0
M  V30 5917 H 568.133 5.64957 -2.02346 0
M  V30 5918 H 569.203 4.26483 -2.30739 0
M  V30 5919 N 570.547 0.616602 1.45037 0
M  V30 5920 C 571.793 0.115501 2.02471 0
M  V30 5921 C 572.126 -1.25406 1.4828 0
M  V30 5922 O 571.401 -1.82922 0.661051 0
M  V30 5923 C 571.684 0.0863588 3.59996 0
M  V30 5924 C 571.537 1.48723 4.24501 0
M  V30 5925 C 572.856 -0.596762 4.36035 0
M  V30 5926 H 569.975 0.0434461 0.735718 0
M  V30 5927 H 572.617 0.7903 1.72784 0
M  V30 5928 H 570.767 -0.488277 3.85419 0
M  V30 5929 H 572.439 2.10964 4.10234 0
M  V30 5930 H 570.682 2.04534 3.82555 0
M  V30 5931 H 571.353 1.419 5.3345 0
M  V30 5932 H 573.829 -0.10824 4.15959 0
M  V30 5933 H 572.705 -0.586289 5.4576 0
M  V30 5934 H 572.966 -1.66451 4.09569 0
M  V30 5935 N 572.025 -1.5352 0.356285 0
M  V30 5936 C 573.265 -2.03027 -0.23649 0
M  V30 5937 C 573.629 -1.23813 -1.46746 0
M  V30 5938 O 574.83 -1.63281 -2.13525 0
M  V30 5939 C 573.101 -3.53442 -0.530415 0
M  V30 5940 S 574.66 -4.24836 -1.09819 0
M  V30 5941 H 571.478 -0.707591 -0.0695378 0
M  V30 5942 H 574.08 -1.89077 0.496999 0
M  V30 5943 H 572.784 -4.087 0.373114 0
M  V30 5944 H 572.315 -3.71536 -1.29323 0
M  V30 5945 H 574.33 -4.35228 -2.38309 0
M  V30 5946 N 573.503 -0.0852151 -1.57369 0
M  V30 5947 C 574.751 0.579658 -1.93609 0
M  V30 5948 C 575.072 1.69332 -0.967043 0
M  V30 5949 O 574.342 1.95892 -0.0174215 0
M  V30 5950 H 572.922 0.217113 -0.714752 0
M  V30 5951 H 575.584 -0.146226 -1.94351 0
M  V30 5952 H 574.68 0.996276 -2.95771 0
M  V30 5953 N 574.981 1.5647 0.188427 0
M  V30 5954 C 576.229 1.80655 0.905986 0
M  V30 5955 C 576.55 0.659391 1.83513 0
M  V30 5956 O 575.82 -0.321868 1.93238 0
M  V30 5957 H 574.4 0.666391 0.337538 0
M  V30 5958 H 577.062 1.93949 0.192339 0
M  V30 5959 H 576.158 2.74066 1.49313 0
M  V30 5960 N 576.459 -0.456382 1.50847 0
M  V30 5961 C 577.736 -1.21739 1.53098 0
M  V30 5962 C 578.116 -2.09179 0.284132 0
M  V30 5963 O 577.464 -2.16466 -0.731773 0
M  V30 5964 C 577.674 -2.03573 2.83477 0
M  V30 5965 C 579.022 -2.61264 3.34703 0
M  V30 5966 O 580.046 -2.13802 2.84898 0
M  V30 5967 O 578.905 -3.47779 4.21559 0
M  V30 5968 H 575.999 -0.553219 0.614718 0
M  V30 5969 H 578.545 -0.467003 1.63148 0
M  V30 5970 H 577.317 -1.39232 3.65691 0
M  V30 5971 H 576.94 -2.85716 2.76499 0
M  V30 5972 N 577.937 -1.40673 -0.710563 0
M  V30 5973 C 579.185 -1.38947 -1.46759 0
M  V30 5974 C 579.506 0.00572879 -1.94999 0
M  V30 5975 O 578.776 0.961358 -1.70689 0
M  V30 5976 H 577.356 -0.5114 -0.544499 0
M  V30 5977 H 580.018 -1.75773 -0.842012 0
M  V30 5978 H 579.114 -2.06745 -2.33801 0
M  V30 5979 N 579.415 0.9433 -1.26252 0
M  V30 5980 C 580.64 1.72898 -1.14547 0
M  V30 5981 C 581.065 1.85761 0.295743 0
M  V30 5982 O 580.423 1.3463 1.21427 0
M  V30 5983 C 580.471 3.11471 -1.8171 0
M  V30 5984 O 579.575 3.97336 -1.10445 0
M  V30 5985 H 578.916 0.530555 -0.399259 0
M  V30 5986 H 581.446 1.18159 -1.67032 0
M  V30 5987 H 581.456 3.61872 -1.88449 0
M  V30 5988 H 580.131 3.01425 -2.86558 0
M  V30 5989 H 578.708 3.55788 -1.11666 0
M  V30 5990 N 580.893 1.08022 1.14757 0
M  V30 5991 C 582.139 0.808705 1.85978 0
M  V30 5992 C 582.472 -0.663764 1.82504 0
M  V30 5993 O 581.747 -1.48765 1.25296 0
M  V30 5994 C 582.03 1.32623 3.34788 0
M  V30 5995 C 581.883 2.86375 3.46856 0
M  V30 5996 C 583.202 0.948291 4.29762 0
M  V30 5997 H 580.321 0.295244 0.675278 0
M  V30 5998 H 582.963 1.33917 1.34783 0
M  V30 5999 H 581.113 0.875002 3.78518 0
M  V30 6000 H 582.785 3.39839 3.11941 0
M  V30 6001 H 581.028 3.24232 2.88194 0
M  V30 6002 H 581.699 3.17658 4.51439 0
M  V30 6003 H 584.175 1.33722 3.94028 0
M  V30 6004 H 583.051 1.33765 5.32352 0
M  V30 6005 H 583.312 -0.145094 4.41862 0
M  V30 6006 N 582.371 -1.3172 0.865308 0
M  V30 6007 C 583.619 -1.96487 0.472995 0
M  V30 6008 C 583.94 -1.68761 -0.976975 0
M  V30 6009 O 583.21 -1.00051 -1.68424 0
M  V30 6010 H 581.79 -0.726947 0.171922 0
M  V30 6011 H 584.452 -1.60612 1.10407 0
M  V30 6012 H 583.548 -3.0574 0.62687 0
M  V30 6013 N 583.85 -0.624285 -1.44708 0
M  V30 6014 C 585.096 -0.13473 -2.02953 0
M  V30 6015 C 585.451 1.22724 -1.48178 0
M  V30 6016 O 584.744 1.80109 -0.653542 0
M  V30 6017 C 584.938 -0.0546353 -3.57358 0
M  V30 6018 C 584.767 -1.40729 -4.27113 0
M  V30 6019 C 583.537 -1.99231 -4.64365 0
M  V30 6020 C 585.735 -2.33968 -4.58 0
M  V30 6021 N 583.716 -3.27803 -5.19055 0
M  V30 6022 C 585.088 -3.47149 -5.137 0
M  V30 6023 C 587.143 -2.33132 -4.39948 0
M  V30 6024 C 585.846 -4.59682 -5.53249 0
M  V30 6025 C 587.872 -3.44724 -4.8054 0
M  V30 6026 C 587.234 -4.56629 -5.36348 0
M  V30 6027 H 583.332 -0.0930617 -0.776443 0
M  V30 6028 H 585.917 -0.826286 -1.76297 0
M  V30 6029 H 584.088 0.606183 -3.8364 0
M  V30 6030 H 585.82 0.443116 -4.02267 0
M  V30 6031 H 582.575 -1.52251 -4.4846 0
M  V30 6032 H 582.999 -3.93519 -5.50883 0
M  V30 6033 H 587.641 -1.47868 -3.961 0
M  V30 6034 H 585.359 -5.4566 -5.96054 0
M  V30 6035 H 588.945 -3.45245 -4.68291 0
M  V30 6036 H 587.825 -5.41551 -5.67179 0
M  V30 6037 N 585.328 1.53329 -0.364422 0
M  V30 6038 C 586.574 2.01537 0.225969 0
M  V30 6039 C 586.907 1.25128 1.48515 0
M  V30 6040 O 586.182 0.344653 1.91422 0
M  V30 6041 C 586.465 3.56339 0.519092 0
M  V30 6042 C 586.318 4.43441 -0.753639 0
M  V30 6043 C 587.637 4.19833 1.32015 0
M  V30 6044 H 584.756 0.732573 0.0806548 0
M  V30 6045 H 587.398 1.83597 -0.489084 0
M  V30 6046 H 585.548 3.71756 1.12825 0
M  V30 6047 H 587.22 4.39823 -1.39116 0
M  V30 6048 H 585.463 4.11457 -1.37424 0
M  V30 6049 H 586.134 5.49699 -0.503517 0
M  V30 6050 H 588.61 4.08242 0.804859 0
M  V30 6051 H 587.486 5.28177 1.49399 0
M  V30 6052 H 587.747 3.75821 2.32832 0
M  V30 6053 N 586.806 0.0935595 1.57322 0
M  V30 6054 C 587.736 -0.863062 2.16964 0
M  V30 6055 C 588.717 -1.29528 1.10256 0
M  V30 6056 O 589.902 -1.36245 1.38387 0
M  V30 6057 C 587.032 -2.12276 2.74875 0
M  V30 6058 C 585.986 -1.82921 3.86942 0
M  V30 6059 C 585.312 -3.15707 4.31548 0
M  V30 6060 C 586.612 -1.11737 5.10208 0
M  V30 6061 H 588.306 -0.366145 2.97153 0
M  V30 6062 H 585.852 -0.174673 1.42937 0
M  V30 6063 H 587.805 -2.79634 3.1525 0
M  V30 6064 H 586.529 -2.64248 1.91938 0
M  V30 6065 H 585.188 -1.17961 3.47103 0
M  V30 6066 H 584.836 -3.65563 3.45504 0
M  V30 6067 H 584.536 -2.96849 5.07104 0
M  V30 6068 H 586.06 -3.84226 4.74555 0
M  V30 6069 H 587.474 -1.69203 5.47762 0
M  V30 6070 H 585.871 -1.03064 5.91183 0
M  V30 6071 H 586.941 -0.0998818 4.84797 0
M  V30 6072 N 588.284 -1.56567 -0.180126 0
M  V30 6073 C 589.509 -1.85975 -0.918041 0
M  V30 6074 C 589.934 -0.678888 -1.75422 0
M  V30 6075 O 589.292 0.372168 -1.77439 0
M  V30 6076 C 589.34 -3.13731 -1.77779 0
M  V30 6077 O 588.444 -2.95335 -2.87838 0
M  V30 6078 H 587.785 -0.61196 -0.257683 0
M  V30 6079 H 590.315 -2.03798 -0.180923 0
M  V30 6080 H 590.325 -3.4491 -2.17948 0
M  V30 6081 H 589 -3.99293 -1.16352 0
M  V30 6082 H 587.577 -2.7549 -2.51316 0
M  V30 6083 N 589.762 0.448376 -1.51087 0
M  V30 6084 C 590.672 1.56882 -1.74428 0
M  V30 6085 C 591.688 1.62268 -0.62809 0
M  V30 6086 O 592.864 1.79716 -0.909075 0
M  V30 6087 C 589.929 2.92947 -1.85426 0
M  V30 6088 C 588.99 2.97766 -3.09247 0
M  V30 6089 C 588.223 4.27341 -3.19711 0
M  V30 6090 O 588.446 5.19112 -2.36387 0
M  V30 6091 O 587.38 4.38219 -4.12611 0
M  V30 6092 H 591.206 1.40104 -2.69452 0
M  V30 6093 H 588.791 0.630247 -1.35456 0
M  V30 6094 H 590.673 3.73719 -1.94709 0
M  V30 6095 H 589.348 3.09876 -0.935887 0
M  V30 6096 H 588.255 2.15989 -3.0545 0
M  V30 6097 H 589.588 2.8578 -4.00738 0
M  V30 6098 N 591.24 1.41047 0.703093 0
M  V30 6099 C 592.489 1.39301 1.4587 0
M  V30 6100 C 592.802 0.00267077 1.956 0
M  V30 6101 O 594.008 -0.137414 2.71152 0
M  V30 6102 C 592.464 2.44891 2.63735 0
M  V30 6103 C 592.072 3.89796 2.20824 0
M  V30 6104 C 593.816 2.5227 3.41409 0
M  V30 6105 C 591.723 4.86955 3.35602 0
M  V30 6106 H 590.653 0.518005 0.547893 0
M  V30 6107 H 593.304 1.66839 0.764009 0
M  V30 6108 H 591.686 2.10472 3.35436 0
M  V30 6109 H 592.86 4.33424 1.56461 0
M  V30 6110 H 591.175 3.86008 1.56163 0
M  V30 6111 H 593.772 3.22044 4.26839 0
M  V30 6112 H 594.115 1.55714 3.86081 0
M  V30 6113 H 594.648 2.85742 2.7676 0
M  V30 6114 H 591.387 5.84888 2.9595 0
M  V30 6115 H 590.907 4.47982 3.98839 0
M  V30 6116 H 592.586 5.07361 4.01489 0
M  V30 6117 N 592.718 -0.936591 1.26751 0
M  V30 6118 C 593.995 -1.66094 1.03306 0
M  V30 6119 C 594.375 -2.06568 -0.435058 0
M  V30 6120 O 593.723 -1.79305 -1.41641 0
M  V30 6121 C 593.933 -2.86969 1.98619 0
M  V30 6122 C 595.281 -3.58516 2.27489 0
M  V30 6123 O 596.305 -2.97082 1.96522 0
M  V30 6124 O 595.164 -4.69181 2.80235 0
M  V30 6125 H 592.258 -0.727568 0.393158 0
M  V30 6126 H 594.804 -0.987914 1.3798 0
M  V30 6127 H 593.576 -2.53985 2.9767 0
M  V30 6128 H 593.199 -3.61996 1.64454 0
M  V30 6129 N 594.196 -1.08629 -1.14182 0
M  V30 6130 C 595.143 -0.718299 -2.19338 0
M  V30 6131 C 596.113 0.296587 -1.63431 0
M  V30 6132 O 597.298 0.180079 -1.89948 0
M  V30 6133 C 594.438 -0.136203 -3.44831 0
M  V30 6134 C 593.551 -1.20414 -4.14879 0
M  V30 6135 C 592.686 -0.585666 -5.27962 0
M  V30 6136 C 591.725 -1.63548 -5.89846 0
M  V30 6137 N 590.862 -1.03864 -6.94375 0
M  V30 6138 H 595.702 -1.61932 -2.50164 0
M  V30 6139 H 593.239 -0.80919 -1.22844 0
M  V30 6140 H 595.197 0.219021 -4.16625 0
M  V30 6141 H 593.827 0.728121 -3.14481 0
M  V30 6142 H 592.879 -1.67676 -3.41451 0
M  V30 6143 H 594.191 -1.99959 -4.56966 0
M  V30 6144 H 593.345 -0.178818 -6.06436 0
M  V30 6145 H 592.084 0.24142 -4.87102 0
M  V30 6146 H 591.089 -2.05197 -5.10073 0
M  V30 6147 H 592.314 -2.46509 -6.3278 0
M  V30 6148 H 590.26 -0.232687 -6.55587 0
M  V30 6149 H 590.177 -1.77116 -7.3496 0
M  V30 6150 H 591.445 -0.657724 -7.7672 0
M  V30 6151 N 595.674 1.31259 -0.872281 0
M  V30 6152 C 596.604 2.30929 -0.345554 0
M  V30 6153 C 597.585 1.60449 0.5648 0
M  V30 6154 O 598.77 1.8814 0.481335 0
M  V30 6155 C 595.9 3.44348 0.451823 0
M  V30 6156 C 594.854 4.26435 -0.365641 0
M  V30 6157 C 594.18 5.31785 0.557562 0
M  V30 6158 C 595.48 4.97159 -1.60095 0
M  V30 6159 H 597.174 2.75234 -1.17841 0
M  V30 6160 H 594.72 1.3232 -0.568094 0
M  V30 6161 H 596.673 4.13128 0.830854 0
M  V30 6162 H 595.397 2.98816 1.31821 0
M  V30 6163 H 594.056 3.59326 -0.726649 0
M  V30 6164 H 593.704 4.82502 1.4213 0
M  V30 6165 H 593.404 5.87598 0.0144878 0
M  V30 6166 H 594.928 6.03424 0.933387 0
M  V30 6167 H 596.342 5.58523 -1.29323 0
M  V30 6168 H 594.739 5.62779 -2.08327 0
M  V30 6169 H 595.809 4.24012 -2.35249 0
M  V30 6170 N 597.152 0.631951 1.44375 0
M  V30 6171 C 598.1 -0.0846693 2.32446 0
M  V30 6172 C 599.094 -0.834957 1.47393 0
M  V30 6173 O 600.3 -0.747764 1.63733 0
M  V30 6174 H 596.675 -0.0461508 0.750583 0
M  V30 6175 H 598.646 0.67619 2.90638 0
M  V30 6176 C 597.395 -1.05211 3.314 0
M  V30 6177 H 596.718 -0.484203 3.96857 0
M  V30 6178 H 598.158 -1.523 3.95703 0
M  V30 6179 C 596.617 -2.13776 2.60387 0
M  V30 6180 O 597.147 -3.21869 2.4034 0
M  V30 6181 N 595.353 -1.89733 2.20113 0
M  V30 6182 H 594.9 -1.01833 2.36618 0
M  V30 6183 H 594.858 -2.62572 1.72926 0
M  V30 6184 N 598.631 -1.53133 0.372548 0
M  V30 6185 C 599.561 -2.28876 -0.462412 0
M  V30 6186 C 600.542 -1.31583 -1.07796 0
M  V30 6187 O 601.727 -1.60461 -1.09389 0
M  V30 6188 C 598.857 -3.08317 -1.59868 0
M  V30 6189 C 597.811 -4.13355 -1.11003 0
M  V30 6190 C 597.137 -4.8092 -2.33708 0
M  V30 6191 C 598.437 -5.21955 -0.18983 0
M  V30 6192 H 600.131 -2.9892 0.169511 0
M  V30 6193 H 597.677 -1.43761 0.0829658 0
M  V30 6194 H 599.63 -3.60055 -2.18949 0
M  V30 6195 H 598.354 -2.35976 -2.25794 0
M  V30 6196 H 597.013 -3.62573 -0.541869 0
M  V30 6197 H 596.661 -4.05144 -2.98106 0
M  V30 6198 H 596.361 -5.51904 -2.01682 0
M  V30 6199 H 597.885 -5.35455 -2.93462 0
M  V30 6200 H 599.299 -5.69153 -0.688319 0
M  V30 6201 H 597.696 -6.00087 0.0398887 0
M  V30 6202 H 598.766 -4.78811 0.766057 0
M  V30 6203 N 600.109 -0.101901 -1.5727 0
M  V30 6204 C 601.057 0.872034 -2.15635 0
M  V30 6205 C 602.051 1.28742 -1.10099 0
M  V30 6206 O 603.257 1.26116 -1.28432 0
M  V30 6207 H 599.632 0.299269 -0.689886 0
M  V30 6208 H 601.603 0.355137 -2.96279 0
M  V30 6209 C 600.352 2.11886 -2.7568 0
M  V30 6210 H 599.675 1.80813 -3.56576 0
M  V30 6211 H 601.115 2.78077 -3.20077 0
M  V30 6212 C 599.574 2.89739 -1.7191 0
M  V30 6213 O 600.104 3.84522 -1.16213 0
M  V30 6214 N 598.31 2.53407 -1.42245 0
M  V30 6215 H 597.857 1.76398 -1.87727 0
M  V30 6216 H 597.815 3.05795 -0.730529 0
M  V30 6217 N 601.587 1.56661 0.17182 0
M  V30 6218 C 602.534 1.96371 1.21273 0
M  V30 6219 C 603.504 0.82756 1.44016 0
M  V30 6220 O 604.689 1.08764 1.56764 0
M  V30 6221 C 601.829 2.32838 2.54716 0
M  V30 6222 C 600.942 3.59628 2.39356 0
M  V30 6223 C 600.077 3.85311 3.65662 0
M  V30 6224 C 599.116 5.0545 3.45234 0
M  V30 6225 N 598.253 5.27268 4.63608 0
M  V30 6226 H 603.093 2.85106 0.86709 0
M  V30 6227 H 600.63 1.41073 0.416744 0
M  V30 6228 H 602.588 2.52004 3.3249 0
M  V30 6229 H 601.218 1.47214 2.87277 0
M  V30 6230 H 600.27 3.4838 1.52761 0
M  V30 6231 H 601.582 4.4756 2.20207 0
M  V30 6232 H 600.736 4.04841 4.51872 0
M  V30 6233 H 599.475 2.95753 3.8779 0
M  V30 6234 H 598.48 4.85819 2.5741 0
M  V30 6235 H 599.705 5.96538 3.24529 0
M  V30 6236 H 597.651 4.40662 4.85956 0
M  V30 6237 H 597.568 6.09422 4.4737 0
M  V30 6238 H 598.836 5.51277 5.51103 0
M  V30 6239 N 603.065 -0.440357 1.51323 0
M  V30 6240 C 603.997 -1.55254 1.68609 0
M  V30 6241 C 605.01 -1.52614 0.566812 0
M  V30 6242 O 606.199 -1.57445 0.841032 0
M  V30 6243 C 603.299 -2.94169 1.68279 0
M  V30 6244 C 602.472 -3.21346 2.96742 0
M  V30 6245 C 601.531 -4.3997 2.8864 0
M  V30 6246 O 600.557 -4.38771 3.62586 0
M  V30 6247 N 601.759 -5.43367 2.04285 0
M  V30 6248 H 604.524 -1.40831 2.6455 0
M  V30 6249 H 602.085 -0.629251 1.49171 0
M  V30 6250 H 604.077 -3.71543 1.60431 0
M  V30 6251 H 602.647 -3.02205 0.799441 0
M  V30 6252 H 601.867 -2.32299 3.18482 0
M  V30 6253 H 603.155 -3.3633 3.81785 0
M  V30 6254 H 602.553 -5.47176 1.43578 0
M  V30 6255 H 601.11 -6.19605 2.02318 0
M  V30 6256 N 604.543 -1.41418 -0.695603 0
M  V30 6257 C 605.783 -1.42241 -1.46788 0
M  V30 6258 C 606.147 -0.0300827 -1.91976 0
M  V30 6259 O 607.348 0.0868914 -2.6866 0
M  V30 6260 C 605.619 -2.4011 -2.6473 0
M  V30 6261 S 607.178 -2.59462 -3.53871 0
M  V30 6262 H 603.996 -0.503893 -0.50161 0
M  V30 6263 H 606.598 -1.77855 -0.811654 0
M  V30 6264 H 605.302 -3.40073 -2.29736 0
M  V30 6265 H 604.833 -2.05849 -3.35246 0
M  V30 6266 H 606.848 -1.862 -4.59939 0
M  V30 6267 N 606.021 0.929856 -1.27246 0
M  V30 6268 C 606.953 2.03434 -1.0558 0
M  V30 6269 C 607.966 1.62795 -0.0125762 0
M  V30 6270 O 609.155 1.76685 -0.2539 0
M  V30 6271 C 606.255 3.33915 -0.57912 0
M  V30 6272 C 605.428 4.03259 -1.69415 0
M  V30 6273 C 604.487 5.12014 -1.21357 0
M  V30 6274 O 603.513 5.36097 -1.91282 0
M  V30 6275 N 604.715 5.8046 -0.0680622 0
M  V30 6276 H 607.48 2.22583 -2.00691 0
M  V30 6277 H 605.041 1.1001 -1.18783 0
M  V30 6278 H 607.033 4.03978 -0.241563 0
M  V30 6279 H 605.603 3.11355 0.278703 0
M  V30 6280 H 604.823 3.26958 -2.20209 0
M  V30 6281 H 606.111 4.46337 -2.44255 0
M  V30 6282 H 605.509 5.63345 0.515626 0
M  V30 6283 H 604.066 6.51461 0.210332 0
M  V30 6284 N 607.499 1.09233 1.13605 0
M  V30 6285 C 608.429 0.751738 2.21068 0
M  V30 6286 C 609.41 -0.269688 1.67948 0
M  V30 6287 O 610.595 -0.13819 1.93708 0
M  V30 6288 C 607.725 0.16935 3.46887 0
M  V30 6289 C 606.679 1.12007 4.13084 0
M  V30 6290 C 606.005 0.399483 5.33206 0
M  V30 6291 C 607.305 2.46168 4.6065 0
M  V30 6292 H 608.999 1.65024 2.49815 0
M  V30 6293 H 606.545 0.794905 1.20072 0
M  V30 6294 H 608.498 -0.0809824 4.21322 0
M  V30 6295 H 607.222 -0.764335 3.1753 0
M  V30 6296 H 605.881 1.35564 3.40614 0
M  V30 6297 H 605.529 -0.538277 5.00112 0
M  V30 6298 H 605.229 1.03337 5.78442 0
M  V30 6299 H 606.753 0.157403 6.10397 0
M  V30 6300 H 608.167 2.26829 5.26518 0
M  V30 6301 H 606.564 3.05326 5.1662 0
M  V30 6302 H 607.634 3.07076 3.75276 0
M  V30 6303 N 608.977 -1.30795 0.87923 0
M  V30 6304 C 610.225 -1.95974 0.493809 0
M  V30 6305 C 610.546 -1.69787 -0.959021 0
M  V30 6306 O 609.816 -1.01832 -1.67353 0
M  V30 6307 H 608.396 -0.725083 0.179622 0
M  V30 6308 H 611.058 -1.59432 1.12105 0
M  V30 6309 H 610.154 -3.05058 0.659263 0
M  V30 6310 N 610.455 -0.639598 -1.44038 0
M  V30 6311 C 611.701 -0.147698 -2.02261 0
M  V30 6312 C 612.034 1.23031 -1.50256 0
M  V30 6313 O 611.309 1.81847 -0.690068 0
M  V30 6314 C 611.592 -0.14362 -3.59813 0
M  V30 6315 C 611.445 -1.55458 -4.22082 0
M  V30 6316 C 612.764 0.527317 -4.36929 0
M  V30 6317 H 609.883 -0.0551453 -0.734934 0
M  V30 6318 H 612.525 -0.817688 -1.71505 0
M  V30 6319 H 610.675 0.426898 -3.86147 0
M  V30 6320 H 612.347 -2.17464 -4.06826 0
M  V30 6321 H 610.59 -2.10594 -3.79253 0
M  V30 6322 H 611.261 -1.50369 -5.31124 0
M  V30 6323 H 613.737 0.0420504 -4.16079 0
M  V30 6324 H 612.613 0.499389 -5.46624 0
M  V30 6325 H 612.874 1.59914 -4.12165 0
M  V30 6326 N 611.933 1.52934 -0.380664 0
M  V30 6327 C 612.863 2.29118 0.450268 0
M  V30 6328 C 613.844 1.32153 1.07096 0
M  V30 6329 O 615.029 1.61038 1.08537 0
M  V30 6330 C 612.159 3.09161 1.58231 0
M  V30 6331 C 611.113 4.13938 1.0881 0
M  V30 6332 C 610.439 4.82153 2.31155 0
M  V30 6333 C 611.739 5.22048 0.162146 0
M  V30 6334 H 613.433 2.98826 -0.185361 0
M  V30 6335 H 610.979 1.43715 -0.0905886 0
M  V30 6336 H 612.932 3.61211 2.17036 0
M  V30 6337 H 611.656 2.3717 2.2454 0
M  V30 6338 H 610.315 3.62855 0.522633 0
M  V30 6339 H 609.963 4.06719 2.95953 0
M  V30 6340 H 609.663 5.52966 1.98752 0
M  V30 6341 H 611.187 5.37004 2.90618 0
M  V30 6342 H 612.601 5.6951 0.658126 0
M  V30 6343 H 610.998 6.00057 -0.0717122 0
M  V30 6344 H 612.068 4.78398 -0.791438 0
M  V30 6345 N 613.412 0.11024 1.57214 0
M  V30 6346 C 614.823 -0.416527 1.81994 0
M  V30 6347 C 615.174 -1.67183 1.02686 0
M  V30 6348 O 614.299 -2.14823 0.260782 0
M  V30 6349 C 614.894 -0.762466 3.30109 0
M  V30 6350 C 613.453 -1.23391 3.556 0
M  V30 6351 C 612.6 -0.238166 2.76275 0
M  V30 6352 H 615.551 0.335491 1.55113 0
M  V30 6353 H 615.572 -1.62068 3.44259 0
M  V30 6354 H 615.084 0.151346 3.87805 0
M  V30 6355 H 613.185 -2.16492 3.03253 0
M  V30 6356 H 613.298 -1.18528 4.64207 0
M  V30 6357 H 611.662 -0.723421 2.4421 0
M  V30 6358 H 612.445 0.668591 3.36727 0
M  V30 6359 N 614.89 -1.56749 -0.16351 0
M  V30 6360 C 615.82 -2.00042 -1.20438 0
M  V30 6361 C 616.801 -0.877256 -1.45733 0
M  V30 6362 O 617.986 -1.1439 -1.56935 0
M  V30 6363 C 615.116 -2.36697 -2.54149 0
M  V30 6364 C 614.07 -3.52046 -2.43408 0
M  V30 6365 C 613.396 -3.74466 -3.81679 0
M  V30 6366 C 614.696 -4.85247 -1.93216 0
M  V30 6367 H 616.39 -2.87244 -0.844477 0
M  V30 6368 H 613.936 -1.38194 -0.40478 0
M  V30 6369 H 615.889 -2.65582 -3.27176 0
M  V30 6370 H 614.613 -1.46414 -2.91943 0
M  V30 6371 H 613.272 -3.23301 -1.72834 0
M  V30 6372 H 612.92 -2.81461 -4.1688 0
M  V30 6373 H 612.62 -4.52084 -3.75359 0
M  V30 6374 H 614.144 -4.0576 -4.5628 0
M  V30 6375 H 615.558 -5.12957 -2.56023 0
M  V30 6376 H 613.955 -5.66556 -1.97825 0
M  V30 6377 H 615.025 -4.7672 -0.88689 0
M  V30 6378 N 616.368 0.432326 -1.51554 0
M  V30 6379 C 617.616 1.17901 -1.64146 0
M  V30 6380 C 617.937 1.91604 -0.362367 0
M  V30 6381 O 617.207 1.85764 0.621968 0
M  V30 6382 H 615.787 0.438206 -0.604966 0
M  V30 6383 H 618.449 0.495172 -1.88505 0
M  V30 6384 H 617.545 1.90584 -2.47152 0
M  V30 6385 N 617.846 1.41785 0.688094 0
M  V30 6386 C 619.074 1.44915 1.47673 0
M  V30 6387 C 619.489 0.0565786 1.88715 0
M  V30 6388 O 618.846 -0.92579 1.57275 0
M  V30 6389 C 618.897 2.36452 2.73446 0
M  V30 6390 O 618.618 3.7029 2.34131 0
M  V30 6391 C 620.119 2.48463 3.67125 0
M  V30 6392 H 617.339 0.493324 0.454832 0
M  V30 6393 H 619.883 1.86153 0.846594 0
M  V30 6394 H 618.038 1.98502 3.3268 0
M  V30 6395 H 618.452 4.19183 3.15255 0
M  V30 6396 H 619.926 3.16662 4.52138 0
M  V30 6397 H 620.403 1.51826 4.12123 0
M  V30 6398 H 621.009 2.8708 3.13792 0
M  V30 6399 N 619.324 -0.923095 1.27737 0
M  V30 6400 C 620.572 -1.66797 1.14119 0
M  V30 6401 C 620.893 -1.92479 -0.312541 0
M  V30 6402 O 620.163 -1.53432 -1.218 0
M  V30 6403 H 618.743 -0.618196 0.419336 0
M  V30 6404 H 621.405 -1.10815 1.60331 0
M  V30 6405 H 620.501 -2.63424 1.67374 0
M  V30 6406 N 620.802 -1.09834 -1.13024 0
M  V30 6407 C 621.75 -0.736283 -2.20639 0
M  V30 6408 C 622.744 0.264725 -1.67319 0
M  V30 6409 O 623.95 0.125745 -1.7956 0
M  V30 6410 H 620.325 -0.220136 -0.719058 0
M  V30 6411 H 622.296 -1.65295 -2.48436 0
M  V30 6412 C 621.045 -0.177544 -3.47246 0
M  V30 6413 H 620.368 -0.939009 -3.88616 0
M  V30 6414 H 621.808 0.0378007 -4.23983 0
M  V30 6415 C 620.267 1.08824 -3.1884 0
M  V30 6416 O 620.797 2.1708 -3.37993 0
M  V30 6417 N 619.003 1.00442 -2.7269 0
M  V30 6418 H 618.55 0.123383 -2.57304 0
M  V30 6419 H 618.508 1.85206 -2.5406 0
M  V30 6420 N 622.28 1.30327 -0.886154 0
M  V30 6421 C 623.557 1.90922 -0.425217 0
M  V30 6422 C 623.937 1.80533 1.09413 0
M  V30 6423 O 623.285 1.2233 1.92996 0
M  V30 6424 C 623.495 3.36529 -0.924638 0
M  V30 6425 C 624.843 4.13598 -0.960305 0
M  V30 6426 O 625.867 3.45377 -0.871382 0
M  V30 6427 O 624.726 5.35482 -1.09184 0
M  V30 6428 H 621.82 0.81668 -0.130238 0
M  V30 6429 H 624.366 1.38886 -0.975132 0
M  V30 6430 H 623.138 3.38181 -1.96849 0
M  V30 6431 H 622.761 3.96021 -0.353955 0
M  V30 6432 N 623.758 0.647228 1.43697 0
M  V30 6433 C 624.688 -0.0345631 2.33474 0
M  V30 6434 C 625.669 -0.818193 1.4913 0
M  V30 6435 O 626.854 -0.780867 1.77809 0
M  V30 6436 C 623.984 -1.00576 3.32418 0
M  V30 6437 C 622.938 -0.33266 4.26705 0
M  V30 6438 C 622.264 -1.41489 5.1564 0
M  V30 6439 C 623.564 0.771204 5.16575 0
M  V30 6440 H 625.258 0.715163 2.90733 0
M  V30 6441 H 622.804 0.345364 1.39797 0
M  V30 6442 H 624.757 -1.49159 3.94119 0
M  V30 6443 H 623.481 -1.78657 2.73403 0
M  V30 6444 H 622.14 0.13267 3.6636 0
M  V30 6445 H 621.788 -2.18698 4.52968 0
M  V30 6446 H 621.488 -0.969799 5.79542 0
M  V30 6447 H 623.012 -1.9022 5.80214 0
M  V30 6448 H 624.426 0.36779 5.72119 0
M  V30 6449 H 622.823 1.1404 5.89165 0
M  V30 6450 H 623.893 1.63169 4.56622 0
M  V30 6451 N 625.236 -1.5273 0.388769 0
M  V30 6452 C 626.199 -2.25043 -0.434544 0
M  V30 6453 C 627.199 -1.26661 -0.990644 0
M  V30 6454 O 628.389 -1.50762 -0.872731 0
M  V30 6455 C 625.521 -3.00507 -1.60961 0
M  V30 6456 H 626.714 -2.99242 0.198549 0
M  V30 6457 H 624.267 -1.55664 0.140875 0
M  V30 6458 H 625.002 -2.30607 -2.28015 0
M  V30 6459 H 624.787 -3.72716 -1.21757 0
M  V30 6460 H 626.277 -3.55413 -2.19251 0
M  V30 6461 N 626.714 -0.118576 -1.57153 0
M  V30 6462 C 628.13 0.238014 -1.57815 0
M  V30 6463 C 628.33 1.66747 -1.13127 0
M  V30 6464 O 627.386 2.38867 -0.818462 0
M  V30 6465 C 628.699 0.00508207 -3.007 0
M  V30 6466 C 630.247 0.0710139 -3.12919 0
M  V30 6467 C 630.722 -0.13422 -4.57803 0
M  V30 6468 N 632.213 -0.0801755 -4.63131 0
M  V30 6469 C 632.948 -0.213885 -5.73001 0
M  V30 6470 N 632.444 -0.403742 -6.91623 0
M  V30 6471 N 634.237 -0.15349 -5.6189 0
M  V30 6472 H 626.388 -1.05226 -1.84503 0
M  V30 6473 H 628.651 -0.414318 -0.852669 0
M  V30 6474 H 628.357 -0.983125 -3.3768 0
M  V30 6475 H 628.231 0.73714 -3.69927 0
M  V30 6476 H 630.618 1.04975 -2.75798 0
M  V30 6477 H 630.699 -0.692918 -2.46236 0
M  V30 6478 H 630.343 -1.10992 -4.95624 0
M  V30 6479 H 630.273 0.649692 -5.22577 0
M  V30 6480 H 632.764 0.0630689 -3.77847 0
M  V30 6481 H 633.077 -0.496645 -7.71202 0
M  V30 6482 H 631.422 -0.43971 -6.93608 0
M  V30 6483 H 634.613 -0.00613174 -4.681 0
M  V30 6484 H 634.786 -0.261138 -6.47474 0
M  V30 6485 N 628.193 1.56834 0.155195 0
M  V30 6486 C 629.439 1.83169 0.870467 0
M  V30 6487 C 629.772 0.698929 1.81187 0
M  V30 6488 O 629.047 -0.298035 1.92203 0
M  V30 6489 C 629.33 3.19965 1.65211 0
M  V30 6490 C 629.183 4.43792 0.732744 0
M  V30 6491 C 630.502 3.53885 2.61636 0
M  V30 6492 H 627.621 0.666288 0.315006 0
M  V30 6493 H 630.263 1.89513 0.135988 0
M  V30 6494 H 628.413 3.14687 2.27825 0
M  V30 6495 H 630.085 4.61148 0.118236 0
M  V30 6496 H 628.328 4.3378 0.0417906 0
M  V30 6497 H 628.999 5.36095 1.31552 0
M  V30 6498 H 631.475 3.5972 2.09143 0
M  V30 6499 H 630.351 4.50648 3.13381 0
M  V30 6500 H 630.612 2.79418 3.42605 0
M  V30 6501 N 629.671 -0.424282 1.51781 0
M  V30 6502 C 630.601 -1.52305 1.7699 0
M  V30 6503 C 631.582 -1.5839 0.620209 0
M  V30 6504 O 632.767 -1.73908 0.864268 0
M  V30 6505 C 629.897 -2.90271 1.90683 0
M  V30 6506 C 628.851 -2.99043 3.06198 0
M  V30 6507 C 628.177 -4.39116 3.05092 0
M  V30 6508 C 629.477 -2.7192 4.45934 0
M  V30 6509 H 631.171 -1.31461 2.68995 0
M  V30 6510 H 628.717 -0.630985 1.29439 0
M  V30 6511 H 630.67 -3.6711 2.06901 0
M  V30 6512 H 629.394 -3.12376 0.953365 0
M  V30 6513 H 628.053 -2.24646 2.89706 0
M  V30 6514 H 627.701 -4.58207 2.07498 0
M  V30 6515 H 627.401 -4.45912 3.82669 0
M  V30 6516 H 628.925 -5.17911 3.2342 0
M  V30 6517 H 630.339 -3.38487 4.62709 0
M  V30 6518 H 628.736 -2.90111 5.25315 0
M  V30 6519 H 629.806 -1.67445 4.55072 0
M  V30 6520 N 631.149 -1.42148 -0.680565 0
M  V30 6521 C 632.397 -1.42029 -1.43779 0
M  V30 6522 C 632.718 -0.0356347 -1.94967 0
M  V30 6523 O 631.988 0.924936 -1.7269 0
M  V30 6524 H 630.568 -0.522835 -0.533529 0
M  V30 6525 H 633.23 -1.7752 -0.804538 0
M  V30 6526 H 632.326 -2.11658 -2.29363 0
M  V30 6527 N 632.627 0.916307 -1.28225 0
M  V30 6528 C 633.873 1.66794 -1.1641 0
M  V30 6529 C 634.228 1.90278 0.284986 0
M  V30 6530 O 633.521 1.49023 1.20427 0
M  V30 6531 C 633.715 3.03125 -1.8934 0
M  V30 6532 C 633.544 2.92947 -3.41192 0
M  V30 6533 C 632.314 2.9461 -4.10528 0
M  V30 6534 C 634.512 2.7121 -4.36978 0
M  V30 6535 N 632.494 2.74993 -5.48864 0
M  V30 6536 C 633.865 2.60411 -5.6266 0
M  V30 6537 C 635.92 2.56187 -4.26934 0
M  V30 6538 C 634.623 2.3612 -6.79441 0
M  V30 6539 C 636.649 2.33275 -5.43449 0
M  V30 6540 C 636.011 2.23228 -6.68093 0
M  V30 6541 H 632.11 0.616654 -0.480896 0
M  V30 6542 H 634.694 1.08237 -1.61842 0
M  V30 6543 H 632.865 3.59774 -1.46346 0
M  V30 6544 H 634.597 3.67294 -1.69932 0
M  V30 6545 H 631.352 3.0527 -3.62087 0
M  V30 6546 H 631.776 2.68284 -6.21573 0
M  V30 6547 H 636.418 2.62707 -3.31278 0
M  V30 6548 H 634.136 2.28339 -7.75169 0
M  V30 6549 H 637.722 2.22519 -5.37565 0
M  V30 6550 H 636.602 2.05741 -7.5673 0
M  V30 6551 N 634.105 1.10431 1.1244 0
M  V30 6552 C 635.353 0.845045 1.83585 0
M  V30 6553 C 635.674 -0.631168 1.84503 0
M  V30 6554 O 634.944 -1.45825 1.30813 0
M  V30 6555 H 633.524 0.309628 0.679809 0
M  V30 6556 H 636.186 1.39458 1.36153 0
M  V30 6557 H 635.282 1.20786 2.8778 0
M  V30 6558 N 635.583 -1.29855 0.893053 0
M  V30 6559 C 636.831 -1.9544 0.514566 0
M  V30 6560 C 637.152 -1.70795 -0.940959 0
M  V30 6561 O 636.422 -1.03601 -1.66264 0
M  V30 6562 H 635.002 -0.723137 0.187302 0
M  V30 6563 H 637.664 -1.58234 1.13789 0
M  V30 6564 H 636.76 -3.04341 0.691581 0
M  V30 6565 N 637.061 -0.65484 -1.43351 0
M  V30 6566 C 638.286 -0.175046 -2.0666 0
M  V30 6567 C 638.711 1.15104 -1.4877 0
M  V30 6568 O 638.069 1.71144 -0.598279 0
M  V30 6569 C 638.117 -0.0991544 -3.60464 0
M  V30 6570 O 637.221 0.938169 -4.01587 0
M  V30 6571 H 636.562 -0.0956148 -0.65708 0
M  V30 6572 H 639.092 -0.898222 -1.83829 0
M  V30 6573 H 639.102 0.083632 -4.07914 0
M  V30 6574 H 637.777 -1.06719 -4.01975 0
M  V30 6575 H 636.354 0.72804 -3.65724 0
M  V30 6576 N 638.539 1.52521 -0.396863 0
M  V30 6577 C 639.769 2.05792 0.182485 0
M  V30 6578 C 640.177 1.26784 1.40436 0
M  V30 6579 O 639.52 0.309617 1.81072 0
M  V30 6580 C 639.582 3.54291 0.609781 0
M  V30 6581 C 639.246 4.5426 -0.499674 0
M  V30 6582 C 640.243 5.01812 -1.35944 0
M  V30 6583 C 637.928 4.97827 -0.668864 0
M  V30 6584 C 639.922 5.91562 -2.37346 0
M  V30 6585 C 637.609 5.87376 -1.68621 0
M  V30 6586 C 638.607 6.34137 -2.53692 0
M  V30 6587 O 638.295 7.21915 -3.53686 0
M  V30 6588 H 638.027 0.675362 0.0293583 0
M  V30 6589 H 640.581 1.97539 -0.56281 0
M  V30 6590 H 638.811 3.60188 1.40717 0
M  V30 6591 H 640.5 3.90267 1.11565 0
M  V30 6592 H 641.266 4.68879 -1.24008 0
M  V30 6593 H 637.145 4.60997 -0.0163971 0
M  V30 6594 H 640.689 6.27983 -3.03782 0
M  V30 6595 H 636.586 6.19723 -1.80593 0
M  V30 6596 H 637.354 7.39996 -3.49784 0
M  V30 6597 N 640.017 0.126909 1.57088 0
M  V30 6598 C 641.294 -0.573152 1.87014 0
M  V30 6599 C 641.674 -1.84297 1.02945 0
M  V30 6600 O 641.022 -2.28232 0.110573 0
M  V30 6601 C 641.232 -0.857984 3.38289 0
M  V30 6602 C 642.58 -1.20759 4.07066 0
M  V30 6603 O 643.604 -0.947992 3.43353 0
M  V30 6604 O 642.463 -1.69516 5.19545 0
M  V30 6605 H 639.557 -0.290082 0.774456 0
M  V30 6606 H 642.103 0.162008 1.68925 0
M  V30 6607 H 640.875 0.0415286 3.91278 0
M  V30 6608 H 640.498 -1.64803 3.61837 0
M  V30 6609 N 641.495 -1.56914 -0.146875 0
M  V30 6610 C 642.772 -1.74273 -0.888165 0
M  V30 6611 C 643.152 -0.69496 -1.99333 0
M  V30 6612 O 642.5 0.286093 -2.26702 0
M  V30 6613 C 642.71 -3.18336 -1.43051 0
M  V30 6614 C 644.058 -3.80024 -1.89387 0
M  V30 6615 O 645.082 -3.21765 -1.52792 0
M  V30 6616 O 643.941 -4.82367 -2.56874 0
M  V30 6617 H 641.035 -0.712565 -0.419738 0
M  V30 6618 H 643.581 -1.6918 -0.132791 0
M  V30 6619 H 642.353 -3.86092 -0.636274 0
M  V30 6620 H 641.976 -3.27854 -2.24938 0
M  V30 6621 N 642.974 0.416227 -1.52004 0
M  V30 6622 C 644.251 1.17637 -1.56272 0
M  V30 6623 C 644.631 2.08352 -0.339493 0
M  V30 6624 O 643.979 2.1833 0.674124 0
M  V30 6625 C 644.189 1.95986 -2.88774 0
M  V30 6626 C 645.537 2.52299 -3.41512 0
M  V30 6627 O 646.561 2.06174 -2.90467 0
M  V30 6628 O 645.42 3.3648 -4.30631 0
M  V30 6629 H 642.514 0.536726 -0.629169 0
M  V30 6630 H 645.06 0.423583 -1.64329 0
M  V30 6631 H 643.832 1.29487 -3.69254 0
M  V30 6632 H 643.455 2.78285 -2.83978 0
M  V30 6633 N 644.452 1.42507 0.673017 0
M  V30 6634 C 645.68 1.46473 1.46128 0
M  V30 6635 C 646.095 0.0765912 1.88645 0
M  V30 6636 O 645.452 -0.909057 1.58248 0
M  V30 6637 C 645.503 2.39339 2.70923 0
M  V30 6638 O 645.224 3.72752 2.3019 0
M  V30 6639 C 646.725 2.52343 3.64469 0
M  V30 6640 H 643.945 0.49812 0.449575 0
M  V30 6641 H 646.489 1.87041 0.826802 0
M  V30 6642 H 644.644 2.02019 3.30556 0
M  V30 6643 H 645.058 4.22503 3.10791 0
M  V30 6644 H 646.532 3.2144 4.48754 0
M  V30 6645 H 647.009 1.56189 4.1049 0
M  V30 6646 H 647.615 2.90392 3.10729 0
M  V30 6647 N 645.93 -0.909495 1.28709 0
M  V30 6648 C 646.862 -2.01729 1.08804 0
M  V30 6649 C 647.875 -1.62755 0.0384739 0
M  V30 6650 O 649.064 -1.76259 0.281977 0
M  V30 6651 C 646.164 -3.32952 0.63217 0
M  V30 6652 C 645.337 -4.00512 1.75809 0
M  V30 6653 C 644.396 -5.10019 1.29488 0
M  V30 6654 O 643.422 -5.32986 1.99787 0
M  V30 6655 N 644.624 -5.80278 0.1604 0
M  V30 6656 H 647.389 -2.19362 2.04207 0
M  V30 6657 H 644.95 -1.08106 1.20518 0
M  V30 6658 H 646.942 -4.03543 0.305802 0
M  V30 6659 H 645.512 -3.11759 -0.229134 0
M  V30 6660 H 644.732 -3.23413 2.25383 0
M  V30 6661 H 646.02 -4.42395 2.51325 0
M  V30 6662 H 645.418 -5.64094 -0.425937 0
M  V30 6663 H 643.975 -6.51713 -0.106663 0
M  V30 6664 N 647.408 -1.11026 -1.11852 0
M  V30 6665 C 648.338 -0.786812 -2.19844 0
M  V30 6666 C 649.319 0.242935 -1.68356 0
M  V30 6667 O 650.504 0.107355 -1.93903 0
M  V30 6668 C 647.634 -0.224516 -3.46574 0
M  V30 6669 C 646.588 -1.18564 -4.1125 0
M  V30 6670 C 645.914 -0.484261 -5.32503 0
M  V30 6671 C 647.214 -2.53465 -4.56676 0
M  V30 6672 H 648.908 -1.68978 -2.47158 0
M  V30 6673 H 646.454 -0.813906 -1.18792 0
M  V30 6674 H 648.407 0.0139435 -4.21398 0
M  V30 6675 H 647.131 0.713722 -3.18706 0
M  V30 6676 H 645.79 -1.40966 -3.38414 0
M  V30 6677 H 645.438 0.458646 -5.00905 0
M  V30 6678 H 645.138 -1.12526 -5.76725 0
M  V30 6679 H 646.662 -0.254492 -6.10069 0
M  V30 6680 H 648.076 -2.35177 -5.22843 0
M  V30 6681 H 646.473 -3.13507 -5.11697 0
M  V30 6682 H 647.543 -3.13008 -3.70343 0
M  V30 6683 N 648.886 1.2938 -0.899927 0
M  V30 6684 C 650.297 1.77644 -0.574427 0
M  V30 6685 C 650.648 1.73824 0.909928 0
M  V30 6686 O 649.773 1.32429 1.71147 0
M  V30 6687 C 650.368 3.22573 -1.03595 0
M  V30 6688 C 648.927 3.68614 -0.76161 0
M  V30 6689 C 648.074 2.49483 -1.21052 0
M  V30 6690 H 651.025 1.16038 -1.08263 0
M  V30 6691 H 651.046 3.78684 -0.371337 0
M  V30 6692 H 650.558 3.25321 -2.11631 0
M  V30 6693 H 648.659 3.7134 0.306127 0
M  V30 6694 H 648.772 4.59402 -1.35965 0
M  V30 6695 H 647.136 2.46798 -0.629515 0
M  V30 6696 H 647.919 2.54959 -2.29893 0
M  V30 6697 N 650.364 0.662433 1.43002 0
M  V30 6698 C 651.296 -0.062326 2.29115 0
M  V30 6699 C 652.309 -0.777926 1.43011 0
M  V30 6700 O 653.498 -0.634146 1.66856 0
M  V30 6701 C 650.598 -1.11163 3.2015 0
M  V30 6702 C 649.771 -0.472327 4.34842 0
M  V30 6703 C 648.83 -1.41974 5.06685 0
M  V30 6704 O 647.856 -0.924795 5.61637 0
M  V30 6705 N 649.058 -2.75345 5.11043 0
M  V30 6706 H 651.823 0.676838 2.91957 0
M  V30 6707 H 649.384 0.505907 1.53793 0
M  V30 6708 H 651.376 -1.74643 3.65078 0
M  V30 6709 H 649.946 -1.75266 2.58845 0
M  V30 6710 H 649.166 0.341751 3.92716 0
M  V30 6711 H 650.454 -0.0264381 5.08793 0
M  V30 6712 H 649.852 -3.18108 4.67786 0
M  V30 6713 H 648.409 -3.34105 5.59658 0
M  V30 6714 N 651.842 -1.52309 0.404946 0
M  V30 6715 C 653.091 -2.00952 -0.173529 0
M  V30 6716 C 653.404 -1.29512 -1.46581 0
M  V30 6717 O 654.61 -1.6895 -2.12528 0
M  V30 6718 C 653.066 -3.58097 -0.359801 0
M  V30 6719 C 652.674 -4.38449 0.920138 0
M  V30 6720 C 654.418 -4.14984 -0.893794 0
M  V30 6721 C 652.325 -5.87227 0.701285 0
M  V30 6722 H 651.255 -0.750871 -0.0686244 0
M  V30 6723 H 653.906 -1.75687 0.529749 0
M  V30 6724 H 652.288 -3.79675 -1.12531 0
M  V30 6725 H 653.462 -4.28633 1.69147 0
M  V30 6726 H 651.777 -3.92859 1.38024 0
M  V30 6727 H 654.374 -5.23813 -1.0735 0
M  V30 6728 H 654.717 -3.72072 -1.8673 0
M  V30 6729 H 655.25 -3.97358 -0.187453 0
M  V30 6730 H 651.989 -6.34491 1.64624 0
M  V30 6731 H 651.509 -5.99792 -0.0308288 0
M  V30 6732 H 653.188 -6.46096 0.341846 0
M  V30 6733 N 653.32 -0.135238 -1.57019 0
M  V30 6734 C 654.25 0.805235 -2.19176 0
M  V30 6735 C 655.231 1.2656 -1.13651 0
M  V30 6736 O 656.416 1.32528 -1.4195 0
M  V30 6737 C 653.546 2.04914 -2.80406 0
M  V30 6738 C 652.5 1.72598 -3.91655 0
M  V30 6739 C 651.826 3.04154 -4.39766 0
M  V30 6740 C 653.126 0.981709 -5.12991 0
M  V30 6741 H 654.82 0.287232 -2.98019 0
M  V30 6742 H 652.366 0.136714 -1.4335 0
M  V30 6743 H 654.319 2.71178 -3.22553 0
M  V30 6744 H 653.043 2.59067 -1.98877 0
M  V30 6745 H 651.702 1.08717 -3.50109 0
M  V30 6746 H 651.35 3.56274 -3.55075 0
M  V30 6747 H 651.05 2.83299 -5.14796 0
M  V30 6748 H 652.574 3.71509 -4.84576 0
M  V30 6749 H 653.988 1.5462 -5.52056 0
M  V30 6750 H 652.385 0.873533 -5.93708 0
M  V30 6751 H 653.455 -0.0286887 -4.84892 0
M  V30 6752 N 654.798 1.5699 0.138552 0
M  V30 6753 C 655.708 2.02174 1.19008 0
M  V30 6754 C 656.724 0.938622 1.46512 0
M  V30 6755 O 657.9 1.24872 1.58016 0
M  V30 6756 C 654.965 2.40045 2.50159 0
M  V30 6757 C 654.026 3.62346 2.30226 0
M  V30 6758 C 653.259 3.98401 3.55123 0
M  V30 6759 O 653.482 3.35019 4.61647 0
M  V30 6760 O 652.416 4.91606 3.47285 0
M  V30 6761 H 656.242 2.91954 0.836452 0
M  V30 6762 H 653.827 1.45293 0.347907 0
M  V30 6763 H 655.709 2.65225 3.27465 0
M  V30 6764 H 654.384 1.53417 2.85035 0
M  V30 6765 H 653.291 3.42341 1.50843 0
M  V30 6766 H 654.624 4.49617 2.00262 0
M  V30 6767 N 656.276 -0.40816 1.52223 0
M  V30 6768 C 657.223 -1.49737 1.75635 0
M  V30 6769 C 658.193 -1.5493 0.598824 0
M  V30 6770 O 659.378 -1.71487 0.83648 0
M  V30 6771 C 656.518 -2.87174 1.91376 0
M  V30 6772 C 655.631 -2.91283 3.19027 0
M  V30 6773 C 654.766 -4.20026 3.25195 0
M  V30 6774 C 653.805 -4.18113 4.47044 0
M  V30 6775 N 652.942 -5.38429 4.50598 0
M  V30 6776 H 657.782 -1.29075 2.68596 0
M  V30 6777 H 655.319 -0.626518 1.33091 0
M  V30 6778 H 657.277 -3.66959 1.98486 0
M  V30 6779 H 655.907 -3.06329 1.01795 0
M  V30 6780 H 654.959 -2.03984 3.21084 0
M  V30 6781 H 656.271 -2.85734 4.08849 0
M  V30 6782 H 655.425 -5.08204 3.31382 0
M  V30 6783 H 654.164 -4.28271 2.33313 0
M  V30 6784 H 653.169 -3.28325 4.41002 0
M  V30 6785 H 654.394 -4.11507 5.40221 0
M  V30 6786 H 652.34 -5.4734 3.616 0
M  V30 6787 H 652.257 -5.34879 5.34266 0
M  V30 6788 H 653.525 -6.28557 4.61016 0
M  V30 6789 N 657.755 -1.42862 -0.66545 0
M  V30 6790 C 658.685 -1.49867 -1.79059 0
M  V30 6791 C 659.666 -0.354394 -1.66367 0
M  V30 6792 O 660.851 -0.569969 -1.85647 0
M  V30 6793 C 657.981 -1.40943 -3.17415 0
M  V30 6794 C 656.935 -2.53495 -3.44854 0
M  V30 6795 C 656.261 -2.29626 -4.82883 0
M  V30 6796 C 657.561 -3.95781 -3.40815 0
M  V30 6797 H 659.255 -2.44037 -1.73453 0
M  V30 6798 H 656.801 -1.17456 -0.833071 0
M  V30 6799 H 658.754 -1.4445 -3.95869 0
M  V30 6800 H 657.478 -0.432716 -3.23721 0
M  V30 6801 H 656.137 -2.4932 -2.68766 0
M  V30 6802 H 655.785 -1.30226 -4.8585 0
M  V30 6803 H 655.485 -3.05065 -5.02204 0
M  V30 6804 H 657.009 -2.34897 -5.63609 0
M  V30 6805 H 658.423 -4.01508 -4.09224 0
M  V30 6806 H 656.82 -4.71148 -3.71672 0
M  V30 6807 H 657.89 -4.21786 -2.39216 0
M  V30 6808 N 659.233 0.902656 -1.29189 0
M  V30 6809 C 660.143 2.03946 -1.15944 0
M  V30 6810 C 661.159 1.738 -0.0833803 0
M  V30 6811 O 662.335 1.9923 -0.29487 0
M  V30 6812 C 659.4 3.36519 -0.834006 0
M  V30 6813 C 658.461 3.80203 -1.9936 0
M  V30 6814 C 657.694 5.06449 -1.68359 0
M  V30 6815 O 657.917 5.67202 -0.603141 0
M  V30 6816 O 656.851 5.46114 -2.53067 0
M  V30 6817 H 660.677 2.18043 -2.11403 0
M  V30 6818 H 658.262 1.02584 -1.08613 0
M  V30 6819 H 660.144 4.16089 -0.666949 0
M  V30 6820 H 658.819 3.23573 0.0908245 0
M  V30 6821 H 657.726 3.01413 -2.21588 0
M  V30 6822 H 659.059 3.97729 -2.89952 0
M  V30 6823 N 660.711 1.11618 1.11262 0
M  V30 6824 C 662.127 0.850468 1.35053 0
M  V30 6825 C 662.327 -0.523868 1.94571 0
M  V30 6826 O 661.383 -1.2743 2.17986 0
M  V30 6827 C 662.696 1.96005 2.28041 0
M  V30 6828 C 664.244 1.98993 2.416 0
M  V30 6829 C 664.719 3.0916 3.37911 0
M  V30 6830 N 666.21 3.08547 3.45475 0
M  V30 6831 C 666.945 3.9043 4.19943 0
M  V30 6832 N 666.441 4.8228 4.97371 0
M  V30 6833 N 668.234 3.786 4.15474 0
M  V30 6834 H 660.385 2.00184 0.709932 0
M  V30 6835 H 662.648 0.870635 0.375099 0
M  V30 6836 H 662.354 2.9499 1.91503 0
M  V30 6837 H 662.228 1.85782 3.28275 0
M  V30 6838 H 664.615 1.00633 2.77411 0
M  V30 6839 H 664.696 2.13292 1.4121 0
M  V30 6840 H 664.34 4.07748 3.02827 0
M  V30 6841 H 664.27 2.92102 4.3816 0
M  V30 6842 H 666.761 2.42 2.90249 0
M  V30 6843 H 667.074 5.41289 5.51567 0
M  V30 6844 H 665.419 4.863 4.96525 0
M  V30 6845 H 668.61 3.06185 3.54074 0
M  V30 6846 H 668.783 4.42647 4.73253 0
M  V30 6847 N 662.189 -1.289 0.906776 0
M  V30 6848 C 663.152 -2.25777 0.394656 0
M  V30 6849 C 664.152 -1.53621 -0.475119 0
M  V30 6850 O 665.342 -1.71949 -0.279165 0
M  V30 6851 C 662.474 -3.38113 -0.43499 0
M  V30 6852 H 663.667 -2.72592 1.25033 0
M  V30 6853 H 661.22 -1.40463 0.685547 0
M  V30 6854 H 661.955 -2.96648 -1.31036 0
M  V30 6855 H 661.74 -3.91647 0.188334 0
M  V30 6856 H 663.23 -4.10168 -0.784365 0
M  V30 6857 N 663.667 -0.670007 -1.42649 0
M  V30 6858 C 664.892 -0.196955 -2.06463 0
M  V30 6859 C 665.317 1.1352 -1.49983 0
M  V30 6860 O 664.675 1.705 -0.616397 0
M  V30 6861 C 664.723 -0.137381 -3.60338 0
M  V30 6862 O 663.827 0.895523 -4.02559 0
M  V30 6863 H 663.168 -0.102579 -0.656029 0
M  V30 6864 H 665.698 -0.917669 -1.82866 0
M  V30 6865 H 665.708 0.0403625 -4.0798 0
M  V30 6866 H 664.383 -1.10977 -4.0082 0
M  V30 6867 H 662.96 0.689209 -3.66476 0
M  V30 6868 N 665.145 1.52092 -0.413018 0
M  V30 6869 C 666.373 2.06274 0.160881 0
M  V30 6870 C 666.788 1.28273 1.38533 0
M  V30 6871 O 666.145 0.33563 1.79387 0
M  V30 6872 C 666.196 3.57921 0.507443 0
M  V30 6873 O 665.917 4.32971 -0.668388 0
M  V30 6874 C 667.418 4.28533 1.13465 0
M  V30 6875 H 664.638 0.67074 0.0186759 0
M  V30 6876 H 667.182 1.95951 -0.585092 0
M  V30 6877 H 665.337 3.68238 1.20331 0
M  V30 6878 H 665.751 5.23135 -0.378169 0
M  V30 6879 H 667.225 5.35804 1.32732 0
M  V30 6880 H 667.702 3.85258 2.10886 0
M  V30 6881 H 668.308 4.22595 0.478876 0
M  V30 6882 N 666.623 0.143563 1.56945 0
M  V30 6883 C 667.57 -0.797433 2.16586 0
M  V30 6884 C 668.54 -1.24654 1.09775 0
M  V30 6885 O 669.725 -1.31968 1.37801 0
M  V30 6886 C 666.865 -2.03253 2.78895 0
M  V30 6887 C 665.978 -1.62954 4.00087 0
M  V30 6888 C 665.113 -2.81617 4.50406 0
M  V30 6889 C 664.152 -2.37675 5.64072 0
M  V30 6890 N 663.289 -3.49335 6.09023 0
M  V30 6891 H 668.129 -0.282023 2.96662 0
M  V30 6892 H 665.666 -0.127494 1.46546 0
M  V30 6893 H 667.624 -2.75653 3.13163 0
M  V30 6894 H 666.254 -2.52211 2.01469 0
M  V30 6895 H 665.306 -0.803322 3.71821 0
M  V30 6896 H 666.618 -1.26679 4.82446 0
M  V30 6897 H 665.772 -3.62212 4.86711 0
M  V30 6898 H 664.511 -3.21134 3.67048 0
M  V30 6899 H 663.516 -1.55519 5.27346 0
M  V30 6900 H 664.741 -1.99247 6.49213 0
M  V30 6901 H 662.687 -3.8848 5.28601 0
M  V30 6902 H 662.604 -3.17064 6.86299 0
M  V30 6903 H 663.872 -4.30297 6.49973 0
M  V30 6904 N 668.101 -1.57061 -0.130224 0
M  V30 6905 C 669.034 -1.94698 -1.19029 0
M  V30 6906 C 670.012 -0.815074 -1.40696 0
M  V30 6907 O 671.196 -1.07223 -1.55034 0
M  V30 6908 C 668.323 -2.23352 -2.5462 0
M  V30 6909 C 667.369 -3.45945 -2.49448 0
M  V30 6910 S 668.202 -4.98927 -1.94505 0
M  V30 6911 C 669.358 -5.30721 -3.31792 0
M  V30 6912 H 669.591 -2.84308 -0.869272 0
M  V30 6913 H 667.124 -1.50688 -0.336531 0
M  V30 6914 H 669.082 -2.40539 -3.32643 0
M  V30 6915 H 667.743 -1.34376 -2.83905 0
M  V30 6916 H 666.936 -3.63324 -3.49302 0
M  V30 6917 H 666.538 -3.28086 -1.79543 0
M  V30 6918 H 668.83 -5.25215 -4.27966 0
M  V30 6919 H 669.773 -6.32048 -3.19251 0
M  V30 6920 H 670.181 -4.5821 -3.29703 0
M  V30 6921 N 669.579 0.400081 -1.52437 0
M  V30 6922 C 670.509 1.4947 -1.7939 0
M  V30 6923 C 671.49 1.57383 -0.645329 0
M  V30 6924 O 672.675 1.72511 -0.891826 0
M  V30 6925 C 669.805 2.87201 -1.95276 0
M  V30 6926 C 668.759 2.94134 -3.10917 0
M  V30 6927 C 668.085 4.34207 -3.1204 0
M  V30 6928 C 669.385 2.64791 -4.50203 0
M  V30 6929 H 671.079 1.27165 -2.71052 0
M  V30 6930 H 668.625 0.610312 -1.30427 0
M  V30 6931 H 670.578 3.63772 -2.12715 0
M  V30 6932 H 669.302 3.10819 -1.00294 0
M  V30 6933 H 667.961 2.20009 -2.93243 0
M  V30 6934 H 667.609 4.54848 -2.14761 0
M  V30 6935 H 667.309 4.39768 -3.89715 0
M  V30 6936 H 668.833 5.127 -3.31619 0
M  V30 6937 H 670.247 3.31083 -4.68035 0
M  V30 6938 H 668.644 2.81717 -5.29864 0
M  V30 6939 H 669.714 1.60184 -4.57678 0
M  V30 6940 N 671.057 1.43213 0.657864 0
M  V30 6941 C 672.334 1.35063 1.41483 0
M  V30 6942 C 672.714 -0.0038314 2.111 0
M  V30 6943 O 672.062 -1.02018 2.04462 0
M  V30 6944 C 672.272 2.53061 2.40335 0
M  V30 6945 C 673.62 2.9594 3.04474 0
M  V30 6946 O 674.644 2.53074 2.50663 0
M  V30 6947 O 673.503 3.70184 4.02027 0
M  V30 6948 H 670.597 0.533517 0.631893 0
M  V30 6949 H 673.143 1.55253 0.685162 0
M  V30 6950 H 671.915 3.43283 1.87809 0
M  V30 6951 H 671.538 2.34945 3.20759 0
M  V30 6952 N 672.536 -0.895792 1.29666 0
M  V30 6953 C 673.952 -1.17726 1.07763 0
M  V30 6954 C 674.152 -2.00794 -0.168576 0
M  V30 6955 O 673.208 -2.37213 -0.865244 0
M  V30 6956 C 674.521 -1.89441 2.33522 0
M  V30 6957 C 676.069 -2.02251 2.3888 0
M  V30 6958 C 676.544 -2.77378 3.64452 0
M  V30 6959 N 678.035 -2.8493 3.65198 0
M  V30 6960 C 678.77 -3.43606 4.59045 0
M  V30 6961 N 678.266 -4.03417 5.63228 0
M  V30 6962 N 680.059 -3.41317 4.46608 0
M  V30 6963 H 672.21 -0.341652 2.09634 0
M  V30 6964 H 674.473 -0.213865 0.923561 0
M  V30 6965 H 674.179 -1.35842 3.24407 0
M  V30 6966 H 674.053 -2.89893 2.41334 0
M  V30 6967 H 676.44 -2.55025 1.4848 0
M  V30 6968 H 676.521 -1.0092 2.3505 0
M  V30 6969 H 676.165 -2.25279 4.55205 0
M  V30 6970 H 676.095 -3.79062 3.65541 0
M  V30 6971 H 678.586 -2.42453 2.89871 0
M  V30 6972 H 678.899 -4.46224 6.30955 0
M  V30 6973 H 677.244 -4.01868 5.67033 0
M  V30 6974 H 680.435 -2.93812 3.64407 0
M  V30 6975 H 680.608 -3.86751 5.1993 0
M  V30 6976 N 674.014 -1.12206 -1.10668 0
M  V30 6977 C 675.26 -0.887096 -1.83036 0
M  V30 6978 C 675.615 0.580887 -1.83422 0
M  V30 6979 O 674.908 1.42379 -1.28213 0
M  V30 6980 C 675.102 -1.39276 -3.29146 0
M  V30 6981 C 674.931 -2.90837 -3.42992 0
M  V30 6982 C 673.701 -3.59047 -3.55546 0
M  V30 6983 C 675.899 -3.8885 -3.36601 0
M  V30 6984 N 673.881 -4.98747 -3.57945 0
M  V30 6985 C 675.252 -5.14666 -3.45716 0
M  V30 6986 C 677.307 -3.81296 -3.20184 0
M  V30 6987 C 676.01 -6.33814 -3.40106 0
M  V30 6988 C 678.036 -4.99965 -3.15895 0
M  V30 6989 C 677.398 -6.24637 -3.25589 0
M  V30 6990 H 673.497 -0.377857 -0.684652 0
M  V30 6991 H 676.081 -1.42791 -1.32358 0
M  V30 6992 H 674.252 -0.879026 -3.78322 0
M  V30 6993 H 675.984 -1.10011 -3.89461 0
M  V30 6994 H 672.739 -3.09533 -3.5845 0
M  V30 6995 H 673.163 -5.71606 -3.62762 0
M  V30 6996 H 677.805 -2.85806 -3.11569 0
M  V30 6997 H 675.523 -7.29574 -3.47487 0
M  V30 6998 H 679.109 -4.95847 -3.04347 0
M  V30 6999 H 677.989 -7.14921 -3.22269 0
M  V30 7000 N 675.492 1.28418 -0.913599 0
M  V30 7001 C 676.717 1.99643 -0.561899 0
M  V30 7002 C 677.142 1.67819 0.849608 0
M  V30 7003 O 676.5 0.910503 1.56779 0
M  V30 7004 C 676.548 3.52116 -0.777622 0
M  V30 7005 O 675.652 4.12076 0.163457 0
M  V30 7006 H 674.993 0.627229 -0.217898 0
M  V30 7007 H 677.523 1.63575 -1.229 0
M  V30 7008 H 677.533 4.02163 -0.687666 0
M  V30 7009 H 676.208 3.74613 -1.8066 0
M  V30 7010 H 674.785 3.72892 0.0247827 0
M  V30 7011 N 676.97 0.677563 1.42291 0
M  V30 7012 C 678.219 0.198173 2.00724 0
M  V30 7013 C 678.532 -1.20325 1.54211 0
M  V30 7014 O 679.738 -1.77916 2.05081 0
M  V30 7015 C 678.194 0.303432 3.58619 0
M  V30 7016 C 677.802 1.70909 4.14119 0
M  V30 7017 C 679.546 -0.117103 4.24338 0
M  V30 7018 C 677.453 1.76696 5.64387 0
M  V30 7019 H 676.383 0.070329 0.750713 0
M  V30 7020 H 679.034 0.843147 1.62982 0
M  V30 7021 H 677.416 -0.409482 3.93877 0
M  V30 7022 H 678.59 2.44931 3.90315 0
M  V30 7023 H 676.905 2.07771 3.6086 0
M  V30 7024 H 679.502 -0.0940471 5.34617 0
M  V30 7025 H 679.845 -1.15283 4.00019 0
M  V30 7026 H 680.378 0.5449 3.9405 0
M  V30 7027 H 677.117 2.7826 5.93508 0
M  V30 7028 H 676.637 1.07034 5.90173 0
M  V30 7029 H 678.316 1.52166 6.28852 0
M  V30 7030 N 678.448 -1.51871 0.421078 0
M  V30 7031 C 679.381 -2.23851 -0.443369 0
M  V30 7032 C 680.359 -1.25142 -1.03818 0
M  V30 7033 O 681.543 -1.5423 -1.08377 0
M  V30 7034 C 678.67 -2.97637 -1.61648 0
M  V30 7035 C 677.716 -4.10873 -1.14391 0
M  V30 7036 S 678.549 -5.35408 -0.0992403 0
M  V30 7037 C 679.705 -6.12726 -1.27739 0
M  V30 7038 H 679.938 -2.96826 0.167786 0
M  V30 7039 H 677.471 -1.53027 0.205461 0
M  V30 7040 H 679.429 -3.40751 -2.28909 0
M  V30 7041 H 678.09 -2.24282 -2.199 0
M  V30 7042 H 677.283 -4.61718 -2.02069 0
M  V30 7043 H 676.885 -3.69937 -0.549775 0
M  V30 7044 H 679.177 -6.40827 -2.19881 0
M  V30 7045 H 680.12 -7.03461 -0.809239 0
M  V30 7046 H 680.528 -5.43968 -1.5086 0
M  V30 7047 N 679.926 -0.151884 -1.56866 0
M  V30 7048 C 681.154 0.504813 -2.00647 0
M  V30 7049 C 681.569 1.58098 -1.03201 0
M  V30 7050 O 680.926 1.82476 -0.0297814 0
M  V30 7051 C 680.977 1.10099 -3.44326 0
M  V30 7052 O 680.698 0.0678021 -4.38048 0
M  V30 7053 C 682.199 1.83782 -4.03409 0
M  V30 7054 H 679.419 0.130989 -0.65809 0
M  V30 7055 H 681.963 -0.247903 -2.02992 0
M  V30 7056 H 680.118 1.8043 -3.42817 0
M  V30 7057 H 680.532 0.505237 -5.22061 0
M  V30 7058 H 682.006 2.2078 -5.05925 0
M  V30 7059 H 682.483 2.72557 -3.44397 0
M  V30 7060 H 683.089 1.18138 -4.08563 0
M  V30 7061 N 681.404 1.57128 0.121893 0
M  V30 7062 C 682.634 1.88609 0.843227 0
M  V30 7063 C 683.042 0.740917 1.74089 0
M  V30 7064 O 682.385 -0.297426 1.81276 0
M  V30 7065 C 682.447 3.15073 1.73117 0
M  V30 7066 C 682.111 4.45742 1.0081 0
M  V30 7067 C 683.108 5.18719 0.350255 0
M  V30 7068 C 680.793 4.92444 0.99014 0
M  V30 7069 C 682.787 6.36617 -0.315889 0
M  V30 7070 C 680.474 6.10261 0.320196 0
M  V30 7071 C 681.472 6.82194 -0.331666 0
M  V30 7072 O 681.16 7.97769 -0.990927 0
M  V30 7073 H 680.892 0.628919 0.247865 0
M  V30 7074 H 683.446 2.05096 0.111725 0
M  V30 7075 H 681.676 2.9466 2.50424 0
M  V30 7076 H 683.365 3.32597 2.32667 0
M  V30 7077 H 684.131 4.83693 0.35577 0
M  V30 7078 H 680.01 4.36361 1.48695 0
M  V30 7079 H 683.554 6.92701 -0.825272 0
M  V30 7080 H 679.451 6.44743 0.312433 0
M  V30 7081 H 680.219 8.13591 -0.895113 0
M  V30 7082 N 682.882 -0.391992 1.52647 0
M  V30 7083 C 683.792 -1.503 1.80131 0
M  V30 7084 C 684.808 -1.59825 0.687882 0
M  V30 7085 O 685.984 -1.76218 0.975149 0
M  V30 7086 C 683.049 -2.85863 1.96171 0
M  V30 7087 C 682.11 -2.86084 3.20085 0
M  V30 7088 C 681.343 -4.15181 3.35351 0
M  V30 7089 O 681.566 -5.09981 2.55491 0
M  V30 7090 O 680.5 -4.22603 4.28591 0
M  V30 7091 H 684.326 -1.30007 2.74466 0
M  V30 7092 H 681.911 -0.579539 1.37701 0
M  V30 7093 H 683.793 -3.66236 2.08445 0
M  V30 7094 H 682.468 -3.06189 1.05025 0
M  V30 7095 H 681.375 -2.04504 3.13256 0
M  V30 7096 H 682.708 -2.7071 4.11068 0
M  V30 7097 N 684.36 -1.4356 -0.65026 0
M  V30 7098 C 685.29 -1.51758 -1.77459 0
M  V30 7099 C 686.271 -0.372019 -1.65982 0
M  V30 7100 O 687.456 -0.589627 -1.85033 0
M  V30 7101 C 684.586 -1.44302 -3.15902 0
M  V30 7102 C 683.54 -2.57138 -3.42146 0
M  V30 7103 C 682.866 -2.34735 -4.8042 0
M  V30 7104 C 684.166 -3.99373 -3.36598 0
M  V30 7105 H 685.86 -2.45863 -1.70855 0
M  V30 7106 H 683.406 -1.18333 -0.820566 0
M  V30 7107 H 685.359 -1.48641 -3.94314 0
M  V30 7108 H 684.083 -0.467026 -3.23244 0
M  V30 7109 H 682.742 -2.52157 -2.66106 0
M  V30 7110 H 682.39 -1.35372 -4.84441 0
M  V30 7111 H 682.09 -3.10375 -4.9894 0
M  V30 7112 H 683.614 -2.40862 -5.61086 0
M  V30 7113 H 685.028 -4.05826 -4.04942 0
M  V30 7114 H 683.425 -4.75063 -3.66654 0
M  V30 7115 H 684.495 -4.243 -2.34729 0
M  V30 7116 N 685.838 0.888903 -1.30139 0
M  V30 7117 C 686.785 1.99422 -1.16188 0
M  V30 7118 C 687.755 1.66017 -0.0523869 0
M  V30 7119 O 688.94 1.89506 -0.221864 0
M  V30 7120 C 686.08 3.34325 -0.855612 0
M  V30 7121 C 685.193 3.80445 -2.0466 0
M  V30 7122 C 684.328 5.03975 -1.67876 0
M  V30 7123 C 683.367 5.42492 -2.83493 0
M  V30 7124 N 682.504 6.57206 -2.47032 0
M  V30 7125 H 687.344 2.10687 -2.10749 0
M  V30 7126 H 684.881 1.03165 -1.04859 0
M  V30 7127 H 686.839 4.11968 -0.658681 0
M  V30 7128 H 685.469 3.22756 0.0531155 0
M  V30 7129 H 684.521 2.98745 -2.3549 0
M  V30 7130 H 685.833 4.04933 -2.91257 0
M  V30 7131 H 684.987 5.89232 -1.44535 0
M  V30 7132 H 683.726 4.8135 -0.784431 0
M  V30 7133 H 682.731 4.55764 -3.07505 0
M  V30 7134 H 683.956 5.67093 -3.73607 0
M  V30 7135 H 681.902 6.36164 -1.601 0
M  V30 7136 H 681.819 6.81543 -3.27161 0
M  V30 7137 H 683.087 7.45704 -2.27038 0
M  V30 7138 N 687.317 1.12792 1.10072 0
M  V30 7139 C 688.247 0.821688 2.18565 0
M  V30 7140 C 689.228 -0.21612 1.68721 0
M  V30 7141 O 690.413 -0.0764932 1.94049 0
M  V30 7142 C 687.543 0.279624 3.46172 0
M  V30 7143 C 686.497 1.25092 4.09312 0
M  V30 7144 C 685.823 0.568916 5.31665 0
M  V30 7145 C 687.123 2.60699 4.52585 0
M  V30 7146 H 688.817 1.72888 2.44438 0
M  V30 7147 H 686.363 0.832702 1.17482 0
M  V30 7148 H 688.316 0.053099 4.21367 0
M  V30 7149 H 687.04 -0.662929 3.19801 0
M  V30 7150 H 685.699 1.46332 3.36129 0
M  V30 7151 H 685.347 -0.378898 5.01571 0
M  V30 7152 H 685.047 1.21687 5.74862 0
M  V30 7153 H 686.571 0.351517 6.09587 0
M  V30 7154 H 687.985 2.43465 5.19035 0
M  V30 7155 H 686.382 3.21608 5.06644 0
M  V30 7156 H 687.452 3.1886 3.65317 0
M  V30 7157 N 688.795 -1.27931 0.920396 0
M  V30 7158 C 690.206 -1.76707 0.602616 0
M  V30 7159 C 690.557 -1.75249 -0.882159 0
M  V30 7160 O 689.682 -1.35135 -1.69019 0
M  V30 7161 C 690.277 -3.20884 1.08714 0
M  V30 7162 C 688.836 -3.67356 0.820157 0
M  V30 7163 C 687.983 -2.47525 1.25006 0
M  V30 7164 H 690.934 -1.14301 1.10095 0
M  V30 7165 H 690.955 -3.78045 0.431535 0
M  V30 7166 H 690.467 -3.21913 2.1678 0
M  V30 7167 H 688.568 -3.7178 -0.247012 0
M  V30 7168 H 688.681 -4.57181 1.43257 0
M  V30 7169 H 687.045 -2.45765 0.668698 0
M  V30 7170 H 687.828 -2.51269 2.3392 0
M  V30 7171 N 690.273 -0.685099 -1.4193 0
M  V30 7172 C 691.684 -0.287699 -1.8447 0
M  V30 7173 C 692.035 1.17215 -1.57338 0
M  V30 7174 O 691.16 1.89856 -1.03845 0
M  V30 7175 C 691.755 -0.515385 -3.34857 0
M  V30 7176 C 690.314 -0.172006 -3.76007 0
M  V30 7177 C 689.461 -0.802808 -2.65425 0
M  V30 7178 H 692.412 -0.88652 -1.3163 0
M  V30 7179 H 692.433 0.229251 -3.79809 0
M  V30 7180 H 691.945 -1.57796 -3.54573 0
M  V30 7181 H 690.046 0.886716 -3.61895 0
M  V30 7182 H 690.159 -0.619717 -4.75075 0
M  V30 7183 H 688.523 -0.233267 -2.5363 0
M  V30 7184 H 689.306 -1.86904 -2.87961 0
M  V30 7185 N 691.751 1.51645 -0.429126 0
M  V30 7186 C 692.698 2.27542 0.386446 0
M  V30 7187 C 693.668 1.30786 1.02393 0
M  V30 7188 O 694.853 1.59678 1.0444 0
M  V30 7189 C 691.993 3.11457 1.48623 0
M  V30 7190 C 691.106 4.23196 0.867691 0
M  V30 7191 C 690.241 4.94435 1.94183 0
M  V30 7192 C 689.28 5.98108 1.30129 0
M  V30 7193 N 688.417 6.62786 2.31644 0
M  V30 7194 H 693.257 2.968 -0.267155 0
M  V30 7195 H 690.794 1.46397 -0.143591 0
M  V30 7196 H 692.752 3.58429 2.13506 0
M  V30 7197 H 691.382 2.44329 2.10957 0
M  V30 7198 H 690.434 3.80248 0.107373 0
M  V30 7199 H 691.746 4.97499 0.35997 0
M  V30 7200 H 690.9 5.44914 2.66747 0
M  V30 7201 H 689.639 4.19744 2.48326 0
M  V30 7202 H 688.644 5.4693 0.561082 0
M  V30 7203 H 689.869 6.74751 0.767303 0
M  V30 7204 H 687.815 5.90913 2.84883 0
M  V30 7205 H 687.732 7.32828 1.85741 0
M  V30 7206 H 689 7.17897 3.03717 0
M  V30 7207 N 693.229 0.160201 1.56784 0
M  V30 7208 C 694.192 -0.760405 2.16219 0
M  V30 7209 C 695.192 -1.16595 1.10735 0
M  V30 7210 O 696.382 -1.08472 1.36306 0
M  V30 7211 C 693.514 -2.03358 2.73603 0
M  V30 7212 H 694.707 -0.243173 2.98912 0
M  V30 7213 H 692.26 -0.0893139 1.56045 0
M  V30 7214 H 692.995 -2.59416 1.94612 0
M  V30 7215 H 692.78 -1.75186 3.50788 0
M  V30 7216 H 694.27 -2.69081 3.19351 0
M  V30 7217 N 694.707 -1.5719 -0.113559 0
M  V30 7218 C 695.932 -1.89702 -0.838336 0
M  V30 7219 C 696.357 -0.752679 -1.72384 0
M  V30 7220 O 695.715 0.296575 -1.78858 0
M  V30 7221 C 695.763 -3.20989 -1.64312 0
M  V30 7222 O 694.867 -3.07278 -2.75053 0
M  V30 7223 H 694.208 -0.622339 -0.231496 0
M  V30 7224 H 696.738 -2.04382 -0.0943228 0
M  V30 7225 H 696.748 -3.53843 -2.03123 0
M  V30 7226 H 695.423 -4.03869 -0.993119 0
M  V30 7227 H 694 -2.85901 -2.39406 0
M  V30 7228 N 696.185 0.383891 -1.52853 0
M  V30 7229 C 697.115 1.47559 -1.80965 0
M  V30 7230 C 698.096 1.5669 -0.661986 0
M  V30 7231 O 699.281 1.71556 -0.910072 0
M  V30 7232 C 696.411 2.85114 -1.98312 0
M  V30 7233 C 695.365 2.9082 -3.14019 0
M  V30 7234 C 694.691 4.30873 -3.16627 0
M  V30 7235 C 695.991 2.60001 -4.52986 0
M  V30 7236 H 697.685 1.24283 -2.72386 0
M  V30 7237 H 695.231 0.596445 -1.31067 0
M  V30 7238 H 697.184 3.61496 -2.16561 0
M  V30 7239 H 695.908 3.09738 -1.03585 0
M  V30 7240 H 694.567 2.16886 -2.9556 0
M  V30 7241 H 694.215 4.52545 -2.19573 0
M  V30 7242 H 693.915 4.3561 -3.94357 0
M  V30 7243 H 695.439 5.09154 -3.37038 0
M  V30 7244 H 696.853 3.261 -4.71521 0
M  V30 7245 H 695.25 2.76081 -5.32822 0
M  V30 7246 H 696.32 1.5532 -4.59351 0
M  V30 7247 N 697.663 1.43903 0.642637 0
M  V30 7248 C 698.593 1.52697 1.76652 0
M  V30 7249 C 699.574 0.380816 1.65782 0
M  V30 7250 O 700.759 0.599432 1.84717 0
M  V30 7251 C 697.889 1.45975 3.15133 0
M  V30 7252 C 696.843 2.58949 3.40778 0
M  V30 7253 C 696.169 2.37279 4.79169 0
M  V30 7254 C 697.469 4.01153 3.34475 0
M  V30 7255 H 699.163 2.46766 1.69549 0
M  V30 7256 H 696.709 1.18767 0.814279 0
M  V30 7257 H 698.662 1.5073 3.93521 0
M  V30 7258 H 697.386 0.484162 3.22991 0
M  V30 7259 H 696.045 2.53564 2.64765 0
M  V30 7260 H 695.693 1.37939 4.83717 0
M  V30 7261 H 695.393 3.13016 4.97287 0
M  V30 7262 H 696.917 2.43834 5.59801 0
M  V30 7263 H 698.331 4.07968 4.02784 0
M  V30 7264 H 696.728 4.77001 3.64129 0
M  V30 7265 H 697.798 4.25539 2.32475 0
M  V30 7266 N 699.141 -0.881989 1.30609 0
M  V30 7267 C 700.552 -1.44956 1.17664 0
M  V30 7268 C 700.903 -1.94945 -0.221531 0
M  V30 7269 O 700.028 -1.85257 -1.11844 0
M  V30 7270 C 700.623 -2.63474 2.12995 0
M  V30 7271 C 699.182 -3.16312 2.04019 0
M  V30 7272 C 698.329 -1.89008 2.02907 0
M  V30 7273 H 701.28 -0.691645 1.42835 0
M  V30 7274 H 701.301 -3.39783 1.71253 0
M  V30 7275 H 700.813 -2.2706 3.14746 0
M  V30 7276 H 698.914 -3.57376 1.0542 0
M  V30 7277 H 699.027 -3.79409 2.9255 0
M  V30 7278 H 697.391 -2.07465 1.47751 0
M  V30 7279 H 698.174 -1.54848 3.06394 0
M  V30 7280 N 700.619 -1.13374 -1.09472 0
M  V30 7281 C 701.867 -0.893422 -1.8128 0
M  V30 7282 C 702.188 0.582029 -1.86111 0
M  V30 7283 O 701.458 1.42305 -1.34633 0
M  V30 7284 H 700.038 -0.327543 -0.67136 0
M  V30 7285 H 702.7 -1.43018 -1.32408 0
M  V30 7286 H 701.796 -1.28374 -2.84476 0
M  V30 7287 N 702.098 1.27442 -0.927168 0
M  V30 7288 C 703.509 1.76385 -0.611979 0
M  V30 7289 C 703.86 1.75715 0.872853 0
M  V30 7290 O 702.985 1.3603 1.683 0
M  V30 7291 C 703.58 3.20303 -1.10414 0
M  V30 7292 C 702.139 3.66916 -0.839628 0
M  V30 7293 C 701.286 2.46859 -1.26317 0
M  V30 7294 H 704.237 1.13716 -1.107 0
M  V30 7295 H 704.258 3.77811 -0.451578 0
M  V30 7296 H 703.77 3.20759 -2.18484 0
M  V30 7297 H 701.871 3.71906 0.227292 0
M  V30 7298 H 701.984 4.56415 -1.45679 0
M  V30 7299 H 700.348 2.45407 -0.681723 0
M  V30 7300 H 701.131 2.50025 -2.3525 0
M  V30 7301 N 703.576 0.692616 1.41565 0
M  V30 7302 C 704.987 0.297478 1.84315 0
M  V30 7303 C 705.338 -1.16379 1.57957 0
M  V30 7304 O 704.463 -1.89303 1.0485 0
M  V30 7305 C 705.058 0.533136 3.34579 0
M  V30 7306 C 703.617 0.191944 3.7591 0
M  V30 7307 C 702.764 0.816873 2.64995 0
M  V30 7308 H 705.715 0.893488 1.31158 0
M  V30 7309 H 705.736 -0.209105 3.79925 0
M  V30 7310 H 705.248 1.59674 3.53731 0
M  V30 7311 H 703.349 -0.867512 3.6236 0
M  V30 7312 H 703.462 0.644902 4.7474 0
M  V30 7313 H 701.826 0.246715 2.53502 0
M  V30 7314 H 702.609 1.88429 2.86966 0
M  V30 7315 N 705.054 -1.51416 0.437162 0
M  V30 7316 C 705.964 -2.31493 -0.380537 0
M  V30 7317 C 706.98 -1.40399 -1.02782 0
M  V30 7318 O 708.156 -1.73471 -1.02323 0
M  V30 7319 C 705.221 -3.1413 -1.46709 0
M  V30 7320 C 704.282 -4.21003 -0.839953 0
M  V30 7321 C 703.515 -4.9969 -1.87473 0
M  V30 7322 O 703.738 -4.79008 -3.09689 0
M  V30 7323 O 702.672 -5.8379 -1.46536 0
M  V30 7324 H 706.498 -3.02469 0.273183 0
M  V30 7325 H 704.083 -1.48059 0.199706 0
M  V30 7326 H 705.965 -3.65505 -2.09724 0
M  V30 7327 H 704.64 -2.45919 -2.10489 0
M  V30 7328 H 703.547 -3.73706 -0.171752 0
M  V30 7329 H 704.88 -4.91587 -0.245638 0
M  V30 7330 N 706.532 -0.168513 -1.56696 0
M  V30 7331 C 707.495 0.748928 -2.16619 0
M  V30 7332 C 708.495 1.16007 -1.11351 0
M  V30 7333 O 709.685 1.07748 -1.3688 0
M  V30 7334 C 706.817 2.01904 -2.74677 0
M  V30 7335 H 708.01 0.227317 -2.99037 0
M  V30 7336 H 705.563 0.0810372 -1.5609 0
M  V30 7337 H 706.298 2.58381 -1.95985 0
M  V30 7338 H 706.083 1.73323 -3.51712 0
M  V30 7339 H 707.573 2.67383 -3.20774 0
M  V30 7340 N 708.01 1.57248 0.105221 0
M  V30 7341 C 709.235 1.90143 0.828264 0
M  V30 7342 C 709.66 0.761811 1.71983 0
M  V30 7343 O 709.018 -0.287086 1.79013 0
M  V30 7344 C 709.066 3.21856 1.62608 0
M  V30 7345 O 708.17 3.08732 2.7342 0
M  V30 7346 H 707.511 0.623558 0.228192 0
M  V30 7347 H 710.041 2.0443 0.0834826 0
M  V30 7348 H 710.051 3.54916 2.01243 0
M  V30 7349 H 708.726 4.0439 0.971687 0
M  V30 7350 H 707.303 2.87167 2.37886 0
M  V30 7351 N 709.488 -0.375779 1.53054 0
M  V30 7352 C 710.398 -1.48381 1.81715 0
M  V30 7353 C 711.414 -1.59087 0.704795 0
M  V30 7354 O 712.59 -1.75174 0.993785 0
M  V30 7355 C 709.655 -2.83767 1.99192 0
M  V30 7356 C 708.716 -2.82673 3.23102 0
M  V30 7357 C 707.949 -4.11601 3.39736 0
M  V30 7358 O 708.172 -5.07243 2.60885 0
M  V30 7359 O 707.106 -4.18034 4.33049 0
M  V30 7360 H 710.932 -1.27089 2.7583 0
M  V30 7361 H 708.517 -0.564902 1.38308 0
M  V30 7362 H 710.399 -3.64004 2.12318 0
M  V30 7363 H 709.074 -3.05057 1.08267 0
M  V30 7364 H 707.981 -2.0117 3.15407 0
M  V30 7365 H 709.314 -2.66335 4.13916 0
M  V30 7366 N 710.966 -1.44241 -0.634997 0
M  V30 7367 C 711.876 -1.53293 -1.77591 0
M  V30 7368 C 712.892 -0.418831 -1.68884 0
M  V30 7369 O 714.068 -0.675619 -1.8973 0
M  V30 7370 C 711.133 -1.47075 -3.13958 0
M  V30 7371 C 710.194 -2.69304 -3.34326 0
M  V30 7372 C 709.427 -2.63374 -4.64187 0
M  V30 7373 O 709.65 -1.69161 -5.44739 0
M  V30 7374 O 708.584 -3.54166 -4.86673 0
M  V30 7375 H 712.41 -2.49673 -1.72908 0
M  V30 7376 H 709.995 -1.26445 -0.795745 0
M  V30 7377 H 711.877 -1.46117 -3.95257 0
M  V30 7378 H 710.552 -0.538373 -3.19192 0
M  V30 7379 H 709.459 -2.75831 -2.52721 0
M  V30 7380 H 710.792 -3.61576 -3.33951 0
M  V30 7381 N 712.444 0.87505 -1.31075 0
M  V30 7382 C 713.691 1.62768 -1.20469 0
M  V30 7383 C 714.019 1.93034 0.23834 0
M  V30 7384 O 713.274 1.55693 1.18567 0
M  V30 7385 C 713.573 2.96948 -1.98888 0
M  V30 7386 C 713.239 2.86195 -3.4843 0
M  V30 7387 C 711.901 2.82969 -3.89207 0
M  V30 7388 C 714.253 2.73599 -4.43614 0
M  V30 7389 C 711.581 2.64999 -5.23443 0
M  V30 7390 C 713.933 2.57166 -5.77969 0
M  V30 7391 C 712.597 2.52321 -6.17973 0
M  V30 7392 H 711.867 0.595611 -0.440827 0
M  V30 7393 H 714.514 1.01665 -1.62285 0
M  V30 7394 H 712.819 3.62058 -1.49737 0
M  V30 7395 H 714.516 3.54164 -1.88067 0
M  V30 7396 H 711.106 2.8952 -3.16032 0
M  V30 7397 H 715.29 2.7515 -4.13045 0
M  V30 7398 H 710.546 2.5967 -5.53517 0
M  V30 7399 H 714.72 2.46396 -6.51354 0
M  V30 7400 H 712.347 2.38156 -7.21932 0
M  V30 7401 N 713.922 1.13953 1.08869 0
M  V30 7402 C 715.152 0.926825 1.84644 0
M  V30 7403 C 715.56 -0.527941 1.81685 0
M  V30 7404 O 714.903 -1.37742 1.21543 0
M  V30 7405 C 714.965 1.34416 3.33426 0
M  V30 7406 C 714.629 2.81351 3.60126 0
M  V30 7407 C 715.626 3.79486 3.55368 0
M  V30 7408 C 713.311 3.1865 3.88288 0
M  V30 7409 C 715.305 5.1293 3.78393 0
M  V30 7410 C 712.992 4.5227 4.10968 0
M  V30 7411 C 713.99 5.4922 4.06013 0
M  V30 7412 O 713.678 6.80429 4.28102 0
M  V30 7413 H 713.41 0.33013 0.589907 0
M  V30 7414 H 715.964 1.51738 1.38436 0
M  V30 7415 H 714.194 0.696901 3.80368 0
M  V30 7416 H 715.883 1.10302 3.90626 0
M  V30 7417 H 716.649 3.52017 3.3363 0
M  V30 7418 H 712.528 2.43785 3.91267 0
M  V30 7419 H 716.072 5.88591 3.74442 0
M  V30 7420 H 711.969 4.79462 4.32188 0
M  V30 7421 H 712.737 6.86617 4.45533 0
M  V30 7422 N 715.4 -1.26948 0.933913 0
M  V30 7423 C 716.333 -2.24977 0.382169 0
M  V30 7424 C 717.311 -1.53893 -0.524949 0
M  V30 7425 O 718.495 -1.82699 -0.464048 0
M  V30 7426 C 715.622 -3.35676 -0.451615 0
M  V30 7427 C 714.668 -4.24686 0.392947 0
M  V30 7428 S 715.501 -5.03898 1.81237 0
M  V30 7429 C 716.657 -6.18078 0.986443 0
M  V30 7430 H 716.89 -2.71429 1.21299 0
M  V30 7431 H 714.423 -1.35701 0.736523 0
M  V30 7432 H 716.381 -3.99901 -0.926797 0
M  V30 7433 H 715.042 -2.8785 -1.25703 0
M  V30 7434 H 714.235 -5.03402 -0.245533 0
M  V30 7435 H 713.837 -3.65288 0.802537 0
M  V30 7436 H 716.129 -6.77125 0.225321 0
M  V30 7437 H 717.072 -6.86216 1.74682 0
M  V30 7438 H 717.48 -5.62047 0.525711 0
M  V30 7439 N 716.879 -0.700114 -1.41195 0
M  V30 7440 C 718.107 -0.242179 -2.05478 0
M  V30 7441 C 718.522 1.11029 -1.52702 0
M  V30 7442 O 717.879 1.69473 -0.677127 0
M  V30 7443 C 717.93 -0.196271 -3.60967 0
M  V30 7444 O 717.651 -1.49532 -4.11791 0
M  V30 7445 C 719.152 0.282102 -4.42401 0
M  V30 7446 H 716.372 -0.111749 -0.661629 0
M  V30 7447 H 718.916 -0.953975 -1.80885 0
M  V30 7448 H 717.071 0.46638 -3.84582 0
M  V30 7449 H 717.485 -1.38545 -5.05871 0
M  V30 7450 H 718.959 0.263093 -5.51373 0
M  V30 7451 H 719.436 1.32174 -4.1884 0
M  V30 7452 H 720.042 -0.349712 -4.2386 0
M  V30 7453 N 718.357 1.51182 -0.445186 0
M  V30 7454 C 719.606 2.01342 0.120189 0
M  V30 7455 C 719.919 1.33353 1.43095 0
M  V30 7456 O 721.125 1.74525 2.07974 0
M  V30 7457 C 719.581 3.58925 0.264732 0
M  V30 7458 C 719.189 4.35855 -1.03606 0
M  V30 7459 C 720.933 4.17208 0.783455 0
M  V30 7460 C 718.84 5.85162 -0.856731 0
M  V30 7461 H 717.77 0.752426 0.0486922 0
M  V30 7462 H 720.421 1.74221 -0.576143 0
M  V30 7463 H 718.803 3.82525 1.02425 0
M  V30 7464 H 719.977 4.23997 -1.80452 0
M  V30 7465 H 718.292 3.89062 -1.48391 0
M  V30 7466 H 720.889 5.26475 0.934239 0
M  V30 7467 H 721.232 3.76892 1.768 0
M  V30 7468 H 721.765 3.97715 0.0820346 0
M  V30 7469 H 718.504 6.29904 -1.81388 0
M  V30 7470 H 718.024 5.99663 -0.128206 0
M  V30 7471 H 719.703 6.44963 -0.513027 0
M  V30 7472 N 719.835 0.176821 1.56605 0
M  V30 7473 C 721.065 -0.472142 2.01133 0
M  V30 7474 C 721.473 -1.56979 1.05614 0
M  V30 7475 O 720.816 -1.83632 0.0500137 0
M  V30 7476 C 720.878 -1.10547 3.42081 0
M  V30 7477 C 720.542 -0.148806 4.56758 0
M  V30 7478 C 721.539 0.634939 5.16008 0
M  V30 7479 C 719.224 -0.0430325 5.02282 0
M  V30 7480 C 721.218 1.5116 6.19217 0
M  V30 7481 C 718.905 0.83721 6.05338 0
M  V30 7482 C 719.903 1.61311 6.63677 0
M  V30 7483 O 719.591 2.47863 7.64735 0
M  V30 7484 H 719.323 -0.124725 0.664394 0
M  V30 7485 H 721.877 0.277329 2.03519 0
M  V30 7486 H 720.107 -1.90318 3.36625 0
M  V30 7487 H 721.796 -1.6572 3.70529 0
M  V30 7488 H 722.562 0.563424 4.81716 0
M  V30 7489 H 718.441 -0.636753 4.56581 0
M  V30 7490 H 721.985 2.11767 6.64681 0
M  V30 7491 H 717.882 0.909908 6.39055 0
M  V30 7492 H 718.65 2.4144 7.8208 0
M  V30 7493 N 721.313 -1.57302 -0.09688 0
M  V30 7494 C 722.223 -2.05258 -1.13606 0
M  V30 7495 C 723.239 -0.977137 -1.43972 0
M  V30 7496 O 724.415 -1.29018 -1.54649 0
M  V30 7497 C 721.48 -2.46593 -2.43706 0
M  V30 7498 C 720.541 -3.68322 -2.20538 0
M  V30 7499 C 719.774 -4.07676 -3.44435 0
M  V30 7500 O 719.997 -3.47141 -4.52603 0
M  V30 7501 O 718.931 -5.00641 -3.34129 0
M  V30 7502 H 722.757 -2.94069 -0.758752 0
M  V30 7503 H 720.342 -1.46164 -0.309263 0
M  V30 7504 H 722.224 -2.73814 -3.20318 0
M  V30 7505 H 720.899 -1.6092 -2.80867 0
M  V30 7506 H 719.806 -3.4622 -1.41713 0
M  V30 7507 H 721.139 -4.54769 -1.88271 0
M  V30 7508 N 722.791 0.367657 -1.53252 0
M  V30 7509 C 724.068 1.12606 -1.59935 0
M  V30 7510 C 724.448 2.07167 -0.405606 0
M  V30 7511 O 723.796 2.20364 0.604323 0
M  V30 7512 C 724.006 1.86699 -2.94863 0
M  V30 7513 C 725.354 2.41306 -3.49366 0
M  V30 7514 O 726.378 1.96828 -2.96879 0
M  V30 7515 O 725.237 3.2261 -4.41118 0
M  V30 7516 H 722.331 0.516438 -0.645926 0
M  V30 7517 H 724.877 0.371088 -1.65593 0
M  V30 7518 H 723.649 1.17674 -3.73187 0
M  V30 7519 H 723.272 2.6911 -2.92687 0
M  V30 7520 N 724.269 1.44576 0.627338 0
M  V30 7521 C 725.494 1.51271 1.41887 0
M  V30 7522 C 725.919 0.139814 1.8758 0
M  V30 7523 O 725.277 -0.871746 1.58966 0
M  V30 7524 C 725.325 2.48529 2.61277 0
M  V30 7525 O 724.429 1.98944 3.61241 0
M  V30 7526 H 723.77 0.510668 0.424399 0
M  V30 7527 H 726.3 1.89746 0.765356 0
M  V30 7528 H 726.31 2.66689 3.08773 0
M  V30 7529 H 724.985 3.48249 2.27366 0
M  V30 7530 H 723.562 1.90568 3.20528 0
M  V30 7531 N 725.747 -0.868086 1.31537 0
M  V30 7532 C 726.993 -1.62367 1.2151 0
M  V30 7533 C 727.326 -1.92883 -0.225819 0
M  V30 7534 O 726.601 -1.56176 -1.15927 0
M  V30 7535 C 726.884 -2.95268 2.06129 0
M  V30 7536 C 726.737 -2.71619 3.58529 0
M  V30 7537 C 728.056 -3.96391 1.91212 0
M  V30 7538 H 725.175 -0.589178 0.442762 0
M  V30 7539 H 727.817 -1.00336 1.61347 0
M  V30 7540 H 725.967 -3.4821 1.72284 0
M  V30 7541 H 727.639 -2.25334 4.0252 0
M  V30 7542 H 725.882 -2.05817 3.81866 0
M  V30 7543 H 726.553 -3.66192 4.13047 0
M  V30 7544 H 729.029 -3.52663 2.20834 0
M  V30 7545 H 727.905 -4.87263 2.52718 0
M  V30 7546 H 728.166 -4.33335 0.875953 0
M  V30 7547 N 727.225 -1.14528 -1.08264 0
M  V30 7548 C 728.188 -0.83632 -2.13397 0
M  V30 7549 C 729.188 0.159715 -1.60005 0
M  V30 7550 O 730.378 -0.0688098 -1.74064 0
M  V30 7551 C 727.51 -0.246973 -3.40004 0
M  V30 7552 H 728.703 -1.76808 -2.42237 0
M  V30 7553 H 726.256 -0.951509 -1.24 0
M  V30 7554 H 726.991 0.693436 -3.168 0
M  V30 7555 H 726.776 -0.964412 -3.80055 0
M  V30 7556 H 728.266 -0.0480679 -4.17572 0
M  V30 7557 N 728.703 1.26451 -0.940633 0
M  V30 7558 C 729.931 1.97868 -0.604642 0
M  V30 7559 C 730.346 1.70051 0.820251 0
M  V30 7560 O 729.703 0.96843 1.54686 0
M  V30 7561 C 729.754 3.51684 -0.836689 0
M  V30 7562 O 729.475 3.78533 -2.20554 0
M  V30 7563 C 730.976 4.40343 -0.511169 0
M  V30 7564 H 728.196 0.631105 -0.227919 0
M  V30 7565 H 730.74 1.60979 -1.26119 0
M  V30 7566 H 728.895 3.86736 -0.226759 0
M  V30 7567 H 729.309 4.73065 -2.26517 0
M  V30 7568 H 730.783 5.47229 -0.724157 0
M  V30 7569 H 731.26 4.35694 0.553815 0
M  V30 7570 H 731.866 4.10834 -1.0998 0
M  V30 7571 N 730.181 0.707592 1.40822 0
M  V30 7572 C 731.131 0.0265008 2.27985 0
M  V30 7573 C 732.115 -0.740685 1.42838 0
M  V30 7574 O 733.307 -0.6142 1.66002 0
M  V30 7575 C 730.436 -0.900382 3.31282 0
M  V30 7576 C 729.522 -0.128807 4.23904 0
M  V30 7577 N 729.913 0.883744 4.9802 0
M  V30 7578 C 728.211 -0.362539 4.44524 0
M  V30 7579 C 728.912 1.34666 5.65898 0
M  V30 7580 N 727.888 0.670306 5.39451 0
M  V30 7581 H 731.69 0.802667 2.82727 0
M  V30 7582 H 729.204 0.539475 1.53178 0
M  V30 7583 H 731.201 -1.40357 3.92563 0
M  V30 7584 H 729.861 -1.67601 2.781 0
M  V30 7585 H 730.872 1.26435 5.0223 0
M  V30 7586 H 727.549 -1.11512 4.02332 0
M  V30 7587 H 728.939 2.18756 6.35292 0
M  V30 7588 N 731.66 -1.50943 0.453197 0
M  V30 7589 C 732.59 -2.31005 -0.34044 0
M  V30 7590 C 733.571 -1.37112 -1.00669 0
M  V30 7591 O 734.756 -1.66033 -1.0073 0
M  V30 7592 C 731.886 -3.16358 -1.433 0
M  V30 7593 C 730.84 -4.18658 -0.889363 0
M  V30 7594 C 730.166 -4.92633 -2.07887 0
M  V30 7595 C 731.466 -5.22227 0.0871142 0
M  V30 7596 H 733.16 -2.97601 0.327723 0
M  V30 7597 H 730.706 -1.43119 0.159054 0
M  V30 7598 H 732.659 -3.71155 -1.99555 0
M  V30 7599 H 731.383 -2.47613 -2.12968 0
M  V30 7600 H 730.042 -3.64936 -0.348915 0
M  V30 7601 H 729.69 -4.20376 -2.76211 0
M  V30 7602 H 729.39 -5.61819 -1.72143 0
M  V30 7603 H 730.914 -5.50258 -2.64666 0
M  V30 7604 H 732.328 -5.72001 -0.385656 0
M  V30 7605 H 730.725 -5.99032 0.357926 0
M  V30 7606 H 731.795 -4.74077 1.01879 0
M  V30 7607 N 733.138 -0.185124 -1.56509 0
M  V30 7608 C 734.366 0.462139 -2.01673 0
M  V30 7609 C 734.781 1.55873 -1.06532 0
M  V30 7610 O 734.138 1.82371 -0.0684805 0
M  V30 7611 C 734.189 1.0277 -3.46584 0
M  V30 7612 O 733.91 -0.0251296 -4.38093 0
M  V30 7613 C 735.411 1.75183 -4.07217 0
M  V30 7614 H 732.631 0.117001 -0.660721 0
M  V30 7615 H 735.175 -0.290905 -2.0242 0
M  V30 7616 H 733.33 1.73118 -3.46568 0
M  V30 7617 H 733.744 0.394387 -5.23015 0
M  V30 7618 H 735.218 2.09999 -5.10494 0
M  V30 7619 H 735.695 2.6519 -3.50101 0
M  V30 7620 H 736.301 1.09445 -4.10977 0
M  V30 7621 N 734.616 1.57351 0.0885366 0
M  V30 7622 C 735.563 2.02523 1.10693 0
M  V30 7623 C 736.533 0.902736 1.39427 0
M  V30 7624 O 737.718 1.16921 1.50779 0
M  V30 7625 C 734.858 2.46013 2.42016 0
M  V30 7626 C 733.971 3.7181 2.19957 0
M  V30 7627 C 733.106 4.04152 3.44724 0
M  V30 7628 C 732.145 5.2304 3.17956 0
M  V30 7629 N 731.282 5.51102 4.35007 0
M  V30 7630 H 736.122 2.89302 0.714742 0
M  V30 7631 H 733.659 1.43084 0.341378 0
M  V30 7632 H 735.617 2.69274 3.18665 0
M  V30 7633 H 734.247 1.62235 2.79069 0
M  V30 7634 H 733.299 3.55987 1.34079 0
M  V30 7635 H 734.611 4.58604 1.96173 0
M  V30 7636 H 733.765 4.28225 4.29777 0
M  V30 7637 H 732.504 3.15893 3.71568 0
M  V30 7638 H 731.509 4.98781 2.31296 0
M  V30 7639 H 732.734 6.12902 2.92451 0
M  V30 7640 H 730.68 4.65802 4.61914 0
M  V30 7641 H 730.597 6.3228 4.14437 0
M  V30 7642 H 731.865 5.79714 5.21106 0
M  V30 7643 N 736.094 -0.359525 1.53444 0
M  V30 7644 C 737.343 -1.09886 1.69139 0
M  V30 7645 C 737.656 -1.90285 0.452863 0
M  V30 7646 O 738.862 -2.67033 0.490459 0
M  V30 7647 C 737.318 -2.0028 2.99025 0
M  V30 7648 C 736.926 -1.25164 4.30161 0
M  V30 7649 C 738.67 -2.74168 3.24086 0
M  V30 7650 C 736.577 -2.14494 5.51132 0
M  V30 7651 H 735.507 -0.413936 0.630217 0
M  V30 7652 H 738.158 -0.359434 1.79945 0
M  V30 7653 H 736.54 -2.77978 2.82036 0
M  V30 7654 H 737.714 -0.524867 4.57801 0
M  V30 7655 H 736.029 -0.631116 4.11589 0
M  V30 7656 H 738.626 -3.41243 4.11652 0
M  V30 7657 H 738.969 -3.39868 2.40407 0
M  V30 7658 H 739.502 -2.0355 3.41778 0
M  V30 7659 H 736.241 -1.53362 6.37307 0
M  V30 7660 H 735.761 -2.85004 5.27762 0
M  V30 7661 H 737.44 -2.73914 5.86157 0
M  V30 7662 N 737.572 -1.44907 -0.619662 0
M  V30 7663 C 738.502 -1.55488 -1.742 0
M  V30 7664 C 739.483 -0.407143 -1.65156 0
M  V30 7665 O 740.668 -0.628743 -1.8374 0
M  V30 7666 C 737.798 -1.5097 -3.1277 0
M  V30 7667 C 736.752 -2.64337 -3.36615 0
M  V30 7668 C 736.078 -2.44872 -4.75333 0
M  V30 7669 C 737.378 -4.06423 -3.28051 0
M  V30 7670 H 739.072 -2.49432 -1.65602 0
M  V30 7671 H 736.618 -1.20047 -0.795281 0
M  V30 7672 H 738.571 -1.56971 -3.91073 0
M  V30 7673 H 737.295 -0.535486 -3.2218 0
M  V30 7674 H 735.954 -2.57744 -2.60698 0
M  V30 7675 H 735.602 -1.45617 -4.81461 0
M  V30 7676 H 735.302 -3.20888 -4.92244 0
M  V30 7677 H 736.826 -2.52709 -5.55851 0
M  V30 7678 H 738.24 -4.14324 -3.96243 0
M  V30 7679 H 736.637 -4.82733 -3.56495 0
M  V30 7680 H 737.707 -4.29183 -2.25676 0
M  V30 7681 N 739.05 0.861098 -1.31996 0
M  V30 7682 C 739.998 1.99052 -1.20337 0
M  V30 7683 C 740.992 1.69045 -0.109623 0
M  V30 7684 O 742.198 1.77931 -0.272117 0
M  V30 7685 H 738.573 0.653064 -0.372843 0
M  V30 7686 H 740.544 2.06015 -2.15872 0
M  V30 7687 C 739.293 3.34846 -0.936663 0
M  V30 7688 H 738.616 3.58462 -1.77045 0
M  V30 7689 H 740.056 4.1444 -0.895302 0
M  V30 7690 C 738.515 3.34965 0.360607 0
M  V30 7691 O 739.045 3.7745 1.37456 0
M  V30 7692 N 737.251 2.88101 0.380296 0
M  V30 7693 H 736.798 2.53721 -0.445351 0
M  V30 7694 H 736.756 2.88563 1.24816 0
M  V30 7695 N 740.528 1.15101 1.07655 0
M  V30 7696 C 741.753 0.948177 1.84457 0
M  V30 7697 C 742.178 -0.498432 1.81376 0
M  V30 7698 O 741.536 -1.35509 1.20445 0
M  V30 7699 C 741.584 1.46318 3.29581 0
M  V30 7700 O 740.688 0.660342 4.07079 0
M  V30 7701 H 740.029 0.338428 0.571281 0
M  V30 7702 H 742.559 1.5301 1.35828 0
M  V30 7703 H 742.569 1.47468 3.80417 0
M  V30 7704 H 741.244 2.51635 3.31138 0
M  V30 7705 H 739.821 0.718216 3.65918 0
M  V30 7706 N 742.006 -1.2595 0.947325 0
M  V30 7707 C 743.283 -1.88676 0.515824 0
M  V30 7708 C 743.663 -1.85547 -1.00675 0
M  V30 7709 O 743.011 -1.31399 -1.8694 0
M  V30 7710 C 743.221 -3.31734 1.08415 0
M  V30 7711 C 744.569 -4.08545 1.15654 0
M  V30 7712 O 745.593 -3.40826 1.03517 0
M  V30 7713 O 744.452 -5.29663 1.34608 0
M  V30 7714 H 741.546 -0.809537 0.169055 0
M  V30 7715 H 744.092 -1.34075 1.04029 0
M  V30 7716 H 742.864 -3.28404 2.1276 0
M  V30 7717 H 742.487 -3.93882 0.542499 0
M  V30 7718 N 743.484 -0.715051 -1.40445 0
M  V30 7719 C 744.394 -0.0631624 -2.34515 0
M  V30 7720 C 745.41 0.744397 -1.57273 0
M  V30 7721 O 746.586 0.677475 -1.89663 0
M  V30 7722 C 743.651 0.847915 -3.36172 0
M  V30 7723 C 742.712 0.0303655 -4.29289 0
M  V30 7724 C 741.945 0.898051 -5.2609 0
M  V30 7725 O 742.168 2.13729 -5.28844 0
M  V30 7726 O 741.102 0.337328 -6.00954 0
M  V30 7727 H 744.928 -0.839078 -2.91879 0
M  V30 7728 H 742.513 -0.475527 -1.4163 0
M  V30 7729 H 744.395 1.3698 -3.98515 0
M  V30 7730 H 743.07 1.60299 -2.81222 0
M  V30 7731 H 741.977 -0.536573 -3.70232 0
M  V30 7732 H 743.31 -0.686474 -4.87389 0
M  V30 7733 N 744.962 1.50701 -0.461195 0
M  V30 7734 C 745.912 2.25195 0.35653 0
M  V30 7735 C 746.896 1.2838 0.96992 0
M  V30 7736 O 748.088 1.53338 0.884108 0
M  V30 7737 C 745.217 3.11471 1.44364 0
M  V30 7738 C 744.303 4.15729 0.83847 0
M  V30 7739 N 744.694 5.05788 -0.0353198 0
M  V30 7740 C 742.992 4.32133 1.1035 0
M  V30 7741 C 743.693 5.80472 -0.37774 0
M  V30 7742 N 742.669 5.43049 0.24463 0
M  V30 7743 H 746.471 2.92188 -0.316746 0
M  V30 7744 H 743.985 1.60059 -0.274725 0
M  V30 7745 H 745.982 3.63436 2.04255 0
M  V30 7746 H 744.642 2.46025 2.11901 0
M  V30 7747 H 745.653 5.16326 -0.403465 0
M  V30 7748 H 742.33 3.77908 1.77458 0
M  V30 7749 H 743.72 6.62996 -1.09024 0
M  V30 7750 N 746.441 0.193421 1.56409 0
M  V30 7751 C 747.404 -0.714371 2.17783 0
M  V30 7752 C 748.404 -1.1422 1.13183 0
M  V30 7753 O 749.594 -1.05557 1.38576 0
M  V30 7754 C 746.726 -1.97509 2.77855 0
M  V30 7755 H 747.919 -0.179714 2.99361 0
M  V30 7756 H 745.472 -0.0561944 1.56199 0
M  V30 7757 H 746.207 -2.5523 2.0007 0
M  V30 7758 H 745.992 -1.67706 3.54425 0
M  V30 7759 H 747.482 -2.62246 3.24987 0
M  V30 7760 N 747.919 -1.57396 -0.0801906 0
M  V30 7761 C 749.165 -1.87113 -0.782083 0
M  V30 7762 C 749.498 -0.78458 -1.77646 0
M  V30 7763 O 748.773 0.205993 -1.93406 0
M  V30 7764 C 749.056 -3.27483 -1.49756 0
M  V30 7765 C 748.909 -4.46782 -0.520171 0
M  V30 7766 C 750.228 -3.65965 -2.44454 0
M  V30 7767 H 747.347 -0.680559 -0.282858 0
M  V30 7768 H 749.989 -1.89946 -0.0454139 0
M  V30 7769 H 748.139 -3.25199 -2.12551 0
M  V30 7770 H 749.811 -4.61187 0.101919 0
M  V30 7771 H 748.054 -4.33485 0.165219 0
M  V30 7772 H 748.725 -5.41761 -1.05824 0
M  V30 7773 H 751.201 -3.69289 -1.91742 0
M  V30 7774 H 750.077 -4.65086 -2.91524 0
M  V30 7775 H 750.338 -2.95446 -3.28883 0
M  V30 7776 N 749.397 0.351382 -1.53633 0
M  V30 7777 C 750.643 1.09411 -1.70754 0
M  V30 7778 C 750.976 1.88544 -0.465293 0
M  V30 7779 O 750.251 1.86923 0.537608 0
M  V30 7780 C 750.534 2.04173 -2.96623 0
M  V30 7781 C 750.387 1.28556 -4.31038 0
M  V30 7782 C 751.706 3.04102 -3.18136 0
M  V30 7783 H 748.825 0.396373 -0.621335 0
M  V30 7784 H 751.467 0.373464 -1.86293 0
M  V30 7785 H 749.617 2.65625 -2.83506 0
M  V30 7786 H 751.289 0.697786 -4.55992 0
M  V30 7787 H 749.532 0.587498 -4.29803 0
M  V30 7788 H 750.203 1.97989 -5.15271 0
M  V30 7789 H 752.679 2.5276 -3.30532 0
M  V30 7790 H 751.555 3.67616 -4.07615 0
M  V30 7791 H 751.816 3.75053 -2.34068 0
M  V30 7792 N 750.875 1.45233 0.611969 0
M  V30 7793 C 752.124 1.48296 1.36716 0
M  V30 7794 C 752.437 0.12706 1.95187 0
M  V30 7795 O 753.643 0.0353066 2.71477 0
M  V30 7796 C 752.099 2.61168 2.47627 0
M  V30 7797 C 751.707 4.03051 1.95587 0
M  V30 7798 C 753.451 2.73472 3.24674 0
M  V30 7799 C 751.358 5.07312 3.03954 0
M  V30 7800 H 750.288 0.5518 0.513841 0
M  V30 7801 H 752.939 1.7136 0.656359 0
M  V30 7802 H 751.321 2.31379 3.21372 0
M  V30 7803 H 752.495 4.42497 1.2858 0
M  V30 7804 H 750.81 3.95158 1.31298 0
M  V30 7805 H 753.407 3.48537 4.05494 0
M  V30 7806 H 753.75 1.79953 3.75397 0
M  V30 7807 H 754.283 3.02765 2.58028 0
M  V30 7808 H 751.022 6.02525 2.58154 0
M  V30 7809 H 750.542 4.7244 3.69541 0
M  V30 7810 H 752.221 5.31867 3.6841 0
M  V30 7811 N 752.353 -0.854086 1.3245 0
M  V30 7812 C 753.578 -1.64597 1.26185 0
M  V30 7813 C 754.003 -1.87357 -0.167074 0
M  V30 7814 O 753.361 -1.42675 -1.11864 0
M  V30 7815 C 753.409 -2.98213 2.02734 0
M  V30 7816 O 752.513 -3.88784 1.37554 0
M  V30 7817 H 751.854 -0.50179 0.434859 0
M  V30 7818 H 754.384 -1.06372 1.74775 0
M  V30 7819 H 754.394 -3.4803 2.1293 0
M  V30 7820 H 753.069 -2.80969 3.06642 0
M  V30 7821 H 751.646 -3.4725 1.3591 0
M  V30 7822 N 753.831 -1.1567 -1.07043 0
M  V30 7823 C 755.056 -0.957946 -1.83952 0
M  V30 7824 C 755.481 0.488807 -1.81638 0
M  V30 7825 O 754.839 1.34869 -1.21162 0
M  V30 7826 C 754.887 -1.48064 -3.288 0
M  V30 7827 O 753.991 -0.681921 -4.06723 0
M  V30 7828 H 753.332 -0.341453 -0.569479 0
M  V30 7829 H 755.862 -1.53728 -1.35015 0
M  V30 7830 H 755.872 -1.49484 -3.7963 0
M  V30 7831 H 754.547 -2.53388 -3.29799 0
M  V30 7832 H 753.124 -0.737612 -3.65532 0
M  V30 7833 N 755.309 1.25446 -0.953992 0
M  V30 7834 C 756.272 2.24156 -0.478179 0
M  V30 7835 C 757.272 1.55278 0.417776 0
M  V30 7836 O 758.462 1.72866 0.215155 0
M  V30 7837 C 755.594 3.39495 0.309202 0
M  V30 7838 H 756.787 2.67764 -1.35064 0
M  V30 7839 H 754.34 1.37822 -0.737206 0
M  V30 7840 H 755.075 3.01307 1.19936 0
M  V30 7841 H 754.86 3.90679 -0.333562 0
M  V30 7842 H 756.35 4.12796 0.631594 0
M  V30 7843 N 756.787 0.722489 1.40064 0
M  V30 7844 C 757.734 0.0743738 2.3068 0
M  V30 7845 C 758.704 -0.743004 1.48555 0
M  V30 7846 O 759.889 -0.705536 1.77276 0
M  V30 7847 C 757.029 -0.836292 3.34814 0
M  V30 7848 C 756.142 -0.00764663 4.31999 0
M  V30 7849 C 755.277 -0.918428 5.232 0
M  V30 7850 C 754.316 -0.0842838 6.12042 0
M  V30 7851 N 753.453 -0.950316 6.95639 0
M  V30 7852 H 758.293 0.852794 2.85537 0
M  V30 7853 H 755.83 0.432222 1.40607 0
M  V30 7854 H 757.788 -1.3786 3.93765 0
M  V30 7855 H 756.418 -1.58082 2.81443 0
M  V30 7856 H 755.47 0.651928 3.74772 0
M  V30 7857 H 756.782 0.63786 4.94705 0
M  V30 7858 H 755.936 -1.52902 5.87116 0
M  V30 7859 H 754.675 -1.59774 4.60786 0
M  V30 7860 H 753.68 0.5392 5.4715 0
M  V30 7861 H 754.905 0.591628 6.76518 0
M  V30 7862 H 752.851 -1.61515 6.35806 0
M  V30 7863 H 752.768 -0.361004 7.55138 0
M  V30 7864 H 754.036 -1.54687 7.63997 0
M  V30 7865 N 758.265 -1.50454 0.469181 0
M  V30 7866 C 759.493 -2.06729 -0.0842134 0
M  V30 7867 C 759.908 -1.33326 -1.33677 0
M  V30 7868 O 759.265 -0.401977 -1.78018 0
M  V30 7869 C 759.316 -3.59557 -0.374253 0
M  V30 7870 O 759.037 -4.30192 0.828622 0
M  V30 7871 C 760.538 -4.32449 -0.974824 0
M  V30 7872 H 757.758 -0.670971 0.006231 0
M  V30 7873 H 760.302 -1.93645 0.657415 0
M  V30 7874 H 758.457 -3.7245 -1.06581 0
M  V30 7875 H 758.871 -5.21371 0.572066 0
M  V30 7876 H 760.345 -5.40361 -1.12755 0
M  V30 7877 H 760.822 -3.92819 -1.96442 0
M  V30 7878 H 761.428 -4.24082 -0.321703 0
M  V30 7879 N 759.743 -0.201713 -1.56304 0
M  V30 7880 C 760.673 0.71155 -2.22394 0
M  V30 7881 C 761.654 1.21625 -1.18917 0
M  V30 7882 O 762.839 1.26388 -1.47444 0
M  V30 7883 C 759.969 1.92837 -2.88845 0
M  V30 7884 C 758.923 1.55831 -3.98623 0
M  V30 7885 C 758.249 2.85228 -4.52271 0
M  V30 7886 C 759.549 0.763249 -5.16693 0
M  V30 7887 H 761.243 0.160573 -2.98969 0
M  V30 7888 H 758.789 0.0757916 -1.438 0
M  V30 7889 H 760.742 2.57253 -3.33764 0
M  V30 7890 H 759.466 2.50398 -2.09686 0
M  V30 7891 H 758.125 0.9377 -3.54405 0
M  V30 7892 H 757.773 3.40893 -3.69866 0
M  V30 7893 H 757.473 2.6121 -5.26349 0
M  V30 7894 H 758.997 3.50622 -4.99897 0
M  V30 7895 H 760.411 1.31066 -5.58117 0
M  V30 7896 H 758.808 0.620935 -5.96879 0
M  V30 7897 H 759.878 -0.234322 -4.84334 0
M  V30 7898 N 761.222 1.57436 0.0718424 0
M  V30 7899 C 762.462 1.89082 0.776351 0
M  V30 7900 C 762.826 0.795494 1.74745 0
M  V30 7901 O 764.027 0.995025 2.49705 0
M  V30 7902 C 762.298 3.25958 1.46582 0
M  V30 7903 S 763.857 3.79352 2.2054 0
M  V30 7904 H 760.675 0.662472 0.25817 0
M  V30 7905 H 763.277 1.95473 0.0324536 0
M  V30 7906 H 761.981 4.03577 0.745237 0
M  V30 7907 H 761.512 3.22764 2.24915 0
M  V30 7908 H 763.527 3.54634 3.47058 0
M  V30 7909 N 762.7 -0.34323 1.53817 0
M  V30 7910 C 763.61 -1.44493 1.84821 0
M  V30 7911 C 764.626 -1.57556 0.738381 0
M  V30 7912 O 765.802 -1.73026 1.03072 0
M  V30 7913 C 762.867 -2.79478 2.05166 0
M  V30 7914 C 761.928 -2.75756 3.29025 0
M  V30 7915 C 761.161 -4.04302 3.4839 0
M  V30 7916 O 761.384 -5.01595 2.71586 0
M  V30 7917 O 760.318 -4.08754 4.41819 0
M  V30 7918 H 764.144 -1.21209 2.78464 0
M  V30 7919 H 761.729 -0.535437 1.39476 0
M  V30 7920 H 763.611 -3.59419 2.19991 0
M  V30 7921 H 762.286 -3.02692 1.14713 0
M  V30 7922 H 761.193 -1.94434 3.19603 0
M  V30 7923 H 762.526 -2.57495 4.19472 0
M  V30 7924 N 764.178 -1.45556 -0.604258 0
M  V30 7925 C 765.406 -1.53278 -1.38973 0
M  V30 7926 C 765.821 -0.166509 -1.88064 0
M  V30 7927 O 765.178 0.832519 -1.62405 0
M  V30 7928 C 765.229 -2.51992 -2.59195 0
M  V30 7929 O 764.95 -3.8331 -2.12143 0
M  V30 7930 C 766.451 -2.69445 -3.52015 0
M  V30 7931 H 763.671 -0.519003 -0.425297 0
M  V30 7932 H 766.215 -1.90773 -0.736621 0
M  V30 7933 H 764.37 -2.17561 -3.2054 0
M  V30 7934 H 764.784 -4.3685 -2.90279 0
M  V30 7935 H 766.258 -3.42485 -4.32907 0
M  V30 7936 H 766.735 -1.75596 -4.0257 0
M  V30 7937 H 767.341 -3.04886 -2.9652 0
M  V30 7938 N 765.656 0.84705 -1.32902 0
M  V30 7939 C 766.902 1.60414 -1.24078 0
M  V30 7940 C 767.235 1.93217 0.195105 0
M  V30 7941 O 766.51 1.58001 1.13428 0
M  V30 7942 C 766.793 2.91951 -2.108 0
M  V30 7943 C 766.646 2.6588 -3.62805 0
M  V30 7944 C 767.965 3.93299 -1.97494 0
M  V30 7945 H 765.084 0.58206 -0.452079 0
M  V30 7946 H 767.726 0.977562 -1.62922 0
M  V30 7947 H 765.876 3.45425 -1.77802 0
M  V30 7948 H 767.548 2.18902 -4.06054 0
M  V30 7949 H 765.791 1.99716 -3.85092 0
M  V30 7950 H 766.462 3.59574 -4.1882 0
M  V30 7951 H 768.938 3.49105 -2.26417 0
M  V30 7952 H 767.814 4.8318 -2.60438 0
M  V30 7953 H 768.075 4.31887 -0.944782 0
M  V30 7954 N 767.134 1.16236 1.06428 0
M  V30 7955 C 768.081 0.86769 2.13869 0
M  V30 7956 C 769.051 -0.183298 1.65086 0
M  V30 7957 O 770.236 -0.0488002 1.90738 0
M  V30 7958 C 767.376 0.373427 3.43074 0
M  V30 7959 C 766.489 1.48708 4.05598 0
M  V30 7960 C 765.624 0.947977 5.22673 0
M  V30 7961 C 764.663 2.03793 5.77178 0
M  V30 7962 N 763.8 1.51451 6.85571 0
M  V30 7963 H 768.64 1.78781 2.38414 0
M  V30 7964 H 766.177 0.891892 1.16977 0
M  V30 7965 H 768.135 0.0685035 4.17144 0
M  V30 7966 H 766.765 -0.509752 3.1875 0
M  V30 7967 H 765.817 1.908 3.29089 0
M  V30 7968 H 767.129 2.30964 4.42105 0
M  V30 7969 H 766.283 0.596154 6.03764 0
M  V30 7970 H 765.022 0.0947081 4.87608 0
M  V30 7971 H 764.027 2.39847 4.94726 0
M  V30 7972 H 765.252 2.89514 6.14295 0
M  V30 7973 H 763.198 0.683755 6.52427 0
M  V30 7974 H 763.115 2.27325 7.21013 0
M  V30 7975 H 764.383 1.19123 7.70344 0
M  V30 7976 N 768.612 -1.24939 0.960631 0
M  V30 7977 C 769.889 -1.88118 0.535807 0
M  V30 7978 C 770.269 -1.86605 -0.987009 0
M  V30 7979 O 769.617 -1.33375 -1.85536 0
M  V30 7980 C 769.827 -3.30565 1.11927 0
M  V30 7981 C 771.175 -4.07296 1.19981 0
M  V30 7982 O 772.199 -3.39709 1.07126 0
M  V30 7983 O 771.058 -5.28206 1.40218 0
M  V30 7984 H 768.152 -0.807698 0.177631 0
M  V30 7985 H 770.698 -1.32964 1.05445 0
M  V30 7986 H 769.47 -3.26128 2.16231 0
M  V30 7987 H 769.093 -3.93284 0.584245 0
M  V30 7988 N 770.09 -0.729906 -1.39679 0
M  V30 7989 C 771.337 -0.275622 -2.00615 0
M  V30 7990 C 771.665 1.13559 -1.57907 0
M  V30 7991 O 770.92 1.78745 -0.796789 0
M  V30 7992 C 771.219 -0.319564 -3.55968 0
M  V30 7993 C 770.885 -1.68308 -4.1831 0
M  V30 7994 C 769.547 -2.05629 -4.35052 0
M  V30 7995 C 771.899 -2.57857 -4.52945 0
M  V30 7996 C 769.227 -3.32018 -4.83716 0
M  V30 7997 C 771.579 -3.83613 -5.03015 0
M  V30 7998 C 770.243 -4.21033 -5.17965 0
M  V30 7999 H 769.513 -0.100857 -0.734104 0
M  V30 8000 H 772.16 -0.93575 -1.67081 0
M  V30 8001 H 770.465 0.42414 -3.89497 0
M  V30 8002 H 772.162 0.0499905 -4.00969 0
M  V30 8003 H 768.752 -1.3829 -4.05677 0
M  V30 8004 H 772.936 -2.30295 -4.39634 0
M  V30 8005 H 768.192 -3.6096 -4.93475 0
M  V30 8006 H 772.366 -4.53162 -5.28788 0
M  V30 8007 H 769.993 -5.19034 -5.55435 0
M  V30 8008 N 771.568 1.50203 -0.477153 0
M  V30 8009 C 772.814 2.02658 0.0758507 0
M  V30 8010 C 773.147 1.358 1.38824 0
M  V30 8011 O 772.422 0.485696 1.88338 0
M  V30 8012 C 772.705 3.59208 0.253339 0
M  V30 8013 C 772.558 4.36629 -1.0805 0
M  V30 8014 C 773.877 4.28469 1.00509 0
M  V30 8015 H 770.996 0.736538 0.0260921 0
M  V30 8016 H 773.638 1.79464 -0.623925 0
M  V30 8017 H 771.788 3.79101 0.849378 0
M  V30 8018 H 773.46 4.28292 -1.71358 0
M  V30 8019 H 771.703 4.0013 -1.67566 0
M  V30 8020 H 772.374 5.44449 -0.909883 0
M  V30 8021 H 774.85 4.13087 0.499818 0
M  V30 8022 H 773.726 5.37804 1.09808 0
M  V30 8023 H 773.987 3.92057 2.04314 0
M  V30 8024 N 773.046 0.209999 1.56195 0
M  V30 8025 C 774.009 -0.691232 2.18528 0
M  V30 8026 C 775.009 -1.13013 1.14388 0
M  V30 8027 O 776.199 -1.04081 1.39688 0
M  V30 8028 C 773.331 -1.94551 2.79934 0
M  V30 8029 H 774.524 -0.147953 2.99535 0
M  V30 8030 H 772.077 -0.0396243 1.5625 0
M  V30 8031 H 772.812 -2.53094 2.02766 0
M  V30 8032 H 772.597 -1.63938 3.56184 0
M  V30 8033 H 774.087 -2.58785 3.2775 0
M  V30 8034 N 774.524 -1.57472 -0.0634922 0
M  V30 8035 C 775.471 -2.04258 -1.07457 0
M  V30 8036 C 776.441 -0.924804 -1.37973 0
M  V30 8037 O 777.626 -1.19305 -1.48899 0
M  V30 8038 C 774.766 -2.49832 -2.38071 0
M  V30 8039 C 773.879 -3.75263 -2.14014 0
M  V30 8040 C 773.014 -4.09585 -3.38251 0
M  V30 8041 C 772.053 -5.28032 -3.09594 0
M  V30 8042 N 771.19 -5.57953 -4.26185 0
M  V30 8043 H 776.03 -2.90402 -0.668626 0
M  V30 8044 H 773.567 -1.43609 -0.318572 0
M  V30 8045 H 775.525 -2.7431 -3.14341 0
M  V30 8046 H 774.155 -1.66654 -2.76453 0
M  V30 8047 H 773.207 -3.58075 -1.28399 0
M  V30 8048 H 774.519 -4.61667 -1.88852 0
M  V30 8049 H 773.673 -4.35008 -4.2291 0
M  V30 8050 H 772.412 -3.21765 -3.66495 0
M  V30 8051 H 771.417 -5.02397 -2.23332 0
M  V30 8052 H 772.642 -6.17477 -2.82663 0
M  V30 8053 H 770.588 -4.73092 -4.54445 0
M  V30 8054 H 770.505 -6.38793 -4.04326 0
M  V30 8055 H 771.773 -5.87931 -5.11817 0
M  V30 8056 N 776.003 0.335068 -1.53997 0
M  V30 8057 C 777.249 1.07594 -1.71905 0
M  V30 8058 C 777.582 1.88039 -0.485264 0
M  V30 8059 O 776.857 1.87482 0.517752 0
M  V30 8060 C 777.14 2.01016 -2.98772 0
M  V30 8061 C 776.993 1.23977 -4.32377 0
M  V30 8062 C 778.312 3.0071 -3.21343 0
M  V30 8063 H 775.431 0.38976 -0.625505 0
M  V30 8064 H 778.073 0.353684 -1.86679 0
M  V30 8065 H 776.223 2.62603 -2.86307 0
M  V30 8066 H 777.895 0.649383 -4.56706 0
M  V30 8067 H 776.138 0.541878 -4.30402 0
M  V30 8068 H 776.809 1.92512 -5.17342 0
M  V30 8069 H 779.285 2.4924 -3.33194 0
M  V30 8070 H 778.161 3.63272 -4.11491 0
M  V30 8071 H 778.422 3.72549 -2.38033 0
M  V30 8072 N 777.481 1.45874 0.596531 0
M  V30 8073 C 778.391 1.57947 1.73464 0
M  V30 8074 C 779.407 0.463461 1.67714 0
M  V30 8075 O 780.583 0.725685 1.87872 0
M  V30 8076 C 777.648 1.55348 3.09948 0
M  V30 8077 C 776.709 2.78074 3.27068 0
M  V30 8078 C 775.942 2.75589 4.57041 0
M  V30 8079 O 776.165 1.83545 5.40063 0
M  V30 8080 O 775.099 3.66945 4.77111 0
M  V30 8081 H 778.925 2.54169 1.66228 0
M  V30 8082 H 776.51 1.2851 0.76194 0
M  V30 8083 H 778.392 1.56545 3.91244 0
M  V30 8084 H 777.067 0.622811 3.17652 0
M  V30 8085 H 775.974 2.82435 2.45319 0
M  V30 8086 H 777.307 3.70303 3.24248 0
M  V30 8087 N 778.959 -0.83999 1.33349 0
M  V30 8088 C 779.906 -1.94972 1.23509 0
M  V30 8089 C 780.876 -1.65709 0.113967 0
M  V30 8090 O 782.061 -1.88552 0.292045 0
M  V30 8091 C 779.201 -3.30919 0.979105 0
M  V30 8092 C 778.314 -3.72587 2.18639 0
M  V30 8093 C 777.449 -4.97397 1.86465 0
M  V30 8094 C 776.488 -5.31597 3.03432 0
M  V30 8095 N 775.625 -6.47584 2.71254 0
M  V30 8096 H 780.465 -2.0272 2.18423 0
M  V30 8097 H 778.002 -0.992017 1.08616 0
M  V30 8098 H 779.96 -4.09239 0.811126 0
M  V30 8099 H 778.59 -3.22731 0.0667099 0
M  V30 8100 H 777.642 -2.89799 2.46416 0
M  V30 8101 H 778.954 -3.93844 3.06086 0
M  V30 8102 H 778.108 -5.83462 1.66305 0
M  V30 8103 H 776.847 -4.78107 0.96254 0
M  V30 8104 H 775.852 -4.44037 3.24208 0
M  V30 8105 H 777.077 -5.52836 3.94397 0
M  V30 8106 H 775.023 -6.29783 1.836 0
M  V30 8107 H 774.94 -6.68931 3.52231 0
M  V30 8108 H 776.208 -7.36764 2.54558 0
M  V30 8109 N 780.437 -1.16799 -1.0581 0
M  V30 8110 C 781.665 -0.97687 -1.82387 0
M  V30 8111 C 782.08 0.474917 -1.82729 0
M  V30 8112 O 781.437 1.3297 -1.25001 0
M  V30 8113 C 781.488 -1.50279 -3.28783 0
M  V30 8114 O 781.209 -2.89772 -3.28578 0
M  V30 8115 C 782.71 -1.35538 -4.22071 0
M  V30 8116 H 779.93 -0.345977 -0.574927 0
M  V30 8117 H 782.474 -1.54942 -1.33466 0
M  V30 8118 H 780.629 -0.972414 -3.74997 0
M  V30 8119 H 781.043 -3.13954 -4.20159 0
M  V30 8120 H 782.517 -1.7716 -5.22799 0
M  V30 8121 H 782.994 -0.301598 -4.38163 0
M  V30 8122 H 783.6 -1.87562 -3.81708 0
M  V30 8123 N 781.915 1.24427 -0.967243 0
M  V30 8124 C 783.145 1.96256 -0.64554 0
M  V30 8125 C 783.553 1.71959 0.789098 0
M  V30 8126 O 782.896 0.999913 1.54102 0
M  V30 8127 C 782.958 3.49553 -0.839798 0
M  V30 8128 C 782.622 3.97548 -2.25399 0
M  V30 8129 C 783.619 4.07257 -3.23168 0
M  V30 8130 C 781.304 4.30884 -2.58156 0
M  V30 8131 C 783.298 4.49635 -4.51782 0
M  V30 8132 C 780.985 4.72946 -3.86996 0
M  V30 8133 C 781.983 4.82286 -4.83621 0
M  V30 8134 O 781.671 5.23409 -6.10162 0
M  V30 8135 H 781.403 0.632002 -0.239895 0
M  V30 8136 H 783.957 1.59224 -1.29757 0
M  V30 8137 H 782.187 3.86479 -0.130603 0
M  V30 8138 H 783.876 4.02591 -0.517249 0
M  V30 8139 H 784.642 3.8172 -2.9919 0
M  V30 8140 H 780.521 4.22833 -1.83666 0
M  V30 8141 H 784.065 4.5684 -5.27203 0
M  V30 8142 H 779.962 4.9793 -4.10775 0
M  V30 8143 H 780.73 5.4156 -6.13722 0
M  V30 8144 N 783.393 0.737304 1.3929 0
M  V30 8145 C 784.67 0.212464 1.94443 0
M  V30 8146 C 785.05 -1.28621 1.67391 0
M  V30 8147 O 784.398 -2.0529 1.00342 0
M  V30 8148 C 784.608 0.548565 3.44662 0
M  V30 8149 C 785.956 0.499177 4.21656 0
M  V30 8150 O 786.98 0.485892 3.5287 0
M  V30 8151 O 785.839 0.495739 5.44247 0
M  V30 8152 H 782.933 0.0395457 0.826054 0
M  V30 8153 H 785.479 0.816319 1.48776 0
M  V30 8154 H 784.251 1.58426 3.57795 0
M  V30 8155 H 783.874 -0.0841399 3.97511 0
M  V30 8156 N 784.871 -1.49948 0.485112 0
M  V30 8157 C 785.818 -2.28819 -0.301729 0
M  V30 8158 C 786.788 -1.34496 -0.974683 0
M  V30 8159 O 787.973 -1.63444 -0.984418 0
M  V30 8160 C 785.113 -3.16758 -1.36961 0
M  V30 8161 C 784.226 -4.26125 -0.710027 0
M  V30 8162 C 783.361 -5.01302 -1.75699 0
M  V30 8163 C 782.4 -6.02525 -1.07841 0
M  V30 8164 N 781.537 -6.70927 -2.06886 0
M  V30 8165 H 786.377 -2.95604 0.377127 0
M  V30 8166 H 783.914 -1.45764 0.197826 0
M  V30 8167 H 785.872 -3.66106 -2.00056 0
M  V30 8168 H 784.502 -2.51991 -2.01744 0
M  V30 8169 H 783.554 -3.80385 0.0338278 0
M  V30 8170 H 784.866 -4.98493 -0.175079 0
M  V30 8171 H 784.02 -5.54438 -2.46339 0
M  V30 8172 H 782.759 -4.28672 -2.32577 0
M  V30 8173 H 781.764 -5.48635 -0.357706 0
M  V30 8174 H 782.989 -6.77134 -0.516345 0
M  V30 8175 H 780.935 -6.01079 -2.62755 0
M  V30 8176 H 780.852 -7.39216 -1.58414 0
M  V30 8177 H 782.12 -7.28675 -2.76863 0
M  V30 8178 N 786.349 -0.21828 -1.56081 0
M  V30 8179 C 787.577 0.419258 -2.02608 0
M  V30 8180 C 787.992 1.53578 -1.09814 0
M  V30 8181 O 787.349 1.82185 -0.107149 0
M  V30 8182 C 787.4 0.953955 -3.48686 0
M  V30 8183 O 787.121 -0.11805 -4.37941 0
M  V30 8184 C 788.622 1.66506 -4.10841 0
M  V30 8185 H 785.842 0.10296 -0.663054 0
M  V30 8186 H 788.386 -0.333776 -2.01758 0
M  V30 8187 H 786.541 1.65727 -3.50162 0
M  V30 8188 H 786.955 0.283359 -5.23734 0
M  V30 8189 H 788.429 1.99123 -5.14834 0
M  V30 8190 H 788.906 2.57705 -3.55647 0
M  V30 8191 H 789.512 1.00703 -4.13206 0
M  V30 8192 N 787.827 1.57504 0.0551401 0
M  V30 8193 C 788.757 2.07864 1.06372 0
M  V30 8194 C 789.738 0.975565 1.39344 0
M  V30 8195 O 790.923 1.24929 1.48682 0
M  V30 8196 C 788.053 2.53643 2.3724 0
M  V30 8197 C 787.007 3.67978 2.18578 0
M  V30 8198 C 786.333 3.9987 3.54976 0
M  V30 8199 C 787.633 4.97405 1.59329 0
M  V30 8200 H 789.327 2.92379 0.644595 0
M  V30 8201 H 786.873 1.40654 0.308619 0
M  V30 8202 H 788.826 2.8749 3.08103 0
M  V30 8203 H 787.55 1.66177 2.81163 0
M  V30 8204 H 786.209 3.3444 1.50152 0
M  V30 8205 H 785.857 3.0951 3.965 0
M  V30 8206 H 785.557 4.76867 3.43324 0
M  V30 8207 H 787.081 4.36228 4.27244 0
M  V30 8208 H 788.495 5.29375 2.20078 0
M  V30 8209 H 786.892 5.78837 1.58327 0
M  V30 8210 H 787.962 4.81697 0.55638 0
M  V30 8211 N 789.305 -0.326896 1.54172 0
M  V30 8212 C 790.215 -1.42525 1.86343 0
M  V30 8213 C 791.231 -1.56764 0.75505 0
M  V30 8214 O 792.407 -1.71924 1.04901 0
M  V30 8215 C 789.472 -2.77286 2.08119 0
M  V30 8216 C 788.533 -2.7225 3.31931 0
M  V30 8217 C 787.766 -4.00584 3.52659 0
M  V30 8218 O 787.989 -4.98686 2.76891 0
M  V30 8219 O 786.923 -4.04045 4.46129 0
M  V30 8220 H 790.749 -1.18249 2.79734 0
M  V30 8221 H 788.334 -0.520614 1.40036 0
M  V30 8222 H 790.216 -3.57065 2.23791 0
M  V30 8223 H 788.891 -3.01459 1.17917 0
M  V30 8224 H 787.798 -1.91033 3.21647 0
M  V30 8225 H 789.131 -2.53032 4.2218 0
M  V30 8226 N 790.784 -1.46188 -0.588786 0
M  V30 8227 C 791.732 -1.56653 -1.71938 0
M  V30 8228 C 792.726 -0.435354 -1.6371 0
M  V30 8229 O 793.932 -0.611996 -1.69277 0
M  V30 8230 H 790.307 -0.492408 -0.568365 0
M  V30 8231 H 792.278 -2.51724 -1.60242 0
M  V30 8232 C 791.027 -1.56822 -3.10326 0
M  V30 8233 H 790.35 -2.43198 -3.17325 0
M  V30 8234 H 791.79 -1.68199 -3.89211 0
M  V30 8235 C 790.249 -0.295802 -3.35599 0
M  V30 8236 O 790.779 0.616515 -3.96941 0
M  V30 8237 N 788.985 -0.185609 -2.90007 0
M  V30 8238 H 788.532 -0.928914 -2.40269 0
M  V30 8239 H 788.49 0.664883 -3.07289 0
M  V30 8240 N 792.262 0.832906 -1.33792 0
M  V30 8241 C 793.225 1.92471 -1.24449 0
M  V30 8242 C 794.225 1.59981 -0.162085 0
M  V30 8243 O 795.415 1.69208 -0.414029 0
M  V30 8244 C 792.547 3.28278 -0.919044 0
M  V30 8245 H 793.74 2.0218 -2.21502 0
M  V30 8246 H 791.293 1.0257 -1.17936 0
M  V30 8247 H 792.028 3.24263 0.048738 0
M  V30 8248 H 791.813 3.53241 -1.70187 0
M  V30 8249 H 793.303 4.08253 -0.878576 0
M  V30 8250 N 793.74 1.17359 1.05189 0
M  V30 8251 C 794.986 0.963413 1.78455 0
M  V30 8252 C 795.319 -0.506703 1.87473 0
M  V30 8253 O 794.594 -1.37611 1.37453 0
M  V30 8254 C 794.877 1.60519 3.22344 0
M  V30 8255 C 794.73 3.14741 3.21338 0
M  V30 8256 C 796.049 1.3091 4.20179 0
M  V30 8257 H 793.168 0.351412 0.647826 0
M  V30 8258 H 795.81 1.44858 1.22948 0
M  V30 8259 H 793.96 1.19265 3.69741 0
M  V30 8260 H 795.632 3.65053 2.82017 0
M  V30 8261 H 793.875 3.4749 2.59679 0
M  V30 8262 H 794.546 3.54775 4.22894 0
M  V30 8263 H 797.022 1.66635 3.81277 0
M  V30 8264 H 795.898 1.784 5.191 0
M  V30 8265 H 796.159 0.229908 4.41502 0
M  V30 8266 N 795.218 -1.23913 0.973828 0
M  V30 8267 C 796.464 -1.92436 0.640026 0
M  V30 8268 C 796.797 -1.75875 -0.823512 0
M  V30 8269 O 796.072 -1.11563 -1.59323 0
M  V30 8270 C 796.355 -3.4526 1.0231 0
M  V30 8271 C 796.208 -3.70961 2.54378 0
M  V30 8272 C 797.527 -4.36495 0.562155 0
M  V30 8273 H 794.646 -0.698868 0.233992 0
M  V30 8274 H 797.288 -1.46163 1.21393 0
M  V30 8275 H 795.438 -3.84802 0.534751 0
M  V30 8276 H 797.11 -3.40941 3.10737 0
M  V30 8277 H 795.353 -3.15899 2.97305 0
M  V30 8278 H 796.024 -4.77912 2.76232 0
M  V30 8279 H 798.5 -4.04363 0.981333 0
M  V30 8280 H 797.376 -5.42142 0.858689 0
M  V30 8281 H 797.637 -4.38818 -0.537659 0
M  V30 8282 N 796.696 -0.74468 -1.38897 0
M  V30 8283 C 797.659 -0.11945 -2.28889 0
M  V30 8284 C 798.659 0.656942 -1.46768 0
M  V30 8285 O 799.849 0.484525 -1.67326 0
M  V30 8286 C 796.981 0.839635 -3.30398 0
M  V30 8287 H 798.174 -0.912414 -2.85683 0
M  V30 8288 H 795.727 -0.511119 -1.47707 0
M  V30 8289 H 796.462 1.6586 -2.78677 0
M  V30 8290 H 796.247 0.285432 -3.9106 0
M  V30 8291 H 797.737 1.27337 -3.97712 0
M  V30 8292 N 798.174 1.49689 -0.493057 0
M  V30 8293 C 799.451 1.9525 0.116907 0
M  V30 8294 C 799.831 1.43429 1.54892 0
M  V30 8295 O 799.179 0.644621 2.19219 0
M  V30 8296 C 799.389 3.4898 0.037705 0
M  V30 8297 C 800.737 4.24052 0.215621 0
M  V30 8298 O 801.761 3.5602 0.113266 0
M  V30 8299 O 800.62 5.44847 0.42477 0
M  V30 8300 H 797.714 0.820973 0.099662 0
M  V30 8301 H 800.26 1.60367 -0.555029 0
M  V30 8302 H 799.032 3.79309 -0.961251 0
M  V30 8303 H 798.655 3.9046 0.750137 0
M  V30 8304 N 799.652 0.226554 1.55963 0
M  V30 8305 C 800.615 -0.668015 2.19249 0
M  V30 8306 C 801.615 -1.11794 1.1558 0
M  V30 8307 O 802.805 -1.02593 1.40784 0
M  V30 8308 C 799.937 -1.91571 2.81981 0
M  V30 8309 H 801.13 -0.116175 2.99675 0
M  V30 8310 H 798.683 -0.0230497 1.56283 0
M  V30 8311 H 799.418 -2.50929 2.05439 0
M  V30 8312 H 799.203 -1.6015 3.57903 0
M  V30 8313 H 800.693 -2.55294 3.30477 0
M  V30 8314 N 801.13 -1.57531 -0.0467866 0
M  V30 8315 C 802.376 -1.8873 -0.742218 0
M  V30 8316 C 802.709 -0.822084 -1.75941 0
M  V30 8317 O 801.984 0.164922 -1.938 0
M  V30 8318 C 802.267 -3.30586 -1.42776 0
M  V30 8319 C 802.12 -4.47785 -0.425285 0
M  V30 8320 C 803.439 -3.71068 -2.36636 0
M  V30 8321 H 800.558 -0.686406 -0.268359 0
M  V30 8322 H 803.2 -1.89999 -0.00511341 0
M  V30 8323 H 801.35 -3.29634 -2.05605 0
M  V30 8324 H 803.022 -4.60867 0.199721 0
M  V30 8325 H 801.265 -4.33037 0.25713 0
M  V30 8326 H 801.936 -5.43884 -0.943086 0
M  V30 8327 H 804.412 -3.73273 -1.83866 0
M  V30 8328 H 803.288 -4.71165 -2.81593 0
M  V30 8329 H 803.549 -3.02355 -3.22542 0
M  V30 8330 N 802.608 0.318715 -1.54344 0
M  V30 8331 C 803.571 1.37545 -1.83342 0
M  V30 8332 C 804.571 1.445 -0.705444 0
M  V30 8333 O 805.761 1.44443 -0.973752 0
M  V30 8334 C 802.893 2.76225 -1.99781 0
M  V30 8335 H 804.086 1.13084 -2.77762 0
M  V30 8336 H 801.639 0.554457 -1.46135 0
M  V30 8337 H 802.374 3.05934 -1.07588 0
M  V30 8338 H 802.159 2.7257 -2.81865 0
M  V30 8339 H 803.649 3.52664 -2.23647 0
M  V30 8340 N 804.086 1.46499 0.581025 0
M  V30 8341 C 805.311 1.55708 1.37002 0
M  V30 8342 C 805.736 0.19942 1.8704 0
M  V30 8343 O 805.094 -0.820731 1.61659 0
M  V30 8344 C 805.142 2.56716 2.53238 0
M  V30 8345 O 804.246 2.10336 3.54729 0
M  V30 8346 H 803.587 0.523912 0.407937 0
M  V30 8347 H 806.117 1.92085 0.704602 0
M  V30 8348 H 806.127 2.76378 3.00132 0
M  V30 8349 H 804.802 3.55307 2.16171 0
M  V30 8350 H 803.379 2.00669 3.14303 0
M  V30 8351 N 805.565 -0.825799 1.34232 0
M  V30 8352 C 806.512 -1.93651 1.2557 0
M  V30 8353 C 807.482 -1.65578 0.131536 0
M  V30 8354 O 808.667 -1.88231 0.312027 0
M  V30 8355 C 805.807 -3.29862 1.01415 0
M  V30 8356 C 804.92 -3.70247 2.22579 0
M  V30 8357 C 804.055 -4.95392 1.91731 0
M  V30 8358 C 803.094 -5.28349 3.09053 0
M  V30 8359 N 802.231 -6.44671 2.78107 0
M  V30 8360 H 807.071 -2.00392 2.20561 0
M  V30 8361 H 804.608 -0.980441 1.09662 0
M  V30 8362 H 806.566 -4.08356 0.854485 0
M  V30 8363 H 805.196 -3.22642 0.100936 0
M  V30 8364 H 804.248 -2.87169 2.49476 0
M  V30 8365 H 805.56 -3.90575 3.10246 0
M  V30 8366 H 804.714 -5.81665 1.72484 0
M  V30 8367 H 803.453 -4.77059 1.0132 0
M  V30 8368 H 802.458 -4.40574 3.289 0
M  V30 8369 H 803.683 -5.48622 4.00239 0
M  V30 8370 H 801.629 -6.278 1.9027 0
M  V30 8371 H 801.546 -6.65158 3.59306 0
M  V30 8372 H 802.814 -7.34022 2.62358 0
M  V30 8373 N 807.043 -1.17915 -1.04565 0
M  V30 8374 C 808.283 -0.982331 -1.79247 0
M  V30 8375 C 808.647 0.47998 -1.85904 0
M  V30 8376 O 809.848 0.796078 -2.56741 0
M  V30 8377 C 808.119 -1.61329 -3.18916 0
M  V30 8378 S 809.678 -1.56355 -4.09998 0
M  V30 8379 H 806.496 -0.352869 -0.617256 0
M  V30 8380 H 809.098 -1.49971 -1.25415 0
M  V30 8381 H 807.802 -2.66993 -3.11678 0
M  V30 8382 H 807.333 -1.09599 -3.77825 0
M  V30 8383 H 809.348 -0.57593 -4.92846 0
M  V30 8384 N 808.521 1.23394 -0.980386 0
M  V30 8385 C 809.746 1.96384 -0.666935 0
M  V30 8386 C 810.171 1.72087 0.759456 0
M  V30 8387 O 809.529 0.992328 1.51732 0
M  V30 8388 C 809.577 3.47499 -0.963177 0
M  V30 8389 O 808.681 4.12363 -0.0552051 0
M  V30 8390 H 808.022 0.614797 -0.250839 0
M  V30 8391 H 810.552 1.56831 -1.31398 0
M  V30 8392 H 810.562 3.97953 -0.899877 0
M  V30 8393 H 809.237 3.6451 -2.00264 0
M  V30 8394 H 807.814 3.72499 -0.172914 0
M  V30 8395 N 809.999 0.752036 1.385 0
M  V30 8396 C 811.245 0.307958 2.00448 0
M  V30 8397 C 811.578 -1.10702 1.59558 0
M  V30 8398 O 810.853 -1.75788 0.832391 0
M  V30 8399 C 811.136 0.429092 3.57534 0
M  V30 8400 C 810.989 1.88507 4.08393 0
M  V30 8401 C 812.308 -0.178442 4.39738 0
M  V30 8402 H 809.427 0.113373 0.728228 0
M  V30 8403 H 812.069 0.951389 1.64465 0
M  V30 8404 H 810.219 -0.118695 3.88319 0
M  V30 8405 H 811.891 2.49104 3.88259 0
M  V30 8406 H 810.134 2.40066 3.61318 0
M  V30 8407 H 810.805 1.92099 5.17496 0
M  V30 8408 H 813.281 0.28872 4.15097 0
M  V30 8409 H 812.157 -0.0634349 5.48863 0
M  V30 8410 H 812.418 -1.26655 4.23569 0
M  V30 8411 N 811.477 -1.49425 0.500989 0
M  V30 8412 C 812.407 -2.31971 -0.266775 0
M  V30 8413 C 813.388 -1.40245 -0.962563 0
M  V30 8414 O 814.573 -1.69154 -0.953968 0
M  V30 8415 C 811.703 -3.20757 -1.33163 0
M  V30 8416 C 810.657 -4.21275 -0.75572 0
M  V30 8417 C 809.983 -4.98997 -1.92109 0
M  V30 8418 C 811.283 -5.21686 0.253213 0
M  V30 8419 H 812.977 -2.96408 0.422237 0
M  V30 8420 H 810.523 -1.4254 0.204505 0
M  V30 8421 H 812.476 -3.77315 -1.87646 0
M  V30 8422 H 811.2 -2.54263 -2.04983 0
M  V30 8423 H 809.859 -3.65861 -0.232637 0
M  V30 8424 H 809.507 -4.28951 -2.62698 0
M  V30 8425 H 809.207 -5.67011 -1.54182 0
M  V30 8426 H 810.731 -5.584 -2.47026 0
M  V30 8427 H 812.145 -5.72939 -0.203483 0
M  V30 8428 H 810.542 -5.9759 0.548322 0
M  V30 8429 H 811.612 -4.70596 1.16909 0
M  V30 8430 N 812.955 -0.234822 -1.55841 0
M  V30 8431 C 813.903 0.686145 -2.22249 0
M  V30 8432 C 814.897 1.18948 -1.20614 0
M  V30 8433 O 816.103 1.14777 -1.38659 0
M  V30 8434 H 812.478 0.239724 -0.712767 0
M  V30 8435 H 814.449 0.102762 -2.98223 0
M  V30 8436 C 813.198 1.8776 -2.92646 0
M  V30 8437 H 812.521 1.49943 -3.70617 0
M  V30 8438 H 813.961 2.4995 -3.42493 0
M  V30 8439 C 812.42 2.74127 -1.95847 0
M  V30 8440 O 812.95 3.7329 -1.48384 0
M  V30 8441 N 811.156 2.4044 -1.63209 0
M  V30 8442 H 810.703 1.59854 -2.02001 0
M  V30 8443 H 810.661 2.98504 -0.987063 0
M  V30 8444 N 814.433 1.57553 0.0384317 0
M  V30 8445 C 815.343 2.09333 1.0591 0
M  V30 8446 C 816.359 1.0299 1.40247 0
M  V30 8447 O 817.535 1.34669 1.49754 0
M  V30 8448 C 814.6 2.55468 2.34386 0
M  V30 8449 C 813.661 3.76254 2.06716 0
M  V30 8450 C 812.894 4.20179 3.29067 0
M  V30 8451 O 813.117 3.637 4.39407 0
M  V30 8452 O 812.051 5.12697 3.15317 0
M  V30 8453 H 815.877 2.96683 0.649087 0
M  V30 8454 H 813.462 1.47211 0.254802 0
M  V30 8455 H 815.344 2.85514 3.09935 0
M  V30 8456 H 814.019 1.71234 2.74701 0
M  V30 8457 H 812.926 3.51241 1.28766 0
M  V30 8458 H 814.259 4.61443 1.71263 0
M  V30 8459 N 815.911 -0.310526 1.54511 0
M  V30 8460 C 816.858 -1.38264 1.84802 0
M  V30 8461 C 817.828 -1.50808 0.696141 0
M  V30 8462 O 819.013 -1.6582 0.943846 0
M  V30 8463 C 816.153 -2.74422 2.09252 0
M  V30 8464 C 815.266 -2.70405 3.36906 0
M  V30 8465 C 814.401 -3.98495 3.51248 0
M  V30 8466 C 813.44 -3.88836 4.72729 0
M  V30 8467 N 812.577 -5.08683 4.83928 0
M  V30 8468 H 817.417 -1.11732 2.76261 0
M  V30 8469 H 814.954 -0.540609 1.36806 0
M  V30 8470 H 816.912 -3.53593 2.21422 0
M  V30 8471 H 815.542 -2.99235 1.2107 0
M  V30 8472 H 814.594 -1.83151 3.33406 0
M  V30 8473 H 815.906 -2.59155 4.26193 0
M  V30 8474 H 815.06 -4.861 3.63031 0
M  V30 8475 H 813.799 -4.12567 2.60077 0
M  V30 8476 H 812.804 -2.99615 4.60989 0
M  V30 8477 H 814.029 -3.76318 5.65298 0
M  V30 8478 H 811.975 -5.23236 3.95677 0
M  V30 8479 H 811.892 -4.99819 5.67201 0
M  V30 8480 H 813.16 -5.97966 5.00057 0
M  V30 8481 N 817.389 -1.46805 -0.573248 0
M  V30 8482 C 818.319 -1.60951 -1.69165 0
M  V30 8483 C 819.3 -0.45948 -1.63777 0
M  V30 8484 O 820.485 -0.68688 -1.81647 0
M  V30 8485 C 817.615 -1.60844 -3.07809 0
M  V30 8486 C 816.569 -2.74913 -3.28035 0
M  V30 8487 C 815.895 -2.59871 -4.67302 0
M  V30 8488 C 817.195 -4.16654 -3.14955 0
M  V30 8489 H 818.889 -2.54574 -1.57582 0
M  V30 8490 H 816.435 -1.22516 -0.756686 0
M  V30 8491 H 818.388 -1.69334 -3.85881 0
M  V30 8492 H 817.112 -0.637714 -3.20314 0
M  V30 8493 H 815.771 -2.65908 -2.52366 0
M  V30 8494 H 815.419 -1.60861 -4.76585 0
M  V30 8495 H 815.119 -3.36386 -4.81786 0
M  V30 8496 H 816.643 -2.70265 -5.4753 0
M  V30 8497 H 818.057 -4.26721 -3.82861 0
M  V30 8498 H 816.454 -4.93831 -3.40956 0
M  V30 8499 H 817.524 -4.36146 -2.11908 0
M  V30 8500 N 818.867 0.818669 -1.34668 0
M  V30 8501 C 819.777 1.9616 -1.2868 0
M  V30 8502 C 820.793 1.72918 -0.193742 0
M  V30 8503 O 821.969 1.96951 -0.420975 0
M  V30 8504 C 819.034 3.30534 -1.04633 0
M  V30 8505 C 818.095 3.66755 -2.23136 0
M  V30 8506 C 817.328 4.94717 -2.00227 0
M  V30 8507 O 817.551 5.62218 -0.96264 0
M  V30 8508 O 816.485 5.28915 -2.87286 0
M  V30 8509 H 820.311 2.04157 -2.24842 0
M  V30 8510 H 817.896 0.954691 -1.14917 0
M  V30 8511 H 819.778 4.11005 -0.930216 0
M  V30 8512 H 818.453 3.23495 -0.115139 0
M  V30 8513 H 817.36 2.8671 -2.40308 0
M  V30 8514 H 818.693 3.78484 -3.1466 0
M  V30 8515 N 820.346 1.18468 1.03938 0
M  V30 8516 C 821.278 0.870615 2.12021 0
M  V30 8517 C 822.291 -0.132318 1.62261 0
M  V30 8518 O 823.48 0.0956901 1.78243 0
M  V30 8519 C 820.58 0.279727 3.37744 0
M  V30 8520 C 819.753 1.32863 4.16733 0
M  V30 8521 C 818.812 0.753204 5.20781 0
M  V30 8522 O 817.838 1.42825 5.5099 0
M  V30 8523 N 819.04 -0.448664 5.78764 0
M  V30 8524 H 821.805 1.80091 2.39556 0
M  V30 8525 H 819.366 1.08524 1.20142 0
M  V30 8526 H 821.358 -0.118829 4.04526 0
M  V30 8527 H 819.928 -0.554621 3.07641 0
M  V30 8528 H 819.148 1.90245 3.45254 0
M  V30 8529 H 820.436 2.03574 4.66299 0
M  V30 8530 H 819.834 -1.01481 5.56523 0
M  V30 8531 H 818.391 -0.789125 6.47005 0
M  V30 8532 N 821.824 -1.22873 0.986916 0
M  V30 8533 C 822.754 -2.2688 0.552064 0
M  V30 8534 C 823.735 -1.64883 -0.418048 0
M  V30 8535 O 824.92 -1.9171 -0.30999 0
M  V30 8536 C 822.05 -3.47018 -0.139959 0
M  V30 8537 C 821.004 -4.21411 0.748091 0
M  V30 8538 C 820.33 -5.34645 -0.0765132 0
M  V30 8539 C 821.63 -4.80726 2.04206 0
M  V30 8540 H 823.324 -2.63507 1.42143 0
M  V30 8541 H 820.87 -1.26668 0.68492 0
M  V30 8542 H 822.823 -4.18931 -0.455527 0
M  V30 8543 H 821.547 -3.0947 -1.04382 0
M  V30 8544 H 820.206 -3.51325 1.04721 0
M  V30 8545 H 819.854 -4.93339 -0.981109 0
M  V30 8546 H 819.554 -5.85342 0.514606 0
M  V30 8547 H 821.078 -6.09377 -0.386313 0
M  V30 8548 H 822.492 -5.44612 1.79083 0
M  V30 8549 H 820.889 -5.41737 2.5815 0
M  V30 8550 H 821.959 -4.01109 2.72469 0
M  V30 8551 N 823.302 -0.75937 -1.38099 0
M  V30 8552 C 824.232 -0.151077 -2.33011 0
M  V30 8553 C 825.213 0.697099 -1.5516 0
M  V30 8554 O 826.398 0.637101 -1.83452 0
M  V30 8555 C 823.528 0.738423 -3.39359 0
M  V30 8556 C 822.482 -0.0074741 -4.27999 0
M  V30 8557 C 821.808 1.00066 -5.25253 0
M  V30 8558 C 823.108 -1.17926 -5.08813 0
M  V30 8559 H 824.802 -0.943933 -2.84131 0
M  V30 8560 H 822.348 -0.455362 -1.36611 0
M  V30 8561 H 824.301 1.17369 -4.04725 0
M  V30 8562 H 823.025 1.56366 -2.86735 0
M  V30 8563 H 821.684 -0.423379 -3.64147 0
M  V30 8564 H 821.332 1.82012 -4.68914 0
M  V30 8565 H 821.032 0.506199 -5.85416 0
M  V30 8566 H 822.556 1.43512 -5.93495 0
M  V30 8567 H 823.97 -0.821262 -5.67387 0
M  V30 8568 H 822.367 -1.60497 -5.78239 0
M  V30 8569 H 823.437 -1.98938 -4.42212 0
M  V30 8570 N 824.78 1.49157 -0.508906 0
M  V30 8571 C 825.712 2.272 0.302115 0
M  V30 8572 C 826.725 1.3407 0.923529 0
M  V30 8573 O 827.914 1.5929 0.805532 0
M  V30 8574 C 825.014 3.06736 1.44105 0
M  V30 8575 C 824.187 4.27497 0.925477 0
M  V30 8576 C 823.246 4.89014 1.94297 0
M  V30 8577 O 822.272 5.48851 1.50834 0
M  V30 8578 N 823.474 4.7937 3.2739 0
M  V30 8579 H 826.239 2.97443 -0.367115 0
M  V30 8580 H 823.8 1.58248 -0.341933 0
M  V30 8581 H 825.792 3.44763 2.11944 0
M  V30 8582 H 824.362 2.3905 2.0143 0
M  V30 8583 H 823.582 3.94135 0.0717301 0
M  V30 8584 H 824.87 5.05714 0.55955 0
M  V30 8585 H 824.268 4.31869 3.65384 0
M  V30 8586 H 822.825 5.21559 3.90922 0
M  V30 8587 N 826.258 0.243083 1.55714 0
M  V30 8588 C 827.221 -0.644723 2.19945 0
M  V30 8589 C 828.221 -1.10562 1.16759 0
M  V30 8590 O 829.411 -1.01095 1.41865 0
M  V30 8591 C 826.543 -1.88569 2.83997 0
M  V30 8592 H 827.736 -0.0843839 2.99781 0
M  V30 8593 H 825.289 -0.00647246 1.56299 0
M  V30 8594 H 826.024 -2.48736 2.08089 0
M  V30 8595 H 825.809 -1.56345 3.59581 0
M  V30 8596 H 827.299 -2.51774 3.33166 0
M  V30 8597 N 827.736 -1.57571 -0.0300757 0
M  V30 8598 C 828.666 -2.0953 -1.03051 0
M  V30 8599 C 829.647 -0.99761 -1.37774 0
M  V30 8600 O 830.832 -1.27279 -1.46676 0
M  V30 8601 C 827.962 -2.57385 -2.33174 0
M  V30 8602 C 826.916 -3.71409 -2.12696 0
M  V30 8603 C 826.242 -4.05467 -3.4857 0
M  V30 8604 C 827.542 -4.99877 -1.51396 0
M  V30 8605 H 829.236 -2.93367 -0.597999 0
M  V30 8606 H 826.782 -1.41127 -0.286203 0
M  V30 8607 H 828.735 -2.92355 -3.03491 0
M  V30 8608 H 827.459 -1.70629 -2.78484 0
M  V30 8609 H 826.118 -3.36786 -1.44813 0
M  V30 8610 H 825.766 -3.15779 -3.91526 0
M  V30 8611 H 825.466 -4.82269 -3.35694 0
M  V30 8612 H 826.99 -4.4297 -4.2025 0
M  V30 8613 H 828.404 -5.3281 -2.11629 0
M  V30 8614 H 826.801 -5.81283 -1.49098 0
M  V30 8615 H 827.871 -4.82522 -0.479676 0
M  V30 8616 N 829.214 0.302327 -1.54673 0
M  V30 8617 C 830.164 1.37443 -1.81916 0
M  V30 8618 C 831.148 1.45999 -0.676251 0
M  V30 8619 O 832.34 1.50174 -0.93685 0
M  V30 8620 C 829.469 2.73966 -2.06876 0
M  V30 8621 C 828.555 2.69637 -3.27348 0
M  V30 8622 N 828.946 2.34926 -4.47933 0
M  V30 8623 C 827.244 3.00742 -3.29348 0
M  V30 8624 C 827.945 2.39862 -5.29944 0
M  V30 8625 N 826.921 2.77163 -4.67634 0
M  V30 8626 H 830.723 1.09567 -2.72713 0
M  V30 8627 H 828.237 0.5109 -1.54154 0
M  V30 8628 H 830.234 3.51265 -2.2454 0
M  V30 8629 H 828.894 3.02754 -1.17346 0
M  V30 8630 H 829.905 2.07403 -4.74557 0
M  V30 8631 H 826.582 3.34434 -2.49921 0
M  V30 8632 H 827.972 2.15835 -6.3629 0
M  V30 8633 N 830.692 1.47107 0.565454 0
M  V30 8634 C 831.92 1.56909 1.3486 0
M  V30 8635 C 832.335 0.216312 1.87557 0
M  V30 8636 O 831.692 -0.789168 1.64555 0
M  V30 8637 C 831.743 2.58776 2.52423 0
M  V30 8638 O 831.464 3.888 2.01906 0
M  V30 8639 C 832.965 2.78683 3.44747 0
M  V30 8640 H 830.185 0.530096 0.411387 0
M  V30 8641 H 832.729 1.92658 0.685782 0
M  V30 8642 H 830.884 2.25983 3.1466 0
M  V30 8643 H 831.298 4.44393 2.78595 0
M  V30 8644 H 832.772 3.53842 4.23674 0
M  V30 8645 H 833.249 1.86208 3.97773 0
M  V30 8646 H 833.855 3.12641 2.88333 0
M  V30 8647 N 832.17 -0.811516 1.35101 0
M  V30 8648 C 833.447 -1.55491 1.18667 0
M  V30 8649 C 833.827 -2.09775 -0.236189 0
M  V30 8650 O 833.175 -1.91989 -1.23905 0
M  V30 8651 C 833.385 -2.66732 2.25067 0
M  V30 8652 C 834.733 -3.35201 2.60625 0
M  V30 8653 O 835.757 -2.76998 2.23943 0
M  V30 8654 O 834.616 -4.40334 3.23679 0
M  V30 8655 H 831.71 -0.686783 0.460716 0
M  V30 8656 H 834.256 -0.851903 1.46768 0
M  V30 8657 H 833.028 -2.24457 3.20523 0
M  V30 8658 H 832.651 -3.44673 1.98208 0
M  V30 8659 N 833.648 -1.19017 -1.03309 0
M  V30 8660 C 834.873 -1.01598 -1.80811 0
M  V30 8661 C 835.298 0.430773 -1.83101 0
M  V30 8662 O 834.656 1.30946 -1.25391 0
M  V30 8663 C 834.704 -1.5845 -3.23923 0
M  V30 8664 O 833.808 -0.810972 -4.04348 0
M  V30 8665 H 833.149 -0.359398 -0.558327 0
M  V30 8666 H 835.679 -1.57945 -1.30055 0
M  V30 8667 H 835.689 -1.61486 -3.74682 0
M  V30 8668 H 834.364 -2.63752 -3.21571 0
M  V30 8669 H 832.941 -0.85353 -3.63 0
M  V30 8670 N 835.127 1.22348 -0.993418 0
M  V30 8671 C 836.059 2.23626 -0.502404 0
M  V30 8672 C 837.072 1.57739 0.402784 0
M  V30 8673 O 838.261 1.77321 0.204835 0
M  V30 8674 C 835.361 3.37647 0.291118 0
M  V30 8675 C 834.534 4.33121 -0.610332 0
M  V30 8676 C 833.593 5.26035 0.131572 0
M  V30 8677 O 832.619 5.67145 -0.483199 0
M  V30 8678 N 833.821 5.63023 1.41371 0
M  V30 8679 H 836.586 2.66385 -1.37329 0
M  V30 8680 H 834.147 1.36653 -0.868196 0
M  V30 8681 H 836.139 3.96792 0.796107 0
M  V30 8682 H 834.709 2.93967 1.0631 0
M  V30 8683 H 833.929 3.72287 -1.29598 0
M  V30 8684 H 835.217 4.93853 -1.22422 0
M  V30 8685 H 834.615 5.31596 1.93449 0
M  V30 8686 H 833.172 6.24582 1.86388 0
M  V30 8687 N 836.605 0.766683 1.37694 0
M  V30 8688 C 837.568 0.155849 2.2867 0
M  V30 8689 C 838.568 -0.633509 1.47795 0
M  V30 8690 O 839.758 -0.457844 1.68076 0
M  V30 8691 C 836.89 -0.786965 3.31692 0
M  V30 8692 H 838.083 0.957748 2.84196 0
M  V30 8693 H 835.636 0.534554 1.46875 0
M  V30 8694 H 836.371 -1.61406 2.8128 0
M  V30 8695 H 836.156 -0.223182 3.91464 0
M  V30 8696 H 837.646 -1.20994 3.99688 0
M  V30 8697 N 838.083 -1.48885 0.516809 0
M  V30 8698 C 839.046 -2.27916 -0.242256 0
M  V30 8699 C 840.046 -1.34601 -0.879735 0
M  V30 8700 O 841.236 -1.57616 -0.74182 0
M  V30 8701 C 838.368 -3.13067 -1.34914 0
M  V30 8702 H 839.561 -2.96483 0.451444 0
M  V30 8703 H 837.114 -1.5391 0.272294 0
M  V30 8704 H 837.849 -2.49102 -2.07651 0
M  V30 8705 H 837.634 -3.81695 -0.897313 0
M  V30 8706 H 839.124 -3.72716 -1.88341 0
M  V30 8707 N 839.561 -0.251338 -1.55583 0
M  V30 8708 C 840.972 0.25098 -1.85005 0
M  V30 8709 C 841.323 1.57259 -1.17321 0
M  V30 8710 O 840.448 2.11603 -0.453136 0
M  V30 8711 C 841.043 0.462161 -3.35633 0
M  V30 8712 C 839.602 0.908737 -3.65266 0
M  V30 8713 C 838.749 -0.0115418 -2.77298 0
M  V30 8714 H 841.7 -0.473782 -1.51463 0
M  V30 8715 H 841.721 1.30415 -3.57452 0
M  V30 8716 H 841.233 -0.499886 -3.84867 0
M  V30 8717 H 839.334 1.8831 -3.21512 0
M  V30 8718 H 839.447 0.762526 -4.72993 0
M  V30 8719 H 837.811 0.500612 -2.49732 0
M  V30 8720 H 838.594 -0.969042 -3.29339 0
M  V30 8721 N 841.039 1.57585 0.0217189 0
M  V30 8722 C 842.285 1.89887 0.712099 0
M  V30 8723 C 842.618 0.849971 1.74611 0
M  V30 8724 O 841.893 -0.13407 1.94037 0
M  V30 8725 C 842.176 3.32815 1.37499 0
M  V30 8726 C 842.029 4.48405 0.353993 0
M  V30 8727 C 843.348 3.74786 2.30703 0
M  V30 8728 H 840.467 0.690588 0.257405 0
M  V30 8729 H 843.109 1.89983 -0.0251145 0
M  V30 8730 H 841.259 3.32863 2.00335 0
M  V30 8731 H 842.931 4.60491 -0.273015 0
M  V30 8732 H 841.174 4.32573 -0.32599 0
M  V30 8733 H 841.845 5.45316 0.85644 0
M  V30 8734 H 844.321 3.76151 1.77904 0
M  V30 8735 H 843.197 4.75585 2.74061 0
M  V30 8736 H 843.458 3.07449 3.17691 0
M  V30 8737 N 842.517 -0.29412 1.54831 0
M  V30 8738 C 843.447 -1.36757 1.89261 0
M  V30 8739 C 844.428 -1.52564 0.752214 0
M  V30 8740 O 845.613 -1.65958 1.00855 0
M  V30 8741 C 842.743 -2.73066 2.14597 0
M  V30 8742 C 841.697 -2.72017 3.3044 0
M  V30 8743 C 841.023 -4.11679 3.4121 0
M  V30 8744 C 842.323 -2.33149 4.67375 0
M  V30 8745 H 844.017 -1.08191 2.79169 0
M  V30 8746 H 841.563 -0.519014 1.34321 0
M  V30 8747 H 843.516 -3.48255 2.37269 0
M  V30 8748 H 842.24 -3.03172 1.21467 0
M  V30 8749 H 840.899 -1.99285 3.07703 0
M  V30 8750 H 840.547 -4.38973 2.45584 0
M  V30 8751 H 840.247 -4.11877 4.19084 0
M  V30 8752 H 841.771 -4.88637 3.6615 0
M  V30 8753 H 843.185 -2.98054 4.89731 0
M  V30 8754 H 841.582 -2.44546 5.48012 0
M  V30 8755 H 842.652 -1.28275 4.67626 0
M  V30 8756 N 843.995 -1.47404 -0.557645 0
M  V30 8757 C 845.406 -1.47872 -1.13977 0
M  V30 8758 C 845.757 -0.233176 -1.94809 0
M  V30 8759 O 844.882 0.661945 -2.06027 0
M  V30 8760 C 845.477 -2.67926 -2.07368 0
M  V30 8761 C 844.036 -2.71354 -2.60852 0
M  V30 8762 C 843.183 -2.40967 -1.37223 0
M  V30 8763 H 846.134 -1.54921 -0.344268 0
M  V30 8764 H 846.155 -2.44871 -2.91236 0
M  V30 8765 H 845.667 -3.58562 -1.48509 0
M  V30 8766 H 843.768 -1.84855 -3.23511 0
M  V30 8767 H 843.881 -3.72032 -3.01876 0
M  V30 8768 H 842.245 -1.91541 -1.67882 0
M  V30 8769 H 843.028 -3.33811 -0.801583 0
M  V30 8770 N 845.473 0.80434 -1.35529 0
M  V30 8771 C 846.721 1.55845 -1.28673 0
M  V30 8772 C 847.042 1.94511 0.137976 0
M  V30 8773 O 846.312 1.63775 1.07492 0
M  V30 8774 H 844.892 0.577931 -0.473291 0
M  V30 8775 H 847.554 0.959293 -1.69657 0
M  V30 8776 H 846.65 2.47285 -1.90411 0
M  V30 8777 N 846.951 1.19563 1.02676 0
M  V30 8778 C 847.881 0.959024 2.12897 0
M  V30 8779 C 848.862 -0.108382 1.69754 0
M  V30 8780 O 850.047 0.0470698 1.94143 0
M  V30 8781 C 847.177 0.499211 3.43693 0
M  V30 8782 C 846.131 1.5087 4.00528 0
M  V30 8783 C 845.457 0.905884 5.2697 0
M  V30 8784 C 846.757 2.88954 4.3509 0
M  V30 8785 H 848.451 1.88084 2.32948 0
M  V30 8786 H 845.997 0.905731 1.11949 0
M  V30 8787 H 847.95 0.320965 4.20176 0
M  V30 8788 H 846.674 -0.458205 3.2337 0
M  V30 8789 H 845.333 1.67413 3.26142 0
M  V30 8790 H 844.981 -0.0591506 5.02965 0
M  V30 8791 H 844.681 1.58 5.65959 0
M  V30 8792 H 846.205 0.73848 6.06118 0
M  V30 8793 H 847.619 2.75981 5.02501 0
M  V30 8794 H 846.016 3.53177 4.85166 0
M  V30 8795 H 847.086 3.41447 3.44299 0
M  V30 8796 N 848.429 -1.21819 0.999893 0
M  V30 8797 C 849.654 -1.95298 0.698094 0
M  V30 8798 C 850.079 -1.73273 -0.731982 0
M  V30 8799 O 849.437 -1.01634 -1.50134 0
M  V30 8800 C 849.485 -3.45922 1.01834 0
M  V30 8801 O 848.589 -4.12223 0.120801 0
M  V30 8802 H 847.93 -0.610729 0.260588 0
M  V30 8803 H 850.46 -1.5472 1.33876 0
M  V30 8804 H 850.47 -3.96471 0.963074 0
M  V30 8805 H 849.145 -3.61278 2.06037 0
M  V30 8806 H 847.722 -3.72177 0.232153 0
M  V30 8807 N 849.908 -0.773975 -1.37286 0
M  V30 8808 C 851.319 -0.404433 -1.82267 0
M  V30 8809 C 851.67 1.06971 -1.64474 0
M  V30 8810 O 850.795 1.82867 -1.15708 0
M  V30 8811 C 851.39 -0.727298 -3.30902 0
M  V30 8812 C 849.949 -0.410784 -3.74152 0
M  V30 8813 C 849.096 -0.969983 -2.59782 0
M  V30 8814 H 852.047 -0.968437 -1.25726 0
M  V30 8815 H 852.068 -0.0127575 -3.80498 0
M  V30 8816 H 851.58 -1.80026 -3.4382 0
M  V30 8817 H 849.681 0.65477 -3.66802 0
M  V30 8818 H 849.794 -0.920592 -4.70172 0
M  V30 8819 H 848.158 -0.394094 -2.51633 0
M  V30 8820 H 848.941 -2.04839 -2.75492 0
M  V30 8821 N 851.386 1.48609 -0.524698 0
M  V30 8822 C 852.316 2.32366 0.229837 0
M  V30 8823 C 853.297 1.41759 0.940129 0
M  V30 8824 O 854.482 1.7065 0.926936 0
M  V30 8825 C 851.612 3.22835 1.28043 0
M  V30 8826 C 850.566 4.22424 0.688603 0
M  V30 8827 C 849.892 5.0199 1.84146 0
M  V30 8828 C 851.192 5.21217 -0.336176 0
M  V30 8829 H 852.886 2.95698 -0.469339 0
M  V30 8830 H 850.432 1.42197 -0.227156 0
M  V30 8831 H 852.385 3.80253 1.8162 0
M  V30 8832 H 851.109 2.57492 2.00912 0
M  V30 8833 H 849.768 3.66185 0.174402 0
M  V30 8834 H 849.416 4.33076 2.5584 0
M  V30 8835 H 849.116 5.69392 1.45142 0
M  V30 8836 H 850.64 5.62259 2.38111 0
M  V30 8837 H 852.054 5.7319 0.112307 0
M  V30 8838 H 850.451 5.96642 -0.643324 0
M  V30 8839 H 851.521 4.68676 -1.24381 0
M  V30 8840 N 852.864 0.259585 1.55447 0
M  V30 8841 C 854.113 -0.362163 1.98422 0
M  V30 8842 C 854.426 -1.58135 1.1512 0
M  V30 8843 O 855.632 -2.27506 1.48166 0
M  V30 8844 C 854.088 -0.695722 3.53111 0
M  V30 8845 C 853.696 0.502784 4.4517 0
M  V30 8846 C 855.44 -1.28096 4.04712 0
M  V30 8847 C 853.347 0.144674 5.91223 0
M  V30 8848 H 852.277 -0.139092 0.74106 0
M  V30 8849 H 854.928 0.361798 1.79898 0
M  V30 8850 H 853.31 -1.47816 3.67378 0
M  V30 8851 H 854.484 1.27994 4.42667 0
M  V30 8852 H 852.799 1.0038 4.0412 0
M  V30 8853 H 855.396 -1.56243 5.11363 0
M  V30 8854 H 855.739 -2.20969 3.52815 0
M  V30 8855 H 856.272 -0.561146 3.93822 0
M  V30 8856 H 853.011 1.04087 6.47183 0
M  V30 8857 H 852.531 -0.596023 5.96831 0
M  V30 8858 H 854.21 -0.268651 6.46442 0
M  V30 8859 N 854.342 -1.57594 -0.0133615 0
M  V30 8860 C 855.588 -1.90262 -0.702019 0
M  V30 8861 C 855.921 -0.859219 -1.74158 0
M  V30 8862 O 855.196 0.123778 -1.94106 0
M  V30 8863 C 855.479 -3.3354 -1.35732 0
M  V30 8864 C 855.332 -4.48586 -0.330208 0
M  V30 8865 C 856.651 -3.76004 -2.28712 0
M  V30 8866 H 853.77 -0.691943 -0.253739 0
M  V30 8867 H 856.412 -1.89967 0.0351894 0
M  V30 8868 H 854.562 -3.33921 -1.98567 0
M  V30 8869 H 856.234 -4.6034 0.297433 0
M  V30 8870 H 854.477 -4.32394 0.348926 0
M  V30 8871 H 855.148 -5.45762 -0.827508 0
M  V30 8872 H 857.624 -3.77089 -1.75906 0
M  V30 8873 H 856.5 -4.77032 -2.71535 0
M  V30 8874 H 856.761 -3.09129 -3.16056 0
M  V30 8875 N 855.82 0.285905 -1.54985 0
M  V30 8876 C 856.73 1.37534 -1.90057 0
M  V30 8877 C 857.746 1.54707 -0.796348 0
M  V30 8878 O 858.922 1.69082 -1.09423 0
M  V30 8879 C 855.987 2.7167 -2.15398 0
M  V30 8880 C 855.048 2.63354 -3.39033 0
M  V30 8881 C 854.281 3.91093 -3.63155 0
M  V30 8882 O 854.504 4.91169 -2.90015 0
M  V30 8883 O 853.438 3.92075 -4.56685 0
M  V30 8884 H 857.264 1.10791 -2.8277 0
M  V30 8885 H 854.849 0.483303 -1.41367 0
M  V30 8886 H 856.731 3.51006 -2.33179 0
M  V30 8887 H 855.406 2.98226 -1.25868 0
M  V30 8888 H 854.313 1.82438 -3.26599 0
M  V30 8889 H 855.646 2.41749 -4.2874 0
M  V30 8890 N 857.298 1.47698 0.54982 0
M  V30 8891 C 858.208 1.63386 1.68351 0
M  V30 8892 C 859.224 0.516583 1.66155 0
M  V30 8893 O 860.4 0.785088 1.85468 0
M  V30 8894 C 857.465 1.6513 3.04849 0
M  V30 8895 C 856.526 2.88338 3.18056 0
M  V30 8896 C 855.759 2.8999 4.48042 0
M  V30 8897 O 855.982 2.00633 5.3395 0
M  V30 8898 O 854.916 3.81938 4.65196 0
M  V30 8899 H 858.742 2.59329 1.58057 0
M  V30 8900 H 856.327 1.30869 0.72067 0
M  V30 8901 H 858.209 1.68913 3.86065 0
M  V30 8902 H 856.884 0.723555 3.1551 0
M  V30 8903 H 855.791 2.90097 2.36209 0
M  V30 8904 H 857.124 3.80431 3.12302 0
M  V30 8905 N 858.776 -0.797141 1.35954 0
M  V30 8906 C 860.053 -1.54224 1.2031 0
M  V30 8907 C 860.433 -2.10013 -0.213926 0
M  V30 8908 O 859.781 -1.93292 -1.21862 0
M  V30 8909 C 859.991 -2.6433 2.27883 0
M  V30 8910 C 861.339 -3.32418 2.64165 0
M  V30 8911 O 862.363 -2.74607 2.26868 0
M  V30 8912 O 861.222 -4.36876 3.28331 0
M  V30 8913 H 858.316 -0.681857 0.467974 0
M  V30 8914 H 860.862 -0.836288 1.47663 0
M  V30 8915 H 859.634 -2.21044 3.22885 0
M  V30 8916 H 859.257 -3.42551 2.01853 0
M  V30 8917 N 860.254 -1.20106 -1.0204 0
M  V30 8918 C 861.217 -0.948261 -2.08664 0
M  V30 8919 C 862.217 0.0746753 -1.60627 0
M  V30 8920 O 863.407 -0.160981 -1.73455 0
M  V30 8921 C 860.539 -0.426854 -3.38217 0
M  V30 8922 H 861.732 -1.894 -2.32524 0
M  V30 8923 H 859.285 -1.0159 -1.18782 0
M  V30 8924 H 860.02 0.524532 -3.2003 0
M  V30 8925 H 859.805 -1.16451 -3.74408 0
M  V30 8926 H 861.295 -0.269346 -4.1673 0
M  V30 8927 N 861.732 1.21287 -1.00634 0
M  V30 8928 C 862.978 1.90671 -0.690822 0
M  V30 8929 C 863.311 1.77996 0.776592 0
M  V30 8930 O 862.586 1.15748 1.5631 0
M  V30 8931 C 862.869 3.42426 -1.11428 0
M  V30 8932 C 862.722 3.64086 -2.64124 0
M  V30 8933 C 864.041 4.34851 -0.677686 0
M  V30 8934 H 861.16 0.692419 -0.252439 0
M  V30 8935 H 863.802 1.42893 -1.25226 0
M  V30 8936 H 861.952 3.83249 -0.636586 0
M  V30 8937 H 863.624 3.32582 -3.19667 0
M  V30 8938 H 861.867 3.07906 -3.05576 0
M  V30 8939 H 862.538 4.7042 -2.88806 0
M  V30 8940 H 865.014 4.01619 -1.0882 0
M  V30 8941 H 863.89 5.39675 -1.00213 0
M  V30 8942 H 864.151 4.4009 0.421125 0
M  V30 8943 N 863.21 0.781244 1.36873 0
M  V30 8944 C 864.12 0.174981 2.33947 0
M  V30 8945 C 865.136 -0.668512 1.60645 0
M  V30 8946 O 866.312 -0.586213 1.9268 0
M  V30 8947 C 863.377 -0.686557 3.39834 0
M  V30 8948 C 862.438 0.174489 4.28945 0
M  V30 8949 C 861.671 -0.646024 5.29776 0
M  V30 8950 O 861.894 -1.88254 5.38439 0
M  V30 8951 O 860.828 -0.0502214 6.01879 0
M  V30 8952 H 864.654 0.977382 2.87543 0
M  V30 8953 H 862.239 0.542559 1.392 0
M  V30 8954 H 864.121 -1.1781 4.04597 0
M  V30 8955 H 862.796 -1.46699 2.8855 0
M  V30 8956 H 861.703 0.712604 3.6725 0
M  V30 8957 H 863.036 0.918232 4.83559 0
M  V30 8958 N 864.689 -1.48329 0.532571 0
M  V30 8959 C 865.914 -2.074 0.00147755 0
M  V30 8960 C 866.339 -1.38615 -1.27151 0
M  V30 8961 O 865.697 -0.452949 -1.75551 0
M  V30 8962 C 865.745 -3.60029 -0.202866 0
M  V30 8963 O 864.849 -3.92327 -1.27097 0
M  V30 8964 H 864.19 -0.662777 0.0402883 0
M  V30 8965 H 866.72 -1.90701 0.741224 0
M  V30 8966 H 866.73 -4.05783 -0.424722 0
M  V30 8967 H 865.405 -4.09496 0.727033 0
M  V30 8968 H 863.982 -3.58348 -1.03156 0
M  V30 8969 N 866.167 -0.267825 -1.55308 0
M  V30 8970 C 867.392 0.357487 -2.04296 0
M  V30 8971 C 867.817 1.49222 -1.14518 0
M  V30 8972 O 867.175 1.80741 -0.142292 0
M  V30 8973 C 867.223 0.822899 -3.51085 0
M  V30 8974 O 866.327 1.93078 -3.6441 0
M  V30 8975 H 865.668 0.075025 -0.659748 0
M  V30 8976 H 868.198 -0.399996 -2.00652 0
M  V30 8977 H 868.208 1.12059 -3.92309 0
M  V30 8978 H 866.883 -0.0073562 -4.15899 0
M  V30 8979 H 865.46 1.63618 -3.35087 0
M  V30 8980 N 867.645 1.57599 0.00500368 0
M  V30 8981 C 868.87 1.95026 0.705663 0
M  V30 8982 C 869.295 0.869643 1.6679 0
M  V30 8983 O 868.653 -0.172659 1.80476 0
M  V30 8984 C 868.701 3.31545 1.4181 0
M  V30 8985 O 867.805 3.25495 2.53232 0
M  V30 8986 H 867.146 0.636808 0.188074 0
M  V30 8987 H 869.676 2.04547 -0.046696 0
M  V30 8988 H 869.686 3.66996 1.78265 0
M  V30 8989 H 868.361 4.09751 0.712543 0
M  V30 8990 H 866.938 3.01714 2.19142 0
M  V30 8991 N 869.123 -0.277682 1.55134 0
M  V30 8992 C 870.033 -1.36524 1.90783 0
M  V30 8993 C 871.049 -1.54283 0.804542 0
M  V30 8994 O 872.225 -1.68499 1.10318 0
M  V30 8995 C 869.29 -2.70524 2.16835 0
M  V30 8996 C 868.351 -2.61552 3.40424 0
M  V30 8997 C 867.584 -3.89162 3.65224 0
M  V30 8998 O 867.807 -4.89624 2.92616 0
M  V30 8999 O 866.741 -3.89647 4.58758 0
M  V30 9000 H 870.567 -1.0929 2.83354 0
M  V30 9001 H 868.152 -0.475799 1.41621 0
M  V30 9002 H 870.034 -3.49765 2.35038 0
M  V30 9003 H 868.709 -2.97555 1.27448 0
M  V30 9004 H 867.616 -1.80704 3.27562 0
M  V30 9005 H 868.949 -2.39472 4.30016 0
M  V30 9006 N 870.601 -1.47988 -0.541979 0
M  V30 9007 C 871.511 -1.64276 -1.67483 0
M  V30 9008 C 872.527 -0.525387 -1.65879 0
M  V30 9009 O 873.703 -0.794912 -1.85049 0
M  V30 9010 C 870.768 -1.66744 -3.03969 0
M  V30 9011 C 869.829 -2.90021 -3.16522 0
M  V30 9012 C 869.062 -2.92362 -4.46498 0
M  V30 9013 O 869.285 -2.03462 -5.32878 0
M  V30 9014 O 868.219 -3.84399 -4.63164 0
M  V30 9015 H 872.045 -2.60164 -1.5668 0
M  V30 9016 H 869.63 -1.31249 -0.71372 0
M  V30 9017 H 871.512 -1.70958 -3.85164 0
M  V30 9018 H 870.187 -0.740277 -3.15122 0
M  V30 9019 H 869.094 -2.91345 -2.34667 0
M  V30 9020 H 870.427 -3.82082 -3.10281 0
M  V30 9021 N 872.079 0.78992 -1.36375 0
M  V30 9022 C 873.304 1.58389 -1.33895 0
M  V30 9023 C 873.729 1.8794 0.0774934 0
M  V30 9024 O 873.087 1.4785 1.0493 0
M  V30 9025 C 873.135 2.88201 -2.16732 0
M  V30 9026 O 872.239 3.81778 -1.55946 0
M  V30 9027 H 871.58 0.480471 -0.458305 0
M  V30 9028 H 874.11 0.979119 -1.79651 0
M  V30 9029 H 874.12 3.37475 -2.29292 0
M  V30 9030 H 872.795 2.66019 -3.19698 0
M  V30 9031 H 871.372 3.40371 -1.52323 0
M  V30 9032 N 873.557 1.20646 1.01402 0
M  V30 9033 C 874.487 0.98155 2.11867 0
M  V30 9034 C 875.468 -0.0903712 1.6986 0
M  V30 9035 O 876.653 0.0676586 1.94082 0
M  V30 9036 C 873.783 0.535636 3.43145 0
M  V30 9037 C 872.737 1.55109 3.98905 0
M  V30 9038 C 872.063 0.961725 5.2598 0
M  V30 9039 C 873.363 2.93552 4.32001 0
M  V30 9040 H 875.057 1.90544 2.3094 0
M  V30 9041 H 872.603 0.917554 1.10982 0
M  V30 9042 H 874.556 0.365512 4.19812 0
M  V30 9043 H 873.28 -0.423882 3.23838 0
M  V30 9044 H 871.939 1.70862 3.24348 0
M  V30 9045 H 871.587 -0.00580108 5.03 0
M  V30 9046 H 871.287 1.63993 5.64252 0
M  V30 9047 H 872.811 0.802726 6.053 0
M  V30 9048 H 874.225 2.81295 4.99546 0
M  V30 9049 H 872.622 3.58303 4.81393 0
M  V30 9050 H 873.692 3.4508 3.40658 0
M  V30 9051 N 875.035 -1.20752 1.01276 0
M  V30 9052 C 876.283 -1.89645 0.698505 0
M  V30 9053 C 876.604 -1.78986 -0.773883 0
M  V30 9054 O 875.874 -1.18977 -1.55632 0
M  V30 9055 H 874.454 -0.701992 0.255375 0
M  V30 9056 H 877.116 -1.46668 1.28353 0
M  V30 9057 H 876.212 -2.96364 0.978512 0
M  V30 9058 N 876.513 -0.788492 -1.36457 0
M  V30 9059 C 877.423 -0.187385 -2.3385 0
M  V30 9060 C 878.439 0.659984 -1.60998 0
M  V30 9061 O 879.615 0.575986 -1.92988 0
M  V30 9062 C 876.68 0.668525 -3.40194 0
M  V30 9063 C 875.741 -0.197234 -4.28847 0
M  V30 9064 C 874.974 0.61792 -5.30111 0
M  V30 9065 O 875.197 1.85396 -5.3943 0
M  V30 9066 O 874.131 0.0183016 -6.01897 0
M  V30 9067 H 877.957 -0.992617 -2.87021 0
M  V30 9068 H 875.542 -0.549934 -1.3891 0
M  V30 9069 H 877.424 1.15663 -4.05216 0
M  V30 9070 H 876.099 1.45166 -2.89324 0
M  V30 9071 H 875.006 -0.73207 -3.66867 0
M  V30 9072 H 876.339 -0.943863 -4.83065 0
M  V30 9073 N 877.991 1.48044 -0.54043 0
M  V30 9074 C 879.216 2.07396 -0.0124765 0
M  V30 9075 C 879.641 1.39288 1.26414 0
M  V30 9076 O 878.999 0.462252 1.75308 0
M  V30 9077 C 879.047 3.60131 0.18377 0
M  V30 9078 O 878.151 3.92995 1.25014 0
M  V30 9079 H 877.492 0.662554 -0.0438026 0
M  V30 9080 H 880.022 1.90306 -0.751327 0
M  V30 9081 H 880.032 4.06003 0.403197 0
M  V30 9082 H 878.707 4.09105 -0.74874 0
M  V30 9083 H 877.284 3.5889 1.01254 0
M  V30 9084 N 879.47 0.276058 1.55163 0
M  V30 9085 C 880.417 -0.611006 2.22565 0
M  V30 9086 C 881.387 -1.14902 1.19945 0
M  V30 9087 O 882.572 -1.19815 1.48489 0
M  V30 9088 C 879.712 -1.78885 2.95117 0
M  V30 9089 C 878.825 -1.2846 4.12458 0
M  V30 9090 C 877.96 -2.42432 4.72652 0
M  V30 9091 C 876.999 -1.89015 5.82185 0
M  V30 9092 N 876.136 -2.96463 6.36439 0
M  V30 9093 H 880.976 -0.0295849 2.97985 0
M  V30 9094 H 878.513 -0.00283607 1.471 0
M  V30 9095 H 880.471 -2.48121 3.35398 0
M  V30 9096 H 879.101 -2.34229 2.22119 0
M  V30 9097 H 878.153 -0.485312 3.77292 0
M  V30 9098 H 879.465 -0.853358 4.91446 0
M  V30 9099 H 878.619 -3.19659 5.15658 0
M  V30 9100 H 877.358 -2.88872 3.92943 0
M  V30 9101 H 876.363 -1.10267 5.38629 0
M  V30 9102 H 877.588 -1.43509 6.63763 0
M  V30 9103 H 875.534 -3.42283 5.59623 0
M  V30 9104 H 875.451 -2.57759 7.10701 0
M  V30 9105 H 876.719 -3.73663 6.84103 0
M  V30 9106 N 880.948 -1.576 0.00335426 0
M  V30 9107 C 881.858 -2.12067 -1.00322 0
M  V30 9108 C 882.874 -1.06672 -1.37467 0
M  V30 9109 O 884.05 -1.38592 -1.46131 0
M  V30 9110 C 881.115 -2.61593 -2.27531 0
M  V30 9111 C 880.176 -3.81602 -1.96668 0
M  V30 9112 C 879.409 -4.28756 -3.17811 0
M  V30 9113 O 879.632 -3.75222 -4.2961 0
M  V30 9114 O 878.566 -5.20877 -3.01613 0
M  V30 9115 H 882.392 -2.98299 -0.570199 0
M  V30 9116 H 879.977 -1.47835 -0.215682 0
M  V30 9117 H 881.859 -2.93631 -3.02256 0
M  V30 9118 H 880.534 -1.78457 -2.70065 0
M  V30 9119 H 879.441 -3.54531 -1.19408 0
M  V30 9120 H 880.774 -4.65822 -1.58968 0
M  V30 9121 N 882.426 0.269451 -1.5528 0
M  V30 9122 C 883.358 1.35553 -1.84819 0
M  V30 9123 C 884.371 1.45369 -0.732914 0
M  V30 9124 O 885.56 1.47122 -1.0108 0
M  V30 9125 C 882.66 2.73645 -1.9993 0
M  V30 9126 C 881.833 2.86376 -3.30617 0
M  V30 9127 C 880.892 4.05165 -3.35749 0
M  V30 9128 O 879.918 3.95756 -4.09104 0
M  V30 9129 N 881.12 5.17297 -2.63408 0
M  V30 9130 H 883.885 1.10557 -2.78563 0
M  V30 9131 H 881.446 0.459566 -1.5524 0
M  V30 9132 H 883.438 3.51411 -2.00729 0
M  V30 9133 H 882.008 2.91448 -1.13035 0
M  V30 9134 H 881.228 1.95465 -3.42326 0
M  V30 9135 H 882.516 2.91815 -4.16799 0
M  V30 9136 H 881.914 5.2783 -2.03501 0
M  V30 9137 H 880.471 5.93281 -2.69927 0
M  V30 9138 N 883.904 1.48273 0.534124 0
M  V30 9139 C 884.834 1.6538 1.64839 0
M  V30 9140 C 885.815 0.502741 1.62501 0
M  V30 9141 O 887 0.734799 1.79762 0
M  V30 9142 C 884.13 1.68949 3.03436 0
M  V30 9143 C 883.084 2.83513 3.20631 0
M  V30 9144 C 882.41 2.72169 4.60248 0
M  V30 9145 C 883.71 4.24858 3.03797 0
M  V30 9146 H 885.404 2.58663 1.50777 0
M  V30 9147 H 882.95 1.24479 0.723937 0
M  V30 9148 H 884.903 1.79505 3.81256 0
M  V30 9149 H 883.627 0.722415 3.1851 0
M  V30 9150 H 882.286 2.72505 2.45227 0
M  V30 9151 H 881.934 1.7344 4.72152 0
M  V30 9152 H 881.634 3.49042 4.72698 0
M  V30 9153 H 883.158 2.84687 5.40172 0
M  V30 9154 H 884.572 4.36721 3.71413 0
M  V30 9155 H 882.969 5.02697 3.27743 0
M  V30 9156 H 884.039 4.41611 2.0027 0
M  V30 9157 N 885.382 -0.782676 1.36792 0
M  V30 9158 C 886.63 -1.53778 1.31136 0
M  V30 9159 C 886.951 -1.94706 -0.107014 0
M  V30 9160 O 886.221 -1.65465 -1.04872 0
M  V30 9161 H 884.801 -0.570328 0.482426 0
M  V30 9162 H 887.463 -0.932181 1.71162 0
M  V30 9163 H 886.559 -2.44224 1.94321 0
M  V30 9164 N 886.86 -1.21182 -1.00761 0
M  V30 9165 C 888.137 -0.936297 -1.71735 0
M  V30 9166 C 888.517 0.552585 -2.03739 0
M  V30 9167 O 887.865 1.51672 -1.70903 0
M  V30 9168 C 888.075 -1.81867 -2.97868 0
M  V30 9169 C 889.423 -2.06594 -3.7095 0
M  V30 9170 O 890.447 -1.79194 -3.07844 0
M  V30 9171 O 889.306 -2.5292 -4.84452 0
M  V30 9172 H 886.4 -0.350867 -0.74888 0
M  V30 9173 H 888.946 -1.32098 -1.06527 0
M  V30 9174 H 887.718 -2.82643 -2.70607 0
M  V30 9175 H 887.341 -1.43463 -3.70815 0
M  V30 9176 N 888.338 1.20213 -1.01915 0
M  V30 9177 C 889.615 1.85348 -0.62495 0
M  V30 9178 C 889.995 1.91101 0.896854 0
M  V30 9179 O 889.343 1.42075 1.78961 0
M  V30 9180 C 889.553 3.24849 -1.27571 0
M  V30 9181 C 890.901 4.01107 -1.39277 0
M  V30 9182 O 891.925 3.34211 -1.23212 0
M  V30 9183 O 890.784 5.20914 -1.6526 0
M  V30 9184 H 887.878 0.798303 -0.215965 0
M  V30 9185 H 890.424 1.27782 -1.11669 0
M  V30 9186 H 889.196 3.1544 -2.31545 0
M  V30 9187 H 888.819 3.90049 -0.77122 0
M  V30 9188 N 889.816 0.795718 1.36037 0
M  V30 9189 C 891.062 0.371574 1.99367 0
M  V30 9190 C 891.395 -1.0557 1.62999 0
M  V30 9191 O 890.67 -1.73051 0.887895 0
M  V30 9192 C 890.953 0.542622 3.55988 0
M  V30 9193 C 890.806 2.01404 4.0219 0
M  V30 9194 C 892.125 -0.0384527 4.40083 0
M  V30 9195 H 889.244 0.136483 0.724252 0
M  V30 9196 H 891.886 1.00323 1.61355 0
M  V30 9197 H 890.036 0.0049053 3.885 0
M  V30 9198 H 891.708 2.6133 3.80137 0
M  V30 9199 H 889.951 2.51439 3.53498 0
M  V30 9200 H 890.622 2.08466 5.11122 0
M  V30 9201 H 893.098 0.420634 4.13968 0
M  V30 9202 H 891.974 0.111214 5.48787 0
M  V30 9203 H 892.235 -1.13116 4.27384 0
M  V30 9204 N 891.294 -1.47756 0.548274 0
M  V30 9205 C 892.522 -2.06884 0.0254873 0
M  V30 9206 C 892.937 -1.40225 -1.26422 0
M  V30 9207 O 892.294 -0.495776 -1.75637 0
M  V30 9208 C 892.345 -3.61036 -0.183134 0
M  V30 9209 O 892.066 -4.25195 1.05549 0
M  V30 9210 C 893.567 -4.37008 -0.744222 0
M  V30 9211 H 890.787 -0.669697 0.041789 0
M  V30 9212 H 893.331 -1.89888 0.759138 0
M  V30 9213 H 891.486 -3.77576 -0.866886 0
M  V30 9214 H 891.9 -5.17606 0.847629 0
M  V30 9215 H 893.374 -5.45579 -0.839529 0
M  V30 9216 H 893.851 -4.0268 -1.75344 0
M  V30 9217 H 894.457 -4.25191 -0.0964542 0
M  V30 9218 N 892.772 -0.284283 -1.55015 0
M  V30 9219 C 893.719 0.599194 -2.22886 0
M  V30 9220 C 894.689 1.14264 -1.20553 0
M  V30 9221 O 895.874 1.19025 -1.49123 0
M  V30 9222 C 893.014 1.77317 -2.96062 0
M  V30 9223 C 892.127 1.26271 -4.13134 0
M  V30 9224 C 891.262 2.39922 -4.73931 0
M  V30 9225 C 890.301 1.85925 -5.8318 0
M  V30 9226 N 889.438 2.93084 -6.38002 0
M  V30 9227 H 894.278 0.0137816 -2.97997 0
M  V30 9228 H 891.815 -0.00496503 -1.47099 0
M  V30 9229 H 893.773 2.46339 -3.36709 0
M  V30 9230 H 892.403 2.33047 -2.23358 0
M  V30 9231 H 891.455 0.465296 -3.77544 0
M  V30 9232 H 892.767 0.827284 -4.91892 0
M  V30 9233 H 891.921 3.1692 -5.17346 0
M  V30 9234 H 890.66 2.86784 -3.9447 0
M  V30 9235 H 889.665 1.07409 -5.39206 0
M  V30 9236 H 890.89 1.39987 -6.64515 0
M  V30 9237 H 888.836 3.3931 -5.61431 0
M  V30 9238 H 888.753 2.53986 -7.12058 0
M  V30 9239 H 890.021 3.7003 -6.86075 0
M  V30 9240 N 894.251 1.57596 -0.0117121 0
M  V30 9241 C 895.662 1.79033 0.529521 0
M  V30 9242 C 896.013 0.920299 1.73277 0
M  V30 9243 O 895.138 0.125934 2.16033 0
M  V30 9244 C 895.733 3.24695 0.967405 0
M  V30 9245 C 894.292 3.47188 1.45387 0
M  V30 9246 C 893.439 2.74245 0.410466 0
M  V30 9247 H 896.39 1.56908 -0.237836 0
M  V30 9248 H 896.411 3.33451 1.83278 0
M  V30 9249 H 895.923 3.87992 0.0914605 0
M  V30 9250 H 894.024 2.89121 2.35032 0
M  V30 9251 H 894.137 4.55886 1.47325 0
M  V30 9252 H 892.501 2.39209 0.874721 0
M  V30 9253 H 893.284 3.40248 -0.456713 0
M  V30 9254 N 895.729 -0.261212 1.5542 0
M  V30 9255 C 896.954 -1.01341 1.80955 0
M  V30 9256 C 897.379 -1.78711 0.586849 0
M  V30 9257 O 896.737 -1.75266 -0.463837 0
M  V30 9258 C 896.785 -1.93835 3.04073 0
M  V30 9259 O 895.889 -3.02791 2.79985 0
M  V30 9260 H 895.23 -0.289123 0.597749 0
M  V30 9261 H 897.76 -0.286543 2.02584 0
M  V30 9262 H 897.77 -2.3557 3.33123 0
M  V30 9263 H 896.445 -1.36936 3.9271 0
M  V30 9264 H 895.022 -2.65287 2.62063 0
M  V30 9265 N 897.207 -1.48554 -0.526253 0
M  V30 9266 C 898.432 -1.60686 -1.31129 0
M  V30 9267 C 898.857 -0.268701 -1.86171 0
M  V30 9268 O 898.215 0.760167 -1.64594 0
M  V30 9269 C 898.263 -2.65938 -2.43536 0
M  V30 9270 O 897.367 -2.23356 -3.46678 0
M  V30 9271 H 896.708 -0.538691 -0.388211 0
M  V30 9272 H 899.238 -1.94567 -0.632826 0
M  V30 9273 H 899.248 -2.87327 -2.89668 0
M  V30 9274 H 897.923 -3.63085 -2.02835 0
M  V30 9275 H 896.5 -2.12196 -3.06639 0
M  V30 9276 N 898.685 0.775411 -1.37205 0
M  V30 9277 C 899.617 1.89761 -1.28544 0
M  V30 9278 C 900.63 1.61542 -0.201996 0
M  V30 9279 O 901.819 1.72528 -0.457848 0
M  V30 9280 C 898.919 3.24904 -0.963885 0
M  V30 9281 C 898.092 3.80796 -2.15205 0
M  V30 9282 C 897.151 4.94407 -1.80135 0
M  V30 9283 O 896.177 5.10185 -2.52388 0
M  V30 9284 N 897.379 5.75722 -0.743298 0
M  V30 9285 H 900.144 1.97708 -2.25237 0
M  V30 9286 H 897.705 0.954348 -1.30782 0
M  V30 9287 H 899.697 3.9842 -0.710182 0
M  V30 9288 H 898.267 3.12483 -0.085632 0
M  V30 9289 H 897.487 2.99101 -2.56773 0
M  V30 9290 H 898.775 4.1487 -2.94552 0
M  V30 9291 H 898.173 5.65518 -0.143655 0
M  V30 9292 H 896.73 6.4948 -0.549446 0
M  V30 9293 N 900.163 1.21714 1.00117 0
M  V30 9294 C 901.11 0.979837 2.08968 0
M  V30 9295 C 902.08 -0.0955324 1.65825 0
M  V30 9296 O 903.265 0.0523742 1.90728 0
M  V30 9297 C 900.405 0.554758 3.40612 0
M  V30 9298 C 899.518 1.69999 3.97145 0
M  V30 9299 C 898.653 1.2237 5.16913 0
M  V30 9300 C 897.692 2.34101 5.65564 0
M  V30 9301 N 896.829 1.87579 6.76579 0
M  V30 9302 H 901.669 1.91167 2.28602 0
M  V30 9303 H 899.206 0.952645 1.12085 0
M  V30 9304 H 901.164 0.289526 4.16194 0
M  V30 9305 H 899.794 -0.340073 3.21004 0
M  V30 9306 H 898.846 2.07976 3.18512 0
M  V30 9307 H 900.158 2.54074 4.29241 0
M  V30 9308 H 899.312 0.915358 5.99755 0
M  V30 9309 H 898.051 0.353045 4.8642 0
M  V30 9310 H 897.056 2.65734 4.81316 0
M  V30 9311 H 898.281 3.21669 5.98085 0
M  V30 9312 H 896.227 1.02863 6.47885 0
M  V30 9313 H 896.144 2.65225 7.07949 0
M  V30 9314 H 897.412 1.5979 7.62947 0
M  V30 9315 N 901.641 -1.19671 1.02551 0
M  V30 9316 C 902.604 -2.20987 0.608055 0
M  V30 9317 C 903.604 -1.5745 -0.326534 0
M  V30 9318 O 904.794 -1.73827 -0.114003 0
M  V30 9319 C 901.926 -3.4072 -0.11074 0
M  V30 9320 H 903.119 -2.59434 1.50446 0
M  V30 9321 H 900.672 -1.3329 0.816307 0
M  V30 9322 H 901.407 -3.07787 -1.02165 0
M  V30 9323 H 901.192 -3.88069 0.560772 0
M  V30 9324 H 902.682 -4.15776 -0.389848 0
M  V30 9325 N 903.119 -0.802921 -1.35613 0
M  V30 9326 C 904.365 -0.382141 -1.99167 0
M  V30 9327 C 904.698 1.04704 -1.63556 0
M  V30 9328 O 903.973 1.72578 -0.89706 0
M  V30 9329 C 904.256 -0.561493 -3.55695 0
M  V30 9330 C 904.109 -2.03534 -4.01116 0
M  V30 9331 C 905.428 0.0151135 -4.40097 0
M  V30 9332 H 902.547 -0.140322 -0.723518 0
M  V30 9333 H 905.189 -1.01177 -1.6082 0
M  V30 9334 H 903.339 -0.0255083 -3.88492 0
M  V30 9335 H 905.011 -2.63343 -3.78746 0
M  V30 9336 H 903.254 -2.5331 -3.52159 0
M  V30 9337 H 903.925 -2.11173 -5.1001 0
M  V30 9338 H 906.401 -0.442582 -4.1374 0
M  V30 9339 H 905.277 -0.140316 -5.48721 0
M  V30 9340 H 905.538 1.10848 -4.27978 0
M  V30 9341 N 904.597 1.47463 -0.556102 0
M  V30 9342 C 905.544 2.29998 0.192213 0
M  V30 9343 C 906.514 1.38993 0.909403 0
M  V30 9344 O 907.699 1.67954 0.905316 0
M  V30 9345 C 904.839 3.22932 1.21692 0
M  V30 9346 C 903.952 4.29027 0.505908 0
M  V30 9347 C 903.087 5.09114 1.51581 0
M  V30 9348 C 902.126 6.06984 0.789714 0
M  V30 9349 N 901.263 6.80033 1.74639 0
M  V30 9350 H 906.103 2.93468 -0.517734 0
M  V30 9351 H 903.64 1.44654 -0.267147 0
M  V30 9352 H 905.598 3.75234 1.8236 0
M  V30 9353 H 904.228 2.61329 1.89491 0
M  V30 9354 H 903.28 3.7979 -0.215276 0
M  V30 9355 H 904.592 4.9876 -0.062958 0
M  V30 9356 H 903.746 5.6556 2.19606 0
M  V30 9357 H 902.485 4.3928 2.11859 0
M  V30 9358 H 901.49 5.49717 0.0955382 0
M  V30 9359 H 902.715 6.78827 0.192688 0
M  V30 9360 H 900.661 6.12931 2.33777 0
M  V30 9361 H 900.578 7.45933 1.22965 0
M  V30 9362 H 901.846 7.41054 2.41782 0
M  V30 9363 N 906.075 0.2925 1.54862 0
M  V30 9364 C 907.486 -0.201841 1.85606 0
M  V30 9365 C 907.837 -1.54093 1.21449 0
M  V30 9366 O 906.962 -2.10327 0.509079 0
M  V30 9367 C 907.557 -0.373011 3.3674 0
M  V30 9368 C 906.116 -0.811574 3.67547 0
M  V30 9369 C 905.263 0.0850583 2.7717 0
M  V30 9370 H 908.214 0.513774 1.50153 0
M  V30 9371 H 908.235 -1.20892 3.60785 0
M  V30 9372 H 907.747 0.601751 3.83407 0
M  V30 9373 H 905.848 -1.79719 3.26392 0
M  V30 9374 H 905.961 -0.636853 4.74848 0
M  V30 9375 H 904.325 -0.434224 2.50971 0
M  V30 9376 H 905.108 1.05602 3.26654 0
M  V30 9377 N 907.553 -1.57587 0.0200696 0
M  V30 9378 C 908.969 -1.56018 -0.336237 0
M  V30 9379 C 909.169 -1.02478 -1.73495 0
M  V30 9380 O 908.225 -0.667487 -2.43518 0
M  V30 9381 C 909.538 -3.00079 -0.193112 0
M  V30 9382 C 911.086 -3.11863 -0.266557 0
M  V30 9383 C 911.561 -4.57747 -0.152326 0
M  V30 9384 N 913.052 -4.62726 -0.209596 0
M  V30 9385 C 913.787 -5.73217 -0.144855 0
M  V30 9386 N 913.283 -6.92794 -0.0295487 0
M  V30 9387 N 915.076 -5.61751 -0.198184 0
M  V30 9388 H 907.227 -1.90722 0.93482 0
M  V30 9389 H 909.49 -0.876909 0.360186 0
M  V30 9390 H 909.196 -3.43167 0.770036 0
M  V30 9391 H 909.07 -3.64593 -0.967029 0
M  V30 9392 H 911.457 -2.68693 -1.22016 0
M  V30 9393 H 911.538 -2.50087 0.53758 0
M  V30 9394 H 911.182 -5.01595 0.797817 0
M  V30 9395 H 911.112 -5.17491 -0.97521 0
M  V30 9396 H 913.603 -3.76713 -0.299229 0
M  V30 9397 H 913.916 -7.72799 0.0134071 0
M  V30 9398 H 912.261 -6.95 0.00510737 0
M  V30 9399 H 915.452 -4.67222 -0.286603 0
M  V30 9400 H 915.625 -6.47839 -0.144266 0
M  V30 9401 N 909.032 0.252966 -1.55557 0
M  V30 9402 C 909.942 1.33472 -1.92931 0
M  V30 9403 C 910.958 1.52983 -0.828985 0
M  V30 9404 O 912.134 1.66723 -1.12984 0
M  V30 9405 C 909.199 2.6704 -2.21112 0
M  V30 9406 C 908.26 2.56103 -3.44542 0
M  V30 9407 C 907.493 3.83302 -3.71369 0
M  V30 9408 O 907.716 4.84907 -3.00368 0
M  V30 9409 O 906.65 3.823 -4.64898 0
M  V30 9410 H 910.476 1.04768 -2.85057 0
M  V30 9411 H 908.061 0.453208 -1.4236 0
M  V30 9412 H 909.943 3.45981 -2.40572 0
M  V30 9413 H 908.618 2.95489 -1.32166 0
M  V30 9414 H 907.525 1.7547 -3.30396 0
M  V30 9415 H 908.858 2.32601 -4.33772 0
M  V30 9416 N 910.51 1.48831 0.518367 0
M  V30 9417 C 911.759 1.5669 1.27008 0
M  V30 9418 C 912.072 0.250934 1.93984 0
M  V30 9419 O 913.278 0.207884 2.70703 0
M  V30 9420 C 911.734 2.76387 2.30517 0
M  V30 9421 C 911.342 4.14673 1.69559 0
M  V30 9422 C 913.086 2.93566 3.06625 0
M  V30 9423 C 910.993 5.25616 2.71076 0
M  V30 9424 H 909.923 0.583362 0.477708 0
M  V30 9425 H 912.574 1.75187 0.546052 0
M  V30 9426 H 910.956 2.51348 3.06006 0
M  V30 9427 H 912.13 4.49779 1.00179 0
M  V30 9428 H 910.445 4.02708 1.05902 0
M  V30 9429 H 913.042 3.7362 3.82508 0
M  V30 9430 H 913.385 2.03462 3.63193 0
M  V30 9431 H 913.918 3.18562 2.38251 0
M  V30 9432 H 910.657 6.17723 2.19313 0
M  V30 9433 H 910.177 4.94985 3.38748 0
M  V30 9434 H 911.856 5.5422 3.3384 0
M  V30 9435 N 911.988 -0.768124 1.37614 0
M  V30 9436 C 912.921 -1.88894 1.2804 0
M  V30 9437 C 913.899 -1.61809 0.160226 0
M  V30 9438 O 915.083 -1.85498 0.33506 0
M  V30 9439 C 912.21 -3.24197 0.980523 0
M  V30 9440 C 911.256 -3.70188 2.11808 0
M  V30 9441 S 912.089 -3.83433 3.73817 0
M  V30 9442 C 913.245 -5.21578 3.45987 0
M  V30 9443 H 913.478 -1.96726 2.22904 0
M  V30 9444 H 911.011 -0.929602 1.23279 0
M  V30 9445 H 912.969 -4.02342 0.814331 0
M  V30 9446 H 911.63 -3.14061 0.0493122 0
M  V30 9447 H 910.823 -4.6829 1.86335 0
M  V30 9448 H 910.425 -2.99155 2.2446 0
M  V30 9449 H 912.717 -6.06865 3.012 0
M  V30 9450 H 913.66 -5.52065 4.43429 0
M  V30 9451 H 914.068 -4.89687 2.80832 0
M  V30 9452 N 913.466 -1.22244 -0.994698 0
M  V30 9453 C 914.396 -1.01513 -2.10279 0
M  V30 9454 C 915.377 0.0633365 -1.69982 0
M  V30 9455 O 916.562 -0.0985268 -1.9395 0
M  V30 9456 C 913.692 -0.59016 -3.42249 0
M  V30 9457 C 912.646 -1.61436 -3.96387 0
M  V30 9458 C 911.972 -1.04528 -5.24383 0
M  V30 9459 C 913.272 -3.00388 -4.27276 0
M  V30 9460 H 914.966 -1.94194 -2.2788 0
M  V30 9461 H 912.512 -0.935094 -1.09508 0
M  V30 9462 H 914.465 -0.432254 -4.19177 0
M  V30 9463 H 913.189 0.372308 -3.24471 0
M  V30 9464 H 911.848 -1.76001 -3.21589 0
M  V30 9465 H 911.496 -0.0742225 -5.02945 0
M  V30 9466 H 911.196 -1.72949 -5.61571 0
M  V30 9467 H 912.72 -0.898922 -6.03947 0
M  V30 9468 H 914.134 -2.89207 -4.95007 0
M  V30 9469 H 912.531 -3.65916 -4.75631 0
M  V30 9470 H 913.601 -3.50456 -3.35125 0
M  V30 9471 N 914.944 1.19125 -1.03184 0
M  V30 9472 C 916.36 1.40909 -0.749447 0
M  V30 9473 C 916.56 1.9022 0.664729 0
M  V30 9474 O 915.616 2.08085 1.43028 0
M  V30 9475 C 916.929 2.41761 -1.78807 0
M  V30 9476 C 918.477 2.55503 -1.80796 0
M  V30 9477 C 918.952 3.59612 -2.83626 0
M  V30 9478 N 920.443 3.6711 -2.82461 0
M  V30 9479 C 921.178 4.47366 -3.5868 0
M  V30 9480 N 920.674 5.31302 -4.44623 0
M  V30 9481 N 922.467 4.42044 -3.47208 0
M  V30 9482 H 914.618 0.854399 -1.94458 0
M  V30 9483 H 916.881 0.437753 -0.840878 0
M  V30 9484 H 916.587 2.12559 -2.80199 0
M  V30 9485 H 916.461 3.40981 -1.61283 0
M  V30 9486 H 918.848 2.84027 -0.800803 0
M  V30 9487 H 918.929 1.56427 -2.02396 0
M  V30 9488 H 918.573 3.3183 -3.84515 0
M  V30 9489 H 918.503 4.58345 -2.59283 0
M  V30 9490 H 920.994 3.07166 -2.2013 0
M  V30 9491 H 921.307 5.89667 -4.99512 0
M  V30 9492 H 919.652 5.30753 -4.48694 0
M  V30 9493 H 922.843 3.75513 -2.79477 0
M  V30 9494 H 923.016 5.0435 -4.06859 0
M  V30 9495 N 916.422 0.810101 1.35185 0
M  V30 9496 C 917.385 0.22852 2.28058 0
M  V30 9497 C 918.385 -0.586168 1.49735 0
M  V30 9498 O 919.575 -0.40414 1.69447 0
M  V30 9499 C 916.707 -0.681041 3.34028 0
M  V30 9500 H 917.9 1.04768 2.81005 0
M  V30 9501 H 915.453 0.58101 1.451 0
M  V30 9502 H 916.188 -1.52375 2.86273 0
M  V30 9503 H 915.973 -0.0985276 3.91976 0
M  V30 9504 H 917.463 -1.08217 4.03335 0
M  V30 9505 N 917.9 -1.47166 0.563914 0
M  V30 9506 C 918.848 -2.31798 -0.193009 0
M  V30 9507 C 919.842 -1.43338 -0.902805 0
M  V30 9508 O 921.048 -1.60067 -0.823328 0
M  V30 9509 H 917.423 -0.747613 -0.0811139 0
M  V30 9510 H 919.394 -2.93476 0.539876 0
M  V30 9511 C 918.143 -3.26131 -1.20555 0
M  V30 9512 H 917.466 -3.94166 -0.668803 0
M  V30 9513 H 918.906 -3.88167 -1.70593 0
M  V30 9514 C 917.365 -2.50132 -2.25689 0
M  V30 9515 O 917.895 -2.25064 -3.3273 0
M  V30 9516 N 916.101 -2.11022 -1.99795 0
M  V30 9517 H 915.648 -2.3161 -1.1276 0
M  V30 9518 H 915.606 -1.60489 -2.70353 0
M  V30 9519 N 919.378 -0.300708 -1.54705 0
M  V30 9520 C 920.603 0.314073 -2.05008 0
M  V30 9521 C 921.028 1.46759 -1.17657 0
M  V30 9522 O 920.386 1.80398 -0.180598 0
M  V30 9523 C 920.434 0.748243 -3.52752 0
M  V30 9524 O 919.538 1.85305 -3.68424 0
M  V30 9525 H 918.879 0.0610139 -0.661191 0
M  V30 9526 H 921.409 -0.442467 -1.99758 0
M  V30 9527 H 921.419 1.03713 -3.94598 0
M  V30 9528 H 920.094 -0.095573 -4.1579 0
M  V30 9529 H 918.671 1.56473 -3.38483 0
M  V30 9530 N 920.856 1.57574 -0.0284266 0
M  V30 9531 C 921.786 2.1321 0.952039 0
M  V30 9532 C 922.767 1.04806 1.33977 0
M  V30 9533 O 923.952 1.32635 1.41851 0
M  V30 9534 C 921.082 2.65862 2.23461 0
M  V30 9535 C 920.036 3.79047 1.98765 0
M  V30 9536 C 919.362 4.18124 3.33281 0
M  V30 9537 C 920.662 5.05151 1.32739 0
M  V30 9538 H 922.356 2.95385 0.488705 0
M  V30 9539 H 919.902 1.42092 0.233628 0
M  V30 9540 H 921.855 3.03417 2.92431 0
M  V30 9541 H 920.579 1.80848 2.71959 0
M  V30 9542 H 919.238 3.41929 1.32213 0
M  V30 9543 H 918.886 3.30092 3.79537 0
M  V30 9544 H 918.586 4.94396 3.17563 0
M  V30 9545 H 920.11 4.58262 4.0352 0
M  V30 9546 H 921.524 5.40297 1.91708 0
M  V30 9547 H 919.921 5.86416 1.27421 0
M  V30 9548 H 920.991 4.83969 0.300261 0
M  V30 9549 N 922.334 -0.244713 1.55689 0
M  V30 9550 C 923.281 -1.30301 1.905 0
M  V30 9551 C 924.251 -1.4772 0.759478 0
M  V30 9552 O 925.436 -1.61667 1.01333 0
M  V30 9553 C 922.576 -2.653 2.20703 0
M  V30 9554 C 921.689 -2.55872 3.48071 0
M  V30 9555 C 920.824 -3.83238 3.67834 0
M  V30 9556 C 919.863 -3.68436 4.88796 0
M  V30 9557 N 919 -4.877 5.05068 0
M  V30 9558 H 923.84 -0.999143 2.80751 0
M  V30 9559 H 921.377 -0.482099 1.38976 0
M  V30 9560 H 923.335 -3.43884 2.36219 0
M  V30 9561 H 921.965 -2.93831 1.33653 0
M  V30 9562 H 921.017 -1.68846 3.40874 0
M  V30 9563 H 922.329 -2.40845 4.36801 0
M  V30 9564 H 921.483 -4.70266 3.83321 0
M  V30 9565 H 920.222 -4.01165 2.77341 0
M  V30 9566 H 919.227 -2.79793 4.73282 0
M  V30 9567 H 920.452 -3.52003 5.8075 0
M  V30 9568 H 918.398 -5.05983 4.17513 0
M  V30 9569 H 918.315 -4.75312 5.8789 0
M  V30 9570 H 919.583 -5.76219 5.24969 0
M  V30 9571 N 923.813 -1.49104 -0.510467 0
M  V30 9572 C 924.76 -1.65074 -1.61305 0
M  V30 9573 C 925.73 -0.492362 -1.58635 0
M  V30 9574 O 926.915 -0.718241 -1.76765 0
M  V30 9575 C 924.055 -1.71457 -2.99493 0
M  V30 9576 C 923.168 -2.98536 -3.12251 0
M  V30 9577 C 922.303 -2.95957 -4.41116 0
M  V30 9578 C 921.342 -4.17655 -4.47471 0
M  V30 9579 N 920.479 -4.13041 -5.67751 0
M  V30 9580 H 925.319 -2.59222 -1.46996 0
M  V30 9581 H 922.856 -1.28535 -0.715346 0
M  V30 9582 H 924.814 -1.7314 -3.79577 0
M  V30 9583 H 923.444 -0.807834 -3.12528 0
M  V30 9584 H 922.496 -3.06509 -2.25292 0
M  V30 9585 H 923.808 -3.88527 -3.12807 0
M  V30 9586 H 922.962 -2.96149 -5.2951 0
M  V30 9587 H 921.701 -2.03728 -4.4311 0
M  V30 9588 H 920.706 -4.17717 -3.57481 0
M  V30 9589 H 921.931 -5.11066 -4.472 0
M  V30 9590 H 919.877 -3.23643 -5.70606 0
M  V30 9591 H 919.794 -4.96757 -5.69884 0
M  V30 9592 H 921.062 -4.17322 -6.58379 0
M  V30 9593 N 925.291 0.760815 -1.38019 0
M  V30 9594 C 926.254 1.85604 -1.34476 0
M  V30 9595 C 927.254 1.58897 -0.24666 0
M  V30 9596 O 928.444 1.66776 -0.50314 0
M  V30 9597 C 925.576 3.22945 -1.09176 0
M  V30 9598 H 926.769 1.90155 -2.31908 0
M  V30 9599 H 924.322 0.961746 -1.23208 0
M  V30 9600 H 925.057 3.24066 -0.123216 0
M  V30 9601 H 924.842 3.43723 -1.88672 0
M  V30 9602 H 926.332 4.03022 -1.09375 0
M  V30 9603 N 926.769 1.22769 0.988202 0
M  V30 9604 C 928.015 1.05665 1.73097 0
M  V30 9605 C 928.348 -0.406615 1.89895 0
M  V30 9606 O 927.623 -1.30132 1.44554 0
M  V30 9607 C 927.906 1.77381 3.13382 0
M  V30 9608 C 927.759 3.31332 3.04203 0
M  V30 9609 C 929.078 1.52999 4.12649 0
M  V30 9610 H 926.197 0.385258 0.628288 0
M  V30 9611 H 928.839 1.51171 1.15097 0
M  V30 9612 H 926.989 1.38696 3.62899 0
M  V30 9613 H 928.661 3.79489 2.6227 0
M  V30 9614 H 926.904 3.60767 2.40894 0
M  V30 9615 H 927.575 3.76692 4.03493 0
M  V30 9616 H 930.051 1.86611 3.71908 0
M  V30 9617 H 928.927 2.05666 5.08913 0
M  V30 9618 H 929.188 0.463615 4.39662 0
M  V30 9619 N 928.247 -1.18576 1.03814 0
M  V30 9620 C 929.663 -1.4051 0.756909 0
M  V30 9621 C 929.863 -1.9057 -0.654631 0
M  V30 9622 O 928.919 -2.0884 -1.41922 0
M  V30 9623 C 930.232 -2.4081 1.80087 0
M  V30 9624 C 931.78 -2.54541 1.82148 0
M  V30 9625 C 932.255 -3.58102 2.85529 0
M  V30 9626 N 933.746 -3.65607 2.84404 0
M  V30 9627 C 934.481 -4.45458 3.61047 0
M  V30 9628 N 933.977 -5.28937 4.47434 0
M  V30 9629 N 935.77 -4.40196 3.49548 0
M  V30 9630 H 927.921 -0.844075 1.94908 0
M  V30 9631 H 930.184 -0.433287 0.843188 0
M  V30 9632 H 929.89 -2.1107 2.81322 0
M  V30 9633 H 929.764 -3.4012 1.63089 0
M  V30 9634 H 932.151 -2.83598 0.815855 0
M  V30 9635 H 932.232 -1.55352 2.03223 0
M  V30 9636 H 931.876 -3.29786 3.86269 0
M  V30 9637 H 931.806 -4.56963 2.6171 0
M  V30 9638 H 934.297 -3.05994 2.21756 0
M  V30 9639 H 934.61 -5.8701 5.02632 0
M  V30 9640 H 932.955 -5.28366 4.51503 0
M  V30 9641 H 936.146 -3.74026 2.81464 0
M  V30 9642 H 936.319 -5.02186 4.09528 0
M  V30 9643 N 929.725 -0.817259 -1.34754 0
M  V30 9644 C 930.657 -0.192695 -2.28389 0
M  V30 9645 C 931.67 0.614167 -1.50771 0
M  V30 9646 O 932.859 0.444776 -1.7287 0
M  V30 9647 C 929.959 0.748929 -3.30521 0
M  V30 9648 C 929.132 -0.0138762 -4.37398 0
M  V30 9649 C 928.191 0.847825 -5.19325 0
M  V30 9650 O 927.217 0.29487 -5.68436 0
M  V30 9651 N 928.419 2.16843 -5.38479 0
M  V30 9652 H 931.184 -0.997122 -2.82626 0
M  V30 9653 H 928.745 -0.673696 -1.47217 0
M  V30 9654 H 930.737 1.32987 -3.82226 0
M  V30 9655 H 929.307 1.45412 -2.7672 0
M  V30 9656 H 928.527 -0.776093 -3.86485 0
M  V30 9657 H 929.815 -0.539191 -5.05935 0
M  V30 9658 H 929.213 2.64148 -5.00242 0
M  V30 9659 H 927.77 2.69835 -5.93323 0
M  V30 9660 N 931.203 1.46865 -0.571711 0
M  V30 9661 C 932.449 2.0273 -0.0531858 0
M  V30 9662 C 932.782 1.44353 1.29907 0
M  V30 9663 O 932.057 0.604488 1.84868 0
M  V30 9664 C 932.34 3.60092 0.0243831 0
M  V30 9665 C 932.193 4.28874 -1.35599 0
M  V30 9666 C 933.512 4.33994 0.730563 0
M  V30 9667 H 930.631 0.736706 -0.0208018 0
M  V30 9668 H 933.273 1.75132 -0.736794 0
M  V30 9669 H 931.423 3.83736 0.606565 0
M  V30 9670 H 933.095 4.16527 -1.98249 0
M  V30 9671 H 931.338 3.88664 -1.92674 0
M  V30 9672 H 932.009 5.37561 -1.25429 0
M  V30 9673 H 934.485 4.1543 0.236098 0
M  V30 9674 H 933.361 5.43699 0.753836 0
M  V30 9675 H 933.622 4.04257 1.78967 0
M  V30 9676 N 932.681 0.308908 1.54543 0
M  V30 9677 C 933.93 -0.298854 1.99474 0
M  V30 9678 C 934.243 -1.54393 1.20093 0
M  V30 9679 O 935.449 -2.22677 1.55329 0
M  V30 9680 C 933.905 -0.58303 3.55146 0
M  V30 9681 C 933.513 0.644157 4.43345 0
M  V30 9682 C 935.257 -1.15155 4.08582 0
M  V30 9683 C 933.164 0.332694 5.90463 0
M  V30 9684 H 932.094 -0.115445 0.74511 0
M  V30 9685 H 934.745 0.418848 1.78656 0
M  V30 9686 H 933.127 -1.36053 3.71894 0
M  V30 9687 H 934.301 1.42012 4.38371 0
M  V30 9688 H 932.616 1.13186 4.00722 0
M  V30 9689 H 935.213 -1.39896 5.16075 0
M  V30 9690 H 935.556 -2.09632 3.59667 0
M  V30 9691 H 936.089 -0.435571 3.95408 0
M  V30 9692 H 932.828 1.24624 6.43544 0
M  V30 9693 H 932.348 -0.405844 5.98425 0
M  V30 9694 H 934.027 -0.0628545 6.46969 0
M  V30 9695 N 934.159 -1.57557 0.0367827 0
M  V30 9696 C 935.069 -2.14148 -0.958017 0
M  V30 9697 C 936.085 -1.09564 -1.35173 0
M  V30 9698 O 937.261 -1.4166 -1.43158 0
M  V30 9699 C 934.326 -2.6636 -2.21931 0
M  V30 9700 C 933.387 -3.85688 -1.8853 0
M  V30 9701 C 932.62 -4.35401 -3.08645 0
M  V30 9702 O 932.843 -3.8425 -4.21554 0
M  V30 9703 O 931.777 -5.27158 -2.90497 0
M  V30 9704 H 935.603 -2.99442 -0.506797 0
M  V30 9705 H 933.188 -1.48259 -0.184275 0
M  V30 9706 H 935.07 -2.99976 -2.9596 0
M  V30 9707 H 933.745 -1.84145 -2.66219 0
M  V30 9708 H 932.652 -3.56985 -1.11861 0
M  V30 9709 H 933.985 -4.69089 -1.49052 0
M  V30 9710 N 935.637 0.236453 -1.55816 0
M  V30 9711 C 936.547 1.31418 -1.94336 0
M  V30 9712 C 937.563 1.52095 -0.845164 0
M  V30 9713 O 938.739 1.65515 -1.14746 0
M  V30 9714 C 935.804 2.6468 -2.23932 0
M  V30 9715 C 934.865 2.52435 -3.47239 0
M  V30 9716 C 934.098 3.79342 -3.75414 0
M  V30 9717 O 934.321 4.81694 -3.05495 0
M  V30 9718 O 933.255 3.77347 -4.68927 0
M  V30 9719 H 937.081 1.01739 -2.86152 0
M  V30 9720 H 934.666 0.438084 -1.42833 0
M  V30 9721 H 936.548 3.4341 -2.44228 0
M  V30 9722 H 935.223 2.94071 -1.35292 0
M  V30 9723 H 934.13 1.71955 -3.32238 0
M  V30 9724 H 935.463 2.27987 -4.36214 0
M  V30 9725 N 937.115 1.49373 0.502552 0
M  V30 9726 C 938.078 1.65413 1.58654 0
M  V30 9727 C 939.078 0.526003 1.51953 0
M  V30 9728 O 940.268 0.792421 1.55133 0
M  V30 9729 C 937.4 1.65005 2.98306 0
M  V30 9730 H 938.593 2.62095 1.45762 0
M  V30 9731 H 936.146 1.38381 0.726672 0
M  V30 9732 H 936.881 0.699014 3.16677 0
M  V30 9733 H 936.666 2.46931 3.04578 0
M  V30 9734 H 938.156 1.79477 3.77065 0
M  V30 9735 N 938.594 -0.753485 1.38421 0
M  V30 9736 C 939.842 -1.50962 1.34368 0
M  V30 9737 C 940.163 -1.94889 -0.0656895 0
M  V30 9738 O 939.433 -1.67652 -1.01339 0
M  V30 9739 H 938.013 -0.559967 0.494415 0
M  V30 9740 H 940.675 -0.895665 1.73101 0
M  V30 9741 H 939.771 -2.40048 1.99458 0
M  V30 9742 N 940.072 -1.23292 -0.981677 0
M  V30 9743 C 941.019 -1.01296 -2.07383 0
M  V30 9744 C 941.989 0.069139 -1.65956 0
M  V30 9745 O 943.174 -0.0827108 -1.90621 0
M  V30 9746 C 940.314 -0.608876 -3.39686 0
M  V30 9747 C 939.427 -1.76296 -3.9439 0
M  V30 9748 C 938.562 -1.30578 -5.14901 0
M  V30 9749 C 937.601 -2.4307 -5.61768 0
M  V30 9750 N 936.738 -1.98319 -6.73509 0
M  V30 9751 H 941.578 -1.9478 -2.25532 0
M  V30 9752 H 939.115 -0.970356 -1.10555 0
M  V30 9753 H 941.073 -0.355702 -4.15681 0
M  V30 9754 H 939.703 0.288961 -3.21504 0
M  V30 9755 H 938.755 -2.13017 -3.15163 0
M  V30 9756 H 940.067 -2.60871 -4.25145 0
M  V30 9757 H 939.221 -1.01066 -5.98223 0
M  V30 9758 H 937.96 -0.430386 -4.85797 0
M  V30 9759 H 936.965 -2.73358 -4.77028 0
M  V30 9760 H 938.19 -3.31144 -5.92892 0
M  V30 9761 H 936.136 -1.13157 -6.46167 0
M  V30 9762 H 936.053 -2.76454 -7.0364 0
M  V30 9763 H 937.321 -1.71907 -7.60308 0
M  V30 9764 N 941.55 1.18024 -1.04442 0
M  V30 9765 C 942.796 1.88377 -0.751133 0
M  V30 9766 C 943.129 1.80377 0.719571 0
M  V30 9767 O 942.404 1.20662 1.52548 0
M  V30 9768 C 942.687 3.38708 -1.22265 0
M  V30 9769 C 942.54 3.55499 -2.75574 0
M  V30 9770 C 943.859 4.32475 -0.815688 0
M  V30 9771 H 940.978 0.684037 -0.27434 0
M  V30 9772 H 943.62 1.38837 -1.29709 0
M  V30 9773 H 941.77 3.8103 -0.758192 0
M  V30 9774 H 943.442 3.22244 -3.30086 0
M  V30 9775 H 941.685 2.98028 -3.15217 0
M  V30 9776 H 942.356 4.60994 -3.03625 0
M  V30 9777 H 944.832 3.97953 -1.21542 0
M  V30 9778 H 943.708 5.36213 -1.17331 0
M  V30 9779 H 943.969 4.41207 0.280901 0
M  V30 9780 N 943.028 0.824394 1.34319 0
M  V30 9781 C 943.961 0.192544 2.27386 0
M  V30 9782 C 944.939 -0.651901 1.4896 0
M  V30 9783 O 946.123 -0.615321 1.78174 0
M  V30 9784 C 943.25 -0.730958 3.30718 0
M  V30 9785 C 942.296 0.0361484 4.26485 0
M  V30 9786 S 943.129 1.3843 5.17298 0
M  V30 9787 C 944.285 0.465713 6.24165 0
M  V30 9788 H 944.518 0.981573 2.80629 0
M  V30 9789 H 942.051 0.620371 1.41389 0
M  V30 9790 H 944.009 -1.25822 3.90742 0
M  V30 9791 H 942.67 -1.49352 2.7632 0
M  V30 9792 H 941.863 -0.665969 4.99581 0
M  V30 9793 H 941.465 0.494011 3.70723 0
M  V30 9794 H 943.757 -0.342157 6.76635 0
M  V30 9795 H 944.7 1.16639 6.98427 0
M  V30 9796 H 945.108 0.0534895 5.64475 0
M  V30 9797 N 944.506 -1.46559 0.579492 0
M  V30 9798 C 945.783 -1.956 -0.00287136 0
M  V30 9799 C 946.163 -1.52215 -1.46266 0
M  V30 9800 O 945.511 -0.771335 -2.15088 0
M  V30 9801 C 945.721 -3.48606 0.165824 0
M  V30 9802 C 947.069 -4.24588 0.0319807 0
M  V30 9803 O 948.093 -3.56075 0.094496 0
M  V30 9804 O 946.952 -5.46396 -0.106386 0
M  V30 9805 H 944.046 -0.825387 -0.0516274 0
M  V30 9806 H 946.592 -1.56858 0.647584 0
M  V30 9807 H 945.364 -3.7306 1.18076 0
M  V30 9808 H 944.987 -3.94169 -0.521212 0
M  V30 9809 N 945.984 -0.3171 -1.54377 0
M  V30 9810 C 947.261 0.341348 -1.92598 0
M  V30 9811 C 947.641 1.70402 -1.24605 0
M  V30 9812 O 946.989 2.25191 -0.387448 0
M  V30 9813 C 947.199 0.440003 -3.46215 0
M  V30 9814 C 948.547 0.703327 -4.18734 0
M  V30 9815 O 949.571 0.523181 -3.52337 0
M  V30 9816 O 948.43 1.05042 -5.3631 0
M  V30 9817 H 945.524 0.193696 -0.803997 0
M  V30 9818 H 948.07 -0.366341 -1.65699 0
M  V30 9819 H 946.842 -0.517299 -3.87866 0
M  V30 9820 H 946.465 1.19553 -3.792 0
M  V30 9821 N 947.462 1.57535 -0.0451378 0
M  V30 9822 C 948.873 1.80116 0.491426 0
M  V30 9823 C 949.224 0.956846 1.71286 0
M  V30 9824 O 948.349 0.17173 2.15718 0
M  V30 9825 C 948.944 3.26674 0.898315 0
M  V30 9826 C 947.503 3.50194 1.37989 0
M  V30 9827 C 946.65 2.75054 0.352202 0
M  V30 9828 H 949.601 1.56368 -0.271065 0
M  V30 9829 H 949.622 3.37263 1.76164 0
M  V30 9830 H 949.134 3.88099 0.009141 0
M  V30 9831 H 947.235 2.94041 2.28846 0
M  V30 9832 H 947.348 4.58909 1.37622 0
M  V30 9833 H 945.712 2.4101 0.823784 0
M  V30 9834 H 946.495 3.39203 -0.528782 0
M  V30 9835 N 948.94 -0.228186 1.55939 0
M  V30 9836 C 950.168 -0.970618 1.8272 0
M  V30 9837 C 950.583 -1.78212 0.623385 0
M  V30 9838 O 949.94 -1.77879 -0.408063 0
M  V30 9839 C 949.991 -1.89352 3.07942 0
M  V30 9840 O 949.712 -1.11483 4.23678 0
M  V30 9841 C 951.213 -2.75039 3.47661 0
M  V30 9842 H 948.433 -0.284772 0.607574 0
M  V30 9843 H 950.977 -0.245419 2.03022 0
M  V30 9844 H 949.132 -2.57275 2.89635 0
M  V30 9845 H 949.546 -1.74073 4.94772 0
M  V30 9846 H 951.02 -3.35511 4.38334 0
M  V30 9847 H 951.497 -3.471 2.69106 0
M  V30 9848 H 952.103 -2.1254 3.68384 0
M  V30 9849 N 950.418 -1.49637 -0.494624 0
M  V30 9850 C 951.664 -1.59681 -1.25019 0
M  V30 9851 C 951.997 -0.285511 -1.9209 0
M  V30 9852 O 951.272 0.711398 -1.81023 0
M  V30 9853 C 951.555 -2.76058 -2.31222 0
M  V30 9854 C 951.408 -4.17002 -1.68611 0
M  V30 9855 C 952.727 -2.88056 -3.32734 0
M  V30 9856 H 949.846 -0.581209 -0.453172 0
M  V30 9857 H 952.488 -1.81944 -0.547391 0
M  V30 9858 H 950.638 -2.57207 -2.91164 0
M  V30 9859 H 952.31 -4.47385 -1.12447 0
M  V30 9860 H 950.553 -4.22352 -0.989991 0
M  V30 9861 H 951.224 -4.94316 -2.45674 0
M  V30 9862 H 953.7 -3.05237 -2.82789 0
M  V30 9863 H 952.576 -3.71151 -4.04399 0
M  V30 9864 H 952.837 -1.97676 -3.95445 0
M  V30 9865 N 951.896 0.746133 -1.38819 0
M  V30 9866 C 952.846 1.85085 -1.33145 0
M  V30 9867 C 953.83 1.59466 -0.214339 0
M  V30 9868 O 955.022 1.71159 -0.450943 0
M  V30 9869 C 952.151 3.22884 -1.16623 0
M  V30 9870 C 951.237 3.54369 -2.32988 0
M  V30 9871 N 951.628 3.56863 -3.58445 0
M  V30 9872 C 949.926 3.84674 -2.25703 0
M  V30 9873 C 950.627 3.85827 -4.3533 0
M  V30 9874 N 949.603 4.03037 -3.64777 0
M  V30 9875 H 953.405 1.85301 -2.28124 0
M  V30 9876 H 950.919 0.943847 -1.32156 0
M  V30 9877 H 952.916 4.0195 -1.10642 0
M  V30 9878 H 951.576 3.23914 -0.225841 0
M  V30 9879 H 952.587 3.38443 -3.92017 0
M  V30 9880 H 949.264 3.93375 -1.39864 0
M  V30 9881 H 950.654 3.94317 -5.44025 0
M  V30 9882 N 953.375 1.23811 0.975125 0
M  V30 9883 C 954.786 1.0675 1.53171 0
M  V30 9884 C 955.137 -0.363475 1.92804 0
M  V30 9885 O 954.262 -1.25089 1.76583 0
M  V30 9886 C 954.857 1.93161 2.78342 0
M  V30 9887 C 953.416 1.80346 3.30382 0
M  V30 9888 C 952.563 1.88544 2.03338 0
M  V30 9889 H 955.514 1.37396 0.79423 0
M  V30 9890 H 955.535 1.45951 3.51395 0
M  V30 9891 H 955.047 2.97302 2.49465 0
M  V30 9892 H 953.148 0.790077 3.64127 0
M  V30 9893 H 953.261 2.64026 3.99784 0
M  V30 9894 H 951.625 1.32186 2.17713 0
M  V30 9895 H 952.408 2.94252 1.76836 0
M  V30 9896 N 954.853 -1.17469 1.05066 0
M  V30 9897 C 956.093 -1.89382 0.769012 0
M  V30 9898 C 956.457 -1.79126 -0.691217 0
M  V30 9899 O 957.658 -2.45845 -1.08692 0
M  V30 9900 C 955.929 -3.35397 1.23465 0
M  V30 9901 S 957.488 -4.25297 1.08018 0
M  V30 9902 H 954.306 -0.653839 0.279312 0
M  V30 9903 H 956.908 -1.41877 1.34503 0
M  V30 9904 H 955.612 -3.40395 2.29258 0
M  V30 9905 H 955.143 -3.87945 0.652853 0
M  V30 9906 H 957.158 -4.962 0.00358573 0
M  V30 9907 N 956.331 -0.831506 -1.3388 0
M  V30 9908 C 957.241 -0.261688 -2.33136 0
M  V30 9909 C 958.257 0.608429 -1.63016 0
M  V30 9910 O 959.433 0.514297 -1.94723 0
M  V30 9911 C 956.498 0.559957 -3.42148 0
M  V30 9912 C 955.559 -0.333569 -4.28002 0
M  V30 9913 C 954.792 0.448956 -5.31808 0
M  V30 9914 O 955.015 1.6814 -5.45055 0
M  V30 9915 O 953.949 -0.173197 -6.01651 0
M  V30 9916 H 957.775 -1.08343 -2.83717 0
M  V30 9917 H 955.36 -0.593849 -1.3709 0
M  V30 9918 H 957.242 1.02712 -4.08691 0
M  V30 9919 H 955.917 1.35888 -2.93796 0
M  V30 9920 H 954.824 -0.848416 -3.64352 0
M  V30 9921 H 956.157 -1.09707 -4.79818 0
M  V30 9922 N 957.809 1.4625 -0.587256 0
M  V30 9923 C 959.22 1.85997 -0.161918 0
M  V30 9924 C 959.571 1.49025 1.27616 0
M  V30 9925 O 958.696 0.907282 1.96462 0
M  V30 9926 C 959.291 3.37582 -0.287077 0
M  V30 9927 C 957.85 3.76308 0.0834211 0
M  V30 9928 C 956.997 2.70259 -0.620932 0
M  V30 9929 H 959.948 1.3734 -0.795199 0
M  V30 9930 H 959.969 3.77379 0.486333 0
M  V30 9931 H 959.481 3.64459 -1.33383 0
M  V30 9932 H 957.582 3.55047 1.13013 0
M  V30 9933 H 957.695 4.78184 -0.296064 0
M  V30 9934 H 956.059 2.54628 -0.0607027 0
M  V30 9935 H 956.842 2.99975 -1.66942 0
M  V30 9936 N 959.287 0.325282 1.54207 0
M  V30 9937 C 960.25 -0.527228 2.23054 0
M  V30 9938 C 961.25 -1.04217 1.22456 0
M  V30 9939 O 962.44 -0.934325 1.47024 0
M  V30 9940 C 959.572 -1.7325 2.93594 0
M  V30 9941 H 960.765 0.0746423 2.99807 0
M  V30 9942 H 958.318 0.0763872 1.56113 0
M  V30 9943 H 959.053 -2.37356 2.20981 0
M  V30 9944 H 958.838 -1.37065 3.67363 0
M  V30 9945 H 960.328 -2.3376 3.46043 0
M  V30 9946 N 960.765 -1.57509 0.0534917 0
M  V30 9947 C 961.713 -2.12851 -0.937931 0
M  V30 9948 C 962.707 -1.06088 -1.32067 0
M  V30 9949 O 963.913 -1.24494 -1.30005 0
M  V30 9950 H 960.288 -0.680357 -0.320342 0
M  V30 9951 H 962.259 -2.95047 -0.446077 0
M  V30 9952 C 961.008 -2.69034 -2.20264 0
M  V30 9953 H 960.331 -3.50848 -1.91693 0
M  V30 9954 H 961.771 -3.11375 -2.87788 0
M  V30 9955 C 960.23 -1.62919 -2.94888 0
M  V30 9956 O 960.76 -1.04334 -3.87914 0
M  V30 9957 N 958.966 -1.34385 -2.57661 0
M  V30 9958 H 958.513 -1.82214 -1.82088 0
M  V30 9959 H 958.471 -0.636149 -3.07897 0
M  V30 9960 N 962.243 0.219913 -1.56058 0
M  V30 9961 C 963.175 1.29604 -1.89038 0
M  V30 9962 C 964.188 1.42964 -0.778791 0
M  V30 9963 O 965.377 1.43832 -1.0571 0
M  V30 9964 C 962.477 2.67145 -2.08534 0
M  V30 9965 C 961.65 2.75712 -3.39561 0
M  V30 9966 C 960.709 3.94279 -3.48469 0
M  V30 9967 O 959.735 3.8254 -4.21487 0
M  V30 9968 N 960.937 5.08655 -2.79732 0
M  V30 9969 H 963.702 1.01638 -2.81939 0
M  V30 9970 H 961.263 0.409945 -1.56624 0
M  V30 9971 H 963.255 3.44847 -2.11808 0
M  V30 9972 H 961.825 2.87704 -1.2225 0
M  V30 9973 H 961.045 1.84475 -3.48371 0
M  V30 9974 H 962.333 2.78407 -4.25872 0
M  V30 9975 H 961.731 5.21088 -2.2019 0
M  V30 9976 H 960.288 5.84394 -2.88665 0
M  V30 9977 N 963.721 1.49897 0.486681 0
M  V30 9978 C 964.946 1.64106 1.26823 0
M  V30 9979 C 965.371 0.317967 1.85393 0
M  V30 9980 O 964.729 -0.71626 1.66551 0
M  V30 9981 C 964.777 2.72301 2.36399 0
M  V30 9982 O 963.881 2.32469 3.40634 0
M  V30 9983 H 963.222 0.548794 0.373793 0
M  V30 9984 H 965.752 1.96177 0.581017 0
M  V30 9985 H 965.762 2.94906 2.81948 0
M  V30 9986 H 964.437 3.68335 1.93137 0
M  V30 9987 H 963.014 2.20251 3.00905 0
M  V30 9988 N 965.199 -0.738761 1.39212 0
M  V30 9989 C 966.424 -1.5331 1.39681 0
M  V30 9990 C 966.849 -1.88098 -0.00768715 0
M  V30 9991 O 966.207 -1.51642 -0.993699 0
M  V30 9992 C 966.255 -2.79958 2.27279 0
M  V30 9993 O 965.359 -3.75727 1.70008 0
M  V30 9994 H 964.7 -0.463131 0.475821 0
M  V30 9995 H 967.23 -0.911768 1.83161 0
M  V30 9996 H 967.24 -3.28732 2.41659 0
M  V30 9997 H 965.915 -2.5397 3.29351 0
M  V30 9998 H 964.492 -3.34483 1.64851 0
M  V30 9999 N 966.677 -1.24326 -0.968545 0
M  V30 10000 C 967.954 -0.990459 -1.68669 0
M  V30 10001 C 968.334 0.487487 -2.05394 0
M  V30 10002 O 967.682 1.46158 -1.75642 0
M  V30 10003 C 967.892 -1.91251 -2.91931 0
M  V30 10004 C 969.24 -2.18291 -3.6419 0
M  V30 10005 O 970.264 -1.88897 -3.01987 0
M  V30 10006 O 969.123 -2.68204 -4.76161 0
M  V30 10007 H 966.217 -0.374515 -0.737338 0
M  V30 10008 H 968.763 -1.35421 -1.02271 0
M  V30 10009 H 967.535 -2.9111 -2.61478 0
M  V30 10010 H 967.158 -1.55188 -3.66064 0
M  V30 10011 N 968.156 1.1691 -1.05688 0
M  V30 10012 C 969.386 1.90927 -0.789339 0
M  V30 10013 C 969.794 1.77339 0.659369 0
M  V30 10014 O 969.137 1.11147 1.4626 0
M  V30 10015 C 969.199 3.42361 -1.09677 0
M  V30 10016 C 968.863 3.79733 -2.54267 0
M  V30 10017 C 969.86 3.82163 -3.52487 0
M  V30 10018 C 967.545 4.10547 -2.89406 0
M  V30 10019 C 969.539 4.14884 -4.8389 0
M  V30 10020 C 967.226 4.42936 -4.21011 0
M  V30 10021 C 968.224 4.45084 -5.18063 0
M  V30 10022 O 967.912 4.76707 -6.47307 0
M  V30 10023 H 967.644 0.612466 -0.286115 0
M  V30 10024 H 970.198 1.4916 -1.4121 0
M  V30 10025 H 968.428 3.84446 -0.416924 0
M  V30 10026 H 970.117 3.97645 -0.814456 0
M  V30 10027 H 970.883 3.58476 -3.26681 0
M  V30 10028 H 966.762 4.08044 -2.14525 0
M  V30 10029 H 970.306 4.16475 -5.59638 0
M  V30 10030 H 966.203 4.66088 -4.46579 0
M  V30 10031 H 966.971 4.94544 -6.52203 0
M  V30 10032 N 969.634 0.838594 1.33437 0
M  V30 10033 C 970.911 0.356112 1.92331 0
M  V30 10034 C 971.291 -1.1585 1.76471 0
M  V30 10035 O 970.639 -1.97281 1.15293 0
M  V30 10036 C 970.849 0.802715 3.39643 0
M  V30 10037 C 972.197 0.810575 4.16791 0
M  V30 10038 O 973.221 0.746304 3.48294 0
M  V30 10039 O 972.08 0.898082 5.3907 0
M  V30 10040 H 969.174 0.100711 0.820845 0
M  V30 10041 H 971.72 0.924428 1.42311 0
M  V30 10042 H 970.492 1.84529 3.45057 0
M  V30 10043 H 970.115 0.210956 3.9704 0
M  V30 10044 N 971.112 -1.45937 0.595003 0
M  V30 10045 C 972.337 -2.07207 0.0894416 0
M  V30 10046 C 972.762 -1.43884 -1.21157 0
M  V30 10047 O 972.12 -0.526998 -1.73472 0
M  V30 10048 C 972.168 -3.60565 -0.0499828 0
M  V30 10049 O 971.272 -3.97364 -1.10342 0
M  V30 10050 H 970.613 -0.660471 0.0683627 0
M  V30 10051 H 973.143 -1.87386 0.82144 0
M  V30 10052 H 973.153 -4.0722 -0.252234 0
M  V30 10053 H 971.828 -4.06044 0.90006 0
M  V30 10054 H 970.405 -3.62401 -0.878645 0
M  V30 10055 N 972.59 -0.333456 -1.54032 0
M  V30 10056 C 973.818 0.267813 -2.05159 0
M  V30 10057 C 974.233 1.4501 -1.20903 0
M  V30 10058 O 973.59 1.80888 -0.241994 0
M  V30 10059 C 973.641 0.69268 -3.54802 0
M  V30 10060 O 973.362 -0.442579 -4.35859 0
M  V30 10061 C 974.863 1.35572 -4.2206 0
M  V30 10062 H 972.083 0.0534924 -0.668864 0
M  V30 10063 H 974.627 -0.482515 -1.98726 0
M  V30 10064 H 972.782 1.39297 -3.6149 0
M  V30 10065 H 973.196 -0.105915 -5.24393 0
M  V30 10066 H 974.67 1.60385 -5.28186 0
M  V30 10067 H 975.147 2.30614 -3.73783 0
M  V30 10068 H 975.753 0.697748 -4.19537 0
M  V30 10069 N 974.068 1.57479 -0.061844 0
M  V30 10070 C 974.978 2.15645 0.923826 0
M  V30 10071 C 975.994 1.117 1.33413 0
M  V30 10072 O 977.17 1.4392 1.40887 0
M  V30 10073 C 974.235 2.69857 2.17665 0
M  V30 10074 C 973.296 3.88638 1.8237 0
M  V30 10075 C 972.529 4.40256 3.01679 0
M  V30 10076 O 972.752 3.90908 4.15388 0
M  V30 10077 O 971.686 5.31713 2.82073 0
M  V30 10078 H 975.512 3.0021 0.459094 0
M  V30 10079 H 973.097 1.48534 0.160665 0
M  V30 10080 H 974.979 3.04647 2.9115 0
M  V30 10081 H 973.654 1.88357 2.63255 0
M  V30 10082 H 972.561 3.58719 1.06167 0
M  V30 10083 H 973.894 4.71401 1.4157 0
M  V30 10084 N 975.546 -0.211634 1.56173 0
M  V30 10085 C 976.774 -0.951184 1.83739 0
M  V30 10086 C 977.189 -1.7754 0.642252 0
M  V30 10087 O 976.546 -1.78302 -0.389174 0
M  V30 10088 C 976.597 -1.86075 3.09933 0
M  V30 10089 O 976.318 -1.06983 4.24837 0
M  V30 10090 C 977.819 -2.71337 3.50559 0
M  V30 10091 H 975.039 -0.278312 0.61056 0
M  V30 10092 H 977.583 -0.223871 2.03271 0
M  V30 10093 H 975.738 -2.54189 2.92347 0
M  V30 10094 H 976.152 -1.68815 4.9659 0
M  V30 10095 H 977.626 -3.30843 4.41868 0
M  V30 10096 H 978.103 -3.44226 2.72773 0
M  V30 10097 H 978.709 -2.0862 3.70618 0
M  V30 10098 N 977.024 -1.50153 -0.478725 0
M  V30 10099 C 978.301 -1.51274 -1.23999 0
M  V30 10100 C 978.681 -0.253048 -2.09578 0
M  V30 10101 O 978.029 0.763827 -2.15355 0
M  V30 10102 C 978.239 -2.80423 -2.07759 0
M  V30 10103 C 979.587 -3.30788 -2.66204 0
M  V30 10104 O 980.611 -2.81693 -2.18008 0
M  V30 10105 O 979.47 -4.1635 -3.53999 0
M  V30 10106 H 976.564 -0.606438 -0.562283 0
M  V30 10107 H 979.11 -1.62436 -0.491171 0
M  V30 10108 H 977.882 -3.63584 -1.44645 0
M  V30 10109 H 977.505 -2.72228 -2.89789 0
M  V30 10110 N 978.502 0.731368 -1.39602 0
M  V30 10111 C 979.412 1.87579 -1.40894 0
M  V30 10112 C 980.428 1.71336 -0.303319 0
M  V30 10113 O 981.604 1.93875 -0.545377 0
M  V30 10114 C 978.669 3.23211 -1.25442 0
M  V30 10115 C 977.73 3.51822 -2.46008 0
M  V30 10116 C 976.963 4.80982 -2.31284 0
M  V30 10117 O 977.186 5.54958 -1.31824 0
M  V30 10118 O 976.12 5.09574 -3.20341 0
M  V30 10119 H 979.946 1.89444 -2.3737 0
M  V30 10120 H 977.531 0.879675 -1.20756 0
M  V30 10121 H 979.413 4.04257 -1.18972 0
M  V30 10122 H 978.088 3.22108 -0.320637 0
M  V30 10123 H 976.995 2.70847 -2.58055 0
M  V30 10124 H 978.328 3.57707 -3.38093 0
M  V30 10125 N 979.98 1.24838 0.961938 0
M  V30 10126 C 981.205 1.11967 1.7458 0
M  V30 10127 C 981.63 -0.323287 1.85301 0
M  V30 10128 O 980.988 -1.23412 1.32812 0
M  V30 10129 C 981.036 1.77066 3.14134 0
M  V30 10130 O 980.14 1.04534 3.98932 0
M  V30 10131 H 979.481 0.391338 0.536424 0
M  V30 10132 H 982.011 1.65259 1.20626 0
M  V30 10133 H 982.021 1.83056 3.64629 0
M  V30 10134 H 980.696 2.82052 3.05646 0
M  V30 10135 H 979.273 1.06372 3.57407 0
M  V30 10136 N 981.458 -1.16348 1.06306 0
M  V30 10137 C 982.405 -2.20741 0.673962 0
M  V30 10138 C 983.375 -1.628 -0.329454 0
M  V30 10139 O 984.56 -1.89547 -0.218313 0
M  V30 10140 C 981.7 -3.45036 0.0667008 0
M  V30 10141 C 980.813 -4.17221 1.12031 0
M  V30 10142 C 979.948 -5.29034 0.479176 0
M  V30 10143 C 978.987 -5.93021 1.51631 0
M  V30 10144 N 978.124 -6.96327 0.898528 0
M  V30 10145 H 982.964 -2.53376 1.56859 0
M  V30 10146 H 980.501 -1.24449 0.784276 0
M  V30 10147 H 982.459 -4.16099 -0.302916 0
M  V30 10148 H 981.089 -3.1295 -0.791333 0
M  V30 10149 H 980.141 -3.4476 1.60763 0
M  V30 10150 H 981.453 -4.60902 1.90712 0
M  V30 10151 H 980.607 -6.06674 0.0565993 0
M  V30 10152 H 979.346 -4.86517 -0.33951 0
M  V30 10153 H 978.351 -5.14104 1.94878 0
M  V30 10154 H 979.576 -6.37618 2.3371 0
M  V30 10155 H 977.522 -6.55923 0.100555 0
M  V30 10156 H 977.439 -7.38379 1.62272 0
M  V30 10157 H 978.707 -7.77888 0.5011 0
M  V30 10158 N 982.937 -0.845659 -1.3299 0
M  V30 10159 C 983.847 -0.2864 -2.32845 0
M  V30 10160 C 984.863 0.591105 -1.63652 0
M  V30 10161 O 986.039 0.493615 -1.95257 0
M  V30 10162 C 983.104 0.523636 -3.42723 0
M  V30 10163 C 982.165 -0.378945 -4.27624 0
M  V30 10164 C 981.398 0.392526 -5.32255 0
M  V30 10165 O 981.621 1.6235 -5.46808 0
M  V30 10166 O 980.555 -0.237 -6.01433 0
M  V30 10167 H 984.381 -1.11346 -2.82552 0
M  V30 10168 H 981.966 -0.608356 -1.36453 0
M  V30 10169 H 983.848 0.983718 -4.09757 0
M  V30 10170 H 982.523 1.32764 -2.95221 0
M  V30 10171 H 981.43 -0.887012 -3.63432 0
M  V30 10172 H 982.763 -1.1479 -4.78627 0
M  V30 10173 N 984.415 1.45619 -0.602734 0
M  V30 10174 C 985.325 2.34288 0.120902 0
M  V30 10175 C 986.341 1.50952 0.865414 0
M  V30 10176 O 987.517 1.83768 0.824094 0
M  V30 10177 C 984.582 3.28489 1.10888 0
M  V30 10178 C 983.643 4.2773 0.366853 0
M  V30 10179 C 982.876 5.17429 1.30776 0
M  V30 10180 O 983.099 5.10459 2.54535 0
M  V30 10181 O 982.033 5.96459 0.807464 0
M  V30 10182 H 985.859 2.97559 -0.60765 0
M  V30 10183 H 983.444 1.44922 -0.363019 0
M  V30 10184 H 985.326 3.86549 1.67803 0
M  V30 10185 H 984.001 2.67789 1.81854 0
M  V30 10186 H 982.908 3.73299 -0.244643 0
M  V30 10187 H 984.241 4.91271 -0.302226 0
M  V30 10188 N 985.893 0.34162 1.53853 0
M  V30 10189 C 986.856 -0.503541 2.236 0
M  V30 10190 C 987.856 -1.02912 1.23554 0
M  V30 10191 O 989.046 -0.918678 1.48007 0
M  V30 10192 C 986.178 -1.70126 2.95415 0
M  V30 10193 H 987.371 0.106437 2.99711 0
M  V30 10194 H 984.924 0.0929408 1.56023 0
M  V30 10195 H 985.659 -2.34999 2.23486 0
M  V30 10196 H 985.444 -1.33161 3.68796 0
M  V30 10197 H 986.934 -2.30077 3.48503 0
M  V30 10198 N 987.371 -1.57444 0.0701946 0
M  V30 10199 C 988.318 -2.12631 -0.897599 0
M  V30 10200 C 989.288 -1.03841 -1.29639 0
M  V30 10201 O 990.473 -1.31495 -1.38253 0
M  V30 10202 C 987.613 -2.6911 -2.16041 0
M  V30 10203 C 986.726 -3.9205 -1.8144 0
M  V30 10204 C 985.861 -4.36778 -3.02321 0
M  V30 10205 C 984.9 -5.52371 -2.63729 0
M  V30 10206 N 984.037 -5.92065 -3.77364 0
M  V30 10207 H 988.877 -2.95024 -0.420104 0
M  V30 10208 H 986.414 -1.45792 -0.195716 0
M  V30 10209 H 988.372 -2.99963 -2.89962 0
M  V30 10210 H 987.002 -1.89484 -2.61334 0
M  V30 10211 H 986.054 -3.67669 -0.975896 0
M  V30 10212 H 987.366 -4.76011 -1.49046 0
M  V30 10213 H 986.52 -4.69285 -3.84521 0
M  V30 10214 H 985.259 -3.51668 -3.37907 0
M  V30 10215 H 984.264 -5.19517 -1.7995 0
M  V30 10216 H 985.489 -6.39212 -2.29315 0
M  V30 10217 H 983.435 -5.09904 -4.12715 0
M  V30 10218 H 983.352 -6.70762 -3.48733 0
M  V30 10219 H 984.62 -6.29193 -4.60148 0
M  V30 10220 N 988.849 0.203349 -1.56283 0
M  V30 10221 C 990.126 0.950415 -1.70958 0
M  V30 10222 C 990.506 2.01708 -0.622647 0
M  V30 10223 O 989.854 2.25523 0.367635 0
M  V30 10224 C 990.064 1.54434 -3.12971 0
M  V30 10225 C 991.412 2.02964 -3.72949 0
M  V30 10226 O 992.436 1.64293 -3.16048 0
M  V30 10227 O 991.295 2.74097 -4.72793 0
M  V30 10228 H 988.389 0.445154 -0.69697 0
M  V30 10229 H 990.935 0.193695 -1.68591 0
M  V30 10230 H 989.707 0.77505 -3.83547 0
M  V30 10231 H 989.33 2.36611 -3.19532 0
M  V30 10232 N 990.327 1.50405 0.470755 0
M  V30 10233 C 991.604 1.51929 1.23195 0
M  V30 10234 C 991.984 0.264159 2.09441 0
M  V30 10235 O 991.332 -0.752395 2.15757 0
M  V30 10236 C 991.542 2.81521 2.06269 0
M  V30 10237 C 992.89 3.32195 2.64446 0
M  V30 10238 O 993.914 2.82845 2.16511 0
M  V30 10239 O 992.773 4.18221 3.51786 0
M  V30 10240 H 989.867 0.609411 0.559059 0
M  V30 10241 H 992.413 1.62695 0.482549 0
M  V30 10242 H 991.185 3.64346 1.42715 0
M  V30 10243 H 990.808 2.7376 2.88342 0
M  V30 10244 N 991.805 -0.723954 1.39988 0
M  V30 10245 C 993.053 -1.48078 1.3754 0
M  V30 10246 C 993.374 -1.94985 -0.0243358 0
M  V30 10247 O 992.644 -1.69764 -0.977602 0
M  V30 10248 H 991.224 -0.549354 0.506181 0
M  V30 10249 H 993.886 -0.858746 1.74962 0
M  V30 10250 H 992.982 -2.35763 2.04505 0
M  V30 10251 N 993.283 -1.25346 -0.955304 0
M  V30 10252 C 994.246 -1.05754 -2.03344 0
M  V30 10253 C 995.246 -0.0105743 -1.60797 0
M  V30 10254 O 996.436 -0.252699 -1.72357 0
M  V30 10255 C 993.568 -0.605536 -3.35479 0
M  V30 10256 H 994.761 -2.01459 -2.22158 0
M  V30 10257 H 992.314 -1.07744 -1.1323 0
M  V30 10258 H 993.049 0.354154 -3.2236 0
M  V30 10259 H 992.834 -1.36134 -3.67709 0
M  V30 10260 H 994.324 -0.489867 -4.14717 0
M  V30 10261 N 994.761 1.15782 -1.06922 0
M  V30 10262 C 995.708 2.2038 -0.685659 0
M  V30 10263 C 996.678 1.62972 0.320816 0
M  V30 10264 O 997.863 1.8966 0.208258 0
M  V30 10265 C 995.003 3.44995 -0.084998 0
M  V30 10266 C 994.116 4.16621 -1.14242 0
M  V30 10267 C 993.251 5.28773 -0.507226 0
M  V30 10268 C 992.29 5.92209 -1.54774 0
M  V30 10269 N 991.427 6.9584 -0.935443 0
M  V30 10270 H 996.267 2.5254 -1.58201 0
M  V30 10271 H 993.804 1.24031 -0.790864 0
M  V30 10272 H 995.762 4.16254 0.280845 0
M  V30 10273 H 994.392 3.13365 0.774725 0
M  V30 10274 H 993.444 3.43903 -1.62589 0
M  V30 10275 H 994.756 4.59884 -1.93154 0
M  V30 10276 H 993.91 6.06635 -0.0887719 0
M  V30 10277 H 992.649 4.8669 0.313704 0
M  V30 10278 H 991.654 5.13063 -1.97602 0
M  V30 10279 H 992.879 6.3637 -2.37088 0
M  V30 10280 H 990.825 6.5586 -0.135339 0
M  V30 10281 H 990.742 7.37508 -1.66186 0
M  V30 10282 H 992.01 7.77611 -0.542346 0
M  V30 10283 N 996.239 0.8527 1.3254 0
M  V30 10284 C 997.149 0.298744 2.3269 0
M  V30 10285 C 998.165 -0.582418 1.63963 0
M  V30 10286 O 999.341 -0.483253 1.95516 0
M  V30 10287 C 996.406 -0.505453 3.42996 0
M  V30 10288 C 995.467 0.401618 4.27417 0
M  V30 10289 C 994.7 -0.364294 5.32455 0
M  V30 10290 O 994.923 -1.59448 5.47661 0
M  V30 10291 O 993.857 0.268892 6.01299 0
M  V30 10292 H 997.683 1.12843 2.81958 0
M  V30 10293 H 995.268 0.615584 1.36128 0
M  V30 10294 H 997.15 -0.961974 4.10273 0
M  V30 10295 H 995.825 -1.31197 2.95921 0
M  V30 10296 H 994.732 0.906274 3.62957 0
M  V30 10297 H 996.065 1.17327 4.78012 0
M  V30 10298 N 997.718 -1.45297 0.610449 0
M  V30 10299 C 998.943 -2.07101 0.111414 0
M  V30 10300 C 999.368 -1.45161 -1.19625 0
M  V30 10301 O 998.726 -0.545368 -1.72903 0
M  V30 10302 C 998.774 -3.60598 -0.0117372 0
M  V30 10303 O 997.878 -3.98512 -1.06122 0
M  V30 10304 H 997.219 -0.659709 0.075364 0
M  V30 10305 H 999.749 -1.86504 0.841269 0
M  V30 10306 H 999.759 -4.07464 -0.209028 0
M  V30 10307 H 998.434 -4.05067 0.943076 0
M  V30 10308 H 997.011 -3.63312 -0.840158 0
M  V30 10309 N 999.196 -0.349774 -1.5367 0
M  V30 10310 C 1000.44 0.245862 -2.00196 0
M  V30 10311 C 1000.76 1.51154 -1.24144 0
M  V30 10312 O 1001.96 2.18481 -1.61178 0
M  V30 10313 C 1000.42 0.488665 -3.56567 0
M  V30 10314 C 1000.03 -0.761475 -4.41481 0
M  V30 10315 C 1001.77 1.04282 -4.11492 0
M  V30 10316 C 999.679 -0.489128 -5.89374 0
M  V30 10317 H 998.609 0.0956493 -0.747909 0
M  V30 10318 H 1001.26 -0.466068 -1.77483 0
M  V30 10319 H 999.642 1.26145 -3.75371 0
M  V30 10320 H 1000.82 -1.53585 -4.34452 0
M  V30 10321 H 999.131 -1.23771 -3.9758 0
M  V30 10322 H 1001.73 1.26164 -5.19603 0
M  V30 10323 H 1002.07 2.00023 -3.65098 0
M  V30 10324 H 1002.6 0.330582 -3.96424 0
M  V30 10325 H 999.343 -1.41643 -6.40014 0
M  V30 10326 H 998.863 0.247039 -5.99291 0
M  V30 10327 H 1000.54 -0.1087 -6.46909 0
M  V30 10328 N 1000.67 1.57404 -0.0785433 0
M  V30 10329 C 1001.9 1.98074 0.597862 0
M  V30 10330 C 1002.32 0.95714 1.6274 0
M  V30 10331 O 1001.67 -0.0553728 1.82416 0
M  V30 10332 C 1001.72 3.38815 1.26041 0
M  V30 10333 O 1001.45 4.37254 0.27207 0
M  V30 10334 C 1002.95 3.94397 2.024 0
M  V30 10335 H 1000.17 0.651263 0.161546 0
M  V30 10336 H 1002.71 2.03927 -0.152941 0
M  V30 10337 H 1000.87 3.34028 1.96225 0
M  V30 10338 H 1001.28 5.19136 0.74822 0
M  V30 10339 H 1002.75 4.95075 2.4414 0
M  V30 10340 H 1003.23 3.31308 2.88326 0
M  V30 10341 H 1003.84 4.02607 1.37068 0
M  V30 10342 N 1002.15 -0.195058 1.56388 0
M  V30 10343 C 1003.4 -0.9168 1.80894 0
M  V30 10344 C 1003.73 -1.82907 0.652592 0
M  V30 10345 O 1003.01 -1.91382 -0.346853 0
M  V30 10346 C 1003.29 -1.733 3.15657 0
M  V30 10347 C 1003.14 -0.845449 4.41783 0
M  V30 10348 C 1004.46 -2.70557 3.47112 0
M  V30 10349 H 1001.58 -0.331861 0.658056 0
M  V30 10350 H 1004.22 -0.184174 1.89105 0
M  V30 10351 H 1002.37 -2.3576 3.08787 0
M  V30 10352 H 1004.04 -0.235557 4.60698 0
M  V30 10353 H 1002.29 -0.152172 4.33533 0
M  V30 10354 H 1002.96 -1.45152 5.32574 0
M  V30 10355 H 1005.43 -2.1823 3.54281 0
M  V30 10356 H 1004.31 -3.24749 4.42526 0
M  V30 10357 H 1004.57 -3.49605 2.70608 0
M  V30 10358 N 1003.63 -1.50653 -0.462772 0
M  V30 10359 C 1004.58 -1.70122 -1.55971 0
M  V30 10360 C 1005.55 -0.542581 -1.56988 0
M  V30 10361 O 1006.73 -0.774114 -1.74391 0
M  V30 10362 C 1003.87 -1.80899 -2.93887 0
M  V30 10363 C 1002.98 -3.08318 -3.02595 0
M  V30 10364 C 1002.12 -3.09841 -4.31477 0
M  V30 10365 C 1001.16 -4.3168 -4.33957 0
M  V30 10366 N 1000.3 -4.30894 -5.54323 0
M  V30 10367 H 1005.14 -2.63768 -1.38674 0
M  V30 10368 H 1002.67 -1.30746 -0.674091 0
M  V30 10369 H 1004.63 -1.85128 -3.73876 0
M  V30 10370 H 1003.26 -0.906854 -3.098 0
M  V30 10371 H 1002.31 -3.13521 -2.15427 0
M  V30 10372 H 1003.62 -3.98282 -3.00288 0
M  V30 10373 H 1002.78 -3.12845 -5.1982 0
M  V30 10374 H 1001.52 -2.17722 -4.36404 0
M  V30 10375 H 1000.52 -4.28879 -3.4401 0
M  V30 10376 H 1001.75 -5.25035 -4.30715 0
M  V30 10377 H 999.694 -3.41633 -5.6002 0
M  V30 10378 H 999.611 -5.14636 -5.53792 0
M  V30 10379 H 1000.88 -4.38056 -6.44769 0
M  V30 10380 N 1005.11 0.71652 -1.4037 0
M  V30 10381 C 1006.34 1.50563 -1.4191 0
M  V30 10382 C 1006.75 1.88791 -0.0185456 0
M  V30 10383 O 1006.11 1.55378 0.957289 0
M  V30 10384 C 1006.16 2.78155 -2.30894 0
M  V30 10385 O 1005.88 2.41543 -3.65497 0
M  V30 10386 C 1007.38 3.72057 -2.41016 0
M  V30 10387 H 1004.6 0.464679 -0.48406 0
M  V30 10388 H 1007.15 0.883927 -1.8441 0
M  V30 10389 H 1005.3 3.36611 -1.91759 0
M  V30 10390 H 1005.71 3.23636 -4.12747 0
M  V30 10391 H 1007.19 4.58426 -3.07489 0
M  V30 10392 H 1007.67 4.15098 -1.43492 0
M  V30 10393 H 1008.27 3.19512 -2.80699 0
M  V30 10394 N 1006.59 1.25851 0.948643 0
M  V30 10395 C 1007.55 1.0683 2.0278 0
M  V30 10396 C 1008.55 0.0191016 1.60789 0
M  V30 10397 O 1009.74 0.261836 1.72221 0
M  V30 10398 C 1006.87 0.623318 3.35153 0
M  V30 10399 H 1008.06 2.02635 2.21086 0
M  V30 10400 H 1005.62 1.08343 1.12657 0
M  V30 10401 H 1006.35 -0.337053 3.22544 0
M  V30 10402 H 1006.14 1.38082 3.66982 0
M  V30 10403 H 1007.63 0.511854 4.14451 0
M  V30 10404 N 1008.06 -1.15214 1.07534 0
M  V30 10405 C 1009.48 -1.67628 0.822045 0
M  V30 10406 C 1009.83 -1.8503 -0.652571 0
M  V30 10407 O 1008.95 -1.55497 -1.50498 0
M  V30 10408 C 1009.55 -3.04489 1.48566 0
M  V30 10409 C 1008.11 -3.53974 1.27983 0
M  V30 10410 C 1007.25 -2.29656 1.55414 0
M  V30 10411 H 1010.2 -0.994016 1.23713 0
M  V30 10412 H 1010.22 -3.69509 0.907916 0
M  V30 10413 H 1009.74 -2.91792 2.55888 0
M  V30 10414 H 1007.84 -3.71908 0.226906 0
M  V30 10415 H 1007.95 -4.35298 2.0013 0
M  V30 10416 H 1006.31 -2.35289 0.975251 0
M  V30 10417 H 1007.1 -2.19544 2.63923 0
M  V30 10418 N 1009.54 -0.859717 -1.32086 0
M  V30 10419 C 1010.96 -0.55025 -1.49815 0
M  V30 10420 C 1011.16 0.917966 -1.79376 0
M  V30 10421 O 1010.21 1.70073 -1.86632 0
M  V30 10422 C 1011.53 -1.44161 -2.6389 0
M  V30 10423 C 1013.08 -1.44257 -2.77775 0
M  V30 10424 C 1013.55 -2.31926 -3.94936 0
M  V30 10425 N 1015.04 -2.2975 -4.02206 0
M  V30 10426 C 1015.78 -2.9431 -4.92107 0
M  V30 10427 N 1015.27 -3.68001 -5.86981 0
M  V30 10428 N 1017.07 -2.83671 -4.8527 0
M  V30 10429 H 1009.22 -1.80987 -1.11164 0
M  V30 10430 H 1011.48 -0.773313 -0.548353 0
M  V30 10431 H 1011.19 -2.48588 -2.4879 0
M  V30 10432 H 1011.06 -1.13268 -3.59792 0
M  V30 10433 H 1013.45 -0.405923 -2.92295 0
M  V30 10434 H 1013.53 -1.79169 -1.82571 0
M  V30 10435 H 1013.17 -3.35661 -3.81174 0
M  V30 10436 H 1013.1 -1.94344 -4.89426 0
M  V30 10437 H 1015.59 -1.76177 -3.3432 0
M  V30 10438 H 1015.91 -4.14417 -6.52287 0
M  V30 10439 H 1014.25 -3.72109 -5.86992 0
M  V30 10440 H 1017.44 -2.25647 -4.10123 0
M  V30 10441 H 1017.61 -3.34267 -5.5513 0
M  V30 10442 N 1011.02 1.44971 -0.618145 0
M  V30 10443 C 1012.25 2.07039 -0.122395 0
M  V30 10444 C 1012.67 1.45793 1.18853 0
M  V30 10445 O 1012.03 0.55453 1.72611 0
M  V30 10446 C 1012.08 3.60599 -0.0073864 0
M  V30 10447 O 1011.18 3.99069 1.04007 0
M  V30 10448 H 1010.52 0.6593 -0.0788615 0
M  V30 10449 H 1013.05 1.86055 -0.851147 0
M  V30 10450 H 1013.06 4.07569 0.187417 0
M  V30 10451 H 1011.74 4.04561 -0.964544 0
M  V30 10452 H 1010.31 3.63753 0.820879 0
M  V30 10453 N 1012.5 0.357919 1.53482 0
M  V30 10454 C 1013.91 -0.122938 1.86295 0
M  V30 10455 C 1014.26 -1.48803 1.27875 0
M  V30 10456 O 1013.39 -2.07978 0.597828 0
M  V30 10457 C 1013.98 -0.229853 3.38019 0
M  V30 10458 C 1012.54 -0.654955 3.70658 0
M  V30 10459 C 1011.69 0.202539 2.76559 0
M  V30 10460 H 1014.64 0.576997 1.47839 0
M  V30 10461 H 1014.66 -1.05481 3.65587 0
M  V30 10462 H 1014.17 0.763825 3.80509 0
M  V30 10463 H 1012.27 -1.65714 3.33721 0
M  V30 10464 H 1012.38 -0.43488 4.77122 0
M  V30 10465 H 1010.75 -0.327388 2.52587 0
M  V30 10466 H 1011.53 1.19361 3.21882 0
M  V30 10467 N 1013.98 -1.5736 0.0868897 0
M  V30 10468 C 1015.25 -1.85495 -0.620561 0
M  V30 10469 C 1015.63 -0.982218 -1.86857 0
M  V30 10470 O 1014.98 -0.0524529 -2.2844 0
M  V30 10471 C 1015.19 -3.35996 -0.943798 0
M  V30 10472 C 1016.54 -4.03861 -1.31079 0
M  V30 10473 O 1017.56 -3.4083 -1.03507 0
M  V30 10474 O 1016.42 -5.15062 -1.82683 0
M  V30 10475 H 1013.52 -0.766822 -0.309697 0
M  V30 10476 H 1016.06 -1.69282 0.118966 0
M  V30 10477 H 1014.83 -3.91257 -0.0580628 0
M  V30 10478 H 1014.46 -3.57525 -1.73958 0
M  V30 10479 N 1015.45 0.186762 -1.56489 0
M  V30 10480 C 1016.42 1.21511 -1.94339 0
M  V30 10481 C 1017.42 1.38001 -0.82537 0
M  V30 10482 O 1018.61 1.3567 -1.09266 0
M  V30 10483 C 1015.74 2.583 -2.22472 0
M  V30 10484 H 1016.93 0.891371 -2.86347 0
M  V30 10485 H 1014.49 0.428612 -1.50308 0
M  V30 10486 H 1015.22 2.95715 -1.33129 0
M  V30 10487 H 1015.01 2.47701 -3.03951 0
M  V30 10488 H 1016.5 3.32441 -2.5273 0
M  V30 10489 N 1016.93 1.50896 0.454776 0
M  V30 10490 C 1018.35 1.38684 0.78987 0
M  V30 10491 C 1018.55 0.455587 1.96282 0
M  V30 10492 O 1017.6 -0.0957503 2.52318 0
M  V30 10493 C 1018.92 2.80381 1.08661 0
M  V30 10494 C 1020.47 2.8941 1.19209 0
M  V30 10495 C 1020.94 4.31976 1.52187 0
M  V30 10496 N 1022.43 4.35002 1.59146 0
M  V30 10497 C 1023.17 5.42326 1.862 0
M  V30 10498 N 1022.66 6.59835 2.11164 0
M  V30 10499 N 1024.46 5.29786 1.87838 0
M  V30 10500 H 1016.61 2.10006 -0.317981 0
M  V30 10501 H 1018.87 0.944636 -0.0797969 0
M  V30 10502 H 1018.58 3.50438 0.297626 0
M  V30 10503 H 1018.45 3.18634 2.01872 0
M  V30 10504 H 1020.84 2.19561 1.97173 0
M  V30 10505 H 1020.92 2.54677 0.239401 0
M  V30 10506 H 1020.56 5.02368 0.747576 0
M  V30 10507 H 1020.49 4.64208 2.48633 0
M  V30 10508 H 1022.98 3.50276 1.41828 0
M  V30 10509 H 1023.3 7.37428 2.31128 0
M  V30 10510 H 1021.64 6.62981 2.08522 0
M  V30 10511 H 1024.83 4.36974 1.67843 0
M  V30 10512 H 1025 6.13511 2.08585 0
M  V30 10513 N 1018.41 -0.709066 1.40748 0
M  V30 10514 C 1019.37 -1.80485 1.41272 0
M  V30 10515 C 1020.37 -1.57872 0.305463 0
M  V30 10516 O 1021.56 -1.64793 0.564691 0
M  V30 10517 C 1018.7 -3.1867 1.21087 0
M  V30 10518 H 1019.89 -1.81417 2.38805 0
M  V30 10519 H 1017.44 -0.915356 1.26692 0
M  V30 10520 H 1018.18 -3.23385 0.243406 0
M  V30 10521 H 1017.96 -3.36484 2.01299 0
M  V30 10522 H 1019.45 -3.98685 1.24257 0
M  V30 10523 N 1019.89 -1.26353 -0.941956 0
M  V30 10524 C 1021.11 -1.14731 -1.72776 0
M  V30 10525 C 1021.54 0.293766 -1.85792 0
M  V30 10526 O 1020.9 1.21284 -1.34759 0
M  V30 10527 C 1020.95 -1.82041 -3.11277 0
M  V30 10528 O 1020.05 -1.10867 -3.97218 0
M  V30 10529 H 1019.39 -0.399823 -0.53013 0
M  V30 10530 H 1021.92 -1.67157 -1.17981 0
M  V30 10531 H 1021.93 -1.88834 -3.61671 0
M  V30 10532 H 1020.61 -2.86879 -3.0112 0
M  V30 10533 H 1019.18 -1.12044 -3.55669 0
M  V30 10534 N 1021.37 1.14642 -1.08144 0
M  V30 10535 C 1022.6 1.89209 -0.82966 0
M  V30 10536 C 1023.01 1.78697 0.621604 0
M  V30 10537 O 1022.35 1.14224 1.4387 0
M  V30 10538 C 1022.41 3.39958 -1.16915 0
M  V30 10539 C 1022.07 3.74254 -2.62264 0
M  V30 10540 C 1023.07 3.746 -3.60514 0
M  V30 10541 C 1020.76 4.04316 -2.9805 0
M  V30 10542 C 1022.75 4.04527 -4.92582 0
M  V30 10543 C 1020.44 4.33906 -4.30312 0
M  V30 10544 C 1021.44 4.33995 -5.27388 0
M  V30 10545 O 1021.12 4.62869 -6.57273 0
M  V30 10546 H 1020.86 0.606259 -0.299042 0
M  V30 10547 H 1023.41 1.46132 -1.44342 0
M  V30 10548 H 1021.64 3.83475 -0.498377 0
M  V30 10549 H 1023.33 3.95828 -0.89862 0
M  V30 10550 H 1024.09 3.51466 -3.34211 0
M  V30 10551 H 1019.97 4.03402 -2.23132 0
M  V30 10552 H 1023.52 4.04511 -5.68346 0
M  V30 10553 H 1019.41 4.5651 -4.56365 0
M  V30 10554 H 1020.18 4.80598 -6.62546 0
M  V30 10555 N 1022.85 0.866709 1.31628 0
M  V30 10556 C 1024.09 0.475086 1.96437 0
M  V30 10557 C 1024.41 -0.975179 1.68865 0
M  V30 10558 O 1023.68 -1.68317 1.0023 0
M  V30 10559 H 1022.26 0.172695 0.726764 0
M  V30 10560 H 1024.93 1.10578 1.60494 0
M  V30 10561 H 1024.02 0.630123 3.05673 0
M  V30 10562 N 1024.32 -1.44642 0.625825 0
M  V30 10563 C 1025.27 -2.27762 -0.104042 0
M  V30 10564 C 1026.26 -1.38364 -0.821232 0
M  V30 10565 O 1027.45 -1.62214 -0.708213 0
M  V30 10566 C 1024.58 -3.25585 -1.08853 0
M  V30 10567 C 1023.66 -4.22472 -0.371241 0
M  V30 10568 N 1024.06 -5.02262 0.597226 0
M  V30 10569 C 1022.35 -4.4172 -0.616392 0
M  V30 10570 C 1023.05 -5.72678 1.02053 0
M  V30 10571 N 1022.03 -5.42404 0.360423 0
M  V30 10572 H 1025.83 -2.86858 0.639517 0
M  V30 10573 H 1023.35 -1.56015 0.450911 0
M  V30 10574 H 1025.34 -3.83885 -1.62597 0
M  V30 10575 H 1024 -2.68051 -1.83245 0
M  V30 10576 H 1025.01 -5.08643 0.974803 0
M  V30 10577 H 1021.69 -3.9529 -1.34359 0
M  V30 10578 H 1023.08 -6.46772 1.82033 0
M  V30 10579 N 1025.8 -0.366053 -1.5329 0
M  V30 10580 C 1027.03 0.226839 -2.06156 0
M  V30 10581 C 1027.45 1.41637 -1.23776 0
M  V30 10582 O 1026.81 1.7947 -0.256948 0
M  V30 10583 C 1026.86 0.597956 -3.55608 0
M  V30 10584 O 1025.96 1.69512 -3.75951 0
M  V30 10585 H 1025.3 0.0329156 -0.663184 0
M  V30 10586 H 1027.83 -0.526793 -1.97702 0
M  V30 10587 H 1027.84 0.868831 -3.98642 0
M  V30 10588 H 1026.52 -0.271838 -4.15011 0
M  V30 10589 H 1025.09 1.41976 -3.44815 0
M  V30 10590 N 1027.28 1.57312 -0.0952337 0
M  V30 10591 C 1028.21 2.11059 0.893678 0
M  V30 10592 C 1029.22 1.04787 1.24594 0
M  V30 10593 O 1030.41 1.32233 1.19903 0
M  V30 10594 C 1027.51 2.57552 2.20272 0
M  V30 10595 C 1026.69 3.87661 2.02578 0
M  V30 10596 C 1025.75 4.2 3.16996 0
M  V30 10597 O 1024.77 4.89219 2.90953 0
M  V30 10598 N 1025.97 3.75414 4.42769 0
M  V30 10599 H 1028.74 2.96532 0.434632 0
M  V30 10600 H 1026.3 1.6165 0.0898661 0
M  V30 10601 H 1028.29 2.76232 2.95766 0
M  V30 10602 H 1026.86 1.7709 2.576 0
M  V30 10603 H 1026.08 3.78128 1.11413 0
M  V30 10604 H 1027.37 4.7278 1.88032 0
M  V30 10605 H 1026.77 3.1954 4.66809 0
M  V30 10606 H 1025.32 3.99249 5.15212 0
M  V30 10607 N 1028.76 -0.17846 1.56586 0
M  V30 10608 C 1029.99 -0.911996 1.85715 0
M  V30 10609 C 1030.4 -1.76138 0.679766 0
M  V30 10610 O 1029.76 -1.79088 -0.351266 0
M  V30 10611 C 1029.81 -1.79459 3.1381 0
M  V30 10612 O 1029.53 -0.979476 4.2701 0
M  V30 10613 C 1031.03 -2.6384 3.56235 0
M  V30 10614 H 1028.25 -0.265299 0.616326 0
M  V30 10615 H 1030.79 -0.180704 2.037 0
M  V30 10616 H 1028.95 -2.4793 2.97673 0
M  V30 10617 H 1029.36 -1.58244 5.00059 0
M  V30 10618 H 1030.84 -3.21396 4.48786 0
M  V30 10619 H 1031.31 -3.38363 2.80013 0
M  V30 10620 H 1031.92 -2.00712 3.7496 0
M  V30 10621 N 1030.24 -1.51135 -0.446768 0
M  V30 10622 C 1031.51 -1.5387 -1.20762 0
M  V30 10623 C 1031.89 -0.297446 -2.08994 0
M  V30 10624 O 1031.24 0.717975 -2.16927 0
M  V30 10625 C 1031.45 -2.84767 -2.01764 0
M  V30 10626 C 1032.8 -3.3636 -2.59128 0
M  V30 10627 O 1033.82 -2.86254 -2.11984 0
M  V30 10628 O 1032.68 -4.23765 -3.45088 0
M  V30 10629 H 1029.78 -0.618228 -0.549293 0
M  V30 10630 H 1032.32 -1.63442 -0.456605 0
M  V30 10631 H 1031.09 -3.6657 -1.36901 0
M  V30 10632 H 1030.72 -2.78313 -2.8395 0
M  V30 10633 N 1031.71 0.701592 -1.41122 0
M  V30 10634 C 1032.94 1.49553 -1.43696 0
M  V30 10635 C 1033.36 1.88053 -0.0421865 0
M  V30 10636 O 1032.72 1.54223 0.953144 0
M  V30 10637 C 1032.77 2.73834 -2.34622 0
M  V30 10638 O 1031.87 3.71088 -1.7991 0
M  V30 10639 H 1031.21 0.450352 -0.487933 0
M  V30 10640 H 1033.74 0.862886 -1.85514 0
M  V30 10641 H 1033.75 3.22209 -2.5029 0
M  V30 10642 H 1032.43 2.45149 -3.35969 0
M  V30 10643 H 1031.01 3.29994 -1.73661 0
M  V30 10644 N 1033.19 1.2685 0.935242 0
M  V30 10645 C 1034.44 1.12912 1.6846 0
M  V30 10646 C 1034.77 -0.325708 1.91449 0
M  V30 10647 O 1034.05 -1.23884 1.49944 0
M  V30 10648 C 1034.33 1.90513 3.05576 0
M  V30 10649 C 1034.18 3.43936 2.89876 0
M  V30 10650 C 1035.5 1.70363 4.05789 0
M  V30 10651 H 1032.62 0.411559 0.611382 0
M  V30 10652 H 1035.26 1.55917 1.08582 0
M  V30 10653 H 1033.41 1.53963 3.5669 0
M  V30 10654 H 1035.08 3.90272 2.45939 0
M  V30 10655 H 1033.33 3.70659 2.25376 0
M  V30 10656 H 1034 3.93467 3.87153 0
M  V30 10657 H 1036.47 2.02217 3.63659 0
M  V30 10658 H 1035.35 2.27066 4.99732 0
M  V30 10659 H 1035.61 0.649674 4.373 0
M  V30 10660 N 1034.67 -1.14067 1.0875 0
M  V30 10661 C 1036.08 -1.66747 0.839778 0
M  V30 10662 C 1036.43 -1.85711 -0.632909 0
M  V30 10663 O 1035.56 -1.57084 -1.48841 0
M  V30 10664 C 1036.15 -3.02896 1.51787 0
M  V30 10665 C 1034.71 -3.52596 1.3173 0
M  V30 10666 C 1033.86 -2.27994 1.57841 0
M  V30 10667 H 1036.81 -0.980838 1.24761 0
M  V30 10668 H 1036.83 -3.68526 0.947057 0
M  V30 10669 H 1036.34 -2.89062 2.58969 0
M  V30 10670 H 1034.44 -3.71647 0.266339 0
M  V30 10671 H 1034.56 -4.33151 2.04736 0
M  V30 10672 H 1032.92 -2.34241 1.00015 0
M  V30 10673 H 1033.7 -2.16732 2.66237 0
M  V30 10674 N 1036.15 -0.873678 -1.31166 0
M  V30 10675 C 1037.4 -0.485497 -1.96182 0
M  V30 10676 C 1037.72 0.96621 -1.69379 0
M  V30 10677 O 1036.99 1.67783 -1.01121 0
M  V30 10678 H 1035.57 -0.176547 -0.725838 0
M  V30 10679 H 1038.23 -1.11428 -1.59906 0
M  V30 10680 H 1037.33 -0.646325 -3.05334 0
M  V30 10681 N 1037.63 1.44308 -0.633487 0
M  V30 10682 C 1039.04 1.85387 -0.221009 0
M  V30 10683 C 1039.39 1.5301 1.22811 0
M  V30 10684 O 1038.51 0.969325 1.93476 0
M  V30 10685 C 1039.11 3.36497 -0.394331 0
M  V30 10686 C 1037.67 3.76382 -0.0363405 0
M  V30 10687 C 1036.81 2.68146 -0.706598 0
M  V30 10688 H 1039.77 1.34741 -0.83849 0
M  V30 10689 H 1039.79 3.78735 0.366026 0
M  V30 10690 H 1039.3 3.60031 -1.44911 0
M  V30 10691 H 1037.4 3.58463 1.01661 0
M  V30 10692 H 1037.51 4.77 -0.448045 0
M  V30 10693 H 1035.88 2.54306 -0.14168 0
M  V30 10694 H 1036.66 2.94512 -1.76401 0
M  V30 10695 N 1039.1 0.374177 1.53094 0
M  V30 10696 C 1040.07 -0.455999 2.24618 0
M  V30 10697 C 1041.07 -1.00269 1.25709 0
M  V30 10698 O 1042.26 -0.887077 1.49922 0
M  V30 10699 C 1039.39 -1.63822 2.98957 0
M  V30 10700 H 1040.58 0.169986 2.99418 0
M  V30 10701 H 1038.14 0.126015 1.55791 0
M  V30 10702 H 1038.87 -2.30205 2.28421 0
M  V30 10703 H 1038.66 -1.25308 3.71538 0
M  V30 10704 H 1040.15 -2.22633 3.53305 0
M  V30 10705 N 1040.58 -1.57259 0.103575 0
M  V30 10706 C 1041.83 -1.94945 -0.558953 0
M  V30 10707 C 1042.16 -0.986038 -1.67305 0
M  V30 10708 O 1041.44 -0.0205464 -1.94489 0
M  V30 10709 C 1041.72 -3.42689 -1.10617 0
M  V30 10710 C 1041.57 -4.498 0.00345246 0
M  V30 10711 C 1042.89 -3.91933 -2.00191 0
M  V30 10712 H 1040.01 -0.708859 -0.201713 0
M  V30 10713 H 1042.65 -1.89183 0.176006 0
M  V30 10714 H 1040.8 -3.4773 -1.73251 0
M  V30 10715 H 1042.47 -4.56866 0.638082 0
M  V30 10716 H 1040.72 -4.28615 0.668705 0
M  V30 10717 H 1041.39 -5.50397 -0.420396 0
M  V30 10718 H 1043.86 -3.89098 -1.4745 0
M  V30 10719 H 1042.74 -4.9586 -2.35402 0
M  V30 10720 H 1043 -3.31722 -2.92255 0
M  V30 10721 N 1042.06 0.170153 -1.56679 0
M  V30 10722 C 1043.02 1.19443 -1.95617 0
M  V30 10723 C 1044.02 1.37118 -0.83996 0
M  V30 10724 O 1045.21 1.34504 -1.10699 0
M  V30 10725 C 1042.35 2.55926 -2.25199 0
M  V30 10726 H 1043.54 0.86095 -2.87276 0
M  V30 10727 H 1041.09 0.412646 -1.50755 0
M  V30 10728 H 1041.83 2.94286 -1.36257 0
M  V30 10729 H 1041.61 2.44464 -3.06562 0
M  V30 10730 H 1043.1 3.29742 -2.56242 0
M  V30 10731 N 1043.54 1.5137 0.438746 0
M  V30 10732 C 1044.5 1.71993 1.51496 0
M  V30 10733 C 1045.5 0.589978 1.49586 0
M  V30 10734 O 1046.69 0.857505 1.51633 0
M  V30 10735 C 1043.82 1.77508 2.91039 0
M  V30 10736 H 1045.02 2.68041 1.34514 0
M  V30 10737 H 1042.57 1.41338 0.667326 0
M  V30 10738 H 1043.3 0.832698 3.13427 0
M  V30 10739 H 1043.09 2.59627 2.9383 0
M  V30 10740 H 1044.58 1.95308 3.69113 0
M  V30 10741 N 1045.02 -0.694098 1.41492 0
M  V30 10742 C 1046.24 -1.48789 1.44488 0
M  V30 10743 C 1046.67 -1.88028 0.0521588 0
M  V30 10744 O 1046.02 -1.54727 -0.944952 0
M  V30 10745 C 1046.07 -2.72586 2.3607 0
M  V30 10746 O 1045.18 -3.70128 1.81876 0
M  V30 10747 H 1044.52 -0.447758 0.490315 0
M  V30 10748 H 1047.05 -0.853036 1.85969 0
M  V30 10749 H 1047.06 -3.20877 2.51995 0
M  V30 10750 H 1045.73 -2.43363 3.37264 0
M  V30 10751 H 1044.31 -3.29069 1.75408 0
M  V30 10752 N 1046.49 -1.27344 -0.928501 0
M  V30 10753 C 1047.44 -1.10001 -2.029 0
M  V30 10754 C 1048.41 -0.00131084 -1.661 0
M  V30 10755 O 1049.6 -0.163485 -1.90098 0
M  V30 10756 C 1046.74 -0.7524 -3.36798 0
M  V30 10757 C 1045.85 -1.92865 -3.86558 0
M  V30 10758 C 1044.98 -1.52299 -5.08899 0
M  V30 10759 C 1044.02 -2.66677 -5.50953 0
M  V30 10760 N 1043.16 -2.26706 -6.64491 0
M  V30 10761 H 1048 -2.0417 -2.17068 0
M  V30 10762 H 1045.54 -1.01637 -1.0634 0
M  V30 10763 H 1047.5 -0.531687 -4.13798 0
M  V30 10764 H 1046.13 0.15234 -3.2244 0
M  V30 10765 H 1045.18 -2.26192 -3.05845 0
M  V30 10766 H 1046.49 -2.78668 -4.13698 0
M  V30 10767 H 1045.64 -1.26348 -5.93398 0
M  V30 10768 H 1044.38 -0.636042 -4.83535 0
M  V30 10769 H 1043.39 -2.93344 -4.65004 0
M  V30 10770 H 1044.61 -3.55992 -5.78313 0
M  V30 10771 H 1042.56 -1.40462 -6.40786 0
M  V30 10772 H 1042.48 -3.06049 -6.91281 0
M  V30 10773 H 1043.74 -2.04 -7.52333 0
M  V30 10774 N 1047.97 1.13488 -1.09353 0
M  V30 10775 C 1048.88 2.2248 -0.744307 0
M  V30 10776 C 1049.9 1.72145 0.253404 0
M  V30 10777 O 1051.07 2.01176 0.0949339 0
M  V30 10778 C 1048.14 3.46286 -0.16928 0
M  V30 10779 C 1047.2 4.11516 -1.22284 0
M  V30 10780 C 1046.43 5.29412 -0.675161 0
M  V30 10781 O 1046.66 5.68185 0.502182 0
M  V30 10782 O 1045.59 5.8467 -1.42983 0
M  V30 10783 H 1049.42 2.54723 -1.65378 0
M  V30 10784 H 1047 1.21607 -0.867879 0
M  V30 10785 H 1048.88 4.2114 0.14811 0
M  V30 10786 H 1047.56 3.15745 0.713214 0
M  V30 10787 H 1046.47 3.38492 -1.59292 0
M  V30 10788 H 1047.8 4.46186 -2.07796 0
M  V30 10789 N 1049.45 0.880621 1.30701 0
M  V30 10790 C 1050.4 0.333562 2.30196 0
M  V30 10791 C 1051.39 -0.557092 1.59978 0
M  V30 10792 O 1052.6 -0.442009 1.74489 0
M  V30 10793 H 1048.97 0.0892036 0.746691 0
M  V30 10794 H 1050.95 1.18644 2.73799 0
M  V30 10795 C 1049.69 -0.440731 3.44895 0
M  V30 10796 H 1049.02 0.235353 3.99107 0
M  V30 10797 H 1050.46 -0.788676 4.166 0
M  V30 10798 C 1048.92 -1.63613 2.94504 0
M  V30 10799 O 1049.45 -2.73549 2.94166 0
M  V30 10800 N 1047.65 -1.47183 2.5057 0
M  V30 10801 H 1047.2 -0.577479 2.51044 0
M  V30 10802 H 1047.16 -2.27303 2.17211 0
M  V30 10803 N 1050.93 -1.4397 0.641131 0
M  V30 10804 C 1051.86 -2.33458 -0.04446 0
M  V30 10805 C 1052.84 -1.48781 -0.824507 0
M  V30 10806 O 1054.03 -1.77477 -0.788397 0
M  V30 10807 C 1051.16 -3.31989 -1.01984 0
M  V30 10808 C 1050.11 -4.2656 -0.350745 0
M  V30 10809 C 1049.44 -5.15036 -1.43673 0
M  V30 10810 C 1050.74 -5.16897 0.749299 0
M  V30 10811 H 1052.43 -2.91034 0.702832 0
M  V30 10812 H 1049.98 -1.39942 0.339435 0
M  V30 10813 H 1051.93 -3.93483 -1.50828 0
M  V30 10814 H 1050.65 -2.72643 -1.79815 0
M  V30 10815 H 1049.31 -3.66413 0.117139 0
M  V30 10816 H 1048.96 -4.52037 -2.20617 0
M  V30 10817 H 1048.66 -5.79125 -0.994358 0
M  V30 10818 H 1050.18 -5.79403 -1.92678 0
M  V30 10819 H 1051.6 -5.7227 0.343534 0
M  V30 10820 H 1049.99 -5.89643 1.11541 0
M  V30 10821 H 1051.06 -4.5731 1.61232 0
M  V30 10822 N 1052.41 -0.382291 -1.52893 0
M  V30 10823 C 1053.82 0.0932841 -1.86467 0
M  V30 10824 C 1054.17 1.4675 -1.30226 0
M  V30 10825 O 1053.29 2.07001 -0.63084 0
M  V30 10826 C 1053.89 0.176048 -3.38342 0
M  V30 10827 C 1052.45 0.595904 -3.71653 0
M  V30 10828 C 1051.6 -0.246511 -2.76202 0
M  V30 10829 H 1054.55 -0.600443 -1.46903 0
M  V30 10830 H 1054.57 0.996512 -3.67219 0
M  V30 10831 H 1054.08 -0.824264 -3.79246 0
M  V30 10832 H 1052.18 1.60384 -3.36315 0
M  V30 10833 H 1052.29 0.358919 -4.77754 0
M  V30 10834 H 1050.66 0.287162 -2.53076 0
M  V30 10835 H 1051.44 -1.24467 -3.19942 0
M  V30 10836 N 1053.89 1.57202 -0.111913 0
M  V30 10837 C 1055.13 1.95239 0.548607 0
M  V30 10838 C 1055.46 0.994897 1.6678 0
M  V30 10839 O 1054.74 0.0308603 1.94476 0
M  V30 10840 C 1055.02 3.43271 1.08798 0
M  V30 10841 C 1054.88 4.49792 -0.0273064 0
M  V30 10842 C 1056.19 3.92989 1.98109 0
M  V30 10843 H 1053.31 0.709919 0.197951 0
M  V30 10844 H 1055.96 1.89087 -0.186036 0
M  V30 10845 H 1054.11 3.48644 1.71404 0
M  V30 10846 H 1055.78 4.56521 -0.662302 0
M  V30 10847 H 1054.02 4.28254 -0.691426 0
M  V30 10848 H 1054.69 5.50612 0.391201 0
M  V30 10849 H 1057.17 3.89875 1.45385 0
M  V30 10850 H 1056.04 4.97101 2.32769 0
M  V30 10851 H 1056.3 3.33267 2.90492 0
M  V30 10852 N 1055.36 -0.161842 1.56767 0
M  V30 10853 C 1056.29 -1.20226 2.0017 0
M  V30 10854 C 1057.27 -1.4564 0.878807 0
M  V30 10855 O 1058.46 -1.56813 1.14557 0
M  V30 10856 C 1055.59 -2.53897 2.36968 0
M  V30 10857 C 1054.54 -2.43033 3.52305 0
M  V30 10858 C 1053.87 -3.81281 3.74872 0
M  V30 10859 C 1055.17 -1.927 4.85453 0
M  V30 10860 H 1056.86 -0.84142 2.87333 0
M  V30 10861 H 1054.41 -0.403309 1.38237 0
M  V30 10862 H 1056.36 -3.26893 2.6593 0
M  V30 10863 H 1055.09 -2.91787 1.46724 0
M  V30 10864 H 1053.75 -1.7249 3.23485 0
M  V30 10865 H 1053.39 -4.1658 2.81904 0
M  V30 10866 H 1053.09 -3.74877 4.52483 0
M  V30 10867 H 1054.62 -4.55848 4.06245 0
M  V30 10868 H 1056.03 -2.55477 5.13229 0
M  V30 10869 H 1054.43 -1.97222 5.66766 0
M  V30 10870 H 1055.5 -0.881816 4.76814 0
M  V30 10871 N 1056.84 -1.516 -0.430713 0
M  V30 10872 C 1057.79 -1.73975 -1.54387 0
M  V30 10873 C 1058.78 -0.606222 -1.58181 0
M  V30 10874 O 1059.99 -0.787764 -1.61846 0
M  V30 10875 H 1056.36 -0.549811 -0.513041 0
M  V30 10876 H 1058.34 -2.67274 -1.32692 0
M  V30 10877 C 1057.08 -1.88794 -2.9198 0
M  V30 10878 H 1056.41 -2.75425 -2.89795 0
M  V30 10879 H 1057.85 -2.08458 -3.69217 0
M  V30 10880 C 1056.31 -0.649427 -3.30581 0
M  V30 10881 O 1056.84 0.192823 -4.01237 0
M  V30 10882 N 1055.04 -0.491586 -2.86412 0
M  V30 10883 H 1054.59 -1.17806 -2.29084 0
M  V30 10884 H 1054.55 0.33583 -3.12601 0
M  V30 10885 N 1058.32 0.686584 -1.41858 0
M  V30 10886 C 1059.55 1.47519 -1.45072 0
M  V30 10887 C 1059.96 1.88709 -0.0585868 0
M  V30 10888 O 1059.32 1.57373 0.924116 0
M  V30 10889 C 1059.37 2.73195 -2.36742 0
M  V30 10890 O 1059.09 2.33736 -3.70539 0
M  V30 10891 C 1060.59 3.66861 -2.48854 0
M  V30 10892 H 1057.81 0.454307 -0.493808 0
M  V30 10893 H 1060.36 0.844612 -1.86243 0
M  V30 10894 H 1058.51 3.32468 -1.98856 0
M  V30 10895 H 1058.93 3.14809 -4.19518 0
M  V30 10896 H 1060.4 4.51801 -3.17143 0
M  V30 10897 H 1060.88 4.11961 -1.52265 0
M  V30 10898 H 1061.48 3.13486 -2.87414 0
M  V30 10899 N 1059.8 1.27835 0.921735 0
M  V30 10900 C 1061.21 1.05369 1.19873 0
M  V30 10901 C 1061.41 -0.208997 2.00413 0
M  V30 10902 O 1060.47 -0.912861 2.35421 0
M  V30 10903 C 1061.78 2.29658 1.94108 0
M  V30 10904 C 1063.33 2.34756 2.07023 0
M  V30 10905 C 1063.81 3.5879 2.84664 0
M  V30 10906 N 1065.3 3.59383 2.9223 0
M  V30 10907 C 1066.03 4.52029 3.52785 0
M  V30 10908 N 1065.53 5.54986 4.14683 0
M  V30 10909 N 1067.32 4.39641 3.50246 0
M  V30 10910 H 1059.47 2.08903 0.383819 0
M  V30 10911 H 1061.73 0.919065 0.232429 0
M  V30 10912 H 1061.44 3.21604 1.4235 0
M  V30 10913 H 1061.31 2.35444 2.94696 0
M  V30 10914 H 1063.7 1.43312 2.57965 0
M  V30 10915 H 1063.78 2.32969 1.05636 0
M  V30 10916 H 1063.43 4.50574 2.34404 0
M  V30 10917 H 1063.36 3.57829 3.86349 0
M  V30 10918 H 1065.85 2.84927 2.48244 0
M  V30 10919 H 1066.16 6.21837 4.58845 0
M  V30 10920 H 1064.51 5.58822 4.13211 0
M  V30 10921 H 1067.7 3.58413 3.01094 0
M  V30 10922 H 1067.87 5.12033 3.97148 0
M  V30 10923 N 1061.28 -1.12907 1.09954 0
M  V30 10924 C 1062.52 -1.83661 0.833761 0
M  V30 10925 C 1062.84 -1.84736 -0.642798 0
M  V30 10926 O 1064.04 -2.51437 -1.0243 0
M  V30 10927 C 1062.5 -3.29763 1.44168 0
M  V30 10928 C 1062.11 -3.3706 2.95118 0
M  V30 10929 C 1063.85 -4.05522 1.25509 0
M  V30 10930 C 1061.76 -4.77467 3.48969 0
M  V30 10931 H 1060.69 -0.688115 0.308242 0
M  V30 10932 H 1063.34 -1.27166 1.32291 0
M  V30 10933 H 1061.72 -3.86094 0.880215 0
M  V30 10934 H 1062.9 -2.90695 3.57537 0
M  V30 10935 H 1061.21 -2.7477 3.12874 0
M  V30 10936 H 1063.81 -5.09188 1.63191 0
M  V30 10937 H 1064.15 -4.15837 0.196208 0
M  V30 10938 H 1064.68 -3.55536 1.78435 0
M  V30 10939 H 1061.42 -4.72344 4.54501 0
M  V30 10940 H 1060.94 -5.24305 2.91315 0
M  V30 10941 H 1062.62 -5.46397 3.46495 0
M  V30 10942 N 1062.75 -0.88754 -1.30232 0
M  V30 10943 C 1064 -0.503322 -1.95319 0
M  V30 10944 C 1064.32 0.952817 -1.70824 0
M  V30 10945 O 1065.52 1.444 -2.29915 0
M  V30 10946 C 1063.98 -0.849216 -3.49738 0
M  V30 10947 C 1063.59 -2.3233 -3.83049 0
M  V30 10948 C 1065.33 -0.53432 -4.21124 0
M  V30 10949 C 1063.24 -2.61069 -5.30657 0
M  V30 10950 H 1062.17 -0.1845 -0.731078 0
M  V30 10951 H 1064.82 -1.08287 -1.48143 0
M  V30 10952 H 1063.2 -0.198729 -3.95501 0
M  V30 10953 H 1064.37 -3.01832 -3.48187 0
M  V30 10954 H 1062.69 -2.60599 -3.24773 0
M  V30 10955 H 1065.29 -0.726039 -5.29748 0
M  V30 10956 H 1065.63 0.526434 -4.12958 0
M  V30 10957 H 1066.16 -1.14211 -3.81052 0
M  V30 10958 H 1062.9 -3.65895 -5.43876 0
M  V30 10959 H 1062.42 -1.96179 -5.6681 0
M  V30 10960 H 1064.1 -2.46703 -5.98119 0
M  V30 10961 N 1064.23 1.43628 -0.648757 0
M  V30 10962 C 1065.47 2.03742 -0.163878 0
M  V30 10963 C 1065.84 1.50047 1.19791 0
M  V30 10964 O 1067.04 2.01777 1.77594 0
M  V30 10965 C 1065.31 3.57001 -0.168849 0
M  V30 10966 S 1066.87 4.38094 0.248835 0
M  V30 10967 H 1063.69 0.70757 -0.0697515 0
M  V30 10968 H 1066.29 1.75759 -0.856094 0
M  V30 10969 H 1064.99 3.93583 -1.16277 0
M  V30 10970 H 1064.52 3.8962 0.544048 0
M  V30 10971 H 1066.54 4.73338 1.48882 0
M  V30 10972 N 1065.71 0.390394 1.52688 0
M  V30 10973 C 1067.12 -0.083394 1.86514 0
M  V30 10974 C 1067.47 -1.46057 1.31003 0
M  V30 10975 O 1066.6 -2.06663 0.641809 0
M  V30 10976 C 1067.19 -0.158102 3.38431 0
M  V30 10977 C 1065.75 -0.576186 3.71964 0
M  V30 10978 C 1064.9 0.261156 2.76068 0
M  V30 10979 H 1067.85 0.608226 1.46582 0
M  V30 10980 H 1067.87 -0.977023 3.67742 0
M  V30 10981 H 1067.38 0.844365 3.78803 0
M  V30 10982 H 1065.48 -1.58598 3.37161 0
M  V30 10983 H 1065.6 -0.333577 4.77937 0
M  V30 10984 H 1063.96 -0.273737 2.53225 0
M  V30 10985 H 1064.74 1.26162 3.19277 0
M  V30 10986 N 1067.19 -1.57141 0.120249 0
M  V30 10987 C 1068.44 -1.94852 -0.536387 0
M  V30 10988 C 1068.76 -1.00452 -1.67136 0
M  V30 10989 O 1068.03 -0.061053 -1.95805 0
M  V30 10990 H 1066.61 -0.719411 -0.201138 0
M  V30 10991 H 1069.27 -1.93977 0.189482 0
M  V30 10992 H 1068.37 -2.97917 -0.930145 0
M  V30 10993 N 1068.67 0.153526 -1.5685 0
M  V30 10994 C 1069.6 1.19162 -2.00805 0
M  V30 10995 C 1070.58 1.45172 -0.886518 0
M  V30 10996 O 1071.76 1.56203 -1.15387 0
M  V30 10997 C 1068.89 2.52637 -2.38311 0
M  V30 10998 C 1067.85 2.41161 -3.53589 0
M  V30 10999 C 1067.17 3.79287 -3.76889 0
M  V30 11000 C 1068.47 1.90122 -4.86468 0
M  V30 11001 H 1070.17 0.82617 -2.87776 0
M  V30 11002 H 1067.71 0.395972 -1.38449 0
M  V30 11003 H 1069.67 3.25478 -2.6766 0
M  V30 11004 H 1068.39 2.91005 -1.4827 0
M  V30 11005 H 1067.05 1.70772 -3.24395 0
M  V30 11006 H 1066.7 4.15079 -2.84109 0
M  V30 11007 H 1066.4 3.72472 -4.54465 0
M  V30 11008 H 1067.92 4.53687 -4.08657 0
M  V30 11009 H 1069.33 2.52752 -5.14577 0
M  V30 11010 H 1067.73 1.94214 -5.67804 0
M  V30 11011 H 1068.8 0.856517 -4.77275 0
M  V30 11012 N 1070.14 1.51827 0.422667 0
M  V30 11013 C 1071.56 1.40328 0.760275 0
M  V30 11014 C 1071.76 0.497119 1.95272 0
M  V30 11015 O 1070.82 -0.0422083 2.52465 0
M  V30 11016 C 1072.13 2.82622 1.02689 0
M  V30 11017 C 1073.68 2.91874 1.13044 0
M  V30 11018 C 1074.15 4.35107 1.4299 0
M  V30 11019 N 1075.64 4.3828 1.49883 0
M  V30 11020 C 1076.38 5.46153 1.74655 0
M  V30 11021 N 1075.87 6.64165 1.9712 0
M  V30 11022 N 1077.67 5.33651 1.76558 0
M  V30 11023 H 1069.82 2.09285 -0.362455 0
M  V30 11024 H 1072.08 0.94273 -0.0998161 0
M  V30 11025 H 1071.79 3.50991 0.223226 0
M  V30 11026 H 1071.66 3.22844 1.95068 0
M  V30 11027 H 1074.05 2.23694 1.92471 0
M  V30 11028 H 1074.13 2.55128 0.185326 0
M  V30 11029 H 1073.77 5.03841 0.640848 0
M  V30 11030 H 1073.7 4.69377 2.38731 0
M  V30 11031 H 1076.19 3.53206 1.34366 0
M  V30 11032 H 1076.51 7.42165 2.15434 0
M  V30 11033 H 1074.85 6.67255 1.94413 0
M  V30 11034 H 1078.04 4.40436 1.58536 0
M  V30 11035 H 1078.22 6.17798 1.95525 0
M  V30 11036 N 1071.62 -0.679052 1.4222 0
M  V30 11037 C 1072.59 -1.77448 1.45069 0
M  V30 11038 C 1073.59 -1.57189 0.338882 0
M  V30 11039 O 1074.78 -1.63559 0.599519 0
M  V30 11040 C 1071.91 -3.1603 1.27819 0
M  V30 11041 H 1073.1 -1.7631 2.426 0
M  V30 11042 H 1070.65 -0.888277 1.28605 0
M  V30 11043 H 1071.39 -3.22796 0.311946 0
M  V30 11044 H 1071.17 -3.32138 2.08391 0
M  V30 11045 H 1072.66 -3.9596 1.32686 0
M  V30 11046 N 1073.1 -1.28322 -0.914942 0
M  V30 11047 C 1074.35 -1.15179 -1.66067 0
M  V30 11048 C 1074.67 0.300279 -1.92674 0
M  V30 11049 O 1073.94 1.20821 -1.54205 0
M  V30 11050 H 1072.52 -0.423264 -0.615513 0
M  V30 11051 H 1075.18 -1.61034 -1.09791 0
M  V30 11052 H 1074.28 -1.69048 -2.62353 0
M  V30 11053 N 1074.58 1.12322 -1.10551 0
M  V30 11054 C 1075.51 2.20176 -0.777486 0
M  V30 11055 C 1076.49 1.68252 0.250069 0
M  V30 11056 O 1077.67 1.93856 0.115574 0
M  V30 11057 C 1074.8 3.46666 -0.209822 0
M  V30 11058 C 1073.76 4.11749 -1.1682 0
M  V30 11059 C 1073.08 5.32703 -0.461684 0
M  V30 11060 C 1074.38 4.57746 -2.51527 0
M  V30 11061 H 1076.08 2.47872 -1.67928 0
M  V30 11062 H 1073.62 1.19136 -0.808863 0
M  V30 11063 H 1075.58 4.21388 0.0318068 0
M  V30 11064 H 1074.3 3.18401 0.727226 0
M  V30 11065 H 1072.96 3.39009 -1.3953 0
M  V30 11066 H 1072.61 5.00706 0.479875 0
M  V30 11067 H 1072.31 5.77197 -1.1008 0
M  V30 11068 H 1073.83 6.10172 -0.228629 0
M  V30 11069 H 1075.25 5.23835 -2.32958 0
M  V30 11070 H 1073.64 5.13021 -3.11335 0
M  V30 11071 H 1074.71 3.71667 -3.11435 0
M  V30 11072 N 1076.06 0.894434 1.2976 0
M  V30 11073 C 1077.02 0.373094 2.26143 0
M  V30 11074 C 1078.02 -0.489756 1.5316 0
M  V30 11075 O 1079.21 -0.29556 1.71674 0
M  V30 11076 C 1076.34 -0.467234 3.37683 0
M  V30 11077 H 1077.53 1.22427 2.73773 0
M  V30 11078 H 1075.09 0.672112 1.41111 0
M  V30 11079 H 1075.82 -1.33861 2.95384 0
M  V30 11080 H 1075.61 0.150954 3.91809 0
M  V30 11081 H 1077.1 -0.823469 4.094 0
M  V30 11082 N 1077.53 -1.43282 0.656365 0
M  V30 11083 C 1078.5 -2.29188 -0.0239173 0
M  V30 11084 C 1079.5 -1.42373 -0.747436 0
M  V30 11085 O 1080.69 -1.63969 -0.588213 0
M  V30 11086 C 1077.82 -3.24501 -1.0446 0
M  V30 11087 H 1079.01 -2.9083 0.731978 0
M  V30 11088 H 1076.57 -1.50614 0.417752 0
M  V30 11089 H 1077.3 -2.6776 -1.82962 0
M  V30 11090 H 1077.09 -3.88509 -0.52942 0
M  V30 11091 H 1078.58 -3.88971 -1.51958 0
M  V30 11092 N 1079.01 -0.398486 -1.52479 0
M  V30 11093 C 1080.24 0.183059 -2.06591 0
M  V30 11094 C 1080.66 1.3898 -1.26753 0
M  V30 11095 O 1080.02 1.78885 -0.294959 0
M  V30 11096 C 1080.07 0.522392 -3.56796 0
M  V30 11097 O 1079.17 1.61499 -3.79462 0
M  V30 11098 H 1078.51 0.0188411 -0.663733 0
M  V30 11099 H 1081.04 -0.56861 -1.9654 0
M  V30 11100 H 1081.05 0.784078 -4.00395 0
M  V30 11101 H 1079.73 -0.359807 -4.14341 0
M  V30 11102 H 1078.31 1.3463 -3.47749 0
M  V30 11103 N 1080.49 1.57075 -0.12858 0
M  V30 11104 C 1081.74 1.94695 0.526952 0
M  V30 11105 C 1082.05 1.01482 1.67215 0
M  V30 11106 O 1083.26 1.28606 2.39108 0
M  V30 11107 C 1081.72 3.4605 0.988801 0
M  V30 11108 C 1081.32 4.47816 -0.128457 0
M  V30 11109 C 1083.07 3.92572 1.61517 0
M  V30 11110 C 1080.97 5.9036 0.350628 0
M  V30 11111 H 1079.9 0.726819 0.200623 0
M  V30 11112 H 1082.56 1.82295 -0.209972 0
M  V30 11113 H 1080.94 3.53718 1.78043 0
M  V30 11114 H 1082.11 4.51826 -0.904976 0
M  V30 11115 H 1080.43 4.11103 -0.662075 0
M  V30 11116 H 1083.02 4.96493 1.98491 0
M  V30 11117 H 1083.37 3.33085 2.49721 0
M  V30 11118 H 1083.9 3.87744 0.888768 0
M  V30 11119 H 1080.64 6.53624 -0.495592 0
M  V30 11120 H 1080.16 5.89749 1.09342 0
M  V30 11121 H 1081.84 6.41926 0.808717 0
M  V30 11122 N 1081.97 -0.145205 1.5693 0
M  V30 11123 C 1082.93 -1.16316 1.97492 0
M  V30 11124 C 1083.93 -1.35764 0.861668 0
M  V30 11125 O 1085.12 -1.32726 1.12825 0
M  V30 11126 C 1082.25 -2.52311 2.29242 0
M  V30 11127 H 1083.45 -0.815138 2.8861 0
M  V30 11128 H 1081 -0.38861 1.51392 0
M  V30 11129 H 1081.74 -2.92081 1.40922 0
M  V30 11130 H 1081.52 -2.39555 3.10412 0
M  V30 11131 H 1083.01 -3.25624 2.61456 0
M  V30 11132 N 1083.45 -1.52049 -0.414609 0
M  V30 11133 C 1084.7 -1.65511 -1.15977 0
M  V30 11134 C 1085.02 -0.384703 -1.91168 0
M  V30 11135 O 1084.29 0.600247 -1.86477 0
M  V30 11136 H 1082.87 -0.610039 -0.431116 0
M  V30 11137 H 1085.53 -1.8907 -0.473139 0
M  V30 11138 H 1084.62 -2.4936 -1.87686 0
M  V30 11139 N 1084.93 0.6715 -1.42579 0
M  V30 11140 C 1086.15 1.46471 -1.46836 0
M  V30 11141 C 1086.58 1.87921 -0.0820658 0
M  V30 11142 O 1085.93 1.5621 0.920217 0
M  V30 11143 C 1085.98 2.68796 -2.40377 0
M  V30 11144 O 1085.09 3.67188 -1.87741 0
M  V30 11145 H 1084.43 0.439901 -0.497376 0
M  V30 11146 H 1086.96 0.823342 -1.87303 0
M  V30 11147 H 1086.97 3.16828 -2.57068 0
M  V30 11148 H 1085.64 2.37967 -3.41093 0
M  V30 11149 H 1084.22 3.26237 -1.80621 0
M  V30 11150 N 1086.4 1.28806 0.908124 0
M  V30 11151 C 1087.63 1.19271 1.69674 0
M  V30 11152 C 1088.05 -0.244403 1.86505 0
M  V30 11153 O 1087.41 -1.17668 1.37927 0
M  V30 11154 C 1087.46 1.9023 3.06341 0
M  V30 11155 O 1086.56 1.2136 3.94139 0
M  V30 11156 H 1085.9 0.413738 0.519343 0
M  V30 11157 H 1088.43 1.70227 1.13508 0
M  V30 11158 H 1088.44 1.98356 3.56537 0
M  V30 11159 H 1087.12 2.94762 2.93408 0
M  V30 11160 H 1085.7 1.21435 3.52573 0
M  V30 11161 N 1087.88 -1.11734 1.11145 0
M  V30 11162 C 1089.13 -1.82766 0.853194 0
M  V30 11163 C 1089.44 -1.85408 -0.623168 0
M  V30 11164 O 1090.65 -2.52509 -0.997574 0
M  V30 11165 C 1089.11 -3.28215 1.47658 0
M  V30 11166 C 1088.71 -3.33911 2.98676 0
M  V30 11167 C 1090.46 -4.04168 1.29803 0
M  V30 11168 C 1088.36 -4.73739 3.54013 0
M  V30 11169 H 1087.29 -0.684807 0.315523 0
M  V30 11170 H 1089.95 -1.25756 1.33633 0
M  V30 11171 H 1088.33 -3.85138 0.921116 0
M  V30 11172 H 1089.5 -2.86887 3.606 0
M  V30 11173 H 1087.82 -2.71437 3.15771 0
M  V30 11174 H 1090.41 -5.07429 1.68582 0
M  V30 11175 H 1090.76 -4.15606 0.240302 0
M  V30 11176 H 1091.29 -3.53623 1.82196 0
M  V30 11177 H 1088.03 -4.67497 4.59485 0
M  V30 11178 H 1087.55 -5.21186 2.9686 0
M  V30 11179 H 1089.23 -5.42691 3.52271 0
M  V30 11180 N 1089.36 -0.901303 -1.29284 0
M  V30 11181 C 1090.61 -0.52401 -1.94774 0
M  V30 11182 C 1090.92 0.934645 -1.71825 0
M  V30 11183 O 1092.13 1.41953 -2.31434 0
M  V30 11184 C 1090.58 -0.886262 -3.48817 0
M  V30 11185 C 1090.19 -2.3638 -3.80564 0
M  V30 11186 C 1091.94 -0.578955 -4.20533 0
M  V30 11187 C 1089.84 -2.66682 -5.27858 0
M  V30 11188 H 1088.77 -0.192244 -0.72908 0
M  V30 11189 H 1091.42 -1.09852 -1.46986 0
M  V30 11190 H 1089.81 -0.240666 -3.95268 0
M  V30 11191 H 1090.98 -3.05508 -3.44966 0
M  V30 11192 H 1089.29 -2.64029 -3.2199 0
M  V30 11193 H 1091.89 -0.782185 -5.28948 0
M  V30 11194 H 1092.23 0.482605 -4.13493 0
M  V30 11195 H 1092.77 -1.18246 -3.79819 0
M  V30 11196 H 1089.51 -3.71643 -5.39965 0
M  V30 11197 H 1089.03 -2.02179 -5.64698 0
M  V30 11198 H 1090.71 -2.53033 -5.95469 0
M  V30 11199 N 1090.84 1.42931 -0.663954 0
M  V30 11200 C 1091.79 2.32577 0.03287 0
M  V30 11201 C 1092.78 1.49217 0.801918 0
M  V30 11202 O 1093.99 1.65358 0.711106 0
M  V30 11203 H 1090.36 0.751424 0.0294198 0
M  V30 11204 H 1092.33 2.89059 -0.740763 0
M  V30 11205 C 1091.08 3.33661 0.978025 0
M  V30 11206 H 1090.4 3.97837 0.395681 0
M  V30 11207 H 1091.84 3.98997 1.43448 0
M  V30 11208 C 1090.3 2.65085 2.07922 0
M  V30 11209 O 1090.83 2.4745 3.16435 0
M  V30 11210 N 1089.04 2.24285 1.84783 0
M  V30 11211 H 1088.59 2.38827 0.965368 0
M  V30 11212 H 1088.54 1.78732 2.58655 0
M  V30 11213 N 1092.32 0.406567 1.52266 0
M  V30 11214 C 1093.26 -0.420182 2.26943 0
M  V30 11215 C 1094.23 -1.04323 1.29251 0
M  V30 11216 O 1095.42 -1.06799 1.5811 0
M  V30 11217 C 1092.56 -1.5323 3.09216 0
M  V30 11218 C 1091.67 -0.930419 4.21862 0
M  V30 11219 C 1090.81 -2.01502 4.91498 0
M  V30 11220 C 1089.84 -1.38994 5.9611 0
M  V30 11221 N 1088.98 -2.41458 6.59274 0
M  V30 11222 H 1093.82 0.223066 2.97164 0
M  V30 11223 H 1091.36 0.121842 1.46595 0
M  V30 11224 H 1093.32 -2.18803 3.5522 0
M  V30 11225 H 1091.95 -2.14561 2.41171 0
M  V30 11226 H 1091 -0.163809 3.80047 0
M  V30 11227 H 1092.31 -0.433785 4.9691 0
M  V30 11228 H 1091.46 -2.74807 5.40894 0
M  V30 11229 H 1090.2 -2.5453 4.16012 0
M  V30 11230 H 1089.21 -0.642213 5.46036 0
M  V30 11231 H 1090.43 -0.867386 6.73538 0
M  V30 11232 H 1088.38 -2.93623 5.86619 0
M  V30 11233 H 1088.3 -1.96599 7.2999 0
M  V30 11234 H 1089.56 -3.14341 7.13309 0
M  V30 11235 N 1093.79 -1.57004 0.136909 0
M  V30 11236 C 1094.73 -2.12004 -0.844362 0
M  V30 11237 C 1095.71 -1.04099 -1.24909 0
M  V30 11238 O 1096.89 -1.31866 -1.34698 0
M  V30 11239 C 1094.02 -2.63147 -2.13241 0
M  V30 11240 C 1093.06 -3.83105 -1.87438 0
M  V30 11241 S 1093.9 -5.2461 -1.07447 0
M  V30 11242 C 1095.05 -5.79134 -2.37392 0
M  V30 11243 H 1095.28 -2.94905 -0.376614 0
M  V30 11244 H 1092.82 -1.54207 -0.0771977 0
M  V30 11245 H 1094.78 -2.93264 -2.87239 0
M  V30 11246 H 1093.44 -1.80395 -2.57131 0
M  V30 11247 H 1092.63 -4.17099 -2.82922 0
M  V30 11248 H 1092.23 -3.53696 -1.21553 0
M  V30 11249 H 1094.52 -5.8995 -3.33114 0
M  V30 11250 H 1095.47 -6.76887 -2.07918 0
M  V30 11251 H 1095.87 -5.07311 -2.47579 0
M  V30 11252 N 1095.27 0.136881 -1.57004 0
M  V30 11253 C 1096.2 1.17026 -2.02057 0
M  V30 11254 C 1097.18 1.44223 -0.901866 0
M  V30 11255 O 1098.37 1.54971 -1.17037 0
M  V30 11256 C 1095.5 2.50095 -2.40977 0
M  V30 11257 C 1094.45 2.37398 -3.56127 0
M  V30 11258 C 1093.78 3.75268 -3.80891 0
M  V30 11259 C 1095.08 1.84952 -4.88457 0
M  V30 11260 H 1096.77 0.795601 -2.88636 0
M  V30 11261 H 1094.32 0.381266 -1.38861 0
M  V30 11262 H 1096.27 3.22621 -2.71097 0
M  V30 11263 H 1095 2.89416 -1.51348 0
M  V30 11264 H 1093.65 1.67322 -3.26188 0
M  V30 11265 H 1093.3 4.12043 -2.88496 0
M  V30 11266 H 1093 3.67631 -4.5839 0
M  V30 11267 H 1094.53 4.49327 -4.13446 0
M  V30 11268 H 1095.94 2.4728 -5.17229 0
M  V30 11269 H 1094.34 1.88181 -5.69832 0
M  V30 11270 H 1095.41 0.805848 -4.78157 0
M  V30 11271 N 1096.75 1.52266 0.40654 0
M  V30 11272 C 1097.68 1.78755 1.50229 0
M  V30 11273 C 1098.66 0.638652 1.57655 0
M  V30 11274 O 1099.85 0.884505 1.72888 0
M  V30 11275 C 1096.98 1.94057 2.88026 0
M  V30 11276 C 1095.93 3.09667 2.95449 0
M  V30 11277 C 1095.26 3.10196 4.35526 0
M  V30 11278 C 1096.56 4.49077 2.66697 0
M  V30 11279 H 1098.25 2.70511 1.28313 0
M  V30 11280 H 1095.8 1.30167 0.615836 0
M  V30 11281 H 1097.75 2.11171 3.64671 0
M  V30 11282 H 1096.47 0.989755 3.11242 0
M  V30 11283 H 1095.13 2.92308 2.2125 0
M  V30 11284 H 1094.78 2.12831 4.55754 0
M  V30 11285 H 1094.48 3.87847 4.41416 0
M  V30 11286 H 1096 3.29443 5.14101 0
M  V30 11287 H 1097.42 4.66628 3.33064 0
M  V30 11288 H 1095.82 5.28665 2.8396 0
M  V30 11289 H 1096.89 4.56995 1.62122 0
M  V30 11290 N 1098.23 -0.663929 1.42933 0
M  V30 11291 C 1099.19 -1.75899 1.46943 0
M  V30 11292 C 1100.19 -1.5682 0.355535 0
M  V30 11293 O 1101.38 -1.62914 0.616833 0
M  V30 11294 C 1098.51 -3.14657 1.31164 0
M  V30 11295 H 1099.71 -1.73727 2.44456 0
M  V30 11296 H 1097.26 -0.874587 1.2954 0
M  V30 11297 H 1097.99 -3.22447 0.346165 0
M  V30 11298 H 1097.78 -3.29909 2.11902 0
M  V30 11299 H 1099.27 -3.9453 1.36878 0
M  V30 11300 N 1099.71 -1.29285 -0.901281 0
M  V30 11301 C 1100.65 -1.14159 -2.02659 0
M  V30 11302 C 1101.65 -0.0575887 -1.69302 0
M  V30 11303 O 1102.85 -0.217273 -1.78684 0
M  V30 11304 H 1099.23 -0.352584 -0.66422 0
M  V30 11305 H 1101.2 -2.09434 -2.12555 0
M  V30 11306 C 1099.95 -0.833253 -3.37568 0
M  V30 11307 H 1099.27 -1.65939 -3.63737 0
M  V30 11308 H 1100.71 -0.767436 -4.16997 0
M  V30 11309 C 1099.17 0.46344 -3.33697 0
M  V30 11310 O 1099.7 1.48998 -3.73045 0
M  V30 11311 N 1097.91 0.468709 -2.86795 0
M  V30 11312 H 1097.45 -0.36712 -2.54971 0
M  V30 11313 H 1097.41 1.3363 -2.84588 0
M  V30 11314 N 1101.18 1.11143 -1.11736 0
M  V30 11315 C 1102.43 1.82311 -0.862875 0
M  V30 11316 C 1102.75 1.85735 0.613326 0
M  V30 11317 O 1103.95 2.53034 0.984168 0
M  V30 11318 C 1102.41 3.27427 -1.49396 0
M  V30 11319 C 1102.02 3.32323 -3.00443 0
M  V30 11320 C 1103.76 4.03474 -1.31944 0
M  V30 11321 C 1101.67 4.71855 -3.56521 0
M  V30 11322 H 1100.6 0.683124 -0.31915 0
M  V30 11323 H 1103.25 1.25045 -1.34298 0
M  V30 11324 H 1101.63 3.84644 -0.941528 0
M  V30 11325 H 1102.8 2.84971 -3.62117 0
M  V30 11326 H 1101.12 2.69758 -3.17206 0
M  V30 11327 H 1103.72 5.06528 -1.71271 0
M  V30 11328 H 1104.06 4.15473 -0.262339 0
M  V30 11329 H 1104.59 3.52652 -1.84069 0
M  V30 11330 H 1101.33 4.65054 -4.61958 0
M  V30 11331 H 1100.85 5.19604 -2.99619 0
M  V30 11332 H 1102.53 5.40816 -3.55144 0
M  V30 11333 N 1102.66 0.908147 1.28804 0
M  V30 11334 C 1103.94 0.457561 1.90173 0
M  V30 11335 C 1104.32 -1.06333 1.82364 0
M  V30 11336 O 1103.67 -1.90892 1.25589 0
M  V30 11337 C 1103.88 0.981624 3.34911 0
M  V30 11338 C 1105.23 1.03037 4.11908 0
M  V30 11339 O 1106.25 0.929878 3.43848 0
M  V30 11340 O 1105.11 1.18257 5.33552 0
M  V30 11341 H 1102.2 0.144081 0.814352 0
M  V30 11342 H 1104.75 0.998565 1.37211 0
M  V30 11343 H 1103.52 2.02561 3.34791 0
M  V30 11344 H 1103.14 0.421122 3.95364 0
M  V30 11345 N 1104.14 -1.42577 0.671525 0
M  V30 11346 C 1105.55 -1.84736 0.270084 0
M  V30 11347 C 1105.9 -1.56212 -1.18711 0
M  V30 11348 O 1105.03 -1.02028 -1.90838 0
M  V30 11349 C 1105.62 -3.35334 0.483409 0
M  V30 11350 C 1104.18 -3.76154 0.136119 0
M  V30 11351 C 1103.33 -2.66179 0.777444 0
M  V30 11352 H 1106.28 -1.3247 0.873919 0
M  V30 11353 H 1106.3 -3.79573 -0.265483 0
M  V30 11354 H 1105.81 -3.56063 1.54405 0
M  V30 11355 H 1103.91 -3.61033 -0.921209 0
M  V30 11356 H 1104.03 -4.75645 0.574356 0
M  V30 11357 H 1102.39 -2.53841 0.209055 0
M  V30 11358 H 1103.17 -2.89732 1.84148 0
M  V30 11359 N 1105.62 -0.414636 -1.52048 0
M  V30 11360 C 1106.87 0.159349 -2.01872 0
M  V30 11361 C 1107.19 1.44674 -1.29999 0
M  V30 11362 O 1106.45 1.91641 -0.396511 0
M  V30 11363 C 1106.75 0.448327 -3.54577 0
M  V30 11364 C 1106.41 -0.75052 -4.4461 0
M  V30 11365 C 1105.08 -1.07935 -4.68939 0
M  V30 11366 C 1107.43 -1.55134 -4.97577 0
M  V30 11367 C 1104.76 -2.21008 -5.43482 0
M  V30 11368 C 1107.11 -2.67288 -5.73358 0
M  V30 11369 C 1105.77 -3.00651 -5.95958 0
M  V30 11370 H 1105.04 0.05831 -0.738702 0
M  V30 11371 H 1107.69 -0.557184 -1.83215 0
M  V30 11372 H 1105.99 1.24649 -3.71443 0
M  V30 11373 H 1107.69 0.90549 -3.90643 0
M  V30 11374 H 1104.28 -0.484257 -4.25856 0
M  V30 11375 H 1108.46 -1.31052 -4.78685 0
M  V30 11376 H 1103.72 -2.47197 -5.59199 0
M  V30 11377 H 1107.89 -3.29725 -6.13396 0
M  V30 11378 H 1105.52 -3.88384 -6.535 0
M  V30 11379 N 1107.1 1.56929 -0.145233 0
M  V30 11380 C 1108.34 1.95681 0.50532 0
M  V30 11381 C 1108.67 1.03098 1.65516 0
M  V30 11382 O 1107.94 0.0921961 1.95683 0
M  V30 11383 H 1106.52 0.72252 0.189668 0
M  V30 11384 H 1109.18 1.93651 -0.220318 0
M  V30 11385 H 1108.27 2.99359 0.882631 0
M  V30 11386 N 1108.58 -0.128553 1.57075 0
M  V30 11387 C 1109.54 -1.14215 1.98715 0
M  V30 11388 C 1110.54 -1.34843 0.876019 0
M  V30 11389 O 1111.73 -1.31522 1.14227 0
M  V30 11390 C 1108.86 -2.49865 2.31905 0
M  V30 11391 H 1110.05 -0.784481 2.89458 0
M  V30 11392 H 1107.61 -0.372531 1.51796 0
M  V30 11393 H 1108.34 -2.9057 1.44012 0
M  V30 11394 H 1108.13 -2.3625 3.12935 0
M  V30 11395 H 1109.62 -3.22832 2.64895 0
M  V30 11396 N 1110.05 -1.5248 -0.398459 0
M  V30 11397 C 1111.28 -1.70925 -1.16586 0
M  V30 11398 C 1111.7 -0.42342 -1.83991 0
M  V30 11399 O 1111.05 0.601395 -1.72306 0
M  V30 11400 C 1111.1 -2.85226 -2.22099 0
M  V30 11401 O 1110.83 -4.08831 -1.57444 0
M  V30 11402 C 1112.33 -3.15272 -3.11639 0
M  V30 11403 H 1109.55 -0.572533 -0.349924 0
M  V30 11404 H 1112.09 -1.99087 -0.467416 0
M  V30 11405 H 1110.25 -2.59553 -2.87595 0
M  V30 11406 H 1110.66 -4.72603 -2.2748 0
M  V30 11407 H 1112.13 -3.98737 -3.81724 0
M  V30 11408 H 1112.61 -2.29262 -3.74614 0
M  V30 11409 H 1113.22 -3.42749 -2.518 0
M  V30 11410 N 1111.53 0.65634 -1.43283 0
M  V30 11411 C 1112.94 1.23744 -1.39801 0
M  V30 11412 C 1113.29 1.95942 -0.100507 0
M  V30 11413 O 1112.42 2.01063 0.800161 0
M  V30 11414 C 1113.01 2.25062 -2.53244 0
M  V30 11415 C 1111.57 2.78657 -2.53036 0
M  V30 11416 C 1110.72 1.53251 -2.31105 0
M  V30 11417 H 1113.67 0.448553 -1.52229 0
M  V30 11418 H 1113.69 3.07174 -2.24553 0
M  V30 11419 H 1113.2 1.72487 -3.47664 0
M  V30 11420 H 1111.3 3.35304 -1.62487 0
M  V30 11421 H 1111.42 3.26414 -3.507 0
M  V30 11422 H 1109.78 1.80487 -1.79713 0
M  V30 11423 H 1110.56 1.02615 -3.27605 0
M  V30 11424 N 1113.01 1.29761 0.894412 0
M  V30 11425 C 1114.26 1.18039 1.64539 0
M  V30 11426 C 1114.58 -0.26697 1.92659 0
M  V30 11427 O 1113.84 -1.20865 1.53916 0
M  V30 11428 C 1114.14 1.94458 2.99868 0
M  V30 11429 C 1113.8 3.44143 2.91336 0
M  V30 11430 C 1112.47 3.84963 2.88716 0
M  V30 11431 C 1114.82 4.39503 2.80154 0
M  V30 11432 C 1112.15 5.19451 2.72741 0
M  V30 11433 C 1114.5 5.74088 2.65718 0
M  V30 11434 C 1113.16 6.14159 2.61467 0
M  V30 11435 H 1112.43 0.431936 0.60209 0
M  V30 11436 H 1115.08 1.60758 1.04063 0
M  V30 11437 H 1113.38 1.44346 3.64241 0
M  V30 11438 H 1115.08 1.82788 3.56917 0
M  V30 11439 H 1111.67 3.11699 2.9418 0
M  V30 11440 H 1115.86 4.08915 2.81251 0
M  V30 11441 H 1111.11 5.49602 2.67858 0
M  V30 11442 H 1115.29 6.47625 2.56038 0
M  V30 11443 H 1112.91 7.18317 2.48847 0
M  V30 11444 N 1114.49 -1.10549 1.12324 0
M  V30 11445 C 1115.74 -1.81851 0.872531 0
M  V30 11446 C 1116.05 -1.86058 -0.603468 0
M  V30 11447 O 1117.26 -2.53553 -0.970736 0
M  V30 11448 C 1115.71 -3.26631 1.51131 0
M  V30 11449 C 1115.32 -3.30725 3.02201 0
M  V30 11450 C 1117.06 -4.02768 1.34082 0
M  V30 11451 C 1114.97 -4.69957 3.59018 0
M  V30 11452 H 1113.9 -0.681422 0.322769 0
M  V30 11453 H 1116.55 -1.24332 1.34959 0
M  V30 11454 H 1114.93 -3.8414 0.961913 0
M  V30 11455 H 1116.11 -2.83046 3.63623 0
M  V30 11456 H 1114.42 -2.68072 3.18632 0
M  V30 11457 H 1117.02 -5.05612 1.73955 0
M  V30 11458 H 1117.36 -4.15328 0.284369 0
M  V30 11459 H 1117.9 -3.51671 1.85937 0
M  V30 11460 H 1114.63 -4.62597 4.64418 0
M  V30 11461 H 1114.15 -5.18008 3.02371 0
M  V30 11462 H 1115.83 -5.38925 3.58007 0
M  V30 11463 N 1115.97 -0.914965 -1.28321 0
M  V30 11464 C 1117.24 -0.46764 -1.89928 0
M  V30 11465 C 1117.62 1.05364 -1.82925 0
M  V30 11466 O 1116.97 1.90223 -1.26599 0
M  V30 11467 C 1117.18 -0.999372 -3.34385 0
M  V30 11468 C 1118.53 -1.0522 -4.11356 0
M  V30 11469 O 1119.55 -0.9481 -3.4335 0
M  V30 11470 O 1118.41 -1.21085 -5.32917 0
M  V30 11471 H 1115.51 -0.148398 -0.813577 0
M  V30 11472 H 1118.05 -1.00583 -1.36679 0
M  V30 11473 H 1116.82 -2.04333 -3.33712 0
M  V30 11474 H 1116.45 -0.442083 -3.95135 0
M  V30 11475 N 1117.44 1.42219 -0.679077 0
M  V30 11476 C 1118.85 1.8459 -0.279877 0
M  V30 11477 C 1119.21 1.56839 1.17881 0
M  V30 11478 O 1118.33 1.03039 1.90294 0
M  V30 11479 C 1118.93 3.35072 -0.501185 0
M  V30 11480 C 1117.48 3.76076 -0.156065 0
M  V30 11481 C 1116.63 2.65763 -0.791549 0
M  V30 11482 H 1119.58 1.32005 -0.880932 0
M  V30 11483 H 1119.6 3.79708 0.245349 0
M  V30 11484 H 1119.12 3.55239 -1.56291 0
M  V30 11485 H 1117.22 3.61516 0.90205 0
M  V30 11486 H 1117.33 4.75334 -0.599572 0
M  V30 11487 H 1115.69 2.53726 -0.222514 0
M  V30 11488 H 1116.48 2.88751 -1.85682 0
M  V30 11489 N 1118.92 0.422693 1.51826 0
M  V30 11490 C 1120.2 -0.20786 1.94492 0
M  V30 11491 C 1120.58 -1.61414 1.36047 0
M  V30 11492 O 1119.93 -2.21987 0.541657 0
M  V30 11493 C 1120.14 -0.200457 3.48424 0
M  V30 11494 C 1121.48 -0.413199 4.22585 0
M  V30 11495 O 1122.51 -0.27922 3.55104 0
M  V30 11496 O 1121.37 -0.678469 5.42272 0
M  V30 11497 H 1118.46 -0.137851 0.81543 0
M  V30 11498 H 1121.01 0.479617 1.62781 0
M  V30 11499 H 1119.78 0.783263 3.83381 0
M  V30 11500 H 1119.4 -0.931464 3.86535 0
M  V30 11501 N 1120.4 -1.5685 0.153553 0
M  V30 11502 C 1121.33 -2.20101 -0.779601 0
M  V30 11503 C 1122.31 -1.15121 -1.25225 0
M  V30 11504 O 1123.5 -1.43487 -1.30862 0
M  V30 11505 C 1120.63 -2.82778 -2.01628 0
M  V30 11506 C 1119.58 -3.93643 -1.68015 0
M  V30 11507 C 1118.91 -4.43286 -2.99001 0
M  V30 11508 C 1120.21 -5.14102 -0.921774 0
M  V30 11509 H 1121.9 -2.98334 -0.252432 0
M  V30 11510 H 1119.45 -1.43499 -0.119975 0
M  V30 11511 H 1121.4 -3.25696 -2.67395 0
M  V30 11512 H 1120.12 -2.01887 -2.56728 0
M  V30 11513 H 1118.78 -3.51354 -1.04624 0
M  V30 11514 H 1118.43 -3.59208 -3.52106 0
M  V30 11515 H 1118.13 -5.18068 -2.77272 0
M  V30 11516 H 1119.65 -4.88878 -3.65828 0
M  V30 11517 H 1121.07 -5.53823 -1.48167 0
M  V30 11518 H 1119.46 -5.94687 -0.804185 0
M  V30 11519 H 1120.53 -4.84825 0.0852757 0
M  V30 11520 N 1121.88 0.120221 -1.57141 0
M  V30 11521 C 1123.15 0.858458 -1.75755 0
M  V30 11522 C 1123.53 1.98124 -0.728693 0
M  V30 11523 O 1122.88 2.27155 0.247573 0
M  V30 11524 C 1123.09 1.37627 -3.20718 0
M  V30 11525 C 1124.44 1.82909 -3.83183 0
M  V30 11526 O 1125.46 1.47309 -3.24312 0
M  V30 11527 O 1124.32 2.4865 -4.86657 0
M  V30 11528 H 1121.42 0.407583 -0.719587 0
M  V30 11529 H 1123.96 0.104057 -1.69381 0
M  V30 11530 H 1122.74 0.570651 -3.87117 0
M  V30 11531 H 1122.36 2.19341 -3.31625 0
M  V30 11532 N 1123.36 1.52689 0.390367 0
M  V30 11533 C 1124.58 1.71839 1.16129 0
M  V30 11534 C 1125.01 0.435226 1.82996 0
M  V30 11535 O 1124.36 -0.60889 1.70769 0
M  V30 11536 C 1124.41 2.86784 2.18603 0
M  V30 11537 O 1123.52 2.53662 3.25161 0
M  V30 11538 H 1122.86 0.571455 0.338135 0
M  V30 11539 H 1125.39 1.99475 0.45508 0
M  V30 11540 H 1125.4 3.12239 2.62622 0
M  V30 11541 H 1124.07 3.79872 1.69322 0
M  V30 11542 H 1122.65 2.38942 2.86289 0
M  V30 11543 N 1124.83 -0.648732 1.43629 0
M  V30 11544 C 1126.08 -1.41066 1.45699 0
M  V30 11545 C 1126.41 -1.94024 0.082612 0
M  V30 11546 O 1125.69 -1.7257 -0.897207 0
M  V30 11547 C 1125.97 -2.58882 2.50304 0
M  V30 11548 C 1125.82 -2.11387 3.97033 0
M  V30 11549 C 1127.14 -3.61092 2.51597 0
M  V30 11550 H 1124.26 -0.511591 0.530512 0
M  V30 11551 H 1126.9 -0.735069 1.75205 0
M  V30 11552 H 1125.05 -3.16518 2.25274 0
M  V30 11553 H 1126.73 -1.58718 4.33136 0
M  V30 11554 H 1124.97 -1.4272 4.0965 0
M  V30 11555 H 1125.64 -2.96129 4.65845 0
M  V30 11556 H 1128.12 -3.13223 2.73917 0
M  V30 11557 H 1126.99 -4.41071 3.26722 0
M  V30 11558 H 1127.25 -4.13985 1.55141 0
M  V30 11559 N 1126.31 -1.30234 -0.887518 0
M  V30 11560 C 1127.59 -1.09572 -1.62029 0
M  V30 11561 C 1127.97 0.355877 -2.08079 0
M  V30 11562 O 1127.32 1.34692 -1.84582 0
M  V30 11563 C 1127.53 -2.0943 -2.79177 0
M  V30 11564 C 1128.88 -2.4101 -3.4957 0
M  V30 11565 O 1129.9 -2.0772 -2.89363 0
M  V30 11566 O 1128.76 -2.97943 -4.5814 0
M  V30 11567 H 1125.85 -0.420648 -0.712028 0
M  V30 11568 H 1128.4 -1.41651 -0.934517 0
M  V30 11569 H 1127.17 -3.07149 -2.42436 0
M  V30 11570 H 1126.79 -1.78154 -3.55453 0
M  V30 11571 N 1127.79 1.09952 -1.12909 0
M  V30 11572 C 1129.04 1.81657 -0.885729 0
M  V30 11573 C 1129.36 1.85863 0.589913 0
M  V30 11574 O 1128.63 1.34028 1.42875 0
M  V30 11575 H 1127.21 0.672743 -0.324694 0
M  V30 11576 H 1129.87 1.33013 -1.42456 0
M  V30 11577 H 1128.97 2.85018 -1.27167 0
M  V30 11578 N 1129.27 0.921757 1.27833 0
M  V30 11579 C 1130.5 0.574368 1.98455 0
M  V30 11580 C 1130.91 -0.850577 1.69002 0
M  V30 11581 O 1130.25 -1.57607 0.943708 0
M  V30 11582 C 1130.31 0.713235 3.52354 0
M  V30 11583 C 1129.98 2.1092 4.05415 0
M  V30 11584 C 1130.97 3.08276 4.18643 0
M  V30 11585 C 1128.66 2.42454 4.3991 0
M  V30 11586 C 1130.65 4.35279 4.6563 0
M  V30 11587 C 1128.34 3.69694 4.8659 0
M  V30 11588 C 1129.34 4.6592 4.99407 0
M  V30 11589 O 1129.02 5.90896 5.45066 0
M  V30 11590 H 1128.76 0.216955 0.640239 0
M  V30 11591 H 1131.31 1.23932 1.63798 0
M  V30 11592 H 1129.54 -0.00881115 3.86699 0
M  V30 11593 H 1131.23 0.371776 4.04194 0
M  V30 11594 H 1132 2.85234 3.92258 0
M  V30 11595 H 1127.87 1.68303 4.2918 0
M  V30 11596 H 1131.42 5.10391 4.75549 0
M  V30 11597 H 1127.32 3.92557 5.12415 0
M  V30 11598 H 1128.08 5.938 5.63333 0
M  V30 11599 N 1130.75 -1.41857 0.686609 0
M  V30 11600 C 1131.97 -2.06219 0.221037 0
M  V30 11601 C 1132.4 -1.51298 -1.11762 0
M  V30 11602 O 1131.75 -0.636253 -1.69769 0
M  V30 11603 C 1131.8 -3.60153 0.179425 0
M  V30 11604 O 1130.91 -4.03577 -0.848481 0
M  V30 11605 H 1130.25 -0.654787 0.110228 0
M  V30 11606 H 1132.78 -1.81783 0.938948 0
M  V30 11607 H 1132.79 -4.07999 0.00725332 0
M  V30 11608 H 1131.46 -3.99498 1.15647 0
M  V30 11609 H 1130.04 -3.67255 -0.646393 0
M  V30 11610 N 1132.22 -0.430739 -1.51599 0
M  V30 11611 C 1133.13 0.390347 -2.3133 0
M  V30 11612 C 1134.15 1.03376 -1.39962 0
M  V30 11613 O 1135.33 1.03057 -1.73035 0
M  V30 11614 C 1132.39 1.48039 -3.13505 0
M  V30 11615 C 1131.45 0.857792 -4.20643 0
M  V30 11616 C 1130.69 1.89589 -4.9889 0
M  V30 11617 O 1130.91 3.11717 -4.77691 0
M  V30 11618 O 1129.84 1.49009 -5.83164 0
M  V30 11619 H 1133.67 -0.260358 -3.02582 0
M  V30 11620 H 1131.25 -0.193428 -1.48143 0
M  V30 11621 H 1133.14 2.11272 -3.64612 0
M  V30 11622 H 1131.81 2.1153 -2.45024 0
M  V30 11623 H 1130.72 0.187592 -3.73629 0
M  V30 11624 H 1132.05 0.266474 -4.91478 0
M  V30 11625 N 1133.7 1.56767 -0.161869 0
M  V30 11626 C 1134.65 2.17502 0.772102 0
M  V30 11627 C 1135.62 1.11223 1.23364 0
M  V30 11628 O 1136.8 1.39332 1.30351 0
M  V30 11629 C 1133.94 2.81248 1.99984 0
M  V30 11630 C 1133.06 4.01962 1.58274 0
M  V30 11631 C 1132.19 4.53662 2.76341 0
M  V30 11632 C 1131.23 5.66807 2.31076 0
M  V30 11633 N 1130.37 6.13059 3.42203 0
M  V30 11634 H 1135.21 2.96971 0.247382 0
M  V30 11635 H 1132.75 1.46685 0.110382 0
M  V30 11636 H 1134.7 3.16359 2.7198 0
M  V30 11637 H 1133.33 2.04398 2.49842 0
M  V30 11638 H 1132.39 3.72733 0.759874 0
M  V30 11639 H 1133.7 4.83891 1.2104 0
M  V30 11640 H 1132.85 4.90905 3.56507 0
M  V30 11641 H 1131.59 3.7077 3.16829 0
M  V30 11642 H 1130.6 5.29125 1.49354 0
M  V30 11643 H 1131.82 6.51494 1.91657 0
M  V30 11644 H 1129.77 5.33099 3.82285 0
M  V30 11645 H 1129.68 6.89953 3.09033 0
M  V30 11646 H 1130.95 6.54951 4.22682 0
M  V30 11647 N 1135.18 -0.111886 1.57202 0
M  V30 11648 C 1136.42 -0.82422 1.87045 0
M  V30 11649 C 1136.78 -1.76713 0.750765 0
M  V30 11650 O 1137.99 -2.52157 0.931154 0
M  V30 11651 C 1136.26 -1.5483 3.22122 0
M  V30 11652 S 1137.82 -2.30123 3.73616 0
M  V30 11653 H 1134.63 -0.274945 0.655687 0
M  V30 11654 H 1137.24 -0.0821899 1.95327 0
M  V30 11655 H 1135.94 -0.847704 4.0155 0
M  V30 11656 H 1135.47 -2.33056 3.16936 0
M  V30 11657 H 1137.49 -3.5597 3.45687 0
M  V30 11658 N 1136.66 -1.52894 -0.382264 0
M  V30 11659 C 1137.9 -1.68515 -1.12829 0
M  V30 11660 C 1138.24 -0.427211 -1.89443 0
M  V30 11661 O 1137.51 0.57516 -1.85801 0
M  V30 11662 C 1137.8 -2.92449 -2.10108 0
M  V30 11663 C 1137.65 -4.2836 -1.37214 0
M  V30 11664 C 1138.97 -3.11944 -3.1045 0
M  V30 11665 H 1136.09 -0.613223 -0.408811 0
M  V30 11666 H 1138.73 -1.85503 -0.410921 0
M  V30 11667 H 1136.88 -2.78097 -2.71283 0
M  V30 11668 H 1138.55 -4.54493 -0.789516 0
M  V30 11669 H 1136.79 -4.28532 -0.673973 0
M  V30 11670 H 1137.46 -5.11178 -2.0833 0
M  V30 11671 H 1139.94 -3.25372 -2.59369 0
M  V30 11672 H 1138.82 -4.00125 -3.75754 0
M  V30 11673 H 1139.08 -2.26465 -3.79692 0
M  V30 11674 N 1138.14 0.641106 -1.43971 0
M  V30 11675 C 1139.07 1.76599 -1.44527 0
M  V30 11676 C 1140.05 1.59709 -0.305257 0
M  V30 11677 O 1141.23 1.81728 -0.50071 0
M  V30 11678 C 1138.36 3.14052 -1.26843 0
M  V30 11679 C 1137.41 3.49615 -2.44278 0
M  V30 11680 S 1138.24 3.4822 -4.06821 0
M  V30 11681 C 1139.39 4.8831 -3.91541 0
M  V30 11682 H 1139.63 1.75858 -2.3971 0
M  V30 11683 H 1137.16 0.814834 -1.31148 0
M  V30 11684 H 1139.12 3.93376 -1.17327 0
M  V30 11685 H 1137.78 3.12342 -0.331872 0
M  V30 11686 H 1136.97 4.49611 -2.2774 0
M  V30 11687 H 1136.57 2.77732 -2.50482 0
M  V30 11688 H 1138.87 5.77282 -3.54615 0
M  V30 11689 H 1139.81 5.099 -4.91333 0
M  V30 11690 H 1140.22 4.62414 -3.2378 0
M  V30 11691 N 1139.62 1.30703 0.880598 0
M  V30 11692 C 1140.56 1.17369 2.00817 0
M  V30 11693 C 1141.56 0.0845159 1.69189 0
M  V30 11694 O 1142.76 0.245673 1.78316 0
M  V30 11695 H 1139.14 0.363107 0.658527 0
M  V30 11696 H 1141.11 2.12789 2.09197 0
M  V30 11697 C 1139.86 0.886851 3.362 0
M  V30 11698 H 1139.18 1.71704 3.61051 0
M  V30 11699 H 1140.62 0.83368 4.15723 0
M  V30 11700 C 1139.08 -0.410293 3.34392 0
M  V30 11701 O 1139.61 -1.43044 3.75368 0
M  V30 11702 N 1137.82 -0.423023 2.87505 0
M  V30 11703 H 1137.36 0.407637 2.54354 0
M  V30 11704 H 1137.32 -1.29086 2.86678 0
M  V30 11705 N 1141.09 -1.09351 1.1349 0
M  V30 11706 C 1142.04 -2.18099 0.808426 0
M  V30 11707 C 1143.04 -1.68099 -0.209571 0
M  V30 11708 O 1144.24 -1.79877 -0.0666417 0
M  V30 11709 H 1140.62 -0.711432 0.243658 0
M  V30 11710 H 1142.59 -2.42867 1.73373 0
M  V30 11711 C 1141.34 -3.46475 0.291615 0
M  V30 11712 H 1140.66 -3.85319 1.06627 0
M  V30 11713 H 1142.1 -4.23878 0.101616 0
M  V30 11714 C 1140.56 -3.22245 -0.982827 0
M  V30 11715 O 1141.09 -3.44947 -2.0585 0
M  V30 11716 N 1139.29 -2.75845 -0.914218 0
M  V30 11717 H 1138.84 -2.57571 -0.03872 0
M  V30 11718 H 1138.8 -2.60011 -1.76753 0
M  V30 11719 N 1142.57 -0.928524 -1.27343 0
M  V30 11720 C 1143.8 -0.584884 -1.98148 0
M  V30 11721 C 1144.21 0.841603 -1.69451 0
M  V30 11722 O 1143.55 1.57104 -0.952053 0
M  V30 11723 C 1143.61 -0.731911 -3.51971 0
M  V30 11724 C 1143.28 -2.13067 -4.04291 0
M  V30 11725 C 1144.28 -3.10492 -4.17002 0
M  V30 11726 C 1141.96 -2.44784 -4.38619 0
M  V30 11727 C 1143.95 -4.37742 -4.63315 0
M  V30 11728 C 1141.64 -3.72269 -4.84622 0
M  V30 11729 C 1142.64 -4.68562 -4.9693 0
M  V30 11730 O 1142.33 -5.93779 -5.41924 0
M  V30 11731 H 1142.06 -0.220347 -0.63908 0
M  V30 11732 H 1144.61 -1.24799 -1.63139 0
M  V30 11733 H 1142.84 -0.0116966 -3.86698 0
M  V30 11734 H 1144.53 -0.393206 -4.03991 0
M  V30 11735 H 1145.3 -2.8731 -3.9074 0
M  V30 11736 H 1141.18 -1.70577 -4.28281 0
M  V30 11737 H 1144.72 -5.12905 -4.72836 0
M  V30 11738 H 1140.62 -3.95269 -5.10326 0
M  V30 11739 H 1141.39 -5.96779 -5.60176 0
M  V30 11740 N 1144.05 1.41491 -0.694123 0
M  V30 11741 C 1145.3 2.01252 -0.224477 0
M  V30 11742 C 1145.62 1.54965 1.17541 0
M  V30 11743 O 1144.88 0.751041 1.80715 0
M  V30 11744 C 1145.18 3.56666 -0.228869 0
M  V30 11745 C 1144.84 4.22458 -1.57608 0
M  V30 11746 C 1143.51 4.40144 -1.94491 0
M  V30 11747 C 1145.86 4.5936 -2.46247 0
M  V30 11748 C 1143.19 4.92009 -3.196 0
M  V30 11749 C 1145.54 5.12615 -3.70687 0
M  V30 11750 C 1144.2 5.28512 -4.07715 0
M  V30 11751 H 1143.47 0.736433 -0.0821419 0
M  V30 11752 H 1146.12 1.69408 -0.892926 0
M  V30 11753 H 1144.42 3.88292 0.523128 0
M  V30 11754 H 1146.12 4.00712 0.152019 0
M  V30 11755 H 1142.71 4.09065 -1.27921 0
M  V30 11756 H 1146.9 4.45352 -2.19032 0
M  V30 11757 H 1142.15 5.02502 -3.48285 0
M  V30 11758 H 1146.33 5.4015 -4.39558 0
M  V30 11759 H 1143.95 5.68464 -5.0473 0
M  V30 11760 N 1145.53 0.438773 1.51369 0
M  V30 11761 C 1146.78 -0.126962 2.01701 0
M  V30 11762 C 1147.1 -1.43086 1.32481 0
M  V30 11763 O 1146.37 -1.90427 0.459823 0
M  V30 11764 H 1144.95 -0.0499092 0.745331 0
M  V30 11765 H 1147.61 0.581808 1.86013 0
M  V30 11766 H 1146.7 -0.301836 3.10637 0
M  V30 11767 N 1147.01 -1.56678 0.170181 0
M  V30 11768 C 1148.25 -1.96024 -0.475147 0
M  V30 11769 C 1148.57 -1.0588 -1.64465 0
M  V30 11770 O 1149.77 -1.34901 -2.35614 0
M  V30 11771 C 1148.23 -3.4855 -0.896704 0
M  V30 11772 C 1147.84 -4.47318 0.247142 0
M  V30 11773 C 1149.58 -3.96716 -1.51052 0
M  V30 11774 C 1147.49 -5.91082 -0.193982 0
M  V30 11775 H 1146.42 -0.731883 -0.181282 0
M  V30 11776 H 1149.07 -1.81674 0.25823 0
M  V30 11777 H 1147.45 -3.58314 -1.68603 0
M  V30 11778 H 1148.63 -4.49268 1.02445 0
M  V30 11779 H 1146.94 -4.09203 0.770839 0
M  V30 11780 H 1149.54 -5.01581 -1.85258 0
M  V30 11781 H 1149.88 -3.39588 -2.40802 0
M  V30 11782 H 1150.41 -3.89965 -0.785652 0
M  V30 11783 H 1147.15 -6.5208 0.668714 0
M  V30 11784 H 1146.67 -5.92441 -0.936675 0
M  V30 11785 H 1148.35 -6.43844 -0.638237 0
M  V30 11786 N 1148.48 0.103547 -1.57259 0
M  V30 11787 C 1149.73 0.806979 -1.8529 0
M  V30 11788 C 1150.05 1.79679 -0.757653 0
M  V30 11789 O 1149.32 1.94695 0.216913 0
M  V30 11790 H 1147.9 0.301012 -0.683667 0
M  V30 11791 H 1150.56 0.0871886 -1.94705 0
M  V30 11792 H 1149.66 1.34275 -2.81738 0
M  V30 11793 N 1149.96 1.53094 0.37415 0
M  V30 11794 C 1150.89 1.81901 1.46404 0
M  V30 11795 C 1151.87 0.671949 1.56265 0
M  V30 11796 O 1153.06 0.920978 1.70973 0
M  V30 11797 C 1150.19 2.00123 2.83845 0
M  V30 11798 C 1149.14 3.15864 2.88814 0
M  V30 11799 C 1148.47 3.19364 4.28848 0
M  V30 11800 C 1149.77 4.54633 2.57112 0
M  V30 11801 H 1151.46 2.73172 1.22546 0
M  V30 11802 H 1149.01 1.31444 0.588087 0
M  V30 11803 H 1150.96 2.18859 3.6011 0
M  V30 11804 H 1149.68 1.05555 3.09072 0
M  V30 11805 H 1148.34 2.96935 2.15 0
M  V30 11806 H 1147.99 2.2245 4.51137 0
M  V30 11807 H 1147.69 3.97123 4.3309 0
M  V30 11808 H 1149.22 3.40273 5.06997 0
M  V30 11809 H 1150.63 4.73587 3.23091 0
M  V30 11810 H 1149.03 5.34569 2.72683 0
M  V30 11811 H 1150.1 4.60331 1.52392 0
M  V30 11812 N 1151.44 -0.633461 1.44309 0
M  V30 11813 C 1152.72 -1.3917 1.37444 0
M  V30 11814 C 1153.1 -2.11076 0.0319994 0
M  V30 11815 O 1152.44 -2.06164 -0.98533 0
M  V30 11816 C 1152.65 -2.36005 2.57104 0
M  V30 11817 C 1154 -2.99407 3.01065 0
M  V30 11818 O 1155.03 -2.46331 2.57292 0
M  V30 11819 O 1153.89 -3.95686 3.76954 0
M  V30 11820 H 1150.98 -0.622746 0.544166 0
M  V30 11821 H 1153.53 -0.658712 1.56394 0
M  V30 11822 H 1152.3 -1.81955 3.46422 0
M  V30 11823 H 1151.92 -3.16725 2.40356 0
M  V30 11824 N 1152.92 -1.31168 -0.873655 0
M  V30 11825 C 1153.88 -1.18471 -1.96207 0
M  V30 11826 C 1154.88 -0.112814 -1.60404 0
M  V30 11827 O 1156.07 -0.3618 -1.70401 0
M  V30 11828 C 1153.2 -0.817662 -3.30949 0
M  V30 11829 H 1154.4 -2.1518 -2.08896 0
M  V30 11830 H 1151.95 -1.14727 -1.06149 0
M  V30 11831 H 1152.68 0.148428 -3.2396 0
M  V30 11832 H 1152.47 -1.59244 -3.58307 0
M  V30 11833 H 1153.96 -0.75262 -4.10762 0
M  V30 11834 N 1154.4 1.08748 -1.14068 0
M  V30 11835 C 1155.34 2.15573 -0.824425 0
M  V30 11836 C 1156.31 1.64683 0.216522 0
M  V30 11837 O 1157.5 1.90601 0.0872193 0
M  V30 11838 C 1154.64 3.43756 -0.30423 0
M  V30 11839 C 1153.75 4.08512 -1.40506 0
M  V30 11840 C 1152.89 5.24477 -0.842479 0
M  V30 11841 C 1151.93 5.81167 -1.92123 0
M  V30 11842 N 1151.06 6.88483 -1.37608 0
M  V30 11843 H 1155.9 2.41968 -1.73941 0
M  V30 11844 H 1153.44 1.18751 -0.868143 0
M  V30 11845 H 1155.4 4.17197 0.0155546 0
M  V30 11846 H 1154.03 3.17658 0.573868 0
M  V30 11847 H 1153.08 3.32866 -1.84131 0
M  V30 11848 H 1154.39 4.46669 -2.2201 0
M  V30 11849 H 1153.55 6.04842 -0.474389 0
M  V30 11850 H 1152.28 4.877 0.00355212 0
M  V30 11851 H 1151.29 4.99458 -2.29831 0
M  V30 11852 H 1152.51 6.20003 -2.77079 0
M  V30 11853 H 1150.46 6.53672 -0.552168 0
M  V30 11854 H 1150.38 7.25446 -2.12752 0
M  V30 11855 H 1151.65 7.72588 -1.03578 0
M  V30 11856 N 1155.87 0.935264 1.26849 0
M  V30 11857 C 1157.12 0.575467 1.93317 0
M  V30 11858 C 1157.44 -0.88876 1.74242 0
M  V30 11859 O 1158.64 -1.35767 2.35116 0
M  V30 11860 C 1157.1 0.978433 3.46345 0
M  V30 11861 C 1156.71 2.46386 3.74163 0
M  V30 11862 C 1158.45 0.690249 4.18851 0
M  V30 11863 C 1156.36 2.80584 5.20602 0
M  V30 11864 H 1155.29 0.211506 0.723727 0
M  V30 11865 H 1157.94 1.1371 1.44022 0
M  V30 11866 H 1156.32 0.345379 3.94491 0
M  V30 11867 H 1157.49 3.14547 3.36745 0
M  V30 11868 H 1155.81 2.72473 3.14877 0
M  V30 11869 H 1158.41 0.922151 5.26688 0
M  V30 11870 H 1158.75 -0.372805 4.14627 0
M  V30 11871 H 1159.28 1.28275 3.76551 0
M  V30 11872 H 1156.02 3.85828 5.29921 0
M  V30 11873 H 1155.54 2.1708 5.59139 0
M  V30 11874 H 1157.22 2.68732 5.88551 0
M  V30 11875 N 1157.35 -1.41121 0.701616 0
M  V30 11876 C 1158.58 -2.05973 0.242896 0
M  V30 11877 C 1159 -1.52474 -1.10151 0
M  V30 11878 O 1158.36 -0.654224 -1.69085 0
M  V30 11879 C 1158.41 -3.59943 0.217614 0
M  V30 11880 O 1157.51 -4.04454 -0.805629 0
M  V30 11881 H 1156.85 -0.653581 0.117166 0
M  V30 11882 H 1159.38 -1.80777 0.958175 0
M  V30 11883 H 1159.39 -4.07969 0.0505267 0
M  V30 11884 H 1158.07 -3.98249 1.19877 0
M  V30 11885 H 1156.65 -3.6792 -0.607404 0
M  V30 11886 N 1158.83 -0.446794 -1.51134 0
M  V30 11887 C 1159.76 0.350229 -2.30858 0
M  V30 11888 C 1160.74 1.0125 -1.36684 0
M  V30 11889 O 1161.93 1.01433 -1.65605 0
M  V30 11890 C 1159.06 1.4464 -3.15748 0
M  V30 11891 C 1158.01 0.907102 -4.18277 0
M  V30 11892 C 1157.34 2.09974 -4.91747 0
M  V30 11893 C 1158.64 -0.0649758 -5.2226 0
M  V30 11894 H 1160.33 -0.315105 -2.97737 0
M  V30 11895 H 1157.88 -0.152985 -1.43185 0
M  V30 11896 H 1159.83 2.01127 -3.70305 0
M  V30 11897 H 1158.55 2.14016 -2.46708 0
M  V30 11898 H 1157.21 0.364382 -3.64785 0
M  V30 11899 H 1156.86 2.77991 -4.19202 0
M  V30 11900 H 1156.56 1.74523 -5.61084 0
M  V30 11901 H 1158.08 2.66996 -5.49131 0
M  V30 11902 H 1159.5 0.4099 -5.71833 0
M  V30 11903 H 1157.9 -0.332529 -5.99178 0
M  V30 11904 H 1158.97 -0.998681 -4.74504 0
M  V30 11905 N 1160.31 1.56586 -0.178487 0
M  V30 11906 C 1161.22 2.21903 0.761321 0
M  V30 11907 C 1162.23 1.21289 1.2476 0
M  V30 11908 O 1163.41 1.53974 1.29823 0
M  V30 11909 C 1160.48 2.85259 1.97048 0
M  V30 11910 C 1159.54 4.01095 1.53039 0
M  V30 11911 C 1158.77 4.61421 2.68191 0
M  V30 11912 O 1158.99 4.20644 3.85247 0
M  V30 11913 O 1157.93 5.51171 2.41855 0
M  V30 11914 H 1161.75 3.02788 0.235141 0
M  V30 11915 H 1159.34 1.49316 0.0500442 0
M  V30 11916 H 1161.22 3.25404 2.6775 0
M  V30 11917 H 1159.89 2.07366 2.48558 0
M  V30 11918 H 1158.8 3.65606 0.792661 0
M  V30 11919 H 1160.13 4.80603 1.06213 0
M  V30 11920 N 1161.79 -0.095206 1.57312 0
M  V30 11921 C 1163.03 -0.798719 1.86083 0
M  V30 11922 C 1163.36 -1.78739 0.766991 0
M  V30 11923 O 1162.62 -1.9423 -0.239425 0
M  V30 11924 C 1162.92 -1.56244 3.21438 0
M  V30 11925 C 1162.58 -0.715903 4.4518 0
M  V30 11926 C 1161.24 -0.482537 4.78774 0
M  V30 11927 C 1163.6 -0.127404 5.21044 0
M  V30 11928 C 1160.92 0.349193 5.8566 0
M  V30 11929 C 1163.28 0.691649 6.28808 0
M  V30 11930 C 1161.94 0.935107 6.60918 0
M  V30 11931 H 1161.21 -0.292272 0.680924 0
M  V30 11932 H 1163.86 -0.0602105 1.91405 0
M  V30 11933 H 1162.16 -2.37251 3.118 0
M  V30 11934 H 1163.86 -2.11116 3.40927 0
M  V30 11935 H 1160.45 -0.907902 4.18874 0
M  V30 11936 H 1164.63 -0.29486 4.95423 0
M  V30 11937 H 1159.89 0.546797 6.0895 0
M  V30 11938 H 1164.06 1.15452 6.86763 0
M  V30 11939 H 1161.69 1.58139 7.4357 0
M  V30 11940 N 1163.26 -1.53291 -0.366026 0
M  V30 11941 C 1164.21 -1.80367 -1.4687 0
M  V30 11942 C 1165.21 -0.672767 -1.55468 0
M  V30 11943 O 1166.41 -0.8557 -1.5836 0
M  V30 11944 H 1162.79 -0.571076 -0.48926 0
M  V30 11945 H 1164.76 -2.72661 -1.21237 0
M  V30 11946 C 1163.51 -2.01008 -2.8371 0
M  V30 11947 H 1162.83 -2.87468 -2.77853 0
M  V30 11948 H 1164.27 -2.2393 -3.60043 0
M  V30 11949 C 1162.73 -0.789054 -3.27529 0
M  V30 11950 O 1163.26 0.0224712 -4.01694 0
M  V30 11951 N 1161.47 -0.612621 -2.84069 0
M  V30 11952 H 1161.01 -1.27416 -2.23881 0
M  V30 11953 H 1160.97 0.202943 -3.13744 0
M  V30 11954 N 1164.74 0.6258 -1.44643 0
M  V30 11955 C 1165.69 1.75869 -1.52226 0
M  V30 11956 C 1166.68 1.64765 -0.39355 0
M  V30 11957 O 1167.89 1.70779 -0.568718 0
M  V30 11958 H 1164.27 0.580712 -0.477784 0
M  V30 11959 H 1166.24 1.66596 -2.47565 0
M  V30 11960 C 1164.99 3.14217 -1.48873 0
M  V30 11961 H 1164.31 3.23411 -2.35043 0
M  V30 11962 H 1165.75 3.93365 -1.58239 0
M  V30 11963 C 1164.21 3.36243 -0.210299 0
M  V30 11964 O 1164.74 3.95243 0.717335 0
M  V30 11965 N 1162.94 2.90385 -0.111744 0
M  V30 11966 H 1162.49 2.42555 -0.867466 0
M  V30 11967 H 1162.45 3.05498 0.742871 0
M  V30 11968 N 1166.22 1.31629 0.866686 0
M  V30 11969 C 1167.17 1.19556 1.97421 0
M  V30 11970 C 1168.14 0.0805578 1.65905 0
M  V30 11971 O 1169.32 0.253997 1.89102 0
M  V30 11972 C 1166.46 0.912234 3.32825 0
M  V30 11973 C 1165.58 2.11088 3.76916 0
M  V30 11974 C 1164.71 1.76406 5.01053 0
M  V30 11975 C 1163.75 2.9266 5.37602 0
M  V30 11976 N 1162.89 2.58152 6.52918 0
M  V30 11977 H 1167.73 2.14294 2.0708 0
M  V30 11978 H 1165.26 1.06595 1.0137 0
M  V30 11979 H 1167.22 0.72851 4.1079 0
M  V30 11980 H 1165.85 0.00167404 3.228 0
M  V30 11981 H 1164.9 2.40527 2.94705 0
M  V30 11982 H 1166.22 2.98089 3.99931 0
M  V30 11983 H 1165.37 1.54515 5.86694 0
M  V30 11984 H 1164.11 0.866018 4.79949 0
M  V30 11985 H 1163.11 3.15196 4.50479 0
M  V30 11986 H 1164.34 3.83179 5.6067 0
M  V30 11987 H 1162.28 1.70874 6.33355 0
M  V30 11988 H 1162.2 3.38682 6.75892 0
M  V30 11989 H 1163.47 2.39662 7.41743 0
M  V30 11990 N 1167.7 -1.08142 1.14644 0
M  V30 11991 C 1169.12 -1.32656 0.887388 0
M  V30 11992 C 1169.32 -1.95942 -0.470012 0
M  V30 11993 O 1168.37 -2.21417 -1.21371 0
M  V30 11994 C 1169.68 -2.22549 2.02219 0
M  V30 11995 C 1171.23 -2.36021 2.0558 0
M  V30 11996 C 1171.71 -3.29257 3.18361 0
M  V30 11997 N 1173.2 -3.36835 3.17957 0
M  V30 11998 C 1173.93 -4.09017 4.01862 0
M  V30 11999 N 1173.43 -4.83882 4.95812 0
M  V30 12000 N 1175.22 -4.04875 3.89913 0
M  V30 12001 H 1167.37 -0.654457 2.02066 0
M  V30 12002 H 1169.64 -0.350947 0.880648 0
M  V30 12003 H 1169.34 -1.83296 3.00159 0
M  V30 12004 H 1169.22 -3.23027 1.94765 0
M  V30 12005 H 1171.6 -2.74531 1.08245 0
M  V30 12006 H 1171.68 -1.35275 2.17105 0
M  V30 12007 H 1171.33 -2.91468 4.15944 0
M  V30 12008 H 1171.26 -4.29938 3.04074 0
M  V30 12009 H 1173.75 -2.83465 2.49912 0
M  V30 12010 H 1174.06 -5.3643 5.56294 0
M  V30 12011 H 1172.41 -4.82926 4.99808 0
M  V30 12012 H 1175.6 -3.45496 3.15833 0
M  V30 12013 H 1175.77 -4.60866 4.55529 0
M  V30 12014 N 1169.18 -0.941978 -1.26351 0
M  V30 12015 C 1170.09 -0.45833 -2.30079 0
M  V30 12016 C 1171.1 0.468084 -1.67586 0
M  V30 12017 O 1172.28 0.347418 -1.98381 0
M  V30 12018 C 1169.34 0.26797 -3.45663 0
M  V30 12019 C 1168.41 -0.695102 -4.23635 0
M  V30 12020 C 1167.64 -0.003369 -5.337 0
M  V30 12021 O 1167.86 1.21342 -5.57344 0
M  V30 12022 O 1166.8 -0.682476 -5.98018 0
M  V30 12023 H 1170.62 -1.31998 -2.73514 0
M  V30 12024 H 1168.21 -0.707897 -1.31564 0
M  V30 12025 H 1170.09 0.677061 -4.15925 0
M  V30 12026 H 1168.76 1.105 -3.04256 0
M  V30 12027 H 1167.67 -1.15415 -3.55851 0
M  V30 12028 H 1169 -1.49977 -4.68794 0
M  V30 12029 N 1170.66 1.40747 -0.709091 0
M  V30 12030 C 1171.57 2.3454 -0.0532205 0
M  V30 12031 C 1172.58 1.56956 0.751057 0
M  V30 12032 O 1173.76 1.89375 0.685509 0
M  V30 12033 C 1170.82 3.35809 0.862157 0
M  V30 12034 C 1169.88 4.29273 0.0485632 0
M  V30 12035 C 1169.12 5.25705 0.920345 0
M  V30 12036 O 1169.34 5.27933 2.15969 0
M  V30 12037 O 1168.27 6.00806 0.3628 0
M  V30 12038 H 1172.1 2.92232 -0.826698 0
M  V30 12039 H 1169.68 1.4183 -0.469519 0
M  V30 12040 H 1171.57 3.97931 1.38668 0
M  V30 12041 H 1170.24 2.8054 1.61489 0
M  V30 12042 H 1169.15 3.70456 -0.520873 0
M  V30 12043 H 1170.48 4.87676 -0.665807 0
M  V30 12044 N 1172.13 0.454803 1.50895 0
M  V30 12045 C 1173.08 -0.366073 2.25042 0
M  V30 12046 C 1174.07 -0.975353 1.27967 0
M  V30 12047 O 1175.26 -0.8906 1.52962 0
M  V30 12048 C 1172.39 -1.45683 3.10856 0
M  V30 12049 C 1171.47 -0.856086 4.1537 0
M  V30 12050 N 1171.87 0.0138787 5.05798 0
M  V30 12051 C 1170.16 -1.1218 4.31661 0
M  V30 12052 C 1170.86 0.35313 5.80627 0
M  V30 12053 N 1169.84 -0.267648 5.42941 0
M  V30 12054 H 1173.64 0.304357 2.9232 0
M  V30 12055 H 1171.16 0.267937 1.60174 0
M  V30 12056 H 1173.15 -2.05793 3.62567 0
M  V30 12057 H 1171.81 -2.12942 2.45124 0
M  V30 12058 H 1172.82 0.381574 5.16492 0
M  V30 12059 H 1169.5 -1.79059 3.77153 0
M  V30 12060 H 1170.89 1.06213 6.63452 0
M  V30 12061 N 1173.61 -1.56489 0.186789 0
M  V30 12062 C 1175.02 -1.83809 -0.327265 0
M  V30 12063 C 1175.37 -1.10718 -1.61976 0
M  V30 12064 O 1174.5 -0.36525 -2.13295 0
M  V30 12065 C 1175.09 -3.33435 -0.600551 0
M  V30 12066 C 1173.65 -3.61195 -1.059 0
M  V30 12067 C 1172.8 -2.77108 -0.103131 0
M  V30 12068 H 1175.75 -1.53292 0.410747 0
M  V30 12069 H 1175.77 -3.51754 -1.45084 0
M  V30 12070 H 1175.28 -3.86605 0.340315 0
M  V30 12071 H 1173.38 -3.13451 -2.01443 0
M  V30 12072 H 1173.5 -4.69435 -0.957458 0
M  V30 12073 H 1171.86 -2.47448 -0.603449 0
M  V30 12074 H 1172.64 -3.33065 0.832031 0
M  V30 12075 N 1175.09 0.086862 -1.5736 0
M  V30 12076 C 1176 1.12297 -2.05977 0
M  V30 12077 C 1177.02 1.43347 -0.986284 0
M  V30 12078 O 1178.19 1.53825 -1.3 0
M  V30 12079 C 1175.26 2.42131 -2.4814 0
M  V30 12080 C 1174.32 2.18189 -3.69719 0
M  V30 12081 C 1173.55 3.41833 -4.09861 0
M  V30 12082 O 1173.77 4.50383 -3.50016 0
M  V30 12083 O 1172.71 3.30934 -5.02759 0
M  V30 12084 H 1176.53 0.740012 -2.94546 0
M  V30 12085 H 1174.12 0.29995 -1.46358 0
M  V30 12086 H 1176 3.18568 -2.75848 0
M  V30 12087 H 1174.68 2.79837 -1.62705 0
M  V30 12088 H 1173.58 1.39506 -3.47115 0
M  V30 12089 H 1174.92 1.85372 -4.55959 0
M  V30 12090 N 1176.57 1.53483 0.357892 0
M  V30 12091 C 1177.51 1.80463 1.43881 0
M  V30 12092 C 1178.48 0.649438 1.52877 0
M  V30 12093 O 1179.67 0.892409 1.68644 0
M  V30 12094 C 1176.81 2.00714 2.80727 0
M  V30 12095 C 1175.92 3.28431 2.80637 0
M  V30 12096 C 1175.06 3.38828 4.09107 0
M  V30 12097 C 1174.1 4.60549 4.03189 0
M  V30 12098 N 1173.23 4.68057 5.23323 0
M  V30 12099 H 1178.07 2.72694 1.20174 0
M  V30 12100 H 1175.61 1.35079 0.582422 0
M  V30 12101 H 1177.57 2.10444 3.60235 0
M  V30 12102 H 1176.2 1.11811 3.02817 0
M  V30 12103 H 1175.25 3.27617 1.93317 0
M  V30 12104 H 1176.56 4.18022 2.72138 0
M  V30 12105 H 1175.72 3.47911 4.97034 0
M  V30 12106 H 1174.46 2.47267 4.20369 0
M  V30 12107 H 1173.46 4.51558 3.13649 0
M  V30 12108 H 1174.69 5.53459 3.93523 0
M  V30 12109 H 1172.63 3.794 5.35156 0
M  V30 12110 H 1172.55 5.51563 5.17024 0
M  V30 12111 H 1173.82 4.81433 6.1306 0
M  V30 12112 N 1178.05 -0.61812 1.44973 0
M  V30 12113 C 1179.29 -1.38882 1.4997 0
M  V30 12114 C 1179.65 -1.91533 0.133841 0
M  V30 12115 O 1180.85 -2.68736 0.0585012 0
M  V30 12116 C 1179.12 -2.5136 2.54073 0
M  V30 12117 S 1180.68 -3.39324 2.78216 0
M  V30 12118 H 1177.5 -0.473631 0.530278 0
M  V30 12119 H 1180.1 -0.714299 1.81984 0
M  V30 12120 H 1178.8 -2.11012 3.51997 0
M  V30 12121 H 1178.34 -3.23625 2.23675 0
M  V30 12122 H 1180.35 -4.49198 2.10797 0
M  V30 12123 N 1179.52 -1.32087 -0.859693 0
M  V30 12124 C 1180.94 -1.10968 -1.14709 0
M  V30 12125 C 1181.14 0.113139 -2.01182 0
M  V30 12126 O 1180.2 0.799499 -2.39508 0
M  V30 12127 C 1181.51 -2.38657 -1.8293 0
M  V30 12128 C 1183.06 -2.44366 -1.95587 0
M  V30 12129 C 1183.53 -3.71963 -2.67222 0
M  V30 12130 N 1185.02 -3.72916 -2.7475 0
M  V30 12131 C 1185.76 -4.68346 -3.30816 0
M  V30 12132 N 1185.25 -5.74139 -3.87732 0
M  V30 12133 N 1187.05 -4.55851 -3.28872 0
M  V30 12134 H 1179.2 -2.10497 -0.283711 0
M  V30 12135 H 1181.46 -0.929108 -0.188315 0
M  V30 12136 H 1181.17 -3.2803 -1.26844 0
M  V30 12137 H 1181.04 -2.49236 -2.83128 0
M  V30 12138 H 1183.43 -1.55456 -2.50833 0
M  V30 12139 H 1183.51 -2.37744 -0.944001 0
M  V30 12140 H 1183.15 -4.61245 -2.1264 0
M  V30 12141 H 1183.08 -3.75855 -3.68837 0
M  V30 12142 H 1185.57 -2.96447 -2.34367 0
M  V30 12143 H 1185.89 -6.43021 -4.28654 0
M  V30 12144 H 1184.23 -5.779 -3.86078 0
M  V30 12145 H 1187.42 -3.72371 -2.83651 0
M  V30 12146 H 1187.6 -5.30398 -3.72266 0
M  V30 12147 N 1181 1.07532 -1.15215 0
M  V30 12148 C 1182.23 1.84356 -0.950139 0
M  V30 12149 C 1182.65 1.81429 0.496502 0
M  V30 12150 O 1182.01 1.20589 1.35381 0
M  V30 12151 C 1182.06 3.29425 -1.46669 0
M  V30 12152 O 1181.16 4.07008 -0.664674 0
M  V30 12153 H 1180.5 0.570921 -0.339036 0
M  V30 12154 H 1183.03 1.35665 -1.53154 0
M  V30 12155 H 1183.04 3.8026 -1.47873 0
M  V30 12156 H 1181.72 3.3087 -2.51988 0
M  V30 12157 H 1180.29 3.65841 -0.72211 0
M  V30 12158 N 1182.48 0.948665 1.2585 0
M  V30 12159 C 1183.9 0.652147 1.45668 0
M  V30 12160 C 1184.1 -0.792217 1.85273 0
M  V30 12161 O 1183.15 -1.56812 1.97905 0
M  V30 12162 C 1184.47 1.61998 2.53332 0
M  V30 12163 C 1186.01 1.6305 2.67178 0
M  V30 12164 C 1186.49 2.58582 3.78021 0
M  V30 12165 N 1187.98 2.56911 3.85423 0
M  V30 12166 C 1188.71 3.27511 4.70664 0
M  V30 12167 N 1188.21 4.07563 5.60236 0
M  V30 12168 N 1190 3.16427 4.64576 0
M  V30 12169 H 1182.15 1.88215 0.984325 0
M  V30 12170 H 1184.42 0.809251 0.493778 0
M  V30 12171 H 1184.12 2.65137 2.31075 0
M  V30 12172 H 1184 1.37784 3.51134 0
M  V30 12173 H 1186.38 0.606315 2.88804 0
M  V30 12174 H 1186.47 1.9132 1.69795 0
M  V30 12175 H 1186.11 3.61122 3.57146 0
M  V30 12176 H 1186.04 2.27598 4.74875 0
M  V30 12177 H 1188.53 1.9879 3.21389 0
M  V30 12178 H 1188.84 4.58367 6.22189 0
M  V30 12179 H 1187.19 4.11662 5.59964 0
M  V30 12180 H 1190.38 2.53364 3.93604 0
M  V30 12181 H 1190.55 3.71714 5.30785 0
M  V30 12182 N 1183.96 -1.40369 0.716545 0
M  V30 12183 C 1185.19 -2.05181 0.266143 0
M  V30 12184 C 1185.6 -1.53988 -1.09239 0
M  V30 12185 O 1184.96 -0.696859 -1.68672 0
M  V30 12186 C 1185.01 -3.60713 0.238384 0
M  V30 12187 O 1184.73 -4.10018 1.54328 0
M  V30 12188 C 1186.23 -4.42701 -0.230453 0
M  V30 12189 H 1183.45 -0.66028 0.119463 0
M  V30 12190 H 1186 -1.7976 0.97502 0
M  V30 12191 H 1184.15 -3.85101 -0.421466 0
M  V30 12192 H 1184.56 -5.0422 1.4444 0
M  V30 12193 H 1186.04 -5.51642 -0.198728 0
M  V30 12194 H 1186.52 -4.20354 -1.27276 0
M  V30 12195 H 1187.12 -4.23423 0.399155 0
M  V30 12196 N 1185.44 -0.462799 -1.50652 0
M  V30 12197 C 1186.38 0.335664 -2.28346 0
M  V30 12198 C 1187.35 0.994541 -1.33034 0
M  V30 12199 O 1188.54 1.00857 -1.61964 0
M  V30 12200 C 1185.68 1.41648 -3.1469 0
M  V30 12201 C 1184.79 0.773207 -4.25024 0
M  V30 12202 C 1183.93 1.83121 -4.98638 0
M  V30 12203 C 1182.97 1.16774 -6.00858 0
M  V30 12204 N 1182.1 2.16823 -6.67782 0
M  V30 12205 H 1186.94 -0.333202 -2.96131 0
M  V30 12206 H 1184.48 -0.176166 -1.46041 0
M  V30 12207 H 1186.44 2.05468 -3.63096 0
M  V30 12208 H 1185.07 2.05462 -2.48968 0
M  V30 12209 H 1184.12 0.0226444 -3.80393 0
M  V30 12210 H 1185.43 0.249061 -4.98178 0
M  V30 12211 H 1184.59 2.54543 -5.5072 0
M  V30 12212 H 1183.32 2.38915 -4.25172 0
M  V30 12213 H 1182.33 0.439112 -5.48044 0
M  V30 12214 H 1183.55 0.616809 -6.76293 0
M  V30 12215 H 1181.5 2.71649 -5.97112 0
M  V30 12216 H 1181.42 1.69371 -7.36783 0
M  V30 12217 H 1182.69 2.8765 -7.24484 0
M  V30 12218 N 1186.91 1.56388 -0.195085 0
M  V30 12219 C 1187.86 2.20431 0.742484 0
M  V30 12220 C 1188.86 1.17548 1.21979 0
M  V30 12221 O 1190.06 1.35693 1.18269 0
M  V30 12222 H 1186.44 0.706435 0.257786 0
M  V30 12223 H 1188.41 2.97865 0.178624 0
M  V30 12224 C 1187.16 2.87772 1.95147 0
M  V30 12225 H 1186.48 3.66681 1.59326 0
M  V30 12226 H 1187.92 3.36021 2.58585 0
M  V30 12227 C 1186.38 1.88807 2.79022 0
M  V30 12228 O 1186.91 1.38836 3.76945 0
M  V30 12229 N 1185.12 1.57037 2.44515 0
M  V30 12230 H 1184.66 1.97868 1.64943 0
M  V30 12231 H 1184.62 0.910776 3.00919 0
M  V30 12232 N 1188.39 -0.0785156 1.57404 0
M  V30 12233 C 1189.32 -1.09446 2.06262 0
M  V30 12234 C 1190.3 -1.40777 0.954772 0
M  V30 12235 O 1191.49 -1.5052 1.22708 0
M  V30 12236 C 1188.62 -2.40979 2.50093 0
M  V30 12237 C 1187.57 -2.24017 3.64692 0
M  V30 12238 C 1186.9 -3.60873 3.94556 0
M  V30 12239 C 1188.2 -1.66696 4.94985 0
M  V30 12240 H 1189.89 -0.687928 2.9139 0
M  V30 12241 H 1187.44 -0.329466 1.4018 0
M  V30 12242 H 1189.39 -3.12337 2.82884 0
M  V30 12243 H 1188.12 -2.83599 1.61985 0
M  V30 12244 H 1186.77 -1.55101 3.32174 0
M  V30 12245 H 1186.42 -4.01051 3.0359 0
M  V30 12246 H 1186.12 -3.50365 4.71718 0
M  V30 12247 H 1187.65 -4.33673 4.29837 0
M  V30 12248 H 1189.06 -2.27913 5.2605 0
M  V30 12249 H 1187.46 -1.66902 5.76423 0
M  V30 12250 H 1188.53 -0.627827 4.80818 0
M  V30 12251 N 1189.87 -1.5367 -0.349747 0
M  V30 12252 C 1190.8 -1.7603 -1.4522 0
M  V30 12253 C 1191.78 -0.609171 -1.50758 0
M  V30 12254 O 1192.97 -0.843613 -1.68569 0
M  V30 12255 C 1190.09 -1.85336 -2.83493 0
M  V30 12256 C 1189.14 -3.07438 -2.95608 0
M  V30 12257 S 1189.97 -4.66625 -2.62719 0
M  V30 12258 C 1191.13 -4.78802 -4.03112 0
M  V30 12259 H 1191.36 -2.69263 -1.26035 0
M  V30 12260 H 1188.89 -1.4446 -0.545044 0
M  V30 12261 H 1190.85 -1.91383 -3.63157 0
M  V30 12262 H 1189.51 -0.931267 -2.99977 0
M  V30 12263 H 1188.71 -3.10606 -3.96913 0
M  V30 12264 H 1188.31 -2.99585 -2.23886 0
M  V30 12265 H 1190.6 -4.5983 -4.97557 0
M  V30 12266 H 1191.54 -5.80886 -4.04941 0
M  V30 12267 H 1191.95 -4.07305 -3.90849 0
M  V30 12268 N 1191.35 0.610423 -1.45298 0
M  V30 12269 C 1192.59 1.36959 -1.50379 0
M  V30 12270 C 1192.95 1.91872 -0.142378 0
M  V30 12271 O 1192.24 1.71944 0.845332 0
M  V30 12272 C 1192.44 2.53812 -2.51623 0
M  V30 12273 C 1192.27 2.10341 -3.97476 0
M  V30 12274 C 1191.04 1.96646 -4.65466 0
M  V30 12275 C 1193.23 1.67982 -4.86093 0
M  V30 12276 N 1191.22 1.46956 -5.96051 0
M  V30 12277 C 1192.59 1.29686 -6.06285 0
M  V30 12278 C 1194.64 1.55548 -4.72979 0
M  V30 12279 C 1193.34 0.801985 -7.14815 0
M  V30 12280 C 1195.37 1.07465 -5.81554 0
M  V30 12281 C 1194.73 0.701317 -7.009 0
M  V30 12282 H 1190.83 0.495191 -0.605236 0
M  V30 12283 H 1193.42 0.698121 -1.81754 0
M  V30 12284 H 1191.59 3.18558 -2.22205 0
M  V30 12285 H 1193.32 3.20683 -2.4687 0
M  V30 12286 H 1190.07 2.17743 -4.20577 0
M  V30 12287 H 1190.5 1.2435 -6.65482 0
M  V30 12288 H 1195.14 1.83038 -3.81126 0
M  V30 12289 H 1192.86 0.514634 -8.0646 0
M  V30 12290 H 1196.44 0.98274 -5.7344 0
M  V30 12291 H 1195.32 0.334967 -7.83484 0
M  V30 12292 N 1192.83 1.32541 0.852676 0
M  V30 12293 C 1194.06 1.26037 1.63702 0
M  V30 12294 C 1194.46 -0.173583 1.88402 0
M  V30 12295 O 1193.81 -1.12175 1.45473 0
M  V30 12296 C 1193.87 1.95245 3.01861 0
M  V30 12297 C 1193.53 3.44576 3.00193 0
M  V30 12298 C 1194.53 4.40026 2.76899 0
M  V30 12299 C 1192.22 3.86541 3.20766 0
M  V30 12300 C 1194.21 5.75414 2.74185 0
M  V30 12301 C 1191.9 5.22038 3.17678 0
M  V30 12302 C 1192.89 6.16286 2.94416 0
M  V30 12303 O 1192.58 7.49303 2.91206 0
M  V30 12304 H 1192.31 0.436073 0.516543 0
M  V30 12305 H 1194.87 1.75251 1.07127 0
M  V30 12306 H 1193.1 1.40603 3.60233 0
M  V30 12307 H 1194.79 1.82423 3.62597 0
M  V30 12308 H 1195.55 4.0893 2.6077 0
M  V30 12309 H 1191.43 3.13603 3.37897 0
M  V30 12310 H 1194.98 6.4895 2.55947 0
M  V30 12311 H 1190.87 5.52762 3.33353 0
M  V30 12312 H 1191.64 7.58686 3.07146 0
M  V30 12313 N 1194.3 -1.0692 1.15784 0
M  V30 12314 C 1195.55 -1.79245 0.933581 0
M  V30 12315 C 1195.87 -1.87362 -0.540427 0
M  V30 12316 O 1195.14 -1.37769 -1.39271 0
M  V30 12317 H 1193.72 -0.663898 0.342416 0
M  V30 12318 H 1196.39 -1.29189 1.45932 0
M  V30 12319 H 1195.48 -2.81546 1.34679 0
M  V30 12320 N 1195.78 -0.955326 -1.25345 0
M  V30 12321 C 1197.03 -0.611388 -1.93365 0
M  V30 12322 C 1197.36 0.84953 -1.74633 0
M  V30 12323 O 1196.64 1.60962 -1.09185 0
M  V30 12324 C 1196.92 -0.971732 -3.46741 0
M  V30 12325 C 1196.77 -2.48843 -3.74696 0
M  V30 12326 C 1198.09 -0.497295 -4.37281 0
M  V30 12327 H 1195.21 -0.223591 -0.702265 0
M  V30 12328 H 1197.85 -1.1921 -1.47949 0
M  V30 12329 H 1196 -0.477568 -3.85554 0
M  V30 12330 H 1197.67 -3.05641 -3.45516 0
M  V30 12331 H 1195.92 -2.92582 -3.20278 0
M  V30 12332 H 1196.59 -2.69107 -4.8196 0
M  V30 12333 H 1199.06 -0.921196 -4.05775 0
M  V30 12334 H 1197.94 -0.778113 -5.43357 0
M  V30 12335 H 1198.2 0.602743 -4.37972 0
M  V30 12336 N 1197.26 1.39987 -0.723979 0
M  V30 12337 C 1198.19 2.3332 -0.0917282 0
M  V30 12338 C 1199.17 1.53335 0.736361 0
M  V30 12339 O 1200.36 1.81771 0.683582 0
M  V30 12340 C 1197.49 3.3737 0.824549 0
M  V30 12341 C 1196.44 4.2788 0.101452 0
M  V30 12342 C 1195.77 5.22536 1.13401 0
M  V30 12343 C 1197.07 5.11649 -1.04939 0
M  V30 12344 H 1198.76 2.86441 -0.871318 0
M  V30 12345 H 1196.31 1.37725 -0.420448 0
M  V30 12346 H 1198.26 4.01607 1.27631 0
M  V30 12347 H 1196.98 2.82663 1.63613 0
M  V30 12348 H 1195.64 3.65107 -0.330569 0
M  V30 12349 H 1195.29 4.64131 1.93886 0
M  V30 12350 H 1194.99 5.83938 0.65502 0
M  V30 12351 H 1196.52 5.89651 1.58569 0
M  V30 12352 H 1197.93 5.69293 -0.6766 0
M  V30 12353 H 1196.33 5.82137 -1.45729 0
M  V30 12354 H 1197.4 4.47132 -1.8762 0
M  V30 12355 N 1198.74 0.470782 1.50404 0
M  V30 12356 C 1199.99 -0.0841494 2.01925 0
M  V30 12357 C 1200.31 -1.40244 1.35487 0
M  V30 12358 O 1199.58 -1.89409 0.500111 0
M  V30 12359 H 1198.16 -0.0340884 0.746222 0
M  V30 12360 H 1200.82 0.621133 1.84738 0
M  V30 12361 H 1199.92 -0.235877 3.11207 0
M  V30 12362 N 1200.22 -1.56282 0.203376 0
M  V30 12363 C 1201.45 -2.02198 -0.438572 0
M  V30 12364 C 1201.86 -1.08343 -1.54619 0
M  V30 12365 O 1201.22 -0.0897594 -1.82279 0
M  V30 12366 C 1201.27 -3.4776 -0.987184 0
M  V30 12367 O 1200.99 -4.38034 0.0762552 0
M  V30 12368 C 1202.49 -4.09234 -1.70419 0
M  V30 12369 H 1199.71 -0.662041 -0.109282 0
M  V30 12370 H 1202.25 -2.02067 0.314509 0
M  V30 12371 H 1200.41 -3.48564 -1.69061 0
M  V30 12372 H 1200.82 -5.2344 -0.333322 0
M  V30 12373 H 1202.3 -5.1291 -2.04027 0
M  V30 12374 H 1202.77 -3.53172 -2.61087 0
M  V30 12375 H 1203.38 -4.12226 -1.04641 0
M  V30 12376 N 1201.7 0.070167 -1.57444 0
M  V30 12377 C 1203.11 0.424991 -1.53838 0
M  V30 12378 C 1203.31 1.79076 -0.923793 0
M  V30 12379 O 1202.37 2.46939 -0.527002 0
M  V30 12380 C 1203.68 0.364562 -2.98482 0
M  V30 12381 C 1205.23 0.444631 -3.09826 0
M  V30 12382 C 1205.7 0.414093 -4.56124 0
M  V30 12383 N 1207.19 0.474119 -4.60767 0
M  V30 12384 C 1207.93 0.472729 -5.71448 0
M  V30 12385 N 1207.43 0.426059 -6.91489 0
M  V30 12386 N 1209.22 0.519408 -5.59695 0
M  V30 12387 H 1201.37 -0.824117 -1.9576 0
M  V30 12388 H 1203.63 -0.309401 -0.896089 0
M  V30 12389 H 1203.34 -0.572343 -3.47012 0
M  V30 12390 H 1203.21 1.17414 -3.5846 0
M  V30 12391 H 1205.6 1.37196 -2.61269 0
M  V30 12392 H 1205.68 -0.393547 -2.52755 0
M  V30 12393 H 1205.32 -0.509394 -5.05339 0
M  V30 12394 H 1205.25 1.26983 -5.11061 0
M  V30 12395 H 1207.75 0.514371 -3.74383 0
M  V30 12396 H 1208.06 0.428969 -7.71609 0
M  V30 12397 H 1206.4 0.392722 -6.9389 0
M  V30 12398 H 1209.59 0.553573 -4.64815 0
M  V30 12399 H 1209.77 0.514856 -6.45951 0
M  V30 12400 N 1203.17 1.53854 0.341593 0
M  V30 12401 C 1204.08 1.84975 1.44297 0
M  V30 12402 C 1205.1 0.740057 1.57477 0
M  V30 12403 O 1206.28 1.03256 1.72917 0
M  V30 12404 C 1203.34 2.05464 2.79259 0
M  V30 12405 C 1202.4 3.29318 2.75405 0
M  V30 12406 C 1201.63 3.4882 4.03931 0
M  V30 12407 O 1201.86 2.7212 5.01305 0
M  V30 12408 O 1200.79 4.42253 4.08284 0
M  V30 12409 H 1204.62 2.78592 1.20913 0
M  V30 12410 H 1202.2 1.39532 0.533953 0
M  V30 12411 H 1204.08 2.20374 3.59184 0
M  V30 12412 H 1202.76 1.15035 3.0257 0
M  V30 12413 H 1201.67 3.1981 1.94094 0
M  V30 12414 H 1203 4.19746 2.57049 0
M  V30 12415 N 1204.65 -0.602709 1.4562 0
M  V30 12416 C 1205.58 -1.72374 1.5751 0
M  V30 12417 C 1206.56 -1.64669 0.426389 0
M  V30 12418 O 1207.75 -1.82994 0.650143 0
M  V30 12419 C 1204.88 -3.10987 1.5461 0
M  V30 12420 C 1203.83 -3.33507 2.68248 0
M  V30 12421 C 1203.16 -4.72443 2.50403 0
M  V30 12422 C 1204.46 -3.23285 4.10224 0
M  V30 12423 H 1206.15 -1.62679 2.51348 0
M  V30 12424 H 1203.7 -0.781217 1.20967 0
M  V30 12425 H 1205.65 -3.89214 1.61525 0
M  V30 12426 H 1204.37 -3.21533 0.573049 0
M  V30 12427 H 1203.03 -2.57672 2.60769 0
M  V30 12428 H 1202.68 -4.79729 1.51226 0
M  V30 12429 H 1202.38 -4.88466 3.26611 0
M  V30 12430 H 1203.91 -5.52864 2.59179 0
M  V30 12431 H 1205.32 -3.91381 4.1892 0
M  V30 12432 H 1203.72 -3.50837 4.86861 0
M  V30 12433 H 1204.79 -2.20652 4.31788 0
M  V30 12434 N 1206.13 -1.32992 -0.845635 0
M  V30 12435 C 1207.06 -1.25301 -1.97033 0
M  V30 12436 C 1208.04 -0.134966 -1.69564 0
M  V30 12437 O 1209.23 -0.323629 -1.91484 0
M  V30 12438 C 1206.36 -0.984551 -3.33052 0
M  V30 12439 C 1205.31 -2.06481 -3.749 0
M  V30 12440 C 1204.64 -1.6486 -5.08651 0
M  V30 12441 C 1205.94 -3.48083 -3.89404 0
M  V30 12442 H 1207.63 -2.194 -2.03725 0
M  V30 12443 H 1205.18 -1.05621 -0.978783 0
M  V30 12444 H 1207.13 -0.917269 -4.11296 0
M  V30 12445 H 1205.85 -0.00793116 -3.26599 0
M  V30 12446 H 1204.51 -2.1224 -2.98915 0
M  V30 12447 H 1204.16 -0.659183 -4.98662 0
M  V30 12448 H 1203.86 -2.37145 -5.37621 0
M  V30 12449 H 1205.38 -1.59585 -5.89377 0
M  V30 12450 H 1206.8 -3.44863 -4.57976 0
M  V30 12451 H 1205.19 -4.18796 -4.29802 0
M  V30 12452 H 1206.26 -3.87084 -2.92051 0
M  V30 12453 N 1207.61 1.06304 -1.1635 0
M  V30 12454 C 1208.54 2.13732 -0.827721 0
M  V30 12455 C 1209.55 1.61962 0.164983 0
M  V30 12456 O 1210.74 1.784 -0.0597591 0
M  V30 12457 C 1207.84 3.38239 -0.211623 0
M  V30 12458 C 1207.01 4.19325 -1.2444 0
M  V30 12459 C 1206.07 5.22193 -0.648127 0
M  V30 12460 O 1205.1 5.53755 -1.31695 0
M  V30 12461 N 1206.3 5.77742 0.565179 0
M  V30 12462 H 1209.07 2.43136 -1.75228 0
M  V30 12463 H 1206.63 1.22304 -1.06081 0
M  V30 12464 H 1208.62 4.04204 0.200306 0
M  V30 12465 H 1207.19 3.06461 0.616491 0
M  V30 12466 H 1206.41 3.49017 -1.83251 0
M  V30 12467 H 1207.7 4.70306 -1.94138 0
M  V30 12468 H 1207.1 5.54366 1.12673 0
M  V30 12469 H 1205.65 6.45284 0.919321 0
M  V30 12470 N 1209.09 0.96196 1.24836 0
M  V30 12471 C 1210.5 0.667561 1.44968 0
M  V30 12472 C 1210.7 -0.772521 1.86103 0
M  V30 12473 O 1209.76 -1.54704 1.99557 0
M  V30 12474 C 1211.07 1.64675 2.516 0
M  V30 12475 C 1212.62 1.65874 2.65433 0
M  V30 12476 C 1213.09 2.62576 3.75257 0
M  V30 12477 N 1214.58 2.60984 3.82677 0
M  V30 12478 C 1215.32 3.32484 4.67163 0
M  V30 12479 N 1214.82 4.13482 5.55882 0
M  V30 12480 N 1216.61 3.21336 4.61193 0
M  V30 12481 H 1208.76 1.89248 0.964307 0
M  V30 12482 H 1211.02 0.814443 0.485167 0
M  V30 12483 H 1210.73 2.67572 2.2825 0
M  V30 12484 H 1210.6 1.415 3.49653 0
M  V30 12485 H 1212.99 0.636912 2.88145 0
M  V30 12486 H 1213.07 1.9311 1.67756 0
M  V30 12487 H 1212.71 3.6489 3.53295 0
M  V30 12488 H 1212.64 2.32622 4.72435 0
M  V30 12489 H 1215.14 2.02187 3.19263 0
M  V30 12490 H 1215.45 4.6494 6.17293 0
M  V30 12491 H 1213.79 4.17578 5.55566 0
M  V30 12492 H 1216.98 2.57524 3.90895 0
M  V30 12493 H 1217.16 3.77323 5.26812 0
M  V30 12494 N 1210.56 -1.39601 0.731392 0
M  V30 12495 C 1211.79 -2.05411 0.286532 0
M  V30 12496 C 1212.21 -1.54777 -1.06892 0
M  V30 12497 O 1211.57 -0.689942 -1.67659 0
M  V30 12498 C 1211.62 -3.594 0.293914 0
M  V30 12499 O 1210.72 -4.06072 -0.719657 0
M  V30 12500 H 1210.06 -0.650949 0.131004 0
M  V30 12501 H 1212.59 -1.78703 0.996305 0
M  V30 12502 H 1212.6 -4.0777 0.137052 0
M  V30 12503 H 1211.28 -3.95617 1.28298 0
M  V30 12504 H 1209.86 -3.69125 -0.529226 0
M  V30 12505 N 1212.04 -0.478751 -1.50152 0
M  V30 12506 C 1213.27 0.0709455 -2.06478 0
M  V30 12507 C 1213.68 1.33376 -1.34192 0
M  V30 12508 O 1213.02 1.79133 -0.40707 0
M  V30 12509 C 1213.09 0.417322 -3.5707 0
M  V30 12510 C 1212.75 -0.744563 -4.50894 0
M  V30 12511 C 1213.75 -1.62879 -4.93727 0
M  V30 12512 C 1211.43 -0.937062 -4.93482 0
M  V30 12513 C 1213.43 -2.68985 -5.77863 0
M  V30 12514 C 1211.11 -2.00134 -5.77399 0
M  V30 12515 C 1212.11 -2.87609 -6.19492 0
M  V30 12516 O 1211.8 -3.92203 -7.01735 0
M  V30 12517 H 1211.53 -0.00720177 -0.675962 0
M  V30 12518 H 1214.08 -0.668797 -1.94207 0
M  V30 12519 H 1212.31 1.21036 -3.6727 0
M  V30 12520 H 1214 0.903002 -3.95728 0
M  V30 12521 H 1214.77 -1.49179 -4.61488 0
M  V30 12522 H 1210.65 -0.265636 -4.60234 0
M  V30 12523 H 1214.19 -3.37293 -6.10639 0
M  V30 12524 H 1210.09 -2.13837 -6.09052 0
M  V30 12525 H 1210.86 -3.89284 -7.2 0
M  V30 12526 N 1213.52 1.56172 -0.211661 0
M  V30 12527 C 1214.47 2.19849 0.702515 0
M  V30 12528 C 1215.44 1.15091 1.19763 0
M  V30 12529 O 1216.62 1.43408 1.25852 0
M  V30 12530 C 1213.76 2.87468 1.90935 0
M  V30 12531 C 1212.88 4.06794 1.45406 0
M  V30 12532 C 1212.01 4.62224 2.61769 0
M  V30 12533 C 1211.05 5.73872 2.12926 0
M  V30 12534 N 1210.19 6.23635 3.22526 0
M  V30 12535 H 1215.03 2.97608 0.152777 0
M  V30 12536 H 1212.56 1.46962 0.0636596 0
M  V30 12537 H 1214.52 3.24851 2.61777 0
M  V30 12538 H 1213.15 2.12244 2.43213 0
M  V30 12539 H 1212.2 3.74962 0.640907 0
M  V30 12540 H 1213.52 4.87497 1.05584 0
M  V30 12541 H 1212.67 5.01999 3.40709 0
M  V30 12542 H 1211.41 3.80662 3.04873 0
M  V30 12543 H 1210.41 5.33609 1.32445 0
M  V30 12544 H 1211.64 6.57262 1.70833 0
M  V30 12545 H 1209.58 5.44991 3.65131 0
M  V30 12546 H 1209.5 6.99435 2.86926 0
M  V30 12547 H 1210.77 6.68066 4.01631 0
M  V30 12548 N 1215 -0.0618163 1.57479 0
M  V30 12549 C 1215.95 -1.09105 2.05424 0
M  V30 12550 C 1216.94 -1.3947 0.961479 0
M  V30 12551 O 1218.15 -1.3876 1.14655 0
M  V30 12552 H 1214.52 -0.36923 0.655113 0
M  V30 12553 H 1216.49 -0.66061 2.90996 0
M  V30 12554 C 1215.24 -2.39345 2.52209 0
M  V30 12555 H 1214.56 -2.16832 3.35893 0
M  V30 12556 H 1216 -3.09784 2.89499 0
M  V30 12557 C 1214.46 -3.06011 1.40922 0
M  V30 12558 O 1214.99 -3.94504 0.756921 0
M  V30 12559 N 1213.2 -2.66797 1.15186 0
M  V30 12560 H 1212.75 -1.94923 1.68412 0
M  V30 12561 H 1212.7 -3.11724 0.409324 0
M  V30 12562 N 1216.48 -1.54033 -0.333429 0
M  V30 12563 C 1217.41 -1.85719 -1.4153 0
M  V30 12564 C 1218.39 -0.713144 -1.54429 0
M  V30 12565 O 1219.57 -0.965984 -1.68471 0
M  V30 12566 C 1216.7 -2.07578 -2.78439 0
M  V30 12567 C 1215.66 -3.23411 -2.80338 0
M  V30 12568 C 1214.98 -3.30622 -4.2023 0
M  V30 12569 C 1216.28 -4.6129 -2.44968 0
M  V30 12570 H 1217.98 -2.76325 -1.15261 0
M  V30 12571 H 1215.52 -1.32957 -0.55303 0
M  V30 12572 H 1217.48 -2.28329 -3.5418 0
M  V30 12573 H 1216.2 -1.13713 -3.06165 0
M  V30 12574 H 1214.86 -3.02531 -2.07052 0
M  V30 12575 H 1214.51 -2.34333 -4.45081 0
M  V30 12576 H 1214.21 -4.08466 -4.22409 0
M  V30 12577 H 1215.73 -3.53596 -4.97798 0
M  V30 12578 H 1217.14 -4.81987 -3.10421 0
M  V30 12579 H 1215.54 -5.41611 -2.58414 0
M  V30 12580 H 1216.61 -4.6421 -1.40134 0
M  V30 12581 N 1217.95 0.594978 -1.45938 0
M  V30 12582 C 1218.86 1.73296 -1.58132 0
M  V30 12583 C 1219.88 1.67665 -0.465245 0
M  V30 12584 O 1221.06 1.87794 -0.727684 0
M  V30 12585 C 1218.12 3.09783 -1.55677 0
M  V30 12586 C 1217.18 3.26772 -2.78422 0
M  V30 12587 C 1216.42 4.56748 -2.76075 0
M  V30 12588 O 1216.64 5.39867 -1.84119 0
M  V30 12589 O 1215.57 4.76721 -3.67452 0
M  V30 12590 H 1219.4 1.65957 -2.54346 0
M  V30 12591 H 1216.98 0.760572 -1.28591 0
M  V30 12592 H 1218.87 3.91077 -1.56961 0
M  V30 12593 H 1217.54 3.17585 -0.626191 0
M  V30 12594 H 1216.45 2.45018 -2.82696 0
M  V30 12595 H 1217.78 3.23853 -3.70648 0
M  V30 12596 N 1219.43 1.33438 0.838571 0
M  V30 12597 C 1220.36 1.19552 1.9555 0
M  V30 12598 C 1221.38 0.12642 1.62308 0
M  V30 12599 O 1222.57 0.376868 1.74476 0
M  V30 12600 C 1219.67 0.811273 3.29046 0
M  V30 12601 C 1218.84 1.97207 3.9042 0
M  V30 12602 C 1217.9 1.56875 5.02271 0
M  V30 12603 O 1216.92 2.28314 5.21403 0
M  V30 12604 N 1218.13 0.473924 5.78562 0
M  V30 12605 H 1220.89 2.15769 2.07999 0
M  V30 12606 H 1218.45 1.26187 1.01432 0
M  V30 12607 H 1220.44 0.523553 4.01299 0
M  V30 12608 H 1219.01 -0.0602291 3.12542 0
M  V30 12609 H 1218.23 2.4254 3.10754 0
M  V30 12610 H 1219.52 2.74878 4.28158 0
M  V30 12611 H 1218.92 -0.120306 5.65572 0
M  V30 12612 H 1217.48 0.245877 6.51336 0
M  V30 12613 N 1220.91 -1.05686 1.16912 0
M  V30 12614 C 1222.33 -1.30744 0.915327 0
M  V30 12615 C 1222.53 -1.96895 -0.428344 0
M  V30 12616 O 1221.58 -2.23941 -1.16647 0
M  V30 12617 C 1222.9 -2.18209 2.06894 0
M  V30 12618 C 1224.44 -2.31607 2.1054 0
M  V30 12619 C 1224.92 -3.2243 3.25273 0
M  V30 12620 N 1226.41 -3.30015 3.2503 0
M  V30 12621 C 1227.14 -4.00401 4.10447 0
M  V30 12622 N 1226.64 -4.73256 5.05965 0
M  V30 12623 N 1228.43 -3.96514 3.98413 0
M  V30 12624 H 1220.58 -0.611449 2.03409 0
M  V30 12625 H 1222.85 -0.332188 0.887894 0
M  V30 12626 H 1222.55 -1.76887 3.0398 0
M  V30 12627 H 1222.43 -3.18823 2.01573 0
M  V30 12628 H 1224.81 -2.72173 1.14044 0
M  V30 12629 H 1224.9 -1.30639 2.19925 0
M  V30 12630 H 1224.54 -2.82579 4.22032 0
M  V30 12631 H 1224.47 -4.23392 3.13125 0
M  V30 12632 H 1226.96 -2.781 2.55869 0
M  V30 12633 H 1227.27 -5.24509 5.67547 0
M  V30 12634 H 1225.62 -4.72215 5.09939 0
M  V30 12635 H 1228.81 -3.38719 3.2309 0
M  V30 12636 H 1228.98 -4.511 4.65202 0
M  V30 12637 N 1222.39 -0.968567 -1.24324 0
M  V30 12638 C 1223.63 -0.631863 -1.92705 0
M  V30 12639 C 1223.97 0.83096 -1.75524 0
M  V30 12640 O 1223.24 1.59795 -1.10887 0
M  V30 12641 C 1223.53 -1.00845 -3.45691 0
M  V30 12642 C 1223.38 -2.52803 -3.72036 0
M  V30 12643 C 1224.7 -0.543647 -4.36729 0
M  V30 12644 H 1221.82 -0.231027 -0.699854 0
M  V30 12645 H 1224.46 -1.20773 -1.46676 0
M  V30 12646 H 1222.61 -0.518434 -3.85025 0
M  V30 12647 H 1224.28 -3.09289 -3.42255 0
M  V30 12648 H 1222.52 -2.95963 -3.17157 0
M  V30 12649 H 1223.19 -2.74203 -4.79079 0
M  V30 12650 H 1225.67 -0.964182 -4.04775 0
M  V30 12651 H 1224.55 -0.8357 -5.42501 0
M  V30 12652 H 1224.81 0.556256 -4.38587 0
M  V30 12653 N 1223.87 1.39211 -0.738786 0
M  V30 12654 C 1224.8 2.29117 -0.0616489 0
M  V30 12655 C 1225.81 1.47008 0.699462 0
M  V30 12656 O 1227 1.70041 0.542998 0
M  V30 12657 C 1224.1 3.25692 0.936893 0
M  V30 12658 C 1223.27 4.3676 0.236515 0
M  V30 12659 C 1222.33 5.1362 1.1437 0
M  V30 12660 O 1221.36 5.65816 0.619762 0
M  V30 12661 N 1222.56 5.25184 2.4731 0
M  V30 12662 H 1225.33 2.8787 -0.833711 0
M  V30 12663 H 1222.89 1.50832 -0.588323 0
M  V30 12664 H 1224.88 3.73987 1.54648 0
M  V30 12665 H 1223.45 2.67943 1.61014 0
M  V30 12666 H 1222.67 3.90293 -0.553594 0
M  V30 12667 H 1223.96 5.08192 -0.248707 0
M  V30 12668 H 1223.35 4.84302 2.92349 0
M  V30 12669 H 1221.91 5.76905 3.03355 0
M  V30 12670 N 1225.34 0.486708 1.49896 0
M  V30 12671 C 1226.27 -0.288898 2.31706 0
M  V30 12672 C 1227.26 -0.975901 1.3932 0
M  V30 12673 O 1228.44 -0.970065 1.68236 0
M  V30 12674 C 1225.57 -1.36218 3.19471 0
M  V30 12675 C 1224.52 -0.795884 4.20535 0
M  V30 12676 C 1223.85 -1.96862 4.97141 0
M  V30 12677 C 1225.15 0.203421 5.21904 0
M  V30 12678 H 1226.84 0.393934 2.96797 0
M  V30 12679 H 1224.39 0.190894 1.42729 0
M  V30 12680 H 1226.34 -1.91238 3.75508 0
M  V30 12681 H 1225.07 -2.074 2.52295 0
M  V30 12682 H 1223.73 -0.267538 3.65622 0
M  V30 12683 H 1223.37 -2.66779 4.26425 0
M  V30 12684 H 1223.07 -1.59585 5.65514 0
M  V30 12685 H 1224.6 -2.52343 5.56017 0
M  V30 12686 H 1226.01 -0.258144 5.72719 0
M  V30 12687 H 1224.41 0.491273 5.98086 0
M  V30 12688 H 1225.48 1.12414 4.7169 0
M  V30 12689 N 1226.82 -1.56058 0.219941 0
M  V30 12690 C 1227.73 -2.23844 -0.70222 0
M  V30 12691 C 1228.75 -1.24554 -1.215 0
M  V30 12692 O 1229.93 -1.57362 -1.25695 0
M  V30 12693 C 1226.99 -2.90384 -1.89416 0
M  V30 12694 C 1226.05 -4.05012 -1.42351 0
M  V30 12695 C 1225.28 -4.68369 -2.55863 0
M  V30 12696 O 1225.51 -4.3071 -3.73958 0
M  V30 12697 O 1224.44 -5.5739 -2.27157 0
M  V30 12698 H 1228.27 -3.03305 -0.15478 0
M  V30 12699 H 1225.85 -1.49396 -0.010438 0
M  V30 12700 H 1227.73 -3.32389 -2.59028 0
M  V30 12701 H 1226.41 -2.13883 -2.42973 0
M  V30 12702 H 1225.32 -3.67579 -0.695448 0
M  V30 12703 H 1226.65 -4.83251 -0.934332 0
M  V30 12704 N 1228.3 0.053464 -1.57509 0
M  V30 12705 C 1229.54 0.754231 -1.89976 0
M  V30 12706 C 1229.91 1.73805 -0.815833 0
M  V30 12707 O 1231.11 2.48527 -1.0241 0
M  V30 12708 C 1229.38 1.42768 -3.27646 0
M  V30 12709 S 1230.94 2.16098 -3.81899 0
M  V30 12710 H 1227.75 0.250421 -0.66544 0
M  V30 12711 H 1230.36 0.00963883 -1.95498 0
M  V30 12712 H 1229.06 0.698087 -4.04419 0
M  V30 12713 H 1228.59 2.21133 -3.25367 0
M  V30 12714 H 1230.61 3.42895 -3.5866 0
M  V30 12715 N 1229.78 1.54207 0.325255 0
M  V30 12716 C 1231.06 1.6298 1.08153 0
M  V30 12717 C 1231.44 0.462583 2.05969 0
M  V30 12718 O 1230.78 -0.543323 2.21947 0
M  V30 12719 C 1230.99 2.999 1.78497 0
M  V30 12720 C 1232.34 3.55888 2.3158 0
M  V30 12721 O 1233.37 3.02194 1.88566 0
M  V30 12722 O 1232.23 4.49847 3.10322 0
M  V30 12723 H 1229.32 0.659923 0.498429 0
M  V30 12724 H 1231.87 1.66553 0.325282 0
M  V30 12725 H 1230.64 3.7629 1.07338 0
M  V30 12726 H 1230.26 2.99997 2.60936 0
M  V30 12727 N 1231.26 -0.58723 1.46251 0
M  V30 12728 C 1232.51 -1.34294 1.51028 0
M  V30 12729 C 1232.83 -1.94329 0.161623 0
M  V30 12730 O 1232.1 -1.78309 -0.811342 0
M  V30 12731 H 1230.68 -0.498607 0.556238 0
M  V30 12732 H 1233.34 -0.688074 1.8235 0
M  V30 12733 H 1232.43 -2.15197 2.26045 0
M  V30 12734 N 1232.74 -1.33881 -0.831482 0
M  V30 12735 C 1233.67 -1.20587 -1.94914 0
M  V30 12736 C 1234.68 -0.135026 -1.62239 0
M  V30 12737 O 1235.87 -0.386116 -1.74274 0
M  V30 12738 C 1232.97 -0.828712 -3.28612 0
M  V30 12739 C 1232.14 -1.99275 -3.89369 0
M  V30 12740 C 1231.2 -1.59537 -5.01432 0
M  V30 12741 O 1230.23 -2.31076 -5.20185 0
M  V30 12742 N 1231.43 -0.5046 -5.78303 0
M  V30 12743 H 1234.19 -2.16869 -2.06852 0
M  V30 12744 H 1231.76 -1.26723 -1.00761 0
M  V30 12745 H 1233.75 -0.544827 -4.01016 0
M  V30 12746 H 1232.32 0.0436534 -3.1257 0
M  V30 12747 H 1231.54 -2.44185 -3.09463 0
M  V30 12748 H 1232.83 -2.77145 -4.26694 0
M  V30 12749 H 1232.22 0.0903105 -5.65628 0
M  V30 12750 H 1230.78 -0.280415 -6.51197 0
M  V30 12751 N 1234.21 1.05064 -1.1747 0
M  V30 12752 C 1235.44 1.81497 -0.987031 0
M  V30 12753 C 1235.85 1.83323 0.467921 0
M  V30 12754 O 1235.19 1.26006 1.33672 0
M  V30 12755 C 1235.26 3.28826 -1.45306 0
M  V30 12756 C 1234.92 3.50681 -2.93039 0
M  V30 12757 C 1235.92 3.42699 -3.90965 0
M  V30 12758 C 1233.6 3.77602 -3.31243 0
M  V30 12759 C 1235.6 3.61325 -5.25093 0
M  V30 12760 C 1233.28 3.95876 -4.65538 0
M  V30 12761 C 1234.28 3.87737 -5.62271 0
M  V30 12762 O 1233.97 4.055 -6.94136 0
M  V30 12763 H 1233.7 0.578734 -0.349347 0
M  V30 12764 H 1236.26 1.33373 -1.56208 0
M  V30 12765 H 1234.49 3.77872 -0.821581 0
M  V30 12766 H 1236.17 3.86788 -1.23085 0
M  V30 12767 H 1236.94 3.21877 -3.62795 0
M  V30 12768 H 1232.82 3.8304 -2.56517 0
M  V30 12769 H 1236.36 3.54888 -6.00583 0
M  V30 12770 H 1232.26 4.16191 -4.93412 0
M  V30 12771 H 1233.03 4.22718 -7.00894 0
M  V30 12772 N 1235.69 0.975146 1.23809 0
M  V30 12773 C 1236.94 0.636678 1.91388 0
M  V30 12774 C 1237.25 -0.832876 1.76982 0
M  V30 12775 O 1238.46 -1.28218 2.39316 0
M  V30 12776 C 1236.92 1.08813 3.43057 0
M  V30 12777 C 1236.52 2.58165 3.66135 0
M  V30 12778 C 1238.27 0.823154 4.16443 0
M  V30 12779 C 1236.17 2.97004 5.11412 0
M  V30 12780 H 1235.1 0.234424 0.716632 0
M  V30 12781 H 1237.76 1.18235 1.40331 0
M  V30 12782 H 1236.14 0.470709 3.93192 0
M  V30 12783 H 1237.31 3.25101 3.26567 0
M  V30 12784 H 1235.63 2.82353 3.06049 0
M  V30 12785 H 1238.22 1.08925 5.23488 0
M  V30 12786 H 1238.57 -0.240705 4.15604 0
M  V30 12787 H 1239.1 1.4019 3.72279 0
M  V30 12788 H 1235.84 4.02492 5.17378 0
M  V30 12789 H 1235.36 2.34759 5.51949 0
M  V30 12790 H 1237.04 2.8732 5.79704 0
M  V30 12791 N 1237.17 -1.38817 0.746158 0
M  V30 12792 C 1238.58 -1.83045 0.367629 0
M  V30 12793 C 1238.93 -1.62285 -1.10263 0
M  V30 12794 O 1238.06 -1.12001 -1.85162 0
M  V30 12795 C 1238.65 -3.323 0.660482 0
M  V30 12796 C 1237.21 -3.74903 0.335318 0
M  V30 12797 C 1236.36 -2.61683 0.917446 0
M  V30 12798 H 1239.31 -1.27651 0.94291 0
M  V30 12799 H 1239.33 -3.80446 -0.0639061 0
M  V30 12800 H 1238.84 -3.47377 1.73062 0
M  V30 12801 H 1236.94 -3.65408 -0.728538 0
M  V30 12802 H 1237.06 -4.71932 0.825677 0
M  V30 12803 H 1235.42 -2.52376 0.343316 0
M  V30 12804 H 1236.2 -2.79563 1.99247 0
M  V30 12805 N 1238.65 -0.49465 -1.49636 0
M  V30 12806 C 1239.58 0.276606 -2.31856 0
M  V30 12807 C 1240.56 0.968499 -1.39836 0
M  V30 12808 O 1241.74 0.96113 -1.68748 0
M  V30 12809 C 1238.87 1.34522 -3.20189 0
M  V30 12810 C 1237.83 0.773571 -4.20951 0
M  V30 12811 C 1237.15 1.94223 -4.98178 0
M  V30 12812 C 1238.45 -0.231096 -5.21788 0
M  V30 12813 H 1240.15 -0.409668 -2.96584 0
M  V30 12814 H 1237.69 -0.198461 -1.42626 0
M  V30 12815 H 1239.65 1.89244 -3.76517 0
M  V30 12816 H 1238.37 2.06059 -2.53392 0
M  V30 12817 H 1237.03 0.248144 -3.65759 0
M  V30 12818 H 1236.68 2.64514 -4.27834 0
M  V30 12819 H 1236.38 1.56584 -5.66353 0
M  V30 12820 H 1237.9 2.49391 -5.57348 0
M  V30 12821 H 1239.32 0.227768 -5.72847 0
M  V30 12822 H 1237.71 -0.522984 -5.97817 0
M  V30 12823 H 1238.78 -1.14914 -4.71087 0
M  V30 12824 N 1240.13 1.55939 -0.228214 0
M  V30 12825 C 1241.54 1.84612 0.278417 0
M  V30 12826 C 1241.89 1.14973 1.58983 0
M  V30 12827 O 1241.01 0.421673 2.12252 0
M  V30 12828 C 1241.61 3.3491 0.511935 0
M  V30 12829 C 1240.17 3.63876 0.962861 0
M  V30 12830 C 1239.31 2.77284 0.0296246 0
M  V30 12831 H 1242.26 1.52149 -0.451245 0
M  V30 12832 H 1242.29 3.55477 1.35707 0
M  V30 12833 H 1241.8 3.85567 -0.442697 0
M  V30 12834 H 1239.9 3.18682 1.93062 0
M  V30 12835 H 1240.01 4.71809 0.832659 0
M  V30 12836 H 1238.38 2.48961 0.53763 0
M  V30 12837 H 1239.16 3.30742 -0.920044 0
M  V30 12838 N 1241.6 -0.0451101 1.57535 0
M  V30 12839 C 1242.83 -0.755068 1.93167 0
M  V30 12840 C 1243.25 -1.68949 0.826915 0
M  V30 12841 O 1242.61 -1.79978 -0.218534 0
M  V30 12842 C 1242.66 -1.50201 3.27829 0
M  V30 12843 O 1241.76 -2.61434 3.18945 0
M  V30 12844 H 1241.11 -0.204219 0.631815 0
M  V30 12845 H 1243.64 -0.00537504 2.04599 0
M  V30 12846 H 1243.65 -1.87547 3.6234 0
M  V30 12847 H 1242.32 -0.816591 4.07805 0
M  V30 12848 H 1240.9 -2.26749 2.96039 0
M  V30 12849 N 1243.08 -1.54377 -0.317073 0
M  V30 12850 C 1244.01 -1.8721 -1.39552 0
M  V30 12851 C 1244.99 -0.729483 -1.53664 0
M  V30 12852 O 1246.18 -0.983799 -1.67437 0
M  V30 12853 C 1243.31 -2.1052 -2.76222 0
M  V30 12854 C 1242.26 -3.26366 -2.76892 0
M  V30 12855 C 1241.59 -3.35061 -4.16699 0
M  V30 12856 C 1242.89 -4.63862 -2.40061 0
M  V30 12857 H 1244.58 -2.77532 -1.12323 0
M  V30 12858 H 1242.13 -1.33536 -0.538897 0
M  V30 12859 H 1244.08 -2.32073 -3.51739 0
M  V30 12860 H 1242.81 -1.16953 -3.04942 0
M  V30 12861 H 1241.46 -3.0471 -2.03831 0
M  V30 12862 H 1241.11 -2.39041 -4.4257 0
M  V30 12863 H 1240.81 -4.12923 -4.18053 0
M  V30 12864 H 1242.34 -3.58856 -4.94019 0
M  V30 12865 H 1243.75 -4.85252 -3.05292 0
M  V30 12866 H 1242.15 -5.44321 -2.52655 0
M  V30 12867 H 1243.22 -4.6567 -1.35202 0
M  V30 12868 N 1244.56 0.579466 -1.4656 0
M  V30 12869 C 1245.49 1.70291 -1.53406 0
M  V30 12870 C 1246.51 1.57232 -0.422116 0
M  V30 12871 O 1247.69 1.64598 -0.69064 0
M  V30 12872 C 1244.79 3.08572 -1.40131 0
M  V30 12873 C 1243.97 3.47602 -2.65502 0
M  V30 12874 C 1243.03 4.64955 -2.4638 0
M  V30 12875 O 1242.05 4.70653 -3.20116 0
M  V30 12876 N 1243.25 5.60041 -1.52756 0
M  V30 12877 H 1246.02 1.64873 -2.50274 0
M  V30 12878 H 1243.58 0.765533 -1.42658 0
M  V30 12879 H 1245.57 3.84877 -1.25106 0
M  V30 12880 H 1244.14 3.0834 -0.514322 0
M  V30 12881 H 1243.36 2.60969 -2.95446 0
M  V30 12882 H 1244.65 3.70446 -3.48779 0
M  V30 12883 H 1244.05 5.58176 -0.919587 0
M  V30 12884 H 1242.61 6.35764 -1.43693 0
M  V30 12885 N 1246.04 1.3432 0.824371 0
M  V30 12886 C 1247.29 1.26345 1.57738 0
M  V30 12887 C 1247.61 -0.166836 1.94285 0
M  V30 12888 O 1246.88 -1.09911 1.62162 0
M  V30 12889 H 1245.46 0.46466 0.584893 0
M  V30 12890 H 1248.12 1.68214 0.984373 0
M  V30 12891 H 1247.22 1.8672 2.50084 0
M  V30 12892 N 1247.52 -1.0444 1.18026 0
M  V30 12893 C 1248.77 -1.7697 0.9677 0
M  V30 12894 C 1249.08 -1.88995 -0.503994 0
M  V30 12895 O 1250.28 -2.58342 -0.834968 0
M  V30 12896 C 1248.74 -3.1816 1.68232 0
M  V30 12897 C 1248.35 -3.14241 3.19307 0
M  V30 12898 C 1250.09 -3.95095 1.55244 0
M  V30 12899 C 1248 -4.50266 3.83425 0
M  V30 12900 H 1246.93 -0.663355 0.358436 0
M  V30 12901 H 1249.58 -1.17003 1.4136 0
M  V30 12902 H 1247.96 -3.78501 1.16418 0
M  V30 12903 H 1249.14 -2.63373 3.78115 0
M  V30 12904 H 1247.45 -2.50805 3.32394 0
M  V30 12905 H 1250.05 -4.95681 2.00511 0
M  V30 12906 H 1250.39 -4.13236 0.504125 0
M  V30 12907 H 1250.92 -3.4132 2.04317 0
M  V30 12908 H 1247.66 -4.37329 4.88286 0
M  V30 12909 H 1247.18 -5.01251 3.29404 0
M  V30 12910 H 1248.86 -5.1919 3.86071 0
M  V30 12911 N 1248.99 -0.981699 -1.2329 0
M  V30 12912 C 1249.96 -0.527992 -2.23036 0
M  V30 12913 C 1250.96 0.383083 -1.5617 0
M  V30 12914 O 1252.15 0.176595 -1.73303 0
M  V30 12915 C 1249.28 0.233501 -3.40099 0
M  V30 12916 H 1250.47 -1.40995 -2.64689 0
M  V30 12917 H 1248.03 -0.767724 -1.36146 0
M  V30 12918 H 1248.76 1.13194 -3.03904 0
M  V30 12919 H 1248.55 -0.420505 -3.89839 0
M  V30 12920 H 1250.04 0.539485 -4.14101 0
M  V30 12921 N 1250.47 1.3842 -0.753509 0
M  V30 12922 C 1251.72 2.00415 -0.310091 0
M  V30 12923 C 1252.05 1.59675 1.10532 0
M  V30 12924 O 1251.33 0.834261 1.757 0
M  V30 12925 C 1251.61 3.57488 -0.432897 0
M  V30 12926 C 1251.46 4.08193 -1.88941 0
M  V30 12927 C 1252.78 4.39757 0.173763 0
M  V30 12928 H 1249.9 0.728107 -0.114147 0
M  V30 12929 H 1252.54 1.64363 -0.953138 0
M  V30 12930 H 1250.69 3.88331 0.114563 0
M  V30 12931 H 1252.36 3.87993 -2.49517 0
M  V30 12932 H 1250.61 3.61063 -2.4045 0
M  V30 12933 H 1251.28 5.17291 -1.9265 0
M  V30 12934 H 1253.75 4.15066 -0.293137 0
M  V30 12935 H 1252.63 5.4887 0.057594 0
M  V30 12936 H 1252.89 4.23704 1.26205 0
M  V30 12937 N 1251.95 0.502579 1.49372 0
M  V30 12938 C 1252.88 -0.264307 2.31999 0
M  V30 12939 C 1253.86 -0.96107 1.40348 0
M  V30 12940 O 1255.05 -0.952167 1.69255 0
M  V30 12941 C 1252.18 -1.32822 3.20898 0
M  V30 12942 C 1251.13 -0.751236 4.21355 0
M  V30 12943 C 1250.46 -1.91578 4.99201 0
M  V30 12944 C 1251.76 0.258764 5.21659 0
M  V30 12945 H 1253.45 0.425391 2.96363 0
M  V30 12946 H 1251 0.206022 1.42519 0
M  V30 12947 H 1252.95 -1.87245 3.77515 0
M  V30 12948 H 1251.67 -2.04712 2.54481 0
M  V30 12949 H 1250.33 -0.228743 3.65886 0
M  V30 12950 H 1249.98 -2.62241 4.2923 0
M  V30 12951 H 1249.68 -1.53578 5.67175 0
M  V30 12952 H 1251.2 -2.46432 5.58663 0
M  V30 12953 H 1252.62 -0.197385 5.7296 0
M  V30 12954 H 1251.02 0.554681 5.97531 0
M  V30 12955 H 1252.09 1.1741 4.70471 0
M  V30 12956 N 1253.43 -1.55816 0.23648 0
M  V30 12957 C 1254.38 -2.22322 -0.68378 0
M  V30 12958 C 1255.37 -1.2074 -1.1882 0
M  V30 12959 O 1256.58 -1.38781 -1.14629 0
M  V30 12960 H 1252.95 -0.713021 -0.238966 0
M  V30 12961 H 1254.92 -2.98234 -0.0995879 0
M  V30 12962 C 1253.67 -2.92845 -1.87449 0
M  V30 12963 H 1252.99 -3.70777 -1.49548 0
M  V30 12964 H 1254.43 -3.42758 -2.49585 0
M  V30 12965 C 1252.89 -1.96139 -2.73918 0
M  V30 12966 O 1253.42 -1.48781 -3.73132 0
M  V30 12967 N 1251.63 -1.63465 -2.40266 0
M  V30 12968 H 1251.18 -2.02171 -1.59639 0
M  V30 12969 H 1251.13 -0.990239 -2.98398 0
M  V30 12970 N 1254.91 0.036755 -1.57557 0
M  V30 12971 C 1256.16 0.728107 -1.881 0
M  V30 12972 C 1256.47 1.7693 -0.833974 0
M  V30 12973 O 1257.67 2.5127 -1.02837 0
M  V30 12974 C 1256.13 1.34604 -3.33781 0
M  V30 12975 C 1255.74 0.341599 -4.46696 0
M  V30 12976 C 1257.48 2.01772 -3.73481 0
M  V30 12977 C 1255.39 0.967444 -5.83433 0
M  V30 12978 H 1254.32 0.275695 -0.701789 0
M  V30 12979 H 1256.97 -0.0177555 -1.83491 0
M  V30 12980 H 1255.35 2.14135 -3.3311 0
M  V30 12981 H 1256.53 -0.426441 -4.58823 0
M  V30 12982 H 1254.84 -0.227558 -4.15778 0
M  V30 12983 H 1257.44 2.49435 -4.72955 0
M  V30 12984 H 1257.78 2.83255 -3.05077 0
M  V30 12985 H 1258.31 1.29026 -3.76294 0
M  V30 12986 H 1255.05 0.19219 -6.55218 0
M  V30 12987 H 1254.57 1.70551 -5.75041 0
M  V30 12988 H 1256.25 1.47705 -6.29914 0
M  V30 12989 N 1256.39 1.54543 0.308881 0
M  V30 12990 C 1257.8 1.64532 0.882392 0
M  V30 12991 C 1258.15 0.54886 1.88367 0
M  V30 12992 O 1257.27 -0.315832 2.14083 0
M  V30 12993 C 1257.87 2.98251 1.60722 0
M  V30 12994 C 1256.43 3.10387 2.12925 0
M  V30 12995 C 1255.57 2.60176 0.959362 0
M  V30 12996 H 1258.52 1.58466 0.0860803 0
M  V30 12997 H 1258.55 2.89233 2.47233 0
M  V30 12998 H 1258.06 3.78033 0.878233 0
M  V30 12999 H 1256.16 2.35309 2.88895 0
M  V30 13000 H 1256.27 4.16421 2.36918 0
M  V30 13001 H 1254.64 2.16434 1.3427 0
M  V30 13002 H 1255.42 3.42429 0.244454 0
M  V30 13003 N 1257.86 -0.571685 1.46866 0
M  V30 13004 C 1259.09 -1.36008 1.56578 0
M  V30 13005 C 1259.51 -1.86909 0.211326 0
M  V30 13006 O 1258.87 -1.62179 -0.810421 0
M  V30 13007 C 1258.92 -2.51598 2.58323 0
M  V30 13008 O 1258.02 -3.53383 2.1259 0
M  V30 13009 H 1257.36 -0.404593 0.526498 0
M  V30 13010 H 1259.89 -0.692357 1.92529 0
M  V30 13011 H 1259.9 -2.98366 2.78283 0
M  V30 13012 H 1258.58 -2.13904 3.56676 0
M  V30 13013 H 1257.16 -3.13019 2.02666 0
M  V30 13014 N 1259.34 -1.34755 -0.817236 0
M  V30 13015 C 1260.57 -1.30333 -1.60303 0
M  V30 13016 C 1260.98 0.12357 -1.88796 0
M  V30 13017 O 1260.32 1.08279 -1.48396 0
M  V30 13018 C 1260.38 -2.03179 -2.96578 0
M  V30 13019 C 1260.05 -3.52414 -2.90952 0
M  V30 13020 C 1261.05 -4.47213 -2.65136 0
M  V30 13021 C 1258.73 -3.9491 -3.10405 0
M  V30 13022 C 1260.72 -5.82481 -2.58832 0
M  V30 13023 C 1258.41 -5.30277 -3.03726 0
M  V30 13024 C 1259.41 -6.23875 -2.77973 0
M  V30 13025 O 1259.1 -7.5676 -2.71237 0
M  V30 13026 H 1258.83 -0.449615 -0.5048 0
M  V30 13027 H 1261.38 -1.7803 -1.02443 0
M  V30 13028 H 1259.61 -1.50104 -3.56379 0
M  V30 13029 H 1261.3 -1.91972 -3.57633 0
M  V30 13030 H 1262.07 -4.157 -2.49836 0
M  V30 13031 H 1257.95 -3.22451 -3.29464 0
M  V30 13032 H 1261.49 -6.55508 -2.38652 0
M  V30 13033 H 1257.39 -5.61406 -3.1858 0
M  V30 13034 H 1258.16 -7.66562 -2.86923 0
M  V30 13035 N 1260.82 1.03812 -1.18578 0
M  V30 13036 C 1261.78 2.10049 -0.91718 0
M  V30 13037 C 1262.78 1.60498 0.0985122 0
M  V30 13038 O 1263.97 1.73674 -0.135213 0
M  V30 13039 C 1261.1 3.38813 -0.376599 0
M  V30 13040 H 1262.3 2.3531 -1.85927 0
M  V30 13041 H 1259.85 1.20277 -0.998156 0
M  V30 13042 H 1260.59 3.19216 0.571983 0
M  V30 13043 H 1260.37 3.76096 -1.10881 0
M  V30 13044 H 1261.86 4.17084 -0.207453 0
M  V30 13045 N 1262.3 0.988223 1.22768 0
M  V30 13046 C 1263.55 0.660154 1.91014 0
M  V30 13047 C 1263.87 -0.809788 1.77391 0
M  V30 13048 O 1263.14 -1.57998 1.15817 0
M  V30 13049 H 1261.72 0.24118 0.706995 0
M  V30 13050 H 1264.38 1.25372 1.49224 0
M  V30 13051 H 1263.47 0.918603 2.98275 0
M  V30 13052 N 1263.78 -1.38018 0.760839 0
M  V30 13053 C 1265.02 -1.99557 0.319609 0
M  V30 13054 C 1265.34 -1.60699 -1.10457 0
M  V30 13055 O 1264.61 -0.867248 -1.75658 0
M  V30 13056 H 1263.19 -0.738066 0.115182 0
M  V30 13057 H 1265.86 -1.6867 0.976544 0
M  V30 13058 H 1264.95 -3.09672 0.388523 0
M  V30 13059 N 1265.25 -0.510493 -1.49103 0
M  V30 13060 C 1266.48 0.0271718 -2.06882 0
M  V30 13061 C 1266.9 1.2995 -1.36962 0
M  V30 13062 O 1266.25 1.76842 -0.450916 0
M  V30 13063 C 1266.3 0.274956 -3.60453 0
M  V30 13064 O 1266.03 -0.946941 -4.27744 0
M  V30 13065 C 1267.53 0.855197 -4.34973 0
M  V30 13066 H 1264.75 -0.024732 -0.670544 0
M  V30 13067 H 1267.29 -0.710567 -1.91758 0
M  V30 13068 H 1265.45 0.962696 -3.75248 0
M  V30 13069 H 1265.86 -0.715627 -5.19595 0
M  V30 13070 H 1267.33 0.978103 -5.43265 0
M  V30 13071 H 1267.81 1.85535 -3.98087 0
M  V30 13072 H 1268.42 0.204632 -4.24807 0
M  V30 13073 N 1266.73 1.55688 -0.24474 0
M  V30 13074 C 1267.68 2.22682 0.67198 0
M  V30 13075 C 1268.67 1.21369 1.18178 0
M  V30 13076 O 1269.88 1.39387 1.13892 0
M  V30 13077 H 1266.25 0.714279 0.235181 0
M  V30 13078 H 1268.23 2.98282 0.0837704 0
M  V30 13079 C 1266.97 2.93835 1.85893 0
M  V30 13080 H 1266.3 3.71565 1.4758 0
M  V30 13081 H 1267.74 3.44077 2.47764 0
M  V30 13082 C 1266.2 1.97589 2.72874 0
M  V30 13083 O 1266.73 1.50758 3.72337 0
M  V30 13084 N 1264.93 1.64737 2.39395 0
M  V30 13085 H 1264.48 2.03015 1.58564 0
M  V30 13086 H 1264.44 1.00605 2.97869 0
M  V30 13087 N 1268.21 -0.0283989 1.57574 0
M  V30 13088 C 1269.46 -0.719077 1.89303 0
M  V30 13089 C 1269.78 -1.75325 0.84211 0
M  V30 13090 O 1269.04 -1.95071 -0.15683 0
M  V30 13091 C 1269.34 -1.4247 3.27776 0
M  V30 13092 C 1269 -0.526442 4.47816 0
M  V30 13093 C 1267.67 -0.279038 4.8039 0
M  V30 13094 C 1270.02 0.0937038 5.21116 0
M  V30 13095 C 1267.35 0.597277 5.83652 0
M  V30 13096 C 1269.7 0.957725 6.25308 0
M  V30 13097 C 1268.36 1.21458 6.56357 0
M  V30 13098 H 1267.63 -0.263129 0.692708 0
M  V30 13099 H 1270.28 0.0210252 1.91488 0
M  V30 13100 H 1268.58 -2.23813 3.21582 0
M  V30 13101 H 1270.28 -1.96466 3.49574 0
M  V30 13102 H 1266.87 -0.729426 4.22347 0
M  V30 13103 H 1271.06 -0.084469 4.96228 0
M  V30 13104 H 1266.31 0.804582 6.06083 0
M  V30 13105 H 1270.49 1.44476 6.81249 0
M  V30 13106 H 1268.11 1.89534 7.36193 0
M  V30 13107 N 1269.69 -1.54705 -0.300681 0
M  V30 13108 C 1270.93 -1.75189 -1.03345 0
M  V30 13109 C 1271.29 -0.531398 -1.84916 0
M  V30 13110 O 1270.58 0.476194 -1.85588 0
M  V30 13111 C 1270.78 -2.98173 -1.97047 0
M  V30 13112 C 1270.6 -4.32067 -1.24694 0
M  V30 13113 C 1269.37 -4.95825 -0.973967 0
M  V30 13114 C 1271.57 -5.1016 -0.651224 0
M  V30 13115 N 1269.55 -6.13503 -0.220737 0
M  V30 13116 C 1270.93 -6.19992 -0.0307781 0
M  V30 13117 C 1272.98 -4.94782 -0.556306 0
M  V30 13118 C 1271.68 -7.16122 0.675403 0
M  V30 13119 C 1273.71 -5.91243 0.136221 0
M  V30 13120 C 1273.07 -7.00444 0.745517 0
M  V30 13121 H 1269.17 -0.693643 -0.361087 0
M  V30 13122 H 1271.75 -1.92183 -0.312046 0
M  V30 13123 H 1269.93 -2.82604 -2.66439 0
M  V30 13124 H 1271.66 -3.07182 -2.63479 0
M  V30 13125 H 1268.41 -4.56193 -1.2722 0
M  V30 13126 H 1268.84 -6.7685 0.142402 0
M  V30 13127 H 1273.48 -4.10483 -1.01307 0
M  V30 13128 H 1271.2 -7.99962 1.14394 0
M  V30 13129 H 1274.78 -5.81422 0.209611 0
M  V30 13130 H 1273.66 -7.73801 1.27287 0
M  V30 13131 N 1271.17 0.563888 -1.47167 0
M  V30 13132 C 1272.41 1.31875 -1.53145 0
M  V30 13133 C 1272.74 1.94047 -0.192518 0
M  V30 13134 O 1272.01 1.79577 0.782872 0
M  V30 13135 H 1270.59 0.489694 -0.5641 0
M  V30 13136 H 1273.25 0.658976 -1.83422 0
M  V30 13137 H 1272.34 2.11574 -2.2944 0
M  V30 13138 N 1272.64 1.35187 0.810078 0
M  V30 13139 C 1273.89 1.28011 1.56389 0
M  V30 13140 C 1274.21 -0.14622 1.94451 0
M  V30 13141 O 1273.48 -1.08185 1.63318 0
M  V30 13142 H 1272.06 0.470837 0.579932 0
M  V30 13143 H 1274.73 1.69249 0.966476 0
M  V30 13144 H 1273.82 1.89362 2.4809 0
M  V30 13145 N 1274.12 -1.03182 1.19127 0
M  V30 13146 C 1275.35 -1.80165 1.01726 0
M  V30 13147 C 1275.77 -1.83742 -0.434095 0
M  V30 13148 O 1275.12 -1.27932 -1.30152 0
M  V30 13149 C 1275.17 -3.25354 1.57566 0
M  V30 13150 O 1274.89 -3.22042 2.9702 0
M  V30 13151 C 1276.4 -4.18948 1.44906 0
M  V30 13152 H 1273.62 -0.567078 0.358698 0
M  V30 13153 H 1276.16 -1.29982 1.57877 0
M  V30 13154 H 1274.31 -3.72738 1.0557 0
M  V30 13155 H 1274.73 -4.13061 3.23235 0
M  V30 13156 H 1276.2 -5.18723 1.88762 0
M  V30 13157 H 1276.68 -4.37383 0.399125 0
M  V30 13158 H 1277.29 -3.77435 1.96018 0
M  V30 13159 N 1275.6 -0.99472 -1.22242 0
M  V30 13160 C 1276.55 -0.546504 -2.24236 0
M  V30 13161 C 1277.52 0.422101 -1.60647 0
M  V30 13162 O 1278.7 0.326452 -1.87987 0
M  V30 13163 C 1275.84 0.130909 -3.44852 0
M  V30 13164 C 1274.96 -0.879653 -4.22949 0
M  V30 13165 C 1274.09 -0.175569 -5.3091 0
M  V30 13166 C 1273.13 -1.17438 -6.00729 0
M  V30 13167 N 1272.27 -0.498474 -7.00328 0
M  V30 13168 H 1277.11 -1.42099 -2.61939 0
M  V30 13169 H 1274.64 -0.711755 -1.28734 0
M  V30 13170 H 1276.6 0.540596 -4.13683 0
M  V30 13171 H 1275.23 0.96917 -3.07907 0
M  V30 13172 H 1274.28 -1.40765 -3.53397 0
M  V30 13173 H 1275.6 -1.64017 -4.71062 0
M  V30 13174 H 1274.75 0.290756 -6.06003 0
M  V30 13175 H 1273.49 0.617438 -4.83776 0
M  V30 13176 H 1272.49 -1.65131 -5.24416 0
M  V30 13177 H 1273.72 -1.96829 -6.4995 0
M  V30 13178 H 1271.66 0.275063 -6.55423 0
M  V30 13179 H 1271.58 -1.19741 -7.46457 0
M  V30 13180 H 1272.85 -0.0550119 -7.79481 0
M  V30 13181 N 1277.08 1.37613 -0.768148 0
M  V30 13182 C 1277.99 2.34103 -0.152649 0
M  V30 13183 C 1279 1.6 0.683811 0
M  V30 13184 O 1280.18 1.92112 0.604572 0
M  V30 13185 C 1277.25 3.39164 0.718954 0
M  V30 13186 C 1276.31 4.29092 -0.13355 0
M  V30 13187 C 1275.54 5.29135 0.696547 0
M  V30 13188 O 1275.76 5.36618 1.93383 0
M  V30 13189 O 1274.7 6.01804 0.107652 0
M  V30 13190 H 1278.52 2.88462 -0.949899 0
M  V30 13191 H 1276.11 1.39711 -0.529252 0
M  V30 13192 H 1277.99 4.03454 1.21665 0
M  V30 13193 H 1276.66 2.87137 1.49445 0
M  V30 13194 H 1275.57 3.67914 -0.677528 0
M  V30 13195 H 1276.9 4.84413 -0.872048 0
M  V30 13196 N 1278.56 0.518393 1.4883 0
M  V30 13197 C 1279.83 -0.0837498 1.95421 0
M  V30 13198 C 1280.21 -1.52435 1.46037 0
M  V30 13199 O 1279.56 -2.18093 0.681736 0
M  V30 13200 C 1279.77 0.0215333 3.48993 0
M  V30 13201 C 1281.12 -0.143615 4.24357 0
M  V30 13202 O 1282.14 -0.0528223 3.56161 0
M  V30 13203 O 1281 -0.332231 5.45489 0
M  V30 13204 H 1278.1 -0.0857132 0.822546 0
M  V30 13205 H 1280.64 0.582169 1.59402 0
M  V30 13206 H 1279.41 1.02549 3.77623 0
M  V30 13207 H 1279.04 -0.683756 3.91677 0
M  V30 13208 N 1280.03 -1.55556 0.252993 0
M  V30 13209 C 1281.31 -1.91022 -0.420696 0
M  V30 13210 C 1281.69 -1.17452 -1.75409 0
M  V30 13211 O 1281.04 -0.294 -2.26601 0
M  V30 13212 C 1281.25 -3.441 -0.582787 0
M  V30 13213 C 1282.6 -4.15468 -0.875873 0
M  V30 13214 O 1283.62 -3.49872 -0.668425 0
M  V30 13215 O 1282.48 -5.31508 -1.27128 0
M  V30 13216 H 1279.57 -0.7953 -0.226776 0
M  V30 13217 H 1282.12 -1.67072 0.297511 0
M  V30 13218 H 1280.89 -3.89673 0.356474 0
M  V30 13219 H 1280.52 -3.73933 -1.3513 0
M  V30 13220 N 1281.51 0.0200419 -1.57587 0
M  V30 13221 C 1282.76 0.708115 -1.88861 0
M  V30 13222 C 1283.07 1.76036 -0.852693 0
M  V30 13223 O 1284.28 2.50165 -1.05497 0
M  V30 13224 C 1282.74 1.31057 -3.3519 0
M  V30 13225 C 1282.34 0.294202 -4.47033 0
M  V30 13226 C 1284.09 1.97799 -3.756 0
M  V30 13227 C 1282 0.905508 -5.84427 0
M  V30 13228 H 1280.93 0.268236 -0.704674 0
M  V30 13229 H 1283.58 -0.0372162 -1.83462 0
M  V30 13230 H 1281.96 2.1059 -3.35362 0
M  V30 13231 H 1283.13 -0.475081 -4.58344 0
M  V30 13232 H 1281.45 -0.271644 -4.15513 0
M  V30 13233 H 1284.04 2.44404 -4.75574 0
M  V30 13234 H 1284.39 2.80004 -3.08064 0
M  V30 13235 H 1284.92 1.25028 -3.77641 0
M  V30 13236 H 1281.66 0.122685 -6.55385 0
M  V30 13237 H 1281.18 1.64442 -5.76818 0
M  V30 13238 H 1282.86 1.41016 -6.31446 0
M  V30 13239 N 1282.99 1.54862 0.292472 0
M  V30 13240 C 1284.24 1.74548 1.02661 0
M  V30 13241 C 1284.57 0.535895 1.86972 0
M  V30 13242 O 1283.82 -0.482016 1.89671 0
M  V30 13243 C 1284.12 2.99214 1.95463 0
M  V30 13244 C 1283.79 4.32628 1.2706 0
M  V30 13245 C 1282.45 4.68892 1.08138 0
M  V30 13246 C 1284.8 5.15296 0.782278 0
M  V30 13247 C 1282.13 5.85397 0.39081 0
M  V30 13248 C 1284.48 6.32512 0.105392 0
M  V30 13249 C 1283.14 6.67431 -0.0957097 0
M  V30 13250 H 1282.41 0.638717 0.375662 0
M  V30 13251 H 1285.06 1.89125 0.300672 0
M  V30 13252 H 1283.37 2.79454 2.74613 0
M  V30 13253 H 1285.06 3.1164 2.52352 0
M  V30 13254 H 1281.65 4.04113 1.42796 0
M  V30 13255 H 1285.84 4.87771 0.916151 0
M  V30 13256 H 1281.09 6.10989 0.224095 0
M  V30 13257 H 1285.27 6.95833 -0.280845 0
M  V30 13258 H 1282.89 7.57562 -0.63281 0
M  V30 13259 N 1284.47 -0.556076 1.47464 0
M  V30 13260 C 1285.43 -1.64515 1.59586 0
M  V30 13261 C 1286.43 -1.53751 0.470881 0
M  V30 13262 O 1287.62 -1.57889 0.735979 0
M  V30 13263 C 1284.75 -3.0406 1.54143 0
M  V30 13264 H 1285.95 -1.55116 2.56669 0
M  V30 13265 H 1283.5 -0.776087 1.35671 0
M  V30 13266 H 1284.23 -3.18991 0.584395 0
M  V30 13267 H 1284.02 -3.13282 2.3579 0
M  V30 13268 H 1285.51 -3.8329 1.65766 0
M  V30 13269 N 1285.95 -1.35615 -0.802897 0
M  V30 13270 C 1286.91 -1.28705 -1.89651 0
M  V30 13271 C 1287.91 -0.197681 -1.5958 0
M  V30 13272 O 1289.1 -0.451618 -1.68244 0
M  V30 13273 C 1286.23 -0.991941 -3.26149 0
M  V30 13274 H 1287.43 -2.25951 -1.97196 0
M  V30 13275 H 1284.98 -1.20192 -0.999179 0
M  V30 13276 H 1285.71 -0.0235051 -3.24291 0
M  V30 13277 H 1285.5 -1.78013 -3.49362 0
M  V30 13278 H 1286.99 -0.969298 -4.06195 0
M  V30 13279 N 1287.43 1.02549 -1.19673 0
M  V30 13280 C 1288.84 1.57454 -1.00325 0
M  V30 13281 C 1289.19 1.91136 0.442889 0
M  V30 13282 O 1288.31 1.7126 1.32284 0
M  V30 13283 C 1288.91 2.86091 -1.81486 0
M  V30 13284 C 1287.47 3.37557 -1.6653 0
M  V30 13285 C 1286.61 2.1096 -1.79975 0
M  V30 13286 H 1289.56 0.850364 -1.33994 0
M  V30 13287 H 1289.59 3.5713 -1.31296 0
M  V30 13288 H 1289.1 2.61546 -2.86733 0
M  V30 13289 H 1287.2 3.67083 -0.638834 0
M  V30 13290 H 1287.31 4.1036 -2.47269 0
M  V30 13291 H 1285.68 2.22993 -1.23071 0
M  V30 13292 H 1286.46 1.88852 -2.86688 0
M  V30 13293 N 1288.9 1.00119 1.21713 0
M  V30 13294 C 1290.13 0.700172 1.95224 0
M  V30 13295 C 1290.55 -0.730138 1.73351 0
M  V30 13296 O 1289.91 -1.50026 1.01794 0
M  V30 13297 C 1289.96 1.02202 3.45814 0
M  V30 13298 O 1289.06 0.125188 4.1221 0
M  V30 13299 H 1288.4 0.261238 0.610451 0
M  V30 13300 H 1290.93 1.34041 1.54578 0
M  V30 13301 H 1290.94 0.967293 3.96368 0
M  V30 13302 H 1289.62 2.06422 3.61058 0
M  V30 13303 H 1288.2 0.236114 3.72152 0
M  V30 13304 N 1290.38 -1.37203 0.775435 0
M  V30 13305 C 1291.63 -1.99601 0.341431 0
M  V30 13306 C 1291.96 -1.61555 -1.08306 0
M  V30 13307 O 1291.21 -0.855126 -1.76029 0
M  V30 13308 C 1291.51 -3.54725 0.436426 0
M  V30 13309 C 1291.18 -4.1255 1.8197 0
M  V30 13310 C 1289.84 -4.28056 2.19822 0
M  V30 13311 C 1292.19 -4.44222 2.7261 0
M  V30 13312 C 1289.52 -4.72538 3.47742 0
M  V30 13313 C 1291.87 -4.90131 3.99943 0
M  V30 13314 C 1290.53 -5.03842 4.37835 0
M  V30 13315 H 1289.8 -0.730391 0.124938 0
M  V30 13316 H 1292.45 -1.63914 0.990177 0
M  V30 13317 H 1290.76 -3.90681 -0.295852 0
M  V30 13318 H 1292.45 -4.00916 0.0818664 0
M  V30 13319 H 1289.04 -4.00911 1.51553 0
M  V30 13320 H 1293.23 -4.31824 2.44625 0
M  V30 13321 H 1288.48 -4.81341 3.76989 0
M  V30 13322 H 1292.66 -5.13604 4.70302 0
M  V30 13323 H 1290.28 -5.3807 5.37015 0
M  V30 13324 N 1291.86 -0.526279 -1.48553 0
M  V30 13325 C 1293.14 0.073385 -1.95462 0
M  V30 13326 C 1293.52 1.51658 -1.46843 0
M  V30 13327 O 1292.86 2.17729 -0.693293 0
M  V30 13328 C 1293.07 -0.040041 -3.48977 0
M  V30 13329 C 1294.42 0.121108 -4.24427 0
M  V30 13330 O 1295.45 0.0339335 -3.56184 0
M  V30 13331 O 1294.31 0.303297 -5.45658 0
M  V30 13332 H 1291.4 0.0813498 -0.822989 0
M  V30 13333 H 1293.95 -0.590614 -1.59091 0
M  V30 13334 H 1292.72 -1.0455 -3.77074 0
M  V30 13335 H 1292.34 0.662975 -3.92034 0
M  V30 13336 N 1293.34 1.5542 -0.261239 0
M  V30 13337 C 1294.61 1.91243 0.41056 0
M  V30 13338 C 1294.99 1.1838 1.74784 0
M  V30 13339 O 1294.34 0.306013 2.26442 0
M  V30 13340 C 1294.55 3.44404 0.56453 0
M  V30 13341 C 1295.9 4.15927 0.853827 0
M  V30 13342 O 1296.92 3.50222 0.649861 0
M  V30 13343 O 1295.78 5.32175 1.24308 0
M  V30 13344 H 1292.88 0.796491 0.222555 0
M  V30 13345 H 1295.42 1.66912 -0.306367 0
M  V30 13346 H 1294.2 3.89478 -0.377134 0
M  V30 13347 H 1293.82 3.74644 1.33145 0
M  V30 13348 N 1294.82 -0.0116844 1.57596 0
M  V30 13349 C 1295.76 -1.00684 2.07681 0
M  V30 13350 C 1296.73 -1.34858 0.969666 0
M  V30 13351 O 1297.92 -1.44896 1.24136 0
M  V30 13352 C 1295.06 -2.29729 2.57524 0
M  V30 13353 C 1294.17 -2.0156 3.82096 0
M  V30 13354 C 1293.31 -3.24601 4.20485 0
M  V30 13355 C 1292.34 -2.92066 5.37925 0
M  V30 13356 N 1291.48 -4.0761 5.71663 0
M  V30 13357 H 1296.32 -0.572787 2.92443 0
M  V30 13358 H 1293.86 -0.271184 1.44579 0
M  V30 13359 H 1295.82 -3.05152 2.84496 0
M  V30 13360 H 1294.45 -2.70824 1.75653 0
M  V30 13361 H 1293.5 -1.16556 3.62103 0
M  V30 13362 H 1294.81 -1.73572 4.67626 0
M  V30 13363 H 1293.96 -4.08379 4.48677 0
M  V30 13364 H 1292.7 -3.55718 3.3364 0
M  V30 13365 H 1291.71 -2.06693 5.09468 0
M  V30 13366 H 1292.93 -2.62209 6.26437 0
M  V30 13367 H 1290.88 -4.38645 4.87777 0
M  V30 13368 H 1290.8 -3.83105 6.51741 0
M  V30 13369 H 1292.06 -4.92211 6.04441 0
M  V30 13370 N 1296.29 -1.55015 -0.284256 0
M  V30 13371 C 1297.54 -1.74297 -1.01506 0
M  V30 13372 C 1297.86 -0.545134 -1.8785 0
M  V30 13373 O 1299.06 -0.620118 -2.64323 0
M  V30 13374 C 1297.52 -3.08438 -1.85456 0
M  V30 13375 C 1297.13 -4.35753 -1.04034 0
M  V30 13376 C 1298.87 -3.37073 -2.58035 0
M  V30 13377 C 1296.78 -5.60938 -1.87358 0
M  V30 13378 H 1295.71 -0.649656 -0.382705 0
M  V30 13379 H 1298.36 -1.81484 -0.271239 0
M  V30 13380 H 1296.74 -2.95259 -2.63891 0
M  V30 13381 H 1297.91 -4.59816 -0.300954 0
M  V30 13382 H 1296.23 -4.14178 -0.429616 0
M  V30 13383 H 1298.83 -4.27806 -3.20759 0
M  V30 13384 H 1299.17 -2.56698 -3.27738 0
M  V30 13385 H 1299.7 -3.51299 -1.86638 0
M  V30 13386 H 1296.44 -6.44029 -1.22096 0
M  V30 13387 H 1295.96 -5.41035 -2.58923 0
M  V30 13388 H 1297.64 -5.98819 -2.44999 0
M  V30 13389 N 1297.77 0.548248 -1.47757 0
M  V30 13390 C 1298.7 1.66409 -1.63799 0
M  V30 13391 C 1299.68 1.62973 -0.487211 0
M  V30 13392 O 1300.87 1.80455 -0.717612 0
M  V30 13393 C 1298 3.05035 -1.66046 0
M  V30 13394 C 1296.95 3.23322 -2.80441 0
M  V30 13395 C 1296.28 4.62824 -2.67765 0
M  V30 13396 C 1297.58 3.07837 -4.2194 0
M  V30 13397 H 1299.27 1.53239 -2.57212 0
M  V30 13398 H 1296.82 0.735783 -1.23783 0
M  V30 13399 H 1298.77 3.82951 -1.75859 0
M  V30 13400 H 1297.49 3.19185 -0.69199 0
M  V30 13401 H 1296.15 2.47816 -2.70153 0
M  V30 13402 H 1295.8 4.73786 -1.68927 0
M  V30 13403 H 1295.5 4.76007 -3.44515 0
M  V30 13404 H 1297.03 5.42864 -2.7952 0
M  V30 13405 H 1298.44 3.75563 -4.33157 0
M  V30 13406 H 1296.84 3.32525 -4.99547 0
M  V30 13407 H 1297.91 2.04474 -4.3968 0
M  V30 13408 N 1299.25 1.36039 0.795694 0
M  V30 13409 C 1300.16 1.31991 1.93948 0
M  V30 13410 C 1301.18 0.223064 1.72564 0
M  V30 13411 O 1302.35 0.454344 1.96208 0
M  V30 13412 C 1299.42 1.10228 3.28711 0
M  V30 13413 C 1298.48 2.29328 3.62914 0
M  V30 13414 C 1297.71 2.08595 4.91247 0
M  V30 13415 O 1297.93 1.05793 5.60503 0
M  V30 13416 O 1296.87 2.96222 5.23962 0
M  V30 13417 H 1300.69 2.28274 2.00311 0
M  V30 13418 H 1298.28 1.16521 0.935048 0
M  V30 13419 H 1300.16 0.999842 4.09367 0
M  V30 13420 H 1298.84 0.17003 3.23253 0
M  V30 13421 H 1297.74 2.4514 2.8259 0
M  V30 13422 H 1299.08 3.21038 3.73089 0
M  V30 13423 N 1300.73 -1.01913 1.20215 0
M  V30 13424 C 1301.97 -1.7573 1.01226 0
M  V30 13425 C 1302.31 -1.88799 -0.45481 0
M  V30 13426 O 1301.58 -1.41196 -1.33768 0
M  V30 13427 C 1301.87 -3.17795 1.69348 0
M  V30 13428 C 1301.72 -3.12536 3.23483 0
M  V30 13429 C 1303.04 -4.16409 1.42448 0
M  V30 13430 H 1300.16 -0.637889 0.369144 0
M  V30 13431 H 1302.8 -1.18907 1.48193 0
M  V30 13432 H 1300.95 -3.66311 1.29416 0
M  V30 13433 H 1302.62 -2.71843 3.72692 0
M  V30 13434 H 1300.86 -2.49997 3.54519 0
M  V30 13435 H 1301.53 -4.12949 3.66302 0
M  V30 13436 H 1304.01 -3.76537 1.77086 0
M  V30 13437 H 1302.89 -5.13983 1.92648 0
M  V30 13438 H 1303.15 -4.407 0.351574 0
M  V30 13439 N 1302.21 -1.00763 -1.2118 0
M  V30 13440 C 1303.45 -0.692851 -1.90598 0
M  V30 13441 C 1303.79 0.774698 -1.78079 0
M  V30 13442 O 1303.06 1.56186 -1.15914 0
M  V30 13443 C 1303.34 -1.11792 -3.42308 0
M  V30 13444 C 1303.2 -2.64511 -3.63805 0
M  V30 13445 C 1304.52 -0.682314 -4.34779 0
M  V30 13446 H 1301.63 -0.253175 -0.69215 0
M  V30 13447 H 1304.28 -1.25378 -1.4276 0
M  V30 13448 H 1302.43 -0.640665 -3.83181 0
M  V30 13449 H 1304.1 -3.20021 -3.32242 0
M  V30 13450 H 1302.34 -3.05903 -3.0758 0
M  V30 13451 H 1303.01 -2.89306 -4.70113 0
M  V30 13452 H 1305.49 -1.09247 -4.01503 0
M  V30 13453 H 1304.36 -1.00787 -5.39568 0
M  V30 13454 H 1304.63 0.416441 -4.40134 0
M  V30 13455 N 1303.68 1.3679 -0.7827 0
M  V30 13456 C 1304.65 2.28472 -0.182525 0
M  V30 13457 C 1305.65 1.48524 0.616217 0
M  V30 13458 O 1306.84 1.68599 0.438197 0
M  V30 13459 C 1303.97 3.32588 0.748202 0
M  V30 13460 H 1305.16 2.83059 -0.99085 0
M  V30 13461 H 1302.72 1.46241 -0.551658 0
M  V30 13462 H 1303.45 2.83145 1.58112 0
M  V30 13463 H 1303.24 3.91698 0.177481 0
M  V30 13464 H 1304.73 4.01073 1.16321 0
M  V30 13465 N 1305.16 0.53415 1.48272 0
M  V30 13466 C 1306.41 -0.000450626 2.017 0
M  V30 13467 C 1306.72 -1.34926 1.41613 0
M  V30 13468 O 1307.93 -1.97246 1.86564 0
M  V30 13469 C 1306.39 -0.0511883 3.59864 0
M  V30 13470 C 1305.99 1.29298 4.28936 0
M  V30 13471 C 1307.74 -0.534397 4.21123 0
M  V30 13472 C 1305.65 1.2026 5.79044 0
M  V30 13473 H 1304.58 -0.00393844 0.75399 0
M  V30 13474 H 1307.23 0.678554 1.70493 0
M  V30 13475 H 1305.61 -0.795358 3.8793 0
M  V30 13476 H 1306.78 2.05305 4.12537 0
M  V30 13477 H 1305.1 1.71226 3.79566 0
M  V30 13478 H 1307.69 -0.620048 5.31093 0
M  V30 13479 H 1308.04 -1.54114 3.86723 0
M  V30 13480 H 1308.57 0.154215 3.97501 0
M  V30 13481 H 1305.31 2.18463 6.18025 0
M  V30 13482 H 1304.83 0.483971 5.97844 0
M  V30 13483 H 1306.51 0.895005 6.4078 0
M  V30 13484 N 1306.64 -1.55279 0.269478 0
M  V30 13485 C 1307.89 -1.99471 -0.348913 0
M  V30 13486 C 1308.22 -1.15784 -1.56283 0
M  V30 13487 O 1307.47 -0.214115 -1.94525 0
M  V30 13488 C 1307.77 -3.48773 -0.780535 0
M  V30 13489 C 1307.44 -4.49705 0.328113 0
M  V30 13490 C 1306.1 -4.77024 0.632544 0
M  V30 13491 C 1308.45 -5.09984 1.07544 0
M  V30 13492 C 1305.78 -5.61893 1.68798 0
M  V30 13493 C 1308.13 -5.95999 2.12057 0
M  V30 13494 C 1306.79 -6.21642 2.4314 0
M  V30 13495 H 1306.06 -0.729918 -0.127676 0
M  V30 13496 H 1308.71 -1.87651 0.382015 0
M  V30 13497 H 1307.02 -3.5804 -1.59105 0
M  V30 13498 H 1308.71 -3.80369 -1.26966 0
M  V30 13499 H 1305.3 -4.28524 0.0807131 0
M  V30 13500 H 1309.49 -4.88906 0.853506 0
M  V30 13501 H 1304.74 -5.80009 1.93389 0
M  V30 13502 H 1308.92 -6.41743 2.70442 0
M  V30 13503 H 1306.54 -6.87198 3.25059 0
M  V30 13504 N 1308.12 0.00332656 -1.576 0
M  V30 13505 C 1309.4 0.725722 -1.81639 0
M  V30 13506 C 1309.78 1.92173 -0.87365 0
M  V30 13507 O 1309.12 2.28365 0.0783931 0
M  V30 13508 C 1309.33 1.13458 -3.30043 0
M  V30 13509 C 1310.68 1.53982 -3.95695 0
M  V30 13510 O 1311.71 1.22846 -3.34346 0
M  V30 13511 O 1310.56 2.11866 -5.03761 0
M  V30 13512 H 1307.66 0.353083 -0.747838 0
M  V30 13513 H 1310.2 -0.0218724 -1.69686 0
M  V30 13514 H 1308.98 0.281925 -3.90283 0
M  V30 13515 H 1308.6 1.94138 -3.46982 0
M  V30 13516 N 1309.6 1.55164 0.276031 0
M  V30 13517 C 1310.82 1.7998 1.03063 0
M  V30 13518 C 1311.25 0.569769 1.79263 0
M  V30 13519 O 1310.6 -0.48054 1.74816 0
M  V30 13520 C 1310.65 3.02209 1.96728 0
M  V30 13521 O 1309.76 2.77083 3.05449 0
M  V30 13522 H 1309.1 0.594963 0.294814 0
M  V30 13523 H 1311.63 2.02301 0.305861 0
M  V30 13524 H 1311.64 3.3086 2.38738 0
M  V30 13525 H 1310.31 3.91386 1.40677 0
M  V30 13526 H 1308.89 2.5952 2.67776 0
M  V30 13527 N 1311.07 -0.540404 1.48045 0
M  V30 13528 C 1312.01 -1.66223 1.56349 0
M  V30 13529 C 1312.99 -1.57227 0.414552 0
M  V30 13530 O 1314.17 -1.77847 0.624709 0
M  V30 13531 C 1311.3 -3.04568 1.48176 0
M  V30 13532 C 1310.34 -3.31957 2.67781 0
M  V30 13533 S 1311.18 -3.19368 4.29842 0
M  V30 13534 C 1312.33 -4.60177 4.2425 0
M  V30 13535 H 1312.56 -1.58927 2.51256 0
M  V30 13536 H 1310.1 -0.722554 1.3645 0
M  V30 13537 H 1312.06 -3.84359 1.44147 0
M  V30 13538 H 1310.72 -3.09314 0.54625 0
M  V30 13539 H 1309.91 -4.32855 2.58172 0
M  V30 13540 H 1309.51 -2.59817 2.69019 0
M  V30 13541 H 1311.8 -5.51482 3.9354 0
M  V30 13542 H 1312.75 -4.74842 5.25291 0
M  V30 13543 H 1313.15 -4.39011 3.54865 0
M  V30 13544 N 1312.55 -1.36459 -0.788468 0
M  V30 13545 C 1313.48 -1.26727 -1.90979 0
M  V30 13546 C 1314.5 -0.186572 -1.61727 0
M  V30 13547 O 1315.69 -0.441364 -1.72957 0
M  V30 13548 C 1312.79 -0.932838 -3.25809 0
M  V30 13549 C 1311.96 -2.11562 -3.82832 0
M  V30 13550 C 1311.02 -1.75409 -4.96103 0
M  V30 13551 O 1310.04 -2.47508 -5.1257 0
M  V30 13552 N 1311.25 -0.688327 -5.76405 0
M  V30 13553 H 1314.01 -2.2334 -1.99848 0
M  V30 13554 H 1311.57 -1.29865 -0.966784 0
M  V30 13555 H 1313.56 -0.672131 -3.9908 0
M  V30 13556 H 1312.13 -0.0558103 -3.1255 0
M  V30 13557 H 1311.35 -2.53907 -3.01538 0
M  V30 13558 H 1312.64 -2.9058 -4.17661 0
M  V30 13559 H 1312.04 -0.0896854 -5.65629 0
M  V30 13560 H 1310.6 -0.487446 -6.49975 0
M  V30 13561 N 1314.03 1.01274 -1.20754 0
M  V30 13562 C 1314.96 2.09567 -0.903157 0
M  V30 13563 C 1315.94 1.61941 0.146287 0
M  V30 13564 O 1317.13 1.8849 0.0190177 0
M  V30 13565 C 1314.25 3.36838 -0.354682 0
M  V30 13566 C 1313.3 4.03361 -1.38572 0
M  V30 13567 S 1314.13 4.46775 -2.95216 0
M  V30 13568 C 1315.29 5.77242 -2.41955 0
M  V30 13569 H 1315.52 2.35063 -1.82024 0
M  V30 13570 H 1313.05 1.14444 -1.03643 0
M  V30 13571 H 1315.01 4.10476 -0.0447882 0
M  V30 13572 H 1313.67 3.09407 0.540962 0
M  V30 13573 H 1312.87 4.94939 -0.951408 0
M  V30 13574 H 1312.47 3.35964 -1.64329 0
M  V30 13575 H 1314.76 6.52608 -1.81958 0
M  V30 13576 H 1315.7 6.25475 -3.31944 0
M  V30 13577 H 1316.11 5.3369 -1.83942 0
M  V30 13578 N 1315.51 1.01404 1.20644 0
M  V30 13579 C 1316.47 0.586941 2.21557 0
M  V30 13580 C 1317.47 -0.341543 1.57131 0
M  V30 13581 O 1318.66 -0.130585 1.7371 0
M  V30 13582 C 1315.79 -0.143248 3.40599 0
M  V30 13583 H 1316.99 1.47964 2.60858 0
M  V30 13584 H 1314.54 0.803551 1.34063 0
M  V30 13585 H 1315.28 -1.05097 3.06798 0
M  V30 13586 H 1315.06 0.523716 3.88587 0
M  V30 13587 H 1316.55 -0.429504 4.15385 0
M  V30 13588 N 1316.99 -1.36373 0.789944 0
M  V30 13589 C 1318.23 -1.99523 0.363119 0
M  V30 13590 C 1318.57 -1.6255 -1.0626 0
M  V30 13591 O 1317.84 -0.880551 -1.73426 0
M  V30 13592 C 1318.12 -3.56215 0.527526 0
M  V30 13593 C 1317.98 -4.0304 1.99697 0
M  V30 13594 C 1319.3 -4.40063 -0.0571079 0
M  V30 13595 H 1316.42 -0.724824 0.133412 0
M  V30 13596 H 1319.06 -1.61778 0.996381 0
M  V30 13597 H 1317.21 -3.88498 -0.0115636 0
M  V30 13598 H 1318.88 -3.81241 2.59717 0
M  V30 13599 H 1317.12 -3.54561 2.49939 0
M  V30 13600 H 1317.79 -5.12001 2.06297 0
M  V30 13601 H 1320.27 -4.14143 0.403082 0
M  V30 13602 H 1319.15 -5.4883 0.0879494 0
M  V30 13603 H 1319.41 -4.26901 -1.14926 0
M  V30 13604 N 1318.47 -0.542005 -1.47987 0
M  V30 13605 C 1319.69 -0.0146835 -2.07395 0
M  V30 13606 C 1320.12 1.26266 -1.39422 0
M  V30 13607 O 1319.47 1.75259 -0.464118 0
M  V30 13608 C 1319.52 0.179937 -3.60151 0
M  V30 13609 O 1318.63 1.24596 -3.93128 0
M  V30 13610 H 1317.97 -0.0445076 -0.662507 0
M  V30 13611 H 1320.5 -0.753352 -1.90226 0
M  V30 13612 H 1320.51 0.398876 -4.06046 0
M  V30 13613 H 1319.18 -0.753093 -4.09025 0
M  V30 13614 H 1317.76 1.00872 -3.58997 0
M  V30 13615 N 1319.94 1.55134 -0.277709 0
M  V30 13616 C 1321.36 1.59417 0.0763615 0
M  V30 13617 C 1321.56 1.29491 1.54384 0
M  V30 13618 O 1320.62 1.05703 2.2931 0
M  V30 13619 C 1321.93 2.99194 -0.300607 0
M  V30 13620 C 1323.48 3.1202 -0.247438 0
M  V30 13621 C 1323.95 4.54068 -0.598884 0
M  V30 13622 N 1325.44 4.59917 -0.550534 0
M  V30 13623 C 1326.18 5.67859 -0.795235 0
M  V30 13624 N 1325.67 6.83936 -1.10469 0
M  V30 13625 N 1327.47 5.5742 -0.723859 0
M  V30 13626 H 1319.62 1.72851 -1.23435 0
M  V30 13627 H 1321.88 0.806137 -0.498846 0
M  V30 13628 H 1321.59 3.25937 -1.32129 0
M  V30 13629 H 1321.46 3.75504 0.35729 0
M  V30 13630 H 1323.85 2.8504 0.763959 0
M  V30 13631 H 1323.93 2.37917 -0.939629 0
M  V30 13632 H 1323.57 4.81774 -1.60798 0
M  V30 13633 H 1323.5 5.26474 0.115126 0
M  V30 13634 H 1325.99 3.76531 -0.321341 0
M  V30 13635 H 1326.31 7.62159 -1.278 0
M  V30 13636 H 1324.65 6.85545 -1.14249 0
M  V30 13637 H 1327.84 4.65613 -0.481925 0
M  V30 13638 H 1328.02 6.41465 -0.917944 0
M  V30 13639 N 1321.42 0.00503138 1.57599 0
M  V30 13640 C 1322.67 -0.679766 1.91068 0
M  V30 13641 C 1323 -1.73144 0.879486 0
M  V30 13642 O 1322.28 -1.94237 -0.101116 0
M  V30 13643 C 1322.56 -1.3183 3.35101 0
M  V30 13644 C 1322.41 -0.277833 4.48941 0
M  V30 13645 C 1323.73 -2.24308 3.78647 0
M  V30 13646 H 1320.85 -0.245646 0.694857 0
M  V30 13647 H 1323.49 0.057357 1.89913 0
M  V30 13648 H 1321.64 -1.94657 3.36216 0
M  V30 13649 H 1323.31 0.351136 4.59962 0
M  V30 13650 H 1321.56 0.399365 4.31958 0
M  V30 13651 H 1322.23 -0.763759 5.46691 0
M  V30 13652 H 1324.7 -1.71494 3.79116 0
M  V30 13653 H 1323.58 -2.6595 4.80169 0
M  V30 13654 H 1323.84 -3.12427 3.12797 0
M  V30 13655 N 1322.9 -1.55308 -0.267798 0
M  V30 13656 C 1324.15 -1.75364 -0.996515 0
M  V30 13657 C 1324.46 -0.565028 -1.87261 0
M  V30 13658 O 1325.67 -0.648119 -2.63651 0
M  V30 13659 C 1324.12 -3.10388 -1.82175 0
M  V30 13660 C 1323.73 -4.36832 -0.994062 0
M  V30 13661 C 1325.48 -3.39791 -2.54445 0
M  V30 13662 C 1323.38 -5.62893 -1.81398 0
M  V30 13663 H 1322.31 -0.653679 -0.375793 0
M  V30 13664 H 1324.96 -1.81762 -0.251975 0
M  V30 13665 H 1323.35 -2.98041 -2.60744 0
M  V30 13666 H 1324.52 -4.6011 -0.252167 0
M  V30 13667 H 1322.83 -4.1461 -0.385662 0
M  V30 13668 H 1325.43 -4.31184 -3.16203 0
M  V30 13669 H 1325.77 -2.60159 -3.24997 0
M  V30 13670 H 1326.31 -3.53259 -1.82902 0
M  V30 13671 H 1323.05 -6.45287 -1.15258 0
M  V30 13672 H 1322.57 -5.43751 -2.5317 0
M  V30 13673 H 1324.25 -6.01384 -2.38634 0
M  V30 13674 N 1324.38 0.532545 -1.4833 0
M  V30 13675 C 1325.32 1.63737 -1.62661 0
M  V30 13676 C 1326.29 1.59348 -0.468758 0
M  V30 13677 O 1327.48 1.77812 -0.691921 0
M  V30 13678 C 1324.62 3.02006 -1.66993 0
M  V30 13679 C 1323.73 3.16648 -2.93867 0
M  V30 13680 C 1322.87 4.4546 -2.89376 0
M  V30 13681 C 1321.91 4.53622 -4.10966 0
M  V30 13682 N 1321.04 5.7382 -4.04567 0
M  V30 13683 H 1325.88 1.50828 -2.57012 0
M  V30 13684 H 1323.42 0.734348 -1.27459 0
M  V30 13685 H 1325.38 3.82105 -1.67486 0
M  V30 13686 H 1324.01 3.13693 -0.76135 0
M  V30 13687 H 1323.06 2.29817 -3.0313 0
M  V30 13688 H 1324.37 3.1854 -3.8384 0
M  V30 13689 H 1323.53 5.33848 -2.88256 0
M  V30 13690 H 1322.27 4.46085 -1.97127 0
M  V30 13691 H 1321.27 3.63642 -4.12364 0
M  V30 13692 H 1322.5 4.54738 -5.04371 0
M  V30 13693 H 1320.44 5.75347 -3.15137 0
M  V30 13694 H 1320.36 5.77196 -4.88243 0
M  V30 13695 H 1321.63 6.64502 -4.07502 0
M  V30 13696 N 1325.86 1.36875 0.78122 0
M  V30 13697 C 1326.79 1.34559 1.9083 0
M  V30 13698 C 1327.77 0.215713 1.68727 0
M  V30 13699 O 1328.95 0.41462 1.89722 0
M  V30 13700 C 1326.08 1.14233 3.27976 0
M  V30 13701 C 1325.04 2.24132 3.64621 0
M  V30 13702 C 1324.36 1.8894 5.00206 0
M  V30 13703 C 1325.66 3.66266 3.72353 0
M  V30 13704 H 1327.36 2.28871 1.93025 0
M  V30 13705 H 1324.9 1.10171 0.927275 0
M  V30 13706 H 1326.85 1.11246 4.06451 0
M  V30 13707 H 1325.58 0.163747 3.26189 0
M  V30 13708 H 1324.24 2.26259 2.88448 0
M  V30 13709 H 1323.89 0.896351 4.94949 0
M  V30 13710 H 1323.59 2.62525 5.25694 0
M  V30 13711 H 1325.11 1.87523 5.81092 0
M  V30 13712 H 1326.52 3.66321 4.41001 0
M  V30 13713 H 1324.92 4.38825 4.09332 0
M  V30 13714 H 1325.99 4.00578 2.7325 0
M  V30 13715 N 1327.33 -1.00632 1.21289 0
M  V30 13716 C 1328.27 -2.0954 0.928753 0
M  V30 13717 C 1329.28 -1.62565 -0.0875212 0
M  V30 13718 O 1330.47 -1.77912 0.144808 0
M  V30 13719 C 1327.57 -3.36844 0.37276 0
M  V30 13720 C 1326.74 -4.1291 1.44305 0
M  V30 13721 C 1325.8 -5.18506 0.896534 0
M  V30 13722 O 1324.83 -5.46841 1.57966 0
M  V30 13723 N 1326.03 -5.79781 -0.288888 0
M  V30 13724 H 1328.79 -2.34499 1.86629 0
M  V30 13725 H 1326.35 -1.17104 1.11796 0
M  V30 13726 H 1328.35 -4.04699 -0.00722737 0
M  V30 13727 H 1326.92 -3.09053 -0.469572 0
M  V30 13728 H 1326.14 -3.39876 1.99694 0
M  V30 13729 H 1327.42 -4.60508 2.16356 0
M  V30 13730 H 1326.82 -5.5911 -0.860951 0
M  V30 13731 H 1325.38 -6.48936 -0.6104 0
M  V30 13732 N 1328.81 -1.02043 -1.20104 0
M  V30 13733 C 1329.76 -0.564679 -2.20897 0
M  V30 13734 C 1330.75 0.382041 -1.56299 0
M  V30 13735 O 1331.94 0.204384 -1.75816 0
M  V30 13736 C 1329.07 0.0917516 -3.43177 0
M  V30 13737 C 1328.15 -0.876903 -4.14935 0
M  V30 13738 N 1328.54 -2.03596 -4.63014 0
M  V30 13739 C 1326.84 -0.698538 -4.40496 0
M  V30 13740 C 1327.54 -2.64621 -5.18026 0
M  V30 13741 N 1326.52 -1.92651 -5.08317 0
M  V30 13742 H 1330.32 -1.44825 -2.5574 0
M  V30 13743 H 1327.83 -0.88628 -1.36084 0
M  V30 13744 H 1329.83 0.43582 -4.14616 0
M  V30 13745 H 1328.49 0.971116 -3.09838 0
M  V30 13746 H 1329.5 -2.41573 -4.58108 0
M  V30 13747 H 1326.18 0.132449 -4.1729 0
M  V30 13748 H 1327.57 -3.62732 -5.65575 0
M  V30 13749 N 1330.29 1.35952 -0.797165 0
M  V30 13750 C 1331.24 2.27336 -0.173856 0
M  V30 13751 C 1332.22 1.47328 0.646778 0
M  V30 13752 O 1333.42 1.69626 0.505581 0
M  V30 13753 C 1330.55 3.36411 0.684297 0
M  V30 13754 C 1329.63 4.2385 -0.145551 0
M  V30 13755 N 1330.02 4.91263 -1.20391 0
M  V30 13756 C 1328.32 4.45938 0.074359 0
M  V30 13757 C 1329.02 5.56006 -1.70974 0
M  V30 13758 N 1328 5.33989 -1.0177 0
M  V30 13759 H 1331.8 2.76945 -0.983794 0
M  V30 13760 H 1329.31 1.49369 -0.637388 0
M  V30 13761 H 1331.31 4.00817 1.14681 0
M  V30 13762 H 1329.97 2.88355 1.49269 0
M  V30 13763 H 1330.98 4.93004 -1.58644 0
M  V30 13764 H 1327.66 4.08701 0.852644 0
M  V30 13765 H 1329.05 6.19818 -2.59375 0
M  V30 13766 N 1331.77 0.549846 1.47697 0
M  V30 13767 C 1333.18 0.209085 1.58225 0
M  V30 13768 C 1333.38 -1.28823 1.54941 0
M  V30 13769 O 1332.44 -2.0679 1.44893 0
M  V30 13770 C 1333.75 0.829219 2.89041 0
M  V30 13771 C 1335.3 0.79977 3.0261 0
M  V30 13772 C 1335.78 1.39884 4.36115 0
M  V30 13773 N 1337.27 1.36169 4.42733 0
M  V30 13774 C 1338 1.79492 5.44583 0
M  V30 13775 N 1337.5 2.30637 6.53283 0
M  V30 13776 N 1339.29 1.70608 5.35583 0
M  V30 13777 H 1331.44 1.52275 1.48074 0
M  V30 13778 H 1333.71 0.634579 0.704283 0
M  V30 13779 H 1333.41 1.88122 2.97158 0
M  V30 13780 H 1333.29 0.317916 3.75858 0
M  V30 13781 H 1335.67 -0.243525 2.94093 0
M  V30 13782 H 1335.75 1.34875 2.17353 0
M  V30 13783 H 1335.4 2.44116 4.45387 0
M  V30 13784 H 1335.33 0.825362 5.20092 0
M  V30 13785 H 1337.82 0.987505 3.64769 0
M  V30 13786 H 1338.13 2.61637 7.27163 0
M  V30 13787 H 1336.48 2.34643 6.54192 0
M  V30 13788 H 1339.67 1.30434 4.4956 0
M  V30 13789 H 1339.84 2.0469 6.14822 0
M  V30 13790 N 1333.25 -1.54984 0.285932 0
M  V30 13791 C 1334.5 -1.99008 -0.328433 0
M  V30 13792 C 1334.81 -1.17787 -1.56158 0
M  V30 13793 O 1336.01 -1.52006 -2.24959 0
M  V30 13794 C 1334.47 -3.54241 -0.635688 0
M  V30 13795 C 1334.08 -4.44252 0.578271 0
M  V30 13796 C 1335.82 -4.06828 -1.21208 0
M  V30 13797 C 1333.73 -5.90892 0.245003 0
M  V30 13798 H 1332.66 -0.743314 -0.126494 0
M  V30 13799 H 1335.31 -1.79258 0.39228 0
M  V30 13800 H 1333.69 -3.69834 -1.41559 0
M  V30 13801 H 1334.87 -4.40431 1.35489 0
M  V30 13802 H 1333.18 -4.02358 1.07225 0
M  V30 13803 H 1335.78 -5.13941 -1.47542 0
M  V30 13804 H 1336.12 -3.56515 -2.14948 0
M  V30 13805 H 1336.65 -3.94718 -0.494222 0
M  V30 13806 H 1333.39 -6.45323 1.15057 0
M  V30 13807 H 1332.91 -5.97757 -0.494636 0
M  V30 13808 H 1334.59 -6.46805 -0.158891 0
M  V30 13809 N 1334.72 -0.0133892 -1.57594 0
M  V30 13810 C 1335.69 0.958601 -2.08191 0
M  V30 13811 C 1336.69 1.26408 -0.993865 0
M  V30 13812 O 1337.88 1.20703 -1.25604 0
M  V30 13813 C 1335.01 2.27971 -2.5346 0
M  V30 13814 H 1336.2 0.520686 -2.95345 0
M  V30 13815 H 1333.76 0.234351 -1.54533 0
M  V30 13816 H 1334.49 2.76424 -1.69588 0
M  V30 13817 H 1334.28 2.07116 -3.32935 0
M  V30 13818 H 1335.77 2.97672 -2.92884 0
M  V30 13819 N 1336.2 1.55448 0.259558 0
M  V30 13820 C 1337.13 1.85678 1.34373 0
M  V30 13821 C 1338.15 0.742155 1.449 0
M  V30 13822 O 1339.34 1.02015 1.46476 0
M  V30 13823 C 1336.44 2.01668 2.72366 0
M  V30 13824 C 1335.61 3.32434 2.84265 0
M  V30 13825 C 1334.67 3.38322 4.03019 0
M  V30 13826 O 1333.69 4.11616 3.93143 0
M  V30 13827 N 1334.9 2.66697 5.1561 0
M  V30 13828 H 1337.66 2.79261 1.08781 0
M  V30 13829 H 1335.22 1.5553 0.449672 0
M  V30 13830 H 1337.21 2.02963 3.50126 0
M  V30 13831 H 1335.78 1.14889 2.90722 0
M  V30 13832 H 1335 3.43564 1.93281 0
M  V30 13833 H 1336.29 4.18649 2.89155 0
M  V30 13834 H 1335.69 2.06857 5.26523 0
M  V30 13835 H 1334.25 2.73699 5.91551 0
M  V30 13836 N 1337.68 -0.524672 1.4861 0
M  V30 13837 C 1338.92 -1.29064 1.58499 0
M  V30 13838 C 1339.28 -1.90294 0.255378 0
M  V30 13839 O 1340.49 -2.6782 0.229289 0
M  V30 13840 C 1338.76 -2.34693 2.69544 0
M  V30 13841 S 1340.32 -3.20944 2.99233 0
M  V30 13842 H 1337.13 -0.438948 0.559326 0
M  V30 13843 H 1339.74 -0.597119 1.86158 0
M  V30 13844 H 1338.44 -1.88199 3.64704 0
M  V30 13845 H 1337.97 -3.08745 2.43804 0
M  V30 13846 H 1339.99 -4.34883 2.38937 0
M  V30 13847 N 1339.16 -1.37287 -0.77395 0
M  V30 13848 C 1340.57 -1.18039 -1.0742 0
M  V30 13849 C 1340.77 -0.0150339 -2.01494 0
M  V30 13850 O 1339.83 0.645562 -2.44108 0
M  V30 13851 C 1341.14 -2.49808 -1.67382 0
M  V30 13852 C 1342.69 -2.5631 -1.7965 0
M  V30 13853 C 1343.17 -3.88204 -2.43025 0
M  V30 13854 N 1344.66 -3.89634 -2.50478 0
M  V30 13855 C 1345.39 -4.88437 -3.00361 0
M  V30 13856 N 1344.89 -5.97635 -3.50434 0
M  V30 13857 N 1346.68 -4.75843 -2.99215 0
M  V30 13858 H 1338.83 -2.11875 -0.149269 0
M  V30 13859 H 1341.1 -0.939203 -0.128846 0
M  V30 13860 H 1340.8 -3.35433 -1.05726 0
M  V30 13861 H 1340.68 -2.66737 -2.66704 0
M  V30 13862 H 1343.06 -1.71094 -2.40439 0
M  V30 13863 H 1343.14 -2.43266 -0.790894 0
M  V30 13864 H 1342.79 -4.73834 -1.82876 0
M  V30 13865 H 1342.72 -3.98551 -3.44187 0
M  V30 13866 H 1345.21 -3.10751 -2.15039 0
M  V30 13867 H 1345.52 -6.6898 -3.86893 0
M  V30 13868 H 1343.87 -6.01283 -3.48545 0
M  V30 13869 H 1347.06 -3.89656 -2.59395 0
M  V30 13870 H 1347.23 -5.52999 -3.37781 0
M  V30 13871 N 1340.64 0.999871 -1.21821 0
M  V30 13872 C 1341.86 1.77405 -1.06467 0
M  V30 13873 C 1342.28 1.84828 0.385227 0
M  V30 13874 O 1341.64 1.31338 1.26714 0
M  V30 13875 C 1341.69 3.21062 -1.66137 0
M  V30 13876 O 1341.41 3.14054 -3.05454 0
M  V30 13877 C 1342.91 4.14958 -1.55963 0
M  V30 13878 H 1340.13 0.557368 -0.373607 0
M  V30 13879 H 1342.67 1.2575 -1.61267 0
M  V30 13880 H 1340.83 3.69808 -1.15416 0
M  V30 13881 H 1341.24 4.04346 -3.34073 0
M  V30 13882 H 1342.72 5.13536 -2.02448 0
M  V30 13883 H 1343.19 4.36171 -0.514949 0
M  V30 13884 H 1343.8 3.72105 -2.05956 0
M  V30 13885 N 1342.11 1.02678 1.19562 0
M  V30 13886 C 1343.36 0.723086 1.89471 0
M  V30 13887 C 1343.69 -0.746269 1.79289 0
M  V30 13888 O 1342.97 -1.54322 1.18384 0
M  V30 13889 C 1343.25 1.17224 3.40486 0
M  V30 13890 C 1343.1 2.70266 3.5955 0
M  V30 13891 C 1344.42 0.751397 4.33638 0
M  V30 13892 H 1341.54 0.264155 0.688034 0
M  V30 13893 H 1344.18 1.27633 1.40747 0
M  V30 13894 H 1342.33 0.701544 3.82113 0
M  V30 13895 H 1344.01 3.25266 3.27108 0
M  V30 13896 H 1342.25 3.10758 3.02675 0
M  V30 13897 H 1342.92 2.96748 4.65451 0
M  V30 13898 H 1345.4 1.15621 3.99714 0
M  V30 13899 H 1344.27 1.09358 5.37896 0
M  V30 13900 H 1344.53 -0.346367 4.40741 0
M  V30 13901 N 1343.59 -1.35528 0.804364 0
M  V30 13902 C 1344.54 -2.29832 0.211186 0
M  V30 13903 C 1345.51 -1.52704 -0.653503 0
M  V30 13904 O 1346.69 -1.81152 -0.599052 0
M  V30 13905 C 1343.83 -3.39188 -0.636054 0
M  V30 13906 C 1342.95 -4.31283 0.248824 0
M  V30 13907 C 1342.08 -5.2773 -0.60621 0
M  V30 13908 C 1341.12 -6.11463 0.279205 0
M  V30 13909 N 1340.26 -7.00054 -0.535672 0
M  V30 13910 H 1345.1 -2.79971 1.0208 0
M  V30 13911 H 1342.64 -1.37793 0.514931 0
M  V30 13912 H 1344.59 -4.01254 -1.14241 0
M  V30 13913 H 1343.22 -2.90331 -1.41095 0
M  V30 13914 H 1342.28 -3.70241 0.873263 0
M  V30 13915 H 1343.59 -4.90046 0.930417 0
M  V30 13916 H 1342.74 -5.95158 -1.17778 0
M  V30 13917 H 1341.48 -4.69458 -1.32138 0
M  V30 13918 H 1340.49 -5.42984 0.863066 0
M  V30 13919 H 1341.71 -6.71813 0.9922 0
M  V30 13920 H 1339.66 -6.44273 -1.23486 0
M  V30 13921 H 1339.57 -7.55949 0.0879213 0
M  V30 13922 H 1340.84 -7.71833 -1.09059 0
M  V30 13923 N 1345.07 -0.557671 -1.47404 0
M  V30 13924 C 1346.32 -0.0316382 -2.01675 0
M  V30 13925 C 1346.63 1.32656 -1.43742 0
M  V30 13926 O 1347.84 1.94253 -1.89678 0
M  V30 13927 C 1346.3 -0.00606931 -3.59899 0
M  V30 13928 C 1345.9 -1.36106 -4.26825 0
M  V30 13929 C 1347.65 0.467332 -4.2192 0
M  V30 13930 C 1345.55 -1.29457 -5.77057 0
M  V30 13931 H 1344.48 -0.00805738 -0.753957 0
M  V30 13932 H 1347.14 -0.705592 -1.69392 0
M  V30 13933 H 1345.52 0.733541 -3.89147 0
M  V30 13934 H 1346.69 -2.11842 -4.09218 0
M  V30 13935 H 1345.01 -1.77243 -3.76794 0
M  V30 13936 H 1347.6 0.535478 -5.32012 0
M  V30 13937 H 1347.95 1.47942 -3.89126 0
M  V30 13938 H 1348.48 -0.217434 -3.97205 0
M  V30 13939 H 1345.22 -2.28267 -6.14471 0
M  V30 13940 H 1344.74 -0.579022 -5.96999 0
M  V30 13941 H 1346.42 -0.996834 -6.39275 0
M  V30 13942 N 1346.55 1.54831 -0.294147 0
M  V30 13943 C 1347.78 2.04411 0.319938 0
M  V30 13944 C 1348.19 1.17174 1.4804 0
M  V30 13945 O 1347.55 0.195881 1.81446 0
M  V30 13946 C 1347.6 3.52924 0.782751 0
M  V30 13947 O 1347.32 4.36844 -0.331512 0
M  V30 13948 C 1348.82 4.18474 1.4627 0
M  V30 13949 H 1346.04 0.667286 0.0704973 0
M  V30 13950 H 1348.59 1.9989 -0.431785 0
M  V30 13951 H 1346.74 3.57828 1.48451 0
M  V30 13952 H 1347.16 5.24493 0.0275743 0
M  V30 13953 H 1348.63 5.23933 1.73776 0
M  V30 13954 H 1349.11 3.67793 2.40052 0
M  V30 13955 H 1349.71 4.17626 0.804291 0
M  V30 13956 N 1348.03 0.0217466 1.57585 0
M  V30 13957 C 1349.28 -0.657793 1.90672 0
M  V30 13958 C 1349.59 -1.73713 0.899066 0
M  V30 13959 O 1350.8 -2.4728 1.12092 0
M  V30 13960 C 1349.25 -1.22124 3.38547 0
M  V30 13961 C 1348.86 -0.175575 4.47656 0
M  V30 13962 C 1350.6 -1.87771 3.80713 0
M  V30 13963 C 1348.51 -0.750239 5.86622 0
M  V30 13964 H 1347.44 -0.249459 0.711538 0
M  V30 13965 H 1350.09 0.0858449 1.83299 0
M  V30 13966 H 1348.47 -2.01625 3.40828 0
M  V30 13967 H 1349.65 0.596436 4.56924 0
M  V30 13968 H 1347.96 0.381715 4.14647 0
M  V30 13969 H 1350.56 -2.3171 4.81887 0
M  V30 13970 H 1350.9 -2.71737 3.1538 0
M  V30 13971 H 1351.44 -1.14971 3.80823 0
M  V30 13972 H 1348.17 0.0511222 6.5548 0
M  V30 13973 H 1347.69 -1.49091 5.80975 0
M  V30 13974 H 1349.37 -1.24225 6.34962 0
M  V30 13975 N 1349.51 -1.55583 -0.251311 0
M  V30 13976 C 1350.75 -1.77209 -0.979966 0
M  V30 13977 C 1351.08 -0.585279 -1.85485 0
M  V30 13978 O 1350.34 0.431559 -1.90882 0
M  V30 13979 C 1350.63 -3.04291 -1.87461 0
M  V30 13980 C 1350.3 -4.35844 -1.15545 0
M  V30 13981 C 1348.96 -4.71594 -0.956679 0
M  V30 13982 C 1351.31 -5.17189 -0.645381 0
M  V30 13983 C 1348.64 -5.86227 -0.235465 0
M  V30 13984 C 1350.99 -6.32569 0.0623441 0
M  V30 13985 C 1349.66 -6.66943 0.272634 0
M  V30 13986 H 1348.93 -0.648452 -0.358595 0
M  V30 13987 H 1351.58 -1.89856 -0.250423 0
M  V30 13988 H 1349.88 -2.86637 -2.67108 0
M  V30 13989 H 1351.58 -3.18221 -2.44001 0
M  V30 13990 H 1348.17 -4.07757 -1.32031 0
M  V30 13991 H 1352.35 -4.90028 -0.786505 0
M  V30 13992 H 1347.61 -6.11369 -0.0620232 0
M  V30 13993 H 1351.78 -6.94844 0.465234 0
M  V30 13994 H 1349.41 -7.55617 0.833442 0
M  V30 13995 N 1350.98 0.516783 -1.48886 0
M  V30 13996 C 1352.23 1.26936 -1.57263 0
M  V30 13997 C 1352.55 1.93337 -0.254156 0
M  V30 13998 O 1351.82 1.81977 0.725345 0
M  V30 13999 H 1350.4 0.4715 -0.579393 0
M  V30 14000 H 1353.06 0.600289 -1.85425 0
M  V30 14001 H 1352.16 2.04167 -2.36055 0
M  V30 14002 N 1352.46 1.37696 0.766659 0
M  V30 14003 C 1353.74 1.23715 1.51506 0
M  V30 14004 C 1354.12 -0.167091 2.10438 0
M  V30 14005 O 1353.47 -1.17526 1.95959 0
M  V30 14006 C 1353.68 2.33715 2.59188 0
M  V30 14007 C 1355.02 2.71504 3.26451 0
M  V30 14008 O 1356.05 2.32929 2.69486 0
M  V30 14009 O 1354.91 3.37981 4.29454 0
M  V30 14010 H 1352 0.483046 0.671264 0
M  V30 14011 H 1354.55 1.49489 0.803188 0
M  V30 14012 H 1353.32 3.27729 2.13797 0
M  V30 14013 H 1352.94 2.09433 3.3797 0
M  V30 14014 N 1353.94 -0.993397 1.22349 0
M  V30 14015 C 1354.85 -2.11771 1.00947 0
M  V30 14016 C 1355.87 -1.73949 -0.0420679 0
M  V30 14017 O 1357.04 -2.00837 0.150548 0
M  V30 14018 C 1354.11 -3.41654 0.589359 0
M  V30 14019 C 1353.17 -3.93579 1.71446 0
M  V30 14020 C 1352.4 -5.17264 1.3143 0
M  V30 14021 O 1352.62 -5.70074 0.192876 0
M  V30 14022 O 1351.56 -5.62929 2.13059 0
M  V30 14023 H 1355.38 -2.32708 1.95142 0
M  V30 14024 H 1352.97 -1.10144 1.00939 0
M  V30 14025 H 1354.85 -4.19813 0.365403 0
M  V30 14026 H 1353.53 -3.22077 -0.323738 0
M  V30 14027 H 1352.43 -3.16596 1.99294 0
M  V30 14028 H 1353.77 -4.17588 2.6054 0
M  V30 14029 N 1355.42 -1.03311 -1.19015 0
M  V30 14030 C 1356.67 -0.730593 -1.88432 0
M  V30 14031 C 1356.99 0.743392 -1.80274 0
M  V30 14032 O 1356.26 1.5359 -1.21601 0
M  V30 14033 H 1354.84 -0.267253 -0.697556 0
M  V30 14034 H 1357.5 -1.30824 -1.44468 0
M  V30 14035 H 1356.59 -1.02867 -2.9466 0
M  V30 14036 N 1356.9 1.35099 -0.81154 0
M  V30 14037 C 1358.14 1.9892 -0.394815 0
M  V30 14038 C 1358.47 1.6422 1.0366 0
M  V30 14039 O 1357.75 0.908031 1.72003 0
M  V30 14040 C 1358.03 3.55331 -0.58413 0
M  V30 14041 C 1357.89 3.99812 -2.06084 0
M  V30 14042 C 1359.2 4.40098 -0.0129096 0
M  V30 14043 H 1356.32 0.72261 -0.144926 0
M  V30 14044 H 1358.97 1.60173 -1.02199 0
M  V30 14045 H 1357.12 3.88468 -0.0502446 0
M  V30 14046 H 1358.79 3.77061 -2.65749 0
M  V30 14047 H 1357.03 3.50539 -2.55548 0
M  V30 14048 H 1357.7 5.08655 -2.14416 0
M  V30 14049 H 1360.18 4.13449 -0.468917 0
M  V30 14050 H 1359.05 5.4862 -0.175252 0
M  V30 14051 H 1359.31 4.28675 1.0812 0
M  V30 14052 N 1358.37 0.56548 1.47106 0
M  V30 14053 C 1359.78 0.134289 1.86216 0
M  V30 14054 C 1360.14 -1.29815 1.47114 0
M  V30 14055 O 1359.26 -1.97787 0.878017 0
M  V30 14056 C 1359.86 0.236931 3.37971 0
M  V30 14057 C 1358.41 -0.139275 3.76142 0
M  V30 14058 C 1357.56 0.580743 2.71151 0
M  V30 14059 H 1360.51 0.774723 1.38505 0
M  V30 14060 H 1360.53 -0.542301 3.76616 0
M  V30 14061 H 1360.05 1.27958 3.66399 0
M  V30 14062 H 1358.15 -1.18272 3.53331 0
M  V30 14063 H 1358.26 0.225045 4.78571 0
M  V30 14064 H 1356.62 0.0228963 2.5469 0
M  V30 14065 H 1357.41 1.62471 3.0242 0
M  V30 14066 N 1359.85 -1.54672 0.302354 0
M  V30 14067 C 1361.1 -2.00463 -0.306978 0
M  V30 14068 C 1361.43 -1.19043 -1.53435 0
M  V30 14069 O 1360.71 -0.267255 -1.92655 0
M  V30 14070 C 1360.99 -3.53958 -0.662229 0
M  V30 14071 C 1360.84 -4.46118 0.574378 0
M  V30 14072 C 1362.16 -4.14174 -1.48821 0
M  V30 14073 H 1359.28 -0.728729 -0.110102 0
M  V30 14074 H 1361.92 -1.85419 0.414722 0
M  V30 14075 H 1360.07 -3.66909 -1.2771 0
M  V30 14076 H 1361.74 -4.45071 1.21284 0
M  V30 14077 H 1359.99 -4.1666 1.20736 0
M  V30 14078 H 1360.66 -5.51281 0.281651 0
M  V30 14079 H 1363.13 -4.04668 -0.968674 0
M  V30 14080 H 1362.01 -5.2173 -1.70556 0
M  V30 14081 H 1362.27 -3.66136 -2.47784 0
M  V30 14082 N 1361.33 -0.0301034 -1.57571 0
M  V30 14083 C 1362.26 0.980187 -2.07183 0
M  V30 14084 C 1363.28 1.2882 -0.995449 0
M  V30 14085 O 1364.46 1.25268 -1.27162 0
M  V30 14086 C 1361.56 2.30734 -2.48224 0
M  V30 14087 C 1360.74 2.18434 -3.78953 0
M  V30 14088 C 1359.8 3.34092 -4.06533 0
M  V30 14089 O 1358.82 3.10934 -4.76769 0
M  V30 14090 N 1360.02 4.57914 -3.56784 0
M  V30 14091 H 1362.79 0.556877 -2.94481 0
M  V30 14092 H 1360.35 0.156632 -1.61141 0
M  V30 14093 H 1362.34 3.06936 -2.63766 0
M  V30 14094 H 1360.91 2.64703 -1.66287 0
M  V30 14095 H 1360.13 1.26953 -3.73198 0
M  V30 14096 H 1361.42 2.07421 -4.64601 0
M  V30 14097 H 1360.82 4.79623 -2.99964 0
M  V30 14098 H 1359.38 5.31281 -3.77603 0
M  V30 14099 N 1362.81 1.55714 0.243056 0
M  V30 14100 C 1364.05 1.77989 0.971993 0
M  V30 14101 C 1364.39 0.596038 1.84827 0
M  V30 14102 O 1363.66 -0.40554 1.90225 0
M  V30 14103 C 1363.95 3.10178 1.82925 0
M  V30 14104 C 1363.8 4.38974 0.9809 0
M  V30 14105 C 1365.12 3.38628 2.81103 0
M  V30 14106 H 1362.24 0.64754 0.35194 0
M  V30 14107 H 1364.88 1.88449 0.242237 0
M  V30 14108 H 1363.03 3.01392 2.45143 0
M  V30 14109 H 1364.7 4.59756 0.377113 0
M  V30 14110 H 1362.94 4.3286 0.285414 0
M  V30 14111 H 1363.61 5.27858 1.61461 0
M  V30 14112 H 1366.09 3.47403 2.29021 0
M  V30 14113 H 1364.97 4.32331 3.38203 0
M  V30 14114 H 1365.23 2.5973 3.57761 0
M  V30 14115 N 1364.29 -0.50888 1.49158 0
M  V30 14116 C 1365.56 -1.27021 1.48745 0
M  V30 14117 C 1365.94 -2.10045 0.210772 0
M  V30 14118 O 1365.29 -2.13773 -0.807061 0
M  V30 14119 C 1365.5 -2.13367 2.76181 0
M  V30 14120 C 1366.85 -2.72815 3.25357 0
M  V30 14121 O 1367.87 -2.23639 2.77243 0
M  V30 14122 O 1366.73 -3.62316 4.09133 0
M  V30 14123 H 1363.83 -0.574387 0.594986 0
M  V30 14124 H 1366.37 -0.523798 1.61414 0
M  V30 14125 H 1365.14 -1.51941 3.60596 0
M  V30 14126 H 1364.77 -2.95215 2.66334 0
M  V30 14127 N 1365.76 -1.381 -0.759346 0
M  V30 14128 C 1367.01 -1.33727 -1.5153 0
M  V30 14129 C 1367.33 0.0739504 -1.9486 0
M  V30 14130 O 1366.6 1.02049 -1.67221 0
M  V30 14131 H 1365.18 -0.492037 -0.562058 0
M  V30 14132 H 1367.85 -1.72719 -0.902995 0
M  V30 14133 H 1366.94 -1.98439 -2.40891 0
M  V30 14134 N 1367.24 0.986894 -1.22875 0
M  V30 14135 C 1368.15 2.11232 -1.02069 0
M  V30 14136 C 1369.17 1.73969 0.0328424 0
M  V30 14137 O 1370.34 2.00754 -0.161197 0
M  V30 14138 C 1367.41 3.41337 -0.60747 0
M  V30 14139 C 1366.47 3.92665 -1.73531 0
M  V30 14140 C 1365.7 5.1656 -1.34171 0
M  V30 14141 O 1365.93 5.69964 -0.223106 0
M  V30 14142 O 1364.86 5.61791 -2.16041 0
M  V30 14143 H 1368.69 2.3167 -1.96374 0
M  V30 14144 H 1366.27 1.09607 -1.01522 0
M  V30 14145 H 1368.15 4.19613 -0.387661 0
M  V30 14146 H 1366.83 3.22244 0.306653 0
M  V30 14147 H 1365.74 3.15534 -2.0097 0
M  V30 14148 H 1367.07 4.162 -2.62751 0
M  V30 14149 N 1368.72 1.0394 1.18466 0
M  V30 14150 C 1369.68 0.633804 2.20262 0
M  V30 14151 C 1370.68 -0.308136 1.5782 0
M  V30 14152 O 1371.87 -0.0937087 1.73948 0
M  V30 14153 C 1369.01 -0.0709693 3.40826 0
M  V30 14154 H 1370.2 1.53463 2.57661 0
M  V30 14155 H 1367.75 0.831806 1.32328 0
M  V30 14156 H 1368.49 -0.985659 3.08958 0
M  V30 14157 H 1368.27 0.606023 3.87388 0
M  V30 14158 H 1369.76 -0.341298 4.16203 0
M  V30 14159 N 1370.2 -1.34667 0.818693 0
M  V30 14160 C 1371.44 -1.99131 0.414527 0
M  V30 14161 C 1371.8 -1.63747 -1.01018 0
M  V30 14162 O 1371.09 -0.896699 -1.69322 0
M  V30 14163 C 1371.29 -3.53157 0.549059 0
M  V30 14164 C 1371.12 -4.03505 1.98529 0
M  V30 14165 C 1369.89 -4.32296 2.61627 0
M  V30 14166 C 1372.08 -4.2118 2.95147 0
M  V30 14167 N 1370.07 -4.68651 3.96534 0
M  V30 14168 C 1371.44 -4.60668 4.14952 0
M  V30 14169 C 1373.49 -4.03418 2.91819 0
M  V30 14170 C 1372.19 -4.8425 5.31878 0
M  V30 14171 C 1374.22 -4.28164 4.07958 0
M  V30 14172 C 1373.58 -4.67934 5.26514 0
M  V30 14173 H 1369.68 -0.75607 0.199704 0
M  V30 14174 H 1372.27 -1.63154 1.0625 0
M  V30 14175 H 1370.44 -3.88339 -0.0689894 0
M  V30 14176 H 1372.17 -4.04527 0.118304 0
M  V30 14177 H 1368.92 -4.23051 2.12896 0
M  V30 14178 H 1369.35 -4.9107 4.66025 0
M  V30 14179 H 1373.99 -3.71802 2.01303 0
M  V30 14180 H 1371.71 -5.14734 6.22956 0
M  V30 14181 H 1375.29 -4.15961 4.06777 0
M  V30 14182 H 1374.17 -4.86707 6.14887 0
M  V30 14183 N 1371.68 -0.573274 -1.46804 0
M  V30 14184 C 1372.92 -0.0553432 -2.02724 0
M  V30 14185 C 1373.26 1.29753 -1.44492 0
M  V30 14186 O 1372.53 1.84804 -0.606455 0
M  V30 14187 C 1372.81 0.0205511 -3.60094 0
M  V30 14188 C 1372.67 -1.36055 -4.2873 0
M  V30 14189 C 1373.99 0.725944 -4.34071 0
M  V30 14190 H 1371.1 -0.0215858 -0.736684 0
M  V30 14191 H 1373.75 -0.738657 -1.75054 0
M  V30 14192 H 1371.9 0.602481 -3.838 0
M  V30 14193 H 1373.57 -1.98692 -4.16316 0
M  V30 14194 H 1371.81 -1.93087 -3.88458 0
M  V30 14195 H 1372.48 -1.26001 -5.37427 0
M  V30 14196 H 1374.96 0.231677 -4.15455 0
M  V30 14197 H 1373.83 0.74805 -5.43779 0
M  V30 14198 H 1374.1 1.78536 -4.04447 0
M  V30 14199 N 1373.15 1.5451 -0.310553 0
M  V30 14200 C 1374.09 2.2134 0.595098 0
M  V30 14201 C 1375.1 1.20917 1.09009 0
M  V30 14202 O 1376.29 1.47458 1.0059 0
M  V30 14203 C 1373.39 2.85384 1.82782 0
M  V30 14204 C 1372.56 4.11826 1.47372 0
M  V30 14205 C 1371.62 4.59584 2.56259 0
M  V30 14206 O 1370.65 5.24567 2.20949 0
M  V30 14207 N 1371.85 4.32709 3.86967 0
M  V30 14208 H 1374.61 2.99691 0.0229291 0
M  V30 14209 H 1372.17 1.61351 -0.133173 0
M  V30 14210 H 1374.17 3.14263 2.54992 0
M  V30 14211 H 1372.74 2.10816 2.30815 0
M  V30 14212 H 1371.96 3.89853 0.583826 0
M  V30 14213 H 1373.24 4.94138 1.21265 0
M  V30 14214 H 1372.64 3.80669 4.18458 0
M  V30 14215 H 1371.2 4.66275 4.55446 0
M  V30 14216 N 1374.63 0.0384594 1.57553 0
M  V30 14217 C 1376.04 -0.499057 1.79906 0
M  V30 14218 C 1376.4 -1.7169 0.949577 0
M  V30 14219 O 1375.52 -2.15788 0.162584 0
M  V30 14220 C 1376.12 -0.912155 3.2629 0
M  V30 14221 C 1374.67 -1.39473 3.49606 0
M  V30 14222 C 1373.82 -0.363859 2.74902 0
M  V30 14223 H 1376.77 0.264433 1.56481 0
M  V30 14224 H 1376.79 -1.77592 3.36513 0
M  V30 14225 H 1376.31 -0.0255928 3.88092 0
M  V30 14226 H 1374.41 -2.3009 2.93068 0
M  V30 14227 H 1374.52 -1.39566 4.58321 0
M  V30 14228 H 1372.88 -0.833993 2.40659 0
M  V30 14229 H 1373.67 0.514398 3.39424 0
M  V30 14230 N 1376.11 -1.55841 -0.234795 0
M  V30 14231 C 1377.52 -1.68555 -0.802886 0
M  V30 14232 C 1377.87 -0.638107 -1.85533 0
M  V30 14233 O 1377 0.21333 -2.15346 0
M  V30 14234 C 1377.59 -3.0558 -1.46309 0
M  V30 14235 C 1376.15 -3.20192 -1.97874 0
M  V30 14236 C 1375.3 -2.64457 -0.834136 0
M  V30 14237 H 1378.25 -1.58697 -0.0103759 0
M  V30 14238 H 1378.27 -3.007 -2.33152 0
M  V30 14239 H 1377.78 -3.81792 -0.696868 0
M  V30 14240 H 1375.88 -2.48825 -2.77339 0
M  V30 14241 H 1376 -4.27251 -2.1678 0
M  V30 14242 H 1374.36 -2.22593 -1.23791 0
M  V30 14243 H 1375.14 -3.43205 -0.0807988 0
M  V30 14244 N 1377.59 0.500963 -1.49426 0
M  V30 14245 C 1378.84 1.25261 -1.58601 0
M  V30 14246 C 1379.16 1.93056 -0.274647 0
M  V30 14247 O 1378.43 1.82736 0.706003 0
M  V30 14248 H 1377.01 0.465328 -0.584362 0
M  V30 14249 H 1379.67 0.580588 -1.86052 0
M  V30 14250 H 1378.77 2.01652 -2.38208 0
M  V30 14251 N 1379.07 1.38501 0.752011 0
M  V30 14252 C 1380.32 1.34112 1.50655 0
M  V30 14253 C 1380.63 -0.0657661 1.95489 0
M  V30 14254 O 1381.84 -0.232199 2.70505 0
M  V30 14255 C 1380.29 2.35514 2.72142 0
M  V30 14256 C 1379.9 3.81831 2.34326 0
M  V30 14257 C 1381.64 2.40171 3.50026 0
M  V30 14258 C 1379.55 4.74915 3.52434 0
M  V30 14259 H 1378.48 0.498519 0.565681 0
M  V30 14260 H 1381.13 1.64064 0.821913 0
M  V30 14261 H 1379.51 1.98607 3.42595 0
M  V30 14262 H 1380.69 4.27685 1.7153 0
M  V30 14263 H 1379 3.80308 1.69573 0
M  V30 14264 H 1381.6 3.06913 4.37845 0
M  V30 14265 H 1381.94 1.42111 3.91293 0
M  V30 14266 H 1382.48 2.75884 2.86588 0
M  V30 14267 H 1379.21 5.74176 3.16232 0
M  V30 14268 H 1378.73 4.33753 4.14268 0
M  V30 14269 H 1380.41 4.93003 4.18995 0
M  V30 14270 N 1380.55 -0.980364 1.23396 0
M  V30 14271 C 1381.79 -1.71592 1.06015 0
M  V30 14272 C 1382.11 -1.91401 -0.403103 0
M  V30 14273 O 1383.31 -2.62405 -0.696853 0
M  V30 14274 C 1381.77 -3.08795 1.84861 0
M  V30 14275 C 1381.38 -2.96873 3.35515 0
M  V30 14276 C 1383.12 -3.8631 1.75968 0
M  V30 14277 C 1381.03 -4.29308 4.06753 0
M  V30 14278 H 1379.96 -0.643423 0.393095 0
M  V30 14279 H 1382.61 -1.09345 1.47363 0
M  V30 14280 H 1380.99 -3.71797 1.36318 0
M  V30 14281 H 1382.17 -2.4296 3.91544 0
M  V30 14282 H 1380.48 -2.32833 3.45221 0
M  V30 14283 H 1383.08 -4.84355 2.26504 0
M  V30 14284 H 1383.42 -4.09983 0.722464 0
M  V30 14285 H 1383.95 -3.3001 2.22122 0
M  V30 14286 H 1380.69 -4.10831 5.10782 0
M  V30 14287 H 1380.21 -4.83086 3.55511 0
M  V30 14288 H 1381.89 -4.97995 4.1305 0
M  V30 14289 N 1382.02 -1.04567 -1.17913 0
M  V30 14290 C 1382.97 -0.641119 -2.21717 0
M  V30 14291 C 1383.94 0.353585 -1.62293 0
M  V30 14292 O 1385.13 0.246427 -1.89202 0
M  V30 14293 C 1382.27 -0.0154726 -3.45097 0
M  V30 14294 C 1381.38 -1.05825 -4.18838 0
M  V30 14295 C 1380.51 -0.400588 -5.29687 0
M  V30 14296 C 1379.55 -1.42811 -5.95207 0
M  V30 14297 N 1378.69 -0.795059 -6.97584 0
M  V30 14298 H 1383.53 -1.5308 -2.55676 0
M  V30 14299 H 1381.07 -0.765715 -1.25599 0
M  V30 14300 H 1383.02 0.364653 -4.15603 0
M  V30 14301 H 1381.65 0.837704 -3.11741 0
M  V30 14302 H 1380.71 -1.55627 -3.47109 0
M  V30 14303 H 1382.02 -1.83849 -4.63682 0
M  V30 14304 H 1381.17 0.0334682 -6.06691 0
M  V30 14305 H 1379.91 0.411696 -4.85959 0
M  V30 14306 H 1378.92 -1.87225 -5.1694 0
M  V30 14307 H 1380.14 -2.24218 -6.41017 0
M  V30 14308 H 1378.09 -0.00317202 -6.56 0
M  V30 14309 H 1378 -1.51293 -7.40707 0
M  V30 14310 H 1379.27 -0.385567 -7.78546 0
M  V30 14311 N 1383.5 1.34231 -0.825823 0
M  V30 14312 C 1384.75 1.97454 -0.411661 0
M  V30 14313 C 1385.06 1.66193 1.03147 0
M  V30 14314 O 1386.27 2.22929 1.54968 0
M  V30 14315 C 1384.73 3.53318 -0.685145 0
M  V30 14316 C 1384.33 3.9347 -2.14208 0
M  V30 14317 C 1386.08 4.23158 -0.337291 0
M  V30 14318 C 1383.98 5.42258 -2.3603 0
M  V30 14319 H 1382.91 0.738889 -0.150196 0
M  V30 14320 H 1385.57 1.53033 -1.01258 0
M  V30 14321 H 1383.95 3.95998 -0.0140178 0
M  V30 14322 H 1385.12 3.61888 -2.85261 0
M  V30 14323 H 1383.44 3.36575 -2.45165 0
M  V30 14324 H 1386.03 5.32558 -0.47813 0
M  V30 14325 H 1386.38 4.10053 0.718499 0
M  V30 14326 H 1386.91 3.85965 -0.963113 0
M  V30 14327 H 1383.65 5.60352 -3.40126 0
M  V30 14328 H 1383.17 5.75345 -1.69524 0
M  V30 14329 H 1384.85 6.08976 -2.18533 0
M  V30 14330 N 1384.98 0.581051 1.46498 0
M  V30 14331 C 1386.23 0.0660934 2.02692 0
M  V30 14332 C 1386.56 -1.28985 1.45178 0
M  V30 14333 O 1385.83 -1.84479 0.616247 0
M  V30 14334 C 1386.12 -0.00145411 3.601 0
M  V30 14335 C 1385.97 1.38327 4.28002 0
M  V30 14336 C 1387.29 -0.702914 4.3445 0
M  V30 14337 H 1384.41 0.0254923 0.736559 0
M  V30 14338 H 1387.05 0.74793 1.7466 0
M  V30 14339 H 1385.2 -0.582118 3.84114 0
M  V30 14340 H 1386.87 2.00897 4.15257 0
M  V30 14341 H 1385.11 1.95144 3.87429 0
M  V30 14342 H 1385.79 1.28849 5.36751 0
M  V30 14343 H 1388.26 -0.209641 4.15572 0
M  V30 14344 H 1387.14 -0.719202 5.44168 0
M  V30 14345 H 1387.4 -1.76389 4.05388 0
M  V30 14346 N 1386.46 -1.54343 0.318742 0
M  V30 14347 C 1387.41 -2.20892 -0.564849 0
M  V30 14348 C 1388.39 -1.18782 -1.08534 0
M  V30 14349 O 1389.58 -1.44431 -1.02316 0
M  V30 14350 C 1386.71 -2.96661 -1.72763 0
M  V30 14351 C 1385.8 -4.06105 -1.22226 0
M  V30 14352 N 1386.19 -5.03916 -0.436203 0
M  V30 14353 C 1384.49 -4.19968 -1.50142 0
M  V30 14354 C 1385.19 -5.81466 -0.164875 0
M  V30 14355 N 1384.16 -5.38406 -0.74966 0
M  V30 14356 H 1387.97 -2.93868 0.0430622 0
M  V30 14357 H 1385.48 -1.61923 0.124362 0
M  V30 14358 H 1387.48 -3.42819 -2.37236 0
M  V30 14359 H 1386.14 -2.25206 -2.33907 0
M  V30 14360 H 1387.15 -5.17839 -0.0794815 0
M  V30 14361 H 1383.83 -3.59726 -2.11905 0
M  V30 14362 H 1385.22 -6.70271 0.467617 0
M  V30 14363 N 1387.94 -0.0468143 -1.5753 0
M  V30 14364 C 1388.88 0.929065 -2.11275 0
M  V30 14365 C 1389.85 1.31166 -1.01905 0
M  V30 14366 O 1391.04 1.40189 -1.29428 0
M  V30 14367 C 1388.18 2.20012 -2.65873 0
M  V30 14368 C 1387.29 1.8724 -3.89314 0
M  V30 14369 C 1386.43 3.08772 -4.32242 0
M  V30 14370 C 1385.46 2.719 -5.48395 0
M  V30 14371 N 1384.6 3.86112 -5.86397 0
M  V30 14372 H 1389.44 0.463854 -2.94368 0
M  V30 14373 H 1386.98 0.217338 -1.45486 0
M  V30 14374 H 1388.94 2.94383 -2.95626 0
M  V30 14375 H 1387.57 2.64118 -1.85584 0
M  V30 14376 H 1386.62 1.03037 -3.6618 0
M  V30 14377 H 1387.93 1.56096 -4.73746 0
M  V30 14378 H 1387.08 3.91446 -4.63525 0
M  V30 14379 H 1385.82 3.4309 -3.46613 0
M  V30 14380 H 1384.83 1.87642 -5.16789 0
M  V30 14381 H 1386.05 2.38779 -6.35737 0
M  V30 14382 H 1384 4.2024 -5.03721 0
M  V30 14383 H 1383.92 3.58652 -6.65511 0
M  V30 14384 H 1385.18 4.69438 -6.22293 0
M  V30 14385 N 1389.41 1.55964 0.226527 0
M  V30 14386 C 1390.36 1.92857 1.30034 0
M  V30 14387 C 1391.36 0.810008 1.48779 0
M  V30 14388 O 1392.56 0.994801 1.50012 0
M  V30 14389 H 1388.94 0.612807 0.435857 0
M  V30 14390 H 1390.91 2.82469 0.96196 0
M  V30 14391 C 1389.66 2.25735 2.6446 0
M  V30 14392 H 1388.98 3.11317 2.50842 0
M  V30 14393 H 1390.42 2.55437 3.3842 0
M  V30 14394 C 1388.88 1.08074 3.19095 0
M  V30 14395 O 1389.41 0.339279 4.00265 0
M  V30 14396 N 1387.62 0.86589 2.774 0
M  V30 14397 H 1387.16 1.47055 2.11501 0
M  V30 14398 H 1387.12 0.0803566 3.14297 0
M  V30 14399 N 1390.89 -0.493031 1.4969 0
M  V30 14400 C 1392.31 -0.824908 1.36629 0
M  V30 14401 C 1392.51 -1.97378 0.405487 0
M  V30 14402 O 1391.56 -2.51993 -0.159933 0
M  V30 14403 C 1392.88 -1.15761 2.77524 0
M  V30 14404 C 1394.43 -1.26536 2.86282 0
M  V30 14405 C 1394.9 -1.63131 4.27963 0
M  V30 14406 N 1396.39 -1.70165 4.30811 0
M  V30 14407 C 1397.13 -1.99942 5.37411 0
M  V30 14408 N 1396.62 -2.27888 6.54247 0
M  V30 14409 N 1398.42 -2.0126 5.24834 0
M  V30 14410 H 1390.57 0.264433 2.10748 0
M  V30 14411 H 1392.83 0.0557306 0.94636 0
M  V30 14412 H 1392.54 -0.386714 3.49567 0
M  V30 14413 H 1392.41 -2.09915 3.13393 0
M  V30 14414 H 1394.8 -2.02696 2.14472 0
M  V30 14415 H 1394.88 -0.304137 2.53986 0
M  V30 14416 H 1394.52 -0.875184 5.00303 0
M  V30 14417 H 1394.45 -2.60367 4.5773 0
M  V30 14418 H 1396.94 -1.50696 3.46553 0
M  V30 14419 H 1397.26 -2.4982 7.31307 0
M  V30 14420 H 1395.6 -2.25327 6.57459 0
M  V30 14421 H 1398.79 -1.78909 4.32561 0
M  V30 14422 H 1398.96 -2.24131 6.08004 0
M  V30 14423 N 1392.37 -1.38898 -0.744656 0
M  V30 14424 C 1393.33 -1.36633 -1.84022 0
M  V30 14425 C 1394.33 -0.265187 -1.58598 0
M  V30 14426 O 1395.52 -0.522569 -1.66177 0
M  V30 14427 C 1392.66 -1.12938 -3.21649 0
M  V30 14428 H 1393.85 -2.34111 -1.87435 0
M  V30 14429 H 1391.4 -1.24322 -0.947302 0
M  V30 14430 H 1392.14 -0.161027 -3.239 0
M  V30 14431 H 1391.92 -1.9267 -3.41498 0
M  V30 14432 H 1393.41 -1.14071 -4.01718 0
M  V30 14433 N 1393.85 0.973806 -1.23914 0
M  V30 14434 C 1394.78 2.07003 -0.983982 0
M  V30 14435 C 1395.79 1.62739 0.0443893 0
M  V30 14436 O 1396.98 1.77465 -0.191927 0
M  V30 14437 C 1394.08 3.35737 -0.461937 0
M  V30 14438 C 1393.26 4.08939 -1.55202 0
M  V30 14439 C 1392.31 5.15947 -1.03369 0
M  V30 14440 O 1391.34 5.42461 -1.72409 0
M  V30 14441 N 1392.54 5.80343 0.135067 0
M  V30 14442 H 1395.31 2.29468 -1.92781 0
M  V30 14443 H 1392.87 1.14098 -1.14861 0
M  V30 14444 H 1394.86 4.04576 -0.100074 0
M  V30 14445 H 1393.43 3.10189 0.387467 0
M  V30 14446 H 1392.65 3.34462 -2.08635 0
M  V30 14447 H 1393.94 4.5461 -2.2849 0
M  V30 14448 H 1393.34 5.61196 0.71241 0
M  V30 14449 H 1391.89 6.50326 0.438132 0
M  V30 14450 N 1395.33 1.05191 1.17357 0
M  V30 14451 C 1396.26 0.597207 2.20247 0
M  V30 14452 C 1397.24 -0.374194 1.58236 0
M  V30 14453 O 1398.42 -0.285815 1.86321 0
M  V30 14454 C 1395.55 -0.126012 3.38466 0
M  V30 14455 C 1394.59 0.800401 4.18922 0
M  V30 14456 S 1395.43 2.28956 4.84086 0
M  V30 14457 C 1396.58 1.57751 6.05694 0
M  V30 14458 H 1396.82 1.46893 2.58476 0
M  V30 14459 H 1394.35 0.863874 1.27971 0
M  V30 14460 H 1396.31 -0.537086 4.06971 0
M  V30 14461 H 1394.97 -0.97377 2.98624 0
M  V30 14462 H 1394.16 0.240754 5.03425 0
M  V30 14463 H 1393.76 1.15084 3.55853 0
M  V30 14464 H 1396.06 0.876839 6.71802 0
M  V30 14465 H 1397 2.40001 6.66187 0
M  V30 14466 H 1397.41 1.06493 5.54364 0
M  V30 14467 N 1396.8 -1.33791 0.83293 0
M  V30 14468 C 1397.73 -2.31853 0.276846 0
M  V30 14469 C 1398.72 -1.58702 -0.612184 0
M  V30 14470 O 1399.9 -1.86629 -0.536975 0
M  V30 14471 C 1397.03 -3.42855 -0.55385 0
M  V30 14472 C 1395.98 -4.27333 0.238884 0
M  V30 14473 C 1395.31 -5.29895 -0.715187 0
M  V30 14474 C 1396.61 -5.01692 1.45265 0
M  V30 14475 H 1398.3 -2.78611 1.09618 0
M  V30 14476 H 1395.85 -1.33949 0.528562 0
M  V30 14477 H 1397.8 -4.10479 -0.953133 0
M  V30 14478 H 1396.53 -2.94771 -1.40634 0
M  V30 14479 H 1395.19 -3.61325 0.619656 0
M  V30 14480 H 1394.83 -4.7807 -1.56391 0
M  V30 14481 H 1394.53 -5.87296 -0.188921 0
M  V30 14482 H 1396.06 -6.00387 -1.11211 0
M  V30 14483 H 1397.47 -5.62117 1.12685 0
M  V30 14484 H 1395.87 -5.68715 1.91528 0
M  V30 14485 H 1396.94 -4.30809 2.22558 0
M  V30 14486 N 1398.28 -0.588812 -1.46187 0
M  V30 14487 C 1399.51 -0.0825301 -2.06735 0
M  V30 14488 C 1399.93 1.22507 -1.43658 0
M  V30 14489 O 1399.28 1.74203 -0.544022 0
M  V30 14490 C 1399.33 0.083501 -3.61404 0
M  V30 14491 O 1399.05 -1.17235 -4.22123 0
M  V30 14492 C 1400.56 0.623425 -4.38894 0
M  V30 14493 H 1397.78 -0.0602413 -0.66829 0
M  V30 14494 H 1400.32 -0.811215 -1.87722 0
M  V30 14495 H 1398.47 0.762432 -3.79823 0
M  V30 14496 H 1398.89 -0.990047 -5.15071 0
M  V30 14497 H 1400.36 0.688755 -5.47686 0
M  V30 14498 H 1400.84 1.64172 -4.07362 0
M  V30 14499 H 1401.45 -0.0208373 -4.25295 0
M  V30 14500 N 1399.76 1.54172 -0.326923 0
M  V30 14501 C 1401.18 1.59579 0.0256055 0
M  V30 14502 C 1401.38 1.34337 1.50186 0
M  V30 14503 O 1400.43 1.12945 2.25831 0
M  V30 14504 C 1401.75 2.98086 -0.395641 0
M  V30 14505 C 1403.29 3.11075 -0.346579 0
M  V30 14506 C 1403.77 4.51932 -0.743039 0
M  V30 14507 N 1405.26 4.57932 -0.696575 0
M  V30 14508 C 1405.99 5.65041 -0.975493 0
M  V30 14509 N 1405.49 6.80075 -1.32172 0
M  V30 14510 N 1407.28 5.54835 -0.900831 0
M  V30 14511 H 1399.43 1.68836 -1.28872 0
M  V30 14512 H 1401.7 0.789858 -0.52424 0
M  V30 14513 H 1401.4 3.21568 -1.42431 0
M  V30 14514 H 1401.28 3.76451 0.237645 0
M  V30 14515 H 1403.66 2.87326 0.672889 0
M  V30 14516 H 1403.75 2.34807 -1.01484 0
M  V30 14517 H 1403.39 4.76415 -1.76044 0
M  V30 14518 H 1403.32 5.26574 -0.0524263 0
M  V30 14519 H 1405.81 3.75318 -0.440969 0
M  V30 14520 H 1406.12 7.57708 -1.51983 0
M  V30 14521 H 1404.47 6.81563 -1.36001 0
M  V30 14522 H 1407.66 4.63844 -0.629812 0
M  V30 14523 H 1407.83 6.3822 -1.12156 0
M  V30 14524 N 1401.24 0.0551678 1.57503 0
M  V30 14525 C 1402.52 -0.657808 1.84207 0
M  V30 14526 C 1402.9 -1.88798 0.944372 0
M  V30 14527 O 1402.24 -2.28499 0.00641728 0
M  V30 14528 C 1402.45 -1.0113 3.34026 0
M  V30 14529 C 1403.8 -1.39189 4.01138 0
M  V30 14530 O 1404.83 -1.10353 3.38675 0
M  V30 14531 O 1403.68 -1.93023 5.11277 0
M  V30 14532 H 1400.78 -0.325084 0.760427 0
M  V30 14533 H 1403.32 0.0848352 1.69488 0
M  V30 14534 H 1402.1 -0.13688 3.91061 0
M  V30 14535 H 1401.72 -1.81126 3.53948 0
M  V30 14536 N 1402.72 -1.56081 -0.218252 0
M  V30 14537 C 1404.13 -1.49147 -0.568098 0
M  V30 14538 C 1404.33 -0.750893 -1.86986 0
M  V30 14539 O 1403.39 -0.291904 -2.50807 0
M  V30 14540 C 1404.7 -2.93717 -0.644272 0
M  V30 14541 C 1406.25 -3.04256 -0.734677 0
M  V30 14542 C 1406.72 -4.50191 -0.842167 0
M  V30 14543 N 1408.22 -4.54247 -0.906302 0
M  V30 14544 C 1408.95 -5.64448 -1.00924 0
M  V30 14545 N 1408.45 -6.84394 -1.07592 0
M  V30 14546 N 1410.24 -5.52308 -1.04463 0
M  V30 14547 H 1402.39 -2.02656 0.635935 0
M  V30 14548 H 1404.65 -0.921262 0.223563 0
M  V30 14549 H 1404.36 -3.50861 0.242721 0
M  V30 14550 H 1404.23 -3.45798 -1.50678 0
M  V30 14551 H 1406.62 -2.47174 -1.61211 0
M  V30 14552 H 1406.7 -2.55339 0.153563 0
M  V30 14553 H 1406.35 -5.07891 0.0308214 0
M  V30 14554 H 1406.28 -4.96817 -1.74587 0
M  V30 14555 H 1408.77 -3.67868 -0.864954 0
M  V30 14556 H 1409.08 -7.6413 -1.15433 0
M  V30 14557 H 1407.42 -6.87099 -1.045 0
M  V30 14558 H 1410.62 -4.57528 -0.989218 0
M  V30 14559 H 1410.79 -6.38223 -1.1214 0
M  V30 14560 N 1404.2 0.485086 -1.49949 0
M  V30 14561 C 1405.16 1.56713 -1.67253 0
M  V30 14562 C 1406.16 1.51329 -0.543701 0
M  V30 14563 O 1407.35 1.54198 -0.810472 0
M  V30 14564 C 1404.48 2.9636 -1.68475 0
M  V30 14565 H 1405.67 1.42693 -2.63778 0
M  V30 14566 H 1403.23 0.710473 -1.39219 0
M  V30 14567 H 1403.96 3.1584 -0.735924 0
M  V30 14568 H 1403.75 3.01675 -2.50469 0
M  V30 14569 H 1405.24 3.74945 -1.83865 0
M  V30 14570 N 1405.67 1.39291 0.737279 0
M  V30 14571 C 1406.92 1.3639 1.49679 0
M  V30 14572 C 1407.25 -0.0408859 1.94457 0
M  V30 14573 O 1406.5 -1.02127 1.66939 0
M  V30 14574 C 1406.8 2.28043 2.75193 0
M  V30 14575 C 1406.47 3.75717 2.49294 0
M  V30 14576 C 1405.13 4.15955 2.41941 0
M  V30 14577 C 1407.48 4.69127 2.27088 0
M  V30 14578 C 1404.81 5.47669 2.10419 0
M  V30 14579 C 1407.16 6.01116 1.97084 0
M  V30 14580 C 1405.83 6.4042 1.88197 0
M  V30 14581 H 1405.1 0.499088 0.547716 0
M  V30 14582 H 1407.74 1.71779 0.846416 0
M  V30 14583 H 1406.05 1.85765 3.44962 0
M  V30 14584 H 1407.75 2.23093 3.33212 0
M  V30 14585 H 1404.34 3.43825 2.55896 0
M  V30 14586 H 1408.52 4.38875 2.31739 0
M  V30 14587 H 1403.78 5.77046 2.02059 0
M  V30 14588 H 1407.95 6.73026 1.78909 0
M  V30 14589 H 1405.58 7.42401 1.63537 0
M  V30 14590 N 1407.15 -0.967221 1.24429 0
M  V30 14591 C 1408.06 -2.09582 1.05417 0
M  V30 14592 C 1409.08 -1.73999 -0.00516127 0
M  V30 14593 O 1410.25 -2.00472 0.193115 0
M  V30 14594 C 1407.32 -3.40327 0.661697 0
M  V30 14595 C 1406.38 -3.89854 1.79756 0
M  V30 14596 C 1405.61 -5.1436 1.42372 0
M  V30 14597 O 1405.84 -5.69536 0.313754 0
M  V30 14598 O 1404.77 -5.58283 2.24952 0
M  V30 14599 H 1408.6 -2.28517 2.00034 0
M  V30 14600 H 1406.18 -1.07978 1.03253 0
M  V30 14601 H 1408.06 -4.18943 0.454369 0
M  V30 14602 H 1406.74 -3.22691 -0.255348 0
M  V30 14603 H 1405.64 -3.12297 2.05964 0
M  V30 14604 H 1406.98 -4.11967 2.69339 0
M  V30 14605 N 1408.63 -1.05812 -1.16797 0
M  V30 14606 C 1409.85 -0.792518 -1.91661 0
M  V30 14607 C 1410.28 0.646598 -1.76637 0
M  V30 14608 O 1409.64 1.44998 -1.08836 0
M  V30 14609 C 1409.69 -1.18585 -3.40544 0
M  V30 14610 O 1408.79 -0.321716 -4.11143 0
M  V30 14611 H 1408.13 -0.290066 -0.597292 0
M  V30 14612 H 1410.66 -1.41263 -1.48007 0
M  V30 14613 H 1410.67 -1.1553 -3.91301 0
M  V30 14614 H 1409.35 -2.23413 -3.50798 0
M  V30 14615 H 1407.92 -0.413403 -3.70601 0
M  V30 14616 N 1410.11 1.33347 -0.840014 0
M  V30 14617 C 1411.34 2.01952 -0.449793 0
M  V30 14618 C 1411.75 1.63197 0.949317 0
M  V30 14619 O 1411.11 0.84589 1.61713 0
M  V30 14620 C 1411.16 3.57102 -0.562178 0
M  V30 14621 O 1410.88 3.94458 -1.90616 0
M  V30 14622 C 1412.38 4.42978 -0.169062 0
M  V30 14623 H 1409.6 0.646843 -0.178425 0
M  V30 14624 H 1412.14 1.70251 -1.1329 0
M  V30 14625 H 1410.3 3.87331 0.0730345 0
M  V30 14626 H 1410.71 4.89167 -1.8925 0
M  V30 14627 H 1412.19 5.51191 -0.298742 0
M  V30 14628 H 1412.66 4.30106 0.889137 0
M  V30 14629 H 1413.27 4.18109 -0.778756 0
M  V30 14630 N 1411.59 0.596556 1.45873 0
M  V30 14631 C 1412.52 -0.116229 2.33211 0
M  V30 14632 C 1413.5 -0.869868 1.46176 0
M  V30 14633 O 1414.68 -0.842599 1.74968 0
M  V30 14634 C 1411.81 -1.12145 3.28696 0
M  V30 14635 C 1410.77 -0.481749 4.2528 0
M  V30 14636 C 1410.09 -1.59443 5.10374 0
M  V30 14637 C 1411.39 0.589996 5.18957 0
M  V30 14638 H 1413.09 0.613005 2.93057 0
M  V30 14639 H 1410.63 0.296242 1.4092 0
M  V30 14640 H 1412.58 -1.62857 3.88659 0
M  V30 14641 H 1411.31 -1.88114 2.66985 0
M  V30 14642 H 1409.97 0.0044092 3.666 0
M  V30 14643 H 1409.62 -2.34413 4.45039 0
M  V30 14644 H 1409.32 -1.17197 5.75794 0
M  V30 14645 H 1410.84 -2.10404 5.73204 0
M  V30 14646 H 1412.25 0.167395 5.73056 0
M  V30 14647 H 1410.65 0.933565 5.92794 0
M  V30 14648 H 1411.72 1.47093 4.62052 0
M  V30 14649 N 1413.06 -1.53996 0.335095 0
M  V30 14650 C 1414.01 -2.24736 -0.52559 0
M  V30 14651 C 1414.98 -1.24244 -1.10239 0
M  V30 14652 O 1416.17 -1.52955 -1.14058 0
M  V30 14653 C 1413.31 -3.01732 -1.67487 0
M  V30 14654 C 1412.42 -4.17062 -1.1262 0
M  V30 14655 C 1411.55 -4.81563 -2.2421 0
M  V30 14656 C 1410.59 -5.88977 -1.6665 0
M  V30 14657 N 1409.73 -6.47293 -2.71949 0
M  V30 14658 H 1414.57 -2.97881 0.0842008 0
M  V30 14659 H 1412.11 -1.47003 0.0533254 0
M  V30 14660 H 1414.06 -3.44626 -2.35135 0
M  V30 14661 H 1412.69 -2.30899 -2.25578 0
M  V30 14662 H 1411.75 -3.78869 -0.340917 0
M  V30 14663 H 1413.06 -4.94346 -0.665113 0
M  V30 14664 H 1412.21 -5.27486 -2.9974 0
M  V30 14665 H 1410.95 -4.03685 -2.73659 0
M  V30 14666 H 1409.96 -5.42446 -0.89623 0
M  V30 14667 H 1411.18 -6.68758 -1.18064 0
M  V30 14668 H 1409.13 -5.72283 -3.20668 0
M  V30 14669 H 1409.04 -7.20024 -2.30438 0
M  V30 14670 H 1410.31 -6.97869 -3.47273 0
M  V30 14671 N 1414.54 -0.0635198 -1.57472 0
M  V30 14672 C 1415.77 0.620205 -1.9791 0
M  V30 14673 C 1416.19 1.62851 -0.941335 0
M  V30 14674 O 1415.55 1.81056 0.0940313 0
M  V30 14675 C 1415.6 1.27261 -3.37397 0
M  V30 14676 O 1414.7 2.38841 -3.36197 0
M  V30 14677 H 1414.04 0.16021 -0.644382 0
M  V30 14678 H 1416.57 -0.135582 -2.0415 0
M  V30 14679 H 1416.58 1.6214 -3.74399 0
M  V30 14680 H 1415.26 0.533723 -4.12461 0
M  V30 14681 H 1413.83 2.05817 -3.10956 0
M  V30 14682 N 1416.02 1.56195 0.209972 0
M  V30 14683 C 1417.27 1.80917 0.929554 0
M  V30 14684 C 1417.62 0.638305 1.81503 0
M  V30 14685 O 1416.91 -0.367181 1.88049 0
M  V30 14686 C 1417.11 3.09154 1.79328 0
M  V30 14687 C 1416.94 4.38602 0.99291 0
M  V30 14688 C 1415.71 5.0066 0.683231 0
M  V30 14689 C 1417.9 5.13089 0.352678 0
M  V30 14690 N 1415.89 6.13746 -0.137328 0
M  V30 14691 C 1417.26 6.19117 -0.330748 0
M  V30 14692 C 1419.31 4.97184 0.266887 0
M  V30 14693 C 1418.02 7.10966 -1.09177 0
M  V30 14694 C 1420.04 5.89443 -0.480701 0
M  V30 14695 C 1419.4 6.94906 -1.15263 0
M  V30 14696 H 1415.5 0.713515 0.320031 0
M  V30 14697 H 1418.09 1.93676 0.199467 0
M  V30 14698 H 1416.26 2.97657 2.49509 0
M  V30 14699 H 1417.99 3.22021 2.45121 0
M  V30 14700 H 1414.74 4.62834 1.00407 0
M  V30 14701 H 1415.17 6.74869 -0.536782 0
M  V30 14702 H 1419.81 4.15692 0.772025 0
M  V30 14703 H 1417.53 7.91932 -1.60839 0
M  V30 14704 H 1421.11 5.79211 -0.54824 0
M  V30 14705 H 1419.99 7.65063 -1.72185 0
M  V30 14706 N 1417.5 -0.477127 1.50204 0
M  V30 14707 C 1418.41 -1.60182 1.71403 0
M  V30 14708 C 1419.42 -1.63437 0.597009 0
M  V30 14709 O 1420.6 -1.81418 0.874614 0
M  V30 14710 C 1417.66 -2.96432 1.79802 0
M  V30 14711 C 1416.73 -3.03614 3.03508 0
M  V30 14712 C 1415.96 -4.33365 3.11497 0
M  V30 14713 O 1416.18 -5.23529 2.26438 0
M  V30 14714 O 1415.12 -4.46013 4.04173 0
M  V30 14715 H 1418.94 -1.45221 2.66729 0
M  V30 14716 H 1416.53 -0.655982 1.34228 0
M  V30 14717 H 1418.41 -3.77367 1.87542 0
M  V30 14718 H 1417.08 -3.11605 0.876581 0
M  V30 14719 H 1415.99 -2.21779 3.01272 0
M  V30 14720 H 1417.32 -2.93376 3.95211 0
M  V30 14721 N 1418.98 -1.3968 -0.729882 0
M  V30 14722 C 1420.25 -1.27689 -1.48172 0
M  V30 14723 C 1420.63 0.111239 -2.10807 0
M  V30 14724 O 1419.98 1.12289 -1.99006 0
M  V30 14725 C 1420.19 -2.40505 -2.529 0
M  V30 14726 C 1421.54 -2.80064 -3.19138 0
M  V30 14727 O 1422.56 -2.39992 -2.63215 0
M  V30 14728 O 1421.42 -3.49248 -4.20342 0
M  V30 14729 H 1418.52 -0.500674 -0.658221 0
M  V30 14730 H 1421.06 -1.51566 -0.763272 0
M  V30 14731 H 1419.83 -3.33282 -2.05033 0
M  V30 14732 H 1419.46 -2.1832 -3.32298 0
M  V30 14733 N 1420.45 0.960609 -1.2494 0
M  V30 14734 C 1421.4 2.05634 -1.04801 0
M  V30 14735 C 1422.37 1.66049 0.0409611 0
M  V30 14736 O 1423.56 1.90453 -0.115053 0
M  V30 14737 C 1420.7 3.38604 -0.666444 0
M  V30 14738 C 1419.81 3.91341 -1.82964 0
M  V30 14739 C 1418.94 5.1261 -1.39299 0
M  V30 14740 C 1417.98 5.57562 -2.52569 0
M  V30 14741 N 1417.12 6.70046 -2.09722 0
M  V30 14742 H 1421.96 2.22194 -1.9858 0
M  V30 14743 H 1419.5 1.08892 -0.988981 0
M  V30 14744 H 1421.46 4.15017 -0.426205 0
M  V30 14745 H 1420.09 3.21948 0.23435 0
M  V30 14746 H 1419.14 3.11502 -2.18335 0
M  V30 14747 H 1420.45 4.20656 -2.68049 0
M  V30 14748 H 1419.6 5.96421 -1.11205 0
M  V30 14749 H 1418.34 4.84997 -0.512779 0
M  V30 14750 H 1417.35 4.72319 -2.81415 0
M  V30 14751 H 1418.57 5.87186 -3.41159 0
M  V30 14752 H 1416.52 6.44153 -1.24109 0
M  V30 14753 H 1416.44 6.98846 -2.88357 0
M  V30 14754 H 1417.7 7.57281 -1.84787 0
M  V30 14755 N 1421.93 1.0643 1.16234 0
M  V30 14756 C 1422.86 0.634274 2.20249 0
M  V30 14757 C 1423.88 -0.308432 1.59852 0
M  V30 14758 O 1425.07 -0.0992067 1.78224 0
M  V30 14759 C 1422.17 -0.0901593 3.3878 0
M  V30 14760 C 1421.34 0.866379 4.28734 0
M  V30 14761 C 1420.4 0.180942 5.25889 0
M  V30 14762 O 1419.42 0.819034 5.63277 0
M  V30 14763 N 1420.63 -1.07698 5.70422 0
M  V30 14764 H 1423.39 1.52901 2.57762 0
M  V30 14765 H 1420.95 0.947789 1.31258 0
M  V30 14766 H 1422.94 -0.559147 4.00819 0
M  V30 14767 H 1421.51 -0.886715 2.9976 0
M  V30 14768 H 1420.73 1.51471 3.63937 0
M  V30 14769 H 1422.02 1.51524 4.85714 0
M  V30 14770 H 1421.42 -1.6155 5.42142 0
M  V30 14771 H 1419.98 -1.48981 6.34545 0
M  V30 14772 N 1423.41 -1.329 0.847073 0
M  V30 14773 C 1424.36 -2.29044 0.284199 0
M  V30 14774 C 1425.33 -1.54706 -0.604591 0
M  V30 14775 O 1426.51 -1.82966 -0.541116 0
M  V30 14776 C 1423.65 -3.4104 -0.527822 0
M  V30 14777 C 1422.77 -4.30273 0.385907 0
M  V30 14778 C 1421.9 -5.29391 -0.438009 0
M  V30 14779 C 1420.94 -6.10265 0.473596 0
M  V30 14780 N 1420.08 -7.01403 -0.312684 0
M  V30 14781 H 1424.92 -2.76582 1.10935 0
M  V30 14782 H 1422.45 -1.36085 0.558508 0
M  V30 14783 H 1424.41 -4.04686 -1.01417 0
M  V30 14784 H 1423.04 -2.94673 -1.31787 0
M  V30 14785 H 1422.09 -3.67275 0.99061 0
M  V30 14786 H 1423.41 -4.86837 1.08585 0
M  V30 14787 H 1422.56 -5.98604 -0.987842 0
M  V30 14788 H 1421.3 -4.73424 -1.17135 0
M  V30 14789 H 1420.3 -5.39963 1.03537 0
M  V30 14790 H 1421.53 -6.68316 1.20543 0
M  V30 14791 H 1419.47 -6.47875 -1.02926 0
M  V30 14792 H 1419.39 -7.55286 0.328376 0
M  V30 14793 H 1420.66 -7.74912 -0.844489 0
M  V30 14794 N 1424.89 -0.604284 -1.45555 0
M  V30 14795 C 1426.13 -0.101149 -2.0415 0
M  V30 14796 C 1426.49 1.24348 -1.46292 0
M  V30 14797 O 1427.69 1.83714 -1.9622 0
M  V30 14798 C 1425.96 -0.0589898 -3.57351 0
M  V30 14799 S 1427.52 0.383434 -4.37122 0
M  V30 14800 H 1424.34 -0.0479603 -0.709381 0
M  V30 14801 H 1426.94 -0.801643 -1.78309 0
M  V30 14802 H 1425.65 -1.04119 -3.96973 0
M  V30 14803 H 1425.18 0.663601 -3.87763 0
M  V30 14804 H 1427.19 1.63367 -4.68536 0
M  V30 14805 N 1426.37 1.53816 -0.343257 0
M  V30 14806 C 1427.64 1.9315 0.308609 0
M  V30 14807 C 1428.02 1.27479 1.68263 0
M  V30 14808 O 1427.37 0.425614 2.24501 0
M  V30 14809 C 1427.58 3.46912 0.381176 0
M  V30 14810 C 1428.93 4.19868 0.632153 0
M  V30 14811 O 1429.95 3.53174 0.463303 0
M  V30 14812 O 1428.81 5.38016 0.959237 0
M  V30 14813 H 1425.91 0.807169 0.180022 0
M  V30 14814 H 1428.45 1.65053 -0.394412 0
M  V30 14815 H 1427.22 3.86932 -0.583058 0
M  V30 14816 H 1426.85 3.81175 1.13099 0
M  V30 14817 N 1427.84 0.0718701 1.57436 0
M  V30 14818 C 1429.07 -0.609701 1.98236 0
M  V30 14819 C 1429.49 -1.6235 0.949959 0
M  V30 14820 O 1428.85 -1.81103 -0.0844281 0
M  V30 14821 C 1428.9 -1.2547 3.38068 0
M  V30 14822 O 1428 -2.37055 3.37459 0
M  V30 14823 H 1427.35 -0.15679 0.645223 0
M  V30 14824 H 1429.88 0.146407 2.04076 0
M  V30 14825 H 1429.89 -1.60152 3.75254 0
M  V30 14826 H 1428.56 -0.511842 4.12738 0
M  V30 14827 H 1427.14 -2.04165 3.12043 0
M  V30 14828 N 1429.32 -1.56304 -0.201686 0
M  V30 14829 C 1430.57 -1.79881 -0.921269 0
M  V30 14830 C 1430.89 -0.643809 -1.84065 0
M  V30 14831 O 1430.16 0.338239 -1.92958 0
M  V30 14832 H 1428.74 -0.663506 -0.343175 0
M  V30 14833 H 1431.4 -1.93779 -0.208775 0
M  V30 14834 H 1430.5 -2.7279 -1.51631 0
M  V30 14835 N 1430.8 0.469154 -1.50455 0
M  V30 14836 C 1431.75 1.56691 -1.6946 0
M  V30 14837 C 1432.72 1.57217 -0.535921 0
M  V30 14838 O 1433.9 1.74717 -0.766715 0
M  V30 14839 C 1431.04 2.94651 -1.79651 0
M  V30 14840 C 1430.16 3.03899 -3.07033 0
M  V30 14841 C 1429.29 4.32786 -3.08009 0
M  V30 14842 C 1428.33 4.35784 -4.29836 0
M  V30 14843 N 1427.47 5.56145 -4.28541 0
M  V30 14844 H 1432.31 1.39791 -2.63178 0
M  V30 14845 H 1429.84 0.679628 -1.30459 0
M  V30 14846 H 1431.8 3.74658 -1.83541 0
M  V30 14847 H 1430.43 3.10182 -0.893713 0
M  V30 14848 H 1429.48 2.16754 -3.12605 0
M  V30 14849 H 1430.8 3.01974 -3.97005 0
M  V30 14850 H 1429.95 5.21141 -3.10639 0
M  V30 14851 H 1428.69 4.37323 -2.1587 0
M  V30 14852 H 1427.69 3.45825 -4.27417 0
M  V30 14853 H 1428.92 4.32937 -5.23204 0
M  V30 14854 H 1426.86 5.61464 -3.39256 0
M  V30 14855 H 1426.78 5.55969 -5.12284 0
M  V30 14856 H 1428.05 6.4662 -4.35319 0
M  V30 14857 N 1432.28 1.40065 0.722464 0
M  V30 14858 C 1433.69 1.33876 1.30131 0
M  V30 14859 C 1434.04 0.00899369 1.96198 0
M  V30 14860 O 1433.17 -0.893082 1.97112 0
M  V30 14861 C 1433.76 2.42469 2.36631 0
M  V30 14862 C 1432.32 2.39762 2.90157 0
M  V30 14863 C 1431.47 2.23704 1.63865 0
M  V30 14864 H 1434.42 1.49971 0.519077 0
M  V30 14865 H 1434.44 2.0998 3.17315 0
M  V30 14866 H 1433.95 3.39239 1.88517 0
M  V30 14867 H 1432.05 1.46669 3.42519 0
M  V30 14868 H 1432.16 3.35092 3.42419 0
M  V30 14869 H 1430.53 1.71098 1.88674 0
M  V30 14870 H 1431.31 3.22462 1.17785 0
M  V30 14871 N 1433.76 -0.95397 1.25448 0
M  V30 14872 C 1435 -1.70118 1.10399 0
M  V30 14873 C 1435.34 -1.90945 -0.354093 0
M  V30 14874 O 1434.61 -1.48088 -1.26096 0
M  V30 14875 C 1434.89 -3.08371 1.85955 0
M  V30 14876 C 1434.75 -2.9495 3.39595 0
M  V30 14877 C 1436.07 -4.08273 1.64321 0
M  V30 14878 H 1433.19 -0.617424 0.402438 0
M  V30 14879 H 1435.83 -1.10884 1.54288 0
M  V30 14880 H 1433.98 -3.58936 1.48651 0
M  V30 14881 H 1435.65 -2.51705 3.86578 0
M  V30 14882 H 1433.89 -2.30853 3.67273 0
M  V30 14883 H 1434.56 -3.92952 3.87676 0
M  V30 14884 H 1437.04 -3.6662 1.96796 0
M  V30 14885 H 1435.92 -5.03048 2.19622 0
M  V30 14886 H 1436.18 -4.38217 0.584685 0
M  V30 14887 N 1435.24 -1.07045 -1.15668 0
M  V30 14888 C 1436.17 -0.709413 -2.22463 0
M  V30 14889 C 1437.15 0.30169 -1.67403 0
M  V30 14890 O 1438.33 0.175131 -1.93409 0
M  V30 14891 C 1435.46 -0.103121 -3.47147 0
M  V30 14892 C 1434.42 -1.04103 -4.15146 0
M  V30 14893 C 1433.74 -0.297656 -5.33871 0
M  V30 14894 C 1435.04 -2.37332 -4.65264 0
M  V30 14895 H 1436.74 -1.60227 -2.52918 0
M  V30 14896 H 1434.28 -0.771846 -1.21567 0
M  V30 14897 H 1436.23 0.161371 -4.21091 0
M  V30 14898 H 1434.96 0.824792 -3.16014 0
M  V30 14899 H 1433.62 -1.2904 -3.43139 0
M  V30 14900 H 1433.27 0.633618 -4.98993 0
M  V30 14901 H 1432.97 -0.922789 -5.80309 0
M  V30 14902 H 1434.49 -0.0408892 -6.10586 0
M  V30 14903 H 1435.9 -2.1674 -5.30751 0
M  V30 14904 H 1434.3 -2.95412 -5.22352 0
M  V30 14905 H 1435.37 -2.99859 -3.81068 0
M  V30 14906 N 1436.71 1.32449 -0.85411 0
M  V30 14907 C 1438.13 1.50046 -0.543895 0
M  V30 14908 C 1438.33 1.78985 0.925561 0
M  V30 14909 O 1437.39 1.85909 1.70862 0
M  V30 14910 C 1438.7 2.64499 -1.43041 0
M  V30 14911 C 1440.25 2.78384 -1.43078 0
M  V30 14912 C 1440.72 3.95915 -2.3025 0
M  V30 14913 N 1442.21 4.03176 -2.28043 0
M  V30 14914 C 1442.95 4.9335 -2.92221 0
M  V30 14915 N 1442.44 5.88536 -3.6551 0
M  V30 14916 N 1444.24 4.86468 -2.81612 0
M  V30 14917 H 1436.39 1.11931 -1.80514 0
M  V30 14918 H 1438.65 0.551626 -0.770982 0
M  V30 14919 H 1438.36 2.49842 -2.47532 0
M  V30 14920 H 1438.23 3.60269 -1.11742 0
M  V30 14921 H 1440.62 2.92464 -0.393529 0
M  V30 14922 H 1440.7 1.83329 -1.78393 0
M  V30 14923 H 1440.34 3.82594 -3.34043 0
M  V30 14924 H 1440.27 4.90245 -1.92268 0
M  V30 14925 H 1442.76 3.35064 -1.74759 0
M  V30 14926 H 1443.08 6.54038 -4.11648 0
M  V30 14927 H 1441.42 5.88564 -3.69618 0
M  V30 14928 H 1444.61 4.11076 -2.23907 0
M  V30 14929 H 1444.79 5.56542 -3.3191 0
M  V30 14930 N 1438.19 0.611994 1.45232 0
M  V30 14931 C 1439.42 0.115409 2.06578 0
M  V30 14932 C 1439.83 -1.20206 1.45588 0
M  V30 14933 O 1439.19 -1.73315 0.571668 0
M  V30 14934 C 1439.24 -0.0259943 3.61491 0
M  V30 14935 O 1438.96 1.23936 4.20204 0
M  V30 14936 C 1440.46 -0.553522 4.39831 0
M  V30 14937 H 1437.68 0.0708656 0.667247 0
M  V30 14938 H 1440.23 0.840977 1.86408 0
M  V30 14939 H 1438.38 -0.701909 3.80988 0
M  V30 14940 H 1438.8 1.07187 5.13431 0
M  V30 14941 H 1440.27 -0.601536 5.48713 0
M  V30 14942 H 1440.75 -1.57671 4.09923 0
M  V30 14943 H 1441.35 0.0884954 4.25208 0
M  V30 14944 N 1439.67 -1.53632 0.351409 0
M  V30 14945 C 1440.62 -2.22041 -0.517867 0
M  V30 14946 C 1441.6 -1.21057 -1.0599 0
M  V30 14947 O 1442.8 -1.46569 -0.992298 0
M  V30 14948 C 1439.92 -3.00259 -1.66432 0
M  V30 14949 C 1439.01 -4.08607 -1.13584 0
M  V30 14950 N 1439.4 -5.04727 -0.329217 0
M  V30 14951 C 1437.7 -4.23059 -1.412 0
M  V30 14952 C 1438.4 -5.81685 -0.0415005 0
M  V30 14953 N 1437.38 -5.39875 -0.635288 0
M  V30 14954 H 1441.18 -2.93711 0.105386 0
M  V30 14955 H 1438.69 -1.61623 0.15868 0
M  V30 14956 H 1440.69 -3.47774 -2.29911 0
M  V30 14957 H 1439.35 -2.30117 -2.29077 0
M  V30 14958 H 1440.36 -5.17891 0.0303777 0
M  V30 14959 H 1437.04 -3.64139 -2.04227 0
M  V30 14960 H 1438.43 -6.69128 0.609686 0
M  V30 14961 N 1441.15 -0.0802183 -1.57396 0
M  V30 14962 C 1442.08 0.881426 -2.16225 0
M  V30 14963 C 1443.06 1.30459 -1.09154 0
M  V30 14964 O 1444.24 1.37413 -1.37227 0
M  V30 14965 C 1441.37 2.14599 -2.73065 0
M  V30 14966 C 1440.33 1.86195 -3.85377 0
M  V30 14967 C 1439.65 3.19354 -4.28856 0
M  V30 14968 C 1440.95 1.16059 -5.09242 0
M  V30 14969 H 1442.65 0.391325 -2.96832 0
M  V30 14970 H 1440.19 0.186785 -1.42783 0
M  V30 14971 H 1442.15 2.82297 -3.12868 0
M  V30 14972 H 1440.87 2.65866 -1.89691 0
M  V30 14973 H 1439.53 1.209 -3.46091 0
M  V30 14974 H 1439.18 3.68479 -3.42392 0
M  V30 14975 H 1438.88 3.01137 -5.04569 0
M  V30 14976 H 1440.4 3.88235 -4.71281 0
M  V30 14977 H 1441.82 1.7384 -5.46308 0
M  V30 14978 H 1440.21 1.08072 -5.90288 0
M  V30 14979 H 1441.28 0.14098 -4.84695 0
M  V30 14980 N 1442.63 1.56409 0.193394 0
M  V30 14981 C 1443.86 1.84569 0.928328 0
M  V30 14982 C 1444.26 0.660788 1.77286 0
M  V30 14983 O 1443.61 -0.379752 1.79732 0
M  V30 14984 C 1443.67 3.06854 1.87299 0
M  V30 14985 C 1443.33 4.40684 1.21025 0
M  V30 14986 C 1444.33 5.16583 0.58635 0
M  V30 14987 C 1442.01 4.87419 1.21359 0
M  V30 14988 C 1444.01 6.37395 -0.0253573 0
M  V30 14989 C 1441.7 6.08167 0.598052 0
M  V30 14990 C 1442.69 6.82997 -0.0203414 0
M  V30 14991 O 1442.38 8.01457 -0.626232 0
M  V30 14992 H 1442.11 0.616966 0.276277 0
M  V30 14993 H 1444.67 2.04373 0.205102 0
M  V30 14994 H 1442.9 2.82938 2.63596 0
M  V30 14995 H 1444.59 3.21645 2.47587 0
M  V30 14996 H 1445.35 4.81569 0.575894 0
M  V30 14997 H 1441.23 4.29129 1.68432 0
M  V30 14998 H 1444.78 6.95743 -0.508644 0
M  V30 14999 H 1440.67 6.42649 0.606017 0
M  V30 15000 H 1441.44 8.16825 -0.523305 0
M  V30 15001 N 1444.1 -0.461169 1.50702 0
M  V30 15002 C 1445.35 -1.20934 1.61425 0
M  V30 15003 C 1445.67 -1.92884 0.32481 0
M  V30 15004 O 1446.87 -2.69712 0.311081 0
M  V30 15005 C 1445.33 -2.19797 2.84987 0
M  V30 15006 C 1444.94 -1.53604 4.20844 0
M  V30 15007 C 1446.68 -2.95194 3.05059 0
M  V30 15008 C 1444.59 -2.50811 5.35582 0
M  V30 15009 H 1443.52 -0.455088 0.601174 0
M  V30 15010 H 1446.17 -0.478771 1.77144 0
M  V30 15011 H 1444.55 -2.96187 2.62848 0
M  V30 15012 H 1445.72 -0.829345 4.53275 0
M  V30 15013 H 1444.04 -0.904504 4.06457 0
M  V30 15014 H 1446.64 -3.67965 3.87951 0
M  V30 15015 H 1446.98 -3.5516 2.1718 0
M  V30 15016 H 1447.51 -2.25915 3.27425 0
M  V30 15017 H 1444.25 -1.9557 6.25646 0
M  V30 15018 H 1443.77 -3.19604 5.07556 0
M  V30 15019 H 1445.45 -3.12437 5.66561 0
M  V30 15020 N 1445.58 -1.40446 -0.715026 0
M  V30 15021 C 1446.53 -1.37235 -1.82073 0
M  V30 15022 C 1447.52 -0.249808 -1.58949 0
M  V30 15023 O 1448.71 -0.488958 -1.70112 0
M  V30 15024 C 1445.84 -1.23786 -3.20206 0
M  V30 15025 C 1444.92 -2.40824 -3.49091 0
M  V30 15026 N 1445.31 -3.66305 -3.4879 0
M  V30 15027 C 1443.61 -2.34215 -3.79551 0
M  V30 15028 C 1444.31 -4.43817 -3.76034 0
M  V30 15029 N 1443.29 -3.73664 -3.94811 0
M  V30 15030 H 1447.09 -2.32195 -1.80174 0
M  V30 15031 H 1444.6 -1.34226 -0.914175 0
M  V30 15032 H 1446.6 -1.19568 -3.99386 0
M  V30 15033 H 1445.26 -0.297938 -3.2333 0
M  V30 15034 H 1446.27 -3.99458 -3.29626 0
M  V30 15035 H 1442.95 -1.48592 -3.90162 0
M  V30 15036 H 1444.34 -5.52674 -3.82101 0
M  V30 15037 N 1447.06 0.947303 -1.25952 0
M  V30 15038 C 1448.01 2.03076 -1.03653 0
M  V30 15039 C 1448.99 1.60874 0.0290512 0
M  V30 15040 O 1450.19 1.76008 -0.187169 0
M  V30 15041 C 1447.31 3.36797 -0.66501 0
M  V30 15042 C 1446.4 3.85502 -1.76773 0
M  V30 15043 N 1446.79 4.06922 -3.00413 0
M  V30 15044 C 1445.09 4.14359 -1.64993 0
M  V30 15045 C 1445.79 4.4717 -3.7204 0
M  V30 15046 N 1444.77 4.53523 -2.99697 0
M  V30 15047 H 1448.57 2.17641 -1.97509 0
M  V30 15048 H 1446.08 1.13268 -1.16379 0
M  V30 15049 H 1448.08 4.14053 -0.486427 0
M  V30 15050 H 1446.74 3.23607 0.266138 0
M  V30 15051 H 1447.75 3.93786 -3.36383 0
M  V30 15052 H 1444.43 4.09991 -0.788254 0
M  V30 15053 H 1445.82 4.71985 -4.78205 0
M  V30 15054 N 1448.54 1.07657 1.15099 0
M  V30 15055 C 1449.5 0.703558 2.18135 0
M  V30 15056 C 1450.5 -0.257771 1.5872 0
M  V30 15057 O 1451.69 -0.0383211 1.74158 0
M  V30 15058 C 1448.82 0.0374978 3.40879 0
M  V30 15059 H 1450.02 1.61583 2.52648 0
M  V30 15060 H 1447.57 0.873484 1.29615 0
M  V30 15061 H 1448.3 -0.886868 3.11938 0
M  V30 15062 H 1448.09 0.728961 3.85264 0
M  V30 15063 H 1449.58 -0.208714 4.17078 0
M  V30 15064 N 1450.02 -1.31994 0.861122 0
M  V30 15065 C 1451.27 -1.96294 0.463868 0
M  V30 15066 C 1451.58 -1.68869 -0.98704 0
M  V30 15067 O 1452.78 -2.26959 -1.49003 0
M  V30 15068 C 1451.24 -3.51377 0.77858 0
M  V30 15069 C 1450.85 -3.87653 2.24565 0
M  V30 15070 C 1452.59 -4.22115 0.449365 0
M  V30 15071 C 1450.5 -5.35809 2.50324 0
M  V30 15072 H 1449.43 -0.734647 0.169733 0
M  V30 15073 H 1452.08 -1.50294 1.0528 0
M  V30 15074 H 1450.46 -3.95821 0.119005 0
M  V30 15075 H 1451.64 -3.54197 2.94755 0
M  V30 15076 H 1449.95 -3.29957 2.54003 0
M  V30 15077 H 1452.55 -5.31103 0.61916 0
M  V30 15078 H 1452.89 -4.11814 -0.609528 0
M  V30 15079 H 1453.42 -3.83276 1.06511 0
M  V30 15080 H 1450.16 -5.51138 3.54863 0
M  V30 15081 H 1449.68 -5.70648 1.84719 0
M  V30 15082 H 1451.36 -6.02968 2.34602 0
M  V30 15083 N 1451.49 -0.619688 -1.44906 0
M  V30 15084 C 1452.77 -0.0510703 -1.95533 0
M  V30 15085 C 1453.15 1.42013 -1.56191 0
M  V30 15086 O 1452.5 2.12879 -0.830356 0
M  V30 15087 C 1452.71 -0.261896 -3.48016 0
M  V30 15088 C 1454.06 -0.149057 -4.24338 0
M  V30 15089 O 1455.08 -0.192655 -3.55679 0
M  V30 15090 O 1453.94 -0.0443345 -5.46482 0
M  V30 15091 H 1451.03 0.0288461 -0.826497 0
M  V30 15092 H 1453.58 -0.690594 -1.55013 0
M  V30 15093 H 1452.35 -1.28319 -3.69662 0
M  V30 15094 H 1451.98 0.412314 -3.95456 0
M  V30 15095 N 1452.97 1.53444 -0.359552 0
M  V30 15096 C 1453.9 2.28475 0.4818 0
M  V30 15097 C 1454.88 1.30664 1.08908 0
M  V30 15098 O 1456.07 1.59527 1.10746 0
M  V30 15099 C 1453.2 3.06951 1.62477 0
M  V30 15100 C 1452.15 4.12399 1.14504 0
M  V30 15101 C 1451.48 4.78922 2.37777 0
M  V30 15102 C 1452.78 5.21775 0.234075 0
M  V30 15103 H 1454.47 2.99053 -0.144162 0
M  V30 15104 H 1452.02 1.43826 -0.0707746 0
M  V30 15105 H 1453.97 3.58186 2.21993 0
M  V30 15106 H 1452.7 2.34053 2.27787 0
M  V30 15107 H 1451.35 3.62101 0.572589 0
M  V30 15108 H 1451 4.02602 3.0153 0
M  V30 15109 H 1450.7 5.50175 2.06353 0
M  V30 15110 H 1452.23 5.32948 2.97991 0
M  V30 15111 H 1453.64 5.68549 0.736548 0
M  V30 15112 H 1452.04 6.00099 0.0109887 0
M  V30 15113 H 1453.11 4.79443 -0.725435 0
M  V30 15114 N 1454.45 0.0885642 1.57351 0
M  V30 15115 C 1455.41 -0.858178 2.12528 0
M  V30 15116 C 1456.41 -1.21522 1.05304 0
M  V30 15117 O 1457.6 -1.14573 1.3122 0
M  V30 15118 C 1454.74 -2.15619 2.64048 0
M  V30 15119 H 1455.93 -0.37918 2.97493 0
M  V30 15120 H 1453.48 -0.160354 1.55475 0
M  V30 15121 H 1454.22 -2.68018 1.82584 0
M  V30 15122 H 1454 -1.90995 3.42437 0
M  V30 15123 H 1455.49 -2.83359 3.06753 0
M  V30 15124 N 1455.93 -1.56509 -0.185096 0
M  V30 15125 C 1457.16 -1.85327 -0.91986 0
M  V30 15126 C 1457.57 -0.672294 -1.76425 0
M  V30 15127 O 1456.93 0.358854 -1.78937 0
M  V30 15128 C 1456.98 -3.13047 -1.80787 0
M  V30 15129 O 1456.7 -4.26591 -0.997569 0
M  V30 15130 C 1458.2 -3.55114 -2.65347 0
M  V30 15131 H 1455.42 -0.615196 -0.267909 0
M  V30 15132 H 1457.97 -2.03622 -0.189338 0
M  V30 15133 H 1456.12 -2.96619 -2.4919 0
M  V30 15134 H 1456.53 -4.99384 -1.60362 0
M  V30 15135 H 1458.01 -4.47419 -3.23295 0
M  V30 15136 H 1458.49 -2.78576 -3.39547 0
M  V30 15137 H 1459.09 -3.74105 -2.023 0
M  V30 15138 N 1457.41 0.45317 -1.50944 0
M  V30 15139 C 1458.32 1.57435 -1.73929 0
M  V30 15140 C 1459.33 1.62467 -0.622935 0
M  V30 15141 O 1460.51 1.80004 -0.903365 0
M  V30 15142 C 1457.57 2.93534 -1.84495 0
M  V30 15143 C 1456.63 2.98747 -3.083 0
M  V30 15144 C 1455.87 4.28354 -3.18352 0
M  V30 15145 O 1456.09 5.1986 -2.34738 0
M  V30 15146 O 1455.02 4.39527 -4.11217 0
M  V30 15147 H 1458.85 1.40959 -2.69006 0
M  V30 15148 H 1456.44 0.634545 -1.35255 0
M  V30 15149 H 1458.32 3.74336 -1.93522 0
M  V30 15150 H 1456.99 3.10171 -0.926044 0
M  V30 15151 H 1455.9 2.16958 -3.04762 0
M  V30 15152 H 1457.23 2.87051 -3.99828 0
M  V30 15153 N 1458.88 1.40823 0.707568 0
M  V30 15154 C 1459.79 1.44058 1.85161 0
M  V30 15155 C 1460.81 0.332357 1.70796 0
M  V30 15156 O 1461.99 0.578205 1.92922 0
M  V30 15157 C 1459.05 1.3091 3.21035 0
M  V30 15158 C 1458.11 2.51944 3.47595 0
M  V30 15159 C 1457.35 2.39414 4.76987 0
M  V30 15160 O 1457.57 1.41224 5.52641 0
M  V30 15161 O 1456.5 3.28944 5.04063 0
M  V30 15162 H 1460.33 2.40551 1.85388 0
M  V30 15163 H 1457.91 1.22232 0.859052 0
M  V30 15164 H 1459.8 1.25816 4.02179 0
M  V30 15165 H 1458.47 0.375263 3.21517 0
M  V30 15166 H 1457.38 2.62615 2.66428 0
M  V30 15167 H 1458.71 3.44115 3.51917 0
M  V30 15168 N 1460.36 -0.94061 1.26453 0
M  V30 15169 C 1461.61 -1.68937 1.12197 0
M  V30 15170 C 1461.94 -1.91309 -0.33382 0
M  V30 15171 O 1461.22 -1.49417 -1.24518 0
M  V30 15172 C 1461.5 -3.06381 1.89215 0
M  V30 15173 C 1461.35 -2.91331 3.42704 0
M  V30 15174 C 1462.67 -4.06507 1.68642 0
M  V30 15175 H 1459.79 -0.613121 0.408964 0
M  V30 15176 H 1462.43 -1.09242 1.55455 0
M  V30 15177 H 1460.58 -3.57339 1.5245 0
M  V30 15178 H 1462.25 -2.47591 3.89226 0
M  V30 15179 H 1460.5 -2.26945 3.697 0
M  V30 15180 H 1461.17 -3.88818 3.91822 0
M  V30 15181 H 1463.64 -3.64512 2.00674 0
M  V30 15182 H 1462.52 -5.0069 2.24945 0
M  V30 15183 H 1462.78 -4.37572 0.631131 0
M  V30 15184 N 1461.84 -1.08266 -1.14527 0
M  V30 15185 C 1463.07 -0.832994 -1.89937 0
M  V30 15186 C 1463.49 0.608985 -1.77969 0
M  V30 15187 O 1462.85 1.42657 -1.11887 0
M  V30 15188 C 1462.9 -1.25782 -3.37952 0
M  V30 15189 O 1462 -0.408853 -4.10368 0
M  V30 15190 H 1461.34 -0.30267 -0.591005 0
M  V30 15191 H 1463.87 -1.44371 -1.44977 0
M  V30 15192 H 1463.88 -1.23804 -3.88763 0
M  V30 15193 H 1462.56 -2.30804 -3.4598 0
M  V30 15194 H 1461.13 -0.49192 -3.69641 0
M  V30 15195 N 1463.32 1.31536 -0.86811 0
M  V30 15196 C 1464.25 2.27486 -0.279749 0
M  V30 15197 C 1465.26 1.53006 0.556158 0
M  V30 15198 O 1466.45 1.74442 0.378454 0
M  V30 15199 C 1463.55 3.33139 0.622197 0
M  V30 15200 C 1462.73 4.37026 -0.180855 0
M  V30 15201 C 1461.79 5.22183 0.64894 0
M  V30 15202 O 1460.81 5.69147 0.0776395 0
M  V30 15203 N 1462.01 5.46365 1.96127 0
M  V30 15204 H 1464.78 2.78613 -1.1043 0
M  V30 15205 H 1462.34 1.44538 -0.729409 0
M  V30 15206 H 1464.33 3.87024 1.18297 0
M  V30 15207 H 1462.9 2.8207 1.34742 0
M  V30 15208 H 1462.12 3.8324 -0.923078 0
M  V30 15209 H 1463.41 5.03508 -0.731953 0
M  V30 15210 H 1462.81 5.09962 2.44857 0
M  V30 15211 H 1461.36 6.03192 2.46987 0
M  V30 15212 N 1464.8 0.627364 1.44575 0
M  V30 15213 C 1465.73 -0.129056 2.27835 0
M  V30 15214 C 1466.71 -0.854852 1.38315 0
M  V30 15215 O 1467.89 -0.859709 1.67754 0
M  V30 15216 C 1465.02 -1.18866 3.17157 0
M  V30 15217 C 1464.07 -0.563816 4.22757 0
M  V30 15218 S 1464.9 0.643269 5.31622 0
M  V30 15219 C 1466.05 -0.416443 6.24513 0
M  V30 15220 H 1466.29 0.577281 2.91641 0
M  V30 15221 H 1463.82 0.415427 1.48706 0
M  V30 15222 H 1465.78 -1.79508 3.69171 0
M  V30 15223 H 1464.44 -1.86717 2.52578 0
M  V30 15224 H 1463.63 -1.36173 4.85256 0
M  V30 15225 H 1463.23 -0.0321045 3.73986 0
M  V30 15226 H 1465.53 -1.29006 6.65104 0
M  V30 15227 H 1466.47 0.172871 7.07889 0
M  V30 15228 H 1466.88 -0.740651 5.5962 0
M  V30 15229 N 1466.28 -1.53251 0.367684 0
M  V30 15230 C 1467.21 -2.23396 -0.512539 0
M  V30 15231 C 1468.22 -1.2488 -1.04446 0
M  V30 15232 O 1469.41 -1.5109 -0.950477 0
M  V30 15233 C 1466.51 -2.91971 -1.72064 0
M  V30 15234 C 1465.68 -4.17011 -1.31986 0
M  V30 15235 C 1464.74 -4.68779 -2.39025 0
M  V30 15236 O 1463.77 -5.32405 -2.01328 0
M  V30 15237 N 1464.97 -4.46773 -3.7064 0
M  V30 15238 H 1467.73 -2.9957 0.0883152 0
M  V30 15239 H 1465.3 -1.60746 0.192966 0
M  V30 15240 H 1467.29 -3.23511 -2.43152 0
M  V30 15241 H 1465.86 -2.19237 -2.22831 0
M  V30 15242 H 1465.08 -3.91751 -0.438732 0
M  V30 15243 H 1466.37 -4.98298 -1.02842 0
M  V30 15244 H 1465.76 -3.95938 -4.04042 0
M  V30 15245 H 1464.32 -4.82857 -4.37827 0
M  V30 15246 N 1467.75 -0.0969077 -1.57302 0
M  V30 15247 C 1468.68 0.858443 -2.17147 0
M  V30 15248 C 1469.66 1.29294 -1.10531 0
M  V30 15249 O 1470.85 1.3595 -1.38676 0
M  V30 15250 C 1467.98 2.11691 -2.75326 0
M  V30 15251 C 1466.93 1.82097 -3.8733 0
M  V30 15252 C 1466.26 3.14787 -4.32219 0
M  V30 15253 C 1467.56 1.10651 -5.10444 0
M  V30 15254 H 1469.25 0.35982 -2.9723 0
M  V30 15255 H 1466.8 0.17163 -1.42974 0
M  V30 15256 H 1468.75 2.78963 -3.15844 0
M  V30 15257 H 1467.48 2.63839 -1.925 0
M  V30 15258 H 1466.14 1.17222 -3.47354 0
M  V30 15259 H 1465.78 3.64826 -3.46281 0
M  V30 15260 H 1465.48 2.95769 -5.07735 0
M  V30 15261 H 1467.01 3.83215 -4.75372 0
M  V30 15262 H 1468.42 1.68036 -5.48121 0
M  V30 15263 H 1466.82 1.01805 -5.91401 0
M  V30 15264 H 1467.89 0.0895634 -4.84817 0
M  V30 15265 N 1469.23 1.56605 0.176793 0
M  V30 15266 C 1470.47 1.83477 0.900858 0
M  V30 15267 C 1470.84 0.677051 1.79666 0
M  V30 15268 O 1472.04 0.826091 2.55791 0
M  V30 15269 C 1470.31 3.15444 1.68017 0
M  V30 15270 S 1471.87 3.63781 2.45375 0
M  V30 15271 H 1468.68 0.643758 0.301823 0
M  V30 15272 H 1471.29 1.9482 0.162888 0
M  V30 15273 H 1469.99 3.97701 1.01302 0
M  V30 15274 H 1469.52 3.07028 2.45962 0
M  V30 15275 H 1471.54 3.30672 3.6996 0
M  V30 15276 N 1470.71 -0.445159 1.51182 0
M  V30 15277 C 1471.93 -1.22249 1.67541 0
M  V30 15278 C 1472.36 -1.84446 0.368972 0
M  V30 15279 O 1471.72 -1.68463 -0.670058 0
M  V30 15280 C 1471.77 -2.288 2.78717 0
M  V30 15281 O 1470.87 -3.34094 2.41775 0
M  V30 15282 H 1470.21 -0.358516 0.558894 0
M  V30 15283 H 1472.74 -0.526696 1.97704 0
M  V30 15284 H 1472.75 -2.73708 3.02569 0
M  V30 15285 H 1471.43 -1.82906 3.73521 0
M  V30 15286 H 1470 -2.94717 2.28466 0
M  V30 15287 N 1472.19 -1.41197 -0.700089 0
M  V30 15288 C 1473.12 -1.38616 -1.82533 0
M  V30 15289 C 1474.13 -0.289047 -1.60213 0
M  V30 15290 O 1475.32 -0.550465 -1.698 0
M  V30 15291 C 1472.42 -1.13815 -3.19217 0
M  V30 15292 C 1471.59 -2.3548 -3.68603 0
M  V30 15293 C 1470.65 -2.06604 -4.83943 0
M  V30 15294 O 1469.68 -2.79604 -4.95792 0
M  V30 15295 N 1470.88 -1.05351 -5.7086 0
M  V30 15296 H 1473.65 -2.35598 -1.8524 0
M  V30 15297 H 1471.21 -1.3575 -0.882238 0
M  V30 15298 H 1473.2 -0.924571 -3.93997 0
M  V30 15299 H 1471.77 -0.254468 -3.11563 0
M  V30 15300 H 1470.99 -2.72569 -2.8478 0
M  V30 15301 H 1472.28 -3.16553 -3.98336 0
M  V30 15302 H 1471.68 -0.449223 -5.63914 0
M  V30 15303 H 1470.23 -0.899819 -6.45559 0
M  V30 15304 N 1473.67 0.933891 -1.2695 0
M  V30 15305 C 1474.63 2.0152 -1.0919 0
M  V30 15306 C 1475.63 1.60755 -0.037865 0
M  V30 15307 O 1476.82 1.71904 -0.281917 0
M  V30 15308 C 1473.95 3.34403 -0.66239 0
M  V30 15309 H 1475.14 2.18706 -2.05201 0
M  V30 15310 H 1472.7 1.11385 -1.0965 0
M  V30 15311 H 1473.43 3.22915 0.299388 0
M  V30 15312 H 1473.22 3.65345 -1.42356 0
M  V30 15313 H 1474.71 4.13826 -0.560187 0
M  V30 15314 N 1475.14 1.08871 1.13951 0
M  V30 15315 C 1476.11 0.726655 2.17376 0
M  V30 15316 C 1477.11 -0.240922 1.58985 0
M  V30 15317 O 1478.3 -0.0198472 1.74189 0
M  V30 15318 C 1475.43 0.0736505 3.4082 0
M  V30 15319 H 1476.62 1.64254 2.5092 0
M  V30 15320 H 1474.17 0.887183 1.28681 0
M  V30 15321 H 1474.91 -0.853733 3.12861 0
M  V30 15322 H 1474.69 0.769782 3.84469 0
M  V30 15323 H 1476.18 -0.164465 4.17276 0
M  V30 15324 N 1476.62 -1.31073 0.875073 0
M  V30 15325 C 1477.53 -2.3215 0.338196 0
M  V30 15326 C 1478.55 -1.64928 -0.554504 0
M  V30 15327 O 1479.72 -1.96308 -0.449998 0
M  V30 15328 C 1476.79 -3.43804 -0.447163 0
M  V30 15329 C 1475.85 -4.26674 0.474106 0
M  V30 15330 C 1475.08 -5.32997 -0.273867 0
M  V30 15331 O 1475.31 -5.50288 -1.50129 0
M  V30 15332 O 1474.24 -6.00756 0.370913 0
M  V30 15333 H 1478.07 -2.80002 1.17612 0
M  V30 15334 H 1475.65 -1.35064 0.6386 0
M  V30 15335 H 1477.53 -4.11847 -0.892199 0
M  V30 15336 H 1476.21 -2.98105 -1.26155 0
M  V30 15337 H 1475.11 -3.61366 0.967748 0
M  V30 15338 H 1476.45 -4.75952 1.25423 0
M  V30 15339 N 1478.1 -0.635022 -1.4424 0
M  V30 15340 C 1479.01 0.0686832 -2.34499 0
M  V30 15341 C 1480.03 0.831574 -1.52843 0
M  V30 15342 O 1481.2 0.782954 -1.85558 0
M  V30 15343 C 1478.27 1.03543 -3.30877 0
M  V30 15344 C 1477.33 0.271484 -4.28441 0
M  V30 15345 C 1476.56 1.19218 -5.20214 0
M  V30 15346 O 1476.78 2.43101 -5.16002 0
M  V30 15347 O 1475.72 0.6744 -5.9811 0
M  V30 15348 H 1479.54 -0.673781 -2.96132 0
M  V30 15349 H 1477.13 -0.395211 -1.44078 0
M  V30 15350 H 1479.01 1.59151 -3.90191 0
M  V30 15351 H 1477.69 1.75844 -2.71773 0
M  V30 15352 H 1476.59 -0.327736 -3.72662 0
M  V30 15353 H 1477.93 -0.411584 -4.90476 0
M  V30 15354 N 1479.58 1.53054 -0.375806 0
M  V30 15355 C 1480.51 2.28973 0.45754 0
M  V30 15356 C 1481.49 1.31812 1.07516 0
M  V30 15357 O 1482.67 1.60693 1.09048 0
M  V30 15358 C 1479.8 3.08657 1.59212 0
M  V30 15359 C 1478.76 4.1359 1.10123 0
M  V30 15360 C 1478.08 4.81417 2.32684 0
M  V30 15361 C 1479.38 5.21994 0.17872 0
M  V30 15362 H 1481.08 2.98883 -0.175872 0
M  V30 15363 H 1478.62 1.43743 -0.0860253 0
M  V30 15364 H 1480.58 3.6052 2.18182 0
M  V30 15365 H 1479.3 2.36456 2.25291 0
M  V30 15366 H 1477.96 3.62688 0.534151 0
M  V30 15367 H 1477.61 4.05778 2.97243 0
M  V30 15368 H 1477.31 5.52332 2.00506 0
M  V30 15369 H 1478.83 5.36079 2.92322 0
M  V30 15370 H 1480.25 5.69298 0.676204 0
M  V30 15371 H 1478.64 6.00077 -0.0526605 0
M  V30 15372 H 1479.71 4.78646 -0.776246 0
M  V30 15373 N 1481.06 0.105248 1.57248 0
M  V30 15374 C 1482.31 -0.555797 1.93891 0
M  V30 15375 C 1482.62 -1.68703 0.989883 0
M  V30 15376 O 1483.82 -2.40991 1.25043 0
M  V30 15377 C 1482.28 -1.04006 3.44544 0
M  V30 15378 C 1481.89 0.0619641 4.47957 0
M  V30 15379 C 1483.63 -1.67327 3.90131 0
M  V30 15380 C 1481.54 -0.438229 5.89774 0
M  V30 15381 H 1480.47 -0.211391 0.723761 0
M  V30 15382 H 1483.12 0.182887 1.82586 0
M  V30 15383 H 1481.5 -1.83275 3.51036 0
M  V30 15384 H 1482.68 0.837803 4.5312 0
M  V30 15385 H 1480.99 0.600973 4.1204 0
M  V30 15386 H 1483.59 -2.0584 4.93492 0
M  V30 15387 H 1483.93 -2.54638 3.29341 0
M  V30 15388 H 1484.46 -0.946231 3.86382 0
M  V30 15389 H 1481.2 0.398506 6.54288 0
M  V30 15390 H 1480.72 -1.18085 5.88061 0
M  V30 15391 H 1482.4 -0.903922 6.40655 0
M  V30 15392 N 1482.53 -1.56697 -0.168486 0
M  V30 15393 C 1483.76 -1.86292 -0.900152 0
M  V30 15394 C 1484.18 -0.690968 -1.75702 0
M  V30 15395 O 1483.53 0.339855 -1.79308 0
M  V30 15396 C 1483.59 -3.14946 -1.77457 0
M  V30 15397 O 1483.31 -4.27625 -0.952267 0
M  V30 15398 C 1484.81 -3.57908 -2.61566 0
M  V30 15399 H 1482.03 -0.618003 -0.261369 0
M  V30 15400 H 1484.57 -2.03811 -0.16773 0
M  V30 15401 H 1482.73 -2.99246 -2.4603 0
M  V30 15402 H 1483.14 -5.01057 -1.55056 0
M  V30 15403 H 1484.61 -4.50823 -3.18532 0
M  V30 15404 H 1485.09 -2.82162 -3.36573 0
M  V30 15405 H 1485.7 -3.7623 -1.98321 0
M  V30 15406 N 1484.01 0.437135 -1.51416 0
M  V30 15407 C 1485.43 0.773631 -1.39596 0
M  V30 15408 C 1485.63 1.95737 -0.478463 0
M  V30 15409 O 1484.68 2.52413 0.0662971 0
M  V30 15410 C 1486 1.05381 -2.8163 0
M  V30 15411 C 1487.55 1.15824 -2.90782 0
M  V30 15412 C 1488.02 1.47135 -4.33722 0
M  V30 15413 N 1489.51 1.54059 -4.3683 0
M  V30 15414 C 1490.25 1.79858 -5.44462 0
M  V30 15415 N 1489.74 2.03449 -6.62254 0
M  V30 15416 N 1491.54 1.81642 -5.31942 0
M  V30 15417 H 1483.69 -0.342468 -2.09621 0
M  V30 15418 H 1485.95 -0.0908158 -0.94364 0
M  V30 15419 H 1485.66 0.256708 -3.50762 0
M  V30 15420 H 1485.53 1.98139 -3.20968 0
M  V30 15421 H 1487.92 1.94597 -2.21847 0
M  V30 15422 H 1488 0.209663 -2.54939 0
M  V30 15423 H 1487.64 0.688897 -5.03206 0
M  V30 15424 H 1487.57 2.43199 -4.67078 0
M  V30 15425 H 1490.06 1.3773 -3.51907 0
M  V30 15426 H 1490.38 2.22506 -7.40075 0
M  V30 15427 H 1488.72 2.00771 -6.65369 0
M  V30 15428 H 1491.91 1.62731 -4.38903 0
M  V30 15429 H 1492.08 2.01411 -6.15904 0
M  V30 15430 N 1485.49 1.41566 0.692592 0
M  V30 15431 C 1486.74 1.40381 1.44831 0
M  V30 15432 C 1487.05 0.0172068 1.95592 0
M  V30 15433 O 1488.26 -0.11726 2.71247 0
M  V30 15434 C 1486.71 2.46844 2.61908 0
M  V30 15435 C 1486.32 3.91426 2.17921 0
M  V30 15436 C 1488.07 2.548 3.39525 0
M  V30 15437 C 1485.97 4.89436 3.31974 0
M  V30 15438 H 1484.9 0.522062 0.544028 0
M  V30 15439 H 1487.55 1.67402 0.751589 0
M  V30 15440 H 1485.94 2.12959 3.33863 0
M  V30 15441 H 1487.11 4.34575 1.53236 0
M  V30 15442 H 1485.43 3.87158 1.5329 0
M  V30 15443 H 1488.02 3.25207 4.24434 0
M  V30 15444 H 1488.37 1.58579 3.84913 0
M  V30 15445 H 1488.9 2.87791 2.74629 0
M  V30 15446 H 1485.64 5.87071 2.91595 0
M  V30 15447 H 1485.16 4.50933 3.95499 0
M  V30 15448 H 1486.84 5.10331 3.97708 0
M  V30 15449 N 1486.97 -0.927146 1.27443 0
M  V30 15450 C 1488.21 -1.68946 1.15051 0
M  V30 15451 C 1488.57 -1.89664 -0.298585 0
M  V30 15452 O 1489.77 -2.63218 -0.544943 0
M  V30 15453 C 1488.04 -3.01884 1.91313 0
M  V30 15454 S 1489.6 -3.93021 1.9514 0
M  V30 15455 H 1486.42 -0.580376 0.410713 0
M  V30 15456 H 1489.02 -1.10378 1.61359 0
M  V30 15457 H 1487.73 -2.84496 2.95787 0
M  V30 15458 H 1487.26 -3.65504 1.45501 0
M  V30 15459 H 1489.27 -4.85002 1.04822 0
M  V30 15460 N 1488.45 -1.09474 -1.13372 0
M  V30 15461 C 1489.72 -0.743485 -1.80919 0
M  V30 15462 C 1490.1 0.771414 -1.965 0
M  V30 15463 O 1489.45 1.694 -1.53349 0
M  V30 15464 C 1489.66 -1.48309 -3.1592 0
M  V30 15465 C 1491.01 -1.64921 -3.91263 0
M  V30 15466 O 1492.03 -1.44564 -3.25545 0
M  V30 15467 O 1490.89 -1.98595 -5.09139 0
M  V30 15468 H 1487.99 -0.26713 -0.782669 0
M  V30 15469 H 1490.53 -1.19697 -1.20294 0
M  V30 15470 H 1489.3 -2.51456 -2.99809 0
M  V30 15471 H 1488.93 -1.02181 -3.84246 0
M  V30 15472 N 1489.92 1.30607 -0.882012 0
M  V30 15473 C 1490.89 2.26489 -0.351498 0
M  V30 15474 C 1491.89 1.52686 0.504348 0
M  V30 15475 O 1493.08 1.71385 0.311928 0
M  V30 15476 C 1490.21 3.37222 0.499435 0
M  V30 15477 H 1491.4 2.74929 -1.19809 0
M  V30 15478 H 1488.96 1.41746 -0.658616 0
M  V30 15479 H 1489.69 2.94093 1.36673 0
M  V30 15480 H 1489.48 3.91936 -0.11356 0
M  V30 15481 H 1490.97 4.08596 0.862497 0
M  V30 15482 N 1491.4 0.642663 1.43901 0
M  V30 15483 C 1492.37 -0.0457858 2.29154 0
M  V30 15484 C 1493.37 -0.760988 1.41653 0
M  V30 15485 O 1494.56 -0.603832 1.634 0
M  V30 15486 C 1491.69 -1.07552 3.23489 0
M  V30 15487 H 1492.88 0.704193 2.91515 0
M  V30 15488 H 1490.43 0.403361 1.51006 0
M  V30 15489 H 1491.17 -1.85509 2.66002 0
M  V30 15490 H 1490.95 -0.566468 3.87987 0
M  V30 15491 H 1492.44 -1.55663 3.87503 0
M  V30 15492 N 1492.88 -1.52852 0.383918 0
M  V30 15493 C 1494.11 -2.05929 -0.200216 0
M  V30 15494 C 1494.52 -1.25606 -1.40956 0
M  V30 15495 O 1493.88 -0.301336 -1.79995 0
M  V30 15496 C 1493.93 -3.56887 -0.575655 0
M  V30 15497 O 1493.65 -4.34168 0.58564 0
M  V30 15498 C 1495.15 -4.2629 -1.21623 0
M  V30 15499 H 1492.37 -0.670261 -0.0314727 0
M  V30 15500 H 1494.92 -1.97032 0.547591 0
M  V30 15501 H 1493.07 -3.65875 -1.27336 0
M  V30 15502 H 1493.49 -5.23761 0.278267 0
M  V30 15503 H 1494.96 -5.33174 -1.42933 0
M  V30 15504 H 1495.44 -3.81163 -2.182 0
M  V30 15505 H 1496.04 -4.21605 -0.559435 0
M  V30 15506 N 1494.36 -0.113586 -1.5719 0
M  V30 15507 C 1495.61 0.545507 -1.94183 0
M  V30 15508 C 1495.92 1.68176 -0.998816 0
M  V30 15509 O 1497.13 2.40324 -1.26319 0
M  V30 15510 C 1495.58 1.02178 -3.45091 0
M  V30 15511 C 1495.19 -0.0857195 -4.47918 0
M  V30 15512 C 1496.94 1.65255 -3.91013 0
M  V30 15513 C 1494.84 0.406946 -5.89998 0
M  V30 15514 H 1493.77 0.20755 -0.724872 0
M  V30 15515 H 1496.42 -0.192567 -1.82487 0
M  V30 15516 H 1494.81 1.81411 -3.52003 0
M  V30 15517 H 1495.98 -0.861821 -4.52669 0
M  V30 15518 H 1494.29 -0.622816 -4.11716 0
M  V30 15519 H 1496.89 2.0322 -4.94576 0
M  V30 15520 H 1497.23 2.52888 -3.30687 0
M  V30 15521 H 1497.77 0.925727 -3.86879 0
M  V30 15522 H 1494.51 -0.433199 -6.54067 0
M  V30 15523 H 1494.03 1.14965 -5.88679 0
M  V30 15524 H 1495.71 0.869934 -6.41125 0
M  V30 15525 N 1495.84 1.56784 0.160173 0
M  V30 15526 C 1496.79 1.9368 1.203 0
M  V30 15527 C 1497.77 0.806435 1.39232 0
M  V30 15528 O 1498.96 1.06975 1.41015 0
M  V30 15529 C 1496.09 2.30972 2.53982 0
M  V30 15530 C 1495.18 3.50549 2.38697 0
M  V30 15531 N 1495.57 4.6747 1.93145 0
M  V30 15532 C 1493.87 3.55375 2.6949 0
M  V30 15533 C 1494.57 5.49591 1.9059 0
M  V30 15534 N 1493.54 4.90938 2.33412 0
M  V30 15535 H 1497.35 2.8156 0.842691 0
M  V30 15536 H 1494.86 1.58167 0.368351 0
M  V30 15537 H 1496.86 2.55604 3.29351 0
M  V30 15538 H 1495.52 1.44437 2.90806 0
M  V30 15539 H 1496.53 4.91477 1.63312 0
M  V30 15540 H 1493.21 2.79346 3.10277 0
M  V30 15541 H 1494.6 6.53306 1.56976 0
M  V30 15542 N 1497.32 -0.429099 1.51646 0
M  V30 15543 C 1498.56 -1.18722 1.66386 0
M  V30 15544 C 1498.92 -1.88285 0.375881 0
M  V30 15545 O 1500.12 -2.6582 0.399149 0
M  V30 15546 C 1498.39 -2.17076 2.83924 0
M  V30 15547 S 1499.95 -3.01264 3.19038 0
M  V30 15548 H 1496.77 -0.402488 0.586109 0
M  V30 15549 H 1499.37 -0.47752 1.89578 0
M  V30 15550 H 1498.07 -1.64625 3.75935 0
M  V30 15551 H 1497.61 -2.92615 2.62945 0
M  V30 15552 H 1499.62 -4.18807 2.66111 0
M  V30 15553 N 1498.79 -1.41931 -0.685074 0
M  V30 15554 C 1499.72 -1.47385 -1.81107 0
M  V30 15555 C 1500.7 -0.331433 -1.6684 0
M  V30 15556 O 1501.89 -0.544331 -1.86415 0
M  V30 15557 C 1499.02 -1.36555 -3.19327 0
M  V30 15558 C 1497.97 -2.48718 -3.48315 0
M  V30 15559 C 1497.3 -2.2295 -4.86002 0
M  V30 15560 C 1498.6 -3.91047 -3.46237 0
M  V30 15561 H 1500.29 -2.41624 -1.768 0
M  V30 15562 H 1497.84 -1.16297 -0.849178 0
M  V30 15563 H 1499.79 -1.38981 -3.97822 0
M  V30 15564 H 1498.52 -0.388063 -3.24286 0
M  V30 15565 H 1497.18 -2.45592 -2.72176 0
M  V30 15566 H 1496.82 -1.23518 -4.87598 0
M  V30 15567 H 1496.52 -2.98116 -5.0636 0
M  V30 15568 H 1498.05 -2.27108 -5.66793 0
M  V30 15569 H 1499.46 -3.95831 -4.14718 0
M  V30 15570 H 1497.86 -4.65981 -3.7813 0
M  V30 15571 H 1498.93 -4.1845 -2.45006 0
M  V30 15572 N 1500.27 0.920374 -1.27933 0
M  V30 15573 C 1501.2 2.03882 -1.13817 0
M  V30 15574 C 1502.18 1.70058 -0.0376853 0
M  V30 15575 O 1503.37 1.93023 -0.213492 0
M  V30 15576 C 1500.5 3.38142 -0.792296 0
M  V30 15577 C 1499.45 3.86104 -1.84683 0
M  V30 15578 C 1498.78 5.17253 -1.35474 0
M  V30 15579 C 1500.08 4.0869 -3.25223 0
M  V30 15580 H 1501.77 2.15949 -2.07379 0
M  V30 15581 H 1499.32 1.03764 -0.998454 0
M  V30 15582 H 1501.27 4.15872 -0.680337 0
M  V30 15583 H 1499.99 3.26109 0.179029 0
M  V30 15584 H 1498.65 3.10573 -1.94782 0
M  V30 15585 H 1498.3 5.01618 -0.372666 0
M  V30 15586 H 1498 5.50314 -2.05982 0
M  V30 15587 H 1499.53 5.97545 -1.25587 0
M  V30 15588 H 1500.94 4.76965 -3.18083 0
M  V30 15589 H 1499.34 4.5307 -3.93507 0
M  V30 15590 H 1500.41 3.13729 -3.69733 0
M  V30 15591 N 1501.75 1.10074 1.1279 0
M  V30 15592 C 1502.66 0.758458 2.22001 0
M  V30 15593 C 1503.68 -0.242438 1.72303 0
M  V30 15594 O 1504.85 -0.0821223 2.01233 0
M  V30 15595 C 1501.92 0.191326 3.46172 0
M  V30 15596 C 1500.98 1.24902 4.10729 0
M  V30 15597 C 1500.21 0.708857 5.28972 0
M  V30 15598 O 1500.43 -0.465993 5.68493 0
M  V30 15599 O 1499.37 1.46703 5.83748 0
M  V30 15600 H 1503.19 1.66997 2.53665 0
M  V30 15601 H 1500.78 0.875604 1.21052 0
M  V30 15602 H 1502.66 -0.121292 4.21225 0
M  V30 15603 H 1501.34 -0.693094 3.16193 0
M  V30 15604 H 1500.24 1.61444 3.37471 0
M  V30 15605 H 1501.58 2.10632 4.44854 0
M  V30 15606 N 1503.23 -1.30138 0.888926 0
M  V30 15607 C 1504.16 -2.27013 0.315904 0
M  V30 15608 C 1505.17 -1.53871 -0.531746 0
M  V30 15609 O 1506.36 -1.75022 -0.350654 0
M  V30 15610 C 1503.46 -3.34087 -0.569119 0
M  V30 15611 C 1502.63 -4.36683 0.250359 0
M  V30 15612 C 1501.69 -5.23149 -0.565783 0
M  V30 15613 O 1500.72 -5.69199 0.0129167 0
M  V30 15614 N 1501.92 -5.49416 -1.8741 0
M  V30 15615 H 1504.69 -2.76821 1.14848 0
M  V30 15616 H 1502.25 -1.43359 0.752311 0
M  V30 15617 H 1504.24 -3.88857 -1.12125 0
M  V30 15618 H 1502.81 -2.84178 -1.30237 0
M  V30 15619 H 1502.03 -3.81723 0.983931 0
M  V30 15620 H 1503.32 -5.02279 0.811964 0
M  V30 15621 H 1502.72 -5.13793 -2.36713 0
M  V30 15622 H 1501.27 -6.07045 -2.37359 0
M  V30 15623 N 1504.71 -0.650285 -1.43559 0
M  V30 15624 C 1505.62 0.0438076 -2.34559 0
M  V30 15625 C 1506.63 0.815316 -1.53716 0
M  V30 15626 O 1507.81 0.76323 -1.86378 0
M  V30 15627 C 1504.87 1.00028 -3.31957 0
M  V30 15628 C 1503.93 0.226027 -4.28705 0
M  V30 15629 C 1503.17 1.13694 -5.21449 0
M  V30 15630 O 1503.39 2.37614 -5.18551 0
M  V30 15631 O 1502.32 0.610924 -5.98792 0
M  V30 15632 H 1506.15 -0.705152 -2.954 0
M  V30 15633 H 1503.73 -0.410471 -1.43651 0
M  V30 15634 H 1505.62 1.55004 -3.91857 0
M  V30 15635 H 1504.29 1.72952 -2.73623 0
M  V30 15636 H 1503.2 -0.367244 -3.72293 0
M  V30 15637 H 1504.53 -0.463582 -4.90012 0
M  V30 15638 N 1506.18 1.52647 -0.392018 0
M  V30 15639 C 1507.11 2.29446 0.433228 0
M  V30 15640 C 1508.09 1.32945 1.06111 0
M  V30 15641 O 1509.28 1.61841 1.07337 0
M  V30 15642 C 1506.41 3.10328 1.55929 0
M  V30 15643 C 1505.36 4.14735 1.05731 0
M  V30 15644 C 1504.69 4.83858 2.27565 0
M  V30 15645 C 1505.99 5.22154 0.123346 0
M  V30 15646 H 1507.68 2.9868 -0.207563 0
M  V30 15647 H 1505.23 1.43643 -0.101266 0
M  V30 15648 H 1507.18 3.62814 2.14346 0
M  V30 15649 H 1505.91 2.38832 2.22771 0
M  V30 15650 H 1504.57 3.63234 0.495653 0
M  V30 15651 H 1504.21 4.08907 2.92923 0
M  V30 15652 H 1503.91 5.54428 1.94637 0
M  V30 15653 H 1505.44 5.39149 2.86619 0
M  V30 15654 H 1506.85 5.69983 0.615784 0
M  V30 15655 H 1505.25 5.99987 -0.116304 0
M  V30 15656 H 1506.32 4.77796 -0.826969 0
M  V30 15657 N 1507.66 0.121921 1.57128 0
M  V30 15658 C 1508.63 -0.812905 2.143 0
M  V30 15659 C 1509.63 -1.19261 1.07858 0
M  V30 15660 O 1510.82 -1.11764 1.33621 0
M  V30 15661 C 1507.95 -2.09969 2.68562 0
M  V30 15662 H 1509.14 -0.315992 2.98231 0
M  V30 15663 H 1506.69 -0.12734 1.5578 0
M  V30 15664 H 1507.43 -2.64085 1.88228 0
M  V30 15665 H 1507.21 -1.83688 3.46412 0
M  V30 15666 H 1508.7 -2.76788 3.12695 0
M  V30 15667 N 1509.14 -1.56867 -0.151857 0
M  V30 15668 C 1510.09 -1.94315 -1.19271 0
M  V30 15669 C 1511.07 -0.813807 -1.38802 0
M  V30 15670 O 1512.27 -1.07722 -1.40446 0
M  V30 15671 C 1509.4 -2.32316 -2.52753 0
M  V30 15672 C 1508.48 -3.5181 -2.36835 0
M  V30 15673 N 1508.87 -4.68488 -1.90663 0
M  V30 15674 C 1507.17 -3.56799 -2.67602 0
M  V30 15675 C 1507.87 -5.50594 -1.87673 0
M  V30 15676 N 1506.85 -4.92169 -2.30805 0
M  V30 15677 H 1510.65 -2.82003 -0.827747 0
M  V30 15678 H 1508.16 -1.58361 -0.359958 0
M  V30 15679 H 1510.16 -2.57347 -3.27991 0
M  V30 15680 H 1508.82 -1.45977 -2.90036 0
M  V30 15681 H 1509.83 -4.92336 -1.60703 0
M  V30 15682 H 1506.51 -2.80988 -3.08791 0
M  V30 15683 H 1507.9 -6.54129 -1.53509 0
M  V30 15684 N 1510.62 0.421051 -1.51871 0
M  V30 15685 C 1511.58 1.49478 -1.73749 0
M  V30 15686 C 1512.58 1.48887 -0.607395 0
M  V30 15687 O 1513.77 1.50622 -0.875143 0
M  V30 15688 C 1510.9 2.88947 -1.80893 0
M  V30 15689 H 1512.1 1.31377 -2.69593 0
M  V30 15690 H 1509.65 0.650786 -1.42107 0
M  V30 15691 H 1510.38 3.12434 -0.86922 0
M  V30 15692 H 1510.17 2.90781 -2.63038 0
M  V30 15693 H 1511.66 3.66809 -1.99602 0
M  V30 15694 N 1512.1 1.42293 0.677538 0
M  V30 15695 C 1513.34 1.42827 1.43973 0
M  V30 15696 C 1513.68 0.0435041 1.94151 0
M  V30 15697 O 1512.95 -0.931794 1.70727 0
M  V30 15698 C 1513.23 2.45037 2.63873 0
M  V30 15699 C 1513.09 3.92694 2.19344 0
M  V30 15700 C 1514.41 2.4427 3.66087 0
M  V30 15701 H 1511.52 0.520097 0.522176 0
M  V30 15702 H 1514.17 1.73688 0.770219 0
M  V30 15703 H 1512.32 2.18851 3.20993 0
M  V30 15704 H 1513.99 4.2985 1.67412 0
M  V30 15705 H 1512.23 4.06692 1.50944 0
M  V30 15706 H 1512.9 4.59784 3.05455 0
M  V30 15707 H 1515.38 2.67551 3.18678 0
M  V30 15708 H 1514.25 3.17769 4.47564 0
M  V30 15709 H 1514.52 1.46769 4.17027 0
M  V30 15710 N 1513.57 -0.913576 1.28419 0
M  V30 15711 C 1514.52 -2.03739 1.1222 0
M  V30 15712 C 1515.52 -1.69349 0.0414309 0
M  V30 15713 O 1516.72 -1.78883 0.200213 0
M  V30 15714 H 1513.1 -0.667554 0.34623 0
M  V30 15715 H 1515.07 -2.14544 2.07397 0
M  V30 15716 C 1513.82 -3.38348 0.801003 0
M  V30 15717 H 1513.14 -3.65304 1.6246 0
M  V30 15718 H 1514.58 -4.1771 0.727611 0
M  V30 15719 C 1513.04 -3.3324 -0.495261 0
M  V30 15720 O 1513.57 -3.71606 -1.52551 0
M  V30 15721 N 1511.78 -2.86335 -0.496054 0
M  V30 15722 H 1511.32 -2.55309 0.342773 0
M  V30 15723 H 1511.28 -2.833 -1.3634 0
M  V30 15724 N 1515.05 -1.1067 -1.12204 0
M  V30 15725 C 1516.02 -0.761145 -2.16193 0
M  V30 15726 C 1517.02 0.215599 -1.59348 0
M  V30 15727 O 1518.21 -0.00786723 -1.74198 0
M  V30 15728 C 1515.34 -0.127863 -3.4066 0
M  V30 15729 H 1516.53 -1.68225 -2.48275 0
M  V30 15730 H 1514.08 -0.907542 -1.27253 0
M  V30 15731 H 1514.82 0.803851 -3.14179 0
M  V30 15732 H 1514.6 -0.83085 -3.83196 0
M  V30 15733 H 1516.09 0.0980593 -4.17485 0
M  V30 15734 N 1516.53 1.29665 -0.895815 0
M  V30 15735 C 1517.77 1.975 -0.526604 0
M  V30 15736 C 1518.13 1.69097 0.909403 0
M  V30 15737 O 1519.34 2.30355 1.38529 0
M  V30 15738 C 1517.61 3.48185 -0.806342 0
M  V30 15739 S 1519.17 4.35454 -0.540857 0
M  V30 15740 H 1515.98 0.68359 -0.195513 0
M  V30 15741 H 1518.59 1.57557 -1.15741 0
M  V30 15742 H 1517.29 3.6635 -1.84976 0
M  V30 15743 H 1516.82 3.9306 -0.163499 0
M  V30 15744 H 1518.84 4.92364 0.615817 0
M  V30 15745 N 1518.01 0.657889 1.43212 0
M  V30 15746 C 1519.23 0.179444 2.06622 0
M  V30 15747 C 1519.66 -1.14787 1.49015 0
M  V30 15748 O 1519.02 -1.71016 0.60192 0
M  V30 15749 C 1519.06 0.106826 3.60442 0
M  V30 15750 O 1518.17 -0.92962 4.01786 0
M  V30 15751 H 1517.51 0.0970131 0.656875 0
M  V30 15752 H 1520.04 0.902132 1.83638 0
M  V30 15753 H 1520.05 -0.07495 4.07931 0
M  V30 15754 H 1518.72 1.07574 4.01747 0
M  V30 15755 H 1517.3 -0.720255 3.65878 0
M  V30 15756 N 1519.49 -1.52437 0.400108 0
M  V30 15757 C 1520.44 -2.23576 -0.446964 0
M  V30 15758 C 1521.42 -1.24368 -1.02085 0
M  V30 15759 O 1522.61 -1.49652 -0.945165 0
M  V30 15760 C 1519.74 -3.05402 -1.56795 0
M  V30 15761 C 1518.83 -4.12013 -1.00527 0
M  V30 15762 N 1519.22 -5.05519 -0.168475 0
M  V30 15763 C 1517.52 -4.27337 -1.27669 0
M  V30 15764 C 1518.22 -5.81523 0.143579 0
M  V30 15765 N 1517.19 -5.41623 -0.463209 0
M  V30 15766 H 1521 -2.93227 0.198775 0
M  V30 15767 H 1518.51 -1.61036 0.210019 0
M  V30 15768 H 1520.51 -3.54912 -2.1873 0
M  V30 15769 H 1519.17 -2.37288 -2.2164 0
M  V30 15770 H 1520.18 -5.17532 0.195125 0
M  V30 15771 H 1516.85 -3.70452 -1.92539 0
M  V30 15772 H 1518.24 -6.6685 0.822256 0
M  V30 15773 N 1520.96 -0.130252 -1.57061 0
M  V30 15774 C 1521.93 0.801529 -2.14728 0
M  V30 15775 C 1522.93 1.18687 -1.08489 0
M  V30 15776 O 1524.12 1.11054 -1.34211 0
M  V30 15777 C 1521.25 2.08542 -2.69672 0
M  V30 15778 H 1522.44 0.300172 -2.98394 0
M  V30 15779 H 1520 0.119077 -1.55846 0
M  V30 15780 H 1520.73 2.63083 -1.89625 0
M  V30 15781 H 1520.52 1.81849 -3.47381 0
M  V30 15782 H 1522.01 2.75126 -3.14158 0
M  V30 15783 N 1522.44 1.56945 0.143535 0
M  V30 15784 C 1523.37 2.0156 1.17881 0
M  V30 15785 C 1524.35 0.895744 1.44604 0
M  V30 15786 O 1525.54 1.16379 1.55466 0
M  V30 15787 C 1522.67 2.39915 2.51114 0
M  V30 15788 C 1521.62 3.55117 2.38905 0
M  V30 15789 C 1520.95 3.79296 3.7688 0
M  V30 15790 C 1522.25 4.87668 1.87021 0
M  V30 15791 H 1523.94 2.88296 0.80783 0
M  V30 15792 H 1521.49 1.38698 0.387149 0
M  V30 15793 H 1523.44 2.69727 3.23767 0
M  V30 15794 H 1522.17 1.5012 2.90055 0
M  V30 15795 H 1520.83 3.25476 1.68703 0
M  V30 15796 H 1520.47 2.86747 4.13262 0
M  V30 15797 H 1520.17 4.56827 3.69571 0
M  V30 15798 H 1521.7 4.11537 4.51076 0
M  V30 15799 H 1523.11 5.16176 2.4947 0
M  V30 15800 H 1521.51 5.69029 1.90594 0
M  V30 15801 H 1522.58 4.77811 0.82611 0
M  V30 15802 N 1523.92 -0.412991 1.52093 0
M  V30 15803 C 1524.87 -1.52347 1.75765 0
M  V30 15804 C 1525.86 -1.57463 0.624641 0
M  V30 15805 O 1527.07 -1.60916 0.806599 0
M  V30 15806 H 1523.44 -0.50659 0.555761 0
M  V30 15807 H 1525.42 -1.29564 2.68804 0
M  V30 15808 C 1524.16 -2.89757 1.92188 0
M  V30 15809 H 1523.49 -2.86561 2.78788 0
M  V30 15810 H 1524.93 -3.66759 2.12753 0
M  V30 15811 C 1523.39 -3.29801 0.687963 0
M  V30 15812 O 1523.92 -4.01435 -0.145984 0
M  V30 15813 N 1522.12 -2.85819 0.524978 0
M  V30 15814 H 1521.67 -2.27694 1.20471 0
M  V30 15815 H 1521.63 -3.12972 -0.299325 0
M  V30 15816 N 1525.4 -1.4265 -0.669982 0
M  V30 15817 C 1526.35 -1.46504 -1.7834 0
M  V30 15818 C 1527.32 -0.316478 -1.63057 0
M  V30 15819 O 1528.5 -0.521245 -1.83542 0
M  V30 15820 C 1525.64 -1.37784 -3.16401 0
M  V30 15821 C 1524.75 -2.62714 -3.42937 0
M  V30 15822 C 1523.89 -2.46101 -4.70752 0
M  V30 15823 C 1522.93 -3.66381 -4.90338 0
M  V30 15824 N 1522.07 -3.48681 -6.09398 0
M  V30 15825 H 1526.91 -2.41651 -1.74381 0
M  V30 15826 H 1524.44 -1.1997 -0.851215 0
M  V30 15827 H 1526.4 -1.30725 -3.9619 0
M  V30 15828 H 1525.03 -0.462291 -3.19473 0
M  V30 15829 H 1524.08 -2.8012 -2.57366 0
M  V30 15830 H 1525.39 -3.52108 -3.53301 0
M  V30 15831 H 1524.55 -2.36655 -5.58641 0
M  V30 15832 H 1523.29 -1.54204 -4.6268 0
M  V30 15833 H 1522.29 -3.76254 -4.00891 0
M  V30 15834 H 1523.52 -4.59265 -5.00253 0
M  V30 15835 H 1521.46 -2.59505 -6.02489 0
M  V30 15836 H 1521.38 -4.31666 -6.20645 0
M  V30 15837 H 1522.65 -3.43056 -6.99952 0
M  V30 15838 N 1526.88 0.906753 -1.28902 0
M  V30 15839 C 1527.84 1.99158 -1.1344 0
M  V30 15840 C 1528.84 1.60639 -0.0719551 0
M  V30 15841 O 1530.03 1.71267 -0.318317 0
M  V30 15842 C 1527.16 3.32923 -0.733172 0
M  V30 15843 H 1528.36 2.14305 -2.09794 0
M  V30 15844 H 1525.91 1.09034 -1.11988 0
M  V30 15845 H 1526.64 3.23477 0.230826 0
M  V30 15846 H 1526.43 3.62244 -1.50073 0
M  V30 15847 H 1527.92 4.12544 -0.64784 0
M  V30 15848 N 1528.36 1.11264 1.11616 0
M  V30 15849 C 1529.3 0.764321 2.19684 0
M  V30 15850 C 1530.3 -0.243396 1.67642 0
M  V30 15851 O 1531.5 -0.102869 1.79706 0
M  V30 15852 H 1527.88 0.229275 0.716196 0
M  V30 15853 H 1529.85 1.68445 2.46311 0
M  V30 15854 C 1528.6 0.22175 3.46992 0
M  V30 15855 H 1527.92 0.988422 3.87389 0
M  V30 15856 H 1529.36 0.0161946 4.23997 0
M  V30 15857 C 1527.82 -1.04755 3.202 0
M  V30 15858 O 1528.35 -2.12758 3.4073 0
M  V30 15859 N 1526.56 -0.969608 2.73947 0
M  V30 15860 H 1526.1 -0.0906063 2.57441 0
M  V30 15861 H 1526.06 -1.81955 2.56397 0
M  V30 15862 N 1529.83 -1.29188 0.902679 0
M  V30 15863 C 1531.24 -1.77521 0.578207 0
M  V30 15864 C 1531.6 -1.74017 -0.906227 0
M  V30 15865 O 1530.72 -1.32793 -1.70865 0
M  V30 15866 C 1531.32 -3.22352 1.04281 0
M  V30 15867 C 1529.87 -3.68451 0.769454 0
M  V30 15868 C 1529.02 -2.49225 1.21583 0
M  V30 15869 H 1531.97 -1.15807 1.0851 0
M  V30 15870 H 1531.99 -3.78604 0.379396 0
M  V30 15871 H 1531.51 -3.2487 2.12323 0
M  V30 15872 H 1529.61 -3.71405 -0.298223 0
M  V30 15873 H 1529.72 -4.59112 1.36943 0
M  V30 15874 H 1528.08 -2.46663 0.634766 0
M  V30 15875 H 1528.87 -2.54469 2.30436 0
M  V30 15876 N 1531.31 -0.665475 -1.42861 0
M  V30 15877 C 1532.73 -0.334157 -1.56063 0
M  V30 15878 C 1532.93 1.16104 -1.64688 0
M  V30 15879 O 1531.98 1.94622 -1.60867 0
M  V30 15880 C 1533.3 -1.05628 -2.81537 0
M  V30 15881 C 1534.84 -1.03771 -2.95297 0
M  V30 15882 C 1535.32 -1.74098 -4.2362 0
M  V30 15883 N 1536.81 -1.7092 -4.30512 0
M  V30 15884 C 1537.55 -2.222 -5.28597 0
M  V30 15885 N 1537.04 -2.81821 -6.32889 0
M  V30 15886 N 1538.83 -2.12628 -5.20332 0
M  V30 15887 H 1530.99 -1.6356 -1.35506 0
M  V30 15888 H 1533.25 -0.688538 -0.651628 0
M  V30 15889 H 1532.95 -2.11141 -2.81269 0
M  V30 15890 H 1532.83 -0.615586 -3.72143 0
M  V30 15891 H 1535.22 0.00905324 -2.95099 0
M  V30 15892 H 1535.3 -1.51721 -2.05948 0
M  V30 15893 H 1534.94 -2.78737 -4.2458 0
M  V30 15894 H 1534.87 -1.23604 -5.11888 0
M  V30 15895 H 1537.36 -1.27425 -3.55769 0
M  V30 15896 H 1537.67 -3.18594 -7.04072 0
M  V30 15897 H 1536.02 -2.85887 -6.33478 0
M  V30 15898 H 1539.21 -1.65746 -4.37774 0
M  V30 15899 H 1539.38 -2.52899 -5.96612 0
M  V30 15900 N 1532.79 1.52222 -0.408187 0
M  V30 15901 C 1534.03 2.03713 0.167444 0
M  V30 15902 C 1534.39 1.28722 1.42459 0
M  V30 15903 O 1535.59 1.70434 2.0786 0
M  V30 15904 C 1533.87 3.55039 0.410146 0
M  V30 15905 S 1535.42 4.28318 0.953358 0
M  V30 15906 H 1532.24 0.709544 0.0454811 0
M  V30 15907 H 1534.84 1.87281 -0.560888 0
M  V30 15908 H 1533.55 4.07199 -0.511618 0
M  V30 15909 H 1533.08 3.75712 1.16638 0
M  V30 15910 H 1535.09 4.43066 2.23399 0
M  V30 15911 N 1534.27 0.138579 1.5699 0
M  V30 15912 C 1535.68 -0.383633 1.82716 0
M  V30 15913 C 1536.03 -1.65304 1.05684 0
M  V30 15914 O 1535.15 -2.14318 0.299488 0
M  V30 15915 C 1535.75 -0.7028 3.3143 0
M  V30 15916 C 1534.31 -1.16957 3.57768 0
M  V30 15917 C 1533.46 -0.188295 2.7666 0
M  V30 15918 H 1536.41 0.363415 1.54483 0
M  V30 15919 H 1536.43 -1.55832 3.47126 0
M  V30 15920 H 1535.94 0.221271 3.87469 0
M  V30 15921 H 1534.04 -2.10987 3.07108 0
M  V30 15922 H 1534.15 -1.10136 4.66269 0
M  V30 15923 H 1532.52 -0.679255 2.45475 0
M  V30 15924 H 1533.3 0.729218 3.35466 0
M  V30 15925 N 1535.75 -1.57019 -0.13521 0
M  V30 15926 C 1536.66 -2.02427 -1.18578 0
M  V30 15927 C 1537.67 -0.941738 -1.46312 0
M  V30 15928 O 1538.85 -1.25208 -1.57749 0
M  V30 15929 C 1535.91 -2.40577 -2.49647 0
M  V30 15930 C 1534.97 -3.62835 -2.29455 0
M  V30 15931 C 1534.21 -3.99156 -3.54274 0
M  V30 15932 O 1534.43 -3.36001 -4.60933 0
M  V30 15933 O 1533.36 -4.92345 -3.46238 0
M  V30 15934 H 1537.19 -2.92131 -0.830237 0
M  V30 15935 H 1534.77 -1.45366 -0.344814 0
M  V30 15936 H 1536.66 -2.65922 -3.269 0
M  V30 15937 H 1535.33 -1.54023 -2.84708 0
M  V30 15938 H 1534.24 -3.42661 -1.50114 0
M  V30 15939 H 1535.57 -4.50043 -1.99305 0
M  V30 15940 N 1537.22 0.404919 -1.52309 0
M  V30 15941 C 1538.45 1.17764 -1.70723 0
M  V30 15942 C 1538.87 1.83403 -0.417744 0
M  V30 15943 O 1538.23 1.70181 0.625157 0
M  V30 15944 C 1538.28 2.2133 -2.84685 0
M  V30 15945 O 1537.38 3.27566 -2.50548 0
M  V30 15946 H 1536.73 0.343572 -0.568203 0
M  V30 15947 H 1539.26 0.474093 -1.99031 0
M  V30 15948 H 1539.27 2.6559 -3.09719 0
M  V30 15949 H 1537.94 1.72939 -3.78239 0
M  V30 15950 H 1536.52 2.88556 -2.36199 0
M  V30 15951 N 1538.7 1.43003 0.662408 0
M  V30 15952 C 1539.63 1.50248 1.78739 0
M  V30 15953 C 1540.61 0.357934 1.66291 0
M  V30 15954 O 1541.8 0.573919 1.85526 0
M  V30 15955 C 1538.93 1.41618 3.17114 0
M  V30 15956 C 1537.88 2.54228 3.44314 0
M  V30 15957 C 1537.21 2.30653 4.82393 0
M  V30 15958 C 1538.51 3.96505 3.39972 0
M  V30 15959 H 1540.2 2.44406 1.72934 0
M  V30 15960 H 1537.75 1.17633 0.830569 0
M  V30 15961 H 1539.7 1.45293 3.9556 0
M  V30 15962 H 1538.43 0.439605 3.23628 0
M  V30 15963 H 1537.08 2.49891 2.68235 0
M  V30 15964 H 1536.73 1.3126 4.85572 0
M  V30 15965 H 1536.43 3.06134 5.01554 0
M  V30 15966 H 1537.96 2.36096 5.63108 0
M  V30 15967 H 1539.37 4.02378 4.08368 0
M  V30 15968 H 1537.77 4.71937 3.70668 0
M  V30 15969 H 1538.84 4.22295 2.38318 0
M  V30 15970 N 1540.18 -0.899904 1.29381 0
M  V30 15971 C 1541.41 -1.68383 1.20227 0
M  V30 15972 C 1541.82 -1.87305 -0.237135 0
M  V30 15973 O 1541.18 -1.40992 -1.15877 0
M  V30 15974 C 1541.23 -3.06845 1.91124 0
M  V30 15975 O 1540.95 -2.88787 3.29444 0
M  V30 15976 C 1542.45 -4.01253 1.88444 0
M  V30 15977 H 1539.67 -0.525917 0.416717 0
M  V30 15978 H 1542.22 -1.12537 1.7075 0
M  V30 15979 H 1540.37 -3.59467 1.44438 0
M  V30 15980 H 1540.79 -3.7652 3.65148 0
M  V30 15981 H 1542.26 -4.95824 2.42616 0
M  V30 15982 H 1542.74 -4.30699 0.859925 0
M  V30 15983 H 1543.34 -3.54562 2.34874 0
M  V30 15984 N 1541.66 -1.11854 -1.11024 0
M  V30 15985 C 1543.07 -0.853341 -1.34871 0
M  V30 15986 C 1543.27 0.519725 -1.94682 0
M  V30 15987 O 1542.33 1.26966 -2.18256 0
M  V30 15988 C 1543.64 -1.9649 -2.27623 0
M  V30 15989 C 1545.19 -1.99507 -2.41176 0
M  V30 15990 C 1545.67 -3.09879 -3.37253 0
M  V30 15991 N 1547.16 -3.09281 -3.44818 0
M  V30 15992 C 1547.89 -3.91322 -4.19111 0
M  V30 15993 N 1547.39 -4.83337 -4.96344 0
M  V30 15994 N 1549.18 -3.79483 -4.14667 0
M  V30 15995 H 1541.33 -2.00335 -0.70567 0
M  V30 15996 H 1543.6 -0.871431 -0.373245 0
M  V30 15997 H 1543.3 -2.95397 -1.90875 0
M  V30 15998 H 1543.18 -1.86481 -3.27879 0
M  V30 15999 H 1545.56 -1.01223 -2.77196 0
M  V30 16000 H 1545.64 -2.13592 -1.40756 0
M  V30 16001 H 1545.29 -4.08391 -3.01959 0
M  V30 16002 H 1545.22 -2.93033 -4.37537 0
M  V30 16003 H 1547.71 -2.42617 -2.89733 0
M  V30 16004 H 1548.02 -5.42462 -5.50413 0
M  V30 16005 H 1546.37 -4.87356 -4.95489 0
M  V30 16006 H 1549.56 -3.06938 -3.53421 0
M  V30 16007 H 1549.73 -4.43653 -4.72309 0
M  V30 16008 N 1543.14 1.28707 -0.909517 0
M  V30 16009 C 1544.41 1.90124 -0.459585 0
M  V30 16010 C 1544.79 1.82477 1.06139 0
M  V30 16011 O 1544.14 1.25792 1.90758 0
M  V30 16012 C 1544.35 3.34806 -0.985188 0
M  V30 16013 C 1545.7 4.11799 -1.03475 0
M  V30 16014 O 1546.72 3.43749 -0.933536 0
M  V30 16015 O 1545.58 5.33426 -1.18825 0
M  V30 16016 H 1542.68 0.814199 -0.144948 0
M  V30 16017 H 1545.22 1.37104 -1.00002 0
M  V30 16018 H 1543.99 3.34575 -2.02917 0
M  V30 16019 H 1543.62 3.95318 -0.425329 0
M  V30 16020 N 1544.61 0.673042 1.42506 0
M  V30 16021 C 1545.84 0.202922 2.05902 0
M  V30 16022 C 1546.26 -1.13923 1.50556 0
M  V30 16023 O 1545.61 -1.70735 0.644662 0
M  V30 16024 C 1545.67 0.12735 3.61276 0
M  V30 16025 O 1545.39 1.41646 4.1457 0
M  V30 16026 C 1546.89 -0.366477 4.41783 0
M  V30 16027 H 1544.11 0.0991021 0.663641 0
M  V30 16028 H 1546.65 0.919282 1.82673 0
M  V30 16029 H 1544.81 -0.539687 3.83622 0
M  V30 16030 H 1545.22 1.28866 5.08423 0
M  V30 16031 H 1546.69 -0.368267 5.5077 0
M  V30 16032 H 1547.17 -1.40142 4.16241 0
M  V30 16033 H 1547.78 0.268761 4.2445 0
M  V30 16034 N 1546.09 -1.52004 0.416254 0
M  V30 16035 C 1547.06 -2.2579 -0.393882 0
M  V30 16036 C 1548.06 -1.28427 -0.967637 0
M  V30 16037 O 1549.25 -1.52311 -0.845396 0
M  V30 16038 C 1546.38 -3.03361 -1.55515 0
M  V30 16039 H 1547.57 -2.98835 0.252492 0
M  V30 16040 H 1545.12 -1.55384 0.168929 0
M  V30 16041 H 1545.86 -2.34682 -2.23818 0
M  V30 16042 H 1545.64 -3.74852 -1.15015 0
M  V30 16043 H 1547.13 -3.5931 -2.12805 0
M  V30 16044 N 1547.57 -0.146903 -1.56914 0
M  V30 16045 C 1548.8 0.511181 -2.00486 0
M  V30 16046 C 1549.21 1.58425 -1.02699 0
M  V30 16047 O 1548.57 1.82484 -0.0239878 0
M  V30 16048 C 1548.62 1.11191 -3.43975 0
M  V30 16049 O 1548.34 0.0817094 -4.38024 0
M  V30 16050 C 1549.84 1.85061 -4.02824 0
M  V30 16051 H 1547.06 0.133078 -0.657671 0
M  V30 16052 H 1549.61 -0.241457 -2.0307 0
M  V30 16053 H 1547.76 1.81517 -3.42243 0
M  V30 16054 H 1548.18 0.52181 -5.21898 0
M  V30 16055 H 1549.65 2.22385 -5.05222 0
M  V30 16056 H 1550.13 2.73649 -3.4353 0
M  V30 16057 H 1550.73 1.19434 -4.08186 0
M  V30 16058 N 1549.05 1.57088 0.126881 0
M  V30 16059 C 1549.96 2.03053 1.17502 0
M  V30 16060 C 1550.97 0.949484 1.45811 0
M  V30 16061 O 1552.15 1.26043 1.57083 0
M  V30 16062 C 1549.22 2.41897 2.48368 0
M  V30 16063 C 1548.28 3.64047 2.27527 0
M  V30 16064 C 1547.51 4.01029 3.52153 0
M  V30 16065 O 1547.73 3.38441 4.59145 0
M  V30 16066 O 1546.67 4.94174 3.43622 0
M  V30 16067 H 1550.49 2.92568 0.814733 0
M  V30 16068 H 1548.08 1.45547 0.3371 0
M  V30 16069 H 1549.96 2.67652 3.25485 0
M  V30 16070 H 1548.63 1.55531 2.83887 0
M  V30 16071 H 1547.54 3.43452 1.48294 0
M  V30 16072 H 1548.87 4.51093 1.96916 0
M  V30 16073 N 1550.53 -0.396836 1.52522 0
M  V30 16074 C 1551.78 -1.13978 1.66409 0
M  V30 16075 C 1552.09 -1.91333 0.406326 0
M  V30 16076 O 1553.29 -2.6815 0.425195 0
M  V30 16077 C 1551.75 -2.07512 2.94052 0
M  V30 16078 C 1551.36 -1.35616 4.2698 0
M  V30 16079 C 1553.1 -2.8199 3.17304 0
M  V30 16080 C 1551.01 -2.2787 5.45737 0
M  V30 16081 H 1549.94 -0.429181 0.619935 0
M  V30 16082 H 1552.59 -0.403207 1.79015 0
M  V30 16083 H 1550.97 -2.84773 2.75174 0
M  V30 16084 H 1552.15 -0.636349 4.56385 0
M  V30 16085 H 1550.46 -0.731297 4.09928 0
M  V30 16086 H 1553.06 -3.5118 4.03208 0
M  V30 16087 H 1553.4 -3.45629 2.32048 0
M  V30 16088 H 1553.93 -2.11824 3.36712 0
M  V30 16089 H 1550.67 -1.68858 6.33378 0
M  V30 16090 H 1550.19 -2.97789 5.20655 0
M  V30 16091 H 1551.87 -2.88126 5.79303 0
M  V30 16092 N 1552.01 -1.43353 -0.654814 0
M  V30 16093 C 1552.97 -1.4806 -1.7496 0
M  V30 16094 C 1553.97 -0.365513 -1.56591 0
M  V30 16095 O 1555.16 -0.627194 -1.62517 0
M  V30 16096 C 1552.29 -1.33165 -3.13815 0
M  V30 16097 H 1553.48 -2.45557 -1.72167 0
M  V30 16098 H 1551.04 -1.30094 -0.86632 0
M  V30 16099 H 1551.77 -0.366689 -3.2222 0
M  V30 16100 H 1551.56 -2.13998 -3.28553 0
M  V30 16101 H 1553.05 -1.39388 -3.93651 0
M  V30 16102 N 1553.48 0.89303 -1.29857 0
M  V30 16103 C 1554.73 1.63881 -1.17583 0
M  V30 16104 C 1555.05 1.93723 0.270293 0
M  V30 16105 O 1556.25 2.66582 0.514432 0
M  V30 16106 C 1554.71 2.95327 -2.05694 0
M  V30 16107 C 1554.32 2.73055 -3.55169 0
M  V30 16108 C 1556.06 3.7327 -2.02162 0
M  V30 16109 C 1553.97 4.00268 -4.35361 0
M  V30 16110 H 1552.9 0.614815 -0.436485 0
M  V30 16111 H 1555.55 0.989339 -1.54546 0
M  V30 16112 H 1553.93 3.61523 -1.61607 0
M  V30 16113 H 1555.1 2.1541 -4.07351 0
M  V30 16114 H 1553.42 2.08498 -3.6044 0
M  V30 16115 H 1556.02 4.67601 -2.59333 0
M  V30 16116 H 1556.36 4.04032 -1.00318 0
M  V30 16117 H 1556.89 3.13925 -2.44328 0
M  V30 16118 H 1553.63 3.74669 -5.37869 0
M  V30 16119 H 1553.15 4.57448 -3.87945 0
M  V30 16120 H 1554.83 4.68358 -4.46374 0
M  V30 16121 N 1554.96 1.12442 1.10429 0
M  V30 16122 C 1555.91 0.787578 2.18861 0
M  V30 16123 C 1556.9 -0.225602 1.67891 0
M  V30 16124 O 1558.11 -0.0838029 1.79805 0
M  V30 16125 H 1554.48 0.236858 0.713724 0
M  V30 16126 H 1556.46 1.71048 2.4451 0
M  V30 16127 C 1555.2 0.25854 3.46737 0
M  V30 16128 H 1554.53 1.02945 3.86319 0
M  V30 16129 H 1555.97 0.0611642 4.23956 0
M  V30 16130 C 1554.43 -1.01353 3.21293 0
M  V30 16131 O 1554.96 -2.09132 3.42967 0
M  V30 16132 N 1553.16 -0.940498 2.7496 0
M  V30 16133 H 1552.71 -0.0632962 2.57522 0
M  V30 16134 H 1552.67 -1.79226 2.58313 0
M  V30 16135 N 1556.44 -1.28223 0.91633 0
M  V30 16136 C 1557.69 -1.95153 0.551639 0
M  V30 16137 C 1558.02 -1.71938 -0.902829 0
M  V30 16138 O 1557.29 -1.04184 -1.64243 0
M  V30 16139 C 1557.58 -3.49565 0.864647 0
M  V30 16140 C 1557.43 -3.82171 2.37203 0
M  V30 16141 C 1558.75 -4.38604 0.362593 0
M  V30 16142 H 1555.87 -0.708808 0.20189 0
M  V30 16143 H 1558.51 -1.51545 1.14604 0
M  V30 16144 H 1556.66 -3.8684 0.358782 0
M  V30 16145 H 1558.33 -3.54751 2.94872 0
M  V30 16146 H 1556.57 -3.29124 2.82595 0
M  V30 16147 H 1557.25 -4.90007 2.54159 0
M  V30 16148 H 1559.72 -4.08416 0.795983 0
M  V30 16149 H 1558.6 -5.45493 0.61066 0
M  V30 16150 H 1558.86 -4.35911 -0.737137 0
M  V30 16151 N 1557.92 -0.68059 -1.42147 0
M  V30 16152 C 1558.86 -0.00585926 -2.30799 0
M  V30 16153 C 1559.83 0.786778 -1.46284 0
M  V30 16154 O 1561.02 0.757853 -1.75103 0
M  V30 16155 C 1558.16 0.935319 -3.32183 0
M  V30 16156 C 1557.27 0.13589 -4.31786 0
M  V30 16157 C 1556.41 1.07335 -5.20243 0
M  V30 16158 C 1555.45 0.265943 -6.11522 0
M  V30 16159 N 1554.58 1.15641 -6.92511 0
M  V30 16160 H 1559.42 -0.767651 -2.87943 0
M  V30 16161 H 1556.96 -0.39029 -1.41828 0
M  V30 16162 H 1558.92 1.49489 -3.89498 0
M  V30 16163 H 1557.55 1.66368 -2.76626 0
M  V30 16164 H 1556.6 -0.540383 -3.76542 0
M  V30 16165 H 1557.91 -0.490716 -4.9638 0
M  V30 16166 H 1557.07 1.70265 -5.82319 0
M  V30 16167 H 1555.81 1.73383 -4.55839 0
M  V30 16168 H 1554.81 -0.376531 -5.48509 0
M  V30 16169 H 1556.04 -0.39053 -6.77976 0
M  V30 16170 H 1553.98 1.80319 -6.30731 0
M  V30 16171 H 1553.9 0.585022 -7.53733 0
M  V30 16172 H 1555.17 1.773 -7.59069 0
M  V30 16173 N 1559.4 1.51781 -0.424309 0
M  V30 16174 C 1560.36 2.25996 0.381903 0
M  V30 16175 C 1561.36 1.28938 0.960813 0
M  V30 16176 O 1562.55 1.52757 0.837306 0
M  V30 16177 C 1559.68 3.04181 1.53904 0
M  V30 16178 H 1560.87 2.98697 -0.268336 0
M  V30 16179 H 1558.43 1.55293 -0.177167 0
M  V30 16180 H 1559.16 2.35866 2.22571 0
M  V30 16181 H 1558.95 3.75457 1.13025 0
M  V30 16182 H 1560.44 3.60434 2.10896 0
M  V30 16183 N 1560.87 0.155222 1.56834 0
M  V30 16184 C 1561.8 -0.777258 2.20184 0
M  V30 16185 C 1562.78 -1.25102 1.15254 0
M  V30 16186 O 1563.97 -1.3071 1.43627 0
M  V30 16187 C 1561.1 -2.01326 2.82993 0
M  V30 16188 C 1560.05 -1.67596 3.93822 0
M  V30 16189 C 1559.38 -2.98529 4.43604 0
M  V30 16190 C 1560.68 -0.916302 5.142 0
M  V30 16191 H 1562.37 -0.249257 2.98361 0
M  V30 16192 H 1559.92 -0.118448 1.43512 0
M  V30 16193 H 1561.87 -2.67048 3.2598 0
M  V30 16194 H 1560.6 -2.56513 2.0216 0
M  V30 16195 H 1559.26 -1.0425 3.51465 0
M  V30 16196 H 1558.9 -3.51723 3.59583 0
M  V30 16197 H 1558.6 -2.76721 5.18362 0
M  V30 16198 H 1560.13 -3.65308 4.89267 0
M  V30 16199 H 1561.54 -1.47577 5.5398 0
M  V30 16200 H 1559.94 -0.797856 5.94772 0
M  V30 16201 H 1561.01 0.0904351 4.84816 0
M  V30 16202 N 1562.35 -1.57153 -0.118549 0
M  V30 16203 C 1563.58 -1.88788 -0.83921 0
M  V30 16204 C 1563.99 -0.744621 -1.73931 0
M  V30 16205 O 1563.33 0.293567 -1.81339 0
M  V30 16206 C 1563.39 -3.15441 -1.72446 0
M  V30 16207 C 1563.06 -4.45956 -0.998613 0
M  V30 16208 C 1564.06 -5.18792 -0.339214 0
M  V30 16209 C 1561.74 -4.92654 -0.979657 0
M  V30 16210 C 1563.73 -6.36548 0.329438 0
M  V30 16211 C 1561.42 -6.10327 -0.307207 0
M  V30 16212 C 1562.42 -6.82122 0.346185 0
M  V30 16213 O 1562.11 -7.97557 1.0079 0
M  V30 16214 H 1561.84 -0.629445 -0.246526 0
M  V30 16215 H 1564.39 -2.05119 -0.10736 0
M  V30 16216 H 1562.62 -2.95193 -2.49796 0
M  V30 16217 H 1564.31 -3.33092 -2.31958 0
M  V30 16218 H 1565.08 -4.83768 -0.345475 0
M  V30 16219 H 1560.96 -4.36676 -1.47766 0
M  V30 16220 H 1564.5 -6.92524 0.840013 0
M  V30 16221 H 1560.4 -6.44808 -0.29871 0
M  V30 16222 H 1561.17 -8.13398 0.912427 0
M  V30 16223 N 1563.83 0.388742 -1.5273 0
M  V30 16224 C 1564.78 1.49531 -1.78166 0
M  V30 16225 C 1565.77 1.56449 -0.649613 0
M  V30 16226 O 1566.98 1.59612 -0.832097 0
M  V30 16227 H 1563.35 0.497684 -0.56375 0
M  V30 16228 H 1565.32 1.25271 -2.70831 0
M  V30 16229 C 1564.07 2.86663 -1.96774 0
M  V30 16230 H 1563.4 2.82089 -2.83312 0
M  V30 16231 H 1564.84 3.63328 -2.18561 0
M  V30 16232 C 1563.29 3.28665 -0.740345 0
M  V30 16233 O 1563.82 4.01616 0.0821005 0
M  V30 16234 N 1562.03 2.84947 -0.570383 0
M  V30 16235 H 1561.58 2.25748 -1.24078 0
M  V30 16236 H 1561.54 3.13408 0.249496 0
M  V30 16237 N 1565.31 1.43698 0.647203 0
M  V30 16238 C 1566.22 1.51781 1.78884 0
M  V30 16239 C 1567.23 0.404498 1.69233 0
M  V30 16240 O 1568.41 0.659509 1.90296 0
M  V30 16241 C 1565.47 1.44408 3.15194 0
M  V30 16242 C 1564.54 2.6646 3.36597 0
M  V30 16243 C 1563.77 2.59429 4.66403 0
M  V30 16244 O 1563.99 1.64537 5.46154 0
M  V30 16245 O 1562.93 3.50027 4.89658 0
M  V30 16246 H 1566.75 2.48198 1.75019 0
M  V30 16247 H 1564.34 1.25766 0.806436 0
M  V30 16248 H 1566.22 1.42761 3.96481 0
M  V30 16249 H 1564.89 0.511292 3.19637 0
M  V30 16250 H 1563.8 2.73679 2.5505 0
M  V30 16251 H 1565.13 3.58732 3.37005 0
M  V30 16252 N 1566.79 -0.886131 1.30328 0
M  V30 16253 C 1568.01 -1.67099 1.22007 0
M  V30 16254 C 1568.43 -1.87546 -0.217255 0
M  V30 16255 O 1567.79 -1.42213 -1.14375 0
M  V30 16256 C 1567.84 -3.048 1.94368 0
M  V30 16257 O 1567.56 -2.85277 3.32489 0
M  V30 16258 C 1569.06 -3.99231 1.9269 0
M  V30 16259 H 1566.28 -0.521467 0.422271 0
M  V30 16260 H 1568.82 -1.1072 1.71934 0
M  V30 16261 H 1566.98 -3.57915 1.48242 0
M  V30 16262 H 1567.39 -3.72626 3.69121 0
M  V30 16263 H 1568.87 -4.93223 2.47861 0
M  V30 16264 H 1569.34 -4.29763 0.905558 0
M  V30 16265 H 1569.95 -3.52051 2.38621 0
M  V30 16266 N 1568.26 -1.13026 -1.09832 0
M  V30 16267 C 1569.17 -0.817051 -2.19912 0
M  V30 16268 C 1570.19 0.19667 -1.72885 0
M  V30 16269 O 1571.37 0.0287402 -2.01379 0
M  V30 16270 C 1568.43 -0.28304 -3.45543 0
M  V30 16271 C 1567.49 -1.35748 -4.07273 0
M  V30 16272 C 1566.73 -0.848855 -5.26906 0
M  V30 16273 O 1566.95 0.315104 -5.69529 0
M  V30 16274 O 1565.88 -1.62128 -5.79653 0
M  V30 16275 H 1569.71 -1.73663 -2.49148 0
M  V30 16276 H 1567.29 -0.907391 -1.18688 0
M  V30 16277 H 1569.18 0.00956876 -4.21399 0
M  V30 16278 H 1567.85 0.609018 -3.17919 0
M  V30 16279 H 1566.76 -1.70334 -3.33072 0
M  V30 16280 H 1568.09 -2.22353 -4.39113 0
M  V30 16281 N 1569.74 1.27735 -0.923117 0
M  V30 16282 C 1570.97 1.9922 -0.57672 0
M  V30 16283 C 1571.39 1.68446 0.837113 0
M  V30 16284 O 1570.75 0.922129 1.56098 0
M  V30 16285 C 1570.8 3.51528 -0.803768 0
M  V30 16286 O 1569.9 4.12186 0.132829 0
M  V30 16287 H 1569.24 0.625593 -0.222553 0
M  V30 16288 H 1571.77 1.62657 -1.24112 0
M  V30 16289 H 1571.78 4.01641 -0.717534 0
M  V30 16290 H 1570.46 3.7326 -1.83439 0
M  V30 16291 H 1569.04 3.729 -0.00292957 0
M  V30 16292 N 1571.22 0.688118 1.41784 0
M  V30 16293 C 1572.15 0.0323199 2.33478 0
M  V30 16294 C 1573.13 -0.775145 1.51412 0
M  V30 16295 O 1574.32 -0.72962 1.79973 0
M  V30 16296 C 1571.45 -0.910141 3.35162 0
M  V30 16297 C 1570.4 -0.210312 4.27483 0
M  V30 16298 C 1569.73 -1.26662 5.19481 0
M  V30 16299 C 1571.03 0.918839 5.14154 0
M  V30 16300 H 1572.72 0.798138 2.88566 0
M  V30 16301 H 1570.27 0.385262 1.38751 0
M  V30 16302 H 1572.22 -1.3781 3.98229 0
M  V30 16303 H 1570.94 -1.70754 2.78408 0
M  V30 16304 H 1569.6 0.237544 3.6583 0
M  V30 16305 H 1569.25 -2.05635 4.59046 0
M  V30 16306 H 1568.95 -0.803416 5.82082 0
M  V30 16307 H 1570.47 -1.73524 5.85424 0
M  V30 16308 H 1571.89 0.531499 5.70831 0
M  V30 16309 H 1570.29 1.30867 5.85657 0
M  V30 16310 H 1571.36 1.7618 4.51762 0
M  V30 16311 N 1572.7 -1.51554 0.432352 0
M  V30 16312 C 1573.63 -2.30514 -0.372243 0
M  V30 16313 C 1574.61 -1.35712 -1.02549 0
M  V30 16314 O 1575.79 -1.6463 -1.03009 0
M  V30 16315 C 1572.92 -3.14353 -1.47646 0
M  V30 16316 C 1571.88 -4.17392 -0.946974 0
M  V30 16317 C 1571.2 -4.89721 -2.14656 0
M  V30 16318 C 1572.5 -5.22298 0.0151377 0
M  V30 16319 H 1574.2 -2.98024 0.28668 0
M  V30 16320 H 1571.74 -1.43325 0.139315 0
M  V30 16321 H 1573.7 -3.68369 -2.04651 0
M  V30 16322 H 1572.42 -2.44654 -2.1636 0
M  V30 16323 H 1571.08 -3.6442 -0.399174 0
M  V30 16324 H 1570.73 -4.1653 -2.81978 0
M  V30 16325 H 1570.43 -5.59393 -1.79869 0
M  V30 16326 H 1571.95 -5.46559 -2.72224 0
M  V30 16327 H 1573.37 -5.71416 -0.464447 0
M  V30 16328 H 1571.76 -5.99468 0.275339 0
M  V30 16329 H 1572.83 -4.75436 0.953357 0
M  V30 16330 N 1574.18 -0.163538 -1.56749 0
M  V30 16331 C 1575.42 0.48412 -1.96937 0
M  V30 16332 C 1575.76 1.63418 -1.04919 0
M  V30 16333 O 1575.03 1.94269 -0.094783 0
M  V30 16334 C 1575.31 0.974532 -3.46663 0
M  V30 16335 C 1575.17 -0.175173 -4.49459 0
M  V30 16336 C 1576.49 1.85082 -3.9929 0
M  V30 16337 H 1573.6 0.174503 -0.716043 0
M  V30 16338 H 1576.25 -0.248103 -1.88373 0
M  V30 16339 H 1574.4 1.59849 -3.54091 0
M  V30 16340 H 1576.07 -0.812038 -4.54096 0
M  V30 16341 H 1574.31 -0.831853 -4.2575 0
M  V30 16342 H 1574.98 0.20996 -5.51601 0
M  V30 16343 H 1577.46 1.32488 -3.94444 0
M  V30 16344 H 1576.33 2.163 -5.04485 0
M  V30 16345 H 1576.6 2.79378 -3.42638 0
M  V30 16346 N 1575.65 1.57214 0.110213 0
M  V30 16347 C 1576.9 1.84946 0.814827 0
M  V30 16348 C 1577.22 0.750029 1.79999 0
M  V30 16349 O 1576.49 -0.225164 1.94602 0
M  V30 16350 H 1575.07 0.682385 0.303907 0
M  V30 16351 H 1577.74 1.94666 0.0954415 0
M  V30 16352 H 1576.83 2.81167 1.35469 0
M  V30 16353 N 1577.13 -0.380637 1.52934 0
M  V30 16354 C 1578.55 -0.721287 1.42371 0
M  V30 16355 C 1578.75 -1.93826 0.55078 0
M  V30 16356 O 1577.8 -2.52485 0.02743 0
M  V30 16357 C 1579.12 -0.948564 2.85347 0
M  V30 16358 C 1580.67 -1.04952 2.9488 0
M  V30 16359 C 1581.14 -1.30937 4.38885 0
M  V30 16360 N 1582.63 -1.3774 4.42246 0
M  V30 16361 C 1583.37 -1.59527 5.50762 0
M  V30 16362 N 1582.86 -1.7873 6.69349 0
M  V30 16363 N 1584.66 -1.61774 5.38317 0
M  V30 16364 H 1576.81 0.420032 2.08205 0
M  V30 16365 H 1579.07 0.125776 0.939619 0
M  V30 16366 H 1578.78 -0.126348 3.51473 0
M  V30 16367 H 1578.65 -1.8609 3.28101 0
M  V30 16368 H 1581.04 -1.86229 2.28917 0
M  V30 16369 H 1581.12 -0.114899 2.55542 0
M  V30 16370 H 1580.76 -0.50166 5.05416 0
M  V30 16371 H 1580.69 -2.25696 4.75782 0
M  V30 16372 H 1583.18 -1.24575 3.56777 0
M  V30 16373 H 1583.5 -1.94885 7.47823 0
M  V30 16374 H 1581.84 -1.75938 6.72362 0
M  V30 16375 H 1585.03 -1.4633 4.44641 0
M  V30 16376 H 1585.2 -1.78414 6.22955 0
M  V30 16377 N 1578.61 -1.44039 -0.639573 0
M  V30 16378 C 1579.86 -1.46594 -1.40136 0
M  V30 16379 C 1580.19 -0.0949646 -1.93968 0
M  V30 16380 O 1579.46 0.886201 -1.73138 0
M  V30 16381 C 1579.75 -2.51947 -2.57283 0
M  V30 16382 C 1579.6 -3.98371 -2.08855 0
M  V30 16383 C 1580.92 -2.53891 -3.59482 0
M  V30 16384 H 1578.04 -0.533759 -0.508203 0
M  V30 16385 H 1580.68 -1.75669 -0.723898 0
M  V30 16386 H 1578.83 -2.27285 -3.15077 0
M  V30 16387 H 1580.5 -4.34137 -1.55956 0
M  V30 16388 H 1578.75 -4.10551 -1.40109 0
M  V30 16389 H 1579.42 -4.67721 -2.93157 0
M  V30 16390 H 1581.89 -2.75906 -3.11473 0
M  V30 16391 H 1580.77 -3.29524 -4.38982 0
M  V30 16392 H 1581.03 -1.57774 -4.12989 0
M  V30 16393 N 1580.09 0.879207 -1.30796 0
M  V30 16394 C 1581.5 1.44705 -1.17972 0
M  V30 16395 C 1581.85 1.94992 0.217381 0
M  V30 16396 O 1580.98 1.85494 1.11449 0
M  V30 16397 C 1581.57 2.6302 -2.13555 0
M  V30 16398 C 1580.13 3.15877 -2.04692 0
M  V30 16399 C 1579.28 1.88576 -2.03309 0
M  V30 16400 H 1582.23 0.688604 -1.42982 0
M  V30 16401 H 1582.25 3.39418 -1.71976 0
M  V30 16402 H 1581.76 2.2639 -3.15229 0
M  V30 16403 H 1579.86 3.57151 -1.0618 0
M  V30 16404 H 1579.97 3.78786 -2.93357 0
M  V30 16405 H 1578.34 2.0715 -1.48192 0
M  V30 16406 H 1579.12 1.54195 -3.06723 0
M  V30 16407 N 1581.57 1.13606 1.09231 0
M  V30 16408 C 1582.5 0.837908 2.17948 0
M  V30 16409 C 1583.48 -0.203575 1.68877 0
M  V30 16410 O 1584.66 -0.0620702 1.94101 0
M  V30 16411 C 1581.79 0.305342 3.45955 0
M  V30 16412 C 1580.75 1.2813 4.08371 0
M  V30 16413 C 1580.07 0.608412 5.31227 0
M  V30 16414 C 1581.37 2.64055 4.50636 0
M  V30 16415 H 1583.07 1.747 2.43147 0
M  V30 16416 H 1580.61 0.84141 1.1686 0
M  V30 16417 H 1582.57 0.0844116 4.21315 0
M  V30 16418 H 1581.29 -0.639144 3.20285 0
M  V30 16419 H 1579.95 1.48826 3.35032 0
M  V30 16420 H 1579.6 -0.341613 5.01839 0
M  V30 16421 H 1579.3 1.25956 5.73942 0
M  V30 16422 H 1580.82 0.396809 6.09309 0
M  V30 16423 H 1582.24 2.47316 5.17212 0
M  V30 16424 H 1580.63 3.25364 5.0424 0
M  V30 16425 H 1581.7 3.21566 3.62937 0
M  V30 16426 N 1583.05 -1.27244 0.929878 0
M  V30 16427 C 1583.98 -2.25893 0.387967 0
M  V30 16428 C 1584.99 -1.55485 -0.482524 0
M  V30 16429 O 1586.18 -1.76049 -0.294795 0
M  V30 16430 C 1583.28 -3.35729 -0.462544 0
M  V30 16431 C 1582.45 -4.35665 0.38916 0
M  V30 16432 C 1581.51 -5.24685 -0.399061 0
M  V30 16433 O 1580.54 -5.68869 0.193996 0
M  V30 16434 N 1581.74 -5.551 -1.69836 0
M  V30 16435 H 1584.5 -2.73027 1.23597 0
M  V30 16436 H 1582.07 -1.40893 0.797539 0
M  V30 16437 H 1584.06 -3.92228 -0.996974 0
M  V30 16438 H 1582.63 -2.88177 -1.2113 0
M  V30 16439 H 1581.85 -3.78399 1.10488 0
M  V30 16440 H 1583.14 -4.99442 0.971349 0
M  V30 16441 H 1582.53 -5.21064 -2.20248 0
M  V30 16442 H 1581.09 -6.14289 -2.17927 0
M  V30 16443 N 1584.52 -0.695628 -1.41417 0
M  V30 16444 C 1585.45 -0.0447013 -2.33457 0
M  V30 16445 C 1586.43 0.767104 -1.51821 0
M  V30 16446 O 1587.62 0.720066 -1.80357 0
M  V30 16447 C 1584.75 0.892353 -3.3564 0
M  V30 16448 C 1583.7 0.187638 -4.27588 0
M  V30 16449 C 1583.03 1.23906 -5.20146 0
M  V30 16450 C 1584.33 -0.946093 -5.1366 0
M  V30 16451 H 1586.02 -0.81343 -2.88138 0
M  V30 16452 H 1583.57 -0.392614 -1.38544 0
M  V30 16453 H 1585.52 1.35696 -3.98954 0
M  V30 16454 H 1584.25 1.69275 -2.79309 0
M  V30 16455 H 1582.91 -0.256942 -3.65698 0
M  V30 16456 H 1582.55 2.03198 -4.6013 0
M  V30 16457 H 1582.25 0.772536 -5.82499 0
M  V30 16458 H 1583.78 1.70417 -5.86336 0
M  V30 16459 H 1585.19 -0.561764 -5.70541 0
M  V30 16460 H 1583.59 -1.33971 -5.84954 0
M  V30 16461 H 1584.66 -1.78573 -4.50821 0
M  V30 16462 N 1586 1.51322 -0.440383 0
M  V30 16463 C 1586.91 2.31574 0.37561 0
M  V30 16464 C 1587.93 1.40617 1.02483 0
M  V30 16465 O 1589.1 1.73688 1.01953 0
M  V30 16466 C 1586.17 3.14441 1.4604 0
M  V30 16467 C 1585.23 4.21181 0.830991 0
M  V30 16468 C 1584.46 5.00087 1.86409 0
M  V30 16469 O 1584.69 4.79666 3.08669 0
M  V30 16470 O 1583.62 5.84101 1.45293 0
M  V30 16471 H 1587.45 3.0241 -0.27962 0
M  V30 16472 H 1585.03 1.48016 -0.202857 0
M  V30 16473 H 1586.91 3.6595 2.08946 0
M  V30 16474 H 1585.59 2.46366 2.09965 0
M  V30 16475 H 1584.49 3.73741 0.163798 0
M  V30 16476 H 1585.83 4.91638 0.235174 0
M  V30 16477 N 1587.48 0.171848 1.5666 0
M  V30 16478 C 1588.7 -0.482396 2.01712 0
M  V30 16479 C 1589.13 -1.5598 1.05128 0
M  V30 16480 O 1588.49 -1.81274 0.0309178 0
M  V30 16481 C 1588.54 -1.03716 3.45363 0
M  V30 16482 O 1587.64 -2.15114 3.51852 0
M  V30 16483 H 1586.98 -0.115439 0.653888 0
M  V30 16484 H 1589.51 0.275895 2.02731 0
M  V30 16485 H 1589.52 -1.35964 3.84679 0
M  V30 16486 H 1588.2 -0.24832 4.15158 0
M  V30 16487 H 1586.77 -1.83907 3.24396 0
M  V30 16488 N 1588.96 -1.5727 -0.101874 0
M  V30 16489 C 1590.37 -1.74753 -0.657147 0
M  V30 16490 C 1590.72 -0.793052 -1.79458 0
M  V30 16491 O 1589.84 0.0300559 -2.16379 0
M  V30 16492 C 1590.44 -3.1688 -1.19885 0
M  V30 16493 C 1589 -3.3581 -1.70025 0
M  V30 16494 C 1588.15 -2.70575 -0.607007 0
M  V30 16495 H 1591.1 -1.58214 0.124158 0
M  V30 16496 H 1591.12 -3.19378 -2.06829 0
M  V30 16497 H 1590.63 -3.86325 -0.37079 0
M  V30 16498 H 1588.73 -2.71434 -2.55253 0
M  V30 16499 H 1588.84 -4.44086 -1.79791 0
M  V30 16500 H 1587.21 -2.32284 -1.04481 0
M  V30 16501 H 1587.99 -3.42655 0.21036 0
M  V30 16502 N 1590.44 0.372521 -1.53134 0
M  V30 16503 C 1591.39 1.45592 -1.75462 0
M  V30 16504 C 1592.37 1.4893 -0.608994 0
M  V30 16505 O 1593.56 1.54288 -0.867419 0
M  V30 16506 C 1590.69 2.83111 -1.94172 0
M  V30 16507 C 1589.78 2.84279 -3.14716 0
M  V30 16508 N 1590.17 2.551 -4.36758 0
M  V30 16509 C 1588.47 3.15443 -3.15297 0
M  V30 16510 C 1589.17 2.6377 -5.18459 0
M  V30 16511 N 1588.14 2.98192 -4.54513 0
M  V30 16512 H 1591.94 1.21885 -2.67435 0
M  V30 16513 H 1589.46 0.58064 -1.51665 0
M  V30 16514 H 1591.46 3.61136 -2.08294 0
M  V30 16515 H 1590.12 3.07788 -1.03423 0
M  V30 16516 H 1591.13 2.2882 -4.64609 0
M  V30 16517 H 1587.8 3.45479 -2.34416 0
M  V30 16518 H 1589.19 2.44616 -6.2579 0
M  V30 16519 N 1591.91 1.44376 0.631925 0
M  V30 16520 C 1592.82 1.5367 1.77264 0
M  V30 16521 C 1593.84 0.422425 1.68794 0
M  V30 16522 O 1595.02 0.679656 1.89585 0
M  V30 16523 C 1592.08 1.47743 3.13644 0
M  V30 16524 C 1591.14 2.70015 3.33752 0
M  V30 16525 C 1590.37 2.64362 4.63626 0
M  V30 16526 O 1590.6 1.7032 5.44378 0
M  V30 16527 O 1589.53 3.55201 4.85918 0
M  V30 16528 H 1593.36 2.5004 1.72376 0
M  V30 16529 H 1590.94 1.26614 0.793052 0
M  V30 16530 H 1592.82 1.46958 3.94945 0
M  V30 16531 H 1591.5 0.545165 3.19076 0
M  V30 16532 H 1590.41 2.76369 2.52133 0
M  V30 16533 H 1591.74 3.62286 3.33181 0
M  V30 16534 N 1593.39 -0.872258 1.31261 0
M  V30 16535 C 1594.3 -2.01185 1.20673 0
M  V30 16536 C 1595.32 -1.73558 0.123921 0
M  V30 16537 O 1596.49 -1.98487 0.341288 0
M  V30 16538 C 1593.56 -3.34481 0.91232 0
M  V30 16539 C 1592.62 -3.75446 2.08179 0
M  V30 16540 C 1591.85 -5.02382 1.80134 0
M  V30 16541 O 1592.08 -5.6564 0.735358 0
M  V30 16542 O 1591.01 -5.40059 2.65744 0
M  V30 16543 H 1594.84 -2.13049 2.16434 0
M  V30 16544 H 1592.42 -1.00021 1.10978 0
M  V30 16545 H 1594.3 -4.14419 0.763879 0
M  V30 16546 H 1592.98 -3.23696 -0.0152802 0
M  V30 16547 H 1591.88 -2.96159 2.28562 0
M  V30 16548 H 1593.22 -3.90853 2.99156 0
M  V30 16549 N 1594.87 -1.14184 -1.08627 0
M  V30 16550 C 1596.29 -0.881757 -1.33031 0
M  V30 16551 C 1596.49 0.478313 -1.95741 0
M  V30 16552 O 1595.54 1.22308 -2.209 0
M  V30 16553 C 1596.85 -2.01274 -2.23404 0
M  V30 16554 C 1598.4 -2.04578 -2.3689 0
M  V30 16555 C 1598.88 -3.16962 -3.30604 0
M  V30 16556 N 1600.37 -3.16526 -3.3818 0
M  V30 16557 C 1601.1 -4.00124 -4.10716 0
M  V30 16558 N 1600.6 -4.93757 -4.8598 0
M  V30 16559 N 1602.39 -3.88193 -4.06525 0
M  V30 16560 H 1594.54 -2.01787 -0.663017 0
M  V30 16561 H 1596.81 -0.879152 -0.354677 0
M  V30 16562 H 1596.51 -2.9938 -1.84566 0
M  V30 16563 H 1596.39 -1.93393 -3.2385 0
M  V30 16564 H 1598.77 -1.0708 -2.74987 0
M  V30 16565 H 1598.85 -2.16529 -1.36194 0
M  V30 16566 H 1598.5 -4.14704 -2.93228 0
M  V30 16567 H 1598.43 -3.02248 -4.31223 0
M  V30 16568 H 1600.92 -2.48708 -2.84522 0
M  V30 16569 H 1601.23 -5.54015 -5.38783 0
M  V30 16570 H 1599.58 -4.97756 -4.8504 0
M  V30 16571 H 1602.77 -3.14365 -3.46831 0
M  V30 16572 H 1602.94 -4.53571 -4.62793 0
M  V30 16573 N 1596.35 1.26749 -0.936613 0
M  V30 16574 C 1597.59 1.94251 -0.582616 0
M  V30 16575 C 1597.93 1.73352 0.875361 0
M  V30 16576 O 1597.2 1.06784 1.62565 0
M  V30 16577 C 1597.49 3.48145 -0.920151 0
M  V30 16578 C 1597.34 3.78349 -2.43253 0
M  V30 16579 C 1598.66 4.37971 -0.432326 0
M  V30 16580 H 1595.78 0.705507 -0.213141 0
M  V30 16581 H 1598.42 1.49703 -1.17001 0
M  V30 16582 H 1596.57 3.8622 -0.420279 0
M  V30 16583 H 1598.24 3.50015 -3.00478 0
M  V30 16584 H 1596.48 3.24586 -2.87795 0
M  V30 16585 H 1597.15 4.85902 -2.61922 0
M  V30 16586 H 1599.63 4.07098 -0.860857 0
M  V30 16587 H 1598.51 5.44452 -0.697366 0
M  V30 16588 H 1598.77 4.37029 0.667694 0
M  V30 16589 N 1597.83 0.703118 1.41046 0
M  V30 16590 C 1599.05 0.245088 2.05947 0
M  V30 16591 C 1599.48 -1.09988 1.52592 0
M  V30 16592 O 1598.83 -1.69015 0.656023 0
M  V30 16593 C 1598.88 0.221444 3.59919 0
M  V30 16594 O 1597.99 -0.801324 4.0454 0
M  V30 16595 H 1597.33 0.117862 0.653456 0
M  V30 16596 H 1599.86 0.960099 1.80674 0
M  V30 16597 H 1599.87 0.0548681 4.07963 0
M  V30 16598 H 1598.54 1.20301 3.98121 0
M  V30 16599 H 1597.12 -0.603489 3.67984 0
M  V30 16600 N 1599.3 -1.51086 0.448402 0
M  V30 16601 C 1600.25 -2.29611 -0.371711 0
M  V30 16602 C 1601.25 -1.35926 -1.01096 0
M  V30 16603 O 1602.45 -1.53219 -0.944663 0
M  V30 16604 H 1598.83 -0.739099 -0.138694 0
M  V30 16605 H 1600.8 -2.96772 0.311275 0
M  V30 16606 C 1599.55 -3.1583 -1.45418 0
M  V30 16607 H 1598.87 -3.87813 -0.971661 0
M  V30 16608 H 1600.31 -3.7381 -2.00105 0
M  V30 16609 C 1598.77 -2.31927 -2.44359 0
M  V30 16610 O 1599.3 -1.98655 -3.4914 0
M  V30 16611 N 1597.51 -1.94938 -2.15517 0
M  V30 16612 H 1597.05 -2.22195 -1.30335 0
M  V30 16613 H 1597.01 -1.39098 -2.81956 0
M  V30 16614 N 1600.78 -0.180154 -1.56567 0
M  V30 16615 C 1601.75 0.732809 -2.17169 0
M  V30 16616 C 1602.75 1.15176 -1.1221 0
M  V30 16617 O 1603.94 1.06728 -1.37677 0
M  V30 16618 C 1601.07 1.99857 -2.7617 0
M  V30 16619 H 1602.26 0.205088 -2.99198 0
M  V30 16620 H 1599.81 0.0694351 -1.56146 0
M  V30 16621 H 1600.55 2.56917 -1.97899 0
M  V30 16622 H 1600.33 1.70705 -3.5299 0
M  V30 16623 H 1601.82 2.64992 -3.22752 0
M  V30 16624 N 1602.26 1.57322 0.0935319 0
M  V30 16625 C 1603.19 2.05208 1.11409 0
M  V30 16626 C 1604.17 0.941295 1.41681 0
M  V30 16627 O 1605.36 1.21266 1.51684 0
M  V30 16628 C 1602.49 2.47782 2.43354 0
M  V30 16629 C 1601.44 3.62538 2.27486 0
M  V30 16630 C 1600.77 3.91095 3.64622 0
M  V30 16631 C 1602.07 4.93371 1.71412 0
M  V30 16632 H 1603.76 2.9072 0.715702 0
M  V30 16633 H 1601.31 1.3986 0.342827 0
M  V30 16634 H 1603.26 2.79891 3.15022 0
M  V30 16635 H 1601.98 1.59272 2.85132 0
M  V30 16636 H 1600.64 3.30679 1.58263 0
M  V30 16637 H 1600.29 2.99749 4.0393 0
M  V30 16638 H 1599.99 4.68353 3.5485 0
M  V30 16639 H 1601.51 4.25679 4.37755 0
M  V30 16640 H 1602.93 5.23851 2.32922 0
M  V30 16641 H 1601.33 5.74804 1.72395 0
M  V30 16642 H 1602.4 4.80197 0.67368 0
M  V30 16643 N 1603.74 -0.364395 1.53329 0
M  V30 16644 C 1604.69 -1.4466 1.76232 0
M  V30 16645 C 1605.67 -1.48605 0.616884 0
M  V30 16646 O 1606.86 -1.53826 0.875589 0
M  V30 16647 C 1603.99 -2.82078 1.95671 0
M  V30 16648 C 1603.08 -2.82606 3.16219 0
M  V30 16649 N 1603.47 -2.52781 4.38105 0
M  V30 16650 C 1601.77 -3.13766 3.16965 0
M  V30 16651 C 1602.47 -2.61017 5.19851 0
M  V30 16652 N 1601.45 -2.95777 4.56088 0
M  V30 16653 H 1605.25 -1.20465 2.68077 0
M  V30 16654 H 1602.76 -0.572589 1.51971 0
M  V30 16655 H 1604.76 -3.60026 2.10206 0
M  V30 16656 H 1603.42 -3.07236 1.05054 0
M  V30 16657 H 1604.43 -2.26353 4.65816 0
M  V30 16658 H 1601.11 -3.44231 2.36245 0
M  V30 16659 H 1602.5 -2.41294 6.27078 0
M  V30 16660 N 1605.22 -1.44709 -0.62426 0
M  V30 16661 C 1606.44 -1.51573 -1.41564 0
M  V30 16662 C 1606.87 -0.143806 -1.87549 0
M  V30 16663 O 1606.22 0.868361 -1.59151 0
M  V30 16664 C 1606.27 -2.49085 -2.60747 0
M  V30 16665 O 1605.38 -1.99712 -3.60817 0
M  V30 16666 H 1604.72 -0.51157 -0.423311 0
M  V30 16667 H 1607.25 -1.89908 -0.761316 0
M  V30 16668 H 1607.26 -2.67346 -3.08205 0
M  V30 16669 H 1605.93 -3.48733 -2.26624 0
M  V30 16670 H 1604.51 -1.9125 -3.20122 0
M  V30 16671 N 1606.69 0.865285 -1.31722 0
M  V30 16672 C 1607.94 1.62108 -1.21855 0
M  V30 16673 C 1608.27 1.9293 0.221714 0
M  V30 16674 O 1607.55 1.56423 1.15595 0
M  V30 16675 C 1607.83 2.94828 -2.06756 0
M  V30 16676 C 1607.68 2.70855 -3.59107 0
M  V30 16677 C 1609 3.95983 -1.92055 0
M  V30 16678 H 1606.12 0.588234 -0.444015 0
M  V30 16679 H 1608.76 0.999922 -1.6156 0
M  V30 16680 H 1606.91 3.47843 -1.73025 0
M  V30 16681 H 1608.59 2.24477 -4.02999 0
M  V30 16682 H 1606.83 2.05004 -3.82303 0
M  V30 16683 H 1607.5 3.65312 -4.13825 0
M  V30 16684 H 1609.98 3.52193 -2.21584 0
M  V30 16685 H 1608.85 4.86724 -2.53754 0
M  V30 16686 H 1609.11 4.33148 -0.885174 0
M  V30 16687 N 1608.17 1.14759 1.0802 0
M  V30 16688 C 1609.08 0.851934 2.18585 0
M  V30 16689 C 1610.1 -0.16914 1.73176 0
M  V30 16690 O 1611.27 0.00330114 2.014 0
M  V30 16691 C 1608.34 0.337977 3.45049 0
M  V30 16692 C 1607.4 1.4221 4.05061 0
M  V30 16693 C 1606.63 0.932574 5.25489 0
M  V30 16694 O 1606.86 -0.224457 5.69958 0
M  V30 16695 O 1605.79 1.7133 5.77001 0
M  V30 16696 H 1609.62 1.77605 2.46354 0
M  V30 16697 H 1607.2 0.926159 1.17229 0
M  V30 16698 H 1609.08 0.0574734 4.21361 0
M  V30 16699 H 1607.76 -0.558363 3.18848 0
M  V30 16700 H 1606.67 1.75612 3.3032 0
M  V30 16701 H 1608 2.29311 4.3552 0
M  V30 16702 N 1609.65 -1.26251 0.943322 0
M  V30 16703 C 1610.9 -1.93939 0.592909 0
M  V30 16704 C 1611.23 -1.73814 -0.866155 0
M  V30 16705 O 1610.5 -1.07645 -1.61997 0
M  V30 16706 C 1610.79 -3.47653 0.938601 0
M  V30 16707 C 1610.64 -3.77053 2.45257 0
M  V30 16708 C 1611.96 -4.37736 0.455546 0
M  V30 16709 H 1609.08 -0.704367 0.21688 0
M  V30 16710 H 1611.72 -1.4908 1.17793 0
M  V30 16711 H 1609.87 -3.85992 0.440756 0
M  V30 16712 H 1611.54 -3.48417 3.0233 0
M  V30 16713 H 1609.79 -3.23055 2.89513 0
M  V30 16714 H 1610.46 -4.84506 2.64495 0
M  V30 16715 H 1612.93 -4.06635 0.882435 0
M  V30 16716 H 1611.81 -5.44075 0.72623 0
M  V30 16717 H 1612.07 -4.37377 -0.644508 0
M  V30 16718 N 1611.13 -0.710588 -1.40671 0
M  V30 16719 C 1612.04 -0.0557164 -2.34534 0
M  V30 16720 C 1613.06 0.749387 -1.57036 0
M  V30 16721 O 1614.23 0.683493 -1.89447 0
M  V30 16722 C 1611.3 0.858583 -3.35901 0
M  V30 16723 C 1610.36 0.043995 -4.29277 0
M  V30 16724 C 1609.59 0.91475 -5.25802 0
M  V30 16725 O 1609.81 2.15407 -5.28163 0
M  V30 16726 O 1608.75 0.356407 -6.00844 0
M  V30 16727 H 1612.57 -0.829807 -2.92144 0
M  V30 16728 H 1610.16 -0.471028 -1.4178 0
M  V30 16729 H 1612.04 1.38244 -3.98079 0
M  V30 16730 H 1610.72 1.61191 -2.80712 0
M  V30 16731 H 1609.62 -0.524815 -3.704 0
M  V30 16732 H 1610.96 -0.670996 -4.87605 0
M  V30 16733 N 1612.61 1.50847 -0.456408 0
M  V30 16734 C 1613.54 2.31077 0.335523 0
M  V30 16735 C 1614.52 1.37326 1.00377 0
M  V30 16736 O 1615.7 1.66247 1.00376 0
M  V30 16737 C 1612.83 3.16662 1.42627 0
M  V30 16738 C 1611.79 4.18846 0.88045 0
M  V30 16739 C 1611.11 4.93074 2.06838 0
M  V30 16740 C 1612.41 5.22208 -0.0982288 0
M  V30 16741 H 1614.11 2.97531 -0.334056 0
M  V30 16742 H 1611.65 1.43085 -0.162099 0
M  V30 16743 H 1613.61 3.71578 1.98765 0
M  V30 16744 H 1612.33 2.48066 2.12441 0
M  V30 16745 H 1610.99 3.65009 0.341147 0
M  V30 16746 H 1610.64 4.20963 2.75316 0
M  V30 16747 H 1610.34 5.62184 1.70947 0
M  V30 16748 H 1611.86 5.5082 2.63494 0
M  V30 16749 H 1613.28 5.72082 0.373481 0
M  V30 16750 H 1611.67 5.98954 -0.370674 0
M  V30 16751 H 1612.74 4.73859 -1.02887 0
M  V30 16752 N 1614.09 0.188454 1.56469 0
M  V30 16753 C 1615.02 -0.766806 2.15992 0
M  V30 16754 C 1616.03 -1.18153 1.11998 0
M  V30 16755 O 1617.22 -1.11842 1.39118 0
M  V30 16756 C 1614.32 -2.04594 2.70175 0
M  V30 16757 C 1613.49 -1.79207 3.99003 0
M  V30 16758 C 1612.55 -2.91504 4.38078 0
M  V30 16759 O 1611.58 -2.61397 5.05628 0
M  V30 16760 N 1612.78 -4.19702 4.01037 0
M  V30 16761 H 1615.54 -0.257829 2.98589 0
M  V30 16762 H 1613.11 0.00625645 1.61899 0
M  V30 16763 H 1615.1 -2.78846 2.93303 0
M  V30 16764 H 1613.67 -2.46633 1.9207 0
M  V30 16765 H 1612.89 -0.88769 3.84075 0
M  V30 16766 H 1614.18 -1.59634 4.83109 0
M  V30 16767 H 1613.57 -4.47016 3.46689 0
M  V30 16768 H 1612.13 -4.90602 4.2913 0
M  V30 16769 N 1615.56 -1.5737 -0.0851874 0
M  V30 16770 C 1616.51 -2.02758 -1.10262 0
M  V30 16771 C 1617.48 -0.905702 -1.39235 0
M  V30 16772 O 1618.67 -1.17241 -1.50529 0
M  V30 16773 C 1615.81 -2.46528 -2.41492 0
M  V30 16774 C 1614.92 -3.72278 -2.19165 0
M  V30 16775 C 1614.05 -4.04885 -3.43863 0
M  V30 16776 C 1613.09 -5.23715 -3.16842 0
M  V30 16777 N 1612.23 -5.52026 -4.33833 0
M  V30 16778 H 1617.07 -2.89453 -0.708583 0
M  V30 16779 H 1614.61 -1.43156 -0.338332 0
M  V30 16780 H 1616.56 -2.69952 -3.18091 0
M  V30 16781 H 1615.19 -1.62829 -2.78723 0
M  V30 16782 H 1614.25 -3.56272 -1.33321 0
M  V30 16783 H 1615.56 -4.5902 -1.95197 0
M  V30 16784 H 1614.71 -4.29138 -4.28865 0
M  V30 16785 H 1613.45 -3.16683 -3.70895 0
M  V30 16786 H 1612.46 -4.99272 -2.30234 0
M  V30 16787 H 1613.68 -6.13523 -2.91146 0
M  V30 16788 H 1611.63 -4.66784 -4.60922 0
M  V30 16789 H 1611.54 -6.3316 -4.13091 0
M  V30 16790 H 1612.81 -5.80822 -5.19871 0
M  V30 16791 N 1617.04 0.356258 -1.53521 0
M  V30 16792 C 1617.97 1.44271 -1.83598 0
M  V30 16793 C 1618.95 1.5547 -0.690141 0
M  V30 16794 O 1620.14 1.69886 -0.940868 0
M  V30 16795 C 1617.27 2.8149 -2.03422 0
M  V30 16796 C 1616.22 2.85108 -3.19213 0
M  V30 16797 C 1615.55 4.25091 -3.24348 0
M  V30 16798 C 1616.85 2.51788 -4.57602 0
M  V30 16799 H 1618.54 1.1935 -2.74583 0
M  V30 16800 H 1616.09 0.572707 -1.32121 0
M  V30 16801 H 1618.04 3.57531 -2.23046 0
M  V30 16802 H 1616.76 3.07819 -1.09155 0
M  V30 16803 H 1615.42 2.1152 -2.99424 0
M  V30 16804 H 1615.07 4.4851 -2.277 0
M  V30 16805 H 1614.77 4.28426 -4.0215 0
M  V30 16806 H 1616.3 5.02992 -3.46167 0
M  V30 16807 H 1617.71 3.17542 -4.77326 0
M  V30 16808 H 1616.11 2.66426 -5.37715 0
M  V30 16809 H 1617.18 1.4701 -4.62078 0
M  V30 16810 N 1618.52 1.45038 0.616577 0
M  V30 16811 C 1619.75 1.52094 1.40267 0
M  V30 16812 C 1620.16 0.150558 1.88199 0
M  V30 16813 O 1619.52 -0.846258 1.61693 0
M  V30 16814 C 1619.57 2.49786 2.61322 0
M  V30 16815 O 1619.29 3.81498 2.15385 0
M  V30 16816 C 1620.79 2.66451 3.54286 0
M  V30 16817 H 1618.01 0.515378 0.429681 0
M  V30 16818 H 1620.56 1.90141 0.752768 0
M  V30 16819 H 1618.71 2.14835 3.22373 0
M  V30 16820 H 1619.13 4.34374 2.93972 0
M  V30 16821 H 1620.6 3.38802 4.35795 0
M  V30 16822 H 1621.08 1.72177 4.04044 0
M  V30 16823 H 1621.68 3.02362 2.99095 0
M  V30 16824 N 1620 -0.858287 1.32179 0
M  V30 16825 C 1620.91 -1.99894 1.228 0
M  V30 16826 C 1621.92 -1.73417 0.142323 0
M  V30 16827 O 1623.1 -1.98114 0.362321 0
M  V30 16828 C 1620.16 -3.33495 0.947745 0
M  V30 16829 C 1619.23 -3.73217 2.12149 0
M  V30 16830 C 1618.46 -5.00443 1.85452 0
M  V30 16831 O 1618.68 -5.64828 0.79531 0
M  V30 16832 O 1617.62 -5.3721 2.71457 0
M  V30 16833 H 1621.44 -2.10742 2.18682 0
M  V30 16834 H 1619.03 -0.988385 1.12033 0
M  V30 16835 H 1620.91 -4.13585 0.807791 0
M  V30 16836 H 1619.58 -3.23694 0.019053 0
M  V30 16837 H 1618.49 -2.93718 2.3169 0
M  V30 16838 H 1619.82 -3.87659 3.03285 0
M  V30 16839 N 1621.48 -1.1533 -1.07409 0
M  V30 16840 C 1622.72 -0.922348 -1.79376 0
M  V30 16841 C 1623.04 0.551929 -1.87652 0
M  V30 16842 O 1624.24 0.900444 -2.56133 0
M  V30 16843 C 1622.7 -1.60081 -3.22339 0
M  V30 16844 C 1622.31 -3.11206 -3.22265 0
M  V30 16845 C 1624.05 -1.45138 -3.98917 0
M  V30 16846 C 1621.96 -3.71842 -4.59878 0
M  V30 16847 H 1620.89 -0.341438 -0.672262 0
M  V30 16848 H 1623.54 -1.38336 -1.20562 0
M  V30 16849 H 1621.92 -1.06748 -3.81341 0
M  V30 16850 H 1623.1 -3.7129 -2.72911 0
M  V30 16851 H 1621.41 -3.25903 -2.59183 0
M  V30 16852 H 1624.01 -1.87832 -5.00623 0
M  V30 16853 H 1624.35 -0.398796 -4.14385 0
M  V30 16854 H 1624.88 -1.95564 -3.46409 0
M  V30 16855 H 1621.62 -4.76998 -4.49614 0
M  V30 16856 H 1621.14 -3.16541 -5.09472 0
M  V30 16857 H 1622.82 -3.72733 -5.28847 0
M  V30 16858 N 1622.95 1.25748 -0.950004 0
M  V30 16859 C 1624.36 1.75253 -0.643694 0
M  V30 16860 C 1624.72 1.77261 0.841017 0
M  V30 16861 O 1623.84 1.39043 1.65819 0
M  V30 16862 C 1624.44 3.1826 -1.16173 0
M  V30 16863 C 1622.99 3.65342 -0.905672 0
M  V30 16864 C 1622.14 2.4454 -1.30749 0
M  V30 16865 H 1625.09 1.117 -1.12733 0
M  V30 16866 H 1625.11 3.76935 -0.519651 0
M  V30 16867 H 1624.63 3.16766 -2.24234 0
M  V30 16868 H 1622.73 3.72256 0.160174 0
M  V30 16869 H 1622.84 4.53713 -1.53888 0
M  V30 16870 H 1621.2 2.44138 -0.725876 0
M  V30 16871 H 1621.99 2.45741 -2.39721 0
M  V30 16872 N 1624.43 0.718038 1.40292 0
M  V30 16873 C 1625.68 0.26782 2.01629 0
M  V30 16874 C 1626.03 -1.1272 1.55923 0
M  V30 16875 O 1625.33 -1.75425 0.770497 0
M  V30 16876 C 1625.52 0.289374 3.56227 0
M  V30 16877 C 1625.35 1.68495 4.16941 0
M  V30 16878 C 1624.12 2.29319 4.50268 0
M  V30 16879 C 1626.32 2.63562 4.41633 0
M  V30 16880 N 1624.3 3.61207 4.9639 0
M  V30 16881 C 1625.67 3.80159 4.89774 0
M  V30 16882 C 1627.72 2.61542 4.23675 0
M  V30 16883 C 1626.43 4.95048 5.21843 0
M  V30 16884 C 1628.45 3.7556 4.56846 0
M  V30 16885 C 1627.82 4.90891 5.05179 0
M  V30 16886 H 1623.91 0.143888 0.768648 0
M  V30 16887 H 1626.5 0.940362 1.70485 0
M  V30 16888 H 1624.67 -0.352744 3.86795 0
M  V30 16889 H 1626.4 -0.177788 4.04309 0
M  V30 16890 H 1623.16 1.81395 4.37485 0
M  V30 16891 H 1623.58 4.28873 5.2383 0
M  V30 16892 H 1628.22 1.7358 3.85526 0
M  V30 16893 H 1625.94 5.83653 5.58905 0
M  V30 16894 H 1629.53 3.75275 4.4459 0
M  V30 16895 H 1628.41 5.77655 5.30362 0
M  V30 16896 N 1625.91 -1.50602 0.464402 0
M  V30 16897 C 1626.84 -2.31252 -0.323263 0
M  V30 16898 C 1627.82 -1.37856 -0.996476 0
M  V30 16899 O 1629.01 -1.66777 -0.994933 0
M  V30 16900 C 1626.14 -3.17414 -1.40945 0
M  V30 16901 C 1625.09 -4.19307 -0.858226 0
M  V30 16902 C 1624.42 -4.94164 -2.0422 0
M  V30 16903 C 1625.72 -5.22148 0.125921 0
M  V30 16904 H 1627.41 -2.97349 0.34983 0
M  V30 16905 H 1624.96 -1.42997 0.169685 0
M  V30 16906 H 1626.91 -3.72627 -1.96791 0
M  V30 16907 H 1625.63 -2.49189 -2.11122 0
M  V30 16908 H 1624.29 -3.65185 -0.321785 0
M  V30 16909 H 1623.94 -4.22417 -2.7308 0
M  V30 16910 H 1623.64 -5.63083 -1.67963 0
M  V30 16911 H 1625.16 -5.5221 -2.60569 0
M  V30 16912 H 1626.58 -5.72272 -0.343136 0
M  V30 16913 H 1624.98 -5.98749 0.402433 0
M  V30 16914 H 1626.05 -4.73307 1.05399 0
M  V30 16915 N 1627.39 -0.19675 -1.56367 0
M  V30 16916 C 1628.62 0.446491 -2.01718 0
M  V30 16917 C 1629.03 1.55621 -1.07604 0
M  V30 16918 O 1628.37 1.83553 -0.0733943 0
M  V30 16919 C 1628.43 1.06182 -3.43461 0
M  V30 16920 C 1628.1 0.0906278 -4.5691 0
M  V30 16921 C 1629.09 -0.700599 -5.15158 0
M  V30 16922 C 1626.78 -0.0209341 -5.02296 0
M  V30 16923 C 1628.77 -1.59034 -6.17241 0
M  V30 16924 C 1626.46 -0.91423 -6.04223 0
M  V30 16925 C 1627.46 -1.6975 -6.61569 0
M  V30 16926 O 1627.14 -2.57582 -7.61516 0
M  V30 16927 H 1626.88 0.116254 -0.665929 0
M  V30 16928 H 1629.43 -0.303224 -2.03149 0
M  V30 16929 H 1627.66 1.86015 -3.39021 0
M  V30 16930 H 1629.35 1.60988 -3.72609 0
M  V30 16931 H 1630.12 -0.624723 -4.8096 0
M  V30 16932 H 1625.99 0.578557 -4.57355 0
M  V30 16933 H 1629.54 -2.20215 -6.6193 0
M  V30 16934 H 1625.44 -0.991215 -6.37844 0
M  V30 16935 H 1626.2 -2.5138 -7.78942 0
M  V30 16936 N 1628.87 1.57413 0.0768405 0
M  V30 16937 C 1630.1 1.90946 0.788862 0
M  V30 16938 C 1630.5 0.790474 1.71896 0
M  V30 16939 O 1629.85 -0.245385 1.82054 0
M  V30 16940 C 1629.91 3.19902 1.64022 0
M  V30 16941 C 1629.57 4.48447 0.880025 0
M  V30 16942 C 1630.57 5.19509 0.201546 0
M  V30 16943 C 1628.26 4.95078 0.848694 0
M  V30 16944 C 1630.25 6.35451 -0.498091 0
M  V30 16945 C 1627.94 6.10927 0.145281 0
M  V30 16946 C 1628.93 6.80964 -0.526916 0
M  V30 16947 O 1628.62 7.94604 -1.21901 0
M  V30 16948 H 1628.35 0.63576 0.22975 0
M  V30 16949 H 1630.91 2.05332 0.052938 0
M  V30 16950 H 1629.14 3.01712 2.41882 0
M  V30 16951 H 1630.83 3.39125 2.23046 0
M  V30 16952 H 1631.59 4.84514 0.217091 0
M  V30 16953 H 1627.47 4.40441 1.36136 0
M  V30 16954 H 1631.02 6.90053 -1.02333 0
M  V30 16955 H 1626.91 6.45374 0.127646 0
M  V30 16956 H 1627.68 8.10693 -1.12776 0
M  V30 16957 N 1630.34 -0.348112 1.53707 0
M  V30 16958 C 1631.59 -1.08626 1.69951 0
M  V30 16959 C 1631.91 -1.89944 0.466992 0
M  V30 16960 O 1633.11 -2.66661 0.51029 0
M  V30 16961 C 1631.57 -1.98052 3.00505 0
M  V30 16962 C 1631.18 -1.21963 4.31079 0
M  V30 16963 C 1632.92 -2.71752 3.26115 0
M  V30 16964 C 1630.83 -2.10392 5.52711 0
M  V30 16965 H 1629.76 -0.409241 0.633275 0
M  V30 16966 H 1632.41 -0.346051 1.80207 0
M  V30 16967 H 1630.79 -2.75874 2.84094 0
M  V30 16968 H 1631.96 -0.490831 4.58178 0
M  V30 16969 H 1630.28 -0.600511 4.12047 0
M  V30 16970 H 1632.88 -3.38174 4.14177 0
M  V30 16971 H 1633.22 -3.38072 2.42926 0
M  V30 16972 H 1633.75 -2.01005 3.43281 0
M  V30 16973 H 1630.49 -1.48622 6.38429 0
M  V30 16974 H 1630.01 -2.81074 5.29866 0
M  V30 16975 H 1631.69 -2.69551 5.88176 0
M  V30 16976 N 1631.82 -1.45363 -0.608876 0
M  V30 16977 C 1632.75 -1.56778 -1.7304 0
M  V30 16978 C 1633.73 -0.419405 -1.64848 0
M  V30 16979 O 1634.92 -0.64238 -1.83268 0
M  V30 16980 C 1632.05 -1.5329 -3.1164 0
M  V30 16981 C 1631 -2.66832 -3.34641 0
M  V30 16982 C 1630.33 -2.48398 -4.735 0
M  V30 16983 C 1631.63 -4.0885 -3.25021 0
M  V30 16984 H 1633.32 -2.50656 -1.63743 0
M  V30 16985 H 1630.87 -1.20635 -0.786338 0
M  V30 16986 H 1632.82 -1.59873 -3.89895 0
M  V30 16987 H 1631.55 -0.559414 -3.21773 0
M  V30 16988 H 1630.2 -2.59675 -2.58775 0
M  V30 16989 H 1629.85 -1.49191 -4.80366 0
M  V30 16990 H 1629.55 -3.24537 -4.89846 0
M  V30 16991 H 1631.08 -2.56833 -5.53958 0
M  V30 16992 H 1632.49 -4.17257 -3.93153 0
M  V30 16993 H 1630.89 -4.85369 -3.52897 0
M  V30 16994 H 1631.96 -4.30849 -2.2248 0
M  V30 16995 N 1633.3 0.851265 -1.32632 0
M  V30 16996 C 1634.25 1.94828 -1.18431 0
M  V30 16997 C 1635.23 1.60646 -0.090361 0
M  V30 16998 O 1636.43 1.74134 -0.317212 0
M  V30 16999 C 1633.56 3.30937 -0.913006 0
M  V30 17000 C 1632.64 3.71328 -2.04882 0
M  V30 17001 N 1633.03 3.83517 -3.2977 0
M  V30 17002 C 1631.33 4.00979 -1.95274 0
M  V30 17003 C 1632.03 4.18341 -4.04185 0
M  V30 17004 N 1631.01 4.30043 -3.32512 0
M  V30 17005 H 1634.81 2.0239 -2.13109 0
M  V30 17006 H 1632.32 1.04323 -1.2446 0
M  V30 17007 H 1634.32 4.09304 -0.792221 0
M  V30 17008 H 1632.98 3.2469 0.0253611 0
M  V30 17009 H 1633.99 3.67749 -3.64666 0
M  V30 17010 H 1630.67 4.03015 -1.0902 0
M  V30 17011 H 1632.06 4.35213 -5.11898 0
M  V30 17012 N 1634.78 1.15898 1.06796 0
M  V30 17013 C 1636.19 0.945837 1.60968 0
M  V30 17014 C 1636.54 -0.511507 1.89415 0
M  V30 17015 O 1635.67 -1.38372 1.66379 0
M  V30 17016 C 1636.26 1.71054 2.92448 0
M  V30 17017 C 1634.82 1.54252 3.43341 0
M  V30 17018 C 1633.97 1.72253 2.17311 0
M  V30 17019 H 1636.92 1.30842 0.898118 0
M  V30 17020 H 1636.94 1.18336 3.61631 0
M  V30 17021 H 1636.45 2.77117 2.71712 0
M  V30 17022 H 1634.55 0.506082 3.69147 0
M  V30 17023 H 1634.66 2.32314 4.19007 0
M  V30 17024 H 1633.03 1.14952 2.27284 0
M  V30 17025 H 1633.81 2.79693 1.99064 0
M  V30 17026 N 1636.26 -1.25243 0.956659 0
M  V30 17027 C 1637.2 -2.2781 0.46963 0
M  V30 17028 C 1638.2 -1.63003 -0.461138 0
M  V30 17029 O 1639.4 -1.76805 -0.337644 0
M  V30 17030 H 1635.78 -0.740078 0.133374 0
M  V30 17031 H 1637.75 -2.66273 1.34689 0
M  V30 17032 C 1636.5 -3.46904 -0.235206 0
M  V30 17033 H 1635.82 -3.97006 0.471869 0
M  V30 17034 H 1637.26 -4.20548 -0.539969 0
M  V30 17035 C 1635.72 -3.03697 -1.45841 0
M  V30 17036 O 1636.25 -3.09887 -2.55603 0
M  V30 17037 N 1634.46 -2.58866 -1.32049 0
M  V30 17038 H 1634 -2.54029 -0.427428 0
M  V30 17039 H 1633.96 -2.30322 -2.14008 0
M  V30 17040 N 1637.73 -0.725468 -1.3991 0
M  V30 17041 C 1638.64 -0.0805887 -2.34462 0
M  V30 17042 C 1639.66 0.732689 -1.57822 0
M  V30 17043 O 1640.84 0.663362 -1.90162 0
M  V30 17044 C 1637.9 0.822908 -3.36792 0
M  V30 17045 C 1636.96 -0.00153812 -4.293 0
M  V30 17046 C 1636.2 0.85893 -5.26743 0
M  V30 17047 O 1636.42 2.09793 -5.30418 0
M  V30 17048 O 1635.35 0.292659 -6.01188 0
M  V30 17049 H 1639.18 -0.860746 -2.91247 0
M  V30 17050 H 1636.76 -0.48604 -1.41273 0
M  V30 17051 H 1638.65 1.34014 -3.99522 0
M  V30 17052 H 1637.32 1.58204 -2.82406 0
M  V30 17053 H 1636.23 -0.564072 -3.69823 0
M  V30 17054 H 1637.56 -0.722675 -4.86866 0
M  V30 17055 N 1639.21 1.50354 -0.472382 0
M  V30 17056 C 1640.49 1.95071 0.143803 0
M  V30 17057 C 1640.87 1.41281 1.56853 0
M  V30 17058 O 1640.22 0.614349 2.20086 0
M  V30 17059 C 1640.43 3.48895 0.0857944 0
M  V30 17060 C 1641.78 4.23715 0.274039 0
M  V30 17061 O 1642.8 3.5583 0.162319 0
M  V30 17062 O 1641.66 5.4421 0.499815 0
M  V30 17063 H 1638.75 0.819521 0.110966 0
M  V30 17064 H 1641.3 1.61116 -0.532876 0
M  V30 17065 H 1640.07 3.80598 -0.908887 0
M  V30 17066 H 1639.69 3.89389 0.803875 0
M  V30 17067 N 1640.69 0.205039 1.56261 0
M  V30 17068 C 1641.6 -0.723548 2.23164 0
M  V30 17069 C 1642.62 -1.22683 1.23389 0
M  V30 17070 O 1643.79 -1.27191 1.56155 0
M  V30 17071 C 1640.86 -1.92178 2.88563 0
M  V30 17072 C 1639.92 -1.46209 4.03635 0
M  V30 17073 C 1639.15 -2.60321 4.65906 0
M  V30 17074 O 1639.38 -3.78051 4.27122 0
M  V30 17075 O 1638.31 -2.32465 5.55197 0
M  V30 17076 H 1642.14 -0.183715 3.03144 0
M  V30 17077 H 1639.72 -0.0246933 1.4938 0
M  V30 17078 H 1641.6 -2.62188 3.29902 0
M  V30 17079 H 1640.28 -2.45003 2.11555 0
M  V30 17080 H 1639.18 -0.730492 3.66899 0
M  V30 17081 H 1640.52 -0.980402 4.82337 0
M  V30 17082 N 1642.17 -1.57451 -0.0684915 0
M  V30 17083 C 1643.08 -2.07274 -1.09885 0
M  V30 17084 C 1644.1 -1.00295 -1.42186 0
M  V30 17085 O 1645.27 -1.31786 -1.52297 0
M  V30 17086 C 1642.34 -2.50949 -2.39219 0
M  V30 17087 C 1641.4 -3.7224 -2.13859 0
M  V30 17088 C 1640.63 -4.13823 -3.37026 0
M  V30 17089 O 1640.85 -3.55248 -4.46268 0
M  V30 17090 O 1639.79 -5.06587 -3.25044 0
M  V30 17091 H 1643.61 -2.9539 -0.705587 0
M  V30 17092 H 1641.2 -1.46698 -0.282849 0
M  V30 17093 H 1643.08 -2.79547 -3.15327 0
M  V30 17094 H 1641.76 -1.6596 -2.77919 0
M  V30 17095 H 1640.66 -3.4872 -1.35445 0
M  V30 17096 H 1642 -4.58091 -1.80038 0
M  V30 17097 N 1643.65 0.339955 -1.5389 0
M  V30 17098 C 1645.06 0.915362 -1.62721 0
M  V30 17099 C 1645.41 1.89434 -0.510798 0
M  V30 17100 O 1644.53 2.13403 0.3589 0
M  V30 17101 C 1645.13 1.66699 -2.94953 0
M  V30 17102 C 1643.69 2.19135 -3.06034 0
M  V30 17103 C 1642.84 1.01159 -2.5819 0
M  V30 17104 H 1645.79 0.11799 -1.58261 0
M  V30 17105 H 1645.81 2.53011 -2.84193 0
M  V30 17106 H 1645.32 0.954219 -3.76186 0
M  V30 17107 H 1643.42 2.93577 -2.29441 0
M  V30 17108 H 1643.53 2.4526 -4.11563 0
M  V30 17109 H 1641.9 1.38604 -2.13685 0
M  V30 17110 H 1642.68 0.313396 -3.41867 0
M  V30 17111 N 1645.13 1.45684 0.601159 0
M  V30 17112 C 1646.54 1.44423 1.18317 0
M  V30 17113 C 1646.89 0.17524 1.95416 0
M  V30 17114 O 1646.01 -0.722816 2.03971 0
M  V30 17115 C 1646.61 2.61651 2.1523 0
M  V30 17116 C 1645.17 2.6349 2.68793 0
M  V30 17117 C 1644.31 2.36787 1.44317 0
M  V30 17118 H 1647.26 1.53831 0.390108 0
M  V30 17119 H 1647.29 2.36117 2.98377 0
M  V30 17120 H 1646.8 3.53995 1.59088 0
M  V30 17121 H 1644.9 1.7517 3.28856 0
M  V30 17122 H 1645.01 3.62906 3.12787 0
M  V30 17123 H 1643.38 1.86472 1.73494 0
M  V30 17124 H 1644.16 3.31284 0.900327 0
M  V30 17125 N 1646.6 -0.84422 1.33082 0
M  V30 17126 C 1647.54 -1.95789 1.17226 0
M  V30 17127 C 1648.51 -1.62453 0.0690721 0
M  V30 17128 O 1649.7 -1.87088 0.230322 0
M  V30 17129 C 1646.83 -3.29193 0.796847 0
M  V30 17130 C 1645.87 -3.81503 1.90677 0
M  V30 17131 S 1646.7 -4.03828 3.51686 0
M  V30 17132 C 1647.86 -5.40191 3.16139 0
M  V30 17133 H 1648.09 -2.08938 2.115 0
M  V30 17134 H 1645.63 -0.99739 1.17862 0
M  V30 17135 H 1647.58 -4.06281 0.587018 0
M  V30 17136 H 1646.25 -3.13842 -0.127199 0
M  V30 17137 H 1645.44 -4.78018 1.59734 0
M  V30 17138 H 1645.04 -3.11293 2.07299 0
M  V30 17139 H 1647.33 -6.22827 2.66632 0
M  V30 17140 H 1648.28 -5.76105 4.11715 0
M  V30 17141 H 1648.68 -5.04691 2.52879 0
M  V30 17142 N 1648.08 -1.16463 -1.0618 0
M  V30 17143 C 1649.36 -0.857038 -1.75824 0
M  V30 17144 C 1649.74 0.644886 -2.01009 0
M  V30 17145 O 1649.09 1.59305 -1.63812 0
M  V30 17146 C 1649.3 -1.681 -3.05849 0
M  V30 17147 C 1650.64 -1.8947 -3.79982 0
M  V30 17148 O 1651.67 -1.64975 -3.15692 0
M  V30 17149 O 1650.53 -2.30573 -4.95478 0
M  V30 17150 H 1647.62 -0.316364 -0.764096 0
M  V30 17151 H 1650.17 -1.27105 -1.12438 0
M  V30 17152 H 1648.94 -2.70014 -2.8321 0
M  V30 17153 H 1648.56 -1.2641 -3.7697 0
M  V30 17154 N 1649.56 1.24734 -0.963288 0
M  V30 17155 C 1650.8 1.94431 -0.630554 0
M  V30 17156 C 1651.16 1.7368 0.818489 0
M  V30 17157 O 1652.36 2.37374 1.26123 0
M  V30 17158 C 1650.64 3.43421 -0.989774 0
M  V30 17159 S 1652.19 4.31975 -0.770922 0
M  V30 17160 H 1649.01 0.672265 -0.231474 0
M  V30 17161 H 1651.61 1.512 -1.2393 0
M  V30 17162 H 1650.32 3.5603 -2.04135 0
M  V30 17163 H 1649.85 3.91641 -0.371622 0
M  V30 17164 H 1651.86 4.94936 0.35396 0
M  V30 17165 N 1651.04 0.732878 1.39523 0
M  V30 17166 C 1652.27 0.29007 2.04857 0
M  V30 17167 C 1652.68 -1.07435 1.55252 0
M  V30 17168 O 1652.04 -1.67847 0.716497 0
M  V30 17169 C 1652.09 0.280464 3.6041 0
M  V30 17170 O 1651.81 1.59102 4.08189 0
M  V30 17171 C 1653.31 -0.178772 4.42939 0
M  V30 17172 H 1650.53 0.12716 0.658841 0
M  V30 17173 H 1653.07 0.995933 1.7861 0
M  V30 17174 H 1651.23 -0.376494 3.85566 0
M  V30 17175 H 1651.64 1.50314 5.025 0
M  V30 17176 H 1653.12 -0.134335 5.51837 0
M  V30 17177 H 1653.59 -1.22362 4.21811 0
M  V30 17178 H 1654.2 0.448543 4.22928 0
M  V30 17179 N 1652.52 -1.50101 0.480349 0
M  V30 17180 C 1653.46 -2.28722 -0.308993 0
M  V30 17181 C 1654.43 -1.34186 -0.978948 0
M  V30 17182 O 1655.62 -1.6313 -0.989602 0
M  V30 17183 C 1652.76 -3.16322 -1.37966 0
M  V30 17184 C 1651.87 -4.25898 -0.723552 0
M  V30 17185 C 1651.01 -5.00741 -1.7729 0
M  V30 17186 C 1650.04 -6.0218 -1.09754 0
M  V30 17187 N 1649.18 -6.70266 -2.09015 0
M  V30 17188 H 1654.02 -2.95722 0.367739 0
M  V30 17189 H 1651.56 -1.45826 0.193197 0
M  V30 17190 H 1653.52 -3.65469 -2.01217 0
M  V30 17191 H 1652.15 -2.51349 -2.02543 0
M  V30 17192 H 1651.2 -3.80394 0.0217507 0
M  V30 17193 H 1652.51 -4.98435 -0.190905 0
M  V30 17194 H 1651.66 -5.53653 -2.48098 0
M  V30 17195 H 1650.4 -4.27931 -2.33937 0
M  V30 17196 H 1649.41 -5.48519 -0.375123 0
M  V30 17197 H 1650.63 -6.76967 -0.537841 0
M  V30 17198 H 1648.58 -6.00242 -2.64662 0
M  V30 17199 H 1648.5 -7.3871 -1.6076 0
M  V30 17200 H 1649.76 -7.27792 -2.79175 0
M  V30 17201 N 1653.99 -0.213323 -1.5615 0
M  V30 17202 C 1655.41 0.142215 -1.58965 0
M  V30 17203 C 1655.61 1.59606 -1.22996 0
M  V30 17204 O 1654.67 2.33485 -0.961308 0
M  V30 17205 C 1655.98 -0.176632 -3.00181 0
M  V30 17206 C 1657.53 -0.118205 -3.12777 0
M  V30 17207 C 1658 -0.410614 -4.56156 0
M  V30 17208 N 1659.49 -0.359887 -4.618 0
M  V30 17209 C 1660.23 -0.559744 -5.70661 0
M  V30 17210 N 1659.72 -0.820934 -6.87919 0
M  V30 17211 N 1661.52 -0.492746 -5.59936 0
M  V30 17212 H 1653.67 -1.16182 -1.77807 0
M  V30 17213 H 1655.93 -0.465086 -0.826075 0
M  V30 17214 H 1655.64 -1.18538 -3.31122 0
M  V30 17215 H 1655.51 0.512256 -3.73705 0
M  V30 17216 H 1657.9 0.88117 -2.81637 0
M  V30 17217 H 1657.98 -0.840446 -2.41599 0
M  V30 17218 H 1657.62 -1.40739 -4.88011 0
M  V30 17219 H 1657.55 0.332725 -5.25548 0
M  V30 17220 H 1660.04 -0.16537 -3.77538 0
M  V30 17221 H 1660.36 -0.961755 -7.66792 0
M  V30 17222 H 1658.7 -0.858036 -6.89683 0
M  V30 17223 H 1661.89 -0.288981 -4.67207 0
M  V30 17224 H 1662.07 -0.651912 -6.44712 0
M  V30 17225 N 1655.47 1.57485 0.0601405 0
M  V30 17226 C 1656.42 2.0554 1.08886 0
M  V30 17227 C 1657.41 0.962963 1.39368 0
M  V30 17228 O 1658.62 1.14802 1.38638 0
M  V30 17229 H 1655 0.655506 0.368532 0
M  V30 17230 H 1656.97 2.91066 0.657513 0
M  V30 17231 C 1655.72 2.52464 2.39076 0
M  V30 17232 H 1655.04 3.36123 2.16475 0
M  V30 17233 H 1656.48 2.89829 3.09476 0
M  V30 17234 C 1654.94 1.41248 3.05861 0
M  V30 17235 O 1655.47 0.761119 3.94423 0
M  V30 17236 N 1653.67 1.1547 2.66674 0
M  V30 17237 H 1653.22 1.6862 1.94744 0
M  V30 17238 H 1653.18 0.412641 3.1168 0
M  V30 17239 N 1656.95 -0.331789 1.54068 0
M  V30 17240 C 1657.9 -1.42815 1.83593 0
M  V30 17241 C 1658.89 -1.53931 0.707231 0
M  V30 17242 O 1660.1 -1.56414 0.890763 0
M  V30 17243 H 1656.47 -0.476418 0.581833 0
M  V30 17244 H 1658.44 -1.15133 2.75294 0
M  V30 17245 C 1657.19 -2.79162 2.07277 0
M  V30 17246 H 1656.52 -2.7138 2.93586 0
M  V30 17247 H 1657.96 -3.54966 2.31895 0
M  V30 17248 C 1656.42 -3.25691 0.861816 0
M  V30 17249 O 1656.95 -4.01644 0.0670133 0
M  V30 17250 N 1655.15 -2.82634 0.675746 0
M  V30 17251 H 1654.7 -2.20988 1.32371 0
M  V30 17252 H 1654.66 -3.14119 -0.133004 0
M  V30 17253 N 1658.43 -1.46001 -0.593424 0
M  V30 17254 C 1659.84 -1.30719 -0.915678 0
M  V30 17255 C 1660.04 -0.270679 -1.99674 0
M  V30 17256 O 1659.1 0.330482 -2.50328 0
M  V30 17257 C 1660.41 -2.69034 -1.34318 0
M  V30 17258 C 1661.96 -2.77041 -1.45662 0
M  V30 17259 C 1662.44 -4.15913 -1.91783 0
M  V30 17260 N 1663.93 -4.18277 -1.98994 0
M  V30 17261 C 1664.66 -5.22612 -2.35932 0
M  V30 17262 N 1664.16 -6.37283 -2.71738 0
M  V30 17263 N 1665.95 -5.09975 -2.36394 0
M  V30 17264 H 1658.1 -2.12056 0.120882 0
M  V30 17265 H 1660.37 -0.947961 -0.00858574 0
M  V30 17266 H 1660.07 -3.4614 -0.622922 0
M  V30 17267 H 1659.95 -2.98434 -2.30688 0
M  V30 17268 H 1662.33 -2.0023 -2.16776 0
M  V30 17269 H 1662.41 -2.51338 -0.475706 0
M  V30 17270 H 1662.06 -4.93215 -1.2125 0
M  V30 17271 H 1661.99 -4.39016 -2.90813 0
M  V30 17272 H 1664.48 -3.35534 -1.73855 0
M  V30 17273 H 1664.79 -7.12679 -2.98846 0
M  V30 17274 H 1663.14 -6.40662 -2.69401 0
M  V30 17275 H 1666.33 -4.1943 -2.07836 0
M  V30 17276 H 1666.5 -5.91402 -2.64854 0
M  V30 17277 N 1659.91 0.83715 -1.33527 0
M  V30 17278 C 1661.13 1.62976 -1.28271 0
M  V30 17279 C 1661.56 1.87554 0.143201 0
M  V30 17280 O 1660.91 1.44088 1.10038 0
M  V30 17281 C 1660.96 2.95607 -2.06516 0
M  V30 17282 O 1660.07 3.87 -1.42494 0
M  V30 17283 H 1659.41 0.496212 -0.441214 0
M  V30 17284 H 1661.94 1.04137 -1.76115 0
M  V30 17285 H 1661.95 3.4529 -2.17344 0
M  V30 17286 H 1660.62 2.77041 -3.10195 0
M  V30 17287 H 1659.2 3.45492 -1.40321 0
M  V30 17288 N 1661.38 1.17024 1.05561 0
M  V30 17289 C 1662.61 0.98075 1.82178 0
M  V30 17290 C 1663.03 -0.471027 1.8283 0
M  V30 17291 O 1662.38 -1.32703 1.25284 0
M  V30 17292 C 1662.44 1.50979 3.28463 0
M  V30 17293 O 1662.16 2.90471 3.27961 0
M  V30 17294 C 1663.66 1.36436 4.21782 0
M  V30 17295 H 1660.88 0.3472 0.574189 0
M  V30 17296 H 1663.42 1.55226 1.33136 0
M  V30 17297 H 1661.58 0.980393 3.74789 0
M  V30 17298 H 1661.99 3.14847 4.19489 0
M  V30 17299 H 1663.46 1.78272 5.2242 0
M  V30 17300 H 1663.94 0.310922 4.38098 0
M  V30 17301 H 1664.55 1.88374 3.81308 0
M  V30 17302 N 1662.86 -1.24221 0.969889 0
M  V30 17303 C 1664.11 -1.92638 0.633913 0
M  V30 17304 C 1664.44 -1.75612 -0.829092 0
M  V30 17305 O 1663.72 -1.11057 -1.59677 0
M  V30 17306 C 1664 -3.45583 1.01213 0
M  V30 17307 C 1663.85 -3.71766 2.53199 0
M  V30 17308 C 1665.17 -4.36671 0.548294 0
M  V30 17309 H 1662.29 -0.699608 0.231772 0
M  V30 17310 H 1664.93 -1.46548 1.20929 0
M  V30 17311 H 1663.08 -3.8497 0.522531 0
M  V30 17312 H 1664.75 -3.41925 3.09653 0
M  V30 17313 H 1663 -3.16842 2.963 0
M  V30 17314 H 1663.67 -4.78787 2.74713 0
M  V30 17315 H 1666.14 -4.04672 0.968489 0
M  V30 17316 H 1665.02 -5.42412 0.841472 0
M  V30 17317 H 1665.28 -4.38646 -0.551588 0
M  V30 17318 N 1664.34 -0.740267 -1.39132 0
M  V30 17319 C 1665.59 -0.290523 -2.00405 0
M  V30 17320 C 1665.92 1.12383 -1.58746 0
M  V30 17321 O 1665.17 1.78148 -0.81005 0
M  V30 17322 C 1665.47 -0.346009 -3.55721 0
M  V30 17323 C 1665.14 -1.71412 -4.17048 0
M  V30 17324 C 1663.8 -2.08857 -4.33512 0
M  V30 17325 C 1666.15 -2.61216 -4.51016 0
M  V30 17326 C 1663.48 -3.35603 -4.81235 0
M  V30 17327 C 1665.83 -3.8734 -5.0015 0
M  V30 17328 C 1664.49 -4.2487 -5.14822 0
M  V30 17329 H 1663.76 -0.10631 -0.733334 0
M  V30 17330 H 1666.41 -0.948141 -1.66381 0
M  V30 17331 H 1664.72 0.395183 -3.89802 0
M  V30 17332 H 1666.41 0.020191 -4.00995 0
M  V30 17333 H 1663 -1.41301 -4.04638 0
M  V30 17334 H 1667.19 -2.33556 -4.3791 0
M  V30 17335 H 1662.44 -3.64617 -4.90779 0
M  V30 17336 H 1666.62 -4.57079 -5.25406 0
M  V30 17337 H 1664.24 -5.23147 -5.51562 0
M  V30 17338 N 1665.82 1.49844 -0.488302 0
M  V30 17339 C 1667.23 1.58954 -0.14348 0
M  V30 17340 C 1667.43 1.49482 1.3512 0
M  V30 17341 O 1666.49 1.36218 2.12605 0
M  V30 17342 C 1667.8 2.92222 -0.708991 0
M  V30 17343 C 1669.35 3.05658 -0.673957 0
M  V30 17344 C 1669.83 4.41526 -1.21731 0
M  V30 17345 N 1671.32 4.47985 -1.17746 0
M  V30 17346 C 1672.05 5.51539 -1.5682 0
M  V30 17347 N 1671.55 6.62261 -2.03426 0
M  V30 17348 N 1673.34 5.4218 -1.48315 0
M  V30 17349 H 1665.49 1.54244 -1.46022 0
M  V30 17350 H 1667.76 0.72992 -0.604914 0
M  V30 17351 H 1667.46 3.04683 -1.75674 0
M  V30 17352 H 1667.34 3.76851 -0.162226 0
M  V30 17353 H 1669.72 2.92835 0.364925 0
M  V30 17354 H 1669.8 2.22744 -1.25772 0
M  V30 17355 H 1669.45 4.551 -2.25491 0
M  V30 17356 H 1669.38 5.2306 -0.609598 0
M  V30 17357 H 1671.87 3.68541 -0.835828 0
M  V30 17358 H 1672.18 7.3736 -2.31345 0
M  V30 17359 H 1670.53 6.63335 -2.07392 0
M  V30 17360 H 1673.72 4.54569 -1.11733 0
M  V30 17361 H 1673.89 6.2276 -1.79092 0
M  V30 17362 N 1667.3 0.221601 1.56034 0
M  V30 17363 C 1668.55 -0.410442 1.9748 0
M  V30 17364 C 1668.86 -1.60895 1.1123 0
M  V30 17365 O 1670.06 -2.31052 1.42574 0
M  V30 17366 C 1668.52 -0.781624 3.5131 0
M  V30 17367 C 1668.13 0.394077 4.46263 0
M  V30 17368 C 1669.87 -1.37927 4.01468 0
M  V30 17369 C 1667.78 0.000458181 5.914 0
M  V30 17370 H 1666.71 -0.157122 0.737447 0
M  V30 17371 H 1669.36 0.317821 1.80727 0
M  V30 17372 H 1667.74 -1.56731 3.63664 0
M  V30 17373 H 1668.92 1.17161 4.45657 0
M  V30 17374 H 1667.23 0.904959 4.06447 0
M  V30 17375 H 1669.83 -1.68667 5.07401 0
M  V30 17376 H 1670.17 -2.29507 3.47322 0
M  V30 17377 H 1670.7 -0.657015 3.92337 0
M  V30 17378 H 1667.44 0.882743 6.49529 0
M  V30 17379 H 1666.96 -0.741386 5.952 0
M  V30 17380 H 1668.64 -0.42621 6.45595 0
M  V30 17381 N 1668.77 -1.57515 -0.0517878 0
M  V30 17382 C 1670.02 -1.88493 -0.748206 0
M  V30 17383 C 1670.35 -0.816494 -1.76202 0
M  V30 17384 O 1669.63 0.171075 -1.93746 0
M  V30 17385 C 1669.91 -3.30131 -1.43825 0
M  V30 17386 C 1669.76 -4.47648 -0.4395 0
M  V30 17387 C 1671.08 -3.70315 -2.37813 0
M  V30 17388 H 1668.2 -0.68555 -0.270537 0
M  V30 17389 H 1670.84 -1.89997 -0.0111457 0
M  V30 17390 H 1668.99 -3.2898 -2.06651 0
M  V30 17391 H 1670.67 -4.60929 0.185088 0
M  V30 17392 H 1668.91 -4.33117 0.243381 0
M  V30 17393 H 1669.58 -5.43582 -0.96035 0
M  V30 17394 H 1672.06 -3.72687 -1.8505 0
M  V30 17395 H 1670.93 -4.70269 -2.83087 0
M  V30 17396 H 1671.19 -3.0133 -3.23501 0
M  V30 17397 N 1670.25 0.323614 -1.54242 0
M  V30 17398 C 1671.66 0.898051 -1.63682 0
M  V30 17399 C 1672.02 1.88882 -0.530861 0
M  V30 17400 O 1671.14 2.13772 0.336245 0
M  V30 17401 C 1671.74 1.63561 -2.96704 0
M  V30 17402 C 1670.29 2.15877 -3.08341 0
M  V30 17403 C 1669.44 0.984145 -2.59249 0
M  V30 17404 H 1672.39 0.101198 -1.58377 0
M  V30 17405 H 1672.41 2.49982 -2.86861 0
M  V30 17406 H 1671.93 0.914265 -3.77177 0
M  V30 17407 H 1670.03 2.91127 -2.32542 0
M  V30 17408 H 1670.14 2.40881 -4.14141 0
M  V30 17409 H 1668.5 1.3633 -2.15143 0
M  V30 17410 H 1669.29 0.277118 -3.4218 0
M  V30 17411 N 1671.73 1.46313 0.585673 0
M  V30 17412 C 1672.68 1.56653 1.69495 0
M  V30 17413 C 1673.65 0.411007 1.60935 0
M  V30 17414 O 1674.83 0.627369 1.80191 0
M  V30 17415 C 1671.97 1.55996 3.0783 0
M  V30 17416 C 1671.09 2.82261 3.27036 0
M  V30 17417 C 1670.22 2.73129 4.55603 0
M  V30 17418 C 1669.26 3.94346 4.68143 0
M  V30 17419 N 1668.4 3.83617 5.88032 0
M  V30 17420 H 1673.24 2.51407 1.59995 0
M  V30 17421 H 1670.77 1.24729 0.779821 0
M  V30 17422 H 1672.73 1.53602 3.87895 0
M  V30 17423 H 1671.36 0.647766 3.16234 0
M  V30 17424 H 1670.41 2.94648 2.40596 0
M  V30 17425 H 1671.73 3.72107 3.32171 0
M  V30 17426 H 1670.88 2.68823 5.43893 0
M  V30 17427 H 1669.62 1.80917 4.52902 0
M  V30 17428 H 1668.62 3.98987 3.78272 0
M  V30 17429 H 1669.85 4.8765 4.72625 0
M  V30 17430 H 1667.8 2.9419 5.86334 0
M  V30 17431 H 1667.71 4.67117 5.94422 0
M  V30 17432 H 1668.98 3.83281 6.7876 0
M  V30 17433 N 1673.21 -0.830057 1.33969 0
M  V30 17434 C 1674.46 -1.58586 1.25924 0
M  V30 17435 C 1674.78 -1.93732 -0.172685 0
M  V30 17436 O 1674.04 -1.59628 -1.13214 0
M  V30 17437 C 1674.34 -2.90026 2.08853 0
M  V30 17438 C 1674 -2.74204 3.57943 0
M  V30 17439 C 1672.67 -2.69596 3.98587 0
M  V30 17440 C 1675.02 -2.58384 4.52644 0
M  V30 17441 C 1672.35 -2.4708 5.32135 0
M  V30 17442 C 1674.7 -2.37401 5.86365 0
M  V30 17443 C 1673.36 -2.31201 6.26181 0
M  V30 17444 H 1672.63 -0.580306 0.460789 0
M  V30 17445 H 1675.28 -0.960978 1.65643 0
M  V30 17446 H 1673.58 -3.56767 1.6194 0
M  V30 17447 H 1675.28 -3.47576 1.99979 0
M  V30 17448 H 1671.87 -2.78627 3.25676 0
M  V30 17449 H 1676.06 -2.60972 4.22146 0
M  V30 17450 H 1671.31 -2.40733 5.62012 0
M  V30 17451 H 1675.49 -2.24146 6.59342 0
M  V30 17452 H 1673.11 -2.13515 7.29599 0
M  V30 17453 N 1674.69 -1.17582 -1.04939 0
M  V30 17454 C 1675.63 -0.894855 -2.12746 0
M  V30 17455 C 1676.6 0.162261 -1.65306 0
M  V30 17456 O 1677.79 0.0245068 -1.90784 0
M  V30 17457 C 1674.93 -0.417085 -3.4257 0
M  V30 17458 C 1674.04 -1.53861 -4.03672 0
M  V30 17459 C 1673.18 -1.01446 -5.21423 0
M  V30 17460 C 1672.22 -2.11127 -5.74536 0
M  V30 17461 N 1671.35 -1.60169 -6.83586 0
M  V30 17462 H 1676.19 -1.81802 -2.36118 0
M  V30 17463 H 1673.73 -0.906716 -1.15832 0
M  V30 17464 H 1675.69 -0.121619 -4.17023 0
M  V30 17465 H 1674.32 0.469119 -3.19373 0
M  V30 17466 H 1673.37 -1.94975 -3.26633 0
M  V30 17467 H 1674.68 -2.36575 -4.39128 0
M  V30 17468 H 1673.84 -0.672992 -6.02956 0
M  V30 17469 H 1672.58 -0.156795 -4.87448 0
M  V30 17470 H 1671.58 -2.46128 -4.91631 0
M  V30 17471 H 1672.81 -2.97313 -6.10559 0
M  V30 17472 H 1670.75 -0.766783 -6.51503 0
M  V30 17473 H 1670.67 -2.36488 -7.18059 0
M  V30 17474 H 1671.94 -1.28923 -7.68765 0
M  V30 17475 N 1676.17 1.23705 -0.976463 0
M  V30 17476 C 1677.11 2.25023 -0.513156 0
M  V30 17477 C 1678.08 1.60003 0.445903 0
M  V30 17478 O 1679.27 1.87481 0.354323 0
M  V30 17479 C 1676.41 3.44619 0.182088 0
M  V30 17480 C 1675.52 4.24209 -0.816769 0
M  V30 17481 C 1674.66 5.31112 -0.0967355 0
M  V30 17482 C 1673.69 6.02406 -1.08507 0
M  V30 17483 N 1672.83 7.00991 -0.394455 0
M  V30 17484 H 1677.67 2.64019 -1.38194 0
M  V30 17485 H 1675.21 1.29777 -0.692566 0
M  V30 17486 H 1677.17 4.12835 0.601948 0
M  V30 17487 H 1675.8 3.06435 1.01477 0
M  V30 17488 H 1674.85 3.55448 -1.35503 0
M  V30 17489 H 1676.16 4.73445 -1.57006 0
M  V30 17490 H 1675.31 6.05504 0.380686 0
M  V30 17491 H 1674.05 4.82806 0.689187 0
M  V30 17492 H 1673.06 5.26809 -1.57328 0
M  V30 17493 H 1674.28 6.528 -1.87159 0
M  V30 17494 H 1672.23 6.54943 0.372331 0
M  V30 17495 H 1672.15 7.48152 -1.08647 0
M  V30 17496 H 1673.41 7.79476 0.0607087 0
M  V30 17497 N 1677.64 0.747635 1.38738 0
M  V30 17498 C 1678.55 0.117879 2.34304 0
M  V30 17499 C 1679.57 -0.707488 1.58967 0
M  V30 17500 O 1680.75 -0.633025 1.91193 0
M  V30 17501 C 1677.81 -0.769223 3.38059 0
M  V30 17502 C 1676.87 0.0698358 4.29243 0
M  V30 17503 C 1676.1 -0.775021 5.28043 0
M  V30 17504 O 1676.33 -2.01328 5.33688 0
M  V30 17505 O 1675.26 -0.196978 6.01578 0
M  V30 17506 H 1679.09 0.906972 2.89841 0
M  V30 17507 H 1676.67 0.508453 1.40482 0
M  V30 17508 H 1678.55 -1.27641 4.01604 0
M  V30 17509 H 1677.23 -1.53691 2.84887 0
M  V30 17510 H 1676.14 0.622836 3.68879 0
M  V30 17511 H 1677.47 0.80004 4.85654 0
M  V30 17512 N 1679.12 -1.49583 0.496242 0
M  V30 17513 C 1680.07 -2.29037 -0.284716 0
M  V30 17514 C 1681.04 -1.35217 -0.964661 0
M  V30 17515 O 1682.22 -1.64171 -0.972244 0
M  V30 17516 C 1679.36 -3.17767 -1.34603 0
M  V30 17517 C 1678.48 -4.26641 -0.67834 0
M  V30 17518 C 1677.61 -5.02594 -1.71969 0
M  V30 17519 C 1676.65 -6.0331 -1.03361 0
M  V30 17520 N 1675.79 -6.72446 -2.01894 0
M  V30 17521 H 1680.63 -2.95316 0.399084 0
M  V30 17522 H 1678.16 -1.45613 0.208653 0
M  V30 17523 H 1680.12 -3.67583 -1.97329 0
M  V30 17524 H 1678.75 -2.53483 -1.99866 0
M  V30 17525 H 1677.8 -3.80349 0.0620953 0
M  V30 17526 H 1679.12 -4.98609 -0.138028 0
M  V30 17527 H 1678.27 -5.56254 -2.42212 0
M  V30 17528 H 1677.01 -4.30388 -2.29385 0
M  V30 17529 H 1676.01 -5.48886 -0.316925 0
M  V30 17530 H 1677.24 -6.77499 -0.466009 0
M  V30 17531 H 1675.19 -6.03015 -2.58281 0
M  V30 17532 H 1675.1 -7.40373 -1.52916 0
M  V30 17533 H 1676.37 -7.30712 -2.7144 0
M  V30 17534 N 1680.6 -0.229873 -1.55915 0
M  V30 17535 C 1681.85 0.400157 -1.98813 0
M  V30 17536 C 1682.18 1.58821 -1.11756 0
M  V30 17537 O 1681.45 1.93692 -0.177094 0
M  V30 17538 C 1681.74 0.826623 -3.50484 0
M  V30 17539 C 1681.59 -0.365647 -4.48311 0
M  V30 17540 C 1682.91 1.6798 -4.06781 0
M  V30 17541 H 1680.03 0.143977 -0.7228 0
M  V30 17542 H 1682.67 -0.327775 -1.87151 0
M  V30 17543 H 1680.82 1.44687 -3.60552 0
M  V30 17544 H 1682.49 -1.00391 -4.50244 0
M  V30 17545 H 1680.73 -1.01168 -4.21838 0
M  V30 17546 H 1681.41 -0.0241816 -5.51995 0
M  V30 17547 H 1683.88 1.15639 -3.99708 0
M  V30 17548 H 1682.76 1.94708 -5.13206 0
M  V30 17549 H 1683.02 2.64594 -3.54179 0
M  V30 17550 N 1682.08 1.5754 0.0434337 0
M  V30 17551 C 1683.01 2.02385 1.07577 0
M  V30 17552 C 1684.02 0.934273 1.33324 0
M  V30 17553 O 1685.21 1.2118 1.31064 0
M  V30 17554 C 1682.31 2.3719 2.42062 0
M  V30 17555 C 1681.48 3.68351 2.35874 0
M  V30 17556 C 1680.54 3.90506 3.52692 0
M  V30 17557 O 1679.57 4.61746 3.32836 0
M  V30 17558 N 1680.77 3.35035 4.74059 0
M  V30 17559 H 1683.54 2.91563 0.693641 0
M  V30 17560 H 1681.1 1.60234 0.231631 0
M  V30 17561 H 1683.09 2.49161 3.18906 0
M  V30 17562 H 1681.66 1.53758 2.72171 0
M  V30 17563 H 1680.88 3.66869 1.44224 0
M  V30 17564 H 1682.17 4.54419 2.28868 0
M  V30 17565 H 1681.57 2.77264 4.93094 0
M  V30 17566 H 1680.12 3.52409 5.48317 0
M  V30 17567 N 1683.56 -0.31543 1.54411 0
M  V30 17568 C 1684.5 -1.3885 1.84362 0
M  V30 17569 C 1685.47 -1.51028 0.69135 0
M  V30 17570 O 1686.66 -1.66119 0.938577 0
M  V30 17571 C 1683.8 -2.75085 2.0838 0
M  V30 17572 C 1682.91 -2.71473 3.36045 0
M  V30 17573 C 1682.05 -3.99608 3.49981 0
M  V30 17574 C 1681.08 -3.90335 4.71492 0
M  V30 17575 N 1680.22 -5.10216 4.82311 0
M  V30 17576 H 1685.06 -1.12609 2.75905 0
M  V30 17577 H 1682.6 -0.54495 1.36633 0
M  V30 17578 H 1684.56 -3.54295 2.20298 0
M  V30 17579 H 1683.19 -2.99618 1.2012 0
M  V30 17580 H 1682.24 -1.84209 3.32823 0
M  V30 17581 H 1683.55 -2.60507 4.25368 0
M  V30 17582 H 1682.7 -4.8725 3.61486 0
M  V30 17583 H 1681.44 -4.1339 2.58766 0
M  V30 17584 H 1680.45 -3.01077 4.60036 0
M  V30 17585 H 1681.67 -3.78111 5.641 0
M  V30 17586 H 1679.62 -5.24489 3.94014 0
M  V30 17587 H 1679.54 -5.01617 5.65612 0
M  V30 17588 H 1680.8 -5.99551 4.98156 0
M  V30 17589 N 1685.03 -1.46622 -0.577906 0
M  V30 17590 C 1685.97 -1.53587 -1.70128 0
M  V30 17591 C 1686.98 -0.423789 -1.57187 0
M  V30 17592 O 1688.17 -0.692392 -1.64524 0
M  V30 17593 C 1685.27 -1.40459 -3.08422 0
M  V30 17594 C 1684.44 -2.65872 -3.47319 0
M  V30 17595 C 1683.5 -2.46875 -4.64693 0
M  V30 17596 O 1682.53 -3.20617 -4.70312 0
M  V30 17597 N 1683.73 -1.53352 -5.59878 0
M  V30 17598 H 1686.49 -2.50449 -1.64606 0
M  V30 17599 H 1684.05 -1.42739 -0.764014 0
M  V30 17600 H 1686.05 -1.25516 -3.84744 0
M  V30 17601 H 1684.62 -0.517603 -3.08285 0
M  V30 17602 H 1683.84 -2.95724 -2.60655 0
M  V30 17603 H 1685.12 -3.49173 -3.70075 0
M  V30 17604 H 1684.52 -0.925526 -5.58078 0
M  V30 17605 H 1683.08 -1.4437 -6.3561 0
M  V30 17606 N 1686.51 0.822941 -1.34408 0
M  V30 17607 C 1687.46 1.93383 -1.25982 0
M  V30 17608 C 1688.43 1.6555 -0.13506 0
M  V30 17609 O 1689.61 1.88164 -0.316033 0
M  V30 17610 C 1686.75 3.29646 -1.02117 0
M  V30 17611 C 1685.87 3.69772 -2.23366 0
M  V30 17612 C 1685 4.94982 -1.92784 0
M  V30 17613 C 1684.04 5.2769 -3.10177 0
M  V30 17614 N 1683.18 6.44078 -2.79479 0
M  V30 17615 H 1688.02 1.99922 -2.20987 0
M  V30 17616 H 1685.56 0.978105 -1.0987 0
M  V30 17617 H 1687.51 4.08173 -0.863175 0
M  V30 17618 H 1686.14 3.2262 -0.107803 0
M  V30 17619 H 1685.2 2.86637 -2.50086 0
M  V30 17620 H 1686.51 3.89914 -3.11076 0
M  V30 17621 H 1685.66 5.81297 -1.73721 0
M  V30 17622 H 1684.4 4.76843 -1.02335 0
M  V30 17623 H 1683.41 4.39873 -3.29837 0
M  V30 17624 H 1684.63 5.47769 -4.01405 0
M  V30 17625 H 1682.58 6.27394 -1.91605 0
M  V30 17626 H 1682.49 6.64392 -3.60721 0
M  V30 17627 H 1683.76 7.33462 -2.63919 0
M  V30 17628 N 1687.99 1.18137 1.04314 0
M  V30 17629 C 1689.22 1.00002 1.81128 0
M  V30 17630 C 1689.63 -0.451609 1.83319 0
M  V30 17631 O 1688.99 -1.31367 1.26685 0
M  V30 17632 C 1689.04 1.54454 3.26843 0
M  V30 17633 O 1688.76 2.93933 3.24861 0
M  V30 17634 C 1690.26 1.40902 4.20311 0
M  V30 17635 H 1687.48 0.35327 0.570475 0
M  V30 17636 H 1690.03 1.56629 1.31482 0
M  V30 17637 H 1688.18 1.02009 3.73728 0
M  V30 17638 H 1688.6 3.19279 4.16127 0
M  V30 17639 H 1690.07 1.83803 5.205 0
M  V30 17640 H 1690.55 0.357371 4.37744 0
M  V30 17641 H 1691.15 1.92407 3.79288 0
M  V30 17642 N 1689.47 -1.23186 0.98301 0
M  V30 17643 C 1690.69 -1.96242 0.671114 0
M  V30 17644 C 1691.12 -1.72248 -0.755792 0
M  V30 17645 O 1690.48 -0.995555 -1.5152 0
M  V30 17646 C 1690.52 -3.47293 0.970571 0
M  V30 17647 O 1689.63 -4.1235 0.0639814 0
M  V30 17648 H 1688.97 -0.614262 0.252147 0
M  V30 17649 H 1691.5 -1.56551 1.31731 0
M  V30 17650 H 1691.51 -3.9776 0.908345 0
M  V30 17651 H 1690.18 -3.64083 2.01039 0
M  V30 17652 H 1688.76 -3.72461 0.180842 0
M  V30 17653 N 1690.95 -0.754982 -1.38339 0
M  V30 17654 C 1692.17 -0.321355 -2.04895 0
M  V30 17655 C 1692.6 1.04249 -1.56569 0
M  V30 17656 O 1691.95 1.66464 -0.718299 0
M  V30 17657 C 1692 -0.354873 -3.5885 0
M  V30 17658 O 1691.11 0.65063 -4.07235 0
M  V30 17659 H 1690.45 -0.142033 -0.648631 0
M  V30 17660 H 1692.98 -1.02649 -1.76987 0
M  V30 17661 H 1692.99 -0.206243 -4.07478 0
M  V30 17662 H 1691.66 -1.34994 -3.93382 0
M  V30 17663 H 1690.24 0.466498 -3.69971 0
M  V30 17664 N 1692.42 1.49318 -0.504168 0
M  V30 17665 C 1693.36 2.27103 0.309327 0
M  V30 17666 C 1694.37 1.33776 0.927781 0
M  V30 17667 O 1695.56 1.59034 0.810585 0
M  V30 17668 C 1692.66 3.06277 1.45078 0
M  V30 17669 C 1691.83 4.27201 0.939045 0
M  V30 17670 C 1690.89 4.88395 1.95849 0
M  V30 17671 O 1689.92 5.4837 1.52576 0
M  V30 17672 N 1691.12 4.78328 3.28911 0
M  V30 17673 H 1693.88 2.97558 -0.35767 0
M  V30 17674 H 1691.44 1.58356 -0.336907 0
M  V30 17675 H 1693.44 3.44088 2.13038 0
M  V30 17676 H 1692.01 2.38409 2.02188 0
M  V30 17677 H 1691.23 3.9411 0.0842433 0
M  V30 17678 H 1692.51 5.05534 0.575603 0
M  V30 17679 H 1691.91 4.30707 3.66753 0
M  V30 17680 H 1690.47 5.20315 3.92576 0
M  V30 17681 N 1693.9 0.238138 1.5579 0
M  V30 17682 C 1695.31 -0.266656 1.84786 0
M  V30 17683 C 1695.66 -1.58248 1.15983 0
M  V30 17684 O 1694.79 -2.11979 0.43518 0
M  V30 17685 C 1695.38 -0.4906 3.35229 0
M  V30 17686 C 1693.94 -0.939672 3.64482 0
M  V30 17687 C 1693.09 -0.0119682 2.77297 0
M  V30 17688 H 1696.04 0.460924 1.51859 0
M  V30 17689 H 1696.06 -1.3344 3.56334 0
M  V30 17690 H 1695.57 0.467239 3.85277 0
M  V30 17691 H 1693.68 -1.91029 3.19904 0
M  V30 17692 H 1693.79 -0.8026 4.72329 0
M  V30 17693 H 1692.15 -0.521767 2.49298 0
M  V30 17694 H 1692.94 0.941085 3.30149 0
M  V30 17695 N 1695.38 -1.57561 -0.0350783 0
M  V30 17696 C 1696.63 -1.89276 -0.728172 0
M  V30 17697 C 1696.96 -0.835137 -1.75326 0
M  V30 17698 O 1696.23 0.150516 -1.93917 0
M  V30 17699 C 1696.52 -3.31638 -1.40316 0
M  V30 17700 C 1696.37 -4.48089 -0.391996 0
M  V30 17701 C 1697.69 -3.72816 -2.33872 0
M  V30 17702 H 1694.81 -0.688381 -0.26325 0
M  V30 17703 H 1697.45 -1.89998 0.00900661 0
M  V30 17704 H 1695.6 -3.31153 -2.0315 0
M  V30 17705 H 1697.27 -4.60706 0.233965 0
M  V30 17706 H 1695.52 -4.32834 0.289305 0
M  V30 17707 H 1696.19 -5.4457 -0.902641 0
M  V30 17708 H 1698.66 -3.74629 -1.81086 0
M  V30 17709 H 1697.54 -4.73245 -2.78084 0
M  V30 17710 H 1697.8 -3.04744 -3.20287 0
M  V30 17711 N 1696.86 0.307236 -1.54576 0
M  V30 17712 C 1697.79 1.40019 -1.81459 0
M  V30 17713 C 1698.8 1.47113 -0.697246 0
M  V30 17714 O 1699.99 1.49544 -0.974626 0
M  V30 17715 C 1697.09 2.78439 -1.93197 0
M  V30 17716 C 1696.27 2.94353 -3.23536 0
M  V30 17717 C 1695.32 4.13232 -3.25769 0
M  V30 17718 O 1694.35 4.05614 -3.99331 0
M  V30 17719 N 1695.55 5.23567 -2.50715 0
M  V30 17720 H 1698.32 1.17317 -2.75784 0
M  V30 17721 H 1695.88 0.497286 -1.54074 0
M  V30 17722 H 1697.87 3.56202 -1.921 0
M  V30 17723 H 1696.44 2.94117 -1.05895 0
M  V30 17724 H 1695.66 2.03754 -3.37458 0
M  V30 17725 H 1696.95 3.01892 -4.09559 0
M  V30 17726 H 1696.35 5.32635 -1.90569 0
M  V30 17727 H 1694.9 5.99687 -2.55379 0
M  V30 17728 N 1698.34 1.46926 0.570122 0
M  V30 17729 C 1699.28 1.58442 1.67824 0
M  V30 17730 C 1700.25 0.428053 1.6049 0
M  V30 17731 O 1701.44 0.646445 1.79515 0
M  V30 17732 C 1698.58 1.59253 3.06158 0
M  V30 17733 C 1697.69 2.85714 3.24024 0
M  V30 17734 C 1696.83 2.77945 4.52681 0
M  V30 17735 C 1695.87 3.99289 4.63934 0
M  V30 17736 N 1695 3.89833 5.83931 0
M  V30 17737 H 1699.84 2.5309 1.5732 0
M  V30 17738 H 1697.38 1.25549 0.766548 0
M  V30 17739 H 1699.34 1.57707 3.86244 0
M  V30 17740 H 1697.97 0.68127 3.15529 0
M  V30 17741 H 1697.02 2.97184 2.37458 0
M  V30 17742 H 1698.33 3.7561 3.28206 0
M  V30 17743 H 1697.49 2.74576 5.41011 0
M  V30 17744 H 1696.22 1.85711 4.50958 0
M  V30 17745 H 1695.23 4.02976 3.74019 0
M  V30 17746 H 1696.45 4.92635 4.67427 0
M  V30 17747 H 1694.4 3.00393 5.83181 0
M  V30 17748 H 1694.32 4.73395 5.89434 0
M  V30 17749 H 1695.59 3.90459 6.74657 0
M  V30 17750 N 1699.82 -0.815801 1.34842 0
M  V30 17751 C 1701.06 -1.57426 1.28797 0
M  V30 17752 C 1701.42 -1.91897 -0.138973 0
M  V30 17753 O 1700.71 -1.57777 -1.08706 0
M  V30 17754 C 1700.9 -2.87795 2.11917 0
M  V30 17755 C 1700.73 -2.6606 3.62549 0
M  V30 17756 C 1699.5 -2.62428 4.3181 0
M  V30 17757 C 1701.7 -2.37078 4.56397 0
M  V30 17758 N 1699.68 -2.32313 5.68246 0
M  V30 17759 C 1701.05 -2.16721 5.80889 0
M  V30 17760 C 1703.11 -2.22865 4.45237 0
M  V30 17761 C 1701.81 -1.8359 6.95476 0
M  V30 17762 C 1703.84 -1.9113 5.59663 0
M  V30 17763 C 1703.2 -1.71602 6.83178 0
M  V30 17764 H 1699.3 -0.578164 0.526545 0
M  V30 17765 H 1701.88 -0.955728 1.69629 0
M  V30 17766 H 1700.05 -3.47559 1.7337 0
M  V30 17767 H 1701.79 -3.53258 1.97461 0
M  V30 17768 H 1698.54 -2.76753 3.84324 0
M  V30 17769 H 1698.96 -2.20076 6.40231 0
M  V30 17770 H 1703.61 -2.36665 3.50357 0
M  V30 17771 H 1701.32 -1.68528 7.90332 0
M  V30 17772 H 1704.91 -1.80854 5.52976 0
M  V30 17773 H 1703.79 -1.47403 7.70222 0
M  V30 17774 N 1701.29 -1.18689 -1.03686 0
M  V30 17775 C 1702.54 -0.982656 -1.76602 0
M  V30 17776 C 1702.86 0.488553 -1.88781 0
M  V30 17777 O 1702.13 1.35419 -1.41558 0
M  V30 17778 H 1700.71 -0.360595 -0.654202 0
M  V30 17779 H 1703.37 -1.49439 -1.25115 0
M  V30 17780 H 1702.47 -1.42392 -2.77725 0
M  V30 17781 N 1702.77 1.22662 -0.989529 0
M  V30 17782 C 1704 1.95343 -0.681822 0
M  V30 17783 C 1704.41 1.73139 0.752889 0
M  V30 17784 O 1703.77 1.02838 1.50766 0
M  V30 17785 C 1703.82 3.4813 -0.974049 0
M  V30 17786 O 1703.54 3.69587 -2.35238 0
M  V30 17787 C 1705.04 4.37998 -0.683571 0
M  V30 17788 H 1702.26 0.621675 -0.252509 0
M  V30 17789 H 1704.81 1.55906 -1.32339 0
M  V30 17790 H 1702.96 3.85548 -0.378344 0
M  V30 17791 H 1703.38 4.63812 -2.44906 0
M  V30 17792 H 1704.85 5.43966 -0.938338 0
M  V30 17793 H 1705.33 4.37532 0.382417 0
M  V30 17794 H 1705.93 4.06202 -1.26017 0
M  V30 17795 N 1704.25 0.762308 1.37937 0
M  V30 17796 C 1705.16 0.142724 2.34165 0
M  V30 17797 C 1706.18 -0.690588 1.59709 0
M  V30 17798 O 1707.35 -0.61271 1.91854 0
M  V30 17799 C 1704.42 -0.733325 3.38856 0
M  V30 17800 C 1703.48 0.115359 4.29145 0
M  V30 17801 C 1702.71 -0.718972 5.28835 0
M  V30 17802 O 1702.93 -1.95656 5.35794 0
M  V30 17803 O 1701.87 -0.133162 6.01753 0
M  V30 17804 H 1705.69 0.937662 2.88863 0
M  V30 17805 H 1703.28 0.523325 1.39935 0
M  V30 17806 H 1705.16 -1.23374 4.02935 0
M  V30 17807 H 1703.84 -1.50661 2.86501 0
M  V30 17808 H 1702.74 0.661926 3.68197 0
M  V30 17809 H 1704.08 0.851505 4.84779 0
M  V30 17810 N 1705.73 -1.49049 0.51208 0
M  V30 17811 C 1706.64 -2.33102 -0.264695 0
M  V30 17812 C 1707.65 -1.45347 -0.956571 0
M  V30 17813 O 1708.83 -1.78355 -0.935501 0
M  V30 17814 C 1705.89 -3.21051 -1.30871 0
M  V30 17815 C 1704.96 -4.24666 -0.629094 0
M  V30 17816 C 1704.19 -5.08412 -1.62337 0
M  V30 17817 O 1704.41 -4.93847 -2.85432 0
M  V30 17818 O 1703.35 -5.90368 -1.17259 0
M  V30 17819 H 1707.17 -3.00732 0.423585 0
M  V30 17820 H 1704.76 -1.4688 0.273246 0
M  V30 17821 H 1706.64 -3.75503 -1.91248 0
M  V30 17822 H 1705.31 -2.56103 -1.97972 0
M  V30 17823 H 1704.22 -3.74097 0.0147056 0
M  V30 17824 H 1705.55 -4.922 -0.000339859 0
M  V30 17825 N 1707.21 -0.246397 -1.55662 0
M  V30 17826 C 1708.45 0.379047 -1.99226 0
M  V30 17827 C 1708.78 1.57627 -1.13434 0
M  V30 17828 O 1708.06 1.93493 -0.197627 0
M  V30 17829 C 1708.34 0.789403 -3.51341 0
M  V30 17830 C 1708.2 -0.413176 -4.47898 0
M  V30 17831 C 1709.51 1.63656 -4.0854 0
M  V30 17832 H 1706.63 0.136302 -0.724286 0
M  V30 17833 H 1709.28 -0.347607 -1.86793 0
M  V30 17834 H 1707.43 1.40854 -3.62067 0
M  V30 17835 H 1709.1 -1.0516 -4.49154 0
M  V30 17836 H 1707.34 -1.05636 -4.20741 0
M  V30 17837 H 1708.01 -0.0827267 -5.51938 0
M  V30 17838 H 1710.49 1.11393 -4.00912 0
M  V30 17839 H 1709.36 1.89254 -5.15242 0
M  V30 17840 H 1709.62 2.60823 -3.56965 0
M  V30 17841 N 1708.68 1.57577 0.026722 0
M  V30 17842 C 1709.65 2.05684 1.01127 0
M  V30 17843 C 1710.65 0.961373 1.28896 0
M  V30 17844 O 1711.84 1.22491 1.23861 0
M  V30 17845 C 1708.97 2.47576 2.34348 0
M  V30 17846 H 1710.16 2.93925 0.595681 0
M  V30 17847 H 1707.71 1.53887 0.273603 0
M  V30 17848 H 1708.45 1.62498 2.80651 0
M  V30 17849 H 1708.23 3.27556 2.15521 0
M  V30 17850 H 1709.72 2.85214 3.05029 0
M  V30 17851 N 1710.16 -0.299034 1.54737 0
M  V30 17852 C 1711.12 -1.35199 1.85078 0
M  V30 17853 C 1712.12 -1.4359 0.723788 0
M  V30 17854 O 1713.31 -1.43191 0.992067 0
M  V30 17855 C 1710.45 -2.73659 2.03282 0
M  V30 17856 H 1711.64 -1.09538 2.7918 0
M  V30 17857 H 1709.19 -0.535803 1.46829 0
M  V30 17858 H 1709.93 -3.04539 1.11475 0
M  V30 17859 H 1709.71 -2.68959 2.85313 0
M  V30 17860 H 1711.2 -3.49787 2.28119 0
M  V30 17861 N 1711.64 -1.47227 -0.562322 0
M  V30 17862 C 1712.89 -1.54801 -1.31941 0
M  V30 17863 C 1713.24 -0.205385 -1.91301 0
M  V30 17864 O 1712.53 0.788343 -1.7463 0
M  V30 17865 C 1712.73 -2.59832 -2.45402 0
M  V30 17866 C 1712.56 -4.04176 -1.97159 0
M  V30 17867 C 1711.33 -4.71679 -1.81236 0
M  V30 17868 C 1713.52 -4.91353 -1.51909 0
M  V30 17869 N 1711.51 -6.00561 -1.27279 0
M  V30 17870 C 1712.88 -6.10221 -1.09683 0
M  V30 17871 C 1714.93 -4.77837 -1.39914 0
M  V30 17872 C 1713.64 -7.17065 -0.566536 0
M  V30 17873 C 1715.66 -5.84773 -0.882863 0
M  V30 17874 C 1715.02 -7.02827 -0.470497 0
M  V30 17875 H 1711.12 -0.621189 -0.475024 0
M  V30 17876 H 1713.71 -1.83951 -0.637987 0
M  V30 17877 H 1711.88 -2.32559 -3.1108 0
M  V30 17878 H 1713.61 -2.5728 -3.12393 0
M  V30 17879 H 1710.36 -4.27508 -2.03798 0
M  V30 17880 H 1710.79 -6.6921 -1.02404 0
M  V30 17881 H 1715.43 -3.86938 -1.70408 0
M  V30 17882 H 1713.15 -8.07716 -0.249209 0
M  V30 17883 H 1716.73 -5.76361 -0.793674 0
M  V30 17884 H 1715.61 -7.84162 -0.0771934 0
M  V30 17885 N 1713.12 0.808639 -1.35273 0
M  V30 17886 C 1714.05 1.93502 -1.30687 0
M  V30 17887 C 1715.03 1.69127 -0.181675 0
M  V30 17888 O 1716.21 1.90519 -0.376312 0
M  V30 17889 C 1713.34 3.30211 -1.07602 0
M  V30 17890 C 1712.3 3.69063 -2.16741 0
M  V30 17891 C 1711.62 5.03911 -1.78824 0
M  V30 17892 C 1712.92 3.79656 -3.5869 0
M  V30 17893 H 1714.62 1.97597 -2.24935 0
M  V30 17894 H 1712.16 0.949284 -1.0828 0
M  V30 17895 H 1714.12 4.0861 -1.03034 0
M  V30 17896 H 1712.84 3.26453 -0.0979944 0
M  V30 17897 H 1711.5 2.92948 -2.20402 0
M  V30 17898 H 1711.15 4.96655 -0.796449 0
M  V30 17899 H 1710.85 5.30877 -2.51881 0
M  V30 17900 H 1712.37 5.84752 -1.75777 0
M  V30 17901 H 1713.79 4.48292 -3.57362 0
M  V30 17902 H 1712.18 4.1809 -4.30489 0
M  V30 17903 H 1713.25 2.81265 -3.94991 0
M  V30 17904 N 1714.6 1.19237 1.03055 0
M  V30 17905 C 1715.87 0.903353 1.7349 0
M  V30 17906 C 1716.25 -0.591365 2.02648 0
M  V30 17907 O 1715.6 -1.54906 1.67978 0
M  V30 17908 C 1715.81 1.7615 3.01284 0
M  V30 17909 C 1717.16 1.99477 3.74825 0
M  V30 17910 O 1718.18 1.73287 3.11207 0
M  V30 17911 O 1717.04 2.43628 4.89191 0
M  V30 17912 H 1714.14 0.336512 0.755439 0
M  V30 17913 H 1716.68 1.30041 1.09029 0
M  V30 17914 H 1715.45 2.77428 2.75952 0
M  V30 17915 H 1715.08 1.36361 3.73486 0
M  V30 17916 N 1716.07 -1.22136 0.99602 0
M  V30 17917 C 1717 -2.26463 0.568909 0
M  V30 17918 C 1717.99 -1.65189 -0.405783 0
M  V30 17919 O 1719.17 -1.91935 -0.295735 0
M  V30 17920 C 1716.3 -3.47112 -0.114166 0
M  V30 17921 C 1715.25 -4.20844 0.779387 0
M  V30 17922 C 1714.58 -5.34687 -0.0367787 0
M  V30 17923 C 1715.88 -4.79195 2.07773 0
M  V30 17924 H 1717.57 -2.62443 1.44097 0
M  V30 17925 H 1715.12 -1.26156 0.694314 0
M  V30 17926 H 1717.07 -4.19258 -0.424381 0
M  V30 17927 H 1715.8 -3.10238 -1.02079 0
M  V30 17928 H 1714.46 -3.50537 1.07329 0
M  V30 17929 H 1714.1 -4.94054 -0.94442 0
M  V30 17930 H 1713.8 -5.84944 0.558092 0
M  V30 17931 H 1715.33 -6.09647 -0.341016 0
M  V30 17932 H 1716.74 -5.43266 1.83126 0
M  V30 17933 H 1715.14 -5.39803 2.62169 0
M  V30 17934 H 1716.21 -3.99073 2.75442 0
M  V30 17935 N 1717.55 -0.769612 -1.37531 0
M  V30 17936 C 1718.48 -0.168389 -2.32892 0
M  V30 17937 C 1719.46 0.685549 -1.55673 0
M  V30 17938 O 1720.65 0.62345 -1.8392 0
M  V30 17939 C 1717.78 0.713183 -3.39898 0
M  V30 17940 C 1716.73 -0.0392808 -4.27982 0
M  V30 17941 C 1716.06 0.961596 -5.25982 0
M  V30 17942 C 1717.36 -1.21704 -5.07923 0
M  V30 17943 H 1719.05 -0.965022 -2.83421 0
M  V30 17944 H 1716.6 -0.465502 -1.36268 0
M  V30 17945 H 1718.55 1.14358 -4.05586 0
M  V30 17946 H 1717.28 1.54231 -2.87889 0
M  V30 17947 H 1715.93 -0.450429 -3.63822 0
M  V30 17948 H 1715.58 1.78522 -4.70254 0
M  V30 17949 H 1715.28 0.462679 -5.85776 0
M  V30 17950 H 1716.81 1.39097 -5.94545 0
M  V30 17951 H 1718.22 -0.863405 -5.66761 0
M  V30 17952 H 1716.62 -1.6479 -5.77031 0
M  V30 17953 H 1717.69 -2.02219 -4.40722 0
M  V30 17954 N 1719.03 1.48775 -0.519977 0
M  V30 17955 C 1719.98 2.31123 0.261738 0
M  V30 17956 C 1720.97 1.40595 0.94496 0
M  V30 17957 O 1722.18 1.57552 0.870484 0
M  V30 17958 H 1718.55 0.744875 0.103272 0
M  V30 17959 H 1720.52 2.94949 -0.452514 0
M  V30 17960 C 1719.27 3.22409 1.30184 0
M  V30 17961 H 1718.6 3.92007 0.785524 0
M  V30 17962 H 1720.04 3.82932 1.82042 0
M  V30 17963 C 1718.5 2.43321 2.33016 0
M  V30 17964 O 1719.03 2.15087 3.39265 0
M  V30 17965 N 1717.23 2.04998 2.05971 0
M  V30 17966 H 1716.78 2.2816 1.19586 0
M  V30 17967 H 1716.74 1.52393 2.74998 0
M  V30 17968 N 1720.51 0.254649 1.55529 0
M  V30 17969 C 1721.44 -0.635656 2.24681 0
M  V30 17970 C 1722.42 -1.17519 1.22977 0
M  V30 17971 O 1723.6 -1.21311 1.51649 0
M  V30 17972 C 1720.73 -1.82922 2.95224 0
M  V30 17973 C 1719.69 -1.42212 4.03683 0
M  V30 17974 C 1719.01 -2.69713 4.61691 0
M  V30 17975 C 1720.31 -0.587436 5.18986 0
M  V30 17976 H 1722.01 -0.0590063 2.99342 0
M  V30 17977 H 1719.55 -0.02694 1.43975 0
M  V30 17978 H 1721.51 -2.45777 3.42304 0
M  V30 17979 H 1720.23 -2.43137 2.18064 0
M  V30 17980 H 1718.89 -0.81687 3.57383 0
M  V30 17981 H 1718.54 -3.28143 3.81223 0
M  V30 17982 H 1718.24 -2.43194 5.34911 0
M  V30 17983 H 1719.76 -3.33453 5.11509 0
M  V30 17984 H 1721.18 -1.12048 5.62244 0
M  V30 17985 H 1719.57 -0.417988 5.98643 0
M  V30 17986 H 1720.64 0.398577 4.83259 0
M  V30 17987 N 1721.99 -1.57589 -0.0183649 0
M  V30 17988 C 1723.23 -1.89382 -0.705612 0
M  V30 17989 C 1723.56 -0.853698 -1.7532 0
M  V30 17990 O 1722.83 0.111322 -1.95583 0
M  V30 17991 H 1721.41 -0.698943 -0.263605 0
M  V30 17992 H 1724.07 -1.94891 0.0182168 0
M  V30 17993 H 1723.16 -2.88587 -1.18845 0
M  V30 17994 N 1723.46 0.290824 -1.54893 0
M  V30 17995 C 1724.37 1.38137 -1.89619 0
M  V30 17996 C 1725.39 1.54959 -0.791432 0
M  V30 17997 O 1726.57 1.69428 -1.08885 0
M  V30 17998 C 1723.63 2.72353 -2.14534 0
M  V30 17999 C 1722.69 2.64429 -3.38195 0
M  V30 18000 C 1721.93 3.92244 -3.61912 0
M  V30 18001 O 1722.15 4.92088 -2.88454 0
M  V30 18002 O 1721.08 3.93523 -4.55438 0
M  V30 18003 H 1724.91 1.11688 -2.82417 0
M  V30 18004 H 1722.49 0.487789 -1.41213 0
M  V30 18005 H 1724.38 3.51745 -2.32064 0
M  V30 18006 H 1723.05 2.98624 -1.24921 0
M  V30 18007 H 1721.96 1.83474 -3.26018 0
M  V30 18008 H 1723.29 2.43109 -4.2797 0
M  V30 18009 N 1724.94 1.47523 0.554506 0
M  V30 18010 C 1726.17 1.57678 1.33496 0
M  V30 18011 C 1726.58 0.226976 1.87834 0
M  V30 18012 O 1725.92 -0.790327 1.6583 0
M  V30 18013 C 1725.99 2.54423 2.53987 0
M  V30 18014 C 1725.65 4.00056 2.20916 0
M  V30 18015 C 1726.65 4.88462 1.78048 0
M  V30 18016 C 1724.33 4.45412 2.32192 0
M  V30 18017 C 1726.33 6.20244 1.46889 0
M  V30 18018 C 1724.01 5.77221 2.00646 0
M  V30 18019 C 1725.01 6.64459 1.58062 0
M  V30 18020 O 1724.7 7.93818 1.26917 0
M  V30 18021 H 1724.43 0.535053 0.413152 0
M  V30 18022 H 1726.98 1.93878 0.678279 0
M  V30 18023 H 1725.21 2.13296 3.22555 0
M  V30 18024 H 1726.9 2.54676 3.16061 0
M  V30 18025 H 1727.67 4.54667 1.68827 0
M  V30 18026 H 1723.55 3.77715 2.64296 0
M  V30 18027 H 1727.09 6.88292 1.13578 0
M  V30 18028 H 1722.99 6.10557 2.095 0
M  V30 18029 H 1723.76 8.06347 1.40525 0
M  V30 18030 N 1726.42 -0.801453 1.357 0
M  V30 18031 C 1727.37 -1.91355 1.29043 0
M  V30 18032 C 1728.34 -1.65314 0.161381 0
M  V30 18033 O 1729.52 -1.87638 0.345928 0
M  V30 18034 C 1726.66 -3.27979 1.07348 0
M  V30 18035 C 1725.78 -3.66172 2.29221 0
M  V30 18036 C 1724.91 -4.91853 2.00635 0
M  V30 18037 C 1723.95 -5.22688 3.18533 0
M  V30 18038 N 1723.09 -6.3955 2.8969 0
M  V30 18039 H 1727.93 -1.96381 2.24139 0
M  V30 18040 H 1725.46 -0.960502 1.11413 0
M  V30 18041 H 1727.42 -4.06748 0.928002 0
M  V30 18042 H 1726.05 -3.22408 0.159115 0
M  V30 18043 H 1725.1 -2.82623 2.54615 0
M  V30 18044 H 1726.42 -3.84916 3.1724 0
M  V30 18045 H 1725.57 -5.78459 1.82947 0
M  V30 18046 H 1724.31 -4.75154 1.09908 0
M  V30 18047 H 1723.31 -4.34569 3.36793 0
M  V30 18048 H 1724.54 -5.41313 4.10069 0
M  V30 18049 H 1722.48 -6.24266 2.01562 0
M  V30 18050 H 1722.4 -6.58569 3.71245 0
M  V30 18051 H 1723.67 -7.29171 2.75555 0
M  V30 18052 N 1727.9 -1.19782 -1.02421 0
M  V30 18053 C 1729.18 -0.912541 -1.73009 0
M  V30 18054 C 1729.56 0.58061 -2.02958 0
M  V30 18055 O 1728.9 1.54013 -1.68797 0
M  V30 18056 C 1729.11 -1.77745 -3.00346 0
M  V30 18057 C 1730.46 -2.01462 -3.73762 0
M  V30 18058 O 1731.49 -1.74935 -3.10284 0
M  V30 18059 O 1730.34 -2.46219 -4.87892 0
M  V30 18060 H 1727.44 -0.340513 -0.753644 0
M  V30 18061 H 1729.98 -1.30618 -1.08338 0
M  V30 18062 H 1728.76 -2.78887 -2.74477 0
M  V30 18063 H 1728.38 -1.38339 -3.72757 0
M  V30 18064 N 1729.38 1.21606 -1.00248 0
M  V30 18065 C 1730.63 1.89922 -0.679152 0
M  V30 18066 C 1730.94 1.78793 0.793246 0
M  V30 18067 O 1732.15 2.42113 1.22856 0
M  V30 18068 C 1730.6 3.40548 -1.16427 0
M  V30 18069 C 1730.21 3.60293 -2.66257 0
M  V30 18070 C 1731.95 4.14506 -0.915714 0
M  V30 18071 C 1729.86 5.04669 -3.08323 0
M  V30 18072 H 1728.79 0.711232 -0.250329 0
M  V30 18073 H 1731.44 1.37663 -1.21331 0
M  V30 18074 H 1729.82 3.92046 -0.558177 0
M  V30 18075 H 1731 3.19245 -3.32294 0
M  V30 18076 H 1729.31 2.99683 -2.891 0
M  V30 18077 H 1731.91 5.20932 -1.20558 0
M  V30 18078 H 1732.25 4.16037 0.148068 0
M  V30 18079 H 1732.79 3.69064 -1.48448 0
M  V30 18080 H 1729.52 5.08284 -4.13917 0
M  V30 18081 H 1729.04 5.46583 -2.46996 0
M  V30 18082 H 1730.72 5.7316 -3.00162 0
M  V30 18083 N 1730.86 0.776895 1.37121 0
M  V30 18084 C 1732.1 0.343555 1.99564 0
M  V30 18085 C 1732.43 -1.08134 1.6167 0
M  V30 18086 O 1731.69 -1.75938 0.856998 0
M  V30 18087 C 1731.98 0.440201 3.54679 0
M  V30 18088 C 1731.65 1.82409 4.12356 0
M  V30 18089 C 1730.31 2.20277 4.27822 0
M  V30 18090 C 1732.66 2.73082 4.43932 0
M  V30 18091 C 1729.99 3.48244 4.72168 0
M  V30 18092 C 1732.34 4.00465 4.89705 0
M  V30 18093 C 1731.01 4.38371 5.03376 0
M  V30 18094 H 1730.28 0.125716 0.730258 0
M  V30 18095 H 1732.93 0.991921 1.63808 0
M  V30 18096 H 1731.23 -0.291695 3.90713 0
M  V30 18097 H 1732.93 0.0861328 4.00907 0
M  V30 18098 H 1729.52 1.5198 4.0075 0
M  V30 18099 H 1733.7 2.45085 4.31564 0
M  V30 18100 H 1728.96 3.77501 4.80939 0
M  V30 18101 H 1733.13 4.70849 5.13103 0
M  V30 18102 H 1730.76 5.37587 5.37498 0
M  V30 18103 N 1732.33 -1.48497 0.527859 0
M  V30 18104 C 1733.58 -2.01698 -0.00900086 0
M  V30 18105 C 1733.9 -1.4104 -1.35525 0
M  V30 18106 O 1735.1 -1.85726 -1.98035 0
M  V30 18107 C 1733.56 -3.59839 -0.0664428 0
M  V30 18108 C 1733.17 -4.2948 1.27479 0
M  V30 18109 C 1734.91 -4.20893 -0.552244 0
M  V30 18110 C 1732.82 -5.79548 1.17805 0
M  V30 18111 H 1731.75 -0.753966 -0.00713463 0
M  V30 18112 H 1734.4 -1.70779 0.67132 0
M  V30 18113 H 1732.78 -3.8759 -0.811795 0
M  V30 18114 H 1733.95 -4.13403 2.03554 0
M  V30 18115 H 1732.27 -3.80289 1.69616 0
M  V30 18116 H 1734.87 -5.30825 -0.642556 0
M  V30 18117 H 1735.21 -3.86066 -1.55752 0
M  V30 18118 H 1735.74 -3.97563 0.137363 0
M  V30 18119 H 1732.48 -6.18945 2.15841 0
M  V30 18120 H 1732 -5.98044 0.458624 0
M  V30 18121 H 1733.68 -6.41153 0.867834 0
M  V30 18122 N 1733.81 -0.262893 -1.55392 0
M  V30 18123 C 1735.23 0.09157 -1.59337 0
M  V30 18124 C 1735.43 1.55612 -1.28012 0
M  V30 18125 O 1734.48 2.30308 -1.0351 0
M  V30 18126 C 1735.8 -0.272043 -2.99467 0
M  V30 18127 C 1737.34 -0.217653 -3.12242 0
M  V30 18128 C 1737.82 -0.555528 -4.54618 0
M  V30 18129 N 1739.31 -0.506623 -4.60421 0
M  V30 18130 C 1740.05 -0.741013 -5.68592 0
M  V30 18131 N 1739.54 -1.03937 -6.84959 0
M  V30 18132 N 1741.33 -0.670636 -5.58085 0
M  V30 18133 H 1733.49 -1.2178 -1.74021 0
M  V30 18134 H 1735.75 -0.491131 -0.81086 0
M  V30 18135 H 1735.45 -1.29012 -3.27183 0
M  V30 18136 H 1735.33 0.393105 -3.75146 0
M  V30 18137 H 1737.72 0.791123 -2.84298 0
M  V30 18138 H 1737.8 -0.916884 -2.38803 0
M  V30 18139 H 1737.44 -1.56193 -4.83287 0
M  V30 18140 H 1737.37 0.165358 -5.2634 0
M  V30 18141 H 1739.86 -0.285397 -3.76821 0
M  V30 18142 H 1740.17 -1.20522 -7.63344 0
M  V30 18143 H 1738.52 -1.07702 -6.86604 0
M  V30 18144 H 1741.71 -0.437473 -4.66051 0
M  V30 18145 H 1741.88 -0.856692 -6.42312 0
M  V30 18146 N 1735.29 1.57597 0.0100073 0
M  V30 18147 C 1736.24 2.04265 1.01292 0
M  V30 18148 C 1737.22 0.93547 1.30911 0
M  V30 18149 O 1738.42 1.19929 1.30177 0
M  V30 18150 C 1735.54 2.54129 2.3081 0
M  V30 18151 C 1734.63 3.71704 2.04198 0
M  V30 18152 N 1735.02 4.83752 1.47709 0
M  V30 18153 C 1733.32 3.79443 2.34391 0
M  V30 18154 C 1734.02 5.65255 1.37339 0
M  V30 18155 N 1733 5.1095 1.85556 0
M  V30 18156 H 1736.8 2.8831 0.570489 0
M  V30 18157 H 1734.31 1.60958 0.215919 0
M  V30 18158 H 1736.31 2.85832 3.03489 0
M  V30 18159 H 1734.97 1.71497 2.75715 0
M  V30 18160 H 1735.98 5.04805 1.15723 0
M  V30 18161 H 1732.66 3.07648 2.82239 0
M  V30 18162 H 1734.05 6.65293 0.939918 0
M  V30 18163 N 1736.77 -0.282606 1.55045 0
M  V30 18164 C 1738.04 -1.03617 1.659 0
M  V30 18165 C 1738.42 -2.04615 0.519207 0
M  V30 18166 O 1737.77 -2.2336 -0.48191 0
M  V30 18167 C 1737.98 -1.70159 3.04708 0
M  V30 18168 C 1739.33 -2.21677 3.62139 0
M  V30 18169 O 1740.35 -1.80161 3.07279 0
M  V30 18170 O 1739.21 -2.97799 4.58234 0
M  V30 18171 H 1736.31 -0.48004 0.673417 0
M  V30 18172 H 1738.85 -0.279228 1.67387 0
M  V30 18173 H 1737.63 -0.969205 3.79107 0
M  V30 18174 H 1737.25 -2.52564 3.07079 0
M  V30 18175 N 1738.25 -1.47815 -0.546675 0
M  V30 18176 C 1739.49 -1.54238 -1.29975 0
M  V30 18177 C 1739.81 -0.213869 -1.94427 0
M  V30 18178 O 1741.01 -0.156187 -2.7105 0
M  V30 18179 C 1739.47 -2.71938 -2.35749 0
M  V30 18180 C 1739.08 -4.11362 -1.77441 0
M  V30 18181 C 1740.82 -2.87661 -3.12172 0
M  V30 18182 C 1738.73 -5.20347 -2.81057 0
M  V30 18183 H 1737.66 -0.574139 -0.488754 0
M  V30 18184 H 1740.31 -1.74113 -0.579384 0
M  V30 18185 H 1738.69 -2.45463 -3.10747 0
M  V30 18186 H 1739.87 -4.47785 -1.08744 0
M  V30 18187 H 1738.18 -4.00614 -1.13568 0
M  V30 18188 H 1740.78 -3.66252 -3.89568 0
M  V30 18189 H 1741.12 -1.96494 -3.67009 0
M  V30 18190 H 1741.65 -3.13957 -2.44286 0
M  V30 18191 H 1738.39 -6.13426 -2.31061 0
M  V30 18192 H 1737.91 -4.8843 -3.48132 0
M  V30 18193 H 1739.59 -5.47748 -3.44355 0
M  V30 18194 N 1739.72 0.794246 -1.36123 0
M  V30 18195 C 1741.14 1.0916 -1.16431 0
M  V30 18196 C 1741.34 2.01495 0.0148797 0
M  V30 18197 O 1740.4 2.43123 0.681729 0
M  V30 18198 C 1741.71 1.71071 -2.47295 0
M  V30 18199 C 1743.26 1.83435 -2.53615 0
M  V30 18200 C 1743.73 2.48761 -3.84554 0
M  V30 18201 N 1745.22 2.56235 -3.85873 0
M  V30 18202 C 1745.96 3.07579 -4.83924 0
M  V30 18203 N 1745.45 3.59267 -5.92367 0
M  V30 18204 N 1747.25 3.06246 -4.71349 0
M  V30 18205 H 1739.4 0.180705 -2.1163 0
M  V30 18206 H 1741.66 0.142774 -0.937187 0
M  V30 18207 H 1741.37 1.10693 -3.33826 0
M  V30 18208 H 1741.24 2.70634 -2.62749 0
M  V30 18209 H 1743.63 2.42953 -1.67505 0
M  V30 18210 H 1743.71 0.82692 -2.42065 0
M  V30 18211 H 1743.35 1.8989 -4.71067 0
M  V30 18212 H 1743.28 3.50066 -3.93397 0
M  V30 18213 H 1745.77 2.19629 -3.07525 0
M  V30 18214 H 1746.09 3.96781 -6.63163 0
M  V30 18215 H 1744.43 3.57432 -5.96043 0
M  V30 18216 H 1747.62 2.65151 -3.85762 0
M  V30 18217 H 1747.8 3.45953 -5.47924 0
M  V30 18218 N 1741.2 1.20323 1.01785 0
M  V30 18219 C 1742.45 1.01063 1.75016 0
M  V30 18220 C 1742.77 -0.458458 1.89534 0
M  V30 18221 O 1742.04 -1.3315 1.43694 0
M  V30 18222 H 1740.62 0.370957 0.648383 0
M  V30 18223 H 1743.28 1.51411 1.22722 0
M  V30 18224 H 1742.38 1.46792 2.75424 0
M  V30 18225 N 1742.68 -1.21073 1.00892 0
M  V30 18226 C 1743.64 -2.21804 0.577543 0
M  V30 18227 C 1744.64 -1.56985 -0.348201 0
M  V30 18228 O 1745.83 -1.73653 -0.137947 0
M  V30 18229 C 1742.96 -3.40535 -0.157685 0
M  V30 18230 H 1744.16 -2.61483 1.46856 0
M  V30 18231 H 1741.71 -1.34402 0.79786 0
M  V30 18232 H 1742.45 -3.0635 -1.06397 0
M  V30 18233 H 1742.23 -3.88805 0.507238 0
M  V30 18234 H 1743.72 -4.152 -0.447109 0
M  V30 18235 N 1744.16 -0.784156 -1.36707 0
M  V30 18236 C 1745.07 -0.179959 -2.33909 0
M  V30 18237 C 1746.08 0.665092 -1.60787 0
M  V30 18238 O 1747.26 0.582111 -1.92804 0
M  V30 18239 C 1744.33 0.679323 -3.3998 0
M  V30 18240 C 1743.39 -0.183618 -4.28907 0
M  V30 18241 C 1742.62 0.634747 -5.29912 0
M  V30 18242 O 1742.84 1.87107 -5.38839 0
M  V30 18243 O 1741.78 0.0374113 -6.01888 0
M  V30 18244 H 1745.6 -0.983499 -2.87334 0
M  V30 18245 H 1743.19 -0.545521 -1.39084 0
M  V30 18246 H 1745.07 1.16948 -4.04847 0
M  V30 18247 H 1743.74 1.46084 -2.88862 0
M  V30 18248 H 1742.65 -0.720419 -3.67098 0
M  V30 18249 H 1743.98 -0.928522 -4.83363 0
M  V30 18250 N 1745.64 1.48215 -0.535727 0
M  V30 18251 C 1746.57 2.3253 0.212562 0
M  V30 18252 C 1747.55 1.42454 0.929568 0
M  V30 18253 O 1748.73 1.71334 0.914228 0
M  V30 18254 C 1745.86 3.23777 1.25641 0
M  V30 18255 C 1744.82 4.22924 0.657191 0
M  V30 18256 C 1744.14 5.03345 1.80411 0
M  V30 18257 C 1745.44 5.20953 -0.374902 0
M  V30 18258 H 1747.14 2.95341 -0.491301 0
M  V30 18259 H 1744.68 1.42024 -0.237718 0
M  V30 18260 H 1746.64 3.81592 1.78789 0
M  V30 18261 H 1745.36 2.58978 1.98993 0
M  V30 18262 H 1744.02 3.66304 0.147184 0
M  V30 18263 H 1743.67 4.34965 2.52615 0
M  V30 18264 H 1743.37 5.70455 1.40906 0
M  V30 18265 H 1744.89 5.64013 2.33926 0
M  V30 18266 H 1746.3 5.73258 0.0697072 0
M  V30 18267 H 1744.7 5.96147 -0.687646 0
M  V30 18268 H 1745.77 4.67739 -1.27861 0
M  V30 18269 N 1747.11 0.27113 1.5525 0
M  V30 18270 C 1748.04 -0.61179 2.25343 0
M  V30 18271 C 1749.03 -1.16208 1.24216 0
M  V30 18272 O 1750.21 -1.19696 1.52927 0
M  V30 18273 C 1747.34 -1.7978 2.97147 0
M  V30 18274 C 1746.29 -1.37922 4.05169 0
M  V30 18275 C 1745.62 -2.64801 4.64526 0
M  V30 18276 C 1746.92 -0.532357 5.1958 0
M  V30 18277 H 1748.61 -0.0272538 2.99388 0
M  V30 18278 H 1746.16 -0.0116681 1.43995 0
M  V30 18279 H 1748.11 -2.42132 3.44891 0
M  V30 18280 H 1746.84 -2.40811 2.20631 0
M  V30 18281 H 1745.5 -0.778918 3.5823 0
M  V30 18282 H 1745.14 -3.24081 3.84682 0
M  V30 18283 H 1744.84 -2.37507 5.37461 0
M  V30 18284 H 1746.37 -3.28009 5.15017 0
M  V30 18285 H 1747.78 -1.06078 5.63401 0
M  V30 18286 H 1746.18 -0.35447 5.99052 0
M  V30 18287 H 1747.25 0.44981 4.82809 0
M  V30 18288 N 1748.59 -1.576 -0.00164943 0
M  V30 18289 C 1749.54 -2.04799 -1.00207 0
M  V30 18290 C 1750.53 -0.9424 -1.30413 0
M  V30 18291 O 1751.72 -1.20618 -1.29539 0
M  V30 18292 C 1748.85 -2.55349 -2.29459 0
M  V30 18293 C 1747.93 -3.72782 -2.02224 0
M  V30 18294 N 1748.32 -4.84528 -1.45142 0
M  V30 18295 C 1746.62 -3.80681 -2.32375 0
M  V30 18296 C 1747.32 -5.65975 -1.34339 0
M  V30 18297 N 1746.3 -5.11927 -1.82844 0
M  V30 18298 H 1750.1 -2.88608 -0.555191 0
M  V30 18299 H 1747.62 -1.6107 -0.20738 0
M  V30 18300 H 1749.61 -2.87438 -3.01969 0
M  V30 18301 H 1748.27 -1.72957 -2.74802 0
M  V30 18302 H 1749.28 -5.05412 -1.13045 0
M  V30 18303 H 1745.96 -3.09141 -2.80603 0
M  V30 18304 H 1747.35 -6.65782 -0.904622 0
M  V30 18305 N 1750.07 0.274379 -1.55193 0
M  V30 18306 C 1751 1.34336 -1.90987 0
M  V30 18307 C 1751.98 1.51594 -0.771582 0
M  V30 18308 O 1753.17 1.6466 -1.0296 0
M  V30 18309 C 1750.3 2.70312 -2.18057 0
M  V30 18310 C 1749.25 2.67787 -3.33878 0
M  V30 18311 C 1748.58 4.07301 -3.46425 0
M  V30 18312 C 1749.88 2.27178 -4.70306 0
M  V30 18313 H 1751.57 1.04627 -2.80524 0
M  V30 18314 H 1749.12 0.501867 -1.34971 0
M  V30 18315 H 1751.07 3.45205 -2.41685 0
M  V30 18316 H 1749.79 3.01601 -1.25318 0
M  V30 18317 H 1748.45 1.95351 -3.10216 0
M  V30 18318 H 1748.1 4.3581 -2.51155 0
M  V30 18319 H 1747.8 4.06507 -4.24295 0
M  V30 18320 H 1749.32 4.83935 -3.72343 0
M  V30 18321 H 1750.74 2.91794 -4.93487 0
M  V30 18322 H 1749.14 2.37548 -5.51082 0
M  V30 18323 H 1750.21 1.22309 -4.69221 0
M  V30 18324 N 1751.55 1.48103 0.538828 0
M  V30 18325 C 1752.46 1.64632 1.67133 0
M  V30 18326 C 1753.47 0.528917 1.65766 0
M  V30 18327 O 1754.65 0.798849 1.84879 0
M  V30 18328 C 1751.72 1.67391 3.03614 0
M  V30 18329 C 1750.78 2.90694 3.15904 0
M  V30 18330 C 1750.01 2.93311 4.45875 0
M  V30 18331 O 1750.23 2.04596 5.32444 0
M  V30 18332 O 1749.17 3.85384 4.62345 0
M  V30 18333 H 1752.99 2.60496 1.56126 0
M  V30 18334 H 1750.58 1.31401 0.710925 0
M  V30 18335 H 1752.46 1.71777 3.84799 0
M  V30 18336 H 1751.13 0.746982 3.14963 0
M  V30 18337 H 1750.04 2.91844 2.34047 0
M  V30 18338 H 1751.37 3.82742 3.09467 0
M  V30 18339 N 1753.03 -0.787016 1.36542 0
M  V30 18340 C 1754.44 -1.08541 1.17008 0
M  V30 18341 C 1754.64 -2.015 -0.00419378 0
M  V30 18342 O 1753.7 -2.43481 -0.668826 0
M  V30 18343 C 1755.01 -1.69758 2.48199 0
M  V30 18344 C 1756.56 -1.82088 2.54584 0
M  V30 18345 C 1757.03 -2.46719 3.85868 0
M  V30 18346 N 1758.53 -2.54185 3.87227 0
M  V30 18347 C 1759.26 -3.05008 4.85549 0
M  V30 18348 N 1758.76 -3.56121 5.94264 0
M  V30 18349 N 1760.55 -3.03742 4.72966 0
M  V30 18350 H 1752.7 -0.16948 2.11723 0
M  V30 18351 H 1754.96 -0.137802 0.937931 0
M  V30 18352 H 1754.67 -1.08922 3.34408 0
M  V30 18353 H 1754.54 -2.69237 2.6418 0
M  V30 18354 H 1756.93 -2.42061 1.68792 0
M  V30 18355 H 1757.01 -0.814071 2.42501 0
M  V30 18356 H 1756.66 -1.87389 4.72068 0
M  V30 18357 H 1756.59 -3.47975 3.95248 0
M  V30 18358 H 1759.08 -2.17995 3.08685 0
M  V30 18359 H 1759.39 -3.93259 6.65257 0
M  V30 18360 H 1757.73 -3.54266 5.9793 0
M  V30 18361 H 1760.93 -2.63102 3.87163 0
M  V30 18362 H 1761.1 -3.43043 5.49751 0
M  V30 18363 N 1754.5 -1.20861 -1.01145 0
M  V30 18364 C 1755.92 -0.964575 -1.27154 0
M  V30 18365 C 1756.12 0.352861 -1.98386 0
M  V30 18366 O 1755.18 1.08012 -2.28232 0
M  V30 18367 C 1756.49 -2.15074 -2.10151 0
M  V30 18368 C 1758.04 -2.19229 -2.234 0
M  V30 18369 C 1758.51 -3.37346 -3.09777 0
M  V30 18370 N 1760 -3.37392 -3.17365 0
M  V30 18371 C 1760.74 -4.25434 -3.84439 0
M  V30 18372 N 1760.23 -5.23664 -4.53595 0
M  V30 18373 N 1762.03 -4.13261 -3.81014 0
M  V30 18374 H 1754.18 -2.05595 -0.533346 0
M  V30 18375 H 1756.44 -0.899928 -0.298048 0
M  V30 18376 H 1756.15 -3.10511 -1.65153 0
M  V30 18377 H 1756.02 -2.13598 -3.10895 0
M  V30 18378 H 1758.41 -1.24352 -2.6762 0
M  V30 18379 H 1758.49 -2.24752 -1.22148 0
M  V30 18380 H 1758.13 -4.32513 -2.66261 0
M  V30 18381 H 1758.06 -3.29061 -4.11128 0
M  V30 18382 H 1760.55 -2.66299 -2.68129 0
M  V30 18383 H 1760.87 -5.87158 -5.02459 0
M  V30 18384 H 1759.21 -5.27595 -4.52403 0
M  V30 18385 H 1762.4 -3.35786 -3.26137 0
M  V30 18386 H 1762.58 -4.82085 -4.3301 0
M  V30 18387 N 1755.98 1.20536 -1.01532 0
M  V30 18388 C 1757.26 1.85545 -0.619063 0
M  V30 18389 C 1757.64 1.90816 0.902916 0
M  V30 18390 O 1756.99 1.41506 1.79411 0
M  V30 18391 C 1757.2 3.25252 -1.26539 0
M  V30 18392 C 1758.55 4.01547 -1.38003 0
M  V30 18393 O 1759.57 3.34601 -1.22151 0
M  V30 18394 O 1758.43 5.21436 -1.63605 0
M  V30 18395 H 1755.52 0.798985 -0.21343 0
M  V30 18396 H 1758.07 1.28136 -1.11262 0
M  V30 18397 H 1756.84 3.16174 -2.30542 0
M  V30 18398 H 1756.46 3.90292 -0.758833 0
M  V30 18399 N 1757.46 0.791395 1.36289 0
M  V30 18400 C 1758.39 0.205419 2.32595 0
M  V30 18401 C 1759.37 -0.660696 1.56744 0
M  V30 18402 O 1760.56 -0.594111 1.84889 0
M  V30 18403 C 1757.69 -0.659018 3.4099 0
M  V30 18404 C 1756.64 0.107364 4.27865 0
M  V30 18405 C 1755.97 -0.877795 5.27446 0
M  V30 18406 C 1757.27 1.29769 5.05922 0
M  V30 18407 H 1758.96 1.00999 2.8185 0
M  V30 18408 H 1756.51 0.487122 1.35511 0
M  V30 18409 H 1758.46 -1.07891 4.07354 0
M  V30 18410 H 1757.18 -1.49632 2.90307 0
M  V30 18411 H 1755.84 0.508253 3.6306 0
M  V30 18412 H 1755.49 -1.71018 4.73035 0
M  V30 18413 H 1755.19 -0.369429 5.86438 0
M  V30 18414 H 1756.71 -1.29621 5.96683 0
M  V30 18415 H 1758.13 0.953463 5.65316 0
M  V30 18416 H 1756.53 1.73949 5.74336 0
M  V30 18417 H 1757.6 2.09205 4.37449 0
M  V30 18418 N 1758.94 -1.47929 0.54358 0
M  V30 18419 C 1759.89 -2.29827 -0.211706 0
M  V30 18420 C 1760.86 -1.38217 -0.921154 0
M  V30 18421 O 1762.04 -1.67181 -0.919522 0
M  V30 18422 C 1759.18 -3.21889 -1.24425 0
M  V30 18423 C 1758.29 -4.28583 -0.542264 0
M  V30 18424 C 1757.43 -5.0781 -1.55892 0
M  V30 18425 C 1756.47 -6.06293 -0.841146 0
M  V30 18426 N 1755.61 -6.78528 -1.80399 0
M  V30 18427 H 1760.45 -2.93896 0.492835 0
M  V30 18428 H 1757.98 -1.44875 0.254873 0
M  V30 18429 H 1759.94 -3.73674 -1.85535 0
M  V30 18430 H 1758.57 -2.59713 -1.917 0
M  V30 18431 H 1757.62 -3.79959 0.183069 0
M  V30 18432 H 1758.93 -4.98796 0.0206703 0
M  V30 18433 H 1758.09 -5.63678 -2.24393 0
M  V30 18434 H 1756.83 -4.37468 -2.15576 0
M  V30 18435 H 1755.83 -5.49616 -0.14214 0
M  V30 18436 H 1757.06 -6.78639 -0.250232 0
M  V30 18437 H 1755 -6.10927 -2.38965 0
M  V30 18438 H 1754.92 -7.44863 -1.29285 0
M  V30 18439 H 1756.19 -7.38978 -2.48056 0
M  V30 18440 N 1760.42 -0.27936 -1.55104 0
M  V30 18441 C 1761.69 0.388213 -1.91709 0
M  V30 18442 C 1762.07 1.7339 -1.20412 0
M  V30 18443 O 1761.42 2.26069 -0.332419 0
M  V30 18444 C 1761.63 0.524298 -3.45039 0
M  V30 18445 C 1762.98 0.805229 -4.16895 0
M  V30 18446 O 1764 0.608944 -3.50956 0
M  V30 18447 O 1762.86 1.18089 -5.33589 0
M  V30 18448 H 1759.96 0.213245 -0.799034 0
M  V30 18449 H 1762.5 -0.325825 -1.66543 0
M  V30 18450 H 1761.28 -0.422562 -3.89012 0
M  V30 18451 H 1760.9 1.28764 -3.76172 0
M  V30 18452 N 1761.9 1.57599 -0.0067085 0
M  V30 18453 C 1762.83 2.11878 0.981331 0
M  V30 18454 C 1763.81 1.02949 1.35408 0
M  V30 18455 O 1764.99 1.30667 1.43665 0
M  V30 18456 C 1762.12 2.62757 2.27104 0
M  V30 18457 C 1761.08 3.76272 2.0397 0
M  V30 18458 C 1760.4 4.13491 3.39012 0
M  V30 18459 C 1761.7 5.03274 1.39688 0
M  V30 18460 H 1763.4 2.94683 0.529366 0
M  V30 18461 H 1760.94 1.41757 0.253187 0
M  V30 18462 H 1762.89 2.99359 2.96585 0
M  V30 18463 H 1761.62 1.77082 2.74426 0
M  V30 18464 H 1760.28 3.40074 1.36913 0
M  V30 18465 H 1759.93 3.24831 3.8405 0
M  V30 18466 H 1759.63 4.89972 3.24347 0
M  V30 18467 H 1761.15 4.52657 4.09797 0
M  V30 18468 H 1762.56 5.37604 1.99136 0
M  V30 18469 H 1760.96 5.84604 1.3549 0
M  V30 18470 H 1762.03 4.8351 0.366928 0
M  V30 18471 N 1763.37 -0.266145 1.55336 0
M  V30 18472 C 1764.62 -0.994862 1.75917 0
M  V30 18473 C 1764.94 -1.8657 0.567147 0
M  V30 18474 O 1764.21 -1.91394 -0.417738 0
M  V30 18475 H 1762.79 -0.370318 0.648748 0
M  V30 18476 H 1765.45 -0.288724 1.9275 0
M  V30 18477 H 1764.55 -1.62781 2.66287 0
M  V30 18478 N 1764.85 -1.48386 -0.530967 0
M  V30 18479 C 1766.1 -1.55608 -1.28332 0
M  V30 18480 C 1766.41 -0.234479 -1.94189 0
M  V30 18481 O 1767.62 -0.184926 -2.70869 0
M  V30 18482 C 1766.08 -2.74423 -2.32852 0
M  V30 18483 C 1765.68 -4.13221 -1.73068 0
M  V30 18484 C 1767.43 -2.90956 -3.09103 0
M  V30 18485 C 1765.33 -5.23299 -2.75522 0
M  V30 18486 H 1764.26 -0.579291 -0.482637 0
M  V30 18487 H 1766.92 -1.74718 -0.560885 0
M  V30 18488 H 1765.3 -2.48745 -3.08126 0
M  V30 18489 H 1766.47 -4.48913 -1.03989 0
M  V30 18490 H 1764.79 -4.01796 -1.09312 0
M  V30 18491 H 1767.38 -3.70363 -3.85662 0
M  V30 18492 H 1767.73 -2.00376 -3.64905 0
M  V30 18493 H 1768.26 -3.1653 -2.40943 0
M  V30 18494 H 1765 -6.15842 -2.24542 0
M  V30 18495 H 1764.52 -4.92095 -3.42932 0
M  V30 18496 H 1766.2 -5.5137 -3.38526 0
M  V30 18497 N 1766.33 0.779763 -1.36958 0
M  V30 18498 C 1767.74 1.35555 -1.28381 0
M  V30 18499 C 1768.09 1.96067 0.0721422 0
M  V30 18500 O 1767.22 1.9325 0.973824 0
M  V30 18501 C 1767.81 2.46454 -2.32477 0
M  V30 18502 C 1766.37 2.99823 -2.27559 0
M  V30 18503 C 1765.52 1.72975 -2.16737 0
M  V30 18504 H 1768.47 0.580646 -1.47696 0
M  V30 18505 H 1768.49 3.25726 -1.96679 0
M  V30 18506 H 1768 2.02383 -3.31154 0
M  V30 18507 H 1766.1 3.4829 -1.3238 0
M  V30 18508 H 1766.22 3.55982 -3.20646 0
M  V30 18509 H 1764.58 1.95587 -1.6315 0
M  V30 18510 H 1765.36 1.31018 -3.17315 0
M  V30 18511 N 1767.81 1.21396 1.00503 0
M  V30 18512 C 1768.75 0.973198 2.09279 0
M  V30 18513 C 1769.72 -0.100797 1.65794 0
M  V30 18514 O 1770.91 0.0463185 1.90744 0
M  V30 18515 C 1768.05 0.543941 3.40786 0
M  V30 18516 C 1767.16 1.68737 3.97683 0
M  V30 18517 C 1766.3 1.20728 5.17299 0
M  V30 18518 C 1765.34 2.32305 5.66305 0
M  V30 18519 N 1764.47 1.8543 6.77171 0
M  V30 18520 H 1769.31 1.90441 2.29208 0
M  V30 18521 H 1766.85 0.949082 1.12387 0
M  V30 18522 H 1768.81 0.276311 4.16284 0
M  V30 18523 H 1767.44 -0.350263 3.20894 0
M  V30 18524 H 1766.49 2.06964 3.19171 0
M  V30 18525 H 1767.8 2.5271 4.30045 0
M  V30 18526 H 1766.96 0.896312 6.00043 0
M  V30 18527 H 1765.7 0.3376 4.8653 0
M  V30 18528 H 1764.7 2.64205 4.82158 0
M  V30 18529 H 1765.93 3.19769 5.99103 0
M  V30 18530 H 1763.87 1.00806 6.48208 0
M  V30 18531 H 1763.79 2.62976 7.08788 0
M  V30 18532 H 1765.06 1.57366 7.6345 0
M  V30 18533 N 1769.29 -1.19996 1.0217 0
M  V30 18534 C 1770.53 -1.89776 0.715047 0
M  V30 18535 C 1770.86 -1.78971 -0.753862 0
M  V30 18536 O 1770.14 -1.17729 -1.54823 0
M  V30 18537 C 1770.42 -3.4098 1.15779 0
M  V30 18538 C 1770.28 -3.60693 2.68739 0
M  V30 18539 C 1771.59 -4.33953 0.733008 0
M  V30 18540 H 1768.71 -0.689148 0.261236 0
M  V30 18541 H 1771.36 -1.41287 1.27035 0
M  V30 18542 H 1769.51 -3.82407 0.68534 0
M  V30 18543 H 1771.18 -3.28484 3.23876 0
M  V30 18544 H 1769.42 -3.0399 3.09472 0
M  V30 18545 H 1770.09 -4.66704 2.94773 0
M  V30 18546 H 1772.57 -4.002 1.13925 0
M  V30 18547 H 1771.44 -5.38355 1.07077 0
M  V30 18548 H 1771.7 -4.4059 -0.365047 0
M  V30 18549 N 1770.76 -0.798611 -1.35867 0
M  V30 18550 C 1772.01 -0.374519 -1.986 0
M  V30 18551 C 1772.33 1.05984 -1.63684 0
M  V30 18552 O 1771.6 1.73199 -0.915359 0
M  V30 18553 H 1770.18 -0.135492 -0.734609 0
M  V30 18554 H 1772.84 -1.02269 -1.65913 0
M  V30 18555 H 1771.94 -0.473773 -3.08483 0
M  V30 18556 N 1772.24 1.47639 -0.551417 0
M  V30 18557 C 1773.19 2.26938 0.219798 0
M  V30 18558 C 1774.18 1.34006 0.890571 0
M  V30 18559 O 1775.37 1.584 0.789834 0
M  V30 18560 C 1772.5 3.19625 1.25279 0
M  V30 18561 C 1771.58 4.20036 0.585724 0
M  V30 18562 N 1771.97 5.0465 -0.34089 0
M  V30 18563 C 1770.27 4.38012 0.840352 0
M  V30 18564 C 1770.97 5.77129 -0.727814 0
M  V30 18565 N 1769.95 5.43535 -0.0839681 0
M  V30 18566 H 1773.75 2.8974 -0.492729 0
M  V30 18567 H 1771.26 1.58107 -0.370943 0
M  V30 18568 H 1773.26 3.75114 1.8192 0
M  V30 18569 H 1771.92 2.5838 1.96647 0
M  V30 18570 H 1772.93 5.12944 -0.71473 0
M  V30 18571 H 1769.61 3.87941 1.54298 0
M  V30 18572 H 1771 6.55196 -1.48888 0
M  V30 18573 N 1773.72 0.287581 1.54954 0
M  V30 18574 C 1774.97 -0.326093 2.00161 0
M  V30 18575 C 1775.3 -1.54564 1.17574 0
M  V30 18576 O 1774.57 -1.92901 0.248859 0
M  V30 18577 C 1774.86 -0.695974 3.5331 0
M  V30 18578 C 1774.71 0.531783 4.46645 0
M  V30 18579 C 1776.03 -1.52767 4.12735 0
M  V30 18580 H 1773.15 -0.117051 0.727646 0
M  V30 18581 H 1775.79 0.39701 1.85806 0
M  V30 18582 H 1773.94 -1.31205 3.65674 0
M  V30 18583 H 1775.61 1.17032 4.46208 0
M  V30 18584 H 1773.86 1.16754 4.17793 0
M  V30 18585 H 1774.53 0.229034 5.51525 0
M  V30 18586 H 1777 -1.00724 4.03725 0
M  V30 18587 H 1775.88 -1.75527 5.20078 0
M  V30 18588 H 1776.14 -2.51267 3.63755 0
M  V30 18589 N 1775.2 -1.57593 0.0150662 0
M  V30 18590 C 1776.15 -2.0936 -0.971443 0
M  V30 18591 C 1777.12 -0.992416 -1.33193 0
M  V30 18592 O 1778.3 -1.26577 -1.42769 0
M  V30 18593 C 1775.44 -2.61386 -2.25324 0
M  V30 18594 C 1774.55 -3.85462 -1.95046 0
M  V30 18595 C 1773.69 -4.25934 -3.17418 0
M  V30 18596 C 1772.73 -5.42805 -2.82894 0
M  V30 18597 N 1771.86 -5.78499 -3.97848 0
M  V30 18598 H 1776.7 -2.93373 -0.523068 0
M  V30 18599 H 1774.24 -1.45018 -0.246605 0
M  V30 18600 H 1776.2 -2.89635 -3.00279 0
M  V30 18601 H 1774.83 -1.80225 -2.67804 0
M  V30 18602 H 1773.88 -3.64029 -1.10394 0
M  V30 18603 H 1775.19 -4.70505 -1.6561 0
M  V30 18604 H 1774.35 -4.55544 -4.00705 0
M  V30 18605 H 1773.09 -3.3963 -3.50004 0
M  V30 18606 H 1772.09 -5.12903 -1.98016 0
M  V30 18607 H 1773.32 -6.30797 -2.51539 0
M  V30 18608 H 1771.26 -4.95152 -4.30303 0
M  V30 18609 H 1771.18 -6.5815 -3.71988 0
M  V30 18610 H 1772.45 -6.12708 -4.8188 0
M  V30 18611 N 1776.68 0.257904 -1.55475 0
M  V30 18612 C 1778.09 0.605871 -1.47653 0
M  V30 18613 C 1778.29 1.88837 -0.703063 0
M  V30 18614 O 1777.35 2.51469 -0.227981 0
M  V30 18615 C 1778.66 0.718813 -2.91982 0
M  V30 18616 C 1780.21 0.81187 -3.02287 0
M  V30 18617 C 1780.68 0.956465 -4.47901 0
M  V30 18618 N 1782.18 1.02161 -4.51793 0
M  V30 18619 C 1782.91 1.15256 -5.61697 0
M  V30 18620 N 1782.41 1.24975 -6.81435 0
M  V30 18621 N 1784.2 1.18485 -5.4947 0
M  V30 18622 H 1776.35 -0.584154 -2.04209 0
M  V30 18623 H 1778.61 -0.200045 -0.926653 0
M  V30 18624 H 1778.32 -0.15335 -3.51366 0
M  V30 18625 H 1778.19 1.59429 -3.41851 0
M  V30 18626 H 1780.58 1.67449 -2.42991 0
M  V30 18627 H 1780.66 -0.0885307 -2.55647 0
M  V30 18628 H 1780.31 0.0984438 -5.07805 0
M  V30 18629 H 1780.24 1.87174 -4.92213 0
M  V30 18630 H 1782.73 0.958295 -3.65548 0
M  V30 18631 H 1783.04 1.34843 -7.60945 0
M  V30 18632 H 1781.38 1.21952 -6.84217 0
M  V30 18633 H 1784.58 1.10534 -4.54863 0
M  V30 18634 H 1784.75 1.28346 -6.35162 0
M  V30 18635 N 1778.15 1.48666 0.52309 0
M  V30 18636 C 1779.4 1.56286 1.27505 0
M  V30 18637 C 1779.72 0.244774 1.94062 0
M  V30 18638 O 1780.92 0.199289 2.70768 0
M  V30 18639 C 1779.38 2.75654 2.31393 0
M  V30 18640 C 1778.99 4.14133 1.70874 0
M  V30 18641 C 1780.73 2.92591 3.07556 0
M  V30 18642 C 1778.64 5.24752 2.72743 0
M  V30 18643 H 1777.57 0.581842 0.479558 0
M  V30 18644 H 1780.22 1.75013 0.551611 0
M  V30 18645 H 1778.6 2.50376 3.06803 0
M  V30 18646 H 1779.77 4.49458 1.01607 0
M  V30 18647 H 1778.09 4.0237 1.0718 0
M  V30 18648 H 1780.69 3.72403 3.83692 0
M  V30 18649 H 1781.03 2.02308 3.63837 0
M  V30 18650 H 1781.56 3.17804 2.39261 0
M  V30 18651 H 1778.3 6.17024 2.21273 0
M  V30 18652 H 1777.82 4.93907 3.40318 0
M  V30 18653 H 1779.5 5.53158 3.35598 0
M  V30 18654 N 1779.63 -0.772489 1.37369 0
M  V30 18655 C 1780.56 -1.89969 1.35772 0
M  V30 18656 C 1781.54 -1.68586 0.226452 0
M  V30 18657 O 1782.73 -1.89454 0.426692 0
M  V30 18658 C 1779.86 -3.27242 1.16319 0
M  V30 18659 C 1778.81 -3.63187 2.2645 0
M  V30 18660 C 1778.14 -4.98992 1.92121 0
M  V30 18661 C 1779.44 -3.70013 3.6863 0
M  V30 18662 H 1781.13 -1.91564 2.30095 0
M  V30 18663 H 1778.68 -0.920241 1.10759 0
M  V30 18664 H 1780.63 -4.05734 1.13832 0
M  V30 18665 H 1779.36 -3.26078 0.184513 0
M  V30 18666 H 1778.01 -2.87001 2.28091 0
M  V30 18667 H 1777.66 -4.94368 0.927848 0
M  V30 18668 H 1777.36 -5.24012 2.65867 0
M  V30 18669 H 1778.89 -5.79886 1.91219 0
M  V30 18670 H 1780.3 -4.38659 3.69122 0
M  V30 18671 H 1778.7 -4.06529 4.41423 0
M  V30 18672 H 1779.77 -2.70694 4.02309 0
M  V30 18673 N 1781.11 -1.21927 -0.998575 0
M  V30 18674 C 1782.04 -0.942076 -2.08944 0
M  V30 18675 C 1783.06 0.0771683 -1.62617 0
M  V30 18676 O 1784.24 -0.156133 -1.77816 0
M  V30 18677 C 1781.34 -0.394201 -3.366 0
M  V30 18678 C 1780.52 -1.46931 -4.11983 0
M  V30 18679 C 1779.58 -0.929531 -5.17925 0
M  V30 18680 O 1778.6 -1.61444 -5.45824 0
M  V30 18681 N 1779.8 0.251965 -5.79953 0
M  V30 18682 H 1782.57 -1.88119 -2.33306 0
M  V30 18683 H 1780.13 -1.12539 -1.16389 0
M  V30 18684 H 1782.12 -0.0185416 -4.04696 0
M  V30 18685 H 1780.69 0.449884 -3.09346 0
M  V30 18686 H 1779.91 -2.01854 -3.38598 0
M  V30 18687 H 1781.2 -2.19284 -4.59121 0
M  V30 18688 H 1780.6 0.825333 -5.59647 0
M  V30 18689 H 1779.16 0.569068 -6.49311 0
M  V30 18690 N 1782.59 1.19452 -1.02805 0
M  V30 18691 C 1783.84 1.8874 -0.722599 0
M  V30 18692 C 1784.16 1.79957 0.751028 0
M  V30 18693 O 1783.43 1.20949 1.54104 0
M  V30 18694 H 1782.01 0.698683 -0.264294 0
M  V30 18695 H 1784.67 1.45021 -1.30211 0
M  V30 18696 H 1783.77 2.95094 -1.01617 0
M  V30 18697 N 1784.07 0.805805 1.35442 0
M  V30 18698 C 1785.32 0.382303 1.98044 0
M  V30 18699 C 1785.63 -1.05602 1.64644 0
M  V30 18700 O 1786.83 -1.5826 2.20604 0
M  V30 18701 C 1785.29 0.632619 3.54296 0
M  V30 18702 C 1784.9 2.08344 3.96607 0
M  V30 18703 C 1786.64 0.274435 4.23612 0
M  V30 18704 C 1784.55 2.27954 5.45702 0
M  V30 18705 H 1783.48 0.13921 0.741037 0
M  V30 18706 H 1786.13 0.989752 1.54519 0
M  V30 18707 H 1784.51 -0.0447699 3.95975 0
M  V30 18708 H 1785.69 2.79857 3.66083 0
M  V30 18709 H 1784 2.40142 3.40178 0
M  V30 18710 H 1786.6 0.399019 5.33209 0
M  V30 18711 H 1786.94 -0.779292 4.08941 0
M  V30 18712 H 1787.47 0.90571 3.87352 0
M  V30 18713 H 1784.21 3.3177 5.6534 0
M  V30 18714 H 1783.73 1.60965 5.77798 0
M  V30 18715 H 1785.41 2.09469 6.12153 0
M  V30 18716 N 1785.54 -1.47344 0.559239 0
M  V30 18717 C 1786.49 -2.30039 -0.187317 0
M  V30 18718 C 1787.46 -1.39186 -0.906443 0
M  V30 18719 O 1788.65 -1.68147 -0.901739 0
M  V30 18720 C 1785.79 -3.2319 -1.21004 0
M  V30 18721 C 1784.9 -4.29134 -0.496776 0
M  V30 18722 C 1784.03 -5.09435 -1.50497 0
M  V30 18723 C 1783.07 -6.07151 -0.776794 0
M  V30 18724 N 1782.21 -6.80404 -1.73192 0
M  V30 18725 H 1787.05 -2.93357 0.523978 0
M  V30 18726 H 1784.59 -1.44597 0.270225 0
M  V30 18727 H 1786.55 -3.75621 -1.81561 0
M  V30 18728 H 1785.18 -2.61732 -1.88935 0
M  V30 18729 H 1784.23 -3.79744 0.223359 0
M  V30 18730 H 1785.54 -4.98746 0.0735731 0
M  V30 18731 H 1784.69 -5.66026 -2.18402 0
M  V30 18732 H 1783.43 -4.3973 -2.10924 0
M  V30 18733 H 1782.44 -5.49736 -0.0838382 0
M  V30 18734 H 1783.66 -6.78866 -0.178239 0
M  V30 18735 H 1781.61 -6.13427 -2.32472 0
M  V30 18736 H 1781.53 -7.46193 -1.21377 0
M  V30 18737 H 1782.79 -7.41567 -2.40204 0
M  V30 18738 N 1787.02 -0.295795 -1.54799 0
M  V30 18739 C 1787.93 0.592206 -2.27002 0
M  V30 18740 C 1788.95 1.1528 -1.30332 0
M  V30 18741 O 1790.12 1.1787 -1.63305 0
M  V30 18742 C 1787.19 1.75027 -2.99277 0
M  V30 18743 C 1786.25 1.22427 -4.11473 0
M  V30 18744 C 1785.48 2.32714 -4.80291 0
M  V30 18745 O 1785.71 3.52506 -4.48437 0
M  V30 18746 O 1784.64 1.997 -5.67806 0
M  V30 18747 H 1788.47 0.00666048 -3.03699 0
M  V30 18748 H 1786.05 -0.0624413 -1.49269 0
M  V30 18749 H 1787.93 2.42508 -3.44627 0
M  V30 18750 H 1786.61 2.32252 -2.25479 0
M  V30 18751 H 1785.52 0.515337 -3.70534 0
M  V30 18752 H 1786.85 0.697518 -4.87233 0
M  V30 18753 N 1788.5 1.57583 -0.0234236 0
M  V30 18754 C 1789.43 2.12907 0.958804 0
M  V30 18755 C 1790.41 1.0438 1.34309 0
M  V30 18756 O 1791.6 1.32184 1.42271 0
M  V30 18757 C 1788.73 2.65151 2.24304 0
M  V30 18758 C 1787.68 3.78414 1.99967 0
M  V30 18759 C 1787.01 4.17064 3.34607 0
M  V30 18760 C 1788.31 5.04727 1.34342 0
M  V30 18761 H 1790 2.95228 0.498081 0
M  V30 18762 H 1787.55 1.42017 0.238138 0
M  V30 18763 H 1789.5 3.02487 2.93393 0
M  V30 18764 H 1788.22 1.79983 2.72532 0
M  V30 18765 H 1786.88 3.41507 1.33298 0
M  V30 18766 H 1786.53 3.28886 3.80583 0
M  V30 18767 H 1786.23 4.93385 3.19132 0
M  V30 18768 H 1787.76 4.56978 4.04973 0
M  V30 18769 H 1789.17 5.39686 1.93422 0
M  V30 18770 H 1787.57 5.86009 1.29282 0
M  V30 18771 H 1788.64 4.83872 0.315625 0
M  V30 18772 N 1789.98 -0.249655 1.5561 0
M  V30 18773 C 1791.23 -0.976148 1.76963 0
M  V30 18774 C 1791.55 -1.85958 0.586903 0
M  V30 18775 O 1790.82 -1.91827 -0.397415 0
M  V30 18776 H 1789.4 -0.363416 0.652639 0
M  V30 18777 H 1792.06 -0.268264 1.93045 0
M  V30 18778 H 1791.16 -1.59948 2.67998 0
M  V30 18779 N 1791.46 -1.48941 -0.515198 0
M  V30 18780 C 1792.87 -1.35389 -0.8451 0
M  V30 18781 C 1793.07 -0.376141 -1.97958 0
M  V30 18782 O 1792.13 0.197324 -2.51728 0
M  V30 18783 C 1793.44 -2.75775 -1.19868 0
M  V30 18784 C 1794.99 -2.84373 -1.30772 0
M  V30 18785 C 1795.47 -4.25494 -1.69466 0
M  V30 18786 N 1796.96 -4.28237 -1.76542 0
M  V30 18787 C 1797.69 -5.34384 -2.07898 0
M  V30 18788 N 1797.19 -6.50792 -2.37575 0
M  V30 18789 N 1798.98 -5.21789 -2.09029 0
M  V30 18790 H 1791.13 -2.11117 0.233118 0
M  V30 18791 H 1793.39 -0.947083 0.0416757 0
M  V30 18792 H 1793.1 -3.48955 -0.438565 0
M  V30 18793 H 1792.97 -3.10243 -2.14545 0
M  V30 18794 H 1795.36 -2.11439 -2.05858 0
M  V30 18795 H 1795.44 -2.53506 -0.341808 0
M  V30 18796 H 1795.09 -4.98949 -0.949358 0
M  V30 18797 H 1795.02 -4.53814 -2.67133 0
M  V30 18798 H 1797.51 -3.44278 -1.55824 0
M  V30 18799 H 1797.82 -7.27518 -2.60649 0
M  V30 18800 H 1796.17 -6.54042 -2.35062 0
M  V30 18801 H 1799.36 -4.29858 -1.85311 0
M  V30 18802 H 1799.53 -6.0461 -2.33133 0
M  V30 18803 N 1792.94 0.765193 -1.37777 0
M  V30 18804 C 1794.16 1.55948 -1.3673 0
M  V30 18805 C 1794.59 1.8805 0.0435817 0
M  V30 18806 O 1793.94 1.49718 1.02246 0
M  V30 18807 C 1793.99 2.84245 -2.21895 0
M  V30 18808 O 1793.1 3.78903 -1.62807 0
M  V30 18809 H 1792.44 0.472127 -0.466897 0
M  V30 18810 H 1794.97 0.946556 -1.81388 0
M  V30 18811 H 1794.98 3.33284 -2.35342 0
M  V30 18812 H 1793.65 2.60209 -3.24444 0
M  V30 18813 H 1792.23 3.37568 -1.58437 0
M  V30 18814 N 1794.41 1.22455 0.992094 0
M  V30 18815 C 1795.64 1.07594 1.76723 0
M  V30 18816 C 1796.06 -0.37345 1.8507 0
M  V30 18817 O 1795.41 -1.25876 1.32142 0
M  V30 18818 C 1795.46 1.68178 3.19998 0
M  V30 18819 O 1795.19 3.07447 3.12102 0
M  V30 18820 C 1796.69 1.58602 4.13957 0
M  V30 18821 H 1793.91 0.377148 0.554978 0
M  V30 18822 H 1796.45 1.62065 1.24721 0
M  V30 18823 H 1794.61 1.17768 3.69066 0
M  V30 18824 H 1795.02 3.36641 4.0221 0
M  V30 18825 H 1796.49 2.05714 5.12236 0
M  V30 18826 H 1796.97 0.542712 4.35834 0
M  V30 18827 H 1797.58 2.08321 3.70786 0
M  V30 18828 N 1795.89 -1.18905 1.03437 0
M  V30 18829 C 1797.3 -1.70402 0.762893 0
M  V30 18830 C 1797.65 -1.82633 -0.716908 0
M  V30 18831 O 1796.78 -1.50136 -1.55847 0
M  V30 18832 C 1797.37 -3.09501 1.37822 0
M  V30 18833 C 1795.93 -3.58235 1.1552 0
M  V30 18834 C 1795.08 -2.34953 1.47284 0
M  V30 18835 H 1798.03 -1.03669 1.2016 0
M  V30 18836 H 1798.05 -3.7246 0.778079 0
M  V30 18837 H 1797.56 -3.00566 2.45523 0
M  V30 18838 H 1795.66 -3.72475 0.096646 0
M  V30 18839 H 1795.78 -4.42034 1.84778 0
M  V30 18840 H 1794.14 -2.38557 0.892333 0
M  V30 18841 H 1794.92 -2.28643 2.5608 0
M  V30 18842 N 1797.37 -0.812977 -1.35013 0
M  V30 18843 C 1798.3 -0.185443 -2.28449 0
M  V30 18844 C 1799.31 0.618951 -1.50575 0
M  V30 18845 O 1800.5 0.450262 -1.72728 0
M  V30 18846 C 1797.6 0.759419 -3.30282 0
M  V30 18847 C 1796.78 1.09356e-05 -4.374 0
M  V30 18848 C 1795.84 0.864309 -5.19053 0
M  V30 18849 O 1794.86 0.312916 -5.68339 0
M  V30 18850 N 1796.06 2.18551 -5.37788 0
M  V30 18851 H 1798.83 -0.988144 -2.82941 0
M  V30 18852 H 1796.39 -0.669018 -1.47431 0
M  V30 18853 H 1798.38 1.342 -3.81802 0
M  V30 18854 H 1796.95 1.4629 -2.76257 0
M  V30 18855 H 1796.17 -0.763818 -3.86729 0
M  V30 18856 H 1797.46 -0.523125 -5.06104 0
M  V30 18857 H 1796.86 2.65735 -4.99401 0
M  V30 18858 H 1795.41 2.71718 -5.92463 0
M  V30 18859 N 1798.85 1.47045 -0.567045 0
M  V30 18860 C 1800.07 2.0734 -0.0498828 0
M  V30 18861 C 1800.5 1.41545 1.23881 0
M  V30 18862 O 1799.86 0.493798 1.74446 0
M  V30 18863 C 1799.9 3.60404 0.118782 0
M  V30 18864 O 1799.01 3.95186 1.17905 0
M  V30 18865 H 1798.35 0.661656 -0.055746 0
M  V30 18866 H 1800.88 1.8892 -0.78553 0
M  V30 18867 H 1800.89 4.06664 0.3299 0
M  V30 18868 H 1799.56 4.07688 -0.822409 0
M  V30 18869 H 1798.14 3.60658 0.947644 0
M  V30 18870 N 1800.33 0.304 1.5464 0
M  V30 18871 C 1801.24 -0.580159 2.27313 0
M  V30 18872 C 1802.25 -1.14588 1.30941 0
M  V30 18873 O 1803.43 -1.17002 1.63928 0
M  V30 18874 C 1800.49 -1.73437 3.00201 0
M  V30 18875 C 1799.55 -1.20243 4.12116 0
M  V30 18876 C 1798.79 -2.30164 4.81519 0
M  V30 18877 O 1799.01 -3.50123 4.503 0
M  V30 18878 O 1797.94 -1.96686 5.68857 0
M  V30 18879 H 1801.77 0.00944552 3.03699 0
M  V30 18880 H 1799.35 0.0703565 1.49234 0
M  V30 18881 H 1801.24 -2.40677 3.45908 0
M  V30 18882 H 1799.91 -2.31053 2.26708 0
M  V30 18883 H 1798.82 -0.495679 3.70802 0
M  V30 18884 H 1800.15 -0.67167 4.87596 0
M  V30 18885 N 1801.8 -1.57568 0.0317802 0
M  V30 18886 C 1803.05 -1.92194 -0.647238 0
M  V30 18887 C 1803.38 -0.908747 -1.71626 0
M  V30 18888 O 1802.66 0.0681334 -1.94381 0
M  V30 18889 C 1802.94 -3.3729 -1.26124 0
M  V30 18890 C 1802.79 -4.49348 -0.201594 0
M  V30 18891 C 1804.11 -3.824 -2.17849 0
M  V30 18892 H 1801.23 -0.698927 -0.233817 0
M  V30 18893 H 1803.87 -1.89789 0.0895831 0
M  V30 18894 H 1802.02 -3.39471 -1.88922 0
M  V30 18895 H 1803.7 -4.59299 0.429155 0
M  V30 18896 H 1801.94 -4.31218 0.472624 0
M  V30 18897 H 1802.61 -5.47908 -0.670859 0
M  V30 18898 H 1805.09 -3.81972 -1.65034 0
M  V30 18899 H 1803.96 -4.84614 -2.57761 0
M  V30 18900 H 1804.22 -3.18054 -3.07073 0
M  V30 18901 O 1803.32 0.109795 -1.61126 0
M  V30 18902 H 1804.01 0.740073 -1.79004 0
M  V30 END ATOM
M  V30 BEGIN BOND
M  V30 END BOND
M  V30 END CTAB
M  END
$$$$
